0
                    3D
 Structure written by MMmdl.
161169  0  0  1  0            999 V2000
  -30.6834  -14.5191   20.5944 C   0  0  0  0  0  0
  -30.4345  -12.3419   19.4242 C   0  0  0  0  0  0
  -29.5018  -12.5296   18.2093 C   0  0  0  0  0  0
  -28.0251  -12.3763   18.6205 C   0  0  0  0  0  0
  -27.6670  -13.2078   19.8797 C   0  0  2  0  0  0
  -28.7091  -12.9819   20.9987 C   0  0  0  0  0  0
  -25.2628  -13.8157   20.5687 C   0  0  0  0  0  0
  -24.1857  -13.0435   20.9142 C   0  0  0  0  0  0
  -24.6394  -11.6893   20.8712 C   0  0  0  0  0  0
  -23.9050  -10.4288   21.0364 C   0  0  0  0  0  0
  -24.3604   -9.4212   21.9154 C   0  0  0  0  0  0
  -23.6288   -8.2248   22.0732 C   0  0  0  0  0  0
  -22.4271   -8.0275   21.3527 C   0  0  0  0  0  0
  -21.9901   -9.0242   20.4629 C   0  0  0  0  0  0
  -22.7216  -10.2122   20.3029 C   0  0  0  0  0  0
  -21.6858   -6.0720   22.5271 C   0  0  0  0  0  0
  -21.4018   -6.5620   23.8202 C   0  0  0  0  0  0
  -21.3683   -5.6780   24.9168 C   0  0  0  0  0  0
  -21.6053   -4.3040   24.7217 C   0  0  0  0  0  0
  -21.8832   -3.8126   23.4337 C   0  0  0  0  0  0
  -21.9196   -4.6944   22.3398 C   0  0  0  0  0  0
  -22.7880  -13.5248   21.1823 C   0  0  0  0  0  0
  -22.1658   -4.2129   21.0974 F   0  0  0  0  0  0
  -21.5636   -3.4535   25.7729 F   0  0  0  0  0  0
  -30.0436  -13.3168   20.4607 N   0  0  0  0  0  0
  -26.3058  -12.9317   20.3361 N   0  0  0  0  0  0
  -25.9333  -11.6472   20.5740 N   0  0  0  0  0  0
  -22.0517  -12.8254   22.0377 N   0  0  0  0  0  0
  -25.4387  -15.1868   20.4181 N   0  0  0  0  0  0
  -31.7604  -14.7384   20.0361 O   0  0  0  0  0  0
  -21.6648   -6.8862   21.4224 O   0  0  0  0  0  0
  -22.3583  -14.5563   20.6669 O   0  0  0  0  0  0
  -24.6209  -31.8645   23.2044 C   0  0  0  0  0  0
  -25.9079  -32.4803   23.8370 C   0  0  1  0  0  0
  -27.2409  -27.3823   20.1279 C   0  0  0  0  0  0
  -25.5910  -33.8601   24.2296 N   0  0  0  0  0  0
  -23.4121  -30.4887   21.5433 C   0  0  2  0  0  0
  -24.8612  -28.9377   20.1232 C   0  0  0  0  0  0
  -22.7439  -29.4669   22.4925 C   0  0  0  0  0  0
  -18.0289  -28.1395   22.8498 C   0  0  0  0  0  0
  -24.1484  -36.7307   23.2644 C   0  0  0  0  0  0
  -25.9454  -30.8189   21.3626 C   0  0  0  0  0  0
  -26.0256  -29.4476   20.7109 C   0  0  0  0  0  0
  -27.2204  -28.6821   20.6993 C   0  0  0  0  0  0
  -26.0560  -26.8905   19.5424 C   0  0  0  0  0  0
  -24.8724  -27.6585   19.5367 C   0  0  0  0  0  0
  -23.6284  -29.8167   20.1609 C   0  0  0  0  0  0
  -25.4106  -36.3097   24.0336 C   0  0  1  0  0  0
  -20.5890  -28.3700   23.1285 C   0  0  2  0  0  0
  -20.6783  -26.9429   22.5421 C   0  0  0  0  0  0
  -19.5758  -26.6391   21.5227 C   0  0  0  0  0  0
  -18.1935  -26.7941   22.1632 C   0  0  0  0  0  0
  -19.1545  -28.8857   23.2894 C   0  0  0  0  0  0
  -18.9471  -30.1457   23.8917 C   0  0  0  0  0  0
  -17.6475  -30.6601   24.0568 C   0  0  0  0  0  0
  -25.9036  -34.9464   23.5110 C   0  0  0  0  0  0
  -16.5365  -29.9106   23.6325 C   0  0  0  0  0  0
  -16.7279  -28.6522   23.0348 C   0  0  0  0  0  0
  -26.4485  -31.6610   25.0727 C   0  0  0  0  0  0
  -25.3717  -31.3765   26.1457 C   0  0  0  0  0  0
  -27.0349  -30.3039   24.6182 C   0  0  0  0  0  0
  -27.6055  -32.4337   25.7496 C   0  0  0  0  0  0
  -27.5576  -37.1812   24.8466 C   0  0  0  0  0  0
  -21.4164  -29.3053   22.3658 N   0  0  0  0  0  0
  -26.4286  -37.3790   23.9412 N   0  0  0  0  0  0
  -24.6775  -31.0730   22.0949 N   0  0  0  0  0  0
  -23.4184  -28.8206   23.2988 O   0  0  0  0  0  0
  -28.3979  -26.6162   20.1070 O   0  0  0  0  0  0
  -26.5609  -34.8931   22.4672 O   0  0  0  0  0  0
  -23.5390  -32.1404   23.7425 O   0  0  0  0  0  0
  -28.4309  -18.4403   22.7001 C   0  0  0  0  0  0
  -28.8127  -19.4633   21.8211 C   0  0  0  0  0  0
  -28.8968  -17.1368   22.5022 C   0  0  0  0  0  0
  -29.7121  -19.2499   20.7460 C   0  0  0  0  0  0
  -30.2774  -17.9107   20.6454 C   0  0  0  0  0  0
  -29.8034  -16.8251   21.4703 C   0  0  0  0  0  0
  -29.4419  -22.9262   20.1603 C   0  0  0  0  0  0
  -29.7232  -19.9727   18.3763 C   0  0  0  0  0  0
  -31.4236  -17.6531   19.6801 C   0  0  0  0  0  0
  -28.3581  -24.0238   19.8958 C   0  0  0  0  0  0
  -28.3765  -25.3240   20.7850 C   0  0  0  0  0  0
  -30.0267  -20.4519   19.8145 C   0  0  1  0  0  0
  -30.6758  -20.1152   17.4590 N   0  0  0  0  0  0
  -30.0731  -15.3949   21.4281 N   0  0  0  0  0  0
  -29.1185  -21.6249   19.9602 N   0  0  0  0  0  0
  -30.5833  -23.2590   20.4810 O   0  0  0  0  0  0
  -28.6237  -19.5052   18.0772 O   0  0  0  0  0  0
  -31.4756  -12.4542   19.1162 H   0  0  0  0  0  0
  -30.3483  -11.3247   19.8107 H   0  0  0  0  0  0
  -29.7495  -11.8040   17.4346 H   0  0  0  0  0  0
  -29.6611  -13.5147   17.7682 H   0  0  0  0  0  0
  -27.8413  -11.3178   18.8101 H   0  0  0  0  0  0
  -27.3722  -12.6539   17.7913 H   0  0  0  0  0  0
  -27.7148  -14.2609   19.5996 H   0  0  0  0  0  0
  -28.6943  -11.9392   21.3198 H   0  0  0  0  0  0
  -28.4444  -13.5572   21.8854 H   0  0  0  0  0  0
  -25.2741   -9.5704   22.4732 H   0  0  0  0  0  0
  -24.0004   -7.4654   22.7467 H   0  0  0  0  0  0
  -21.0806   -8.8735   19.8964 H   0  0  0  0  0  0
  -22.3628  -10.9653   19.6149 H   0  0  0  0  0  0
  -21.2000   -7.6131   23.9691 H   0  0  0  0  0  0
  -21.1507   -6.0503   25.9065 H   0  0  0  0  0  0
  -22.0595   -2.7585   23.2829 H   0  0  0  0  0  0
  -22.4130  -11.9929   22.4812 H   0  0  0  0  0  0
  -21.1132  -13.1282   22.2588 H   0  0  0  0  0  0
  -24.6771  -15.8441   20.5421 H   0  0  0  0  0  0
  -26.3087  -15.6325   20.1516 H   0  0  0  0  0  0
  -26.7163  -32.5516   23.1148 H   0  0  0  0  0  0
  -25.0039  -33.9752   25.0431 H   0  0  0  0  0  0
  -22.7037  -31.3068   21.3978 H   0  0  0  0  0  0
  -23.3736  -35.9653   23.3315 H   0  0  0  0  0  0
  -24.3580  -36.8915   22.2062 H   0  0  0  0  0  0
  -23.7251  -37.6519   23.6649 H   0  0  0  0  0  0
  -26.0672  -31.5850   20.5959 H   0  0  0  0  0  0
  -26.8287  -30.8728   21.9868 H   0  0  0  0  0  0
  -28.1217  -29.0768   21.1480 H   0  0  0  0  0  0
  -26.0476  -25.9077   19.0934 H   0  0  0  0  0  0
  -23.9714  -27.2529   19.0962 H   0  0  0  0  0  0
  -23.7588  -30.5917   19.4044 H   0  0  0  0  0  0
  -22.7484  -29.2510   19.8501 H   0  0  0  0  0  0
  -25.1288  -36.1953   25.0833 H   0  0  0  0  0  0
  -21.0014  -28.3302   24.1393 H   0  0  0  0  0  0
  -20.5704  -26.2322   23.3622 H   0  0  0  0  0  0
  -21.6647  -26.7473   22.1198 H   0  0  0  0  0  0
  -19.6912  -25.6300   21.1255 H   0  0  0  0  0  0
  -19.6677  -27.3195   20.6748 H   0  0  0  0  0  0
  -17.4206  -26.6695   21.4032 H   0  0  0  0  0  0
  -18.0323  -26.0085   22.9027 H   0  0  0  0  0  0
  -19.7950  -30.7264   24.2290 H   0  0  0  0  0  0
  -17.5039  -31.6284   24.5166 H   0  0  0  0  0  0
  -15.5370  -30.3016   23.7639 H   0  0  0  0  0  0
  -15.8680  -28.0849   22.7043 H   0  0  0  0  0  0
  -24.5852  -30.7169   25.7768 H   0  0  0  0  0  0
  -24.8955  -32.2956   26.4888 H   0  0  0  0  0  0
  -25.8018  -30.8910   27.0226 H   0  0  0  0  0  0
  -26.2949  -29.6773   24.1190 H   0  0  0  0  0  0
  -27.4045  -29.7312   25.4703 H   0  0  0  0  0  0
  -27.8800  -30.4333   23.9413 H   0  0  0  0  0  0
  -27.2668  -33.3619   26.2108 H   0  0  0  0  0  0
  -28.3847  -32.6934   25.0316 H   0  0  0  0  0  0
  -28.0746  -31.8444   26.5387 H   0  0  0  0  0  0
  -28.2604  -38.0101   24.7499 H   0  0  0  0  0  0
  -28.1055  -36.2631   24.6287 H   0  0  0  0  0  0
  -27.2298  -37.1467   25.8872 H   0  0  0  0  0  0
  -20.9318  -29.8752   21.6861 H   0  0  0  0  0  0
  -26.0164  -38.2868   24.1399 H   0  0  0  0  0  0
  -27.7505  -18.6516   23.5142 H   0  0  0  0  0  0
  -28.3943  -20.4425   22.0034 H   0  0  0  0  0  0
  -28.5429  -16.3642   23.1715 H   0  0  0  0  0  0
  -31.9085  -18.5668   19.3433 H   0  0  0  0  0  0
  -31.0841  -17.0929   18.8077 H   0  0  0  0  0  0
  -32.2109  -17.0971   20.1851 H   0  0  0  0  0  0
  -27.3719  -23.5643   19.9757 H   0  0  0  0  0  0
  -28.4615  -24.3152   18.8511 H   0  0  0  0  0  0
  -29.2557  -25.3061   21.4296 H   0  0  0  0  0  0
  -27.5339  -25.2863   21.4781 H   0  0  0  0  0  0
  -31.0711  -20.7553   19.9189 H   0  0  0  0  0  0
  -31.5602  -20.5402   17.7013 H   0  0  0  0  0  0
  -30.5151  -19.8177   16.5082 H   0  0  0  0  0  0
  -29.4165  -14.8834   21.9985 H   0  0  0  0  0  0
  -28.1725  -21.4348   19.6576 H   0  0  0  0  0  0
  1 25  1  0  0  0
  1 30  2  0  0  0
  1 84  1  0  0  0
  2  3  1  0  0  0
  2 25  1  0  0  0
  2 88  1  0  0  0
  2 89  1  0  0  0
  3  4  1  0  0  0
  3 90  1  0  0  0
  3 91  1  0  0  0
  4  5  1  0  0  0
  4 92  1  0  0  0
  4 93  1  0  0  0
  5  6  1  0  0  0
  5 26  1  0  0  0
  5 94  1  0  0  0
  6 25  1  0  0  0
  6 95  1  0  0  0
  6 96  1  0  0  0
  7  8  2  0  0  0
  7 26  1  0  0  0
  7 29  1  0  0  0
  8  9  1  0  0  0
  8 22  1  0  0  0
  9 10  1  0  0  0
  9 27  2  0  0  0
 10 11  2  0  0  0
 10 15  1  0  0  0
 11 12  1  0  0  0
 11 97  1  0  0  0
 12 13  2  0  0  0
 12 98  1  0  0  0
 13 14  1  0  0  0
 13 31  1  0  0  0
 14 15  2  0  0  0
 14 99  1  0  0  0
 15100  1  0  0  0
 16 17  2  0  0  0
 16 21  1  0  0  0
 16 31  1  0  0  0
 17 18  1  0  0  0
 17101  1  0  0  0
 18 19  2  0  0  0
 18102  1  0  0  0
 19 20  1  0  0  0
 19 24  1  0  0  0
 20 21  2  0  0  0
 20103  1  0  0  0
 21 23  1  0  0  0
 22 28  1  0  0  0
 22 32  2  0  0  0
 26 27  1  0  0  0
 28104  1  0  0  0
 28105  1  0  0  0
 29106  1  0  0  0
 29107  1  0  0  0
 33 34  1  0  0  0
 33 66  1  0  0  0
 33 70  2  0  0  0
 34 36  1  0  0  0
 34 59  1  0  0  0
 34108  1  0  0  0
 35 44  2  0  0  0
 35 45  1  0  0  0
 35 68  1  0  0  0
 36 56  1  0  0  0
 36109  1  0  0  0
 37 39  1  0  0  0
 37 47  1  0  0  0
 37 66  1  0  0  0
 37110  1  0  0  0
 38 43  2  0  0  0
 38 46  1  0  0  0
 38 47  1  0  0  0
 39 64  1  0  0  0
 39 67  2  0  0  0
 40 52  1  0  0  0
 40 53  2  0  0  0
 40 58  1  0  0  0
 41111  1  0  0  0
 41112  1  0  0  0
 41113  1  0  0  0
 41 48  1  0  0  0
 42 43  1  0  0  0
 42 66  1  0  0  0
 42114  1  0  0  0
 42115  1  0  0  0
 43 44  1  0  0  0
 44116  1  0  0  0
 45 46  2  0  0  0
 45117  1  0  0  0
 46118  1  0  0  0
 47119  1  0  0  0
 47120  1  0  0  0
 48 56  1  0  0  0
 48 65  1  0  0  0
 48121  1  0  0  0
 49 50  1  0  0  0
 49 53  1  0  0  0
 49 64  1  0  0  0
 49122  1  0  0  0
 50 51  1  0  0  0
 50123  1  0  0  0
 50124  1  0  0  0
 51 52  1  0  0  0
 51125  1  0  0  0
 51126  1  0  0  0
 52127  1  0  0  0
 52128  1  0  0  0
 53 54  1  0  0  0
 54 55  2  0  0  0
 54129  1  0  0  0
 55 57  1  0  0  0
 55130  1  0  0  0
 56 69  2  0  0  0
 57 58  2  0  0  0
 57131  1  0  0  0
 58132  1  0  0  0
 59 60  1  0  0  0
 59 61  1  0  0  0
 59 62  1  0  0  0
 60133  1  0  0  0
 60134  1  0  0  0
 60135  1  0  0  0
 61136  1  0  0  0
 61137  1  0  0  0
 61138  1  0  0  0
 62139  1  0  0  0
 62140  1  0  0  0
 62141  1  0  0  0
 63 65  1  0  0  0
 63142  1  0  0  0
 63143  1  0  0  0
 63144  1  0  0  0
 64145  1  0  0  0
 65146  1  0  0  0
 68 81  1  0  0  0
 71 72  2  0  0  0
 71 73  1  0  0  0
 71147  1  0  0  0
 72 74  1  0  0  0
 72148  1  0  0  0
 73 76  2  0  0  0
 73149  1  0  0  0
 74 75  2  0  0  0
 74 82  1  0  0  0
 75 76  1  0  0  0
 75 79  1  0  0  0
 76 84  1  0  0  0
 77 80  1  0  0  0
 77 85  1  0  0  0
 77 86  2  0  0  0
 78 82  1  0  0  0
 78 83  1  0  0  0
 78 87  2  0  0  0
 79150  1  0  0  0
 79151  1  0  0  0
 79152  1  0  0  0
 80 81  1  0  0  0
 80153  1  0  0  0
 80154  1  0  0  0
 81155  1  0  0  0
 81156  1  0  0  0
 82 85  1  0  0  0
 82157  1  0  0  0
 83158  1  0  0  0
 83159  1  0  0  0
 84160  1  0  0  0
 85161  1  0  0  0
M  ISO  4   1 100  68 101  81 101  84 100
M  END
> <chiral flag>
0

> <version>
0

> <s_m_source_file>
/data/baiqing/PycharmProjects/Reinvent-master-3.2/result/LINK_invent/BTK/process_docking_weight1_custom_product_contain_oxygen_bond_distance_aromatic_linkinvent_7_9_3/rearranged_h_0062.sdf

> <i_m_source_file_index>
1

> <r_mmod_Potential_Energy-OPLS-2005>
-206.429168701172

> <r_mmod_Stretch_Energy-OPLS-2005>
68.6498489379883

> <r_mmod_Bend_Energy-OPLS-2005>
168.128067016602

> <r_mmod_Torsional_Energy-OPLS-2005>
229.446517944336

> <r_mmod_Improper_Torsional_Energy-OPLS-2005>
4.6111364364624

> <r_mmod_Van_der_Waal_Energy-OPLS-2005>
153.875015258789

> <r_mmod_Electrostatic_Energy-OPLS-2005>
-590.403991699219

> <r_mmod_Solvation_Energy-OPLS-2005>
-260.011871337891

> <b_mmod_Minimization_Converged-OPLS-2005>
0

> <r_mmod_RMS_Derivative-OPLS-2005>
2.87943959236145

$$$$
1
                    3D
 Structure written by MMmdl.
159168  0  0  1  0            999 V2000
  -30.6344  -14.7295   20.4646 C   0  0  0  0  0  0
  -30.4251  -12.4457   19.4733 C   0  0  0  0  0  0
  -29.5057  -12.5008   18.2348 C   0  0  0  0  0  0
  -28.0328  -12.3271   18.6506 C   0  0  0  0  0  0
  -27.6398  -13.2323   19.8488 C   0  0  2  0  0  0
  -28.6843  -13.1752   20.9849 C   0  0  0  0  0  0
  -25.2502  -13.8201   20.5696 C   0  0  0  0  0  0
  -24.1796  -13.0445   20.9213 C   0  0  0  0  0  0
  -24.6388  -11.6923   20.8754 C   0  0  0  0  0  0
  -23.9069  -10.4295   21.0411 C   0  0  0  0  0  0
  -24.3620   -9.4209   21.9187 C   0  0  0  0  0  0
  -23.6295   -8.2244   22.0754 C   0  0  0  0  0  0
  -22.4278   -8.0282   21.3544 C   0  0  0  0  0  0
  -21.9915   -9.0255   20.4645 C   0  0  0  0  0  0
  -22.7243  -10.2136   20.3057 C   0  0  0  0  0  0
  -21.6854   -6.0736   22.5279 C   0  0  0  0  0  0
  -21.4014   -6.5640   23.8212 C   0  0  0  0  0  0
  -21.3659   -5.6793   24.9174 C   0  0  0  0  0  0
  -21.6044   -4.3056   24.7225 C   0  0  0  0  0  0
  -21.8819   -3.8148   23.4347 C   0  0  0  0  0  0
  -21.9192   -4.6964   22.3402 C   0  0  0  0  0  0
  -22.7817  -13.5225   21.1872 C   0  0  0  0  0  0
  -22.1662   -4.2150   21.0980 F   0  0  0  0  0  0
  -21.5628   -3.4539   25.7737 F   0  0  0  0  0  0
  -29.9860  -13.5164   20.3992 N   0  0  0  0  0  0
  -26.2926  -12.9409   20.3279 N   0  0  0  0  0  0
  -25.9318  -11.6551   20.5760 N   0  0  0  0  0  0
  -22.0463  -12.8211   22.0425 N   0  0  0  0  0  0
  -25.4190  -15.1925   20.4099 N   0  0  0  0  0  0
  -31.8229  -14.7827   20.1399 O   0  0  0  0  0  0
  -21.6642   -6.8880   21.4241 O   0  0  0  0  0  0
  -22.3502  -14.5531   20.6719 O   0  0  0  0  0  0
  -24.6307  -31.8554   23.1975 C   0  0  0  0  0  0
  -25.9134  -32.4752   23.8323 C   0  0  1  0  0  0
  -27.2200  -27.2654   20.1194 C   0  0  0  0  0  0
  -25.5931  -33.8554   24.2247 N   0  0  0  0  0  0
  -23.4257  -30.4784   21.5416 C   0  0  2  0  0  0
  -24.8701  -28.9245   20.1094 C   0  0  0  0  0  0
  -22.7499  -29.4601   22.4913 C   0  0  0  0  0  0
  -18.0293  -28.1391   22.8483 C   0  0  0  0  0  0
  -24.1492  -36.7283   23.2640 C   0  0  0  0  0  0
  -25.9712  -30.7690   21.3757 C   0  0  0  0  0  0
  -26.0411  -29.3922   20.7167 C   0  0  0  0  0  0
  -27.2142  -28.5739   20.7112 C   0  0  0  0  0  0
  -26.0179  -26.8574   19.4965 C   0  0  0  0  0  0
  -24.8637  -27.6651   19.4913 C   0  0  0  0  0  0
  -23.6418  -29.8119   20.1573 C   0  0  0  0  0  0
  -25.4120  -36.3068   24.0325 C   0  0  1  0  0  0
  -20.5896  -28.3697   23.1276 C   0  0  2  0  0  0
  -20.6778  -26.9415   22.5412 C   0  0  0  0  0  0
  -19.5753  -26.6383   21.5215 C   0  0  0  0  0  0
  -18.1933  -26.7931   22.1625 C   0  0  0  0  0  0
  -19.1546  -28.8861   23.2873 C   0  0  0  0  0  0
  -18.9468  -30.1462   23.8890 C   0  0  0  0  0  0
  -17.6467  -30.6588   24.0564 C   0  0  0  0  0  0
  -25.9061  -34.9440   23.5090 C   0  0  0  0  0  0
  -16.5358  -29.9086   23.6333 C   0  0  0  0  0  0
  -16.7280  -28.6508   23.0347 C   0  0  0  0  0  0
  -26.4502  -31.6579   25.0715 C   0  0  0  0  0  0
  -25.3718  -31.3734   26.1434 C   0  0  0  0  0  0
  -27.0354  -30.2998   24.6202 C   0  0  0  0  0  0
  -27.6051  -32.4327   25.7491 C   0  0  0  0  0  0
  -27.5582  -37.1795   24.8466 C   0  0  0  0  0  0
  -21.4207  -29.3042   22.3664 N   0  0  0  0  0  0
  -26.4293  -37.3767   23.9412 N   0  0  0  0  0  0
  -24.6951  -31.0526   22.0945 N   0  0  0  0  0  0
  -23.4205  -28.8141   23.3006 O   0  0  0  0  0  0
  -28.3480  -26.4162   20.1943 O   0  0  0  0  0  0
  -26.5636  -34.8914   22.4661 O   0  0  0  0  0  0
  -23.5461  -32.1378   23.7276 O   0  0  0  0  0  0
  -29.3681  -18.4592   20.6391 C   0  0  0  0  0  0
  -31.6460  -17.6777   20.8650 C   0  0  0  0  0  0
  -31.1589  -20.0946   20.9567 C   0  0  0  0  0  0
  -29.7657  -19.8664   20.7554 C   0  0  0  0  0  0
  -30.2863  -17.3280   20.7056 C   0  0  0  0  0  0
  -32.0686  -19.0136   20.9787 C   0  0  0  0  0  0
  -26.9976  -22.2303   21.8703 C   0  0  0  0  0  0
  -27.3640  -23.4517   21.4324 C   0  0  0  0  0  0
  -27.7736  -20.9999   21.6792 C   0  0  0  0  0  0
  -29.0019  -22.3015   19.9551 C   0  0  0  0  0  0
  -28.5940  -23.7183   20.6063 C   0  0  1  0  0  0
  -31.7340  -21.4771   21.2472 C   0  0  0  0  0  0
  -28.4083  -25.0150   19.6548 C   0  0  0  0  0  0
  -28.8221  -21.0340   20.7989 N   0  0  0  0  0  0
  -29.8860  -15.8877   20.6664 N   0  0  0  0  0  0
  -27.4863  -19.9853   22.3225 O   0  0  0  0  0  0
  -33.3909  -19.2549   21.1544 F   0  0  0  0  0  0
  -31.4674  -12.5551   19.1694 H   0  0  0  0  0  0
  -30.3595  -11.4718   19.9611 H   0  0  0  0  0  0
  -29.7863  -11.7249   17.5209 H   0  0  0  0  0  0
  -29.6340  -13.4540   17.7192 H   0  0  0  0  0  0
  -27.8914  -11.2794   18.9190 H   0  0  0  0  0  0
  -27.3739  -12.5137   17.8017 H   0  0  0  0  0  0
  -27.6319  -14.2516   19.4622 H   0  0  0  0  0  0
  -28.7162  -12.1828   21.4366 H   0  0  0  0  0  0
  -28.4222  -13.8682   21.7860 H   0  0  0  0  0  0
  -25.2763   -9.5687   22.4764 H   0  0  0  0  0  0
  -24.0004   -7.4635   22.7473 H   0  0  0  0  0  0
  -21.0847   -8.8773   19.8949 H   0  0  0  0  0  0
  -22.3700  -10.9675   19.6168 H   0  0  0  0  0  0
  -21.2007   -7.6148   23.9716 H   0  0  0  0  0  0
  -21.1482   -6.0523   25.9077 H   0  0  0  0  0  0
  -22.0598   -2.7610   23.2846 H   0  0  0  0  0  0
  -22.4084  -11.9872   22.4809 H   0  0  0  0  0  0
  -21.1080  -13.1231   22.2633 H   0  0  0  0  0  0
  -24.6491  -15.8441   20.5167 H   0  0  0  0  0  0
  -26.2602  -15.6314   20.0590 H   0  0  0  0  0  0
  -26.7195  -32.5395   23.1059 H   0  0  0  0  0  0
  -25.0069  -33.9688   25.0387 H   0  0  0  0  0  0
  -22.7217  -31.3004   21.3958 H   0  0  0  0  0  0
  -23.3755  -35.9614   23.3299 H   0  0  0  0  0  0
  -24.3580  -36.8914   22.2055 H   0  0  0  0  0  0
  -23.7247  -37.6483   23.6670 H   0  0  0  0  0  0
  -26.1115  -31.5302   20.6069 H   0  0  0  0  0  0
  -26.8484  -30.8158   22.0094 H   0  0  0  0  0  0
  -28.1121  -28.9285   21.1975 H   0  0  0  0  0  0
  -25.9162  -25.8938   19.0260 H   0  0  0  0  0  0
  -23.9632  -27.2983   19.0177 H   0  0  0  0  0  0
  -23.7659  -30.5884   19.4015 H   0  0  0  0  0  0
  -22.7591  -29.2468   19.8527 H   0  0  0  0  0  0
  -25.1299  -36.1911   25.0816 H   0  0  0  0  0  0
  -20.9989  -28.3275   24.1397 H   0  0  0  0  0  0
  -20.5688  -26.2305   23.3614 H   0  0  0  0  0  0
  -21.6643  -26.7442   22.1197 H   0  0  0  0  0  0
  -19.6919  -25.6293   21.1246 H   0  0  0  0  0  0
  -19.6693  -27.3191   20.6743 H   0  0  0  0  0  0
  -17.4203  -26.6683   21.4027 H   0  0  0  0  0  0
  -18.0330  -26.0077   22.9025 H   0  0  0  0  0  0
  -19.7944  -30.7283   24.2251 H   0  0  0  0  0  0
  -17.5018  -31.6266   24.5171 H   0  0  0  0  0  0
  -15.5356  -30.2984   23.7659 H   0  0  0  0  0  0
  -15.8681  -28.0826   22.7056 H   0  0  0  0  0  0
  -24.5897  -30.7080   25.7762 H   0  0  0  0  0  0
  -24.8902  -32.2903   26.4840 H   0  0  0  0  0  0
  -25.8024  -30.8927   27.0225 H   0  0  0  0  0  0
  -26.2942  -29.6739   24.1219 H   0  0  0  0  0  0
  -27.4035  -29.7270   25.4722 H   0  0  0  0  0  0
  -27.8815  -30.4280   23.9447 H   0  0  0  0  0  0
  -27.2655  -33.3634   26.2048 H   0  0  0  0  0  0
  -28.3868  -32.6876   25.0324 H   0  0  0  0  0  0
  -28.0707  -31.8467   26.5425 H   0  0  0  0  0  0
  -28.2589  -38.0101   24.7510 H   0  0  0  0  0  0
  -28.1085  -36.2628   24.6288 H   0  0  0  0  0  0
  -27.2296  -37.1440   25.8867 H   0  0  0  0  0  0
  -20.9390  -29.8773   21.6877 H   0  0  0  0  0  0
  -26.0172  -38.2843   24.1402 H   0  0  0  0  0  0
  -28.3157  -18.2411   20.5223 H   0  0  0  0  0  0
  -32.4168  -16.9284   20.9430 H   0  0  0  0  0  0
  -26.0901  -22.1561   22.4512 H   0  0  0  0  0  0
  -26.7446  -24.3068   21.6653 H   0  0  0  0  0  0
  -29.9977  -22.3598   19.5243 H   0  0  0  0  0  0
  -28.3561  -22.1521   19.0890 H   0  0  0  0  0  0
  -29.3779  -23.9784   21.3184 H   0  0  0  0  0  0
  -32.0491  -21.9675   20.3264 H   0  0  0  0  0  0
  -32.6110  -21.4086   21.8913 H   0  0  0  0  0  0
  -31.0274  -22.1170   21.7736 H   0  0  0  0  0  0
  -27.6197  -24.8051   18.9387 H   0  0  0  0  0  0
  -29.2983  -25.0348   19.0251 H   0  0  0  0  0  0
  -28.9001  -15.7130   20.7892 H   0  0  0  0  0  0
  1 25  1  0  0  0
  1 30  2  0  0  0
  1 85  1  0  0  0
  2  3  1  0  0  0
  2 25  1  0  0  0
  2 88  1  0  0  0
  2 89  1  0  0  0
  3  4  1  0  0  0
  3 90  1  0  0  0
  3 91  1  0  0  0
  4  5  1  0  0  0
  4 92  1  0  0  0
  4 93  1  0  0  0
  5  6  1  0  0  0
  5 26  1  0  0  0
  5 94  1  0  0  0
  6 25  1  0  0  0
  6 95  1  0  0  0
  6 96  1  0  0  0
  7  8  2  0  0  0
  7 26  1  0  0  0
  7 29  1  0  0  0
  8  9  1  0  0  0
  8 22  1  0  0  0
  9 10  1  0  0  0
  9 27  2  0  0  0
 10 11  2  0  0  0
 10 15  1  0  0  0
 11 12  1  0  0  0
 11 97  1  0  0  0
 12 13  2  0  0  0
 12 98  1  0  0  0
 13 14  1  0  0  0
 13 31  1  0  0  0
 14 15  2  0  0  0
 14 99  1  0  0  0
 15100  1  0  0  0
 16 17  2  0  0  0
 16 21  1  0  0  0
 16 31  1  0  0  0
 17 18  1  0  0  0
 17101  1  0  0  0
 18 19  2  0  0  0
 18102  1  0  0  0
 19 20  1  0  0  0
 19 24  1  0  0  0
 20 21  2  0  0  0
 20103  1  0  0  0
 21 23  1  0  0  0
 22 28  1  0  0  0
 22 32  2  0  0  0
 26 27  1  0  0  0
 28104  1  0  0  0
 28105  1  0  0  0
 29106  1  0  0  0
 29107  1  0  0  0
 33 34  1  0  0  0
 33 66  1  0  0  0
 33 70  2  0  0  0
 34 36  1  0  0  0
 34 59  1  0  0  0
 34108  1  0  0  0
 35 44  2  0  0  0
 35 45  1  0  0  0
 35 68  1  0  0  0
 36 56  1  0  0  0
 36109  1  0  0  0
 37 39  1  0  0  0
 37 47  1  0  0  0
 37 66  1  0  0  0
 37110  1  0  0  0
 38 43  2  0  0  0
 38 46  1  0  0  0
 38 47  1  0  0  0
 39 64  1  0  0  0
 39 67  2  0  0  0
 40 52  1  0  0  0
 40 53  2  0  0  0
 40 58  1  0  0  0
 41111  1  0  0  0
 41112  1  0  0  0
 41113  1  0  0  0
 41 48  1  0  0  0
 42 43  1  0  0  0
 42 66  1  0  0  0
 42114  1  0  0  0
 42115  1  0  0  0
 43 44  1  0  0  0
 44116  1  0  0  0
 45 46  2  0  0  0
 45117  1  0  0  0
 46118  1  0  0  0
 47119  1  0  0  0
 47120  1  0  0  0
 48 56  1  0  0  0
 48 65  1  0  0  0
 48121  1  0  0  0
 49 50  1  0  0  0
 49 53  1  0  0  0
 49 64  1  0  0  0
 49122  1  0  0  0
 50 51  1  0  0  0
 50123  1  0  0  0
 50124  1  0  0  0
 51 52  1  0  0  0
 51125  1  0  0  0
 51126  1  0  0  0
 52127  1  0  0  0
 52128  1  0  0  0
 53 54  1  0  0  0
 54 55  2  0  0  0
 54129  1  0  0  0
 55 57  1  0  0  0
 55130  1  0  0  0
 56 69  2  0  0  0
 57 58  2  0  0  0
 57131  1  0  0  0
 58132  1  0  0  0
 59 60  1  0  0  0
 59 61  1  0  0  0
 59 62  1  0  0  0
 60133  1  0  0  0
 60134  1  0  0  0
 60135  1  0  0  0
 61136  1  0  0  0
 61137  1  0  0  0
 61138  1  0  0  0
 62139  1  0  0  0
 62140  1  0  0  0
 62141  1  0  0  0
 63 65  1  0  0  0
 63142  1  0  0  0
 63143  1  0  0  0
 63144  1  0  0  0
 64145  1  0  0  0
 65146  1  0  0  0
 68 83  1  0  0  0
 71 74  2  0  0  0
 71 75  1  0  0  0
 71147  1  0  0  0
 72 75  2  0  0  0
 72 76  1  0  0  0
 72148  1  0  0  0
 73 74  1  0  0  0
 73 76  2  0  0  0
 73 82  1  0  0  0
 74 84  1  0  0  0
 75 85  1  0  0  0
 76 87  1  0  0  0
 77 78  2  0  0  0
 77 79  1  0  0  0
 77149  1  0  0  0
 78 81  1  0  0  0
 78150  1  0  0  0
 79 84  1  0  0  0
 79 86  2  0  0  0
 80 81  1  0  0  0
 80 84  1  0  0  0
 80151  1  0  0  0
 80152  1  0  0  0
 81 83  1  0  0  0
 81153  1  0  0  0
 82154  1  0  0  0
 82155  1  0  0  0
 82156  1  0  0  0
 83157  1  0  0  0
 83158  1  0  0  0
 85159  1  0  0  0
M  ISO  4   1 100  68 101  83 101  85 100
M  END
> <chiral flag>
0

> <version>
0

> <s_m_source_file>
/data/baiqing/PycharmProjects/Reinvent-master-3.2/result/LINK_invent/BTK/process_docking_weight1_custom_product_contain_oxygen_bond_distance_aromatic_linkinvent_7_9_3/rearranged_h_0062.sdf

> <i_m_source_file_index>
2

> <r_mmod_Potential_Energy-OPLS-2005>
285.204620361328

> <r_mmod_Stretch_Energy-OPLS-2005>
136.033981323242

> <r_mmod_Bend_Energy-OPLS-2005>
181.740432739258

> <r_mmod_Torsional_Energy-OPLS-2005>
265.403900146484

> <r_mmod_Improper_Torsional_Energy-OPLS-2005>
5.86149501800537

> <r_mmod_Van_der_Waal_Energy-OPLS-2005>
165.234008789062

> <r_mmod_Electrostatic_Energy-OPLS-2005>
-333.222717285156

> <r_mmod_Solvation_Energy-OPLS-2005>
-213.969787597656

> <b_mmod_Minimization_Converged-OPLS-2005>
0

> <r_mmod_RMS_Derivative-OPLS-2005>
0.486909598112106

$$$$
2
                    3D
 Structure written by MMmdl.
166174  0  0  1  0            999 V2000
  -30.7140  -14.5200   20.5539 C   0  0  0  0  0  0
  -30.4173  -12.3316   19.4441 C   0  0  0  0  0  0
  -29.4940  -12.4942   18.2192 C   0  0  0  0  0  0
  -28.0167  -12.3531   18.6318 C   0  0  0  0  0  0
  -27.6545  -13.2167   19.8693 C   0  0  2  0  0  0
  -28.6981  -13.0529   20.9986 C   0  0  0  0  0  0
  -25.2563  -13.8195   20.5702 C   0  0  0  0  0  0
  -24.1816  -13.0442   20.9183 C   0  0  0  0  0  0
  -24.6391  -11.6918   20.8748 C   0  0  0  0  0  0
  -23.9061  -10.4305   21.0410 C   0  0  0  0  0  0
  -24.3613   -9.4221   21.9183 C   0  0  0  0  0  0
  -23.6296   -8.2251   22.0756 C   0  0  0  0  0  0
  -22.4277   -8.0290   21.3547 C   0  0  0  0  0  0
  -21.9910   -9.0256   20.4644 C   0  0  0  0  0  0
  -22.7235  -10.2142   20.3056 C   0  0  0  0  0  0
  -21.6849   -6.0742   22.5276 C   0  0  0  0  0  0
  -21.4016   -6.5647   23.8212 C   0  0  0  0  0  0
  -21.3662   -5.6798   24.9176 C   0  0  0  0  0  0
  -21.6041   -4.3058   24.7224 C   0  0  0  0  0  0
  -21.8818   -3.8154   23.4346 C   0  0  0  0  0  0
  -21.9200   -4.6971   22.3403 C   0  0  0  0  0  0
  -22.7847  -13.5237   21.1846 C   0  0  0  0  0  0
  -22.1661   -4.2158   21.0978 F   0  0  0  0  0  0
  -21.5631   -3.4542   25.7737 F   0  0  0  0  0  0
  -30.0253  -13.3479   20.4365 N   0  0  0  0  0  0
  -26.2991  -12.9368   20.3368 N   0  0  0  0  0  0
  -25.9321  -11.6522   20.5778 N   0  0  0  0  0  0
  -22.0498  -12.8217   22.0409 N   0  0  0  0  0  0
  -25.4283  -15.1913   20.4137 N   0  0  0  0  0  0
  -31.8557  -14.6431   20.1048 O   0  0  0  0  0  0
  -21.6645   -6.8886   21.4238 O   0  0  0  0  0  0
  -22.3526  -14.5538   20.6706 O   0  0  0  0  0  0
  -24.6159  -31.8674   23.2129 C   0  0  0  0  0  0
  -25.9051  -32.4825   23.8438 C   0  0  1  0  0  0
  -27.2307  -27.3918   20.1029 C   0  0  0  0  0  0
  -25.5918  -33.8636   24.2379 N   0  0  0  0  0  0
  -23.4075  -30.4899   21.5546 C   0  0  2  0  0  0
  -24.8507  -28.9536   20.1193 C   0  0  0  0  0  0
  -22.7437  -29.4611   22.4995 C   0  0  0  0  0  0
  -18.0262  -28.1305   22.8476 C   0  0  0  0  0  0
  -24.1477  -36.7294   23.2644 C   0  0  0  0  0  0
  -25.9433  -30.8141   21.3814 C   0  0  0  0  0  0
  -26.0136  -29.4497   20.7190 C   0  0  0  0  0  0
  -27.2014  -28.6777   20.7038 C   0  0  0  0  0  0
  -26.0380  -26.9186   19.5052 C   0  0  0  0  0  0
  -24.8596  -27.6882   19.5119 C   0  0  0  0  0  0
  -23.6189  -29.8272   20.1679 C   0  0  0  0  0  0
  -25.4101  -36.3109   24.0339 C   0  0  1  0  0  0
  -20.5853  -28.3608   23.1296 C   0  0  2  0  0  0
  -20.6751  -26.9349   22.5382 C   0  0  0  0  0  0
  -19.5732  -26.6344   21.5159 C   0  0  0  0  0  0
  -18.1911  -26.7847   22.1581 C   0  0  0  0  0  0
  -19.1512  -28.8784   23.2872 C   0  0  0  0  0  0
  -18.9449  -30.1385   23.8890 C   0  0  0  0  0  0
  -17.6451  -30.6533   24.0540 C   0  0  0  0  0  0
  -25.9036  -34.9477   23.5155 C   0  0  0  0  0  0
  -16.5337  -29.9029   23.6312 C   0  0  0  0  0  0
  -16.7258  -28.6431   23.0373 C   0  0  0  0  0  0
  -26.4479  -31.6618   25.0789 C   0  0  0  0  0  0
  -25.3757  -31.3736   26.1559 C   0  0  0  0  0  0
  -27.0364  -30.3059   24.6229 C   0  0  0  0  0  0
  -27.6040  -32.4375   25.7543 C   0  0  0  0  0  0
  -27.5574  -37.1811   24.8467 C   0  0  0  0  0  0
  -21.4153  -29.2991   22.3744 N   0  0  0  0  0  0
  -26.4303  -37.3786   23.9401 N   0  0  0  0  0  0
  -24.6733  -31.0737   22.1060 N   0  0  0  0  0  0
  -23.4204  -28.8125   23.3022 O   0  0  0  0  0  0
  -28.4234  -26.6779   20.1124 O   0  0  0  0  0  0
  -26.5589  -34.8910   22.4711 O   0  0  0  0  0  0
  -23.5341  -32.1442   23.7497 O   0  0  0  0  0  0
  -31.1408  -19.7329   20.9432 C   0  0  0  0  0  0
  -31.7836  -17.3825   21.1451 C   0  0  0  0  0  0
  -29.7767  -19.3784   20.8534 C   0  0  0  0  0  0
  -30.4314  -16.9768   21.0263 C   0  0  0  0  0  0
  -32.1315  -18.7461   21.0963 C   0  0  0  0  0  0
  -29.4355  -17.9878   20.9082 C   0  0  0  0  0  0
  -28.7657  -20.4517   20.6379 C   0  0  0  0  0  0
  -26.7291  -22.6740   21.7821 C   0  0  0  0  0  0
  -29.8937  -24.3893   21.7687 C   0  0  0  0  0  0
  -25.9249  -22.0600   24.0397 C   0  0  0  0  0  0
  -28.4739  -25.2602   19.8086 C   0  0  0  0  0  0
  -27.9540  -22.8820   20.8733 C   0  0  1  0  0  0
  -28.5198  -24.3480   21.0756 C   0  0  1  0  0  0
  -27.6468  -20.1550   19.9772 N   0  0  0  0  0  0
  -30.0280  -15.5876   21.0304 N   0  0  0  0  0  0
  -26.9609  -22.2947   23.0433 N   0  0  0  0  0  0
  -28.9274  -21.7442   21.0478 N   0  3  0  0  0  0
  -25.5968  -22.8299   21.3280 O   0  0  0  0  0  0
  -33.4327  -19.1136   21.1861 F   0  0  0  0  0  0
  -28.1412  -17.5894   20.8009 F   0  0  0  0  0  0
  -31.4628  -12.4185   19.1438 H   0  0  0  0  0  0
  -30.3164  -11.3343   19.8744 H   0  0  0  0  0  0
  -29.7400  -11.7483   17.4630 H   0  0  0  0  0  0
  -29.6565  -13.4691   17.7568 H   0  0  0  0  0  0
  -27.8348  -11.2998   18.8468 H   0  0  0  0  0  0
  -27.3657  -12.6089   17.7953 H   0  0  0  0  0  0
  -27.6808  -14.2548   19.5388 H   0  0  0  0  0  0
  -28.6846  -12.0343   21.3887 H   0  0  0  0  0  0
  -28.4549  -13.6976   21.8450 H   0  0  0  0  0  0
  -25.2755   -9.5701   22.4755 H   0  0  0  0  0  0
  -24.0014   -7.4641   22.7470 H   0  0  0  0  0  0
  -21.0848   -8.8765   19.8939 H   0  0  0  0  0  0
  -22.3688  -10.9677   19.6169 H   0  0  0  0  0  0
  -21.2005   -7.6154   23.9718 H   0  0  0  0  0  0
  -21.1479   -6.0529   25.9078 H   0  0  0  0  0  0
  -22.0598   -2.7616   23.2840 H   0  0  0  0  0  0
  -22.4115  -11.9869   22.4770 H   0  0  0  0  0  0
  -21.1119  -13.1232   22.2627 H   0  0  0  0  0  0
  -24.6636  -15.8471   20.5316 H   0  0  0  0  0  0
  -26.2878  -15.6386   20.1198 H   0  0  0  0  0  0
  -26.7131  -32.5492   23.1199 H   0  0  0  0  0  0
  -25.0104  -33.9780   25.0548 H   0  0  0  0  0  0
  -22.6953  -31.3063   21.4179 H   0  0  0  0  0  0
  -23.3746  -35.9620   23.3322 H   0  0  0  0  0  0
  -24.3568  -36.8900   22.2060 H   0  0  0  0  0  0
  -23.7213  -37.6497   23.6648 H   0  0  0  0  0  0
  -26.0786  -31.5896   20.6264 H   0  0  0  0  0  0
  -26.8219  -30.8459   22.0167 H   0  0  0  0  0  0
  -28.0968  -29.0607   21.1729 H   0  0  0  0  0  0
  -25.9682  -25.9634   19.0135 H   0  0  0  0  0  0
  -23.9614  -27.2969   19.0521 H   0  0  0  0  0  0
  -23.7373  -30.6075   19.4149 H   0  0  0  0  0  0
  -22.7422  -29.2506   19.8689 H   0  0  0  0  0  0
  -25.1264  -36.1999   25.0830 H   0  0  0  0  0  0
  -20.9923  -28.3156   24.1420 H   0  0  0  0  0  0
  -20.5617  -26.2224   23.3571 H   0  0  0  0  0  0
  -21.6628  -26.7361   22.1203 H   0  0  0  0  0  0
  -19.6918  -25.6259   21.1176 H   0  0  0  0  0  0
  -19.6672  -27.3178   20.6705 H   0  0  0  0  0  0
  -17.4180  -26.6593   21.3987 H   0  0  0  0  0  0
  -18.0324  -25.9957   22.8951 H   0  0  0  0  0  0
  -19.7947  -30.7157   24.2295 H   0  0  0  0  0  0
  -17.5027  -31.6231   24.5103 H   0  0  0  0  0  0
  -15.5339  -30.2950   23.7620 H   0  0  0  0  0  0
  -15.8649  -28.0739   22.7154 H   0  0  0  0  0  0
  -24.5872  -30.7140   25.7904 H   0  0  0  0  0  0
  -24.9018  -32.2913   26.5066 H   0  0  0  0  0  0
  -25.8099  -30.8859   27.0296 H   0  0  0  0  0  0
  -26.2956  -29.6788   24.1266 H   0  0  0  0  0  0
  -27.4101  -29.7325   25.4722 H   0  0  0  0  0  0
  -27.8784  -30.4373   23.9430 H   0  0  0  0  0  0
  -27.2629  -33.3647   26.2149 H   0  0  0  0  0  0
  -28.3814  -32.7009   25.0360 H   0  0  0  0  0  0
  -28.0754  -31.8521   26.5443 H   0  0  0  0  0  0
  -28.2599  -38.0108   24.7512 H   0  0  0  0  0  0
  -28.1060  -36.2638   24.6287 H   0  0  0  0  0  0
  -27.2296  -37.1450   25.8877 H   0  0  0  0  0  0
  -20.9324  -29.8774   21.7013 H   0  0  0  0  0  0
  -26.0196  -38.2857   24.1419 H   0  0  0  0  0  0
  -31.4547  -20.7641   20.8807 H   0  0  0  0  0  0
  -32.5800  -16.6660   21.2682 H   0  0  0  0  0  0
  -30.1793  -25.4218   21.9750 H   0  0  0  0  0  0
  -30.6706  -23.9603   21.1357 H   0  0  0  0  0  0
  -29.8903  -23.8591   22.7222 H   0  0  0  0  0  0
  -25.5072  -23.0084   24.3810 H   0  0  0  0  0  0
  -26.3435  -21.5422   24.9026 H   0  0  0  0  0  0
  -25.1181  -21.4439   23.6401 H   0  0  0  0  0  0
  -27.6938  -24.9389   19.1286 H   0  0  0  0  0  0
  -29.3877  -25.0939   19.2377 H   0  0  0  0  0  0
  -27.5863  -22.8195   19.8470 H   0  0  0  0  0  0
  -27.8528  -24.8578   21.7761 H   0  0  0  0  0  0
  -27.4638  -19.1850   19.7595 H   0  0  0  0  0  0
  -26.9314  -20.8345   19.7887 H   0  0  0  0  0  0
  -29.0586  -15.4184   21.2539 H   0  0  0  0  0  0
  -27.9221  -22.2092   23.3441 H   0  0  0  0  0  0
  -29.7327  -21.9276   21.6272 H   0  0  0  0  0  0
  1 25  1  0  0  0
  1 30  2  0  0  0
  1 85  1  0  0  0
  2  3  1  0  0  0
  2 25  1  0  0  0
  2 91  1  0  0  0
  2 92  1  0  0  0
  3  4  1  0  0  0
  3 93  1  0  0  0
  3 94  1  0  0  0
  4  5  1  0  0  0
  4 95  1  0  0  0
  4 96  1  0  0  0
  5  6  1  0  0  0
  5 26  1  0  0  0
  5 97  1  0  0  0
  6 25  1  0  0  0
  6 98  1  0  0  0
  6 99  1  0  0  0
  7  8  2  0  0  0
  7 26  1  0  0  0
  7 29  1  0  0  0
  8  9  1  0  0  0
  8 22  1  0  0  0
  9 10  1  0  0  0
  9 27  2  0  0  0
 10 11  2  0  0  0
 10 15  1  0  0  0
 11 12  1  0  0  0
 11100  1  0  0  0
 12 13  2  0  0  0
 12101  1  0  0  0
 13 14  1  0  0  0
 13 31  1  0  0  0
 14 15  2  0  0  0
 14102  1  0  0  0
 15103  1  0  0  0
 16 17  2  0  0  0
 16 21  1  0  0  0
 16 31  1  0  0  0
 17 18  1  0  0  0
 17104  1  0  0  0
 18 19  2  0  0  0
 18105  1  0  0  0
 19 20  1  0  0  0
 19 24  1  0  0  0
 20 21  2  0  0  0
 20106  1  0  0  0
 21 23  1  0  0  0
 22 28  1  0  0  0
 22 32  2  0  0  0
 26 27  1  0  0  0
 28107  1  0  0  0
 28108  1  0  0  0
 29109  1  0  0  0
 29110  1  0  0  0
 33 34  1  0  0  0
 33 66  1  0  0  0
 33 70  2  0  0  0
 34 36  1  0  0  0
 34 59  1  0  0  0
 34111  1  0  0  0
 35 44  2  0  0  0
 35 45  1  0  0  0
 35 68  1  0  0  0
 36 56  1  0  0  0
 36112  1  0  0  0
 37 39  1  0  0  0
 37 47  1  0  0  0
 37 66  1  0  0  0
 37113  1  0  0  0
 38 43  2  0  0  0
 38 46  1  0  0  0
 38 47  1  0  0  0
 39 64  1  0  0  0
 39 67  2  0  0  0
 40 52  1  0  0  0
 40 53  2  0  0  0
 40 58  1  0  0  0
 41114  1  0  0  0
 41115  1  0  0  0
 41116  1  0  0  0
 41 48  1  0  0  0
 42 43  1  0  0  0
 42 66  1  0  0  0
 42117  1  0  0  0
 42118  1  0  0  0
 43 44  1  0  0  0
 44119  1  0  0  0
 45 46  2  0  0  0
 45120  1  0  0  0
 46121  1  0  0  0
 47122  1  0  0  0
 47123  1  0  0  0
 48 56  1  0  0  0
 48 65  1  0  0  0
 48124  1  0  0  0
 49 50  1  0  0  0
 49 53  1  0  0  0
 49 64  1  0  0  0
 49125  1  0  0  0
 50 51  1  0  0  0
 50126  1  0  0  0
 50127  1  0  0  0
 51 52  1  0  0  0
 51128  1  0  0  0
 51129  1  0  0  0
 52130  1  0  0  0
 52131  1  0  0  0
 53 54  1  0  0  0
 54 55  2  0  0  0
 54132  1  0  0  0
 55 57  1  0  0  0
 55133  1  0  0  0
 56 69  2  0  0  0
 57 58  2  0  0  0
 57134  1  0  0  0
 58135  1  0  0  0
 59 60  1  0  0  0
 59 61  1  0  0  0
 59 62  1  0  0  0
 60136  1  0  0  0
 60137  1  0  0  0
 60138  1  0  0  0
 61139  1  0  0  0
 61140  1  0  0  0
 61141  1  0  0  0
 62142  1  0  0  0
 62143  1  0  0  0
 62144  1  0  0  0
 63 65  1  0  0  0
 63145  1  0  0  0
 63146  1  0  0  0
 63147  1  0  0  0
 64148  1  0  0  0
 65149  1  0  0  0
 68 81  1  0  0  0
 71 73  2  0  0  0
 71 75  1  0  0  0
 71150  1  0  0  0
 72 74  1  0  0  0
 72 75  2  0  0  0
 72151  1  0  0  0
 73 76  1  0  0  0
 73 77  1  0  0  0
 74 76  2  0  0  0
 74 85  1  0  0  0
 75 89  1  0  0  0
 76 90  1  0  0  0
 77 84  1  0  0  0
 77 87  2  0  0  0
 78 82  1  0  0  0
 78 86  1  0  0  0
 78 88  2  0  0  0
 79152  1  0  0  0
 79153  1  0  0  0
 79154  1  0  0  0
 79 83  1  0  0  0
 80 86  1  0  0  0
 80155  1  0  0  0
 80156  1  0  0  0
 80157  1  0  0  0
 81 83  1  0  0  0
 81158  1  0  0  0
 81159  1  0  0  0
 82 83  1  0  0  0
 82 87  1  0  0  0
 82160  1  0  0  0
 83161  1  0  0  0
 84162  1  0  0  0
 84163  1  0  0  0
 85164  1  0  0  0
 86165  1  0  0  0
 87166  1  0  0  0
M  CHG  1  87   1
M  ISO  4   1 100  68 101  81 101  85 100
M  END
> <chiral flag>
0

> <version>
0

> <s_m_source_file>
/data/baiqing/PycharmProjects/Reinvent-master-3.2/result/LINK_invent/BTK/process_docking_weight1_custom_product_contain_oxygen_bond_distance_aromatic_linkinvent_7_9_3/rearranged_h_0062.sdf

> <i_m_source_file_index>
3

> <r_mmod_Potential_Energy-OPLS-2005>
-444.969512939453

> <r_mmod_Stretch_Energy-OPLS-2005>
53.9148559570312

> <r_mmod_Bend_Energy-OPLS-2005>
121.155632019043

> <r_mmod_Torsional_Energy-OPLS-2005>
242.994934082031

> <r_mmod_Improper_Torsional_Energy-OPLS-2005>
4.4295654296875

> <r_mmod_Van_der_Waal_Energy-OPLS-2005>
168.539337158203

> <r_mmod_Electrostatic_Energy-OPLS-2005>
-585.148986816406

> <r_mmod_Solvation_Energy-OPLS-2005>
-471.119689941406

> <b_mmod_Minimization_Converged-OPLS-2005>
0

> <r_mmod_RMS_Derivative-OPLS-2005>
2.7603132724762

$$$$
3
                    3D
 Structure written by MMmdl.
167176  0  0  1  0            999 V2000
  -30.6606  -14.6943   20.5092 C   0  0  0  0  0  0
  -30.4427  -12.4347   19.4611 C   0  0  0  0  0  0
  -29.5075  -12.5273   18.2341 C   0  0  0  0  0  0
  -28.0333  -12.3513   18.6492 C   0  0  0  0  0  0
  -27.6467  -13.2280   19.8704 C   0  0  2  0  0  0
  -28.7074  -13.1191   20.9960 C   0  0  0  0  0  0
  -25.2200  -13.7845   20.5539 C   0  0  0  0  0  0
  -24.1638  -13.0127   20.9243 C   0  0  0  0  0  0
  -24.6389  -11.6704   20.8824 C   0  0  0  0  0  0
  -23.9081  -10.4127   21.0437 C   0  0  0  0  0  0
  -24.3618   -9.4062   21.9219 C   0  0  0  0  0  0
  -23.6263   -8.2129   22.0775 C   0  0  0  0  0  0
  -22.4247   -8.0213   21.3547 C   0  0  0  0  0  0
  -21.9898   -9.0184   20.4642 C   0  0  0  0  0  0
  -22.7262  -10.2031   20.3058 C   0  0  0  0  0  0
  -21.6822   -6.0703   22.5280 C   0  0  0  0  0  0
  -21.3996   -6.5621   23.8211 C   0  0  0  0  0  0
  -21.3654   -5.6783   24.9179 C   0  0  0  0  0  0
  -21.6044   -4.3043   24.7235 C   0  0  0  0  0  0
  -21.8826   -3.8129   23.4356 C   0  0  0  0  0  0
  -21.9184   -4.6938   22.3407 C   0  0  0  0  0  0
  -22.7668  -13.4953   21.1898 C   0  0  0  0  0  0
  -22.1658   -4.2127   21.0986 F   0  0  0  0  0  0
  -21.5629   -3.4530   25.7753 F   0  0  0  0  0  0
  -30.0245  -13.4723   20.4294 N   0  0  0  0  0  0
  -26.2913  -12.9295   20.3398 N   0  0  0  0  0  0
  -25.9366  -11.6423   20.5907 N   0  0  0  0  0  0
  -22.0352  -12.7996   22.0509 N   0  0  0  0  0  0
  -25.3059  -15.1428   20.3527 N   0  0  0  0  0  0
  -31.8117  -14.8378   20.0924 O   0  0  0  0  0  0
  -21.6590   -6.8838   21.4243 O   0  0  0  0  0  0
  -22.3346  -14.5276   20.6760 O   0  0  0  0  0  0
  -24.6246  -31.8604   23.2024 C   0  0  0  0  0  0
  -25.9098  -32.4783   23.8349 C   0  0  1  0  0  0
  -27.2500  -27.3407   20.1190 C   0  0  0  0  0  0
  -25.5922  -33.8583   24.2278 N   0  0  0  0  0  0
  -23.4194  -30.4808   21.5442 C   0  0  2  0  0  0
  -24.8720  -28.9350   20.1155 C   0  0  0  0  0  0
  -22.7467  -29.4620   22.4946 C   0  0  0  0  0  0
  -18.0280  -28.1372   22.8483 C   0  0  0  0  0  0
  -24.1489  -36.7300   23.2638 C   0  0  0  0  0  0
  -25.9576  -30.7987   21.3709 C   0  0  0  0  0  0
  -26.0385  -29.4258   20.7155 C   0  0  0  0  0  0
  -27.2288  -28.6420   20.7052 C   0  0  0  0  0  0
  -26.0595  -26.8978   19.4956 C   0  0  0  0  0  0
  -24.8836  -27.6745   19.4972 C   0  0  0  0  0  0
  -23.6359  -29.8103   20.1617 C   0  0  0  0  0  0
  -25.4115  -36.3091   24.0327 C   0  0  1  0  0  0
  -20.5878  -28.3680   23.1284 C   0  0  2  0  0  0
  -20.6768  -26.9400   22.5416 C   0  0  0  0  0  0
  -19.5750  -26.6374   21.5211 C   0  0  0  0  0  0
  -18.1925  -26.7912   22.1618 C   0  0  0  0  0  0
  -19.1533  -28.8841   23.2876 C   0  0  0  0  0  0
  -18.9457  -30.1439   23.8894 C   0  0  0  0  0  0
  -17.6462  -30.6577   24.0561 C   0  0  0  0  0  0
  -25.9051  -34.9457   23.5104 C   0  0  0  0  0  0
  -16.5353  -29.9081   23.6322 C   0  0  0  0  0  0
  -16.7271  -28.6496   23.0348 C   0  0  0  0  0  0
  -26.4496  -31.6590   25.0713 C   0  0  0  0  0  0
  -25.3733  -31.3724   26.1443 C   0  0  0  0  0  0
  -27.0338  -30.3014   24.6155 C   0  0  0  0  0  0
  -27.6042  -32.4338   25.7491 C   0  0  0  0  0  0
  -27.5582  -37.1807   24.8463 C   0  0  0  0  0  0
  -21.4181  -29.3041   22.3687 N   0  0  0  0  0  0
  -26.4297  -37.3783   23.9399 N   0  0  0  0  0  0
  -24.6856  -31.0625   22.0968 N   0  0  0  0  0  0
  -23.4189  -28.8163   23.3030 O   0  0  0  0  0  0
  -28.3949  -26.5275   20.1371 O   0  0  0  0  0  0
  -26.5617  -34.8925   22.4669 O   0  0  0  0  0  0
  -23.5414  -32.1393   23.7361 O   0  0  0  0  0  0
  -31.0661  -19.4254   20.5243 C   0  0  0  0  0  0
  -31.1113  -18.0048   20.6553 C   0  0  0  0  0  0
  -28.6362  -19.4149   20.5817 C   0  0  0  0  0  0
  -28.6978  -17.9816   20.8231 C   0  0  0  0  0  0
  -29.8522  -20.1705   20.4786 C   0  0  0  0  0  0
  -29.9318  -17.2326   20.8001 C   0  0  0  0  0  0
  -30.2334  -22.1831   19.0525 C   0  0  0  0  0  0
  -29.9076  -23.6812   18.9661 C   0  0  0  0  0  0
  -29.3050  -22.7049   21.0893 C   0  0  0  0  0  0
  -29.4678  -24.1029   20.3769 C   0  0  2  0  0  0
  -26.5118  -20.6107   21.5555 C   0  0  0  0  0  0
  -26.4415  -19.6203   19.1470 C   0  0  0  0  0  0
  -28.2181  -25.0917   20.4372 C   0  0  0  0  0  0
  -27.3052  -20.1730   20.3000 C   0  0  0  0  0  0
  -27.4269  -17.1536   20.9651 C   0  0  0  0  0  0
  -29.8898  -21.6300   20.2329 N   0  0  0  0  0  0
  -29.9078  -15.7529   20.9536 N   0  0  0  0  0  0
  -30.7517  -21.5845   18.1052 O   0  0  0  0  0  0
  -26.3388  -17.7745   21.3885 F   0  0  0  0  0  0
  -27.2405  -16.6924   19.7290 F   0  0  0  0  0  0
  -27.5576  -16.1335   21.8160 F   0  0  0  0  0  0
  -31.4820  -12.5556   19.1512 H   0  0  0  0  0  0
  -30.3809  -11.4452   19.9174 H   0  0  0  0  0  0
  -29.7776  -11.7738   17.4930 H   0  0  0  0  0  0
  -29.6375  -13.4952   17.7470 H   0  0  0  0  0  0
  -27.8840  -11.2981   18.8899 H   0  0  0  0  0  0
  -27.3745  -12.5664   17.8073 H   0  0  0  0  0  0
  -27.6429  -14.2575   19.5180 H   0  0  0  0  0  0
  -28.7348  -12.1045   21.3966 H   0  0  0  0  0  0
  -28.4486  -13.7583   21.8404 H   0  0  0  0  0  0
  -25.2758   -9.5524   22.4804 H   0  0  0  0  0  0
  -23.9944   -7.4509   22.7500 H   0  0  0  0  0  0
  -21.0827   -8.8719   19.8947 H   0  0  0  0  0  0
  -22.3752  -10.9584   19.6167 H   0  0  0  0  0  0
  -21.1986   -7.6131   23.9707 H   0  0  0  0  0  0
  -21.1474   -6.0518   25.9084 H   0  0  0  0  0  0
  -22.0616   -2.7590   23.2868 H   0  0  0  0  0  0
  -22.3996  -11.9663   22.4887 H   0  0  0  0  0  0
  -21.0986  -13.1037   22.2774 H   0  0  0  0  0  0
  -24.5108  -15.7571   20.4756 H   0  0  0  0  0  0
  -26.1244  -15.6236   19.9950 H   0  0  0  0  0  0
  -26.7169  -32.5471   23.1106 H   0  0  0  0  0  0
  -25.0079  -33.9732   25.0431 H   0  0  0  0  0  0
  -22.7123  -31.3002   21.3980 H   0  0  0  0  0  0
  -23.3754  -35.9632   23.3302 H   0  0  0  0  0  0
  -24.3583  -36.8925   22.2055 H   0  0  0  0  0  0
  -23.7239  -37.6498   23.6666 H   0  0  0  0  0  0
  -26.0836  -31.5633   20.6032 H   0  0  0  0  0  0
  -26.8385  -30.8503   21.9992 H   0  0  0  0  0  0
  -28.1260  -29.0203   21.1752 H   0  0  0  0  0  0
  -26.0185  -25.9463   18.9884 H   0  0  0  0  0  0
  -23.9924  -27.2943   19.0168 H   0  0  0  0  0  0
  -23.7498  -30.5841   19.4012 H   0  0  0  0  0  0
  -22.7581  -29.2341   19.8641 H   0  0  0  0  0  0
  -25.1294  -36.1950   25.0819 H   0  0  0  0  0  0
  -20.9964  -28.3258   24.1408 H   0  0  0  0  0  0
  -20.5660  -26.2292   23.3620 H   0  0  0  0  0  0
  -21.6638  -26.7425   22.1221 H   0  0  0  0  0  0
  -19.6915  -25.6288   21.1238 H   0  0  0  0  0  0
  -19.6687  -27.3186   20.6739 H   0  0  0  0  0  0
  -17.4198  -26.6662   21.4014 H   0  0  0  0  0  0
  -18.0313  -26.0045   22.9003 H   0  0  0  0  0  0
  -19.7936  -30.7240   24.2276 H   0  0  0  0  0  0
  -17.5024  -31.6258   24.5160 H   0  0  0  0  0  0
  -15.5356  -30.2989   23.7640 H   0  0  0  0  0  0
  -15.8668  -28.0822   22.7062 H   0  0  0  0  0  0
  -24.5913  -30.7065   25.7778 H   0  0  0  0  0  0
  -24.8924  -32.2893   26.4858 H   0  0  0  0  0  0
  -25.8067  -30.8916   27.0221 H   0  0  0  0  0  0
  -26.2906  -29.6762   24.1191 H   0  0  0  0  0  0
  -27.4051  -29.7271   25.4651 H   0  0  0  0  0  0
  -27.8768  -30.4293   23.9358 H   0  0  0  0  0  0
  -27.2625  -33.3628   26.2061 H   0  0  0  0  0  0
  -28.3854  -32.6916   25.0331 H   0  0  0  0  0  0
  -28.0705  -31.8474   26.5416 H   0  0  0  0  0  0
  -28.2603  -38.0104   24.7512 H   0  0  0  0  0  0
  -28.1076  -36.2634   24.6288 H   0  0  0  0  0  0
  -27.2299  -37.1455   25.8868 H   0  0  0  0  0  0
  -20.9355  -29.8786   21.6920 H   0  0  0  0  0  0
  -26.0183  -38.2858   24.1407 H   0  0  0  0  0  0
  -32.0034  -19.9558   20.4226 H   0  0  0  0  0  0
  -32.0733  -17.5119   20.6537 H   0  0  0  0  0  0
  -29.1042  -23.8185   18.2416 H   0  0  0  0  0  0
  -30.7711  -24.2511   18.6229 H   0  0  0  0  0  0
  -28.2528  -22.5471   21.2902 H   0  0  0  0  0  0
  -29.8068  -22.7080   22.0576 H   0  0  0  0  0  0
  -30.3088  -24.6085   20.8521 H   0  0  0  0  0  0
  -27.1710  -20.9806   22.3402 H   0  0  0  0  0  0
  -25.8972  -19.8443   22.0152 H   0  0  0  0  0  0
  -25.8257  -21.4194   21.3004 H   0  0  0  0  0  0
  -27.0521  -19.4348   18.2630 H   0  0  0  0  0  0
  -25.6860  -20.3533   18.8611 H   0  0  0  0  0  0
  -25.8948  -18.7090   19.3657 H   0  0  0  0  0  0
  -27.8144  -25.0491   21.4498 H   0  0  0  0  0  0
  -27.4473  -24.6534   19.8068 H   0  0  0  0  0  0
  -27.5723  -21.1136   19.8328 H   0  0  0  0  0  0
  -29.0134  -15.4233   21.2928 H   0  0  0  0  0  0
  1 25  1  0  0  0
  1 30  2  0  0  0
  1 87  1  0  0  0
  2  3  1  0  0  0
  2 25  1  0  0  0
  2 92  1  0  0  0
  2 93  1  0  0  0
  3  4  1  0  0  0
  3 94  1  0  0  0
  3 95  1  0  0  0
  4  5  1  0  0  0
  4 96  1  0  0  0
  4 97  1  0  0  0
  5  6  1  0  0  0
  5 26  1  0  0  0
  5 98  1  0  0  0
  6 25  1  0  0  0
  6 99  1  0  0  0
  6100  1  0  0  0
  7  8  2  0  0  0
  7 26  1  0  0  0
  7 29  1  0  0  0
  8  9  1  0  0  0
  8 22  1  0  0  0
  9 10  1  0  0  0
  9 27  2  0  0  0
 10 11  2  0  0  0
 10 15  1  0  0  0
 11 12  1  0  0  0
 11101  1  0  0  0
 12 13  2  0  0  0
 12102  1  0  0  0
 13 14  1  0  0  0
 13 31  1  0  0  0
 14 15  2  0  0  0
 14103  1  0  0  0
 15104  1  0  0  0
 16 17  2  0  0  0
 16 21  1  0  0  0
 16 31  1  0  0  0
 17 18  1  0  0  0
 17105  1  0  0  0
 18 19  2  0  0  0
 18106  1  0  0  0
 19 20  1  0  0  0
 19 24  1  0  0  0
 20 21  2  0  0  0
 20107  1  0  0  0
 21 23  1  0  0  0
 22 28  1  0  0  0
 22 32  2  0  0  0
 26 27  1  0  0  0
 28108  1  0  0  0
 28109  1  0  0  0
 29110  1  0  0  0
 29111  1  0  0  0
 33 34  1  0  0  0
 33 66  1  0  0  0
 33 70  2  0  0  0
 34 36  1  0  0  0
 34 59  1  0  0  0
 34112  1  0  0  0
 35 44  2  0  0  0
 35 45  1  0  0  0
 35 68  1  0  0  0
 36 56  1  0  0  0
 36113  1  0  0  0
 37 39  1  0  0  0
 37 47  1  0  0  0
 37 66  1  0  0  0
 37114  1  0  0  0
 38 43  2  0  0  0
 38 46  1  0  0  0
 38 47  1  0  0  0
 39 64  1  0  0  0
 39 67  2  0  0  0
 40 52  1  0  0  0
 40 53  2  0  0  0
 40 58  1  0  0  0
 41115  1  0  0  0
 41116  1  0  0  0
 41117  1  0  0  0
 41 48  1  0  0  0
 42 43  1  0  0  0
 42 66  1  0  0  0
 42118  1  0  0  0
 42119  1  0  0  0
 43 44  1  0  0  0
 44120  1  0  0  0
 45 46  2  0  0  0
 45121  1  0  0  0
 46122  1  0  0  0
 47123  1  0  0  0
 47124  1  0  0  0
 48 56  1  0  0  0
 48 65  1  0  0  0
 48125  1  0  0  0
 49 50  1  0  0  0
 49 53  1  0  0  0
 49 64  1  0  0  0
 49126  1  0  0  0
 50 51  1  0  0  0
 50127  1  0  0  0
 50128  1  0  0  0
 51 52  1  0  0  0
 51129  1  0  0  0
 51130  1  0  0  0
 52131  1  0  0  0
 52132  1  0  0  0
 53 54  1  0  0  0
 54 55  2  0  0  0
 54133  1  0  0  0
 55 57  1  0  0  0
 55134  1  0  0  0
 56 69  2  0  0  0
 57 58  2  0  0  0
 57135  1  0  0  0
 58136  1  0  0  0
 59 60  1  0  0  0
 59 61  1  0  0  0
 59 62  1  0  0  0
 60137  1  0  0  0
 60138  1  0  0  0
 60139  1  0  0  0
 61140  1  0  0  0
 61141  1  0  0  0
 61142  1  0  0  0
 62143  1  0  0  0
 62144  1  0  0  0
 62145  1  0  0  0
 63 65  1  0  0  0
 63146  1  0  0  0
 63147  1  0  0  0
 63148  1  0  0  0
 64149  1  0  0  0
 65150  1  0  0  0
 68 83  1  0  0  0
 71 72  2  0  0  0
 71 75  1  0  0  0
 71151  1  0  0  0
 72 76  1  0  0  0
 72152  1  0  0  0
 73 74  1  0  0  0
 73 75  2  0  0  0
 73 84  1  0  0  0
 74 76  2  0  0  0
 74 85  1  0  0  0
 75 86  1  0  0  0
 76 87  1  0  0  0
 77 78  1  0  0  0
 77 86  1  0  0  0
 77 88  2  0  0  0
 78 80  1  0  0  0
 78153  1  0  0  0
 78154  1  0  0  0
 79 80  1  0  0  0
 79 86  1  0  0  0
 79155  1  0  0  0
 79156  1  0  0  0
 80 83  1  0  0  0
 80157  1  0  0  0
 81158  1  0  0  0
 81159  1  0  0  0
 81160  1  0  0  0
 81 84  1  0  0  0
 82 84  1  0  0  0
 82161  1  0  0  0
 82162  1  0  0  0
 82163  1  0  0  0
 83164  1  0  0  0
 83165  1  0  0  0
 84166  1  0  0  0
 85 89  1  0  0  0
 85 90  1  0  0  0
 85 91  1  0  0  0
 87167  1  0  0  0
M  ISO  4   1 100  68 101  83 101  87 100
M  END
> <chiral flag>
0

> <version>
0

> <s_m_source_file>
/data/baiqing/PycharmProjects/Reinvent-master-3.2/result/LINK_invent/BTK/process_docking_weight1_custom_product_contain_oxygen_bond_distance_aromatic_linkinvent_7_9_3/rearranged_h_0062.sdf

> <i_m_source_file_index>
4

> <r_mmod_Potential_Energy-OPLS-2005>
317.026153564453

> <r_mmod_Stretch_Energy-OPLS-2005>
98.6898422241211

> <r_mmod_Bend_Energy-OPLS-2005>
194.327651977539

> <r_mmod_Torsional_Energy-OPLS-2005>
318.163726806641

> <r_mmod_Improper_Torsional_Energy-OPLS-2005>
4.99869537353516

> <r_mmod_Van_der_Waal_Energy-OPLS-2005>
181.442413330078

> <r_mmod_Electrostatic_Energy-OPLS-2005>
-330.059387207031

> <r_mmod_Solvation_Energy-OPLS-2005>
-204.585403442383

> <b_mmod_Minimization_Converged-OPLS-2005>
0

> <r_mmod_RMS_Derivative-OPLS-2005>
1.01065218448639

$$$$
4
                    3D
 Structure written by MMmdl.
155163  0  0  1  0            999 V2000
  -30.7156  -14.4960   20.5605 C   0  0  0  0  0  0
  -30.4162  -12.3220   19.4265 C   0  0  0  0  0  0
  -29.4905  -12.5021   18.2067 C   0  0  0  0  0  0
  -28.0136  -12.3591   18.6227 C   0  0  0  0  0  0
  -27.6564  -13.2130   19.8695 C   0  0  2  0  0  0
  -28.7013  -13.0294   20.9935 C   0  0  0  0  0  0
  -25.2569  -13.8175   20.5698 C   0  0  0  0  0  0
  -24.1827  -13.0443   20.9183 C   0  0  0  0  0  0
  -24.6389  -11.6911   20.8738 C   0  0  0  0  0  0
  -23.9059  -10.4295   21.0405 C   0  0  0  0  0  0
  -24.3613   -9.4210   21.9181 C   0  0  0  0  0  0
  -23.6291   -8.2245   22.0752 C   0  0  0  0  0  0
  -22.4273   -8.0280   21.3544 C   0  0  0  0  0  0
  -21.9907   -9.0251   20.4647 C   0  0  0  0  0  0
  -22.7233  -10.2132   20.3054 C   0  0  0  0  0  0
  -21.6853   -6.0733   22.5279 C   0  0  0  0  0  0
  -21.4015   -6.5638   23.8210 C   0  0  0  0  0  0
  -21.3659   -5.6792   24.9172 C   0  0  0  0  0  0
  -21.6044   -4.3058   24.7226 C   0  0  0  0  0  0
  -21.8818   -3.8147   23.4348 C   0  0  0  0  0  0
  -21.9194   -4.6961   22.3404 C   0  0  0  0  0  0
  -22.7851  -13.5238   21.1847 C   0  0  0  0  0  0
  -22.1659   -4.2151   21.0980 F   0  0  0  0  0  0
  -21.5630   -3.4541   25.7737 F   0  0  0  0  0  0
  -30.0263  -13.3278   20.4291 N   0  0  0  0  0  0
  -26.3002  -12.9353   20.3362 N   0  0  0  0  0  0
  -25.9319  -11.6507   20.5773 N   0  0  0  0  0  0
  -22.0491  -12.8226   22.0402 N   0  0  0  0  0  0
  -25.4293  -15.1890   20.4106 N   0  0  0  0  0  0
  -31.8564  -14.6325   20.1108 O   0  0  0  0  0  0
  -21.6639   -6.8875   21.4242 O   0  0  0  0  0  0
  -22.3540  -14.5549   20.6702 O   0  0  0  0  0  0
  -24.6174  -31.8665   23.2095 C   0  0  0  0  0  0
  -25.9057  -32.4817   23.8393 C   0  0  1  0  0  0
  -27.2298  -27.4129   20.1021 C   0  0  0  0  0  0
  -25.5898  -33.8615   24.2323 N   0  0  0  0  0  0
  -23.4055  -30.4904   21.5515 C   0  0  2  0  0  0
  -24.8525  -28.9569   20.1126 C   0  0  0  0  0  0
  -22.7420  -29.4650   22.4994 C   0  0  0  0  0  0
  -18.0273  -28.1380   22.8500 C   0  0  0  0  0  0
  -24.1485  -36.7311   23.2637 C   0  0  0  0  0  0
  -25.9370  -30.8263   21.3650 C   0  0  0  0  0  0
  -26.0154  -29.4595   20.7118 C   0  0  0  0  0  0
  -27.2095  -28.6953   20.7036 C   0  0  0  0  0  0
  -26.0510  -26.9381   19.4840 C   0  0  0  0  0  0
  -24.8660  -27.6958   19.4945 C   0  0  0  0  0  0
  -23.6141  -29.8242   20.1658 C   0  0  0  0  0  0
  -25.4106  -36.3107   24.0336 C   0  0  1  0  0  0
  -20.5862  -28.3666   23.1314 C   0  0  2  0  0  0
  -20.6760  -26.9398   22.5418 C   0  0  0  0  0  0
  -19.5735  -26.6386   21.5214 C   0  0  0  0  0  0
  -18.1915  -26.7930   22.1623 C   0  0  0  0  0  0
  -19.1524  -28.8841   23.2905 C   0  0  0  0  0  0
  -18.9449  -30.1448   23.8912 C   0  0  0  0  0  0
  -17.6451  -30.6585   24.0569 C   0  0  0  0  0  0
  -25.9035  -34.9470   23.5128 C   0  0  0  0  0  0
  -16.5343  -29.9085   23.6332 C   0  0  0  0  0  0
  -16.7261  -28.6502   23.0357 C   0  0  0  0  0  0
  -26.4476  -31.6602   25.0729 C   0  0  0  0  0  0
  -25.3742  -31.3701   26.1479 C   0  0  0  0  0  0
  -27.0306  -30.3045   24.6107 C   0  0  0  0  0  0
  -27.6061  -32.4315   25.7480 C   0  0  0  0  0  0
  -27.5586  -37.1801   24.8459 C   0  0  0  0  0  0
  -21.4145  -29.3034   22.3727 N   0  0  0  0  0  0
  -26.4287  -37.3799   23.9421 N   0  0  0  0  0  0
  -24.6719  -31.0749   22.1008 N   0  0  0  0  0  0
  -23.4181  -28.8188   23.3042 O   0  0  0  0  0  0
  -28.3626  -26.6171   20.1138 O   0  0  0  0  0  0
  -26.5599  -34.8921   22.4691 O   0  0  0  0  0  0
  -23.5361  -32.1424   23.7475 O   0  0  0  0  0  0
  -31.5231  -19.5069   21.7319 C   0  0  0  0  0  0
  -31.7968  -17.0831   21.8470 C   0  0  0  0  0  0
  -29.7495  -18.0373   20.9332 C   0  0  0  0  0  0
  -32.2920  -18.3789   22.0830 C   0  0  0  0  0  0
  -30.2435  -19.3597   21.1422 C   0  0  0  0  0  0
  -30.5264  -16.8883   21.2593 C   0  0  0  0  0  0
  -28.8679  -24.2427   19.9779 C   0  0  0  0  0  0
  -28.1709  -25.2924   20.4710 C   0  0  0  0  0  0
  -29.7385  -21.8029   20.6324 C   0  0  0  0  0  0
  -33.6585  -18.5546   22.7164 C   0  0  0  0  0  0
  -28.5756  -22.7676   20.3078 C   0  0  0  0  0  0
  -29.4207  -20.4912   20.7902 N   0  0  0  0  0  0
  -30.0241  -15.5564   21.0440 N   0  0  0  0  0  0
  -30.8850  -22.2506   20.7038 O   0  0  0  0  0  0
  -31.4608  -12.4107   19.1232 H   0  0  0  0  0  0
  -30.3132  -11.3185   19.8421 H   0  0  0  0  0  0
  -29.7333  -11.7685   17.4367 H   0  0  0  0  0  0
  -29.6543  -13.4835   17.7579 H   0  0  0  0  0  0
  -27.8317  -11.3040   18.8318 H   0  0  0  0  0  0
  -27.3604  -12.6196   17.7889 H   0  0  0  0  0  0
  -27.6895  -14.2556   19.5525 H   0  0  0  0  0  0
  -28.6839  -12.0048   21.3679 H   0  0  0  0  0  0
  -28.4671  -13.6606   21.8517 H   0  0  0  0  0  0
  -25.2758   -9.5685   22.4755 H   0  0  0  0  0  0
  -24.0002   -7.4637   22.7471 H   0  0  0  0  0  0
  -21.0839   -8.8768   19.8951 H   0  0  0  0  0  0
  -22.3694  -10.9669   19.6162 H   0  0  0  0  0  0
  -21.2004   -7.6144   23.9715 H   0  0  0  0  0  0
  -21.1481   -6.0521   25.9074 H   0  0  0  0  0  0
  -22.0598   -2.7610   23.2848 H   0  0  0  0  0  0
  -22.4103  -11.9878   22.4777 H   0  0  0  0  0  0
  -21.1110  -13.1252   22.2613 H   0  0  0  0  0  0
  -24.6648  -15.8461   20.5226 H   0  0  0  0  0  0
  -26.2805  -15.6280   20.0840 H   0  0  0  0  0  0
  -26.7130  -32.5519   23.1158 H   0  0  0  0  0  0
  -25.0059  -33.9781   25.0474 H   0  0  0  0  0  0
  -22.6951  -31.3077   21.4123 H   0  0  0  0  0  0
  -23.3749  -35.9639   23.3286 H   0  0  0  0  0  0
  -24.3593  -36.8945   22.2056 H   0  0  0  0  0  0
  -23.7222  -37.6502   23.6667 H   0  0  0  0  0  0
  -26.0485  -31.5911   20.5948 H   0  0  0  0  0  0
  -26.8253  -30.8821   21.9826 H   0  0  0  0  0  0
  -28.1063  -29.0749   21.1726 H   0  0  0  0  0  0
  -26.0429  -25.9706   19.0018 H   0  0  0  0  0  0
  -23.9741  -27.3036   19.0255 H   0  0  0  0  0  0
  -23.7191  -30.5996   19.4063 H   0  0  0  0  0  0
  -22.7378  -29.2439   19.8712 H   0  0  0  0  0  0
  -25.1280  -36.1967   25.0826 H   0  0  0  0  0  0
  -20.9953  -28.3230   24.1434 H   0  0  0  0  0  0
  -20.5656  -26.2272   23.3610 H   0  0  0  0  0  0
  -21.6634  -26.7437   22.1209 H   0  0  0  0  0  0
  -19.6893  -25.6298   21.1235 H   0  0  0  0  0  0
  -19.6674  -27.3207   20.6753 H   0  0  0  0  0  0
  -17.4185  -26.6691   21.4023 H   0  0  0  0  0  0
  -18.0305  -26.0061   22.9005 H   0  0  0  0  0  0
  -19.7922  -30.7269   24.2278 H   0  0  0  0  0  0
  -17.5001  -31.6266   24.5166 H   0  0  0  0  0  0
  -15.5343  -30.2990   23.7650 H   0  0  0  0  0  0
  -15.8661  -28.0823   22.7068 H   0  0  0  0  0  0
  -24.5921  -30.7042   25.7818 H   0  0  0  0  0  0
  -24.8926  -32.2848   26.4945 H   0  0  0  0  0  0
  -25.8098  -30.8860   27.0228 H   0  0  0  0  0  0
  -26.2848  -29.6797   24.1180 H   0  0  0  0  0  0
  -27.4099  -29.7292   25.4562 H   0  0  0  0  0  0
  -27.8672  -30.4368   23.9242 H   0  0  0  0  0  0
  -27.2709  -33.3631   26.2051 H   0  0  0  0  0  0
  -28.3873  -32.6843   25.0300 H   0  0  0  0  0  0
  -28.0722  -31.8434   26.5398 H   0  0  0  0  0  0
  -28.2580  -38.0124   24.7551 H   0  0  0  0  0  0
  -28.1104  -36.2658   24.6222 H   0  0  0  0  0  0
  -27.2313  -37.1373   25.8863 H   0  0  0  0  0  0
  -20.9303  -29.8768   21.6960 H   0  0  0  0  0  0
  -26.0168  -38.2865   24.1458 H   0  0  0  0  0  0
  -31.9328  -20.4836   21.9410 H   0  0  0  0  0  0
  -32.4027  -16.2327   22.1298 H   0  0  0  0  0  0
  -28.7693  -17.9027   20.4982 H   0  0  0  0  0  0
  -29.6682  -24.4201   19.2734 H   0  0  0  0  0  0
  -27.3659  -25.1719   21.1853 H   0  0  0  0  0  0
  -33.7530  -19.5293   23.1965 H   0  0  0  0  0  0
  -34.4401  -18.4688   21.9608 H   0  0  0  0  0  0
  -33.8345  -17.7911   23.4751 H   0  0  0  0  0  0
  -28.0497  -22.3555   19.4461 H   0  0  0  0  0  0
  -27.8695  -22.7307   21.1381 H   0  0  0  0  0  0
  -28.4482  -20.2780   20.6147 H   0  0  0  0  0  0
  -29.0418  -15.4021   21.2130 H   0  0  0  0  0  0
  1 25  1  0  0  0
  1 30  2  0  0  0
  1 83  1  0  0  0
  2  3  1  0  0  0
  2 25  1  0  0  0
  2 85  1  0  0  0
  2 86  1  0  0  0
  3  4  1  0  0  0
  3 87  1  0  0  0
  3 88  1  0  0  0
  4  5  1  0  0  0
  4 89  1  0  0  0
  4 90  1  0  0  0
  5  6  1  0  0  0
  5 26  1  0  0  0
  5 91  1  0  0  0
  6 25  1  0  0  0
  6 92  1  0  0  0
  6 93  1  0  0  0
  7  8  2  0  0  0
  7 26  1  0  0  0
  7 29  1  0  0  0
  8  9  1  0  0  0
  8 22  1  0  0  0
  9 10  1  0  0  0
  9 27  2  0  0  0
 10 11  2  0  0  0
 10 15  1  0  0  0
 11 12  1  0  0  0
 11 94  1  0  0  0
 12 13  2  0  0  0
 12 95  1  0  0  0
 13 14  1  0  0  0
 13 31  1  0  0  0
 14 15  2  0  0  0
 14 96  1  0  0  0
 15 97  1  0  0  0
 16 17  2  0  0  0
 16 21  1  0  0  0
 16 31  1  0  0  0
 17 18  1  0  0  0
 17 98  1  0  0  0
 18 19  2  0  0  0
 18 99  1  0  0  0
 19 20  1  0  0  0
 19 24  1  0  0  0
 20 21  2  0  0  0
 20100  1  0  0  0
 21 23  1  0  0  0
 22 28  1  0  0  0
 22 32  2  0  0  0
 26 27  1  0  0  0
 28101  1  0  0  0
 28102  1  0  0  0
 29103  1  0  0  0
 29104  1  0  0  0
 33 34  1  0  0  0
 33 66  1  0  0  0
 33 70  2  0  0  0
 34 36  1  0  0  0
 34 59  1  0  0  0
 34105  1  0  0  0
 35 44  2  0  0  0
 35 45  1  0  0  0
 35 68  1  0  0  0
 36 56  1  0  0  0
 36106  1  0  0  0
 37 39  1  0  0  0
 37 47  1  0  0  0
 37 66  1  0  0  0
 37107  1  0  0  0
 38 43  2  0  0  0
 38 46  1  0  0  0
 38 47  1  0  0  0
 39 64  1  0  0  0
 39 67  2  0  0  0
 40 52  1  0  0  0
 40 53  2  0  0  0
 40 58  1  0  0  0
 41108  1  0  0  0
 41109  1  0  0  0
 41110  1  0  0  0
 41 48  1  0  0  0
 42 43  1  0  0  0
 42 66  1  0  0  0
 42111  1  0  0  0
 42112  1  0  0  0
 43 44  1  0  0  0
 44113  1  0  0  0
 45 46  2  0  0  0
 45114  1  0  0  0
 46115  1  0  0  0
 47116  1  0  0  0
 47117  1  0  0  0
 48 56  1  0  0  0
 48 65  1  0  0  0
 48118  1  0  0  0
 49 50  1  0  0  0
 49 53  1  0  0  0
 49 64  1  0  0  0
 49119  1  0  0  0
 50 51  1  0  0  0
 50120  1  0  0  0
 50121  1  0  0  0
 51 52  1  0  0  0
 51122  1  0  0  0
 51123  1  0  0  0
 52124  1  0  0  0
 52125  1  0  0  0
 53 54  1  0  0  0
 54 55  2  0  0  0
 54126  1  0  0  0
 55 57  1  0  0  0
 55127  1  0  0  0
 56 69  2  0  0  0
 57 58  2  0  0  0
 57128  1  0  0  0
 58129  1  0  0  0
 59 60  1  0  0  0
 59 61  1  0  0  0
 59 62  1  0  0  0
 60130  1  0  0  0
 60131  1  0  0  0
 60132  1  0  0  0
 61133  1  0  0  0
 61134  1  0  0  0
 61135  1  0  0  0
 62136  1  0  0  0
 62137  1  0  0  0
 62138  1  0  0  0
 63 65  1  0  0  0
 63139  1  0  0  0
 63140  1  0  0  0
 63141  1  0  0  0
 64142  1  0  0  0
 65143  1  0  0  0
 68 78  1  0  0  0
 71 74  2  0  0  0
 71 75  1  0  0  0
 71144  1  0  0  0
 72 74  1  0  0  0
 72 76  2  0  0  0
 72145  1  0  0  0
 73 75  2  0  0  0
 73 76  1  0  0  0
 73146  1  0  0  0
 74 80  1  0  0  0
 75 82  1  0  0  0
 76 83  1  0  0  0
 77 78  2  0  0  0
 77 81  1  0  0  0
 77147  1  0  0  0
 78148  1  0  0  0
 79 81  1  0  0  0
 79 82  1  0  0  0
 79 84  2  0  0  0
 80149  1  0  0  0
 80150  1  0  0  0
 80151  1  0  0  0
 81152  1  0  0  0
 81153  1  0  0  0
 82154  1  0  0  0
 83155  1  0  0  0
M  ISO  4   1 100  68 101  78 101  83 100
M  END
> <chiral flag>
0

> <version>
0

> <s_m_source_file>
/data/baiqing/PycharmProjects/Reinvent-master-3.2/result/LINK_invent/BTK/process_docking_weight1_custom_product_contain_oxygen_bond_distance_aromatic_linkinvent_7_9_3/rearranged_h_0062.sdf

> <i_m_source_file_index>
5

> <r_mmod_Potential_Energy-OPLS-2005>
-60.436351776123

> <r_mmod_Stretch_Energy-OPLS-2005>
44.1039733886719

> <r_mmod_Bend_Energy-OPLS-2005>
99.8096313476562

> <r_mmod_Torsional_Energy-OPLS-2005>
224.252136230469

> <r_mmod_Improper_Torsional_Energy-OPLS-2005>
4.20219230651855

> <r_mmod_Van_der_Waal_Energy-OPLS-2005>
158.179565429688

> <r_mmod_Electrostatic_Energy-OPLS-2005>
-376.343048095703

> <r_mmod_Solvation_Energy-OPLS-2005>
-232.479278564453

> <b_mmod_Minimization_Converged-OPLS-2005>
0

> <r_mmod_RMS_Derivative-OPLS-2005>
0.751886308193207

$$$$
5
                    3D
 Structure written by MMmdl.
169177  0  0  1  0            999 V2000
  -30.7618  -14.4161   20.6041 C   0  0  0  0  0  0
  -30.4036  -12.2757   19.4312 C   0  0  0  0  0  0
  -29.4845  -12.4850   18.2118 C   0  0  0  0  0  0
  -28.0079  -12.3561   18.6274 C   0  0  0  0  0  0
  -27.6584  -13.2092   19.8743 C   0  0  2  0  0  0
  -28.6977  -13.0110   21.0027 C   0  0  0  0  0  0
  -25.2561  -13.8187   20.5634 C   0  0  0  0  0  0
  -24.1819  -13.0436   20.9163 C   0  0  0  0  0  0
  -24.6377  -11.6906   20.8732 C   0  0  0  0  0  0
  -23.9032  -10.4297   21.0406 C   0  0  0  0  0  0
  -24.3589   -9.4215   21.9172 C   0  0  0  0  0  0
  -23.6273   -8.2247   22.0762 C   0  0  0  0  0  0
  -22.4266   -8.0273   21.3544 C   0  0  0  0  0  0
  -21.9884   -9.0235   20.4638 C   0  0  0  0  0  0
  -22.7205  -10.2128   20.3047 C   0  0  0  0  0  0
  -21.6844   -6.0710   22.5261 C   0  0  0  0  0  0
  -21.4022   -6.5620   23.8194 C   0  0  0  0  0  0
  -21.3661   -5.6787   24.9162 C   0  0  0  0  0  0
  -21.6044   -4.3051   24.7225 C   0  0  0  0  0  0
  -21.8823   -3.8128   23.4353 C   0  0  0  0  0  0
  -21.9201   -4.6937   22.3398 C   0  0  0  0  0  0
  -22.7840  -13.5236   21.1820 C   0  0  0  0  0  0
  -22.1659   -4.2119   21.0974 F   0  0  0  0  0  0
  -21.5635   -3.4532   25.7738 F   0  0  0  0  0  0
  -30.0379  -13.2737   20.4528 N   0  0  0  0  0  0
  -26.2992  -12.9341   20.3364 N   0  0  0  0  0  0
  -25.9308  -11.6495   20.5794 N   0  0  0  0  0  0
  -22.0496  -12.8215   22.0403 N   0  0  0  0  0  0
  -25.4250  -15.1875   20.3918 N   0  0  0  0  0  0
  -31.8571  -14.5584   20.0606 O   0  0  0  0  0  0
  -21.6650   -6.8859   21.4230 O   0  0  0  0  0  0
  -22.3511  -14.5533   20.6682 O   0  0  0  0  0  0
  -24.6118  -31.8723   23.2095 C   0  0  0  0  0  0
  -25.9072  -32.4811   23.8368 C   0  0  1  0  0  0
  -27.2434  -27.4706   20.1019 C   0  0  0  0  0  0
  -25.5902  -33.8589   24.2305 N   0  0  0  0  0  0
  -23.3984  -30.4938   21.5468 C   0  0  2  0  0  0
  -24.8503  -28.9647   20.1097 C   0  0  0  0  0  0
  -22.7415  -29.4681   22.4990 C   0  0  0  0  0  0
  -18.0284  -28.1354   22.8487 C   0  0  0  0  0  0
  -24.1482  -36.7313   23.2623 C   0  0  0  0  0  0
  -25.9224  -30.8508   21.3591 C   0  0  0  0  0  0
  -26.0043  -29.4847   20.7127 C   0  0  0  0  0  0
  -27.2008  -28.7406   20.7160 C   0  0  0  0  0  0
  -26.0822  -26.9596   19.4909 C   0  0  0  0  0  0
  -24.8823  -27.6962   19.4978 C   0  0  0  0  0  0
  -23.6055  -29.8217   20.1607 C   0  0  0  0  0  0
  -25.4080  -36.3089   24.0323 C   0  0  1  0  0  0
  -20.5861  -28.3655   23.1319 C   0  0  2  0  0  0
  -20.6773  -26.9400   22.5412 C   0  0  0  0  0  0
  -19.5737  -26.6390   21.5203 C   0  0  0  0  0  0
  -18.1921  -26.7908   22.1619 C   0  0  0  0  0  0
  -19.1526  -28.8826   23.2905 C   0  0  0  0  0  0
  -18.9465  -30.1434   23.8910 C   0  0  0  0  0  0
  -17.6470  -30.6577   24.0551 C   0  0  0  0  0  0
  -25.9020  -34.9463   23.5123 C   0  0  0  0  0  0
  -16.5355  -29.9075   23.6309 C   0  0  0  0  0  0
  -16.7274  -28.6489   23.0323 C   0  0  0  0  0  0
  -26.4511  -31.6536   25.0666 C   0  0  0  0  0  0
  -25.3764  -31.3712   26.1423 C   0  0  0  0  0  0
  -27.0259  -30.2910   24.6053 C   0  0  0  0  0  0
  -27.6048  -32.4292   25.7481 C   0  0  0  0  0  0
  -27.5604  -37.1778   24.8430 C   0  0  0  0  0  0
  -21.4151  -29.3015   22.3737 N   0  0  0  0  0  0
  -26.4268  -37.3777   23.9448 N   0  0  0  0  0  0
  -24.6617  -31.0853   22.0966 N   0  0  0  0  0  0
  -23.4222  -28.8264   23.3051 O   0  0  0  0  0  0
  -28.3999  -26.7300   20.0691 O   0  0  0  0  0  0
  -26.5598  -34.8941   22.4703 O   0  0  0  0  0  0
  -23.5328  -32.1505   23.7505 O   0  0  0  0  0  0
  -32.1542  -18.6487   21.0911 C   0  0  0  0  0  0
  -31.2019  -19.5488   21.5969 C   0  0  0  0  0  0
  -31.8560  -17.2780   21.0039 C   0  0  0  0  0  0
  -29.9410  -19.0794   22.0235 C   0  0  0  0  0  0
  -30.5921  -16.7797   21.4177 C   0  0  0  0  0  0
  -29.6492  -17.6916   21.9482 C   0  0  0  0  0  0
  -28.0800  -24.7320   21.4136 C   0  0  0  0  0  0
  -28.9695  -20.0545   22.5290 C   0  0  0  0  0  0
  -28.5373  -23.6634   22.1047 C   0  0  0  0  0  0
  -29.8418  -23.7312   22.8809 C   0  0  0  0  0  0
  -25.3395  -22.8819   22.0272 C   0  0  0  0  0  0
  -26.0751  -20.7189   21.0319 C   0  0  0  0  0  0
  -28.7369  -26.1003   21.3050 C   0  0  0  0  0  0
  -27.8163  -22.3004   22.1861 C   0  0  1  0  0  0
  -26.5129  -22.1678   21.3286 C   0  0  0  0  0  0
  -28.2724  -19.7914   23.6359 N   0  0  0  0  0  0
  -30.1882  -15.4069   21.3127 N   0  0  0  0  0  0
  -28.7889  -21.2278   21.8830 N   0  3  0  0  0  0
  -28.4492  -17.2118   22.3656 F   0  0  0  0  0  0
  -31.4493  -12.3381   19.1234 H   0  0  0  0  0  0
  -30.2794  -11.2686   19.8325 H   0  0  0  0  0  0
  -29.7146  -11.7504   17.4370 H   0  0  0  0  0  0
  -29.6665  -13.4662   17.7706 H   0  0  0  0  0  0
  -27.8205  -11.3028   18.8383 H   0  0  0  0  0  0
  -27.3554  -12.6196   17.7944 H   0  0  0  0  0  0
  -27.7032  -14.2529   19.5638 H   0  0  0  0  0  0
  -28.6547  -11.9923   21.3896 H   0  0  0  0  0  0
  -28.4574  -13.6535   21.8509 H   0  0  0  0  0  0
  -25.2726   -9.5706   22.4745 H   0  0  0  0  0  0
  -23.9970   -7.4660   22.7507 H   0  0  0  0  0  0
  -21.0809   -8.8734   19.8948 H   0  0  0  0  0  0
  -22.3626  -10.9656   19.6167 H   0  0  0  0  0  0
  -21.2013   -7.6132   23.9685 H   0  0  0  0  0  0
  -21.1478   -6.0520   25.9065 H   0  0  0  0  0  0
  -22.0606   -2.7584   23.2858 H   0  0  0  0  0  0
  -22.4102  -11.9844   22.4721 H   0  0  0  0  0  0
  -21.1133  -13.1256   22.2662 H   0  0  0  0  0  0
  -24.6538  -15.8408   20.4737 H   0  0  0  0  0  0
  -26.2701  -15.6162   20.0343 H   0  0  0  0  0  0
  -26.7169  -32.5563   23.1146 H   0  0  0  0  0  0
  -25.0019  -33.9723   25.0429 H   0  0  0  0  0  0
  -22.6837  -31.3064   21.4035 H   0  0  0  0  0  0
  -23.3765  -35.9629   23.3161 H   0  0  0  0  0  0
  -24.3638  -36.9046   22.2079 H   0  0  0  0  0  0
  -23.7182  -37.6451   23.6731 H   0  0  0  0  0  0
  -26.0250  -31.6237   20.5956 H   0  0  0  0  0  0
  -26.8110  -30.9073   21.9758 H   0  0  0  0  0  0
  -28.0893  -29.1418   21.1847 H   0  0  0  0  0  0
  -26.1070  -25.9882   19.0174 H   0  0  0  0  0  0
  -23.9980  -27.2905   19.0230 H   0  0  0  0  0  0
  -23.6989  -30.5933   19.3941 H   0  0  0  0  0  0
  -22.7357  -29.2249   19.8788 H   0  0  0  0  0  0
  -25.1234  -36.1933   25.0798 H   0  0  0  0  0  0
  -20.9942  -28.3224   24.1441 H   0  0  0  0  0  0
  -20.5663  -26.2289   23.3614 H   0  0  0  0  0  0
  -21.6658  -26.7444   22.1205 H   0  0  0  0  0  0
  -19.6904  -25.6331   21.1194 H   0  0  0  0  0  0
  -19.6637  -27.3272   20.6793 H   0  0  0  0  0  0
  -17.4191  -26.6702   21.3998 H   0  0  0  0  0  0
  -18.0245  -26.0043   22.8987 H   0  0  0  0  0  0
  -19.7948  -30.7213   24.2301 H   0  0  0  0  0  0
  -17.5030  -31.6247   24.5185 H   0  0  0  0  0  0
  -15.5347  -30.2965   23.7635 H   0  0  0  0  0  0
  -15.8680  -28.0819   22.6982 H   0  0  0  0  0  0
  -24.5929  -30.7052   25.7807 H   0  0  0  0  0  0
  -24.9007  -32.2925   26.4815 H   0  0  0  0  0  0
  -25.8128  -30.8942   27.0205 H   0  0  0  0  0  0
  -26.2764  -29.6741   24.1095 H   0  0  0  0  0  0
  -27.3907  -29.7105   25.4537 H   0  0  0  0  0  0
  -27.8687  -30.4077   23.9222 H   0  0  0  0  0  0
  -27.2572  -33.3597   26.1997 H   0  0  0  0  0  0
  -28.3932  -32.6843   25.0376 H   0  0  0  0  0  0
  -28.0633  -31.8438   26.5474 H   0  0  0  0  0  0
  -28.2477  -38.0222   24.7651 H   0  0  0  0  0  0
  -28.1226  -36.2755   24.5982 H   0  0  0  0  0  0
  -27.2373  -37.1079   25.8836 H   0  0  0  0  0  0
  -20.9333  -29.8739   21.6936 H   0  0  0  0  0  0
  -26.0136  -38.2821   24.1562 H   0  0  0  0  0  0
  -33.1203  -19.0033   20.7590 H   0  0  0  0  0  0
  -31.4491  -20.6005   21.6606 H   0  0  0  0  0  0
  -32.6358  -16.6499   20.6106 H   0  0  0  0  0  0
  -27.1516  -24.6717   20.8702 H   0  0  0  0  0  0
  -30.0275  -24.7456   23.2330 H   0  0  0  0  0  0
  -30.6778  -23.4157   22.2518 H   0  0  0  0  0  0
  -29.8029  -23.0906   23.7634 H   0  0  0  0  0  0
  -24.3903  -22.6255   21.5596 H   0  0  0  0  0  0
  -25.4200  -23.9673   22.0026 H   0  0  0  0  0  0
  -25.2700  -22.5802   23.0740 H   0  0  0  0  0  0
  -25.1345  -20.7030   20.4791 H   0  0  0  0  0  0
  -25.9352  -20.1374   21.9438 H   0  0  0  0  0  0
  -26.8019  -20.2065   20.4027 H   0  0  0  0  0  0
  -29.8237  -26.0160   21.3480 H   0  0  0  0  0  0
  -28.4378  -26.7062   22.1618 H   0  0  0  0  0  0
  -27.5371  -22.2115   23.2367 H   0  0  0  0  0  0
  -26.6715  -22.6282   20.3547 H   0  0  0  0  0  0
  -28.3157  -18.8613   24.0258 H   0  0  0  0  0  0
  -27.6700  -20.4601   24.0824 H   0  0  0  0  0  0
  -29.2743  -15.2029   21.6890 H   0  0  0  0  0  0
  -29.3074  -21.3503   21.0235 H   0  0  0  0  0  0
  1 25  1  0  0  0
  1 30  2  0  0  0
  1 87  1  0  0  0
  2  3  1  0  0  0
  2 25  1  0  0  0
  2 90  1  0  0  0
  2 91  1  0  0  0
  3  4  1  0  0  0
  3 92  1  0  0  0
  3 93  1  0  0  0
  4  5  1  0  0  0
  4 94  1  0  0  0
  4 95  1  0  0  0
  5  6  1  0  0  0
  5 26  1  0  0  0
  5 96  1  0  0  0
  6 25  1  0  0  0
  6 97  1  0  0  0
  6 98  1  0  0  0
  7  8  2  0  0  0
  7 26  1  0  0  0
  7 29  1  0  0  0
  8  9  1  0  0  0
  8 22  1  0  0  0
  9 10  1  0  0  0
  9 27  2  0  0  0
 10 11  2  0  0  0
 10 15  1  0  0  0
 11 12  1  0  0  0
 11 99  1  0  0  0
 12 13  2  0  0  0
 12100  1  0  0  0
 13 14  1  0  0  0
 13 31  1  0  0  0
 14 15  2  0  0  0
 14101  1  0  0  0
 15102  1  0  0  0
 16 17  2  0  0  0
 16 21  1  0  0  0
 16 31  1  0  0  0
 17 18  1  0  0  0
 17103  1  0  0  0
 18 19  2  0  0  0
 18104  1  0  0  0
 19 20  1  0  0  0
 19 24  1  0  0  0
 20 21  2  0  0  0
 20105  1  0  0  0
 21 23  1  0  0  0
 22 28  1  0  0  0
 22 32  2  0  0  0
 26 27  1  0  0  0
 28106  1  0  0  0
 28107  1  0  0  0
 29108  1  0  0  0
 29109  1  0  0  0
 33 34  1  0  0  0
 33 66  1  0  0  0
 33 70  2  0  0  0
 34 36  1  0  0  0
 34 59  1  0  0  0
 34110  1  0  0  0
 35 44  2  0  0  0
 35 45  1  0  0  0
 35 68  1  0  0  0
 36 56  1  0  0  0
 36111  1  0  0  0
 37 39  1  0  0  0
 37 47  1  0  0  0
 37 66  1  0  0  0
 37112  1  0  0  0
 38 43  2  0  0  0
 38 46  1  0  0  0
 38 47  1  0  0  0
 39 64  1  0  0  0
 39 67  2  0  0  0
 40 52  1  0  0  0
 40 53  2  0  0  0
 40 58  1  0  0  0
 41113  1  0  0  0
 41114  1  0  0  0
 41115  1  0  0  0
 41 48  1  0  0  0
 42 43  1  0  0  0
 42 66  1  0  0  0
 42116  1  0  0  0
 42117  1  0  0  0
 43 44  1  0  0  0
 44118  1  0  0  0
 45 46  2  0  0  0
 45119  1  0  0  0
 46120  1  0  0  0
 47121  1  0  0  0
 47122  1  0  0  0
 48 56  1  0  0  0
 48 65  1  0  0  0
 48123  1  0  0  0
 49 50  1  0  0  0
 49 53  1  0  0  0
 49 64  1  0  0  0
 49124  1  0  0  0
 50 51  1  0  0  0
 50125  1  0  0  0
 50126  1  0  0  0
 51 52  1  0  0  0
 51127  1  0  0  0
 51128  1  0  0  0
 52129  1  0  0  0
 52130  1  0  0  0
 53 54  1  0  0  0
 54 55  2  0  0  0
 54131  1  0  0  0
 55 57  1  0  0  0
 55132  1  0  0  0
 56 69  2  0  0  0
 57 58  2  0  0  0
 57133  1  0  0  0
 58134  1  0  0  0
 59 60  1  0  0  0
 59 61  1  0  0  0
 59 62  1  0  0  0
 60135  1  0  0  0
 60136  1  0  0  0
 60137  1  0  0  0
 61138  1  0  0  0
 61139  1  0  0  0
 61140  1  0  0  0
 62141  1  0  0  0
 62142  1  0  0  0
 62143  1  0  0  0
 63 65  1  0  0  0
 63144  1  0  0  0
 63145  1  0  0  0
 63146  1  0  0  0
 64147  1  0  0  0
 65148  1  0  0  0
 68 83  1  0  0  0
 71 72  2  0  0  0
 71 73  1  0  0  0
 71149  1  0  0  0
 72 74  1  0  0  0
 72150  1  0  0  0
 73 75  2  0  0  0
 73151  1  0  0  0
 74 76  2  0  0  0
 74 78  1  0  0  0
 75 76  1  0  0  0
 75 87  1  0  0  0
 76 89  1  0  0  0
 77 79  2  0  0  0
 77 83  1  0  0  0
 77152  1  0  0  0
 78 86  1  0  0  0
 78 88  2  0  0  0
 79 80  1  0  0  0
 79 84  1  0  0  0
 80153  1  0  0  0
 80154  1  0  0  0
 80155  1  0  0  0
 81156  1  0  0  0
 81157  1  0  0  0
 81158  1  0  0  0
 81 85  1  0  0  0
 82 85  1  0  0  0
 82159  1  0  0  0
 82160  1  0  0  0
 82161  1  0  0  0
 83162  1  0  0  0
 83163  1  0  0  0
 84 85  1  0  0  0
 84 88  1  0  0  0
 84164  1  0  0  0
 85165  1  0  0  0
 86166  1  0  0  0
 86167  1  0  0  0
 87168  1  0  0  0
 88169  1  0  0  0
M  CHG  1  88   1
M  ISO  4   1 100  68 101  83 101  87 100
M  END
> <chiral flag>
0

> <version>
0

> <s_m_source_file>
/data/baiqing/PycharmProjects/Reinvent-master-3.2/result/LINK_invent/BTK/process_docking_weight1_custom_product_contain_oxygen_bond_distance_aromatic_linkinvent_7_9_3/rearranged_h_0062.sdf

> <i_m_source_file_index>
6

> <r_mmod_Potential_Energy-OPLS-2005>
-294.722747802734

> <r_mmod_Stretch_Energy-OPLS-2005>
38.7874794006348

> <r_mmod_Bend_Energy-OPLS-2005>
105.518737792969

> <r_mmod_Torsional_Energy-OPLS-2005>
246.405426025391

> <r_mmod_Improper_Torsional_Energy-OPLS-2005>
2.82124543190002

> <r_mmod_Van_der_Waal_Energy-OPLS-2005>
173.867584228516

> <r_mmod_Electrostatic_Energy-OPLS-2005>
-484.341033935547

> <r_mmod_Solvation_Energy-OPLS-2005>
-387.906555175781

> <b_mmod_Minimization_Converged-OPLS-2005>
0

> <r_mmod_RMS_Derivative-OPLS-2005>
4.94409990310669

$$$$
6
                    3D
 Structure written by MMmdl.
167176  0  0  1  0            999 V2000
  -30.5635  -14.8932   20.4264 C   0  0  0  0  0  0
  -30.4379  -12.5511   19.5026 C   0  0  0  0  0  0
  -29.5173  -12.5374   18.2593 C   0  0  0  0  0  0
  -28.0485  -12.3300   18.6739 C   0  0  0  0  0  0
  -27.6342  -13.2497   19.8520 C   0  0  2  0  0  0
  -28.6766  -13.2440   20.9919 C   0  0  0  0  0  0
  -25.2363  -13.8078   20.5585 C   0  0  0  0  0  0
  -24.1708  -13.0345   20.9194 C   0  0  0  0  0  0
  -24.6404  -11.6863   20.8782 C   0  0  0  0  0  0
  -23.9103  -10.4255   21.0416 C   0  0  0  0  0  0
  -24.3653   -9.4158   21.9169 C   0  0  0  0  0  0
  -23.6299   -8.2217   22.0766 C   0  0  0  0  0  0
  -22.4266   -8.0284   21.3557 C   0  0  0  0  0  0
  -21.9912   -9.0254   20.4643 C   0  0  0  0  0  0
  -22.7288  -10.2115   20.3036 C   0  0  0  0  0  0
  -21.6829   -6.0743   22.5268 C   0  0  0  0  0  0
  -21.3997   -6.5634   23.8212 C   0  0  0  0  0  0
  -21.3659   -5.6774   24.9164 C   0  0  0  0  0  0
  -21.6047   -4.3036   24.7193 C   0  0  0  0  0  0
  -21.8827   -3.8150   23.4304 C   0  0  0  0  0  0
  -21.9186   -4.6977   22.3374 C   0  0  0  0  0  0
  -22.7720  -13.5115   21.1835 C   0  0  0  0  0  0
  -22.1644   -4.2173   21.0945 F   0  0  0  0  0  0
  -21.5639   -3.4514   25.7703 F   0  0  0  0  0  0
  -29.9693  -13.6344   20.4138 N   0  0  0  0  0  0
  -26.2889  -12.9418   20.3296 N   0  0  0  0  0  0
  -25.9349  -11.6550   20.5828 N   0  0  0  0  0  0
  -22.0406  -12.8114   22.0443 N   0  0  0  0  0  0
  -25.3857  -15.1713   20.3777 N   0  0  0  0  0  0
  -31.7368  -14.9782   20.0512 O   0  0  0  0  0  0
  -21.6606   -6.8894   21.4246 O   0  0  0  0  0  0
  -22.3378  -14.5406   20.6683 O   0  0  0  0  0  0
  -24.6384  -31.8464   23.1906 C   0  0  0  0  0  0
  -25.9178  -32.4714   23.8284 C   0  0  1  0  0  0
  -27.2328  -27.1857   20.1345 C   0  0  0  0  0  0
  -25.5925  -33.8519   24.2197 N   0  0  0  0  0  0
  -23.4426  -30.4688   21.5334 C   0  0  2  0  0  0
  -24.8959  -28.9052   20.1090 C   0  0  0  0  0  0
  -22.7553  -29.4578   22.4826 C   0  0  0  0  0  0
  -18.0360  -28.1331   22.8404 C   0  0  0  0  0  0
  -24.1496  -36.7283   23.2640 C   0  0  0  0  0  0
  -25.9956  -30.7366   21.3847 C   0  0  0  0  0  0
  -26.0705  -29.3519   20.7262 C   0  0  0  0  0  0
  -27.2388  -28.5069   20.7267 C   0  0  0  0  0  0
  -26.0311  -26.8337   19.4763 C   0  0  0  0  0  0
  -24.8854  -27.6557   19.4725 C   0  0  0  0  0  0
  -23.6723  -29.8047   20.1503 C   0  0  0  0  0  0
  -25.4119  -36.3034   24.0310 C   0  0  1  0  0  0
  -20.5932  -28.3728   23.1243 C   0  0  2  0  0  0
  -20.6861  -26.9434   22.5440 C   0  0  0  0  0  0
  -19.5916  -26.6406   21.5125 C   0  0  0  0  0  0
  -18.2053  -26.7924   22.1472 C   0  0  0  0  0  0
  -19.1575  -28.8838   23.2818 C   0  0  0  0  0  0
  -18.9430  -30.1439   23.8829 C   0  0  0  0  0  0
  -17.6411  -30.6528   24.0472 C   0  0  0  0  0  0
  -25.9059  -34.9407   23.5058 C   0  0  0  0  0  0
  -16.5343  -29.8974   23.6259 C   0  0  0  0  0  0
  -16.7323  -28.6392   23.0293 C   0  0  0  0  0  0
  -26.4509  -31.6556   25.0697 C   0  0  0  0  0  0
  -25.3720  -31.3732   26.1403 C   0  0  0  0  0  0
  -27.0368  -30.2952   24.6251 C   0  0  0  0  0  0
  -27.6021  -32.4314   25.7497 C   0  0  0  0  0  0
  -27.5572  -37.1793   24.8460 C   0  0  0  0  0  0
  -21.4243  -29.3084   22.3605 N   0  0  0  0  0  0
  -26.4278  -37.3741   23.9404 N   0  0  0  0  0  0
  -24.7119  -31.0358   22.0930 N   0  0  0  0  0  0
  -23.4211  -28.8083   23.2929 O   0  0  0  0  0  0
  -28.3026  -26.2285   20.2020 O   0  0  0  0  0  0
  -26.5650  -34.8907   22.4642 O   0  0  0  0  0  0
  -23.5504  -32.1316   23.7152 O   0  0  0  0  0  0
  -27.9744  -17.2667   18.5274 C   0  0  0  0  0  0
  -27.1032  -17.6695   19.5663 C   0  0  0  0  0  0
  -29.3626  -17.2158   18.7730 C   0  0  0  0  0  0
  -27.6272  -18.2658   20.7401 C   0  0  0  0  0  0
  -29.0138  -18.5774   20.7039 C   0  0  0  0  0  0
  -29.7693  -17.4373   20.1084 C   0  0  0  0  0  0
  -29.3817  -20.7499   19.3315 C   0  0  0  0  0  0
  -28.7703  -22.2122   19.0914 C   0  0  0  0  0  0
  -29.1786  -22.6431   21.4896 C   0  0  0  0  0  0
  -28.7843  -21.0871   21.5846 C   0  0  0  0  0  0
  -29.0332  -23.4013   20.1138 C   0  0  2  0  0  0
  -26.2666  -17.4761   22.7419 C   0  0  0  0  0  0
  -25.4633  -19.4828   21.3986 C   0  0  0  0  0  0
  -28.0289  -24.7318   19.9631 C   0  0  0  0  0  0
  -26.6888  -18.6746   21.8845 C   0  0  0  0  0  0
  -29.2215  -20.0975   20.5323 N   0  0  0  0  0  0
  -29.8179  -16.0526   20.7405 N   0  0  0  0  0  0
  -29.9866  -20.2321   18.3894 O   0  0  0  0  0  0
  -31.4715  -12.6943   19.1886 H   0  0  0  0  0  0
  -30.4169  -11.5865   20.0145 H   0  0  0  0  0  0
  -29.8274  -11.7533   17.5675 H   0  0  0  0  0  0
  -29.6149  -13.4806   17.7162 H   0  0  0  0  0  0
  -27.9328  -11.2873   18.9733 H   0  0  0  0  0  0
  -27.3891  -12.4812   17.8194 H   0  0  0  0  0  0
  -27.6076  -14.2614   19.4449 H   0  0  0  0  0  0
  -28.7435  -12.2566   21.4540 H   0  0  0  0  0  0
  -28.3857  -13.9359   21.7835 H   0  0  0  0  0  0
  -25.2828   -9.5593   22.4699 H   0  0  0  0  0  0
  -23.9999   -7.4590   22.7465 H   0  0  0  0  0  0
  -21.0854   -8.8784   19.8931 H   0  0  0  0  0  0
  -22.3788  -10.9643   19.6109 H   0  0  0  0  0  0
  -21.1978   -7.6131   23.9716 H   0  0  0  0  0  0
  -21.1467   -6.0489   25.9069 H   0  0  0  0  0  0
  -22.0611   -2.7610   23.2775 H   0  0  0  0  0  0
  -22.4076  -11.9828   22.4895 H   0  0  0  0  0  0
  -21.1012  -13.1108   22.2651 H   0  0  0  0  0  0
  -24.6359  -15.8207   20.5837 H   0  0  0  0  0  0
  -26.2538  -15.6303   20.1355 H   0  0  0  0  0  0
  -26.7254  -32.5352   23.1027 H   0  0  0  0  0  0
  -25.0032  -33.9648   25.0302 H   0  0  0  0  0  0
  -22.7443  -31.2940   21.3825 H   0  0  0  0  0  0
  -23.3734  -35.9638   23.3287 H   0  0  0  0  0  0
  -24.3591  -36.8927   22.2061 H   0  0  0  0  0  0
  -23.7288  -37.6485   23.6694 H   0  0  0  0  0  0
  -26.1429  -31.4952   20.6140 H   0  0  0  0  0  0
  -26.8709  -30.7885   22.0219 H   0  0  0  0  0  0
  -28.1334  -28.8457   21.2288 H   0  0  0  0  0  0
  -25.9383  -25.8883   18.9644 H   0  0  0  0  0  0
  -23.9902  -27.3085   18.9761 H   0  0  0  0  0  0
  -23.8217  -30.5852   19.4030 H   0  0  0  0  0  0
  -22.7866  -29.2541   19.8297 H   0  0  0  0  0  0
  -25.1308  -36.1845   25.0798 H   0  0  0  0  0  0
  -21.0023  -28.3310   24.1367 H   0  0  0  0  0  0
  -20.5696  -26.2344   23.3644 H   0  0  0  0  0  0
  -21.6786  -26.7447   22.1343 H   0  0  0  0  0  0
  -19.7121  -25.6348   21.1119 H   0  0  0  0  0  0
  -19.6876  -27.3228   20.6666 H   0  0  0  0  0  0
  -17.4412  -26.6769   21.3757 H   0  0  0  0  0  0
  -18.0361  -25.9975   22.8761 H   0  0  0  0  0  0
  -19.7859  -30.7310   24.2214 H   0  0  0  0  0  0
  -17.4888  -31.6225   24.5020 H   0  0  0  0  0  0
  -15.5316  -30.2835   23.7540 H   0  0  0  0  0  0
  -15.8717  -28.0677   22.7038 H   0  0  0  0  0  0
  -24.5902  -30.7061   25.7756 H   0  0  0  0  0  0
  -24.8907  -32.2906   26.4794 H   0  0  0  0  0  0
  -25.8025  -30.8947   27.0209 H   0  0  0  0  0  0
  -26.2969  -29.6673   24.1266 H   0  0  0  0  0  0
  -27.3994  -29.7244   25.4815 H   0  0  0  0  0  0
  -27.8876  -30.4189   23.9549 H   0  0  0  0  0  0
  -27.2585  -33.3615   26.2047 H   0  0  0  0  0  0
  -28.3859  -32.6871   25.0354 H   0  0  0  0  0  0
  -28.0663  -31.8458   26.5443 H   0  0  0  0  0  0
  -28.2561  -38.0114   24.7477 H   0  0  0  0  0  0
  -28.1088  -36.2621   24.6300 H   0  0  0  0  0  0
  -27.2289  -37.1468   25.8867 H   0  0  0  0  0  0
  -20.9453  -29.8797   21.6778 H   0  0  0  0  0  0
  -26.0135  -38.2801   24.1400 H   0  0  0  0  0  0
  -27.5710  -16.8706   17.6063 H   0  0  0  0  0  0
  -26.0406  -17.5493   19.4342 H   0  0  0  0  0  0
  -29.9544  -16.6289   18.0849 H   0  0  0  0  0  0
  -27.6919  -22.0630   19.0199 H   0  0  0  0  0  0
  -29.0709  -22.5502   18.0978 H   0  0  0  0  0  0
  -30.2192  -22.7371   21.8071 H   0  0  0  0  0  0
  -28.6142  -23.1881   22.2471 H   0  0  0  0  0  0
  -27.7001  -21.0946   21.5961 H   0  0  0  0  0  0
  -29.1085  -20.7039   22.5530 H   0  0  0  0  0  0
  -30.0241  -23.7801   19.8637 H   0  0  0  0  0  0
  -27.1227  -16.8834   23.0696 H   0  0  0  0  0  0
  -25.5840  -16.8223   22.2115 H   0  0  0  0  0  0
  -25.7374  -17.8123   23.6344 H   0  0  0  0  0  0
  -25.2962  -19.4141   20.3248 H   0  0  0  0  0  0
  -25.5681  -20.5425   21.6218 H   0  0  0  0  0  0
  -24.5448  -19.1453   21.8769 H   0  0  0  0  0  0
  -27.1141  -24.4846   20.5034 H   0  0  0  0  0  0
  -27.7502  -24.7099   18.9096 H   0  0  0  0  0  0
  -27.2444  -19.2813   22.5959 H   0  0  0  0  0  0
  -28.9852  -15.8432   21.2699 H   0  0  0  0  0  0
  1 25  1  0  0  0
  1 30  2  0  0  0
  1 87  1  0  0  0
  2  3  1  0  0  0
  2 25  1  0  0  0
  2 89  1  0  0  0
  2 90  1  0  0  0
  3  4  1  0  0  0
  3 91  1  0  0  0
  3 92  1  0  0  0
  4  5  1  0  0  0
  4 93  1  0  0  0
  4 94  1  0  0  0
  5  6  1  0  0  0
  5 26  1  0  0  0
  5 95  1  0  0  0
  6 25  1  0  0  0
  6 96  1  0  0  0
  6 97  1  0  0  0
  7  8  2  0  0  0
  7 26  1  0  0  0
  7 29  1  0  0  0
  8  9  1  0  0  0
  8 22  1  0  0  0
  9 10  1  0  0  0
  9 27  2  0  0  0
 10 11  2  0  0  0
 10 15  1  0  0  0
 11 12  1  0  0  0
 11 98  1  0  0  0
 12 13  2  0  0  0
 12 99  1  0  0  0
 13 14  1  0  0  0
 13 31  1  0  0  0
 14 15  2  0  0  0
 14100  1  0  0  0
 15101  1  0  0  0
 16 17  2  0  0  0
 16 21  1  0  0  0
 16 31  1  0  0  0
 17 18  1  0  0  0
 17102  1  0  0  0
 18 19  2  0  0  0
 18103  1  0  0  0
 19 20  1  0  0  0
 19 24  1  0  0  0
 20 21  2  0  0  0
 20104  1  0  0  0
 21 23  1  0  0  0
 22 28  1  0  0  0
 22 32  2  0  0  0
 26 27  1  0  0  0
 28105  1  0  0  0
 28106  1  0  0  0
 29107  1  0  0  0
 29108  1  0  0  0
 33 34  1  0  0  0
 33 66  1  0  0  0
 33 70  2  0  0  0
 34 36  1  0  0  0
 34 59  1  0  0  0
 34109  1  0  0  0
 35 44  2  0  0  0
 35 45  1  0  0  0
 35 68  1  0  0  0
 36 56  1  0  0  0
 36110  1  0  0  0
 37 39  1  0  0  0
 37 47  1  0  0  0
 37 66  1  0  0  0
 37111  1  0  0  0
 38 43  2  0  0  0
 38 46  1  0  0  0
 38 47  1  0  0  0
 39 64  1  0  0  0
 39 67  2  0  0  0
 40 52  1  0  0  0
 40 53  2  0  0  0
 40 58  1  0  0  0
 41112  1  0  0  0
 41113  1  0  0  0
 41114  1  0  0  0
 41 48  1  0  0  0
 42 43  1  0  0  0
 42 66  1  0  0  0
 42115  1  0  0  0
 42116  1  0  0  0
 43 44  1  0  0  0
 44117  1  0  0  0
 45 46  2  0  0  0
 45118  1  0  0  0
 46119  1  0  0  0
 47120  1  0  0  0
 47121  1  0  0  0
 48 56  1  0  0  0
 48 65  1  0  0  0
 48122  1  0  0  0
 49 50  1  0  0  0
 49 53  1  0  0  0
 49 64  1  0  0  0
 49123  1  0  0  0
 50 51  1  0  0  0
 50124  1  0  0  0
 50125  1  0  0  0
 51 52  1  0  0  0
 51126  1  0  0  0
 51127  1  0  0  0
 52128  1  0  0  0
 52129  1  0  0  0
 53 54  1  0  0  0
 54 55  2  0  0  0
 54130  1  0  0  0
 55 57  1  0  0  0
 55131  1  0  0  0
 56 69  2  0  0  0
 57 58  2  0  0  0
 57132  1  0  0  0
 58133  1  0  0  0
 59 60  1  0  0  0
 59 61  1  0  0  0
 59 62  1  0  0  0
 60134  1  0  0  0
 60135  1  0  0  0
 60136  1  0  0  0
 61137  1  0  0  0
 61138  1  0  0  0
 61139  1  0  0  0
 62140  1  0  0  0
 62141  1  0  0  0
 62142  1  0  0  0
 63 65  1  0  0  0
 63143  1  0  0  0
 63144  1  0  0  0
 63145  1  0  0  0
 64146  1  0  0  0
 65147  1  0  0  0
 68 84  1  0  0  0
 71 72  2  0  0  0
 71 73  1  0  0  0
 71148  1  0  0  0
 72 74  1  0  0  0
 72149  1  0  0  0
 73 76  2  0  0  0
 73150  1  0  0  0
 74 75  2  0  0  0
 74 85  1  0  0  0
 75 76  1  0  0  0
 75 86  1  0  0  0
 76 87  1  0  0  0
 77 78  1  0  0  0
 77 86  1  0  0  0
 77 88  2  0  0  0
 78 81  1  0  0  0
 78151  1  0  0  0
 78152  1  0  0  0
 79 80  1  0  0  0
 79 81  1  0  0  0
 79153  1  0  0  0
 79154  1  0  0  0
 80 86  1  0  0  0
 80155  1  0  0  0
 80156  1  0  0  0
 81 84  1  0  0  0
 81157  1  0  0  0
 82158  1  0  0  0
 82159  1  0  0  0
 82160  1  0  0  0
 82 85  1  0  0  0
 83 85  1  0  0  0
 83161  1  0  0  0
 83162  1  0  0  0
 83163  1  0  0  0
 84164  1  0  0  0
 84165  1  0  0  0
 85166  1  0  0  0
 87167  1  0  0  0
M  ISO  4   1 100  68 101  84 101  87 100
M  END
> <chiral flag>
0

> <version>
0

> <s_m_source_file>
/data/baiqing/PycharmProjects/Reinvent-master-3.2/result/LINK_invent/BTK/process_docking_weight1_custom_product_contain_oxygen_bond_distance_aromatic_linkinvent_7_9_3/rearranged_h_0062.sdf

> <i_m_source_file_index>
7

> <r_mmod_Potential_Energy-OPLS-2005>
822.874084472656

> <r_mmod_Stretch_Energy-OPLS-2005>
217.572448730469

> <r_mmod_Bend_Energy-OPLS-2005>
279.066680908203

> <r_mmod_Torsional_Energy-OPLS-2005>
588.948669433594

> <r_mmod_Improper_Torsional_Energy-OPLS-2005>
41.9308204650879

> <r_mmod_Van_der_Waal_Energy-OPLS-2005>
158.500869750977

> <r_mmod_Electrostatic_Energy-OPLS-2005>
-398.128143310547

> <r_mmod_Solvation_Energy-OPLS-2005>
-218.074920654297

> <b_mmod_Minimization_Converged-OPLS-2005>
0

> <r_mmod_RMS_Derivative-OPLS-2005>
4.34456014633179

$$$$
7
                    3D
 Structure written by MMmdl.
154162  0  0  1  0            999 V2000
  -30.7071  -14.4572   20.5456 C   0  0  0  0  0  0
  -30.4254  -12.2895   19.4226 C   0  0  0  0  0  0
  -29.5010  -12.5063   18.2066 C   0  0  0  0  0  0
  -28.0199  -12.3806   18.6152 C   0  0  0  0  0  0
  -27.6680  -13.2100   19.8783 C   0  0  2  0  0  0
  -28.7102  -12.9818   20.9984 C   0  0  0  0  0  0
  -25.2631  -13.8162   20.5687 C   0  0  0  0  0  0
  -24.1868  -13.0449   20.9162 C   0  0  0  0  0  0
  -24.6412  -11.6912   20.8727 C   0  0  0  0  0  0
  -23.9073  -10.4300   21.0386 C   0  0  0  0  0  0
  -24.3614   -9.4222   21.9169 C   0  0  0  0  0  0
  -23.6294   -8.2253   22.0747 C   0  0  0  0  0  0
  -22.4277   -8.0288   21.3542 C   0  0  0  0  0  0
  -21.9908   -9.0267   20.4653 C   0  0  0  0  0  0
  -22.7240  -10.2137   20.3056 C   0  0  0  0  0  0
  -21.6854   -6.0739   22.5284 C   0  0  0  0  0  0
  -21.4013   -6.5635   23.8221 C   0  0  0  0  0  0
  -21.3662   -5.6791   24.9179 C   0  0  0  0  0  0
  -21.6045   -4.3048   24.7224 C   0  0  0  0  0  0
  -21.8820   -3.8147   23.4350 C   0  0  0  0  0  0
  -21.9191   -4.6974   22.3409 C   0  0  0  0  0  0
  -22.7894  -13.5268   21.1829 C   0  0  0  0  0  0
  -22.1664   -4.2161   21.0987 F   0  0  0  0  0  0
  -21.5626   -3.4530   25.7735 F   0  0  0  0  0  0
  -30.0452  -13.2734   20.4481 N   0  0  0  0  0  0
  -26.3066  -12.9332   20.3376 N   0  0  0  0  0  0
  -25.9341  -11.6484   20.5752 N   0  0  0  0  0  0
  -22.0510  -12.8286   22.0385 N   0  0  0  0  0  0
  -25.4391  -15.1875   20.4113 N   0  0  0  0  0  0
  -31.8356  -14.6290   20.0782 O   0  0  0  0  0  0
  -21.6640   -6.8884   21.4245 O   0  0  0  0  0  0
  -22.3588  -14.5586   20.6699 O   0  0  0  0  0  0
  -24.6135  -31.8671   23.2097 C   0  0  0  0  0  0
  -25.9032  -32.4820   23.8388 C   0  0  1  0  0  0
  -27.2374  -27.4384   20.0997 C   0  0  0  0  0  0
  -25.5893  -33.8617   24.2330 N   0  0  0  0  0  0
  -23.4016  -30.4888   21.5499 C   0  0  2  0  0  0
  -24.8501  -28.9508   20.1175 C   0  0  0  0  0  0
  -22.7399  -29.4644   22.4990 C   0  0  0  0  0  0
  -18.0258  -28.1371   22.8491 C   0  0  0  0  0  0
  -24.1487  -36.7316   23.2641 C   0  0  0  0  0  0
  -25.9303  -30.8337   21.3620 C   0  0  0  0  0  0
  -26.0095  -29.4673   20.7111 C   0  0  0  0  0  0
  -27.2078  -28.7176   20.6994 C   0  0  0  0  0  0
  -26.0653  -26.9322   19.5037 C   0  0  0  0  0  0
  -24.8716  -27.6808   19.5127 C   0  0  0  0  0  0
  -23.6112  -29.8175   20.1656 C   0  0  0  0  0  0
  -25.4111  -36.3110   24.0339 C   0  0  1  0  0  0
  -20.5852  -28.3647   23.1330 C   0  0  2  0  0  0
  -20.6751  -26.9385   22.5420 C   0  0  0  0  0  0
  -19.5733  -26.6377   21.5213 C   0  0  0  0  0  0
  -18.1910  -26.7915   22.1625 C   0  0  0  0  0  0
  -19.1510  -28.8824   23.2910 C   0  0  0  0  0  0
  -18.9448  -30.1435   23.8916 C   0  0  0  0  0  0
  -17.6452  -30.6583   24.0565 C   0  0  0  0  0  0
  -25.9028  -34.9472   23.5130 C   0  0  0  0  0  0
  -16.5337  -29.9085   23.6331 C   0  0  0  0  0  0
  -16.7252  -28.6501   23.0352 C   0  0  0  0  0  0
  -26.4472  -31.6595   25.0712 C   0  0  0  0  0  0
  -25.3758  -31.3710   26.1482 C   0  0  0  0  0  0
  -27.0299  -30.3036   24.6084 C   0  0  0  0  0  0
  -27.6048  -32.4313   25.7475 C   0  0  0  0  0  0
  -27.5569  -37.1828   24.8476 C   0  0  0  0  0  0
  -21.4127  -29.3023   22.3740 N   0  0  0  0  0  0
  -26.4306  -37.3784   23.9384 N   0  0  0  0  0  0
  -24.6666  -31.0764   22.1000 N   0  0  0  0  0  0
  -23.4175  -28.8186   23.3028 O   0  0  0  0  0  0
  -28.3908  -26.6867   20.0891 O   0  0  0  0  0  0
  -26.5590  -34.8920   22.4691 O   0  0  0  0  0  0
  -23.5329  -32.1422   23.7497 O   0  0  0  0  0  0
  -30.8696  -18.7898   19.4906 C   0  0  0  0  0  0
  -30.7361  -17.3970   19.6723 C   0  0  0  0  0  0
  -30.4560  -19.6936   20.4932 C   0  0  0  0  0  0
  -30.1857  -16.8735   20.8659 C   0  0  0  0  0  0
  -29.8884  -19.1748   21.6815 C   0  0  0  0  0  0
  -29.7432  -17.7772   21.8570 C   0  0  0  0  0  0
  -29.5564  -23.3947   20.2121 C   0  0  0  0  0  0
  -30.7063  -21.1943   20.3046 C   0  0  0  0  0  0
  -28.2431  -24.1820   20.3853 C   0  0  0  0  0  0
  -28.3923  -25.5933   21.0230 C   0  0  0  0  0  0
  -30.0052  -15.4710   21.0846 N   0  0  0  0  0  0
  -29.5236  -22.0590   20.3839 N   0  0  0  0  0  0
  -30.6008  -23.9852   19.9280 O   0  0  0  0  0  0
  -29.4935  -20.0164   22.6665 F   0  0  0  0  0  0
  -29.1852  -17.2980   22.9957 F   0  0  0  0  0  0
  -31.4717  -12.3771   19.1234 H   0  0  0  0  0  0
  -30.3155  -11.2769   19.8128 H   0  0  0  0  0  0
  -29.7327  -11.7819   17.4237 H   0  0  0  0  0  0
  -29.6849  -13.4922   17.7766 H   0  0  0  0  0  0
  -27.8158  -11.3258   18.7960 H   0  0  0  0  0  0
  -27.3795  -12.6805   17.7845 H   0  0  0  0  0  0
  -27.7172  -14.2599   19.5867 H   0  0  0  0  0  0
  -28.6792  -11.9482   21.3452 H   0  0  0  0  0  0
  -28.4788  -13.5878   21.8745 H   0  0  0  0  0  0
  -25.2740   -9.5702   22.4759 H   0  0  0  0  0  0
  -24.0004   -7.4643   22.7454 H   0  0  0  0  0  0
  -21.0835   -8.8799   19.8961 H   0  0  0  0  0  0
  -22.3695  -10.9682   19.6182 H   0  0  0  0  0  0
  -21.2010   -7.6142   23.9726 H   0  0  0  0  0  0
  -21.1479   -6.0513   25.9081 H   0  0  0  0  0  0
  -22.0600   -2.7613   23.2840 H   0  0  0  0  0  0
  -22.4068  -11.9940   22.4809 H   0  0  0  0  0  0
  -21.1143  -13.1357   22.2570 H   0  0  0  0  0  0
  -24.6792  -15.8509   20.5163 H   0  0  0  0  0  0
  -26.3064  -15.6233   20.1225 H   0  0  0  0  0  0
  -26.7102  -32.5531   23.1149 H   0  0  0  0  0  0
  -25.0061  -33.9779   25.0489 H   0  0  0  0  0  0
  -22.6898  -31.3045   21.4090 H   0  0  0  0  0  0
  -23.3716  -35.9688   23.3391 H   0  0  0  0  0  0
  -24.3557  -36.8838   22.2036 H   0  0  0  0  0  0
  -23.7295  -37.6573   23.6598 H   0  0  0  0  0  0
  -26.0407  -31.5986   20.5916 H   0  0  0  0  0  0
  -26.8190  -30.8887   21.9792 H   0  0  0  0  0  0
  -28.1037  -29.1103   21.1592 H   0  0  0  0  0  0
  -26.0736  -25.9594   19.0338 H   0  0  0  0  0  0
  -23.9785  -27.2745   19.0576 H   0  0  0  0  0  0
  -23.7174  -30.5907   19.4035 H   0  0  0  0  0  0
  -22.7358  -29.2338   19.8737 H   0  0  0  0  0  0
  -25.1295  -36.1989   25.0837 H   0  0  0  0  0  0
  -20.9945  -28.3205   24.1453 H   0  0  0  0  0  0
  -20.5644  -26.2250   23.3599 H   0  0  0  0  0  0
  -21.6626  -26.7420   22.1224 H   0  0  0  0  0  0
  -19.6893  -25.6293   21.1230 H   0  0  0  0  0  0
  -19.6680  -27.3196   20.6753 H   0  0  0  0  0  0
  -17.4180  -26.6654   21.4036 H   0  0  0  0  0  0
  -18.0319  -26.0064   22.9027 H   0  0  0  0  0  0
  -19.7929  -30.7242   24.2298 H   0  0  0  0  0  0
  -17.5013  -31.6273   24.5151 H   0  0  0  0  0  0
  -15.5343  -30.2994   23.7657 H   0  0  0  0  0  0
  -15.8648  -28.0830   22.7062 H   0  0  0  0  0  0
  -24.5877  -30.7120   25.7827 H   0  0  0  0  0  0
  -24.9025  -32.2881   26.4999 H   0  0  0  0  0  0
  -25.8122  -30.8813   27.0198 H   0  0  0  0  0  0
  -26.2837  -29.6793   24.1158 H   0  0  0  0  0  0
  -27.4095  -29.7272   25.4530 H   0  0  0  0  0  0
  -27.8659  -30.4353   23.9211 H   0  0  0  0  0  0
  -27.2659  -33.3589   26.2103 H   0  0  0  0  0  0
  -28.3835  -32.6918   25.0294 H   0  0  0  0  0  0
  -28.0749  -31.8415   26.5356 H   0  0  0  0  0  0
  -28.2655  -38.0056   24.7427 H   0  0  0  0  0  0
  -28.0994  -36.2584   24.6429 H   0  0  0  0  0  0
  -27.2265  -37.1642   25.8877 H   0  0  0  0  0  0
  -20.9264  -29.8760   21.6988 H   0  0  0  0  0  0
  -26.0199  -38.2875   24.1333 H   0  0  0  0  0  0
  -31.3095  -19.1590   18.5751 H   0  0  0  0  0  0
  -31.0651  -16.7399   18.8783 H   0  0  0  0  0  0
  -31.2001  -21.3614   19.3459 H   0  0  0  0  0  0
  -31.4237  -21.5068   21.0653 H   0  0  0  0  0  0
  -27.5937  -23.5897   21.0303 H   0  0  0  0  0  0
  -27.7320  -24.2469   19.4251 H   0  0  0  0  0  0
  -29.3225  -25.6501   21.5900 H   0  0  0  0  0  0
  -27.6086  -25.7255   21.7735 H   0  0  0  0  0  0
  -29.1886  -15.2096   21.6149 H   0  0  0  0  0  0
  -28.6399  -21.6194   20.5980 H   0  0  0  0  0  0
  1 25  1  0  0  0
  1 30  2  0  0  0
  1 81  1  0  0  0
  2  3  1  0  0  0
  2 25  1  0  0  0
  2 86  1  0  0  0
  2 87  1  0  0  0
  3  4  1  0  0  0
  3 88  1  0  0  0
  3 89  1  0  0  0
  4  5  1  0  0  0
  4 90  1  0  0  0
  4 91  1  0  0  0
  5  6  1  0  0  0
  5 26  1  0  0  0
  5 92  1  0  0  0
  6 25  1  0  0  0
  6 93  1  0  0  0
  6 94  1  0  0  0
  7  8  2  0  0  0
  7 26  1  0  0  0
  7 29  1  0  0  0
  8  9  1  0  0  0
  8 22  1  0  0  0
  9 10  1  0  0  0
  9 27  2  0  0  0
 10 11  2  0  0  0
 10 15  1  0  0  0
 11 12  1  0  0  0
 11 95  1  0  0  0
 12 13  2  0  0  0
 12 96  1  0  0  0
 13 14  1  0  0  0
 13 31  1  0  0  0
 14 15  2  0  0  0
 14 97  1  0  0  0
 15 98  1  0  0  0
 16 17  2  0  0  0
 16 21  1  0  0  0
 16 31  1  0  0  0
 17 18  1  0  0  0
 17 99  1  0  0  0
 18 19  2  0  0  0
 18100  1  0  0  0
 19 20  1  0  0  0
 19 24  1  0  0  0
 20 21  2  0  0  0
 20101  1  0  0  0
 21 23  1  0  0  0
 22 28  1  0  0  0
 22 32  2  0  0  0
 26 27  1  0  0  0
 28102  1  0  0  0
 28103  1  0  0  0
 29104  1  0  0  0
 29105  1  0  0  0
 33 34  1  0  0  0
 33 66  1  0  0  0
 33 70  2  0  0  0
 34 36  1  0  0  0
 34 59  1  0  0  0
 34106  1  0  0  0
 35 44  2  0  0  0
 35 45  1  0  0  0
 35 68  1  0  0  0
 36 56  1  0  0  0
 36107  1  0  0  0
 37 39  1  0  0  0
 37 47  1  0  0  0
 37 66  1  0  0  0
 37108  1  0  0  0
 38 43  2  0  0  0
 38 46  1  0  0  0
 38 47  1  0  0  0
 39 64  1  0  0  0
 39 67  2  0  0  0
 40 52  1  0  0  0
 40 53  2  0  0  0
 40 58  1  0  0  0
 41109  1  0  0  0
 41110  1  0  0  0
 41111  1  0  0  0
 41 48  1  0  0  0
 42 43  1  0  0  0
 42 66  1  0  0  0
 42112  1  0  0  0
 42113  1  0  0  0
 43 44  1  0  0  0
 44114  1  0  0  0
 45 46  2  0  0  0
 45115  1  0  0  0
 46116  1  0  0  0
 47117  1  0  0  0
 47118  1  0  0  0
 48 56  1  0  0  0
 48 65  1  0  0  0
 48119  1  0  0  0
 49 50  1  0  0  0
 49 53  1  0  0  0
 49 64  1  0  0  0
 49120  1  0  0  0
 50 51  1  0  0  0
 50121  1  0  0  0
 50122  1  0  0  0
 51 52  1  0  0  0
 51123  1  0  0  0
 51124  1  0  0  0
 52125  1  0  0  0
 52126  1  0  0  0
 53 54  1  0  0  0
 54 55  2  0  0  0
 54127  1  0  0  0
 55 57  1  0  0  0
 55128  1  0  0  0
 56 69  2  0  0  0
 57 58  2  0  0  0
 57129  1  0  0  0
 58130  1  0  0  0
 59 60  1  0  0  0
 59 61  1  0  0  0
 59 62  1  0  0  0
 60131  1  0  0  0
 60132  1  0  0  0
 60133  1  0  0  0
 61134  1  0  0  0
 61135  1  0  0  0
 61136  1  0  0  0
 62137  1  0  0  0
 62138  1  0  0  0
 62139  1  0  0  0
 63 65  1  0  0  0
 63140  1  0  0  0
 63141  1  0  0  0
 63142  1  0  0  0
 64143  1  0  0  0
 65144  1  0  0  0
 68 80  1  0  0  0
 71 72  2  0  0  0
 71 73  1  0  0  0
 71145  1  0  0  0
 72 74  1  0  0  0
 72146  1  0  0  0
 73 75  2  0  0  0
 73 78  1  0  0  0
 74 76  2  0  0  0
 74 81  1  0  0  0
 75 76  1  0  0  0
 75 84  1  0  0  0
 76 85  1  0  0  0
 77 79  1  0  0  0
 77 82  1  0  0  0
 77 83  2  0  0  0
 78 82  1  0  0  0
 78147  1  0  0  0
 78148  1  0  0  0
 79 80  1  0  0  0
 79149  1  0  0  0
 79150  1  0  0  0
 80151  1  0  0  0
 80152  1  0  0  0
 81153  1  0  0  0
 82154  1  0  0  0
M  ISO  4   1 100  68 101  80 101  81 100
M  END
> <chiral flag>
0

> <version>
0

> <s_m_source_file>
/data/baiqing/PycharmProjects/Reinvent-master-3.2/result/LINK_invent/BTK/process_docking_weight1_custom_product_contain_oxygen_bond_distance_aromatic_linkinvent_7_9_3/rearranged_h_0062.sdf

> <i_m_source_file_index>
8

> <r_mmod_Potential_Energy-OPLS-2005>
-111.655288696289

> <r_mmod_Stretch_Energy-OPLS-2005>
36.9494323730469

> <r_mmod_Bend_Energy-OPLS-2005>
90.9742660522461

> <r_mmod_Torsional_Energy-OPLS-2005>
242.716415405273

> <r_mmod_Improper_Torsional_Energy-OPLS-2005>
3.23377418518066

> <r_mmod_Van_der_Waal_Energy-OPLS-2005>
152.835922241211

> <r_mmod_Electrostatic_Energy-OPLS-2005>
-422.096374511719

> <r_mmod_Solvation_Energy-OPLS-2005>
-227.986328125

> <b_mmod_Minimization_Converged-OPLS-2005>
0

> <r_mmod_RMS_Derivative-OPLS-2005>
2.70556807518005

$$$$
8
                    3D
 Structure written by MMmdl.
160169  0  0  1  0            999 V2000
  -30.6257  -14.7589   20.4417 C   0  0  0  0  0  0
  -30.4227  -12.4611   19.4789 C   0  0  0  0  0  0
  -29.5057  -12.5040   18.2385 C   0  0  0  0  0  0
  -28.0321  -12.3340   18.6526 C   0  0  0  0  0  0
  -27.6366  -13.2402   19.8511 C   0  0  2  0  0  0
  -28.6823  -13.1932   20.9857 C   0  0  0  0  0  0
  -25.2475  -13.8184   20.5761 C   0  0  0  0  0  0
  -24.1760  -13.0407   20.9161 C   0  0  0  0  0  0
  -24.6384  -11.6899   20.8713 C   0  0  0  0  0  0
  -23.9073  -10.4273   21.0385 C   0  0  0  0  0  0
  -24.3622   -9.4197   21.9177 C   0  0  0  0  0  0
  -23.6290   -8.2237   22.0754 C   0  0  0  0  0  0
  -22.4275   -8.0274   21.3544 C   0  0  0  0  0  0
  -21.9911   -9.0243   20.4643 C   0  0  0  0  0  0
  -22.7242  -10.2119   20.3042 C   0  0  0  0  0  0
  -21.6849   -6.0733   22.5277 C   0  0  0  0  0  0
  -21.4013   -6.5636   23.8209 C   0  0  0  0  0  0
  -21.3659   -5.6790   24.9172 C   0  0  0  0  0  0
  -21.6046   -4.3053   24.7224 C   0  0  0  0  0  0
  -21.8817   -3.8147   23.4345 C   0  0  0  0  0  0
  -21.9193   -4.6962   22.3400 C   0  0  0  0  0  0
  -22.7786  -13.5188   21.1846 C   0  0  0  0  0  0
  -22.1661   -4.2150   21.0978 F   0  0  0  0  0  0
  -21.5632   -3.4538   25.7737 F   0  0  0  0  0  0
  -29.9809  -13.5401   20.3964 N   0  0  0  0  0  0
  -26.2921  -12.9431   20.3333 N   0  0  0  0  0  0
  -25.9325  -11.6555   20.5758 N   0  0  0  0  0  0
  -22.0439  -12.8170   22.0398 N   0  0  0  0  0  0
  -25.4124  -15.1919   20.4392 N   0  0  0  0  0  0
  -31.8186  -14.7910   20.1337 O   0  0  0  0  0  0
  -21.6632   -6.8877   21.4241 O   0  0  0  0  0  0
  -22.3474  -14.5515   20.6727 O   0  0  0  0  0  0
  -24.6321  -31.8498   23.1943 C   0  0  0  0  0  0
  -25.9137  -32.4726   23.8284 C   0  0  1  0  0  0
  -27.2234  -27.2496   20.1284 C   0  0  0  0  0  0
  -25.5932  -33.8529   24.2223 N   0  0  0  0  0  0
  -23.4291  -30.4710   21.5363 C   0  0  2  0  0  0
  -24.8759  -28.9099   20.1044 C   0  0  0  0  0  0
  -22.7498  -29.4567   22.4883 C   0  0  0  0  0  0
  -18.0293  -28.1393   22.8470 C   0  0  0  0  0  0
  -24.1493  -36.7279   23.2642 C   0  0  0  0  0  0
  -25.9727  -30.7602   21.3718 C   0  0  0  0  0  0
  -26.0425  -29.3793   20.7181 C   0  0  0  0  0  0
  -27.2128  -28.5570   20.7240 C   0  0  0  0  0  0
  -26.0353  -26.8405   19.4873 C   0  0  0  0  0  0
  -24.8774  -27.6500   19.4794 C   0  0  0  0  0  0
  -23.6467  -29.8004   20.1524 C   0  0  0  0  0  0
  -25.4117  -36.3056   24.0329 C   0  0  1  0  0  0
  -20.5899  -28.3695   23.1276 C   0  0  2  0  0  0
  -20.6786  -26.9408   22.5424 C   0  0  0  0  0  0
  -19.5766  -26.6383   21.5224 C   0  0  0  0  0  0
  -18.1935  -26.7934   22.1617 C   0  0  0  0  0  0
  -19.1550  -28.8854   23.2867 C   0  0  0  0  0  0
  -18.9475  -30.1454   23.8885 C   0  0  0  0  0  0
  -17.6474  -30.6586   24.0557 C   0  0  0  0  0  0
  -25.9062  -34.9425   23.5087 C   0  0  0  0  0  0
  -16.5360  -29.9085   23.6337 C   0  0  0  0  0  0
  -16.7282  -28.6515   23.0339 C   0  0  0  0  0  0
  -26.4522  -31.6552   25.0669 C   0  0  0  0  0  0
  -25.3764  -31.3691   26.1406 C   0  0  0  0  0  0
  -27.0373  -30.2977   24.6132 C   0  0  0  0  0  0
  -27.6071  -32.4291   25.7444 C   0  0  0  0  0  0
  -27.5583  -37.1778   24.8461 C   0  0  0  0  0  0
  -21.4204  -29.3028   22.3639 N   0  0  0  0  0  0
  -26.4278  -37.3761   23.9426 N   0  0  0  0  0  0
  -24.6973  -31.0457   22.0915 N   0  0  0  0  0  0
  -23.4187  -28.8115   23.2998 O   0  0  0  0  0  0
  -28.3414  -26.3914   20.2324 O   0  0  0  0  0  0
  -26.5637  -34.8912   22.4657 O   0  0  0  0  0  0
  -23.5475  -32.1306   23.7253 O   0  0  0  0  0  0
  -31.9747  -19.0896   20.0961 C   0  0  0  0  0  0
  -31.0592  -20.1498   20.1381 C   0  0  0  0  0  0
  -31.5651  -17.7580   20.2718 C   0  0  0  0  0  0
  -29.2571  -18.5280   20.5221 C   0  0  0  0  0  0
  -29.6843  -19.9364   20.3658 C   0  0  0  0  0  0
  -30.2101  -17.3948   20.4775 C   0  0  0  0  0  0
  -28.7330  -22.2513   19.6340 C   0  0  0  0  0  0
  -27.8139  -18.2111   20.7578 C   0  0  0  0  0  0
  -28.5421  -23.3098   21.7095 C   0  0  0  0  0  0
  -28.6113  -21.7575   21.8521 C   0  0  0  0  0  0
  -28.1319  -23.5821   20.2588 C   0  0  1  0  0  0
  -26.7617  -19.0947   20.1000 C   0  0  0  0  0  0
  -28.4900  -25.0326   19.5991 C   0  0  0  0  0  0
  -28.9052  -21.2074   20.5251 N   0  0  0  0  0  0
  -29.8789  -15.9279   20.6263 N   0  0  0  0  0  0
  -28.9845  -22.1723   18.4284 O   0  0  0  0  0  0
  -27.4324  -17.2203   21.3873 O   0  0  0  0  0  0
  -31.4644  -12.5680   19.1731 H   0  0  0  0  0  0
  -30.3596  -11.4906   19.9728 H   0  0  0  0  0  0
  -29.7879  -11.7225   17.5315 H   0  0  0  0  0  0
  -29.6340  -13.4522   17.7134 H   0  0  0  0  0  0
  -27.8867  -11.2865   18.9185 H   0  0  0  0  0  0
  -27.3753  -12.5228   17.8026 H   0  0  0  0  0  0
  -27.6217  -14.2598   19.4641 H   0  0  0  0  0  0
  -28.7200  -12.2026   21.4403 H   0  0  0  0  0  0
  -28.4176  -13.8881   21.7842 H   0  0  0  0  0  0
  -25.2767   -9.5678   22.4752 H   0  0  0  0  0  0
  -23.9997   -7.4632   22.7478 H   0  0  0  0  0  0
  -21.0843   -8.8761   19.8948 H   0  0  0  0  0  0
  -22.3701  -10.9655   19.6148 H   0  0  0  0  0  0
  -21.2000   -7.6144   23.9716 H   0  0  0  0  0  0
  -21.1485   -6.0518   25.9076 H   0  0  0  0  0  0
  -22.0600   -2.7610   23.2840 H   0  0  0  0  0  0
  -22.4044  -11.9804   22.4736 H   0  0  0  0  0  0
  -21.1064  -13.1205   22.2621 H   0  0  0  0  0  0
  -24.6638  -15.8232   20.6992 H   0  0  0  0  0  0
  -26.3186  -15.6461   20.4665 H   0  0  0  0  0  0
  -26.7181  -32.5375   23.0999 H   0  0  0  0  0  0
  -25.0099  -33.9659   25.0387 H   0  0  0  0  0  0
  -22.7275  -31.2938   21.3870 H   0  0  0  0  0  0
  -23.3767  -35.9605   23.3285 H   0  0  0  0  0  0
  -24.3595  -36.8929   22.2063 H   0  0  0  0  0  0
  -23.7244  -37.6470   23.6684 H   0  0  0  0  0  0
  -26.1052  -31.5159   20.5962 H   0  0  0  0  0  0
  -26.8536  -30.8156   21.9991 H   0  0  0  0  0  0
  -28.1037  -28.9064   21.2260 H   0  0  0  0  0  0
  -25.9761  -25.8688   19.0184 H   0  0  0  0  0  0
  -23.9811  -27.2859   18.9966 H   0  0  0  0  0  0
  -23.7745  -30.5755   19.3965 H   0  0  0  0  0  0
  -22.7632  -29.2378   19.8448 H   0  0  0  0  0  0
  -25.1297  -36.1878   25.0822 H   0  0  0  0  0  0
  -20.9991  -28.3293   24.1400 H   0  0  0  0  0  0
  -20.5710  -26.2292   23.3626 H   0  0  0  0  0  0
  -21.6647  -26.7439   22.1195 H   0  0  0  0  0  0
  -19.6937  -25.6303   21.1237 H   0  0  0  0  0  0
  -19.6726  -27.3207   20.6769 H   0  0  0  0  0  0
  -17.4213  -26.6688   21.4008 H   0  0  0  0  0  0
  -18.0307  -26.0088   22.9019 H   0  0  0  0  0  0
  -19.7952  -30.7265   24.2243 H   0  0  0  0  0  0
  -17.5035  -31.6266   24.5159 H   0  0  0  0  0  0
  -15.5356  -30.2977   23.7683 H   0  0  0  0  0  0
  -15.8682  -28.0836   22.7042 H   0  0  0  0  0  0
  -24.5968  -30.6996   25.7757 H   0  0  0  0  0  0
  -24.8927  -32.2848   26.4803 H   0  0  0  0  0  0
  -25.8119  -30.8905   27.0190 H   0  0  0  0  0  0
  -26.2928  -29.6693   24.1224 H   0  0  0  0  0  0
  -27.4159  -29.7257   25.4618 H   0  0  0  0  0  0
  -27.8764  -30.4274   23.9295 H   0  0  0  0  0  0
  -27.2694  -33.3629   26.1948 H   0  0  0  0  0  0
  -28.3924  -32.6771   25.0293 H   0  0  0  0  0  0
  -28.0679  -31.8441   26.5415 H   0  0  0  0  0  0
  -28.2553  -38.0113   24.7544 H   0  0  0  0  0  0
  -28.1113  -36.2643   24.6227 H   0  0  0  0  0  0
  -27.2304  -37.1356   25.8859 H   0  0  0  0  0  0
  -20.9380  -29.8747   21.6844 H   0  0  0  0  0  0
  -26.0157  -38.2828   24.1464 H   0  0  0  0  0  0
  -33.0240  -19.3027   19.9416 H   0  0  0  0  0  0
  -31.4398  -21.1570   20.0304 H   0  0  0  0  0  0
  -32.3541  -17.0262   20.2452 H   0  0  0  0  0  0
  -29.5221  -23.7472   21.9004 H   0  0  0  0  0  0
  -27.8454  -23.7521   22.4215 H   0  0  0  0  0  0
  -27.6511  -21.3655   22.1886 H   0  0  0  0  0  0
  -29.3607  -21.4600   22.5874 H   0  0  0  0  0  0
  -27.0486  -23.4684   20.2002 H   0  0  0  0  0  0
  -27.1423  -19.5195   19.1716 H   0  0  0  0  0  0
  -26.4650  -19.8999   20.7697 H   0  0  0  0  0  0
  -25.8762  -18.5049   19.8658 H   0  0  0  0  0  0
  -28.0325  -25.0727   18.6101 H   0  0  0  0  0  0
  -29.5556  -24.9833   19.3734 H   0  0  0  0  0  0
  -28.9107  -15.7453   20.8543 H   0  0  0  0  0  0
  1 25  1  0  0  0
  1 30  2  0  0  0
  1 85  1  0  0  0
  2  3  1  0  0  0
  2 25  1  0  0  0
  2 88  1  0  0  0
  2 89  1  0  0  0
  3  4  1  0  0  0
  3 90  1  0  0  0
  3 91  1  0  0  0
  4  5  1  0  0  0
  4 92  1  0  0  0
  4 93  1  0  0  0
  5  6  1  0  0  0
  5 26  1  0  0  0
  5 94  1  0  0  0
  6 25  1  0  0  0
  6 95  1  0  0  0
  6 96  1  0  0  0
  7  8  2  0  0  0
  7 26  1  0  0  0
  7 29  1  0  0  0
  8  9  1  0  0  0
  8 22  1  0  0  0
  9 10  1  0  0  0
  9 27  2  0  0  0
 10 11  2  0  0  0
 10 15  1  0  0  0
 11 12  1  0  0  0
 11 97  1  0  0  0
 12 13  2  0  0  0
 12 98  1  0  0  0
 13 14  1  0  0  0
 13 31  1  0  0  0
 14 15  2  0  0  0
 14 99  1  0  0  0
 15100  1  0  0  0
 16 17  2  0  0  0
 16 21  1  0  0  0
 16 31  1  0  0  0
 17 18  1  0  0  0
 17101  1  0  0  0
 18 19  2  0  0  0
 18102  1  0  0  0
 19 20  1  0  0  0
 19 24  1  0  0  0
 20 21  2  0  0  0
 20103  1  0  0  0
 21 23  1  0  0  0
 22 28  1  0  0  0
 22 32  2  0  0  0
 26 27  1  0  0  0
 28104  1  0  0  0
 28105  1  0  0  0
 29106  1  0  0  0
 29107  1  0  0  0
 33 34  1  0  0  0
 33 66  1  0  0  0
 33 70  2  0  0  0
 34 36  1  0  0  0
 34 59  1  0  0  0
 34108  1  0  0  0
 35 44  2  0  0  0
 35 45  1  0  0  0
 35 68  1  0  0  0
 36 56  1  0  0  0
 36109  1  0  0  0
 37 39  1  0  0  0
 37 47  1  0  0  0
 37 66  1  0  0  0
 37110  1  0  0  0
 38 43  2  0  0  0
 38 46  1  0  0  0
 38 47  1  0  0  0
 39 64  1  0  0  0
 39 67  2  0  0  0
 40 52  1  0  0  0
 40 53  2  0  0  0
 40 58  1  0  0  0
 41111  1  0  0  0
 41112  1  0  0  0
 41113  1  0  0  0
 41 48  1  0  0  0
 42 43  1  0  0  0
 42 66  1  0  0  0
 42114  1  0  0  0
 42115  1  0  0  0
 43 44  1  0  0  0
 44116  1  0  0  0
 45 46  2  0  0  0
 45117  1  0  0  0
 46118  1  0  0  0
 47119  1  0  0  0
 47120  1  0  0  0
 48 56  1  0  0  0
 48 65  1  0  0  0
 48121  1  0  0  0
 49 50  1  0  0  0
 49 53  1  0  0  0
 49 64  1  0  0  0
 49122  1  0  0  0
 50 51  1  0  0  0
 50123  1  0  0  0
 50124  1  0  0  0
 51 52  1  0  0  0
 51125  1  0  0  0
 51126  1  0  0  0
 52127  1  0  0  0
 52128  1  0  0  0
 53 54  1  0  0  0
 54 55  2  0  0  0
 54129  1  0  0  0
 55 57  1  0  0  0
 55130  1  0  0  0
 56 69  2  0  0  0
 57 58  2  0  0  0
 57131  1  0  0  0
 58132  1  0  0  0
 59 60  1  0  0  0
 59 61  1  0  0  0
 59 62  1  0  0  0
 60133  1  0  0  0
 60134  1  0  0  0
 60135  1  0  0  0
 61136  1  0  0  0
 61137  1  0  0  0
 61138  1  0  0  0
 62139  1  0  0  0
 62140  1  0  0  0
 62141  1  0  0  0
 63 65  1  0  0  0
 63142  1  0  0  0
 63143  1  0  0  0
 63144  1  0  0  0
 64145  1  0  0  0
 65146  1  0  0  0
 68 83  1  0  0  0
 71 72  2  0  0  0
 71 73  1  0  0  0
 71147  1  0  0  0
 72 75  1  0  0  0
 72148  1  0  0  0
 73 76  2  0  0  0
 73149  1  0  0  0
 74 75  2  0  0  0
 74 76  1  0  0  0
 74 78  1  0  0  0
 75 84  1  0  0  0
 76 85  1  0  0  0
 77 81  1  0  0  0
 77 84  1  0  0  0
 77 86  2  0  0  0
 78 82  1  0  0  0
 78 87  2  0  0  0
 79 80  1  0  0  0
 79 81  1  0  0  0
 79150  1  0  0  0
 79151  1  0  0  0
 80 84  1  0  0  0
 80152  1  0  0  0
 80153  1  0  0  0
 81 83  1  0  0  0
 81154  1  0  0  0
 82155  1  0  0  0
 82156  1  0  0  0
 82157  1  0  0  0
 83158  1  0  0  0
 83159  1  0  0  0
 85160  1  0  0  0
M  ISO  4   1 100  68 101  83 101  85 100
M  END
> <chiral flag>
0

> <version>
0

> <s_m_source_file>
/data/baiqing/PycharmProjects/Reinvent-master-3.2/result/LINK_invent/BTK/process_docking_weight1_custom_product_contain_oxygen_bond_distance_aromatic_linkinvent_7_9_3/rearranged_h_0062.sdf

> <i_m_source_file_index>
9

> <r_mmod_Potential_Energy-OPLS-2005>
394.391967773438

> <r_mmod_Stretch_Energy-OPLS-2005>
146.797653198242

> <r_mmod_Bend_Energy-OPLS-2005>
229.754516601562

> <r_mmod_Torsional_Energy-OPLS-2005>
316.966156005859

> <r_mmod_Improper_Torsional_Energy-OPLS-2005>
8.06794548034668

> <r_mmod_Van_der_Waal_Energy-OPLS-2005>
134.816711425781

> <r_mmod_Electrostatic_Energy-OPLS-2005>
-317.488342285156

> <r_mmod_Solvation_Energy-OPLS-2005>
-215.360015869141

> <b_mmod_Minimization_Converged-OPLS-2005>
0

> <r_mmod_RMS_Derivative-OPLS-2005>
1.59709489345551

$$$$
9
                    3D
 Structure written by MMmdl.
168177  0  0  1  0            999 V2000
  -30.7106  -14.4413   20.5832 C   0  0  0  0  0  0
  -30.4367  -12.2959   19.4131 C   0  0  0  0  0  0
  -29.5032  -12.5085   18.2019 C   0  0  0  0  0  0
  -28.0244  -12.3661   18.6131 C   0  0  0  0  0  0
  -27.6685  -13.1953   19.8755 C   0  0  2  0  0  0
  -28.7091  -12.9572   20.9954 C   0  0  0  0  0  0
  -25.2625  -13.8134   20.5661 C   0  0  0  0  0  0
  -24.1844  -13.0414   20.9103 C   0  0  0  0  0  0
  -24.6376  -11.6879   20.8658 C   0  0  0  0  0  0
  -23.9050  -10.4276   21.0360 C   0  0  0  0  0  0
  -24.3615   -9.4210   21.9151 C   0  0  0  0  0  0
  -23.6291   -8.2239   22.0747 C   0  0  0  0  0  0
  -22.4267   -8.0263   21.3546 C   0  0  0  0  0  0
  -21.9899   -9.0238   20.4649 C   0  0  0  0  0  0
  -22.7217  -10.2116   20.3042 C   0  0  0  0  0  0
  -21.6848   -6.0720   22.5288 C   0  0  0  0  0  0
  -21.3998   -6.5619   23.8216 C   0  0  0  0  0  0
  -21.3670   -5.6767   24.9170 C   0  0  0  0  0  0
  -21.6047   -4.3029   24.7224 C   0  0  0  0  0  0
  -21.8827   -3.8139   23.4335 C   0  0  0  0  0  0
  -21.9191   -4.6954   22.3392 C   0  0  0  0  0  0
  -22.7877  -13.5230   21.1768 C   0  0  0  0  0  0
  -22.1663   -4.2137   21.0965 F   0  0  0  0  0  0
  -21.5654   -3.4517   25.7734 F   0  0  0  0  0  0
  -30.0507  -13.2581   20.4568 N   0  0  0  0  0  0
  -26.3058  -12.9278   20.3333 N   0  0  0  0  0  0
  -25.9300  -11.6452   20.5689 N   0  0  0  0  0  0
  -22.0505  -12.8284   22.0358 N   0  0  0  0  0  0
  -25.4373  -15.1854   20.4172 N   0  0  0  0  0  0
  -31.8080  -14.6669   20.0636 O   0  0  0  0  0  0
  -21.6633   -6.8865   21.4245 O   0  0  0  0  0  0
  -22.3573  -14.5543   20.6612 O   0  0  0  0  0  0
  -24.6154  -31.8675   23.2107 C   0  0  0  0  0  0
  -25.9047  -32.4824   23.8401 C   0  0  1  0  0  0
  -27.2541  -27.4717   20.0863 C   0  0  0  0  0  0
  -25.5908  -33.8610   24.2348 N   0  0  0  0  0  0
  -23.4051  -30.4888   21.5471 C   0  0  2  0  0  0
  -24.8590  -28.9571   20.1145 C   0  0  0  0  0  0
  -22.7428  -29.4656   22.4978 C   0  0  0  0  0  0
  -18.0283  -28.1382   22.8486 C   0  0  0  0  0  0
  -24.1486  -36.7304   23.2638 C   0  0  0  0  0  0
  -25.9293  -30.8478   21.3573 C   0  0  0  0  0  0
  -26.0161  -29.4839   20.7055 C   0  0  0  0  0  0
  -27.2205  -28.7471   20.6903 C   0  0  0  0  0  0
  -26.0808  -26.9447   19.5111 C   0  0  0  0  0  0
  -24.8826  -27.6841   19.5160 C   0  0  0  0  0  0
  -23.6177  -29.8192   20.1615 C   0  0  0  0  0  0
  -25.4109  -36.3107   24.0346 C   0  0  1  0  0  0
  -20.5875  -28.3674   23.1316 C   0  0  2  0  0  0
  -20.6783  -26.9411   22.5421 C   0  0  0  0  0  0
  -19.5757  -26.6397   21.5213 C   0  0  0  0  0  0
  -18.1930  -26.7940   22.1617 C   0  0  0  0  0  0
  -19.1538  -28.8844   23.2898 C   0  0  0  0  0  0
  -18.9468  -30.1450   23.8910 C   0  0  0  0  0  0
  -17.6472  -30.6584   24.0569 C   0  0  0  0  0  0
  -25.9031  -34.9468   23.5143 C   0  0  0  0  0  0
  -16.5364  -29.9106   23.6306 C   0  0  0  0  0  0
  -16.7271  -28.6520   23.0335 C   0  0  0  0  0  0
  -26.4501  -31.6592   25.0695 C   0  0  0  0  0  0
  -25.3796  -31.3698   26.1458 C   0  0  0  0  0  0
  -27.0306  -30.3042   24.6025 C   0  0  0  0  0  0
  -27.6078  -32.4305   25.7451 C   0  0  0  0  0  0
  -27.5588  -37.1802   24.8468 C   0  0  0  0  0  0
  -21.4151  -29.3032   22.3721 N   0  0  0  0  0  0
  -26.4295  -37.3800   23.9422 N   0  0  0  0  0  0
  -24.6673  -31.0807   22.0977 N   0  0  0  0  0  0
  -23.4193  -28.8199   23.3019 O   0  0  0  0  0  0
  -28.3813  -26.6927   20.0883 O   0  0  0  0  0  0
  -26.5576  -34.8918   22.4687 O   0  0  0  0  0  0
  -23.5339  -32.1374   23.7512 O   0  0  0  0  0  0
  -29.7193  -19.1292   20.8862 C   0  0  0  0  0  0
  -30.0954  -17.8662   21.3972 C   0  0  0  0  0  0
  -29.1274  -16.8051   19.4370 C   0  0  0  0  0  0
  -28.7367  -18.0615   18.9311 C   0  0  0  0  0  0
  -29.0097  -19.2389   19.6657 C   0  0  0  0  0  0
  -29.7891  -16.6908   20.6802 C   0  0  0  0  0  0
  -28.0664  -18.1323   17.6323 C   0  0  0  0  0  0
  -26.9968  -17.3715   17.3380 C   0  0  0  0  0  0
  -29.7205  -23.5177   18.5633 C   0  0  0  0  0  0
  -28.4444  -20.5993   19.2242 C   0  0  0  0  0  0
  -28.7650  -18.9795   16.5909 C   0  0  0  0  0  0
  -28.4732  -20.4827   16.7214 C   0  0  0  0  0  0
  -28.7201  -22.6242   17.8292 C   0  0  0  0  0  0
  -30.3559  -25.9138   18.9770 C   0  0  0  0  0  0
  -29.4456  -27.1274   19.2551 C   0  0  0  0  0  0
  -30.0487  -15.4065   21.2363 N   0  0  0  0  0  0
  -29.5898  -24.8352   18.3516 N   0  0  0  0  0  0
  -28.9834  -21.1590   17.9505 N   0  3  1  0  0  0
  -30.5835  -23.0297   19.2953 O   0  0  0  0  0  0
  -31.4807  -12.4014   19.1104 H   0  0  0  0  0  0
  -30.3487  -11.2770   19.7898 H   0  0  0  0  0  0
  -29.7425  -11.7886   17.4173 H   0  0  0  0  0  0
  -29.6721  -13.4967   17.7698 H   0  0  0  0  0  0
  -27.8397  -11.3089   18.8072 H   0  0  0  0  0  0
  -27.3762  -12.6457   17.7812 H   0  0  0  0  0  0
  -27.7143  -14.2429   19.5890 H   0  0  0  0  0  0
  -28.6755  -11.9172   21.3207 H   0  0  0  0  0  0
  -28.4674  -13.5423   21.8831 H   0  0  0  0  0  0
  -25.2772   -9.5690   22.4701 H   0  0  0  0  0  0
  -24.0013   -7.4646   22.7470 H   0  0  0  0  0  0
  -21.0838   -8.8763   19.8964 H   0  0  0  0  0  0
  -22.3692  -10.9648   19.6143 H   0  0  0  0  0  0
  -21.1980   -7.6121   23.9730 H   0  0  0  0  0  0
  -21.1483   -6.0473   25.9071 H   0  0  0  0  0  0
  -22.0604   -2.7605   23.2830 H   0  0  0  0  0  0
  -22.4131  -11.9966   22.4794 H   0  0  0  0  0  0
  -21.1122  -13.1351   22.2519 H   0  0  0  0  0  0
  -24.6798  -15.8414   20.5735 H   0  0  0  0  0  0
  -26.3129  -15.6399   20.1979 H   0  0  0  0  0  0
  -26.7125  -32.5582   23.1180 H   0  0  0  0  0  0
  -25.0080  -33.9762   25.0511 H   0  0  0  0  0  0
  -22.6925  -31.3045   21.4069 H   0  0  0  0  0  0
  -23.3737  -35.9648   23.3297 H   0  0  0  0  0  0
  -24.3572  -36.8897   22.2049 H   0  0  0  0  0  0
  -23.7246  -37.6513   23.6633 H   0  0  0  0  0  0
  -26.0331  -31.6206   20.5937 H   0  0  0  0  0  0
  -26.8195  -30.9059   21.9703 H   0  0  0  0  0  0
  -28.1133  -29.1462   21.1519 H   0  0  0  0  0  0
  -26.1024  -25.9620   19.0618 H   0  0  0  0  0  0
  -23.9919  -27.2690   19.0647 H   0  0  0  0  0  0
  -23.7341  -30.5918   19.4019 H   0  0  0  0  0  0
  -22.7449  -29.2374   19.8605 H   0  0  0  0  0  0
  -25.1289  -36.1962   25.0845 H   0  0  0  0  0  0
  -20.9968  -28.3255   24.1439 H   0  0  0  0  0  0
  -20.5690  -26.2284   23.3607 H   0  0  0  0  0  0
  -21.6662  -26.7465   22.1216 H   0  0  0  0  0  0
  -19.6911  -25.6318   21.1211 H   0  0  0  0  0  0
  -19.6700  -27.3235   20.6764 H   0  0  0  0  0  0
  -17.4214  -26.6687   21.4002 H   0  0  0  0  0  0
  -18.0317  -26.0100   22.9030 H   0  0  0  0  0  0
  -19.7950  -30.7256   24.2286 H   0  0  0  0  0  0
  -17.5036  -31.6258   24.5202 H   0  0  0  0  0  0
  -15.5367  -30.3025   23.7607 H   0  0  0  0  0  0
  -15.8668  -28.0841   22.7040 H   0  0  0  0  0  0
  -24.5970  -30.7033   25.7817 H   0  0  0  0  0  0
  -24.8991  -32.2854   26.4910 H   0  0  0  0  0  0
  -25.8189  -30.8876   27.0199 H   0  0  0  0  0  0
  -26.2795  -29.6796   24.1165 H   0  0  0  0  0  0
  -27.4184  -29.7293   25.4444 H   0  0  0  0  0  0
  -27.8602  -30.4358   23.9070 H   0  0  0  0  0  0
  -27.2689  -33.3592   26.2057 H   0  0  0  0  0  0
  -28.3877  -32.6883   25.0271 H   0  0  0  0  0  0
  -28.0757  -31.8408   26.5338 H   0  0  0  0  0  0
  -28.2621  -38.0087   24.7515 H   0  0  0  0  0  0
  -28.1069  -36.2617   24.6301 H   0  0  0  0  0  0
  -27.2294  -37.1474   25.8867 H   0  0  0  0  0  0
  -20.9308  -29.8777   21.6962 H   0  0  0  0  0  0
  -26.0168  -38.2868   24.1445 H   0  0  0  0  0  0
  -29.9374  -20.0151   21.4663 H   0  0  0  0  0  0
  -30.6006  -17.8102   22.3530 H   0  0  0  0  0  0
  -28.9025  -15.9235   18.8572 H   0  0  0  0  0  0
  -26.5408  -16.7224   18.0731 H   0  0  0  0  0  0
  -26.5448  -17.3916   16.3564 H   0  0  0  0  0  0
  -28.6357  -21.3061   20.0310 H   0  0  0  0  0  0
  -27.3573  -20.5296   19.1576 H   0  0  0  0  0  0
  -28.4184  -18.6634   15.6056 H   0  0  0  0  0  0
  -29.8355  -18.7769   16.6086 H   0  0  0  0  0  0
  -27.3977  -20.6490   16.6434 H   0  0  0  0  0  0
  -28.9157  -20.9628   15.8483 H   0  0  0  0  0  0
  -28.7759  -22.9317   16.7840 H   0  0  0  0  0  0
  -27.7054  -22.8585   18.1549 H   0  0  0  0  0  0
  -30.8214  -25.5759   19.9052 H   0  0  0  0  0  0
  -31.1646  -26.2075   18.3072 H   0  0  0  0  0  0
  -29.0623  -27.5323   18.3165 H   0  0  0  0  0  0
  -30.0088  -27.9222   19.7475 H   0  0  0  0  0  0
  -29.3097  -15.0524   21.8252 H   0  0  0  0  0  0
  -28.8564  -25.1283   17.7210 H   0  0  0  0  0  0
  -29.9879  -21.0689   17.9858 H   0  0  0  0  0  0
  1 25  1  0  0  0
  1 30  2  0  0  0
  1 86  1  0  0  0
  2  3  1  0  0  0
  2 25  1  0  0  0
  2 90  1  0  0  0
  2 91  1  0  0  0
  3  4  1  0  0  0
  3 92  1  0  0  0
  3 93  1  0  0  0
  4  5  1  0  0  0
  4 94  1  0  0  0
  4 95  1  0  0  0
  5  6  1  0  0  0
  5 26  1  0  0  0
  5 96  1  0  0  0
  6 25  1  0  0  0
  6 97  1  0  0  0
  6 98  1  0  0  0
  7  8  2  0  0  0
  7 26  1  0  0  0
  7 29  1  0  0  0
  8  9  1  0  0  0
  8 22  1  0  0  0
  9 10  1  0  0  0
  9 27  2  0  0  0
 10 11  2  0  0  0
 10 15  1  0  0  0
 11 12  1  0  0  0
 11 99  1  0  0  0
 12 13  2  0  0  0
 12100  1  0  0  0
 13 14  1  0  0  0
 13 31  1  0  0  0
 14 15  2  0  0  0
 14101  1  0  0  0
 15102  1  0  0  0
 16 17  2  0  0  0
 16 21  1  0  0  0
 16 31  1  0  0  0
 17 18  1  0  0  0
 17103  1  0  0  0
 18 19  2  0  0  0
 18104  1  0  0  0
 19 20  1  0  0  0
 19 24  1  0  0  0
 20 21  2  0  0  0
 20105  1  0  0  0
 21 23  1  0  0  0
 22 28  1  0  0  0
 22 32  2  0  0  0
 26 27  1  0  0  0
 28106  1  0  0  0
 28107  1  0  0  0
 29108  1  0  0  0
 29109  1  0  0  0
 33 34  1  0  0  0
 33 66  1  0  0  0
 33 70  2  0  0  0
 34 36  1  0  0  0
 34 59  1  0  0  0
 34110  1  0  0  0
 35 44  2  0  0  0
 35 45  1  0  0  0
 35 68  1  0  0  0
 36 56  1  0  0  0
 36111  1  0  0  0
 37 39  1  0  0  0
 37 47  1  0  0  0
 37 66  1  0  0  0
 37112  1  0  0  0
 38 43  2  0  0  0
 38 46  1  0  0  0
 38 47  1  0  0  0
 39 64  1  0  0  0
 39 67  2  0  0  0
 40 52  1  0  0  0
 40 53  2  0  0  0
 40 58  1  0  0  0
 41113  1  0  0  0
 41114  1  0  0  0
 41115  1  0  0  0
 41 48  1  0  0  0
 42 43  1  0  0  0
 42 66  1  0  0  0
 42116  1  0  0  0
 42117  1  0  0  0
 43 44  1  0  0  0
 44118  1  0  0  0
 45 46  2  0  0  0
 45119  1  0  0  0
 46120  1  0  0  0
 47121  1  0  0  0
 47122  1  0  0  0
 48 56  1  0  0  0
 48 65  1  0  0  0
 48123  1  0  0  0
 49 50  1  0  0  0
 49 53  1  0  0  0
 49 64  1  0  0  0
 49124  1  0  0  0
 50 51  1  0  0  0
 50125  1  0  0  0
 50126  1  0  0  0
 51 52  1  0  0  0
 51127  1  0  0  0
 51128  1  0  0  0
 52129  1  0  0  0
 52130  1  0  0  0
 53 54  1  0  0  0
 54 55  2  0  0  0
 54131  1  0  0  0
 55 57  1  0  0  0
 55132  1  0  0  0
 56 69  2  0  0  0
 57 58  2  0  0  0
 57133  1  0  0  0
 58134  1  0  0  0
 59 60  1  0  0  0
 59 61  1  0  0  0
 59 62  1  0  0  0
 60135  1  0  0  0
 60136  1  0  0  0
 60137  1  0  0  0
 61138  1  0  0  0
 61139  1  0  0  0
 61140  1  0  0  0
 62141  1  0  0  0
 62142  1  0  0  0
 62143  1  0  0  0
 63 65  1  0  0  0
 63144  1  0  0  0
 63145  1  0  0  0
 63146  1  0  0  0
 64147  1  0  0  0
 65148  1  0  0  0
 68 85  1  0  0  0
 71 72  2  0  0  0
 71 75  1  0  0  0
 71149  1  0  0  0
 72 76  1  0  0  0
 72150  1  0  0  0
 73 74  1  0  0  0
 73 76  2  0  0  0
 73151  1  0  0  0
 74 75  2  0  0  0
 74 77  1  0  0  0
 75 80  1  0  0  0
 76 86  1  0  0  0
 77 78  2  0  0  0
 77 81  1  0  0  0
 78152  1  0  0  0
 78153  1  0  0  0
 79 83  1  0  0  0
 79 87  1  0  0  0
 79 89  2  0  0  0
 80 88  1  0  0  0
 80154  1  0  0  0
 80155  1  0  0  0
 81 82  1  0  0  0
 81156  1  0  0  0
 81157  1  0  0  0
 82 88  1  0  0  0
 82158  1  0  0  0
 82159  1  0  0  0
 83160  1  0  0  0
 83161  1  0  0  0
 83 88  1  0  0  0
 84 85  1  0  0  0
 84 87  1  0  0  0
 84162  1  0  0  0
 84163  1  0  0  0
 85164  1  0  0  0
 85165  1  0  0  0
 86166  1  0  0  0
 87167  1  0  0  0
 88168  1  0  0  0
M  CHG  1  88   1
M  ISO  4   1 100  68 101  85 101  86 100
M  END
> <chiral flag>
0

> <version>
0

> <s_m_source_file>
/data/baiqing/PycharmProjects/Reinvent-master-3.2/result/LINK_invent/BTK/process_docking_weight1_custom_product_contain_oxygen_bond_distance_aromatic_linkinvent_7_9_3/rearranged_h_0062.sdf

> <i_m_source_file_index>
10

> <r_mmod_Potential_Energy-OPLS-2005>
-328.577392578125

> <r_mmod_Stretch_Energy-OPLS-2005>
35.8633766174316

> <r_mmod_Bend_Energy-OPLS-2005>
103.310668945312

> <r_mmod_Torsional_Energy-OPLS-2005>
288.043762207031

> <r_mmod_Improper_Torsional_Energy-OPLS-2005>
6.21691751480103

> <r_mmod_Van_der_Waal_Energy-OPLS-2005>
148.678268432617

> <r_mmod_Electrostatic_Energy-OPLS-2005>
-466.600738525391

> <r_mmod_Solvation_Energy-OPLS-2005>
-453.463317871094

> <b_mmod_Minimization_Converged-OPLS-2005>
0

> <r_mmod_RMS_Derivative-OPLS-2005>
3.46701622009277

$$$$
10
                    3D
 Structure written by MMmdl.
154162  0  0  1  0            999 V2000
  -30.7249  -14.4759   20.5726 C   0  0  0  0  0  0
  -30.4145  -12.3115   19.4256 C   0  0  0  0  0  0
  -29.4911  -12.4991   18.2062 C   0  0  0  0  0  0
  -28.0132  -12.3622   18.6199 C   0  0  0  0  0  0
  -27.6577  -13.2118   19.8695 C   0  0  2  0  0  0
  -28.7011  -13.0209   20.9936 C   0  0  0  0  0  0
  -25.2574  -13.8174   20.5682 C   0  0  0  0  0  0
  -24.1835  -13.0443   20.9185 C   0  0  0  0  0  0
  -24.6395  -11.6910   20.8736 C   0  0  0  0  0  0
  -23.9064  -10.4294   21.0409 C   0  0  0  0  0  0
  -24.3616   -9.4209   21.9188 C   0  0  0  0  0  0
  -23.6290   -8.2244   22.0755 C   0  0  0  0  0  0
  -22.4273   -8.0285   21.3545 C   0  0  0  0  0  0
  -21.9914   -9.0257   20.4644 C   0  0  0  0  0  0
  -22.7239  -10.2137   20.3055 C   0  0  0  0  0  0
  -21.6851   -6.0739   22.5279 C   0  0  0  0  0  0
  -21.4012   -6.5642   23.8213 C   0  0  0  0  0  0
  -21.3658   -5.6794   24.9175 C   0  0  0  0  0  0
  -21.6044   -4.3058   24.7225 C   0  0  0  0  0  0
  -21.8820   -3.8151   23.4346 C   0  0  0  0  0  0
  -21.9192   -4.6967   22.3402 C   0  0  0  0  0  0
  -22.7860  -13.5236   21.1854 C   0  0  0  0  0  0
  -22.1662   -4.2152   21.0979 F   0  0  0  0  0  0
  -21.5629   -3.4542   25.7737 F   0  0  0  0  0  0
  -30.0280  -13.3148   20.4309 N   0  0  0  0  0  0
  -26.3007  -12.9352   20.3352 N   0  0  0  0  0  0
  -25.9321  -11.6507   20.5765 N   0  0  0  0  0  0
  -22.0507  -12.8218   22.0405 N   0  0  0  0  0  0
  -25.4294  -15.1894   20.4081 N   0  0  0  0  0  0
  -31.8599  -14.6200   20.1097 O   0  0  0  0  0  0
  -21.6638   -6.8881   21.4241 O   0  0  0  0  0  0
  -22.3544  -14.5547   20.6708 O   0  0  0  0  0  0
  -24.6175  -31.8680   23.2113 C   0  0  0  0  0  0
  -25.9064  -32.4821   23.8408 C   0  0  1  0  0  0
  -27.2230  -27.4091   20.0931 C   0  0  0  0  0  0
  -25.5913  -33.8621   24.2336 N   0  0  0  0  0  0
  -23.4052  -30.4949   21.5532 C   0  0  2  0  0  0
  -24.8485  -28.9664   20.1110 C   0  0  0  0  0  0
  -22.7424  -29.4664   22.4984 C   0  0  0  0  0  0
  -18.0275  -28.1380   22.8497 C   0  0  0  0  0  0
  -24.1487  -36.7309   23.2641 C   0  0  0  0  0  0
  -25.9393  -30.8250   21.3705 C   0  0  0  0  0  0
  -26.0133  -29.4610   20.7110 C   0  0  0  0  0  0
  -27.2031  -28.6908   20.6988 C   0  0  0  0  0  0
  -26.0372  -26.9509   19.4672 C   0  0  0  0  0  0
  -24.8574  -27.7120   19.4846 C   0  0  0  0  0  0
  -23.6127  -29.8351   20.1657 C   0  0  0  0  0  0
  -25.4109  -36.3112   24.0339 C   0  0  1  0  0  0
  -20.5870  -28.3676   23.1310 C   0  0  2  0  0  0
  -20.6766  -26.9410   22.5414 C   0  0  0  0  0  0
  -19.5738  -26.6385   21.5215 C   0  0  0  0  0  0
  -18.1919  -26.7927   22.1626 C   0  0  0  0  0  0
  -19.1527  -28.8845   23.2898 C   0  0  0  0  0  0
  -18.9452  -30.1452   23.8905 C   0  0  0  0  0  0
  -17.6455  -30.6589   24.0564 C   0  0  0  0  0  0
  -25.9038  -34.9476   23.5132 C   0  0  0  0  0  0
  -16.5345  -29.9089   23.6330 C   0  0  0  0  0  0
  -16.7263  -28.6504   23.0355 C   0  0  0  0  0  0
  -26.4481  -31.6598   25.0740 C   0  0  0  0  0  0
  -25.3737  -31.3685   26.1473 C   0  0  0  0  0  0
  -27.0334  -30.3048   24.6131 C   0  0  0  0  0  0
  -27.6052  -32.4324   25.7505 C   0  0  0  0  0  0
  -27.5582  -37.1808   24.8468 C   0  0  0  0  0  0
  -21.4151  -29.3041   22.3718 N   0  0  0  0  0  0
  -26.4298  -37.3797   23.9409 N   0  0  0  0  0  0
  -24.6726  -31.0766   22.1027 N   0  0  0  0  0  0
  -23.4190  -28.8195   23.3023 O   0  0  0  0  0  0
  -28.3698  -26.6268   20.1398 O   0  0  0  0  0  0
  -26.5596  -34.8927   22.4690 O   0  0  0  0  0  0
  -23.5360  -32.1444   23.7492 O   0  0  0  0  0  0
  -32.3618  -18.2138   22.3260 C   0  0  0  0  0  0
  -31.6787  -19.3798   21.9369 C   0  0  0  0  0  0
  -31.8242  -16.9463   22.0475 C   0  0  0  0  0  0
  -29.8919  -18.0102   21.0063 C   0  0  0  0  0  0
  -30.4306  -19.3036   21.2693 C   0  0  0  0  0  0
  -30.5904  -16.8247   21.3706 C   0  0  0  0  0  0
  -29.9674  -21.7907   20.9767 C   0  0  0  0  0  0
  -28.9618  -22.7790   20.3497 C   0  0  0  0  0  0
  -29.2974  -24.2959   20.5163 C   0  0  0  0  0  0
  -28.1820  -25.2051   19.9495 C   0  0  0  0  0  0
  -29.6984  -20.4679   20.8360 N   0  0  0  0  0  0
  -30.0502  -15.5250   21.0947 N   0  0  0  0  0  0
  -30.9474  -22.2404   21.5735 O   0  0  0  0  0  0
  -31.4601  -12.3951   19.1240 H   0  0  0  0  0  0
  -30.3055  -11.3077   19.8391 H   0  0  0  0  0  0
  -29.7316  -11.7660   17.4350 H   0  0  0  0  0  0
  -29.6607  -13.4807   17.7602 H   0  0  0  0  0  0
  -27.8242  -11.3075   18.8235 H   0  0  0  0  0  0
  -27.3627  -12.6302   17.7866 H   0  0  0  0  0  0
  -27.6938  -14.2556   19.5566 H   0  0  0  0  0  0
  -28.6796  -11.9950   21.3645 H   0  0  0  0  0  0
  -28.4660  -13.6492   21.8540 H   0  0  0  0  0  0
  -25.2761   -9.5687   22.4761 H   0  0  0  0  0  0
  -24.0002   -7.4638   22.7476 H   0  0  0  0  0  0
  -21.0849   -8.8774   19.8947 H   0  0  0  0  0  0
  -22.3701  -10.9676   19.6161 H   0  0  0  0  0  0
  -21.2005   -7.6151   23.9716 H   0  0  0  0  0  0
  -21.1479   -6.0526   25.9077 H   0  0  0  0  0  0
  -22.0601   -2.7614   23.2844 H   0  0  0  0  0  0
  -22.4124  -11.9861   22.4760 H   0  0  0  0  0  0
  -21.1129  -13.1243   22.2632 H   0  0  0  0  0  0
  -24.6633  -15.8459   20.5134 H   0  0  0  0  0  0
  -26.2799  -15.6257   20.0751 H   0  0  0  0  0  0
  -26.7130  -32.5527   23.1167 H   0  0  0  0  0  0
  -25.0075  -33.9782   25.0487 H   0  0  0  0  0  0
  -22.6944  -31.3130   21.4179 H   0  0  0  0  0  0
  -23.3758  -35.9633   23.3305 H   0  0  0  0  0  0
  -24.3574  -36.8926   22.2053 H   0  0  0  0  0  0
  -23.7230  -37.6510   23.6655 H   0  0  0  0  0  0
  -26.0600  -31.5943   20.6063 H   0  0  0  0  0  0
  -26.8241  -30.8712   21.9935 H   0  0  0  0  0  0
  -28.0986  -29.0652   21.1752 H   0  0  0  0  0  0
  -25.9925  -25.9991   18.9587 H   0  0  0  0  0  0
  -23.9649  -27.3288   19.0090 H   0  0  0  0  0  0
  -23.7214  -30.6138   19.4097 H   0  0  0  0  0  0
  -22.7348  -29.2583   19.8690 H   0  0  0  0  0  0
  -25.1284  -36.1980   25.0833 H   0  0  0  0  0  0
  -20.9961  -28.3245   24.1430 H   0  0  0  0  0  0
  -20.5684  -26.2279   23.3602 H   0  0  0  0  0  0
  -21.6634  -26.7459   22.1197 H   0  0  0  0  0  0
  -19.6900  -25.6299   21.1235 H   0  0  0  0  0  0
  -19.6675  -27.3198   20.6749 H   0  0  0  0  0  0
  -17.4193  -26.6696   21.4021 H   0  0  0  0  0  0
  -18.0304  -26.0064   22.9015 H   0  0  0  0  0  0
  -19.7930  -30.7267   24.2272 H   0  0  0  0  0  0
  -17.5013  -31.6269   24.5168 H   0  0  0  0  0  0
  -15.5345  -30.2993   23.7650 H   0  0  0  0  0  0
  -15.8665  -28.0822   22.7066 H   0  0  0  0  0  0
  -24.5923  -30.7027   25.7791 H   0  0  0  0  0  0
  -24.8910  -32.2829   26.4934 H   0  0  0  0  0  0
  -25.8086  -30.8839   27.0225 H   0  0  0  0  0  0
  -26.2896  -29.6789   24.1192 H   0  0  0  0  0  0
  -27.4118  -29.7302   25.4596 H   0  0  0  0  0  0
  -27.8719  -30.4377   23.9290 H   0  0  0  0  0  0
  -27.2672  -33.3617   26.2105 H   0  0  0  0  0  0
  -28.3848  -32.6898   25.0322 H   0  0  0  0  0  0
  -28.0738  -31.8438   26.5402 H   0  0  0  0  0  0
  -28.2601  -38.0107   24.7534 H   0  0  0  0  0  0
  -28.1082  -36.2640   24.6284 H   0  0  0  0  0  0
  -27.2295  -37.1449   25.8870 H   0  0  0  0  0  0
  -20.9308  -29.8772   21.6950 H   0  0  0  0  0  0
  -26.0191  -38.2877   24.1413 H   0  0  0  0  0  0
  -33.3101  -18.2927   22.8387 H   0  0  0  0  0  0
  -32.1516  -20.3206   22.1691 H   0  0  0  0  0  0
  -32.3733  -16.0678   22.3580 H   0  0  0  0  0  0
  -28.9424  -17.9244   20.4971 H   0  0  0  0  0  0
  -27.9860  -22.5773   20.7934 H   0  0  0  0  0  0
  -28.8721  -22.5442   19.2886 H   0  0  0  0  0  0
  -30.2427  -24.5241   20.0228 H   0  0  0  0  0  0
  -29.4366  -24.5237   21.5737 H   0  0  0  0  0  0
  -27.2592  -24.8875   20.4387 H   0  0  0  0  0  0
  -28.0679  -25.0057   18.8828 H   0  0  0  0  0  0
  -28.8428  -20.2730   20.3335 H   0  0  0  0  0  0
  -29.0649  -15.3863   21.2601 H   0  0  0  0  0  0
  1 25  1  0  0  0
  1 30  2  0  0  0
  1 82  1  0  0  0
  2  3  1  0  0  0
  2 25  1  0  0  0
  2 84  1  0  0  0
  2 85  1  0  0  0
  3  4  1  0  0  0
  3 86  1  0  0  0
  3 87  1  0  0  0
  4  5  1  0  0  0
  4 88  1  0  0  0
  4 89  1  0  0  0
  5  6  1  0  0  0
  5 26  1  0  0  0
  5 90  1  0  0  0
  6 25  1  0  0  0
  6 91  1  0  0  0
  6 92  1  0  0  0
  7  8  2  0  0  0
  7 26  1  0  0  0
  7 29  1  0  0  0
  8  9  1  0  0  0
  8 22  1  0  0  0
  9 10  1  0  0  0
  9 27  2  0  0  0
 10 11  2  0  0  0
 10 15  1  0  0  0
 11 12  1  0  0  0
 11 93  1  0  0  0
 12 13  2  0  0  0
 12 94  1  0  0  0
 13 14  1  0  0  0
 13 31  1  0  0  0
 14 15  2  0  0  0
 14 95  1  0  0  0
 15 96  1  0  0  0
 16 17  2  0  0  0
 16 21  1  0  0  0
 16 31  1  0  0  0
 17 18  1  0  0  0
 17 97  1  0  0  0
 18 19  2  0  0  0
 18 98  1  0  0  0
 19 20  1  0  0  0
 19 24  1  0  0  0
 20 21  2  0  0  0
 20 99  1  0  0  0
 21 23  1  0  0  0
 22 28  1  0  0  0
 22 32  2  0  0  0
 26 27  1  0  0  0
 28100  1  0  0  0
 28101  1  0  0  0
 29102  1  0  0  0
 29103  1  0  0  0
 33 34  1  0  0  0
 33 66  1  0  0  0
 33 70  2  0  0  0
 34 36  1  0  0  0
 34 59  1  0  0  0
 34104  1  0  0  0
 35 44  2  0  0  0
 35 45  1  0  0  0
 35 68  1  0  0  0
 36 56  1  0  0  0
 36105  1  0  0  0
 37 39  1  0  0  0
 37 47  1  0  0  0
 37 66  1  0  0  0
 37106  1  0  0  0
 38 43  2  0  0  0
 38 46  1  0  0  0
 38 47  1  0  0  0
 39 64  1  0  0  0
 39 67  2  0  0  0
 40 52  1  0  0  0
 40 53  2  0  0  0
 40 58  1  0  0  0
 41107  1  0  0  0
 41108  1  0  0  0
 41109  1  0  0  0
 41 48  1  0  0  0
 42 43  1  0  0  0
 42 66  1  0  0  0
 42110  1  0  0  0
 42111  1  0  0  0
 43 44  1  0  0  0
 44112  1  0  0  0
 45 46  2  0  0  0
 45113  1  0  0  0
 46114  1  0  0  0
 47115  1  0  0  0
 47116  1  0  0  0
 48 56  1  0  0  0
 48 65  1  0  0  0
 48117  1  0  0  0
 49 50  1  0  0  0
 49 53  1  0  0  0
 49 64  1  0  0  0
 49118  1  0  0  0
 50 51  1  0  0  0
 50119  1  0  0  0
 50120  1  0  0  0
 51 52  1  0  0  0
 51121  1  0  0  0
 51122  1  0  0  0
 52123  1  0  0  0
 52124  1  0  0  0
 53 54  1  0  0  0
 54 55  2  0  0  0
 54125  1  0  0  0
 55 57  1  0  0  0
 55126  1  0  0  0
 56 69  2  0  0  0
 57 58  2  0  0  0
 57127  1  0  0  0
 58128  1  0  0  0
 59 60  1  0  0  0
 59 61  1  0  0  0
 59 62  1  0  0  0
 60129  1  0  0  0
 60130  1  0  0  0
 60131  1  0  0  0
 61132  1  0  0  0
 61133  1  0  0  0
 61134  1  0  0  0
 62135  1  0  0  0
 62136  1  0  0  0
 62137  1  0  0  0
 63 65  1  0  0  0
 63138  1  0  0  0
 63139  1  0  0  0
 63140  1  0  0  0
 64141  1  0  0  0
 65142  1  0  0  0
 68 80  1  0  0  0
 71 72  2  0  0  0
 71 73  1  0  0  0
 71143  1  0  0  0
 72 75  1  0  0  0
 72144  1  0  0  0
 73 76  2  0  0  0
 73145  1  0  0  0
 74 75  2  0  0  0
 74 76  1  0  0  0
 74146  1  0  0  0
 75 81  1  0  0  0
 76 82  1  0  0  0
 77 78  1  0  0  0
 77 81  1  0  0  0
 77 83  2  0  0  0
 78 79  1  0  0  0
 78147  1  0  0  0
 78148  1  0  0  0
 79 80  1  0  0  0
 79149  1  0  0  0
 79150  1  0  0  0
 80151  1  0  0  0
 80152  1  0  0  0
 81153  1  0  0  0
 82154  1  0  0  0
M  ISO  4   1 100  68 101  80 101  82 100
M  END
> <chiral flag>
0

> <version>
0

> <s_m_source_file>
/data/baiqing/PycharmProjects/Reinvent-master-3.2/result/LINK_invent/BTK/process_docking_weight1_custom_product_contain_oxygen_bond_distance_aromatic_linkinvent_7_9_3/rearranged_h_0062.sdf

> <i_m_source_file_index>
11

> <r_mmod_Potential_Energy-OPLS-2005>
-82.9036636352539

> <r_mmod_Stretch_Energy-OPLS-2005>
43.5146064758301

> <r_mmod_Bend_Energy-OPLS-2005>
102.434417724609

> <r_mmod_Torsional_Energy-OPLS-2005>
222.946380615234

> <r_mmod_Improper_Torsional_Energy-OPLS-2005>
3.56133818626404

> <r_mmod_Van_der_Waal_Energy-OPLS-2005>
167.015167236328

> <r_mmod_Electrostatic_Energy-OPLS-2005>
-401.277069091797

> <r_mmod_Solvation_Energy-OPLS-2005>
-238.666366577148

> <b_mmod_Minimization_Converged-OPLS-2005>
0

> <r_mmod_RMS_Derivative-OPLS-2005>
0.538797676563263

$$$$
11
                    3D
 Structure written by MMmdl.
156164  0  0  1  0            999 V2000
  -30.6366  -14.6431   20.4987 C   0  0  0  0  0  0
  -30.4426  -12.4026   19.4391 C   0  0  0  0  0  0
  -29.5057  -12.4976   18.2160 C   0  0  0  0  0  0
  -28.0310  -12.3308   18.6376 C   0  0  0  0  0  0
  -27.6491  -13.2159   19.8540 C   0  0  2  0  0  0
  -28.6994  -13.1004   20.9810 C   0  0  0  0  0  0
  -25.2547  -13.8163   20.5690 C   0  0  0  0  0  0
  -24.1819  -13.0427   20.9202 C   0  0  0  0  0  0
  -24.6390  -11.6901   20.8747 C   0  0  0  0  0  0
  -23.9063  -10.4287   21.0416 C   0  0  0  0  0  0
  -24.3616   -9.4206   21.9197 C   0  0  0  0  0  0
  -23.6289   -8.2244   22.0766 C   0  0  0  0  0  0
  -22.4274   -8.0280   21.3550 C   0  0  0  0  0  0
  -21.9907   -9.0259   20.4657 C   0  0  0  0  0  0
  -22.7236  -10.2135   20.3068 C   0  0  0  0  0  0
  -21.6848   -6.0732   22.5275 C   0  0  0  0  0  0
  -21.4009   -6.5638   23.8208 C   0  0  0  0  0  0
  -21.3662   -5.6791   24.9170 C   0  0  0  0  0  0
  -21.6045   -4.3053   24.7222 C   0  0  0  0  0  0
  -21.8819   -3.8145   23.4342 C   0  0  0  0  0  0
  -21.9193   -4.6960   22.3396 C   0  0  0  0  0  0
  -22.7845  -13.5233   21.1867 C   0  0  0  0  0  0
  -22.1659   -4.2144   21.0976 F   0  0  0  0  0  0
  -21.5638   -3.4538   25.7734 F   0  0  0  0  0  0
  -30.0085  -13.4324   20.3995 N   0  0  0  0  0  0
  -26.2976  -12.9345   20.3300 N   0  0  0  0  0  0
  -25.9319  -11.6502   20.5757 N   0  0  0  0  0  0
  -22.0470  -12.8236   22.0416 N   0  0  0  0  0  0
  -25.4225  -15.1892   20.4107 N   0  0  0  0  0  0
  -31.8296  -14.7793   20.2156 O   0  0  0  0  0  0
  -21.6637   -6.8878   21.4241 O   0  0  0  0  0  0
  -22.3548  -14.5550   20.6719 O   0  0  0  0  0  0
  -24.6251  -31.8629   23.2050 C   0  0  0  0  0  0
  -25.9115  -32.4791   23.8345 C   0  0  1  0  0  0
  -27.2115  -27.3381   20.0979 C   0  0  0  0  0  0
  -25.5938  -33.8589   24.2278 N   0  0  0  0  0  0
  -23.4140  -30.4903   21.5499 C   0  0  2  0  0  0
  -24.8538  -28.9543   20.1108 C   0  0  0  0  0  0
  -22.7460  -29.4629   22.4943 C   0  0  0  0  0  0
  -18.0287  -28.1372   22.8483 C   0  0  0  0  0  0
  -24.1495  -36.7288   23.2640 C   0  0  0  0  0  0
  -25.9554  -30.7985   21.3713 C   0  0  0  0  0  0
  -26.0268  -29.4301   20.7104 C   0  0  0  0  0  0
  -27.2099  -28.6355   20.6931 C   0  0  0  0  0  0
  -26.0083  -26.9134   19.4820 C   0  0  0  0  0  0
  -24.8451  -27.6997   19.4907 C   0  0  0  0  0  0
  -23.6242  -29.8353   20.1620 C   0  0  0  0  0  0
  -25.4119  -36.3078   24.0329 C   0  0  1  0  0  0
  -20.5888  -28.3663   23.1295 C   0  0  2  0  0  0
  -20.6780  -26.9396   22.5408 C   0  0  0  0  0  0
  -19.5759  -26.6370   21.5213 C   0  0  0  0  0  0
  -18.1935  -26.7921   22.1618 C   0  0  0  0  0  0
  -19.1541  -28.8836   23.2884 C   0  0  0  0  0  0
  -18.9471  -30.1443   23.8889 C   0  0  0  0  0  0
  -17.6475  -30.6575   24.0568 C   0  0  0  0  0  0
  -25.9050  -34.9457   23.5094 C   0  0  0  0  0  0
  -16.5361  -29.9075   23.6338 C   0  0  0  0  0  0
  -16.7280  -28.6502   23.0342 C   0  0  0  0  0  0
  -26.4506  -31.6594   25.0703 C   0  0  0  0  0  0
  -25.3748  -31.3737   26.1438 C   0  0  0  0  0  0
  -27.0350  -30.3021   24.6126 C   0  0  0  0  0  0
  -27.6047  -32.4340   25.7487 C   0  0  0  0  0  0
  -27.5574  -37.1790   24.8471 C   0  0  0  0  0  0
  -21.4185  -29.3028   22.3698 N   0  0  0  0  0  0
  -26.4287  -37.3773   23.9420 N   0  0  0  0  0  0
  -24.6848  -31.0643   22.0996 N   0  0  0  0  0  0
  -23.4223  -28.8156   23.2988 O   0  0  0  0  0  0
  -28.3316  -26.4938   20.1289 O   0  0  0  0  0  0
  -26.5609  -34.8933   22.4653 O   0  0  0  0  0  0
  -23.5419  -32.1424   23.7380 O   0  0  0  0  0  0
  -30.5232  -18.4398   23.0963 C   0  0  0  0  0  0
  -30.4002  -17.1783   22.4848 C   0  0  0  0  0  0
  -29.8565  -18.2860   20.3860 C   0  0  0  0  0  0
  -30.3396  -19.6398   22.3728 C   0  0  0  0  0  0
  -30.0668  -17.0644   21.1214 C   0  0  0  0  0  0
  -30.0098  -19.5871   20.9892 C   0  0  0  0  0  0
  -30.5073  -20.9418   23.1423 C   0  0  0  0  0  0
  -29.2427  -23.9985   20.2531 C   0  0  0  0  0  0
  -28.0628  -25.0422   20.1481 C   0  0  0  0  0  0
  -28.8283  -22.4985   20.5944 C   0  0  0  0  0  0
  -29.8083  -15.7287   20.6036 N   0  0  0  0  0  0
  -31.3519  -21.7130   20.0060 O   0  0  0  0  0  0
  -29.4859  -20.7760   18.6184 O   0  0  0  0  0  0
  -29.9927  -21.1449   19.9513 S   0  0  0  0  0  0
  -31.4800  -12.5423   19.1294 H   0  0  0  0  0  0
  -30.3941  -11.4137   19.8960 H   0  0  0  0  0  0
  -29.7735  -11.7395   17.4786 H   0  0  0  0  0  0
  -29.6396  -13.4630   17.7245 H   0  0  0  0  0  0
  -27.8821  -11.2791   18.8873 H   0  0  0  0  0  0
  -27.3714  -12.5400   17.7944 H   0  0  0  0  0  0
  -27.6559  -14.2448   19.4953 H   0  0  0  0  0  0
  -28.7157  -12.0917   21.3958 H   0  0  0  0  0  0
  -28.4540  -13.7657   21.8112 H   0  0  0  0  0  0
  -25.2754   -9.5681   22.4777 H   0  0  0  0  0  0
  -23.9987   -7.4637   22.7490 H   0  0  0  0  0  0
  -21.0837   -8.8786   19.8966 H   0  0  0  0  0  0
  -22.3698  -10.9681   19.6184 H   0  0  0  0  0  0
  -21.1991   -7.6141   23.9708 H   0  0  0  0  0  0
  -21.1490   -6.0520   25.9074 H   0  0  0  0  0  0
  -22.0597   -2.7606   23.2841 H   0  0  0  0  0  0
  -22.4050  -11.9873   22.4786 H   0  0  0  0  0  0
  -21.1098  -13.1298   22.2621 H   0  0  0  0  0  0
  -24.6510  -15.8368   20.5305 H   0  0  0  0  0  0
  -26.2593  -15.6372   20.0615 H   0  0  0  0  0  0
  -26.7166  -32.5450   23.1074 H   0  0  0  0  0  0
  -25.0147  -33.9748   25.0450 H   0  0  0  0  0  0
  -22.7053  -31.3098   21.4121 H   0  0  0  0  0  0
  -23.3762  -35.9612   23.3306 H   0  0  0  0  0  0
  -24.3587  -36.8898   22.2053 H   0  0  0  0  0  0
  -23.7250  -37.6488   23.6663 H   0  0  0  0  0  0
  -26.0820  -31.5645   20.6055 H   0  0  0  0  0  0
  -26.8390  -30.8407   21.9955 H   0  0  0  0  0  0
  -28.1110  -28.9992   21.1664 H   0  0  0  0  0  0
  -25.9186  -25.9632   18.9824 H   0  0  0  0  0  0
  -23.9459  -27.3301   19.0163 H   0  0  0  0  0  0
  -23.7463  -30.6190   19.4141 H   0  0  0  0  0  0
  -22.7422  -29.2699   19.8544 H   0  0  0  0  0  0
  -25.1288  -36.1914   25.0814 H   0  0  0  0  0  0
  -20.9960  -28.3223   24.1422 H   0  0  0  0  0  0
  -20.5685  -26.2264   23.3592 H   0  0  0  0  0  0
  -21.6643  -26.7423   22.1193 H   0  0  0  0  0  0
  -19.6928  -25.6284   21.1231 H   0  0  0  0  0  0
  -19.6712  -27.3186   20.6756 H   0  0  0  0  0  0
  -17.4204  -26.6673   21.4022 H   0  0  0  0  0  0
  -18.0334  -26.0059   22.9009 H   0  0  0  0  0  0
  -19.7948  -30.7258   24.2234 H   0  0  0  0  0  0
  -17.5039  -31.6259   24.5160 H   0  0  0  0  0  0
  -15.5365  -30.2979   23.7669 H   0  0  0  0  0  0
  -15.8684  -28.0834   22.7033 H   0  0  0  0  0  0
  -24.5922  -30.7082   25.7789 H   0  0  0  0  0  0
  -24.8953  -32.2915   26.4847 H   0  0  0  0  0  0
  -25.8080  -30.8943   27.0224 H   0  0  0  0  0  0
  -26.2907  -29.6761   24.1186 H   0  0  0  0  0  0
  -27.4127  -29.7268   25.4588 H   0  0  0  0  0  0
  -27.8741  -30.4328   23.9287 H   0  0  0  0  0  0
  -27.2628  -33.3642   26.2039 H   0  0  0  0  0  0
  -28.3878  -32.6895   25.0338 H   0  0  0  0  0  0
  -28.0694  -31.8489   26.5438 H   0  0  0  0  0  0
  -28.2569  -38.0105   24.7499 H   0  0  0  0  0  0
  -28.1081  -36.2620   24.6293 H   0  0  0  0  0  0
  -27.2292  -37.1426   25.8875 H   0  0  0  0  0  0
  -20.9343  -29.8785   21.6951 H   0  0  0  0  0  0
  -26.0166  -38.2836   24.1449 H   0  0  0  0  0  0
  -30.7624  -18.4804   24.1502 H   0  0  0  0  0  0
  -30.5327  -16.2911   23.0889 H   0  0  0  0  0  0
  -29.6001  -18.2395   19.3376 H   0  0  0  0  0  0
  -29.5554  -21.2402   23.5845 H   0  0  0  0  0  0
  -30.8890  -21.7614   22.5371 H   0  0  0  0  0  0
  -31.2132  -20.8121   23.9623 H   0  0  0  0  0  0
  -29.9640  -24.3439   20.9940 H   0  0  0  0  0  0
  -29.7757  -24.0073   19.3014 H   0  0  0  0  0  0
  -27.3712  -24.8534   20.9708 H   0  0  0  0  0  0
  -27.5458  -24.7599   19.2341 H   0  0  0  0  0  0
  -27.8476  -22.2713   20.1800 H   0  0  0  0  0  0
  -28.7244  -22.3808   21.6693 H   0  0  0  0  0  0
  -28.8319  -15.4848   20.5422 H   0  0  0  0  0  0
  1 25  1  0  0  0
  1 30  2  0  0  0
  1 81  1  0  0  0
  2  3  1  0  0  0
  2 25  1  0  0  0
  2 85  1  0  0  0
  2 86  1  0  0  0
  3  4  1  0  0  0
  3 87  1  0  0  0
  3 88  1  0  0  0
  4  5  1  0  0  0
  4 89  1  0  0  0
  4 90  1  0  0  0
  5  6  1  0  0  0
  5 26  1  0  0  0
  5 91  1  0  0  0
  6 25  1  0  0  0
  6 92  1  0  0  0
  6 93  1  0  0  0
  7  8  2  0  0  0
  7 26  1  0  0  0
  7 29  1  0  0  0
  8  9  1  0  0  0
  8 22  1  0  0  0
  9 10  1  0  0  0
  9 27  2  0  0  0
 10 11  2  0  0  0
 10 15  1  0  0  0
 11 12  1  0  0  0
 11 94  1  0  0  0
 12 13  2  0  0  0
 12 95  1  0  0  0
 13 14  1  0  0  0
 13 31  1  0  0  0
 14 15  2  0  0  0
 14 96  1  0  0  0
 15 97  1  0  0  0
 16 17  2  0  0  0
 16 21  1  0  0  0
 16 31  1  0  0  0
 17 18  1  0  0  0
 17 98  1  0  0  0
 18 19  2  0  0  0
 18 99  1  0  0  0
 19 20  1  0  0  0
 19 24  1  0  0  0
 20 21  2  0  0  0
 20100  1  0  0  0
 21 23  1  0  0  0
 22 28  1  0  0  0
 22 32  2  0  0  0
 26 27  1  0  0  0
 28101  1  0  0  0
 28102  1  0  0  0
 29103  1  0  0  0
 29104  1  0  0  0
 33 34  1  0  0  0
 33 66  1  0  0  0
 33 70  2  0  0  0
 34 36  1  0  0  0
 34 59  1  0  0  0
 34105  1  0  0  0
 35 44  2  0  0  0
 35 45  1  0  0  0
 35 68  1  0  0  0
 36 56  1  0  0  0
 36106  1  0  0  0
 37 39  1  0  0  0
 37 47  1  0  0  0
 37 66  1  0  0  0
 37107  1  0  0  0
 38 43  2  0  0  0
 38 46  1  0  0  0
 38 47  1  0  0  0
 39 64  1  0  0  0
 39 67  2  0  0  0
 40 52  1  0  0  0
 40 53  2  0  0  0
 40 58  1  0  0  0
 41108  1  0  0  0
 41109  1  0  0  0
 41110  1  0  0  0
 41 48  1  0  0  0
 42 43  1  0  0  0
 42 66  1  0  0  0
 42111  1  0  0  0
 42112  1  0  0  0
 43 44  1  0  0  0
 44113  1  0  0  0
 45 46  2  0  0  0
 45114  1  0  0  0
 46115  1  0  0  0
 47116  1  0  0  0
 47117  1  0  0  0
 48 56  1  0  0  0
 48 65  1  0  0  0
 48118  1  0  0  0
 49 50  1  0  0  0
 49 53  1  0  0  0
 49 64  1  0  0  0
 49119  1  0  0  0
 50 51  1  0  0  0
 50120  1  0  0  0
 50121  1  0  0  0
 51 52  1  0  0  0
 51122  1  0  0  0
 51123  1  0  0  0
 52124  1  0  0  0
 52125  1  0  0  0
 53 54  1  0  0  0
 54 55  2  0  0  0
 54126  1  0  0  0
 55 57  1  0  0  0
 55127  1  0  0  0
 56 69  2  0  0  0
 57 58  2  0  0  0
 57128  1  0  0  0
 58129  1  0  0  0
 59 60  1  0  0  0
 59 61  1  0  0  0
 59 62  1  0  0  0
 60130  1  0  0  0
 60131  1  0  0  0
 60132  1  0  0  0
 61133  1  0  0  0
 61134  1  0  0  0
 61135  1  0  0  0
 62136  1  0  0  0
 62137  1  0  0  0
 62138  1  0  0  0
 63 65  1  0  0  0
 63139  1  0  0  0
 63140  1  0  0  0
 63141  1  0  0  0
 64142  1  0  0  0
 65143  1  0  0  0
 68 79  1  0  0  0
 71 72  2  0  0  0
 71 74  1  0  0  0
 71144  1  0  0  0
 72 75  1  0  0  0
 72145  1  0  0  0
 73 75  2  0  0  0
 73 76  1  0  0  0
 73146  1  0  0  0
 74 76  2  0  0  0
 74 77  1  0  0  0
 75 81  1  0  0  0
 76 84  1  0  0  0
 77147  1  0  0  0
 77148  1  0  0  0
 77149  1  0  0  0
 78 79  1  0  0  0
 78 80  1  0  0  0
 78150  1  0  0  0
 78151  1  0  0  0
 79152  1  0  0  0
 79153  1  0  0  0
 80154  1  0  0  0
 80155  1  0  0  0
 80 84  1  0  0  0
 81156  1  0  0  0
 82 84  2  0  0  0
 83 84  2  0  0  0
M  ISO  4   1 100  68 101  79 101  81 100
M  END
> <chiral flag>
0

> <version>
0

> <s_m_source_file>
/data/baiqing/PycharmProjects/Reinvent-master-3.2/result/LINK_invent/BTK/process_docking_weight1_custom_product_contain_oxygen_bond_distance_aromatic_linkinvent_7_9_3/rearranged_h_0062.sdf

> <i_m_source_file_index>
12

> <r_mmod_Potential_Energy-OPLS-2005>
-29.125862121582

> <r_mmod_Stretch_Energy-OPLS-2005>
75.1393737792969

> <r_mmod_Bend_Energy-OPLS-2005>
132.955841064453

> <r_mmod_Torsional_Energy-OPLS-2005>
257.964569091797

> <r_mmod_Improper_Torsional_Energy-OPLS-2005>
9.93607616424561

> <r_mmod_Van_der_Waal_Energy-OPLS-2005>
140.729278564453

> <r_mmod_Electrostatic_Energy-OPLS-2005>
-433.099334716797

> <r_mmod_Solvation_Energy-OPLS-2005>
-262.052825927734

> <b_mmod_Minimization_Converged-OPLS-2005>
0

> <r_mmod_RMS_Derivative-OPLS-2005>
1.99201691150665

$$$$
12
                    3D
 Structure written by MMmdl.
164173  0  0  1  0            999 V2000
  -30.5796  -14.7831   20.4768 C   0  0  0  0  0  0
  -30.4419  -12.4960   19.4613 C   0  0  0  0  0  0
  -29.5123  -12.5153   18.2297 C   0  0  0  0  0  0
  -28.0421  -12.3250   18.6537 C   0  0  0  0  0  0
  -27.6390  -13.2313   19.8500 C   0  0  2  0  0  0
  -28.6833  -13.1659   20.9835 C   0  0  0  0  0  0
  -25.2544  -13.8200   20.5707 C   0  0  0  0  0  0
  -24.1800  -13.0429   20.9200 C   0  0  0  0  0  0
  -24.6399  -11.6905   20.8685 C   0  0  0  0  0  0
  -23.9057  -10.4297   21.0357 C   0  0  0  0  0  0
  -24.3618   -9.4234   21.9141 C   0  0  0  0  0  0
  -23.6298   -8.2267   22.0714 C   0  0  0  0  0  0
  -22.4273   -8.0298   21.3532 C   0  0  0  0  0  0
  -21.9921   -9.0268   20.4623 C   0  0  0  0  0  0
  -22.7237  -10.2141   20.3018 C   0  0  0  0  0  0
  -21.6872   -6.0747   22.5280 C   0  0  0  0  0  0
  -21.4031   -6.5649   23.8221 C   0  0  0  0  0  0
  -21.3638   -5.6799   24.9168 C   0  0  0  0  0  0
  -21.6025   -4.3059   24.7224 C   0  0  0  0  0  0
  -21.8838   -3.8158   23.4346 C   0  0  0  0  0  0
  -21.9207   -4.6972   22.3399 C   0  0  0  0  0  0
  -22.7847  -13.5239   21.1878 C   0  0  0  0  0  0
  -22.1684   -4.2172   21.0963 F   0  0  0  0  0  0
  -21.5603   -3.4522   25.7721 F   0  0  0  0  0  0
  -29.9720  -13.5481   20.3954 N   0  0  0  0  0  0
  -26.2929  -12.9390   20.3264 N   0  0  0  0  0  0
  -25.9311  -11.6514   20.5650 N   0  0  0  0  0  0
  -22.0510  -12.8192   22.0416 N   0  0  0  0  0  0
  -25.4257  -15.1907   20.4156 N   0  0  0  0  0  0
  -31.7700  -14.8819   20.1732 O   0  0  0  0  0  0
  -21.6636   -6.8886   21.4240 O   0  0  0  0  0  0
  -22.3552  -14.5583   20.6761 O   0  0  0  0  0  0
  -24.6261  -31.8510   23.1974 C   0  0  0  0  0  0
  -25.9076  -32.4746   23.8313 C   0  0  1  0  0  0
  -27.2505  -27.2800   20.1367 C   0  0  0  0  0  0
  -25.5853  -33.8532   24.2193 N   0  0  0  0  0  0
  -23.4185  -30.4702   21.5380 C   0  0  2  0  0  0
  -24.8711  -28.8998   20.0995 C   0  0  0  0  0  0
  -22.7468  -29.4583   22.4944 C   0  0  0  0  0  0
  -18.0328  -28.1362   22.8499 C   0  0  0  0  0  0
  -24.1442  -36.7314   23.2662 C   0  0  0  0  0  0
  -25.9565  -30.7638   21.3669 C   0  0  0  0  0  0
  -26.0289  -29.3841   20.7195 C   0  0  0  0  0  0
  -27.2067  -28.5824   20.7290 C   0  0  0  0  0  0
  -26.0749  -26.8451   19.4845 C   0  0  0  0  0  0
  -24.9028  -27.6406   19.4663 C   0  0  0  0  0  0
  -23.6280  -29.7778   20.1584 C   0  0  0  0  0  0
  -25.4080  -36.3074   24.0324 C   0  0  1  0  0  0
  -20.5905  -28.3695   23.1276 C   0  0  2  0  0  0
  -20.6795  -26.9409   22.5424 C   0  0  0  0  0  0
  -19.5786  -26.6337   21.5204 C   0  0  0  0  0  0
  -18.1975  -26.7884   22.1652 C   0  0  0  0  0  0
  -19.1568  -28.8851   23.2884 C   0  0  0  0  0  0
  -18.9486  -30.1441   23.8921 C   0  0  0  0  0  0
  -17.6490  -30.6585   24.0547 C   0  0  0  0  0  0
  -25.9017  -34.9436   23.5054 C   0  0  0  0  0  0
  -16.5379  -29.9069   23.6298 C   0  0  0  0  0  0
  -16.7312  -28.6460   23.0367 C   0  0  0  0  0  0
  -26.4434  -31.6624   25.0724 C   0  0  0  0  0  0
  -25.3670  -31.3788   26.1462 C   0  0  0  0  0  0
  -27.0259  -30.3035   24.6188 C   0  0  0  0  0  0
  -27.5915  -32.4435   25.7560 C   0  0  0  0  0  0
  -27.5543  -37.1790   24.8460 C   0  0  0  0  0  0
  -21.4187  -29.3072   22.3695 N   0  0  0  0  0  0
  -26.4244  -37.3794   23.9409 N   0  0  0  0  0  0
  -24.6886  -31.0480   22.0923 N   0  0  0  0  0  0
  -23.4200  -28.8090   23.3011 O   0  0  0  0  0  0
  -28.4072  -26.4815   20.2714 O   0  0  0  0  0  0
  -26.5651  -34.8918   22.4658 O   0  0  0  0  0  0
  -23.5423  -32.1325   23.7303 O   0  0  0  0  0  0
  -29.4074  -18.5617   20.6070 C   0  0  0  0  0  0
  -31.3311  -17.5541   21.6796 C   0  0  0  0  0  0
  -30.9574  -19.9940   21.8506 C   0  0  0  0  0  0
  -29.7701  -19.9143   21.0498 C   0  0  0  0  0  0
  -30.1683  -17.3467   20.9242 C   0  0  0  0  0  0
  -31.7202  -18.8253   22.1294 C   0  0  0  0  0  0
  -27.8214  -21.1663   21.7851 C   0  0  0  0  0  0
  -26.9667  -22.4383   21.9559 C   0  0  0  0  0  0
  -27.6785  -23.7691   21.6668 C   0  0  0  0  0  0
  -29.1900  -22.4035   20.1137 C   0  0  0  0  0  0
  -28.2250  -23.7122   20.2539 C   0  0  1  0  0  0
  -30.9279  -21.2753   24.0340 C   0  0  0  0  0  0
  -31.3870  -21.2755   22.5677 C   0  0  0  0  0  0
  -28.6980  -25.1460   19.6739 C   0  0  0  0  0  0
  -28.8780  -21.1259   20.9231 N   0  0  0  0  0  0
  -29.7838  -15.9234   20.6528 N   0  0  0  0  0  0
  -27.4780  -20.1837   22.4480 O   0  0  0  0  0  0
  -33.1410  -18.8784   23.1211 Cl  0  0  0  0  0  0
  -31.4784  -12.6427   19.1518 H   0  0  0  0  0  0
  -30.4133  -11.5167   19.9365 H   0  0  0  0  0  0
  -29.8028  -11.7284   17.5296 H   0  0  0  0  0  0
  -29.6307  -13.4625   17.7011 H   0  0  0  0  0  0
  -27.9192  -11.2752   18.9245 H   0  0  0  0  0  0
  -27.3820  -12.4831   17.8014 H   0  0  0  0  0  0
  -27.6303  -14.2515   19.4696 H   0  0  0  0  0  0
  -28.7346  -12.1635   21.4057 H   0  0  0  0  0  0
  -28.4043  -13.8138   21.8165 H   0  0  0  0  0  0
  -25.2759   -9.5741   22.4718 H   0  0  0  0  0  0
  -24.0029   -7.4674   22.7419 H   0  0  0  0  0  0
  -21.0874   -8.8772   19.8934 H   0  0  0  0  0  0
  -22.3685  -10.9666   19.6139 H   0  0  0  0  0  0
  -21.2039   -7.6160   23.9747 H   0  0  0  0  0  0
  -21.1425   -6.0487   25.9072 H   0  0  0  0  0  0
  -22.0632   -2.7617   23.2809 H   0  0  0  0  0  0
  -22.4136  -11.9842   22.4774 H   0  0  0  0  0  0
  -21.1112  -13.1157   22.2609 H   0  0  0  0  0  0
  -24.6618  -15.8446   20.5408 H   0  0  0  0  0  0
  -26.2693  -15.6343   20.0729 H   0  0  0  0  0  0
  -26.7106  -32.5372   23.1056 H   0  0  0  0  0  0
  -24.9954  -33.9663   25.0296 H   0  0  0  0  0  0
  -22.7121  -31.2925   21.3894 H   0  0  0  0  0  0
  -23.3704  -35.9662   23.3344 H   0  0  0  0  0  0
  -24.3506  -36.8944   22.2083 H   0  0  0  0  0  0
  -23.7174  -37.6486   23.6690 H   0  0  0  0  0  0
  -26.0561  -31.5067   20.5778 H   0  0  0  0  0  0
  -26.8519  -30.8504   21.9769 H   0  0  0  0  0  0
  -28.0880  -28.9476   21.2356 H   0  0  0  0  0  0
  -26.0400  -25.8699   19.0196 H   0  0  0  0  0  0
  -24.0245  -27.2616   18.9637 H   0  0  0  0  0  0
  -22.7510  -29.1843   19.8820 H   0  0  0  0  0  0
  -23.7143  -30.5441   19.3869 H   0  0  0  0  0  0
  -25.1255  -36.1923   25.0820 H   0  0  0  0  0  0
  -20.9964  -28.3240   24.1407 H   0  0  0  0  0  0
  -20.5607  -26.2347   23.3664 H   0  0  0  0  0  0
  -21.6665  -26.7365   22.1273 H   0  0  0  0  0  0
  -19.6937  -25.6219   21.1285 H   0  0  0  0  0  0
  -19.6680  -27.3110   20.6696 H   0  0  0  0  0  0
  -17.4189  -26.6619   21.4089 H   0  0  0  0  0  0
  -18.0454  -26.0047   22.9103 H   0  0  0  0  0  0
  -19.7987  -30.7255   24.2255 H   0  0  0  0  0  0
  -17.5063  -31.6277   24.5133 H   0  0  0  0  0  0
  -15.5392  -30.3007   23.7567 H   0  0  0  0  0  0
  -15.8742  -28.0761   22.7059 H   0  0  0  0  0  0
  -24.5782  -30.7228   25.7771 H   0  0  0  0  0  0
  -24.8966  -32.2994   26.4922 H   0  0  0  0  0  0
  -25.7999  -30.8886   27.0206 H   0  0  0  0  0  0
  -26.2761  -29.6802   24.1308 H   0  0  0  0  0  0
  -27.4019  -29.7305   25.4673 H   0  0  0  0  0  0
  -27.8613  -30.4312   23.9326 H   0  0  0  0  0  0
  -27.2366  -33.3679   26.2173 H   0  0  0  0  0  0
  -28.3745  -32.7155   25.0463 H   0  0  0  0  0  0
  -28.0592  -31.8595   26.5493 H   0  0  0  0  0  0
  -28.2553  -38.0083   24.7499 H   0  0  0  0  0  0
  -28.1021  -36.2613   24.6282 H   0  0  0  0  0  0
  -27.2289  -37.1488   25.8869 H   0  0  0  0  0  0
  -20.9355  -29.8910   21.7011 H   0  0  0  0  0  0
  -26.0134  -38.2852   24.1464 H   0  0  0  0  0  0
  -28.4783  -18.4665   20.0609 H   0  0  0  0  0  0
  -31.9314  -16.7097   21.9893 H   0  0  0  0  0  0
  -26.5415  -22.4607   22.9619 H   0  0  0  0  0  0
  -26.1247  -22.3342   21.2714 H   0  0  0  0  0  0
  -28.4599  -23.9804   22.3946 H   0  0  0  0  0  0
  -26.9514  -24.5807   21.7319 H   0  0  0  0  0  0
  -30.2215  -22.7042   20.2703 H   0  0  0  0  0  0
  -29.1894  -22.1200   19.0621 H   0  0  0  0  0  0
  -27.3502  -23.4932   19.6398 H   0  0  0  0  0  0
  -31.3847  -22.0882   24.5979 H   0  0  0  0  0  0
  -31.1955  -20.3454   24.5350 H   0  0  0  0  0  0
  -29.8476  -21.3871   24.0975 H   0  0  0  0  0  0
  -32.4717  -21.3701   22.5144 H   0  0  0  0  0  0
  -31.0124  -22.1716   22.0894 H   0  0  0  0  0  0
  -28.4883  -25.1927   18.6045 H   0  0  0  0  0  0
  -29.7880  -25.1052   19.7190 H   0  0  0  0  0  0
  -28.7965  -15.7262   20.7196 H   0  0  0  0  0  0
  1 25  1  0  0  0
  1 30  2  0  0  0
  1 86  1  0  0  0
  2  3  1  0  0  0
  2 25  1  0  0  0
  2 89  1  0  0  0
  2 90  1  0  0  0
  3  4  1  0  0  0
  3 91  1  0  0  0
  3 92  1  0  0  0
  4  5  1  0  0  0
  4 93  1  0  0  0
  4 94  1  0  0  0
  5  6  1  0  0  0
  5 26  1  0  0  0
  5 95  1  0  0  0
  6 25  1  0  0  0
  6 96  1  0  0  0
  6 97  1  0  0  0
  7  8  2  0  0  0
  7 26  1  0  0  0
  7 29  1  0  0  0
  8  9  1  0  0  0
  8 22  1  0  0  0
  9 10  1  0  0  0
  9 27  2  0  0  0
 10 11  2  0  0  0
 10 15  1  0  0  0
 11 12  1  0  0  0
 11 98  1  0  0  0
 12 13  2  0  0  0
 12 99  1  0  0  0
 13 14  1  0  0  0
 13 31  1  0  0  0
 14 15  2  0  0  0
 14100  1  0  0  0
 15101  1  0  0  0
 16 17  2  0  0  0
 16 21  1  0  0  0
 16 31  1  0  0  0
 17 18  1  0  0  0
 17102  1  0  0  0
 18 19  2  0  0  0
 18103  1  0  0  0
 19 20  1  0  0  0
 19 24  1  0  0  0
 20 21  2  0  0  0
 20104  1  0  0  0
 21 23  1  0  0  0
 22 28  1  0  0  0
 22 32  2  0  0  0
 26 27  1  0  0  0
 28105  1  0  0  0
 28106  1  0  0  0
 29107  1  0  0  0
 29108  1  0  0  0
 33 34  1  0  0  0
 33 66  1  0  0  0
 33 70  2  0  0  0
 34 36  1  0  0  0
 34 59  1  0  0  0
 34109  1  0  0  0
 35 44  2  0  0  0
 35 45  1  0  0  0
 35 68  1  0  0  0
 36 56  1  0  0  0
 36110  1  0  0  0
 37 39  1  0  0  0
 37 47  1  0  0  0
 37 66  1  0  0  0
 37111  1  0  0  0
 38 43  2  0  0  0
 38 46  1  0  0  0
 38 47  1  0  0  0
 39 64  1  0  0  0
 39 67  2  0  0  0
 40 52  1  0  0  0
 40 53  2  0  0  0
 40 58  1  0  0  0
 41112  1  0  0  0
 41113  1  0  0  0
 41114  1  0  0  0
 41 48  1  0  0  0
 42 43  1  0  0  0
 42 66  1  0  0  0
 42115  1  0  0  0
 42116  1  0  0  0
 43 44  1  0  0  0
 44117  1  0  0  0
 45 46  2  0  0  0
 45118  1  0  0  0
 46119  1  0  0  0
 47120  1  0  0  0
 47121  1  0  0  0
 48 56  1  0  0  0
 48 65  1  0  0  0
 48122  1  0  0  0
 49 50  1  0  0  0
 49 53  1  0  0  0
 49 64  1  0  0  0
 49123  1  0  0  0
 50 51  1  0  0  0
 50124  1  0  0  0
 50125  1  0  0  0
 51 52  1  0  0  0
 51126  1  0  0  0
 51127  1  0  0  0
 52128  1  0  0  0
 52129  1  0  0  0
 53 54  1  0  0  0
 54 55  2  0  0  0
 54130  1  0  0  0
 55 57  1  0  0  0
 55131  1  0  0  0
 56 69  2  0  0  0
 57 58  2  0  0  0
 57132  1  0  0  0
 58133  1  0  0  0
 59 60  1  0  0  0
 59 61  1  0  0  0
 59 62  1  0  0  0
 60134  1  0  0  0
 60135  1  0  0  0
 60136  1  0  0  0
 61137  1  0  0  0
 61138  1  0  0  0
 61139  1  0  0  0
 62140  1  0  0  0
 62141  1  0  0  0
 62142  1  0  0  0
 63 65  1  0  0  0
 63143  1  0  0  0
 63144  1  0  0  0
 63145  1  0  0  0
 64146  1  0  0  0
 65147  1  0  0  0
 68 84  1  0  0  0
 71 74  2  0  0  0
 71 75  1  0  0  0
 71148  1  0  0  0
 72 75  2  0  0  0
 72 76  1  0  0  0
 72149  1  0  0  0
 73 74  1  0  0  0
 73 76  2  0  0  0
 73 83  1  0  0  0
 74 85  1  0  0  0
 75 86  1  0  0  0
 76 88  1  0  0  0
 77 78  1  0  0  0
 77 85  1  0  0  0
 77 87  2  0  0  0
 78 79  1  0  0  0
 78150  1  0  0  0
 78151  1  0  0  0
 79 81  1  0  0  0
 79152  1  0  0  0
 79153  1  0  0  0
 80 81  1  0  0  0
 80 85  1  0  0  0
 80154  1  0  0  0
 80155  1  0  0  0
 81 84  1  0  0  0
 81156  1  0  0  0
 82 83  1  0  0  0
 82157  1  0  0  0
 82158  1  0  0  0
 82159  1  0  0  0
 83160  1  0  0  0
 83161  1  0  0  0
 84162  1  0  0  0
 84163  1  0  0  0
 86164  1  0  0  0
M  ISO  4   1 100  68 101  84 101  86 100
M  END
> <chiral flag>
0

> <version>
0

> <s_m_source_file>
/data/baiqing/PycharmProjects/Reinvent-master-3.2/result/LINK_invent/BTK/process_docking_weight1_custom_product_contain_oxygen_bond_distance_aromatic_linkinvent_7_9_3/rearranged_h_0062.sdf

> <i_m_source_file_index>
13

> <r_mmod_Potential_Energy-OPLS-2005>
367.460632324219

> <r_mmod_Stretch_Energy-OPLS-2005>
149.056625366211

> <r_mmod_Bend_Energy-OPLS-2005>
211.788543701172

> <r_mmod_Torsional_Energy-OPLS-2005>
305.881561279297

> <r_mmod_Improper_Torsional_Energy-OPLS-2005>
8.56604957580566

> <r_mmod_Van_der_Waal_Energy-OPLS-2005>
144.224319458008

> <r_mmod_Electrostatic_Energy-OPLS-2005>
-323.516265869141

> <r_mmod_Solvation_Energy-OPLS-2005>
-218.45539855957

> <b_mmod_Minimization_Converged-OPLS-2005>
0

> <r_mmod_RMS_Derivative-OPLS-2005>
7.66354084014893

$$$$
13
                    3D
 Structure written by MMmdl.
163171  0  0  1  0            999 V2000
  -30.7719  -14.3418   20.6468 C   0  0  0  0  0  0
  -30.4049  -12.2625   19.3763 C   0  0  0  0  0  0
  -29.4733  -12.5268   18.1790 C   0  0  0  0  0  0
  -27.9980  -12.3849   18.5966 C   0  0  0  0  0  0
  -27.6650  -13.1942   19.8775 C   0  0  2  0  0  0
  -28.7079  -12.9236   20.9867 C   0  0  0  0  0  0
  -25.2597  -13.8127   20.5624 C   0  0  0  0  0  0
  -24.1846  -13.0417   20.9169 C   0  0  0  0  0  0
  -24.6389  -11.6886   20.8712 C   0  0  0  0  0  0
  -23.9050  -10.4275   21.0408 C   0  0  0  0  0  0
  -24.3609   -9.4195   21.9188 C   0  0  0  0  0  0
  -23.6284   -8.2230   22.0749 C   0  0  0  0  0  0
  -22.4267   -8.0266   21.3545 C   0  0  0  0  0  0
  -21.9906   -9.0240   20.4648 C   0  0  0  0  0  0
  -22.7219  -10.2123   20.3058 C   0  0  0  0  0  0
  -21.6853   -6.0730   22.5273 C   0  0  0  0  0  0
  -21.4016   -6.5638   23.8203 C   0  0  0  0  0  0
  -21.3657   -5.6789   24.9163 C   0  0  0  0  0  0
  -21.6046   -4.3055   24.7221 C   0  0  0  0  0  0
  -21.8818   -3.8143   23.4341 C   0  0  0  0  0  0
  -21.9194   -4.6957   22.3399 C   0  0  0  0  0  0
  -22.7882  -13.5232   21.1840 C   0  0  0  0  0  0
  -22.1658   -4.2146   21.0976 F   0  0  0  0  0  0
  -21.5633   -3.4539   25.7734 F   0  0  0  0  0  0
  -30.0509  -13.2083   20.4452 N   0  0  0  0  0  0
  -26.3038  -12.9287   20.3371 N   0  0  0  0  0  0
  -25.9316  -11.6459   20.5773 N   0  0  0  0  0  0
  -22.0527  -12.8211   22.0398 N   0  0  0  0  0  0
  -25.4315  -15.1837   20.3934 N   0  0  0  0  0  0
  -31.8135  -14.6009   20.0371 O   0  0  0  0  0  0
  -21.6631   -6.8866   21.4234 O   0  0  0  0  0  0
  -22.3571  -14.5534   20.6686 O   0  0  0  0  0  0
  -24.6070  -31.8719   23.2182 C   0  0  0  0  0  0
  -25.9008  -32.4817   23.8442 C   0  0  1  0  0  0
  -27.2333  -27.4834   20.0651 C   0  0  0  0  0  0
  -25.5892  -33.8623   24.2361 N   0  0  0  0  0  0
  -23.3923  -30.5017   21.5553 C   0  0  2  0  0  0
  -24.8352  -28.9642   20.1309 C   0  0  0  0  0  0
  -22.7343  -29.4697   22.5002 C   0  0  0  0  0  0
  -18.0258  -28.1381   22.8476 C   0  0  0  0  0  0
  -24.1504  -36.7302   23.2635 C   0  0  0  0  0  0
  -25.9230  -30.8398   21.3788 C   0  0  0  0  0  0
  -25.9954  -29.4791   20.7224 C   0  0  0  0  0  0
  -27.1980  -28.7439   20.6940 C   0  0  0  0  0  0
  -26.0568  -26.9641   19.4867 C   0  0  0  0  0  0
  -24.8531  -27.6955   19.5258 C   0  0  0  0  0  0
  -23.6035  -29.8369   20.1696 C   0  0  0  0  0  0
  -25.4117  -36.3114   24.0348 C   0  0  1  0  0  0
  -20.5837  -28.3647   23.1335 C   0  0  2  0  0  0
  -20.6761  -26.9404   22.5411 C   0  0  0  0  0  0
  -19.5735  -26.6388   21.5215 C   0  0  0  0  0  0
  -18.1902  -26.7923   22.1605 C   0  0  0  0  0  0
  -19.1511  -28.8822   23.2902 C   0  0  0  0  0  0
  -18.9452  -30.1428   23.8909 C   0  0  0  0  0  0
  -17.6460  -30.6585   24.0567 C   0  0  0  0  0  0
  -25.9036  -34.9475   23.5152 C   0  0  0  0  0  0
  -16.5342  -29.9104   23.6334 C   0  0  0  0  0  0
  -16.7254  -28.6517   23.0337 C   0  0  0  0  0  0
  -26.4451  -31.6565   25.0742 C   0  0  0  0  0  0
  -25.3728  -31.3691   26.1493 C   0  0  0  0  0  0
  -27.0254  -30.2986   24.6139 C   0  0  0  0  0  0
  -27.6033  -32.4269   25.7497 C   0  0  0  0  0  0
  -27.5594  -37.1809   24.8465 C   0  0  0  0  0  0
  -21.4083  -29.3048   22.3731 N   0  0  0  0  0  0
  -26.4306  -37.3788   23.9391 N   0  0  0  0  0  0
  -24.6564  -31.0861   22.1071 N   0  0  0  0  0  0
  -23.4137  -28.8207   23.3009 O   0  0  0  0  0  0
  -28.4293  -26.8322   19.8915 O   0  0  0  0  0  0
  -26.5593  -34.8911   22.4720 O   0  0  0  0  0  0
  -23.5277  -32.1480   23.7585 O   0  0  0  0  0  0
  -32.3729  -18.1148   22.4473 C   0  0  0  0  0  0
  -31.9287  -16.7913   22.3007 C   0  0  0  0  0  0
  -31.5640  -19.1776   22.0120 C   0  0  0  0  0  0
  -29.8581  -17.5937   21.2492 C   0  0  0  0  0  0
  -30.6819  -16.5255   21.6973 C   0  0  0  0  0  0
  -30.3022  -18.9309   21.4261 C   0  0  0  0  0  0
  -29.1785  -23.5465   21.2063 C   0  0  0  0  0  0
  -28.6959  -22.2901   21.2052 C   0  0  0  0  0  0
  -28.4973  -24.5736   20.4365 C   0  0  0  0  0  0
  -28.5226  -17.3178   20.5574 C   0  0  0  0  0  0
  -28.9462  -26.2353   23.2916 C   0  0  0  0  0  0
  -29.3386  -21.1236   21.9094 C   0  0  0  0  0  0
  -29.5737  -26.3813   21.8994 C   0  0  0  0  0  0
  -30.2693  -15.1802   21.5586 N   0  0  0  0  0  0
  -29.5024  -19.9983   20.9970 N   0  0  0  0  0  0
  -28.6896  -25.8493   20.8553 N   0  0  0  0  0  0
  -27.8090  -24.3102   19.4445 O   0  0  0  0  0  0
  -31.4486  -12.3412   19.0706 H   0  0  0  0  0  0
  -30.2791  -11.2366   19.7304 H   0  0  0  0  0  0
  -29.6981  -11.8363   17.3643 H   0  0  0  0  0  0
  -29.6477  -13.5306   17.7866 H   0  0  0  0  0  0
  -27.7963  -11.3256   18.7603 H   0  0  0  0  0  0
  -27.3449  -12.6948   17.7795 H   0  0  0  0  0  0
  -27.7245  -14.2461   19.6086 H   0  0  0  0  0  0
  -28.6629  -11.8753   21.2899 H   0  0  0  0  0  0
  -28.4686  -13.4889   21.8864 H   0  0  0  0  0  0
  -25.2769   -9.5661   22.4747 H   0  0  0  0  0  0
  -23.9993   -7.4627   22.7470 H   0  0  0  0  0  0
  -21.0841   -8.8764   19.8956 H   0  0  0  0  0  0
  -22.3698  -10.9662   19.6157 H   0  0  0  0  0  0
  -21.2002   -7.6147   23.9704 H   0  0  0  0  0  0
  -21.1488   -6.0523   25.9067 H   0  0  0  0  0  0
  -22.0601   -2.7606   23.2843 H   0  0  0  0  0  0
  -22.4169  -11.9867   22.4752 H   0  0  0  0  0  0
  -21.1155  -13.1253   22.2641 H   0  0  0  0  0  0
  -24.6550  -15.8308   20.4647 H   0  0  0  0  0  0
  -26.2685  -15.6084   20.0179 H   0  0  0  0  0  0
  -26.7051  -32.5525   23.1168 H   0  0  0  0  0  0
  -25.0043  -33.9801   25.0504 H   0  0  0  0  0  0
  -22.6814  -31.3199   21.4175 H   0  0  0  0  0  0
  -23.3774  -35.9632   23.3302 H   0  0  0  0  0  0
  -24.3614  -36.8923   22.2060 H   0  0  0  0  0  0
  -23.7264  -37.6508   23.6638 H   0  0  0  0  0  0
  -26.0649  -31.6210   20.6313 H   0  0  0  0  0  0
  -26.7964  -30.8641   22.0173 H   0  0  0  0  0  0
  -28.1067  -29.1558   21.1113 H   0  0  0  0  0  0
  -26.0697  -26.0153   18.9729 H   0  0  0  0  0  0
  -23.9580  -27.2911   19.0748 H   0  0  0  0  0  0
  -23.7241  -30.6158   19.4141 H   0  0  0  0  0  0
  -22.7227  -29.2711   19.8610 H   0  0  0  0  0  0
  -25.1317  -36.1970   25.0848 H   0  0  0  0  0  0
  -20.9924  -28.3177   24.1457 H   0  0  0  0  0  0
  -20.5689  -26.2254   23.3569 H   0  0  0  0  0  0
  -21.6623  -26.7471   22.1193 H   0  0  0  0  0  0
  -19.6914  -25.6322   21.1213 H   0  0  0  0  0  0
  -19.6682  -27.3193   20.6747 H   0  0  0  0  0  0
  -17.4198  -26.6665   21.3996 H   0  0  0  0  0  0
  -18.0299  -26.0077   22.9013 H   0  0  0  0  0  0
  -19.7941  -30.7226   24.2263 H   0  0  0  0  0  0
  -17.5048  -31.6272   24.5146 H   0  0  0  0  0  0
  -15.5359  -30.3024   23.7666 H   0  0  0  0  0  0
  -15.8643  -28.0864   22.7048 H   0  0  0  0  0  0
  -24.5913  -30.7012   25.7830 H   0  0  0  0  0  0
  -24.8893  -32.2860   26.4891 H   0  0  0  0  0  0
  -25.8100  -30.8895   27.0261 H   0  0  0  0  0  0
  -26.2804  -29.6776   24.1139 H   0  0  0  0  0  0
  -27.3942  -29.7194   25.4611 H   0  0  0  0  0  0
  -27.8697  -30.4276   23.9360 H   0  0  0  0  0  0
  -27.2665  -33.3590   26.2051 H   0  0  0  0  0  0
  -28.3849  -32.6784   25.0312 H   0  0  0  0  0  0
  -28.0658  -31.8385   26.5433 H   0  0  0  0  0  0
  -28.2586  -38.0129   24.7519 H   0  0  0  0  0  0
  -28.1128  -36.2662   24.6286 H   0  0  0  0  0  0
  -27.2302  -37.1447   25.8866 H   0  0  0  0  0  0
  -20.9184  -29.8839   21.7066 H   0  0  0  0  0  0
  -26.0202  -38.2867   24.1409 H   0  0  0  0  0  0
  -33.3363  -18.3188   22.8917 H   0  0  0  0  0  0
  -32.5596  -15.9794   22.6370 H   0  0  0  0  0  0
  -31.9424  -20.1827   22.1245 H   0  0  0  0  0  0
  -30.0826  -23.7659   21.7512 H   0  0  0  0  0  0
  -27.7822  -22.0654   20.6707 H   0  0  0  0  0  0
  -28.3472  -16.2616   20.3760 H   0  0  0  0  0  0
  -28.4893  -17.8050   19.5822 H   0  0  0  0  0  0
  -27.6915  -17.6826   21.1600 H   0  0  0  0  0  0
  -29.6872  -26.3962   24.0717 H   0  0  0  0  0  0
  -28.5255  -25.2401   23.4393 H   0  0  0  0  0  0
  -28.1468  -26.9613   23.4379 H   0  0  0  0  0  0
  -28.7098  -20.8213   22.7482 H   0  0  0  0  0  0
  -30.2865  -21.4592   22.3302 H   0  0  0  0  0  0
  -30.5465  -25.8925   21.8614 H   0  0  0  0  0  0
  -29.7859  -27.4359   21.7128 H   0  0  0  0  0  0
  -29.3930  -14.9106   21.9774 H   0  0  0  0  0  0
  -28.6481  -19.7199   20.5222 H   0  0  0  0  0  0
  1 25  1  0  0  0
  1 30  2  0  0  0
  1 84  1  0  0  0
  2  3  1  0  0  0
  2 25  1  0  0  0
  2 88  1  0  0  0
  2 89  1  0  0  0
  3  4  1  0  0  0
  3 90  1  0  0  0
  3 91  1  0  0  0
  4  5  1  0  0  0
  4 92  1  0  0  0
  4 93  1  0  0  0
  5  6  1  0  0  0
  5 26  1  0  0  0
  5 94  1  0  0  0
  6 25  1  0  0  0
  6 95  1  0  0  0
  6 96  1  0  0  0
  7  8  2  0  0  0
  7 26  1  0  0  0
  7 29  1  0  0  0
  8  9  1  0  0  0
  8 22  1  0  0  0
  9 10  1  0  0  0
  9 27  2  0  0  0
 10 11  2  0  0  0
 10 15  1  0  0  0
 11 12  1  0  0  0
 11 97  1  0  0  0
 12 13  2  0  0  0
 12 98  1  0  0  0
 13 14  1  0  0  0
 13 31  1  0  0  0
 14 15  2  0  0  0
 14 99  1  0  0  0
 15100  1  0  0  0
 16 17  2  0  0  0
 16 21  1  0  0  0
 16 31  1  0  0  0
 17 18  1  0  0  0
 17101  1  0  0  0
 18 19  2  0  0  0
 18102  1  0  0  0
 19 20  1  0  0  0
 19 24  1  0  0  0
 20 21  2  0  0  0
 20103  1  0  0  0
 21 23  1  0  0  0
 22 28  1  0  0  0
 22 32  2  0  0  0
 26 27  1  0  0  0
 28104  1  0  0  0
 28105  1  0  0  0
 29106  1  0  0  0
 29107  1  0  0  0
 33 34  1  0  0  0
 33 66  1  0  0  0
 33 70  2  0  0  0
 34 36  1  0  0  0
 34 59  1  0  0  0
 34108  1  0  0  0
 35 44  2  0  0  0
 35 45  1  0  0  0
 35 68  1  0  0  0
 36 56  1  0  0  0
 36109  1  0  0  0
 37 39  1  0  0  0
 37 47  1  0  0  0
 37 66  1  0  0  0
 37110  1  0  0  0
 38 43  2  0  0  0
 38 46  1  0  0  0
 38 47  1  0  0  0
 39 64  1  0  0  0
 39 67  2  0  0  0
 40 52  1  0  0  0
 40 53  2  0  0  0
 40 58  1  0  0  0
 41111  1  0  0  0
 41112  1  0  0  0
 41113  1  0  0  0
 41 48  1  0  0  0
 42 43  1  0  0  0
 42 66  1  0  0  0
 42114  1  0  0  0
 42115  1  0  0  0
 43 44  1  0  0  0
 44116  1  0  0  0
 45 46  2  0  0  0
 45117  1  0  0  0
 46118  1  0  0  0
 47119  1  0  0  0
 47120  1  0  0  0
 48 56  1  0  0  0
 48 65  1  0  0  0
 48121  1  0  0  0
 49 50  1  0  0  0
 49 53  1  0  0  0
 49 64  1  0  0  0
 49122  1  0  0  0
 50 51  1  0  0  0
 50123  1  0  0  0
 50124  1  0  0  0
 51 52  1  0  0  0
 51125  1  0  0  0
 51126  1  0  0  0
 52127  1  0  0  0
 52128  1  0  0  0
 53 54  1  0  0  0
 54 55  2  0  0  0
 54129  1  0  0  0
 55 57  1  0  0  0
 55130  1  0  0  0
 56 69  2  0  0  0
 57 58  2  0  0  0
 57131  1  0  0  0
 58132  1  0  0  0
 59 60  1  0  0  0
 59 61  1  0  0  0
 59 62  1  0  0  0
 60133  1  0  0  0
 60134  1  0  0  0
 60135  1  0  0  0
 61136  1  0  0  0
 61137  1  0  0  0
 61138  1  0  0  0
 62139  1  0  0  0
 62140  1  0  0  0
 62141  1  0  0  0
 63 65  1  0  0  0
 63142  1  0  0  0
 63143  1  0  0  0
 63144  1  0  0  0
 64145  1  0  0  0
 65146  1  0  0  0
 68 86  1  0  0  0
 71 72  2  0  0  0
 71 73  1  0  0  0
 71147  1  0  0  0
 72 75  1  0  0  0
 72148  1  0  0  0
 73 76  2  0  0  0
 73149  1  0  0  0
 74 75  2  0  0  0
 74 76  1  0  0  0
 74 80  1  0  0  0
 75 84  1  0  0  0
 76 85  1  0  0  0
 77 78  2  0  0  0
 77 79  1  0  0  0
 77150  1  0  0  0
 78 82  1  0  0  0
 78151  1  0  0  0
 79 86  1  0  0  0
 79 87  2  0  0  0
 80152  1  0  0  0
 80153  1  0  0  0
 80154  1  0  0  0
 81 83  1  0  0  0
 81155  1  0  0  0
 81156  1  0  0  0
 81157  1  0  0  0
 82 85  1  0  0  0
 82158  1  0  0  0
 82159  1  0  0  0
 83 86  1  0  0  0
 83160  1  0  0  0
 83161  1  0  0  0
 84162  1  0  0  0
 85163  1  0  0  0
M  ISO  4   1 100  68 101  84 100  86 101
M  END
> <chiral flag>
0

> <version>
0

> <s_m_source_file>
/data/baiqing/PycharmProjects/Reinvent-master-3.2/result/LINK_invent/BTK/process_docking_weight1_custom_product_contain_oxygen_bond_distance_aromatic_linkinvent_7_9_3/rearranged_h_0062.sdf

> <i_m_source_file_index>
14

> <r_mmod_Potential_Energy-OPLS-2005>
-99.486083984375

> <r_mmod_Stretch_Energy-OPLS-2005>
33.2080001831055

> <r_mmod_Bend_Energy-OPLS-2005>
93.6724624633789

> <r_mmod_Torsional_Energy-OPLS-2005>
233.169067382812

> <r_mmod_Improper_Torsional_Energy-OPLS-2005>
9.07187557220459

> <r_mmod_Van_der_Waal_Energy-OPLS-2005>
163.363494873047

> <r_mmod_Electrostatic_Energy-OPLS-2005>
-406.288330078125

> <r_mmod_Solvation_Energy-OPLS-2005>
-235.51904296875

> <b_mmod_Minimization_Converged-OPLS-2005>
0

> <r_mmod_RMS_Derivative-OPLS-2005>
3.55013513565063

$$$$
14
                    3D
 Structure written by MMmdl.
158167  0  0  1  0            999 V2000
  -30.6618  -14.7335   20.4497 C   0  0  0  0  0  0
  -30.4143  -12.4487   19.4752 C   0  0  0  0  0  0
  -29.5003  -12.5032   18.2334 C   0  0  0  0  0  0
  -28.0273  -12.3356   18.6462 C   0  0  0  0  0  0
  -27.6356  -13.2409   19.8451 C   0  0  2  0  0  0
  -28.6816  -13.1981   20.9805 C   0  0  0  0  0  0
  -25.2480  -13.8223   20.5702 C   0  0  0  0  0  0
  -24.1787  -13.0449   20.9211 C   0  0  0  0  0  0
  -24.6399  -11.6934   20.8758 C   0  0  0  0  0  0
  -23.9081  -10.4299   21.0414 C   0  0  0  0  0  0
  -24.3630   -9.4205   21.9185 C   0  0  0  0  0  0
  -23.6303   -8.2241   22.0756 C   0  0  0  0  0  0
  -22.4282   -8.0288   21.3548 C   0  0  0  0  0  0
  -21.9919   -9.0259   20.4643 C   0  0  0  0  0  0
  -22.7257  -10.2136   20.3053 C   0  0  0  0  0  0
  -21.6850   -6.0738   22.5281 C   0  0  0  0  0  0
  -21.4016   -6.5644   23.8217 C   0  0  0  0  0  0
  -21.3658   -5.6799   24.9178 C   0  0  0  0  0  0
  -21.6039   -4.3061   24.7225 C   0  0  0  0  0  0
  -21.8820   -3.8148   23.4350 C   0  0  0  0  0  0
  -21.9196   -4.6966   22.3405 C   0  0  0  0  0  0
  -22.7804  -13.5214   21.1875 C   0  0  0  0  0  0
  -22.1661   -4.2153   21.0982 F   0  0  0  0  0  0
  -21.5628   -3.4545   25.7734 F   0  0  0  0  0  0
  -29.9822  -13.5346   20.3902 N   0  0  0  0  0  0
  -26.2907  -12.9451   20.3270 N   0  0  0  0  0  0
  -25.9329  -11.6582   20.5761 N   0  0  0  0  0  0
  -22.0451  -12.8193   22.0425 N   0  0  0  0  0  0
  -25.4167  -15.1950   20.4128 N   0  0  0  0  0  0
  -31.8599  -14.7198   20.1672 O   0  0  0  0  0  0
  -21.6646   -6.8885   21.4246 O   0  0  0  0  0  0
  -22.3477  -14.5516   20.6730 O   0  0  0  0  0  0
  -24.6305  -31.8561   23.1999 C   0  0  0  0  0  0
  -25.9139  -32.4762   23.8339 C   0  0  1  0  0  0
  -27.2070  -27.2559   20.1259 C   0  0  0  0  0  0
  -25.5947  -33.8566   24.2262 N   0  0  0  0  0  0
  -23.4266  -30.4830   21.5417 C   0  0  2  0  0  0
  -24.8722  -28.9370   20.1061 C   0  0  0  0  0  0
  -22.7508  -29.4605   22.4876 C   0  0  0  0  0  0
  -18.0294  -28.1400   22.8487 C   0  0  0  0  0  0
  -24.1488  -36.7286   23.2639 C   0  0  0  0  0  0
  -25.9742  -30.7676   21.3815 C   0  0  0  0  0  0
  -26.0429  -29.3904   20.7250 C   0  0  0  0  0  0
  -27.2096  -28.5593   20.7313 C   0  0  0  0  0  0
  -26.0190  -26.8905   19.4493 C   0  0  0  0  0  0
  -24.8651  -27.6948   19.4601 C   0  0  0  0  0  0
  -23.6462  -29.8254   20.1552 C   0  0  0  0  0  0
  -25.4114  -36.3076   24.0323 C   0  0  1  0  0  0
  -20.5898  -28.3697   23.1273 C   0  0  2  0  0  0
  -20.6789  -26.9416   22.5411 C   0  0  0  0  0  0
  -19.5761  -26.6384   21.5221 C   0  0  0  0  0  0
  -18.1936  -26.7952   22.1611 C   0  0  0  0  0  0
  -19.1545  -28.8863   23.2883 C   0  0  0  0  0  0
  -18.9469  -30.1467   23.8902 C   0  0  0  0  0  0
  -17.6465  -30.6605   24.0560 C   0  0  0  0  0  0
  -25.9058  -34.9453   23.5092 C   0  0  0  0  0  0
  -16.5357  -29.9100   23.6335 C   0  0  0  0  0  0
  -16.7274  -28.6516   23.0361 C   0  0  0  0  0  0
  -26.4524  -31.6579   25.0718 C   0  0  0  0  0  0
  -25.3748  -31.3719   26.1433 C   0  0  0  0  0  0
  -27.0365  -30.3004   24.6175 C   0  0  0  0  0  0
  -27.6074  -32.4320   25.7491 C   0  0  0  0  0  0
  -27.5583  -37.1790   24.8463 C   0  0  0  0  0  0
  -21.4203  -29.3059   22.3654 N   0  0  0  0  0  0
  -26.4283  -37.3783   23.9423 N   0  0  0  0  0  0
  -24.6965  -31.0531   22.0981 N   0  0  0  0  0  0
  -23.4218  -28.8136   23.2961 O   0  0  0  0  0  0
  -28.2955  -26.3531   20.2214 O   0  0  0  0  0  0
  -26.5621  -34.8928   22.4657 O   0  0  0  0  0  0
  -23.5454  -32.1365   23.7304 O   0  0  0  0  0  0
  -32.1842  -18.9481   19.7743 C   0  0  0  0  0  0
  -31.3456  -20.0576   19.9314 C   0  0  0  0  0  0
  -31.7233  -17.6436   20.0066 C   0  0  0  0  0  0
  -29.5525  -18.5506   20.6037 C   0  0  0  0  0  0
  -30.0011  -19.9240   20.3446 C   0  0  0  0  0  0
  -30.3962  -17.3633   20.4219 C   0  0  0  0  0  0
  -29.4336  -22.4323   19.9374 C   0  0  0  0  0  0
  -27.8545  -22.8863   21.6080 C   0  0  0  0  0  0
  -28.3256  -21.4013   21.6588 C   0  0  0  0  0  0
  -28.8360  -23.6802   20.7093 C   0  0  1  0  0  0
  -29.9680  -24.2962   21.5581 C   0  0  0  0  0  0
  -28.1494  -24.8925   19.8611 C   0  0  0  0  0  0
  -29.2433  -21.1996   20.5429 N   0  0  0  0  0  0
  -29.9676  -15.9356   20.6250 N   0  0  0  0  0  0
  -30.0195  -22.5913   18.8618 O   0  0  0  0  0  0
  -31.4574  -12.5408   19.1680 H   0  0  0  0  0  0
  -30.3388  -11.4781   19.9685 H   0  0  0  0  0  0
  -29.7796  -11.7259   17.5210 H   0  0  0  0  0  0
  -29.6326  -13.4546   17.7171 H   0  0  0  0  0  0
  -27.8789  -11.2880   18.9094 H   0  0  0  0  0  0
  -27.3715  -12.5304   17.7959 H   0  0  0  0  0  0
  -27.6243  -14.2585   19.4549 H   0  0  0  0  0  0
  -28.7142  -12.2096   21.4411 H   0  0  0  0  0  0
  -28.4219  -13.9024   21.7722 H   0  0  0  0  0  0
  -25.2774   -9.5683   22.4758 H   0  0  0  0  0  0
  -24.0013   -7.4631   22.7477 H   0  0  0  0  0  0
  -21.0849   -8.8774   19.8944 H   0  0  0  0  0  0
  -22.3715  -10.9673   19.6156 H   0  0  0  0  0  0
  -21.2005   -7.6153   23.9721 H   0  0  0  0  0  0
  -21.1476   -6.0526   25.9082 H   0  0  0  0  0  0
  -22.0599   -2.7610   23.2847 H   0  0  0  0  0  0
  -22.4081  -11.9850   22.4787 H   0  0  0  0  0  0
  -21.1064  -13.1204   22.2643 H   0  0  0  0  0  0
  -24.6485  -15.8494   20.5200 H   0  0  0  0  0  0
  -26.2651  -15.6336   20.0770 H   0  0  0  0  0  0
  -26.7189  -32.5414   23.1066 H   0  0  0  0  0  0
  -25.0114  -33.9714   25.0420 H   0  0  0  0  0  0
  -22.7227  -31.3055   21.3982 H   0  0  0  0  0  0
  -23.3769  -35.9602   23.3289 H   0  0  0  0  0  0
  -24.3590  -36.8915   22.2061 H   0  0  0  0  0  0
  -23.7225  -37.6476   23.6673 H   0  0  0  0  0  0
  -26.1112  -31.5286   20.6123 H   0  0  0  0  0  0
  -26.8552  -30.8186   22.0089 H   0  0  0  0  0  0
  -28.1009  -28.8968   21.2415 H   0  0  0  0  0  0
  -25.9303  -25.9659   18.9027 H   0  0  0  0  0  0
  -23.9711  -27.3508   18.9598 H   0  0  0  0  0  0
  -23.7782  -30.6074   19.4059 H   0  0  0  0  0  0
  -22.7628  -29.2665   19.8396 H   0  0  0  0  0  0
  -25.1296  -36.1915   25.0810 H   0  0  0  0  0  0
  -20.9991  -28.3279   24.1397 H   0  0  0  0  0  0
  -20.5715  -26.2297   23.3600 H   0  0  0  0  0  0
  -21.6648  -26.7458   22.1186 H   0  0  0  0  0  0
  -19.6927  -25.6300   21.1245 H   0  0  0  0  0  0
  -19.6730  -27.3195   20.6763 H   0  0  0  0  0  0
  -17.4217  -26.6716   21.3998 H   0  0  0  0  0  0
  -18.0312  -26.0100   22.8998 H   0  0  0  0  0  0
  -19.7945  -30.7281   24.2273 H   0  0  0  0  0  0
  -17.5025  -31.6291   24.5158 H   0  0  0  0  0  0
  -15.5360  -30.3002   23.7682 H   0  0  0  0  0  0
  -15.8662  -28.0835   22.7085 H   0  0  0  0  0  0
  -24.5963  -30.7009   25.7781 H   0  0  0  0  0  0
  -24.8901  -32.2885   26.4815 H   0  0  0  0  0  0
  -25.8087  -30.8955   27.0232 H   0  0  0  0  0  0
  -26.2935  -29.6740   24.1226 H   0  0  0  0  0  0
  -27.4109  -29.7265   25.4661 H   0  0  0  0  0  0
  -27.8791  -30.4302   23.9372 H   0  0  0  0  0  0
  -27.2698  -33.3649   26.2022 H   0  0  0  0  0  0
  -28.3931  -32.6817   25.0346 H   0  0  0  0  0  0
  -28.0695  -31.8460   26.5448 H   0  0  0  0  0  0
  -28.2575  -38.0113   24.7556 H   0  0  0  0  0  0
  -28.1100  -36.2644   24.6228 H   0  0  0  0  0  0
  -27.2309  -37.1371   25.8866 H   0  0  0  0  0  0
  -20.9363  -29.8802   21.6889 H   0  0  0  0  0  0
  -26.0152  -38.2844   24.1470 H   0  0  0  0  0  0
  -33.2102  -19.1009   19.4701 H   0  0  0  0  0  0
  -31.7800  -21.0315   19.7532 H   0  0  0  0  0  0
  -32.4600  -16.8767   19.8439 H   0  0  0  0  0  0
  -28.5369  -18.4068   20.9427 H   0  0  0  0  0  0
  -27.7703  -23.3112   22.6077 H   0  0  0  0  0  0
  -26.8516  -22.9092   21.1822 H   0  0  0  0  0  0
  -27.4852  -20.7092   21.6005 H   0  0  0  0  0  0
  -28.8577  -21.2011   22.5888 H   0  0  0  0  0  0
  -30.5451  -23.5412   22.0927 H   0  0  0  0  0  0
  -29.5658  -24.9860   22.3011 H   0  0  0  0  0  0
  -30.6618  -24.8597   20.9338 H   0  0  0  0  0  0
  -27.1003  -24.6202   19.8363 H   0  0  0  0  0  0
  -28.4781  -24.8182   18.8236 H   0  0  0  0  0  0
  -28.9928  -15.8092   20.8510 H   0  0  0  0  0  0
  1 25  1  0  0  0
  1 30  2  0  0  0
  1 84  1  0  0  0
  2  3  1  0  0  0
  2 25  1  0  0  0
  2 86  1  0  0  0
  2 87  1  0  0  0
  3  4  1  0  0  0
  3 88  1  0  0  0
  3 89  1  0  0  0
  4  5  1  0  0  0
  4 90  1  0  0  0
  4 91  1  0  0  0
  5  6  1  0  0  0
  5 26  1  0  0  0
  5 92  1  0  0  0
  6 25  1  0  0  0
  6 93  1  0  0  0
  6 94  1  0  0  0
  7  8  2  0  0  0
  7 26  1  0  0  0
  7 29  1  0  0  0
  8  9  1  0  0  0
  8 22  1  0  0  0
  9 10  1  0  0  0
  9 27  2  0  0  0
 10 11  2  0  0  0
 10 15  1  0  0  0
 11 12  1  0  0  0
 11 95  1  0  0  0
 12 13  2  0  0  0
 12 96  1  0  0  0
 13 14  1  0  0  0
 13 31  1  0  0  0
 14 15  2  0  0  0
 14 97  1  0  0  0
 15 98  1  0  0  0
 16 17  2  0  0  0
 16 21  1  0  0  0
 16 31  1  0  0  0
 17 18  1  0  0  0
 17 99  1  0  0  0
 18 19  2  0  0  0
 18100  1  0  0  0
 19 20  1  0  0  0
 19 24  1  0  0  0
 20 21  2  0  0  0
 20101  1  0  0  0
 21 23  1  0  0  0
 22 28  1  0  0  0
 22 32  2  0  0  0
 26 27  1  0  0  0
 28102  1  0  0  0
 28103  1  0  0  0
 29104  1  0  0  0
 29105  1  0  0  0
 33 34  1  0  0  0
 33 66  1  0  0  0
 33 70  2  0  0  0
 34 36  1  0  0  0
 34 59  1  0  0  0
 34106  1  0  0  0
 35 44  2  0  0  0
 35 45  1  0  0  0
 35 68  1  0  0  0
 36 56  1  0  0  0
 36107  1  0  0  0
 37 39  1  0  0  0
 37 47  1  0  0  0
 37 66  1  0  0  0
 37108  1  0  0  0
 38 43  2  0  0  0
 38 46  1  0  0  0
 38 47  1  0  0  0
 39 64  1  0  0  0
 39 67  2  0  0  0
 40 52  1  0  0  0
 40 53  2  0  0  0
 40 58  1  0  0  0
 41109  1  0  0  0
 41110  1  0  0  0
 41111  1  0  0  0
 41 48  1  0  0  0
 42 43  1  0  0  0
 42 66  1  0  0  0
 42112  1  0  0  0
 42113  1  0  0  0
 43 44  1  0  0  0
 44114  1  0  0  0
 45 46  2  0  0  0
 45115  1  0  0  0
 46116  1  0  0  0
 47117  1  0  0  0
 47118  1  0  0  0
 48 56  1  0  0  0
 48 65  1  0  0  0
 48119  1  0  0  0
 49 50  1  0  0  0
 49 53  1  0  0  0
 49 64  1  0  0  0
 49120  1  0  0  0
 50 51  1  0  0  0
 50121  1  0  0  0
 50122  1  0  0  0
 51 52  1  0  0  0
 51123  1  0  0  0
 51124  1  0  0  0
 52125  1  0  0  0
 52126  1  0  0  0
 53 54  1  0  0  0
 54 55  2  0  0  0
 54127  1  0  0  0
 55 57  1  0  0  0
 55128  1  0  0  0
 56 69  2  0  0  0
 57 58  2  0  0  0
 57129  1  0  0  0
 58130  1  0  0  0
 59 60  1  0  0  0
 59 61  1  0  0  0
 59 62  1  0  0  0
 60131  1  0  0  0
 60132  1  0  0  0
 60133  1  0  0  0
 61134  1  0  0  0
 61135  1  0  0  0
 61136  1  0  0  0
 62137  1  0  0  0
 62138  1  0  0  0
 62139  1  0  0  0
 63 65  1  0  0  0
 63140  1  0  0  0
 63141  1  0  0  0
 63142  1  0  0  0
 64143  1  0  0  0
 65144  1  0  0  0
 68 82  1  0  0  0
 71 72  2  0  0  0
 71 73  1  0  0  0
 71145  1  0  0  0
 72 75  1  0  0  0
 72146  1  0  0  0
 73 76  2  0  0  0
 73147  1  0  0  0
 74 75  2  0  0  0
 74 76  1  0  0  0
 74148  1  0  0  0
 75 83  1  0  0  0
 76 84  1  0  0  0
 77 80  1  0  0  0
 77 83  1  0  0  0
 77 85  2  0  0  0
 78 79  1  0  0  0
 78 80  1  0  0  0
 78149  1  0  0  0
 78150  1  0  0  0
 79 83  1  0  0  0
 79151  1  0  0  0
 79152  1  0  0  0
 80 81  1  0  0  0
 80 82  1  0  0  0
 81153  1  0  0  0
 81154  1  0  0  0
 81155  1  0  0  0
 82156  1  0  0  0
 82157  1  0  0  0
 84158  1  0  0  0
M  ISO  4   1 100  68 101  82 101  84 100
M  END
> <chiral flag>
0

> <version>
0

> <s_m_source_file>
/data/baiqing/PycharmProjects/Reinvent-master-3.2/result/LINK_invent/BTK/process_docking_weight1_custom_product_contain_oxygen_bond_distance_aromatic_linkinvent_7_9_3/rearranged_h_0062.sdf

> <i_m_source_file_index>
15

> <r_mmod_Potential_Energy-OPLS-2005>
331.089599609375

> <r_mmod_Stretch_Energy-OPLS-2005>
137.664855957031

> <r_mmod_Bend_Energy-OPLS-2005>
199.973968505859

> <r_mmod_Torsional_Energy-OPLS-2005>
289.751007080078

> <r_mmod_Improper_Torsional_Energy-OPLS-2005>
4.75251340866089

> <r_mmod_Van_der_Waal_Energy-OPLS-2005>
156.050430297852

> <r_mmod_Electrostatic_Energy-OPLS-2005>
-326.835571289062

> <r_mmod_Solvation_Energy-OPLS-2005>
-218.578140258789

> <b_mmod_Minimization_Converged-OPLS-2005>
0

> <r_mmod_RMS_Derivative-OPLS-2005>
2.0764217376709

$$$$
15
                    3D
 Structure written by MMmdl.
164173  0  0  1  0            999 V2000
  -28.4905  -16.1897   20.8678 C   0  0  0  0  0  0
  -29.9659  -13.8352   19.8390 C   0  0  0  0  0  0
  -29.4829  -12.9677   18.5918 C   0  0  0  0  0  0
  -28.1461  -12.2773   18.8875 C   0  0  0  0  0  0
  -27.4013  -13.2008   19.8494 C   0  0  2  0  0  0
  -28.1496  -13.5332   21.1331 C   0  0  0  0  0  0
  -25.1193  -13.7630   20.5421 C   0  0  0  0  0  0
  -24.0798  -12.9961   20.9259 C   0  0  0  0  0  0
  -24.5549  -11.6500   20.8826 C   0  0  0  0  0  0
  -23.8519  -10.4003   21.0557 C   0  0  0  0  0  0
  -24.3321   -9.4055   21.9294 C   0  0  0  0  0  0
  -23.6128   -8.2060   22.0796 C   0  0  0  0  0  0
  -22.4127   -8.0088   21.3555 C   0  0  0  0  0  0
  -21.9632   -8.9994   20.4659 C   0  0  0  0  0  0
  -22.6809  -10.1903   20.3112 C   0  0  0  0  0  0
  -21.6790   -6.0627   22.5310 C   0  0  0  0  0  0
  -21.3943   -6.5562   23.8226 C   0  0  0  0  0  0
  -21.3614   -5.6738   24.9202 C   0  0  0  0  0  0
  -21.6039   -4.3006   24.7269 C   0  0  0  0  0  0
  -21.8831   -3.8081   23.4396 C   0  0  0  0  0  0
  -21.9182   -4.6878   22.3443 C   0  0  0  0  0  0
  -22.7060  -13.5015   21.2013 C   0  0  0  0  0  0
  -22.1666   -4.2071   21.1025 F   0  0  0  0  0  0
  -21.5643   -3.4501   25.7790 F   0  0  0  0  0  0
  -28.8377  -14.6857   20.6323 N   0  0  0  0  0  0
  -26.1143  -12.8623   20.2476 N   0  0  0  0  0  0
  -25.8269  -11.5901   20.5422 N   0  0  0  0  0  0
  -21.9745  -12.8176   22.0664 N   0  0  0  0  0  0
  -25.2820  -15.1356   20.4089 N   0  0  0  0  0  0
  -29.7492  -16.4683   20.6788 O   0  0  0  0  0  0
  -21.6526   -6.8708   21.4257 O   0  0  0  0  0  0
  -22.2984  -14.5436   20.6878 O   0  0  0  0  0  0
  -24.6603  -31.9645   23.2357 C   0  0  0  0  0  0
  -25.9576  -32.5134   23.8730 C   0  0  1  0  0  0
  -26.0391  -27.2491   20.3688 C   0  0  0  0  0  0
  -25.6501  -33.8906   24.2633 N   0  0  0  0  0  0
  -23.4481  -30.6832   21.5516 C   0  0  2  0  0  0
  -24.8756  -29.4278   19.7578 C   0  0  0  0  0  0
  -22.9846  -29.5959   22.5706 C   0  0  0  0  0  0
  -19.2017  -26.7608   22.4561 C   0  0  0  0  0  0
  -24.1519  -36.7389   23.2565 C   0  0  0  0  0  0
  -25.9971  -30.8436   21.4614 C   0  0  0  0  0  0
  -25.9161  -29.5592   20.6748 C   0  0  0  0  0  0
  -26.6998  -28.4136   20.8832 C   0  0  0  0  0  0
  -25.8524  -27.3007   19.0188 C   0  0  0  0  0  0
  -24.9698  -28.3727   18.7879 C   0  0  0  0  0  0
  -23.6732  -30.3228   20.0327 C   0  0  0  0  0  0
  -25.4145  -36.3244   24.0302 C   0  0  1  0  0  0
  -21.3038  -28.0329   23.4638 C   0  0  2  0  0  0
  -22.3596  -26.7246   23.0531 C   0  0  0  0  0  0
  -22.3677  -25.4628   21.7906 C   0  0  0  0  0  0
  -20.8611  -25.1722   21.0545 C   0  0  0  0  0  0
  -19.7496  -27.9433   23.2997 C   0  0  0  0  0  0
  -19.1603  -29.2156   23.8167 C   0  0  0  0  0  0
  -17.8310  -29.6167   23.6873 C   0  0  0  0  0  0
  -25.9202  -34.9648   23.5142 C   0  0  0  0  0  0
  -17.1102  -28.6141   23.0262 C   0  0  0  0  0  0
  -17.7393  -27.3594   22.4634 C   0  0  0  0  0  0
  -26.4580  -31.6755   25.1098 C   0  0  0  0  0  0
  -25.3571  -31.4072   26.1605 C   0  0  0  0  0  0
  -27.0369  -30.3086   24.6789 C   0  0  0  0  0  0
  -27.6119  -32.4367   25.7954 C   0  0  0  0  0  0
  -27.5630  -37.1889   24.8412 C   0  0  0  0  0  0
  -21.7119  -29.2838   22.7458 N   0  0  0  0  0  0
  -26.4299  -37.3959   23.9434 N   0  0  0  0  0  0
  -24.7169  -31.2287   22.0979 N   0  0  0  0  0  0
  -23.8025  -29.0980   23.3371 O   0  0  0  0  0  0
  -24.6699  -27.0260   20.8542 O   0  0  0  0  0  0
  -26.5508  -34.8997   22.4551 O   0  0  0  0  0  0
  -23.5793  -32.2421   23.7778 O   0  0  0  0  0  0
  -23.9014  -21.0510   22.8108 C   0  0  0  0  0  0
  -25.1007  -19.8935   22.5496 C   0  0  0  0  0  0
  -23.0103  -20.5167   21.1175 C   0  0  0  0  0  0
  -24.1991  -19.3201   20.8845 C   0  0  0  0  0  0
  -22.5452  -21.6768   22.1661 C   0  0  0  0  0  0
  -25.5927  -18.7534   21.5023 C   0  0  0  0  0  0
  -19.6030  -23.1285   21.7254 C   0  0  0  0  0  0
  -18.6279  -24.6081   20.8430 C   0  0  0  0  0  0
  -19.2895  -26.4622   20.0675 C   0  0  0  0  0  0
  -20.6236  -24.9658   23.1858 C   0  0  0  0  0  0
  -20.9791  -27.2854   21.1092 C   0  0  1  0  0  0
  -22.0450  -20.6206   19.9441 C   0  0  0  0  0  0
  -23.8887  -18.3929   19.7200 C   0  0  0  0  0  0
  -22.9021  -27.3879   20.3752 C   0  0  0  0  0  0
  -21.0179  -23.1121   22.4308 N   0  0  0  0  0  0
  -26.9612  -17.1936   21.1261 N   0  0  0  0  0  0
  -19.0488  -22.0342   21.6000 O   0  0  0  0  0  0
  -30.6931  -14.5521   19.4649 H   0  0  0  0  0  0
  -30.5566  -13.2260   20.5271 H   0  0  0  0  0  0
  -30.2495  -12.2553   18.2803 H   0  0  0  0  0  0
  -29.3396  -13.6641   17.7634 H   0  0  0  0  0  0
  -28.3257  -11.3200   19.3748 H   0  0  0  0  0  0
  -27.5738  -12.0979   17.9777 H   0  0  0  0  0  0
  -27.2229  -14.0823   19.2207 H   0  0  0  0  0  0
  -28.7412  -12.7057   21.5375 H   0  0  0  0  0  0
  -27.5031  -13.8403   21.9619 H   0  0  0  0  0  0
  -25.2468   -9.5649   22.4833 H   0  0  0  0  0  0
  -23.9867   -7.4480   22.7503 H   0  0  0  0  0  0
  -21.0564   -8.8461   19.8998 H   0  0  0  0  0  0
  -22.3258  -10.9469   19.6251 H   0  0  0  0  0  0
  -21.1875   -7.6066   23.9698 H   0  0  0  0  0  0
  -21.1429   -6.0476   25.9095 H   0  0  0  0  0  0
  -22.0660   -2.7544   23.2924 H   0  0  0  0  0  0
  -22.3278  -11.9831   22.5076 H   0  0  0  0  0  0
  -21.0479  -13.1463   22.2960 H   0  0  0  0  0  0
  -24.4613  -15.7263   20.5176 H   0  0  0  0  0  0
  -26.0318  -15.5570   19.8774 H   0  0  0  0  0  0
  -26.7706  -32.5570   23.1497 H   0  0  0  0  0  0
  -25.0861  -34.0114   25.0913 H   0  0  0  0  0  0
  -22.6866  -31.4659   21.5659 H   0  0  0  0  0  0
  -23.3847  -35.9655   23.3133 H   0  0  0  0  0  0
  -24.3673  -36.9098   22.2005 H   0  0  0  0  0  0
  -23.7157  -37.6531   23.6612 H   0  0  0  0  0  0
  -26.3184  -31.6426   20.7920 H   0  0  0  0  0  0
  -26.8092  -30.6916   22.1605 H   0  0  0  0  0  0
  -27.3974  -28.3689   21.7068 H   0  0  0  0  0  0
  -25.6857  -26.4031   18.4408 H   0  0  0  0  0  0
  -24.2683  -28.3125   17.9693 H   0  0  0  0  0  0
  -23.9447  -31.2633   19.5502 H   0  0  0  0  0  0
  -22.7476  -30.0983   19.5065 H   0  0  0  0  0  0
  -25.1275  -36.2142   25.0797 H   0  0  0  0  0  0
  -21.4739  -28.2391   24.5229 H   0  0  0  0  0  0
  -22.5682  -26.2709   24.0207 H   0  0  0  0  0  0
  -23.3924  -26.9978   22.9588 H   0  0  0  0  0  0
  -22.7815  -24.6251   22.3487 H   0  0  0  0  0  0
  -23.2198  -25.2784   21.1398 H   0  0  0  0  0  0
  -21.2734  -25.4206   20.0520 H   0  0  0  0  0  0
  -20.8079  -24.3881   20.2830 H   0  0  0  0  0  0
  -19.8021  -29.9125   24.3414 H   0  0  0  0  0  0
  -17.4146  -30.5409   24.0688 H   0  0  0  0  0  0
  -16.0550  -28.7704   22.8560 H   0  0  0  0  0  0
  -17.0265  -26.7918   21.8812 H   0  0  0  0  0  0
  -24.5663  -30.7616   25.7745 H   0  0  0  0  0  0
  -24.8900  -32.3362   26.4915 H   0  0  0  0  0  0
  -25.7599  -30.9180   27.0480 H   0  0  0  0  0  0
  -26.3021  -29.6820   24.1740 H   0  0  0  0  0  0
  -27.3747  -29.7418   25.5476 H   0  0  0  0  0  0
  -27.9074  -30.4167   24.0313 H   0  0  0  0  0  0
  -27.2756  -33.3624   26.2636 H   0  0  0  0  0  0
  -28.3978  -32.7000   25.0853 H   0  0  0  0  0  0
  -28.0729  -31.8419   26.5849 H   0  0  0  0  0  0
  -28.2506  -38.0328   24.7715 H   0  0  0  0  0  0
  -28.1277  -36.2892   24.5919 H   0  0  0  0  0  0
  -27.2391  -37.1139   25.8809 H   0  0  0  0  0  0
  -21.0040  -29.7676   22.2104 H   0  0  0  0  0  0
  -26.0174  -38.2996   24.1629 H   0  0  0  0  0  0
  -24.1045  -21.5520   23.7491 H   0  0  0  0  0  0
  -25.7601  -19.8745   23.4039 H   0  0  0  0  0  0
  -17.8388  -24.8007   21.5619 H   0  0  0  0  0  0
  -18.0730  -24.1329   20.0348 H   0  0  0  0  0  0
  -18.4737  -27.1802   20.0135 H   0  0  0  0  0  0
  -19.5436  -26.3412   19.0137 H   0  0  0  0  0  0
  -19.6128  -24.8117   23.5793 H   0  0  0  0  0  0
  -21.1070  -25.0015   24.1593 H   0  0  0  0  0  0
  -20.5533  -28.2878   21.0731 H   0  0  0  0  0  0
  -21.1136  -20.1134   20.1907 H   0  0  0  0  0  0
  -22.4278  -20.2312   19.0031 H   0  0  0  0  0  0
  -21.8343  -21.6652   19.7160 H   0  0  0  0  0  0
  -24.2807  -18.8122   18.7955 H   0  0  0  0  0  0
  -22.8257  -18.1765   19.6248 H   0  0  0  0  0  0
  -24.3569  -17.4240   19.8612 H   0  0  0  0  0  0
  -22.7482  -28.1607   19.6600 H   0  0  0  0  0  0
  -22.8879  -26.6457   19.5802 H   0  0  0  0  0  0
  -26.2995  -16.4339   20.9240 H   0  0  0  0  0  0
  1 25  1  0  0  0
  1 30  2  0  0  0
  1 86  1  0  0  0
  2  3  1  0  0  0
  2 25  1  0  0  0
  2 88  1  0  0  0
  2 89  1  0  0  0
  3  4  1  0  0  0
  3 90  1  0  0  0
  3 91  1  0  0  0
  4  5  1  0  0  0
  4 92  1  0  0  0
  4 93  1  0  0  0
  5  6  1  0  0  0
  5 26  1  0  0  0
  5 94  1  0  0  0
  6 25  1  0  0  0
  6 95  1  0  0  0
  6 96  1  0  0  0
  7  8  2  0  0  0
  7 26  1  0  0  0
  7 29  1  0  0  0
  8  9  1  0  0  0
  8 22  1  0  0  0
  9 10  1  0  0  0
  9 27  2  0  0  0
 10 11  2  0  0  0
 10 15  1  0  0  0
 11 12  1  0  0  0
 11 97  1  0  0  0
 12 13  2  0  0  0
 12 98  1  0  0  0
 13 14  1  0  0  0
 13 31  1  0  0  0
 14 15  2  0  0  0
 14 99  1  0  0  0
 15100  1  0  0  0
 16 17  2  0  0  0
 16 21  1  0  0  0
 16 31  1  0  0  0
 17 18  1  0  0  0
 17101  1  0  0  0
 18 19  2  0  0  0
 18102  1  0  0  0
 19 20  1  0  0  0
 19 24  1  0  0  0
 20 21  2  0  0  0
 20103  1  0  0  0
 21 23  1  0  0  0
 22 28  1  0  0  0
 22 32  2  0  0  0
 26 27  1  0  0  0
 28104  1  0  0  0
 28105  1  0  0  0
 29106  1  0  0  0
 29107  1  0  0  0
 33 34  1  0  0  0
 33 66  1  0  0  0
 33 70  2  0  0  0
 34 36  1  0  0  0
 34 59  1  0  0  0
 34108  1  0  0  0
 35 44  2  0  0  0
 35 45  1  0  0  0
 35 68  1  0  0  0
 36 56  1  0  0  0
 36109  1  0  0  0
 37 39  1  0  0  0
 37 47  1  0  0  0
 37 66  1  0  0  0
 37110  1  0  0  0
 38 43  2  0  0  0
 38 46  1  0  0  0
 38 47  1  0  0  0
 39 64  1  0  0  0
 39 67  2  0  0  0
 40 52  1  0  0  0
 40 53  2  0  0  0
 40 58  1  0  0  0
 41111  1  0  0  0
 41112  1  0  0  0
 41113  1  0  0  0
 41 48  1  0  0  0
 42 43  1  0  0  0
 42 66  1  0  0  0
 42114  1  0  0  0
 42115  1  0  0  0
 43 44  1  0  0  0
 44116  1  0  0  0
 45 46  2  0  0  0
 45117  1  0  0  0
 46118  1  0  0  0
 47119  1  0  0  0
 47120  1  0  0  0
 48 56  1  0  0  0
 48 65  1  0  0  0
 48121  1  0  0  0
 49 50  1  0  0  0
 49 53  1  0  0  0
 49 64  1  0  0  0
 49122  1  0  0  0
 50 51  1  0  0  0
 50123  1  0  0  0
 50124  1  0  0  0
 51 52  1  0  0  0
 51125  1  0  0  0
 51126  1  0  0  0
 52127  1  0  0  0
 52128  1  0  0  0
 53 54  1  0  0  0
 54 55  2  0  0  0
 54129  1  0  0  0
 55 57  1  0  0  0
 55130  1  0  0  0
 56 69  2  0  0  0
 57 58  2  0  0  0
 57131  1  0  0  0
 58132  1  0  0  0
 59 60  1  0  0  0
 59 61  1  0  0  0
 59 62  1  0  0  0
 60133  1  0  0  0
 60134  1  0  0  0
 60135  1  0  0  0
 61136  1  0  0  0
 61137  1  0  0  0
 61138  1  0  0  0
 62139  1  0  0  0
 62140  1  0  0  0
 62141  1  0  0  0
 63 65  1  0  0  0
 63142  1  0  0  0
 63143  1  0  0  0
 63144  1  0  0  0
 64145  1  0  0  0
 65146  1  0  0  0
 68 84  1  0  0  0
 71 72  2  0  0  0
 71 75  1  0  0  0
 71147  1  0  0  0
 72 76  1  0  0  0
 72148  1  0  0  0
 73 74  1  0  0  0
 73 75  2  0  0  0
 73 82  1  0  0  0
 74 76  2  0  0  0
 74 83  1  0  0  0
 75 85  1  0  0  0
 76 86  1  0  0  0
 77 78  1  0  0  0
 77 85  1  0  0  0
 77 87  2  0  0  0
 78 79  1  0  0  0
 78149  1  0  0  0
 78150  1  0  0  0
 79 81  1  0  0  0
 79151  1  0  0  0
 79152  1  0  0  0
 80 81  1  0  0  0
 80 85  1  0  0  0
 80153  1  0  0  0
 80154  1  0  0  0
 81 84  1  0  0  0
 81155  1  0  0  0
 82156  1  0  0  0
 82157  1  0  0  0
 82158  1  0  0  0
 83159  1  0  0  0
 83160  1  0  0  0
 83161  1  0  0  0
 84162  1  0  0  0
 84163  1  0  0  0
 86164  1  0  0  0
M  ISO  4   1 100  68 101  84 101  86 100
M  END
> <chiral flag>
0

> <version>
0

> <s_m_source_file>
/data/baiqing/PycharmProjects/Reinvent-master-3.2/result/LINK_invent/BTK/process_docking_weight1_custom_product_contain_oxygen_bond_distance_aromatic_linkinvent_7_9_3/rearranged_h_0062.sdf

> <i_m_source_file_index>
16

> <r_mmod_Potential_Energy-OPLS-2005>
23723.6953125

> <r_mmod_Stretch_Energy-OPLS-2005>
10367.05859375

> <r_mmod_Bend_Energy-OPLS-2005>
2361.99072265625

> <r_mmod_Torsional_Energy-OPLS-2005>
640.134582519531

> <r_mmod_Improper_Torsional_Energy-OPLS-2005>
51.4655494689941

> <r_mmod_Van_der_Waal_Energy-OPLS-2005>
2878.87646484375

> <r_mmod_Electrostatic_Energy-OPLS-2005>
-390.674163818359

> <r_mmod_Solvation_Energy-OPLS-2005>
-215.682632446289

> <b_mmod_Minimization_Converged-OPLS-2005>
0

> <r_mmod_RMS_Derivative-OPLS-2005>
12.9421243667603

$$$$
16
                    3D
 Structure written by MMmdl.
159168  0  0  1  0            999 V2000
  -30.6344  -14.6223   20.5291 C   0  0  0  0  0  0
  -30.4349  -12.3894   19.4512 C   0  0  0  0  0  0
  -29.5130  -12.5367   18.2216 C   0  0  0  0  0  0
  -28.0298  -12.3837   18.6201 C   0  0  0  0  0  0
  -27.6565  -13.2271   19.8708 C   0  0  2  0  0  0
  -28.6984  -13.0559   20.9977 C   0  0  0  0  0  0
  -25.2543  -13.8193   20.5703 C   0  0  0  0  0  0
  -24.1818  -13.0432   20.9179 C   0  0  0  0  0  0
  -24.6409  -11.6909   20.8706 C   0  0  0  0  0  0
  -23.9096  -10.4280   21.0372 C   0  0  0  0  0  0
  -24.3635   -9.4209   21.9165 C   0  0  0  0  0  0
  -23.6299   -8.2255   22.0751 C   0  0  0  0  0  0
  -22.4278   -8.0277   21.3543 C   0  0  0  0  0  0
  -21.9921   -9.0253   20.4644 C   0  0  0  0  0  0
  -22.7264  -10.2124   20.3038 C   0  0  0  0  0  0
  -21.6860   -6.0729   22.5279 C   0  0  0  0  0  0
  -21.4011   -6.5631   23.8206 C   0  0  0  0  0  0
  -21.3668   -5.6789   24.9172 C   0  0  0  0  0  0
  -21.6050   -4.3053   24.7222 C   0  0  0  0  0  0
  -21.8817   -3.8141   23.4342 C   0  0  0  0  0  0
  -21.9189   -4.6959   22.3404 C   0  0  0  0  0  0
  -22.7833  -13.5215   21.1841 C   0  0  0  0  0  0
  -22.1654   -4.2148   21.0980 F   0  0  0  0  0  0
  -21.5644   -3.4544   25.7738 F   0  0  0  0  0  0
  -30.0188  -13.4000   20.4442 N   0  0  0  0  0  0
  -26.3001  -12.9404   20.3337 N   0  0  0  0  0  0
  -25.9343  -11.6539   20.5728 N   0  0  0  0  0  0
  -22.0480  -12.8200   22.0396 N   0  0  0  0  0  0
  -25.4227  -15.1920   20.4162 N   0  0  0  0  0  0
  -31.7897  -14.7818   20.1269 O   0  0  0  0  0  0
  -21.6642   -6.8866   21.4237 O   0  0  0  0  0  0
  -22.3513  -14.5528   20.6695 O   0  0  0  0  0  0
  -24.6257  -31.8602   23.2047 C   0  0  0  0  0  0
  -25.9110  -32.4784   23.8370 C   0  0  1  0  0  0
  -27.2134  -27.3256   20.1134 C   0  0  0  0  0  0
  -25.5924  -33.8588   24.2274 N   0  0  0  0  0  0
  -23.4166  -30.4856   21.5492 C   0  0  2  0  0  0
  -24.8605  -28.9453   20.1096 C   0  0  0  0  0  0
  -22.7470  -29.4635   22.4980 C   0  0  0  0  0  0
  -18.0270  -28.1400   22.8520 C   0  0  0  0  0  0
  -24.1497  -36.7300   23.2636 C   0  0  0  0  0  0
  -25.9573  -30.7941   21.3722 C   0  0  0  0  0  0
  -26.0302  -29.4219   20.7169 C   0  0  0  0  0  0
  -27.2106  -28.6225   20.7112 C   0  0  0  0  0  0
  -26.0281  -26.9132   19.4635 C   0  0  0  0  0  0
  -24.8624  -27.6978   19.4714 C   0  0  0  0  0  0
  -23.6265  -29.8213   20.1632 C   0  0  0  0  0  0
  -25.4117  -36.3080   24.0318 C   0  0  1  0  0  0
  -20.5873  -28.3690   23.1327 C   0  0  2  0  0  0
  -20.6773  -26.9416   22.5440 C   0  0  0  0  0  0
  -19.5724  -26.6397   21.5268 C   0  0  0  0  0  0
  -18.1903  -26.7948   22.1669 C   0  0  0  0  0  0
  -19.1520  -28.8872   23.2913 C   0  0  0  0  0  0
  -18.9435  -30.1491   23.8908 C   0  0  0  0  0  0
  -17.6426  -30.6601   24.0599 C   0  0  0  0  0  0
  -25.9067  -34.9453   23.5095 C   0  0  0  0  0  0
  -16.5327  -29.9095   23.6351 C   0  0  0  0  0  0
  -16.7258  -28.6519   23.0366 C   0  0  0  0  0  0
  -26.4487  -31.6584   25.0727 C   0  0  0  0  0  0
  -25.3728  -31.3685   26.1447 C   0  0  0  0  0  0
  -27.0324  -30.3020   24.6164 C   0  0  0  0  0  0
  -27.6048  -32.4314   25.7496 C   0  0  0  0  0  0
  -27.5578  -37.1794   24.8444 C   0  0  0  0  0  0
  -21.4179  -29.3043   22.3730 N   0  0  0  0  0  0
  -26.4269  -37.3792   23.9423 N   0  0  0  0  0  0
  -24.6864  -31.0627   22.0995 N   0  0  0  0  0  0
  -23.4206  -28.8166   23.3050 O   0  0  0  0  0  0
  -28.3224  -26.4696   20.1380 O   0  0  0  0  0  0
  -26.5646  -34.8914   22.4666 O   0  0  0  0  0  0
  -23.5425  -32.1396   23.7385 O   0  0  0  0  0  0
  -29.2379  -19.3731   21.6438 C   0  0  0  0  0  0
  -30.5462  -19.1846   19.6351 C   0  0  0  0  0  0
  -29.2602  -17.9496   21.7834 C   0  0  0  0  0  0
  -29.9074  -20.0338   20.5821 C   0  0  0  0  0  0
  -29.9345  -17.1048   20.8475 C   0  0  0  0  0  0
  -30.5590  -17.7656   19.7519 C   0  0  0  0  0  0
  -31.2925  -22.0314   20.6603 C   0  0  0  0  0  0
  -31.4793  -23.5637   20.6420 C   0  0  0  0  0  0
  -28.8733  -22.4376   20.5069 C   0  0  0  0  0  0
  -29.1971  -23.9699   20.1971 C   0  0  1  0  0  0
  -28.5578  -17.3363   22.9850 C   0  0  0  0  0  0
  -28.0717  -25.0499   20.4883 C   0  0  0  0  0  0
  -30.0477  -21.4967   20.5178 N   0  0  0  0  0  0
  -29.8633  -15.6484   21.0023 N   0  0  0  0  0  0
  -32.3097  -21.3402   20.7923 O   0  0  0  0  0  0
  -30.3054  -24.2813   21.0212 O   0  0  0  0  0  0
  -31.1604  -17.0520   18.7722 F   0  0  0  0  0  0
  -31.4804  -12.5037   19.1598 H   0  0  0  0  0  0
  -30.3552  -11.3873   19.8746 H   0  0  0  0  0  0
  -29.7756  -11.7996   17.4628 H   0  0  0  0  0  0
  -29.6688  -13.5142   17.7616 H   0  0  0  0  0  0
  -27.8442  -11.3272   18.8120 H   0  0  0  0  0  0
  -27.3888  -12.6569   17.7812 H   0  0  0  0  0  0
  -27.6800  -14.2719   19.5591 H   0  0  0  0  0  0
  -28.7016  -12.0259   21.3576 H   0  0  0  0  0  0
  -28.4430  -13.6688   21.8638 H   0  0  0  0  0  0
  -25.2780   -9.5689   22.4741 H   0  0  0  0  0  0
  -24.0007   -7.4651   22.7475 H   0  0  0  0  0  0
  -21.0855   -8.8760   19.8955 H   0  0  0  0  0  0
  -22.3719  -10.9645   19.6128 H   0  0  0  0  0  0
  -21.1991   -7.6132   23.9720 H   0  0  0  0  0  0
  -21.1504   -6.0508   25.9073 H   0  0  0  0  0  0
  -22.0593   -2.7603   23.2851 H   0  0  0  0  0  0
  -22.4078  -11.9850   22.4780 H   0  0  0  0  0  0
  -21.1093  -13.1204   22.2588 H   0  0  0  0  0  0
  -24.6536  -15.8421   20.5296 H   0  0  0  0  0  0
  -26.2757  -15.6419   20.1075 H   0  0  0  0  0  0
  -26.7185  -32.5449   23.1131 H   0  0  0  0  0  0
  -25.0057  -33.9764   25.0400 H   0  0  0  0  0  0
  -22.7101  -31.3052   21.4092 H   0  0  0  0  0  0
  -23.3778  -35.9604   23.3228 H   0  0  0  0  0  0
  -24.3614  -36.9017   22.2071 H   0  0  0  0  0  0
  -23.7229  -37.6459   23.6728 H   0  0  0  0  0  0
  -26.0790  -31.5563   20.6026 H   0  0  0  0  0  0
  -26.8443  -30.8493   21.9925 H   0  0  0  0  0  0
  -28.1072  -28.9814   21.1956 H   0  0  0  0  0  0
  -25.9803  -25.9769   18.9297 H   0  0  0  0  0  0
  -23.9722  -27.3381   18.9730 H   0  0  0  0  0  0
  -23.7359  -30.5990   19.4058 H   0  0  0  0  0  0
  -22.7488  -29.2431   19.8670 H   0  0  0  0  0  0
  -25.1308  -36.1908   25.0808 H   0  0  0  0  0  0
  -20.9962  -28.3255   24.1454 H   0  0  0  0  0  0
  -20.5738  -26.2291   23.3633 H   0  0  0  0  0  0
  -21.6627  -26.7496   22.1176 H   0  0  0  0  0  0
  -19.6880  -25.6317   21.1274 H   0  0  0  0  0  0
  -19.6649  -27.3249   20.6828 H   0  0  0  0  0  0
  -17.4186  -26.6749   21.4062 H   0  0  0  0  0  0
  -18.0251  -26.0077   22.9039 H   0  0  0  0  0  0
  -19.7899  -30.7342   24.2249 H   0  0  0  0  0  0
  -17.4954  -31.6270   24.5205 H   0  0  0  0  0  0
  -15.5325  -30.2990   23.7662 H   0  0  0  0  0  0
  -15.8660  -28.0853   22.7058 H   0  0  0  0  0  0
  -24.5910  -30.7037   25.7749 H   0  0  0  0  0  0
  -24.8907  -32.2828   26.4923 H   0  0  0  0  0  0
  -25.8045  -30.8809   27.0194 H   0  0  0  0  0  0
  -26.2878  -29.6778   24.1212 H   0  0  0  0  0  0
  -27.4061  -29.7280   25.4654 H   0  0  0  0  0  0
  -27.8731  -30.4339   23.9349 H   0  0  0  0  0  0
  -27.2695  -33.3663   26.2005 H   0  0  0  0  0  0
  -28.3891  -32.6793   25.0329 H   0  0  0  0  0  0
  -28.0661  -31.8460   26.5466 H   0  0  0  0  0  0
  -28.2517  -38.0170   24.7600 H   0  0  0  0  0  0
  -28.1157  -36.2710   24.6127 H   0  0  0  0  0  0
  -27.2306  -37.1255   25.8842 H   0  0  0  0  0  0
  -20.9346  -29.8748   21.6933 H   0  0  0  0  0  0
  -26.0131  -38.2833   24.1501 H   0  0  0  0  0  0
  -28.7394  -19.9699   22.3962 H   0  0  0  0  0  0
  -31.0606  -19.6300   18.7970 H   0  0  0  0  0  0
  -31.8010  -23.8724   19.6468 H   0  0  0  0  0  0
  -32.2798  -23.8286   21.3328 H   0  0  0  0  0  0
  -28.1426  -22.0710   19.7846 H   0  0  0  0  0  0
  -28.3909  -22.3700   21.4812 H   0  0  0  0  0  0
  -29.4802  -24.0666   19.1458 H   0  0  0  0  0  0
  -28.2033  -18.1006   23.6774 H   0  0  0  0  0  0
  -29.2367  -16.6880   23.5417 H   0  0  0  0  0  0
  -27.6956  -16.7505   22.6656 H   0  0  0  0  0  0
  -27.8423  -25.0231   21.5536 H   0  0  0  0  0  0
  -27.1773  -24.6687   20.0022 H   0  0  0  0  0  0
  -29.0313  -15.3245   21.4678 H   0  0  0  0  0  0
  1 25  1  0  0  0
  1 30  2  0  0  0
  1 84  1  0  0  0
  2  3  1  0  0  0
  2 25  1  0  0  0
  2 88  1  0  0  0
  2 89  1  0  0  0
  3  4  1  0  0  0
  3 90  1  0  0  0
  3 91  1  0  0  0
  4  5  1  0  0  0
  4 92  1  0  0  0
  4 93  1  0  0  0
  5  6  1  0  0  0
  5 26  1  0  0  0
  5 94  1  0  0  0
  6 25  1  0  0  0
  6 95  1  0  0  0
  6 96  1  0  0  0
  7  8  2  0  0  0
  7 26  1  0  0  0
  7 29  1  0  0  0
  8  9  1  0  0  0
  8 22  1  0  0  0
  9 10  1  0  0  0
  9 27  2  0  0  0
 10 11  2  0  0  0
 10 15  1  0  0  0
 11 12  1  0  0  0
 11 97  1  0  0  0
 12 13  2  0  0  0
 12 98  1  0  0  0
 13 14  1  0  0  0
 13 31  1  0  0  0
 14 15  2  0  0  0
 14 99  1  0  0  0
 15100  1  0  0  0
 16 17  2  0  0  0
 16 21  1  0  0  0
 16 31  1  0  0  0
 17 18  1  0  0  0
 17101  1  0  0  0
 18 19  2  0  0  0
 18102  1  0  0  0
 19 20  1  0  0  0
 19 24  1  0  0  0
 20 21  2  0  0  0
 20103  1  0  0  0
 21 23  1  0  0  0
 22 28  1  0  0  0
 22 32  2  0  0  0
 26 27  1  0  0  0
 28104  1  0  0  0
 28105  1  0  0  0
 29106  1  0  0  0
 29107  1  0  0  0
 33 34  1  0  0  0
 33 66  1  0  0  0
 33 70  2  0  0  0
 34 36  1  0  0  0
 34 59  1  0  0  0
 34108  1  0  0  0
 35 44  2  0  0  0
 35 45  1  0  0  0
 35 68  1  0  0  0
 36 56  1  0  0  0
 36109  1  0  0  0
 37 39  1  0  0  0
 37 47  1  0  0  0
 37 66  1  0  0  0
 37110  1  0  0  0
 38 43  2  0  0  0
 38 46  1  0  0  0
 38 47  1  0  0  0
 39 64  1  0  0  0
 39 67  2  0  0  0
 40 52  1  0  0  0
 40 53  2  0  0  0
 40 58  1  0  0  0
 41111  1  0  0  0
 41112  1  0  0  0
 41113  1  0  0  0
 41 48  1  0  0  0
 42 43  1  0  0  0
 42 66  1  0  0  0
 42114  1  0  0  0
 42115  1  0  0  0
 43 44  1  0  0  0
 44116  1  0  0  0
 45 46  2  0  0  0
 45117  1  0  0  0
 46118  1  0  0  0
 47119  1  0  0  0
 47120  1  0  0  0
 48 56  1  0  0  0
 48 65  1  0  0  0
 48121  1  0  0  0
 49 50  1  0  0  0
 49 53  1  0  0  0
 49 64  1  0  0  0
 49122  1  0  0  0
 50 51  1  0  0  0
 50123  1  0  0  0
 50124  1  0  0  0
 51 52  1  0  0  0
 51125  1  0  0  0
 51126  1  0  0  0
 52127  1  0  0  0
 52128  1  0  0  0
 53 54  1  0  0  0
 54 55  2  0  0  0
 54129  1  0  0  0
 55 57  1  0  0  0
 55130  1  0  0  0
 56 69  2  0  0  0
 57 58  2  0  0  0
 57131  1  0  0  0
 58132  1  0  0  0
 59 60  1  0  0  0
 59 61  1  0  0  0
 59 62  1  0  0  0
 60133  1  0  0  0
 60134  1  0  0  0
 60135  1  0  0  0
 61136  1  0  0  0
 61137  1  0  0  0
 61138  1  0  0  0
 62139  1  0  0  0
 62140  1  0  0  0
 62141  1  0  0  0
 63 65  1  0  0  0
 63142  1  0  0  0
 63143  1  0  0  0
 63144  1  0  0  0
 64145  1  0  0  0
 65146  1  0  0  0
 68 82  1  0  0  0
 71 73  2  0  0  0
 71 74  1  0  0  0
 71147  1  0  0  0
 72 74  2  0  0  0
 72 76  1  0  0  0
 72148  1  0  0  0
 73 75  1  0  0  0
 73 81  1  0  0  0
 74 83  1  0  0  0
 75 76  2  0  0  0
 75 84  1  0  0  0
 76 87  1  0  0  0
 77 78  1  0  0  0
 77 83  1  0  0  0
 77 85  2  0  0  0
 78 86  1  0  0  0
 78149  1  0  0  0
 78150  1  0  0  0
 79 80  1  0  0  0
 79 83  1  0  0  0
 79151  1  0  0  0
 79152  1  0  0  0
 80 82  1  0  0  0
 80 86  1  0  0  0
 80153  1  0  0  0
 81154  1  0  0  0
 81155  1  0  0  0
 81156  1  0  0  0
 82157  1  0  0  0
 82158  1  0  0  0
 84159  1  0  0  0
M  ISO  4   1 100  68 101  82 101  84 100
M  END
> <chiral flag>
0

> <version>
0

> <s_m_source_file>
/data/baiqing/PycharmProjects/Reinvent-master-3.2/result/LINK_invent/BTK/process_docking_weight1_custom_product_contain_oxygen_bond_distance_aromatic_linkinvent_7_9_3/rearranged_h_0062.sdf

> <i_m_source_file_index>
17

> <r_mmod_Potential_Energy-OPLS-2005>
137.513656616211

> <r_mmod_Stretch_Energy-OPLS-2005>
82.4561538696289

> <r_mmod_Bend_Energy-OPLS-2005>
131.614959716797

> <r_mmod_Torsional_Energy-OPLS-2005>
286.496704101562

> <r_mmod_Improper_Torsional_Energy-OPLS-2005>
3.42224407196045

> <r_mmod_Van_der_Waal_Energy-OPLS-2005>
159.369400024414

> <r_mmod_Electrostatic_Energy-OPLS-2005>
-331.717712402344

> <r_mmod_Solvation_Energy-OPLS-2005>
-237.677642822266

> <b_mmod_Minimization_Converged-OPLS-2005>
0

> <r_mmod_RMS_Derivative-OPLS-2005>
2.38551926612854

$$$$
17
                    3D
 Structure written by MMmdl.
167175  0  0  1  0            999 V2000
  -30.7112  -14.4520   20.5894 C   0  0  0  0  0  0
  -30.4207  -12.3010   19.4181 C   0  0  0  0  0  0
  -29.4957  -12.5206   18.2028 C   0  0  0  0  0  0
  -28.0143  -12.3854   18.6123 C   0  0  0  0  0  0
  -27.6633  -13.2116   19.8790 C   0  0  2  0  0  0
  -28.7038  -12.9733   20.9967 C   0  0  0  0  0  0
  -25.2567  -13.8187   20.5697 C   0  0  0  0  0  0
  -24.1826  -13.0447   20.9196 C   0  0  0  0  0  0
  -24.6392  -11.6918   20.8727 C   0  0  0  0  0  0
  -23.9054  -10.4301   21.0391 C   0  0  0  0  0  0
  -24.3611   -9.4220   21.9168 C   0  0  0  0  0  0
  -23.6293   -8.2243   22.0733 C   0  0  0  0  0  0
  -22.4272   -8.0275   21.3531 C   0  0  0  0  0  0
  -21.9905   -9.0248   20.4625 C   0  0  0  0  0  0
  -22.7230  -10.2129   20.3032 C   0  0  0  0  0  0
  -21.6846   -6.0728   22.5279 C   0  0  0  0  0  0
  -21.4010   -6.5633   23.8220 C   0  0  0  0  0  0
  -21.3669   -5.6787   24.9180 C   0  0  0  0  0  0
  -21.6044   -4.3043   24.7224 C   0  0  0  0  0  0
  -21.8822   -3.8140   23.4347 C   0  0  0  0  0  0
  -21.9195   -4.6962   22.3406 C   0  0  0  0  0  0
  -22.7841  -13.5225   21.1881 C   0  0  0  0  0  0
  -22.1655   -4.2149   21.0978 F   0  0  0  0  0  0
  -21.5642   -3.4523   25.7734 F   0  0  0  0  0  0
  -30.0403  -13.2750   20.4527 N   0  0  0  0  0  0
  -26.3017  -12.9366   20.3375 N   0  0  0  0  0  0
  -25.9315  -11.6519   20.5756 N   0  0  0  0  0  0
  -22.0477  -12.8196   22.0420 N   0  0  0  0  0  0
  -25.4276  -15.1910   20.4121 N   0  0  0  0  0  0
  -31.8210  -14.6416   20.0816 O   0  0  0  0  0  0
  -21.6635   -6.8871   21.4231 O   0  0  0  0  0  0
  -22.3521  -14.5541   20.6757 O   0  0  0  0  0  0
  -24.6164  -31.8668   23.2063 C   0  0  0  0  0  0
  -25.9067  -32.4796   23.8355 C   0  0  1  0  0  0
  -27.2262  -27.4287   20.0997 C   0  0  0  0  0  0
  -25.5958  -33.8591   24.2317 N   0  0  0  0  0  0
  -23.4004  -30.4927   21.5503 C   0  0  2  0  0  0
  -24.8421  -28.9593   20.1136 C   0  0  0  0  0  0
  -22.7408  -29.4681   22.5017 C   0  0  0  0  0  0
  -18.0268  -28.1379   22.8515 C   0  0  0  0  0  0
  -24.1507  -36.7277   23.2642 C   0  0  0  0  0  0
  -25.9296  -30.8367   21.3539 C   0  0  0  0  0  0
  -26.0048  -29.4704   20.7045 C   0  0  0  0  0  0
  -27.2000  -28.7137   20.6927 C   0  0  0  0  0  0
  -26.0469  -26.9398   19.4973 C   0  0  0  0  0  0
  -24.8588  -27.6924   19.5075 C   0  0  0  0  0  0
  -23.6031  -29.8254   20.1649 C   0  0  0  0  0  0
  -25.4122  -36.3065   24.0344 C   0  0  1  0  0  0
  -20.5857  -28.3683   23.1334 C   0  0  2  0  0  0
  -20.6787  -26.9429   22.5432 C   0  0  0  0  0  0
  -19.5761  -26.6403   21.5237 C   0  0  0  0  0  0
  -18.1931  -26.7936   22.1631 C   0  0  0  0  0  0
  -19.1520  -28.8848   23.2920 C   0  0  0  0  0  0
  -18.9451  -30.1460   23.8930 C   0  0  0  0  0  0
  -17.6449  -30.6607   24.0582 C   0  0  0  0  0  0
  -25.9060  -34.9447   23.5113 C   0  0  0  0  0  0
  -16.5344  -29.9106   23.6345 C   0  0  0  0  0  0
  -16.7249  -28.6502   23.0376 C   0  0  0  0  0  0
  -26.4490  -31.6534   25.0659 C   0  0  0  0  0  0
  -25.3775  -31.3627   26.1414 C   0  0  0  0  0  0
  -27.0303  -30.2988   24.5977 C   0  0  0  0  0  0
  -27.6069  -32.4245   25.7435 C   0  0  0  0  0  0
  -27.5577  -37.1792   24.8475 C   0  0  0  0  0  0
  -21.4138  -29.3038   22.3735 N   0  0  0  0  0  0
  -26.4279  -37.3764   23.9421 N   0  0  0  0  0  0
  -24.6679  -31.0796   22.0952 N   0  0  0  0  0  0
  -23.4181  -28.8249   23.3084 O   0  0  0  0  0  0
  -28.3948  -26.6893   20.1090 O   0  0  0  0  0  0
  -26.5604  -34.8906   22.4664 O   0  0  0  0  0  0
  -23.5365  -32.1408   23.7486 O   0  0  0  0  0  0
  -31.4768  -17.4649   20.9785 C   0  0  0  0  0  0
  -31.5839  -18.8715   20.9382 C   0  0  0  0  0  0
  -29.0836  -17.6709   21.3386 C   0  0  0  0  0  0
  -29.1816  -19.0844   21.2934 C   0  0  0  0  0  0
  -30.2191  -16.8439   21.1724 C   0  0  0  0  0  0
  -30.4486  -19.6962   21.0967 C   0  0  0  0  0  0
  -27.9176  -19.9087   21.4586 C   0  0  0  0  0  0
  -28.9286  -25.1926   17.8753 C   0  0  0  0  0  0
  -27.5914  -23.3371   18.8549 C   0  0  0  0  0  0
  -30.4192  -21.4247   18.3919 C   0  0  0  0  0  0
  -30.0948  -23.6204   19.4656 C   0  0  0  0  0  0
  -28.2796  -25.2675   20.3410 C   0  0  0  0  0  0
  -28.7300  -24.3428   19.1516 C   0  0  0  0  0  0
  -30.0335  -15.4243   21.2325 N   0  0  0  0  0  0
  -30.0370  -22.1360   19.6262 N   0  0  0  0  0  0
  -29.9348  -22.1137   22.2017 O   0  0  0  0  0  0
  -32.1528  -21.7817   21.0336 O   0  0  0  0  0  0
  -30.7089  -21.5090   21.1051 S   0  0  0  0  0  0
  -31.4657  -12.3929   19.1188 H   0  0  0  0  0  0
  -30.3126  -11.2835   19.7995 H   0  0  0  0  0  0
  -29.7336  -11.8055   17.4132 H   0  0  0  0  0  0
  -29.6724  -13.5107   17.7787 H   0  0  0  0  0  0
  -27.8176  -11.3291   18.7938 H   0  0  0  0  0  0
  -27.3667  -12.6755   17.7830 H   0  0  0  0  0  0
  -27.7113  -14.2644   19.5968 H   0  0  0  0  0  0
  -28.6725  -11.9333   21.3236 H   0  0  0  0  0  0
  -28.4634  -13.5567   21.8853 H   0  0  0  0  0  0
  -25.2758   -9.5712   22.4734 H   0  0  0  0  0  0
  -24.0023   -7.4633   22.7451 H   0  0  0  0  0  0
  -21.0832   -8.8758   19.8930 H   0  0  0  0  0  0
  -22.3690  -10.9657   19.6131 H   0  0  0  0  0  0
  -21.1979   -7.6139   23.9732 H   0  0  0  0  0  0
  -21.1491   -6.0499   25.9094 H   0  0  0  0  0  0
  -22.0590   -2.7595   23.2838 H   0  0  0  0  0  0
  -22.4059  -11.9852   22.4829 H   0  0  0  0  0  0
  -21.1090  -13.1210   22.2616 H   0  0  0  0  0  0
  -24.6584  -15.8434   20.5142 H   0  0  0  0  0  0
  -26.2760  -15.6296   20.0791 H   0  0  0  0  0  0
  -26.7167  -32.5507   23.1137 H   0  0  0  0  0  0
  -25.0193  -33.9750   25.0526 H   0  0  0  0  0  0
  -22.6896  -31.3101   21.4134 H   0  0  0  0  0  0
  -23.3740  -35.9637   23.3291 H   0  0  0  0  0  0
  -24.3643  -36.8881   22.2061 H   0  0  0  0  0  0
  -23.7290  -37.6498   23.6659 H   0  0  0  0  0  0
  -26.0386  -31.6028   20.5852 H   0  0  0  0  0  0
  -26.8189  -30.8895   21.9694 H   0  0  0  0  0  0
  -28.0929  -29.1071   21.1569 H   0  0  0  0  0  0
  -26.0338  -25.9757   19.0124 H   0  0  0  0  0  0
  -23.9653  -27.2913   19.0504 H   0  0  0  0  0  0
  -23.7059  -30.5995   19.4029 H   0  0  0  0  0  0
  -22.7246  -29.2438   19.8739 H   0  0  0  0  0  0
  -25.1287  -36.1914   25.0836 H   0  0  0  0  0  0
  -20.9967  -28.3248   24.1441 H   0  0  0  0  0  0
  -20.5756  -26.2287   23.3611 H   0  0  0  0  0  0
  -21.6650  -26.7528   22.1190 H   0  0  0  0  0  0
  -19.6952  -25.6324   21.1252 H   0  0  0  0  0  0
  -19.6703  -27.3235   20.6787 H   0  0  0  0  0  0
  -17.4229  -26.6717   21.4003 H   0  0  0  0  0  0
  -18.0302  -26.0053   22.8991 H   0  0  0  0  0  0
  -19.7920  -30.7271   24.2317 H   0  0  0  0  0  0
  -17.5004  -31.6292   24.5162 H   0  0  0  0  0  0
  -15.5349  -30.3023   23.7648 H   0  0  0  0  0  0
  -15.8644  -28.0837   22.7094 H   0  0  0  0  0  0
  -24.6073  -30.6791   25.7808 H   0  0  0  0  0  0
  -24.8798  -32.2739   26.4727 H   0  0  0  0  0  0
  -25.8174  -30.8979   27.0242 H   0  0  0  0  0  0
  -26.2803  -29.6761   24.1077 H   0  0  0  0  0  0
  -27.4148  -29.7194   25.4374 H   0  0  0  0  0  0
  -27.8605  -30.4282   23.9033 H   0  0  0  0  0  0
  -27.2699  -33.3593   26.1910 H   0  0  0  0  0  0
  -28.3936  -32.6697   25.0293 H   0  0  0  0  0  0
  -28.0649  -31.8409   26.5417 H   0  0  0  0  0  0
  -28.2580  -38.0098   24.7520 H   0  0  0  0  0  0
  -28.1070  -36.2626   24.6279 H   0  0  0  0  0  0
  -27.2303  -37.1416   25.8878 H   0  0  0  0  0  0
  -20.9323  -29.8691   21.6889 H   0  0  0  0  0  0
  -26.0137  -38.2840   24.1388 H   0  0  0  0  0  0
  -32.3797  -16.8823   20.8697 H   0  0  0  0  0  0
  -32.5559  -19.3205   20.7965 H   0  0  0  0  0  0
  -28.1162  -17.2135   21.4908 H   0  0  0  0  0  0
  -27.0266  -19.3126   21.2572 H   0  0  0  0  0  0
  -27.9100  -20.7436   20.7614 H   0  0  0  0  0  0
  -27.8452  -20.3042   22.4734 H   0  0  0  0  0  0
  -29.2393  -24.5781   17.0300 H   0  0  0  0  0  0
  -29.6989  -25.9516   18.0187 H   0  0  0  0  0  0
  -28.0127  -25.7057   17.5836 H   0  0  0  0  0  0
  -27.8293  -22.6770   18.0231 H   0  0  0  0  0  0
  -26.6636  -23.8433   18.5886 H   0  0  0  0  0  0
  -27.3730  -22.7177   19.7232 H   0  0  0  0  0  0
  -29.8956  -21.8288   17.5246 H   0  0  0  0  0  0
  -30.1721  -20.3659   18.4627 H   0  0  0  0  0  0
  -31.4935  -21.5143   18.2167 H   0  0  0  0  0  0
  -30.5546  -24.0504   20.3548 H   0  0  0  0  0  0
  -30.8298  -23.8543   18.6934 H   0  0  0  0  0  0
  -28.8752  -25.0529   21.2271 H   0  0  0  0  0  0
  -27.2754  -25.0021   20.6759 H   0  0  0  0  0  0
  -29.1513  -15.1125   21.6086 H   0  0  0  0  0  0
  1 25  1  0  0  0
  1 30  2  0  0  0
  1 84  1  0  0  0
  2  3  1  0  0  0
  2 25  1  0  0  0
  2 89  1  0  0  0
  2 90  1  0  0  0
  3  4  1  0  0  0
  3 91  1  0  0  0
  3 92  1  0  0  0
  4  5  1  0  0  0
  4 93  1  0  0  0
  4 94  1  0  0  0
  5  6  1  0  0  0
  5 26  1  0  0  0
  5 95  1  0  0  0
  6 25  1  0  0  0
  6 96  1  0  0  0
  6 97  1  0  0  0
  7  8  2  0  0  0
  7 26  1  0  0  0
  7 29  1  0  0  0
  8  9  1  0  0  0
  8 22  1  0  0  0
  9 10  1  0  0  0
  9 27  2  0  0  0
 10 11  2  0  0  0
 10 15  1  0  0  0
 11 12  1  0  0  0
 11 98  1  0  0  0
 12 13  2  0  0  0
 12 99  1  0  0  0
 13 14  1  0  0  0
 13 31  1  0  0  0
 14 15  2  0  0  0
 14100  1  0  0  0
 15101  1  0  0  0
 16 17  2  0  0  0
 16 21  1  0  0  0
 16 31  1  0  0  0
 17 18  1  0  0  0
 17102  1  0  0  0
 18 19  2  0  0  0
 18103  1  0  0  0
 19 20  1  0  0  0
 19 24  1  0  0  0
 20 21  2  0  0  0
 20104  1  0  0  0
 21 23  1  0  0  0
 22 28  1  0  0  0
 22 32  2  0  0  0
 26 27  1  0  0  0
 28105  1  0  0  0
 28106  1  0  0  0
 29107  1  0  0  0
 29108  1  0  0  0
 33 34  1  0  0  0
 33 66  1  0  0  0
 33 70  2  0  0  0
 34 36  1  0  0  0
 34 59  1  0  0  0
 34109  1  0  0  0
 35 44  2  0  0  0
 35 45  1  0  0  0
 35 68  1  0  0  0
 36 56  1  0  0  0
 36110  1  0  0  0
 37 39  1  0  0  0
 37 47  1  0  0  0
 37 66  1  0  0  0
 37111  1  0  0  0
 38 43  2  0  0  0
 38 46  1  0  0  0
 38 47  1  0  0  0
 39 64  1  0  0  0
 39 67  2  0  0  0
 40 52  1  0  0  0
 40 53  2  0  0  0
 40 58  1  0  0  0
 41112  1  0  0  0
 41113  1  0  0  0
 41114  1  0  0  0
 41 48  1  0  0  0
 42 43  1  0  0  0
 42 66  1  0  0  0
 42115  1  0  0  0
 42116  1  0  0  0
 43 44  1  0  0  0
 44117  1  0  0  0
 45 46  2  0  0  0
 45118  1  0  0  0
 46119  1  0  0  0
 47120  1  0  0  0
 47121  1  0  0  0
 48 56  1  0  0  0
 48 65  1  0  0  0
 48122  1  0  0  0
 49 50  1  0  0  0
 49 53  1  0  0  0
 49 64  1  0  0  0
 49123  1  0  0  0
 50 51  1  0  0  0
 50124  1  0  0  0
 50125  1  0  0  0
 51 52  1  0  0  0
 51126  1  0  0  0
 51127  1  0  0  0
 52128  1  0  0  0
 52129  1  0  0  0
 53 54  1  0  0  0
 54 55  2  0  0  0
 54130  1  0  0  0
 55 57  1  0  0  0
 55131  1  0  0  0
 56 69  2  0  0  0
 57 58  2  0  0  0
 57132  1  0  0  0
 58133  1  0  0  0
 59 60  1  0  0  0
 59 61  1  0  0  0
 59 62  1  0  0  0
 60134  1  0  0  0
 60135  1  0  0  0
 60136  1  0  0  0
 61137  1  0  0  0
 61138  1  0  0  0
 61139  1  0  0  0
 62140  1  0  0  0
 62141  1  0  0  0
 62142  1  0  0  0
 63 65  1  0  0  0
 63143  1  0  0  0
 63144  1  0  0  0
 63145  1  0  0  0
 64146  1  0  0  0
 65147  1  0  0  0
 68 82  1  0  0  0
 71 72  2  0  0  0
 71 75  1  0  0  0
 71148  1  0  0  0
 72 76  1  0  0  0
 72149  1  0  0  0
 73 74  1  0  0  0
 73 75  2  0  0  0
 73150  1  0  0  0
 74 76  2  0  0  0
 74 77  1  0  0  0
 75 84  1  0  0  0
 76 88  1  0  0  0
 77151  1  0  0  0
 77152  1  0  0  0
 77153  1  0  0  0
 78154  1  0  0  0
 78155  1  0  0  0
 78156  1  0  0  0
 78 83  1  0  0  0
 79 83  1  0  0  0
 79157  1  0  0  0
 79158  1  0  0  0
 79159  1  0  0  0
 80 85  1  0  0  0
 80160  1  0  0  0
 80161  1  0  0  0
 80162  1  0  0  0
 81 83  1  0  0  0
 81 85  1  0  0  0
 81163  1  0  0  0
 81164  1  0  0  0
 82 83  1  0  0  0
 82165  1  0  0  0
 82166  1  0  0  0
 84167  1  0  0  0
 85 88  1  0  0  0
 86 88  2  0  0  0
 87 88  2  0  0  0
M  ISO  4   1 100  68 101  82 101  84 100
M  END
> <chiral flag>
0

> <version>
0

> <s_m_source_file>
/data/baiqing/PycharmProjects/Reinvent-master-3.2/result/LINK_invent/BTK/process_docking_weight1_custom_product_contain_oxygen_bond_distance_aromatic_linkinvent_7_9_3/rearranged_h_0062.sdf

> <i_m_source_file_index>
18

> <r_mmod_Potential_Energy-OPLS-2005>
-9.07521057128906

> <r_mmod_Stretch_Energy-OPLS-2005>
46.8885955810547

> <r_mmod_Bend_Energy-OPLS-2005>
116.516929626465

> <r_mmod_Torsional_Energy-OPLS-2005>
259.0126953125

> <r_mmod_Improper_Torsional_Energy-OPLS-2005>
7.62708234786987

> <r_mmod_Van_der_Waal_Energy-OPLS-2005>
156.758209228516

> <r_mmod_Electrostatic_Energy-OPLS-2005>
-377.698883056641

> <r_mmod_Solvation_Energy-OPLS-2005>
-229.419006347656

> <b_mmod_Minimization_Converged-OPLS-2005>
0

> <r_mmod_RMS_Derivative-OPLS-2005>
2.90658044815063

$$$$
18
                    3D
 Structure written by MMmdl.
165173  0  0  1  0            999 V2000
  -29.8865  -13.8629   21.2621 C   0  0  0  0  0  0
  -30.7516  -12.5381   19.2037 C   0  0  0  0  0  0
  -29.8129  -12.6357   17.9133 C   0  0  0  0  0  0
  -28.2663  -12.5245   18.0975 C   0  0  0  0  0  0
  -28.0404  -13.1567   19.4183 C   0  0  2  0  0  0
  -28.8884  -12.0981   20.3084 C   0  0  0  0  0  0
  -25.9104  -14.0597   20.1556 C   0  0  0  0  0  0
  -24.4382  -13.4392   21.1961 C   0  0  0  0  0  0
  -24.4829  -12.1887   21.6260 C   0  0  0  0  0  0
  -23.8736  -10.7393   21.3096 C   0  0  0  0  0  0
  -24.3402   -9.6143   22.0605 C   0  0  0  0  0  0
  -23.6767   -8.3513   22.0940 C   0  0  0  0  0  0
  -22.4954   -8.1270   21.3547 C   0  0  0  0  0  0
  -22.0863   -9.1708   20.4938 C   0  0  0  0  0  0
  -22.7607  -10.4302   20.4600 C   0  0  0  0  0  0
  -21.7266   -6.1208   22.5058 C   0  0  0  0  0  0
  -21.4293   -6.5966   23.8041 C   0  0  0  0  0  0
  -21.3722   -5.7048   24.8982 C   0  0  0  0  0  0
  -21.5999   -4.3292   24.7041 C   0  0  0  0  0  0
  -21.8745   -3.8443   23.4136 C   0  0  0  0  0  0
  -21.9294   -4.7321   22.3211 C   0  0  0  0  0  0
  -22.8073  -13.7866   21.4668 C   0  0  0  0  0  0
  -22.1750   -4.2418   21.0822 F   0  0  0  0  0  0
  -21.5523   -3.4711   25.7537 F   0  0  0  0  0  0
  -30.0431  -12.7916   20.4719 N   0  0  0  0  0  0
  -26.5807  -13.5704   19.6380 N   0  0  0  0  0  0
  -25.1555  -13.3178   20.8901 N   0  0  0  0  0  0
  -22.0651  -12.9871   22.2411 N   0  0  0  0  0  0
  -26.5365  -15.2047   19.4520 N   0  0  0  0  0  0
  -30.7819  -14.7358   21.0597 O   0  0  0  0  0  0
  -21.7505   -6.9538   21.4010 O   0  0  0  0  0  0
  -22.1763  -14.6890   20.9133 O   0  0  0  0  0  0
  -24.6713  -31.8222   23.1797 C   0  0  0  0  0  0
  -25.9404  -32.4547   23.8196 C   0  0  1  0  0  0
  -26.8122  -26.7111   20.2334 C   0  0  0  0  0  0
  -25.6061  -33.8383   24.2068 N   0  0  0  0  0  0
  -23.4665  -30.4675   21.5368 C   0  0  2  0  0  0
  -24.8527  -28.8725   20.0709 C   0  0  0  0  0  0
  -22.7643  -29.4481   22.4731 C   0  0  0  0  0  0
  -18.0325  -28.1427   22.8463 C   0  0  0  0  0  0
  -24.1496  -36.7180   23.2638 C   0  0  0  0  0  0
  -26.0446  -30.5484   21.4429 C   0  0  0  0  0  0
  -26.0359  -29.1366   20.7711 C   0  0  0  0  0  0
  -27.0426  -28.0602   20.8373 C   0  0  0  0  0  0
  -25.7259  -26.7032   19.3642 C   0  0  0  0  0  0
  -24.7470  -27.7017   19.3213 C   0  0  0  0  0  0
  -23.6895  -29.8494   20.1361 C   0  0  0  0  0  0
  -25.4148  -36.2951   24.0285 C   0  0  1  0  0  0
  -20.5949  -28.3770   23.1170 C   0  0  2  0  0  0
  -20.6807  -26.9447   22.5399 C   0  0  0  0  0  0
  -19.5772  -26.6378   21.5222 C   0  0  0  0  0  0
  -18.1955  -26.7958   22.1628 C   0  0  0  0  0  0
  -19.1586  -28.8920   23.2808 C   0  0  0  0  0  0
  -18.9491  -30.1512   23.8843 C   0  0  0  0  0  0
  -17.6480  -30.6607   24.0563 C   0  0  0  0  0  0
  -25.9135  -34.9335   23.4990 C   0  0  0  0  0  0
  -16.5373  -29.9094   23.6355 C   0  0  0  0  0  0
  -16.7306  -28.6526   23.0356 C   0  0  0  0  0  0
  -26.4591  -31.6558   25.0791 C   0  0  0  0  0  0
  -25.3659  -31.3872   26.1411 C   0  0  0  0  0  0
  -27.0505  -30.2900   24.6679 C   0  0  0  0  0  0
  -27.6074  -32.4393   25.7579 C   0  0  0  0  0  0
  -27.5580  -37.1754   24.8460 C   0  0  0  0  0  0
  -21.4315  -29.3058   22.3499 N   0  0  0  0  0  0
  -26.4279  -37.3708   23.9415 N   0  0  0  0  0  0
  -24.7535  -30.9805   22.1007 N   0  0  0  0  0  0
  -23.4224  -28.7983   23.2897 O   0  0  0  0  0  0
  -27.3841  -25.3338   20.3843 O   0  0  0  0  0  0
  -26.5729  -34.8871   22.4579 O   0  0  0  0  0  0
  -23.5794  -32.1285   23.6864 O   0  0  0  0  0  0
  -24.8196  -12.2652   18.9724 C   0  0  0  0  0  0
  -24.0066  -14.3428   19.0679 C   0  0  0  0  0  0
  -26.3980  -11.5424   20.4766 C   0  0  0  0  0  0
  -24.6186  -15.7887   20.7222 C   0  0  0  0  0  0
  -27.1100  -13.1952   21.9582 C   0  0  0  0  0  0
  -26.0851  -15.0716   22.1320 C   0  0  0  0  0  0
  -24.5609  -17.5251   20.5050 C   0  0  0  0  0  0
  -28.8237  -21.0585   20.4721 C   0  0  0  0  0  0
  -29.8833  -20.4935   21.4031 C   0  0  0  0  0  0
  -25.3385  -20.5370   20.6288 C   0  0  0  0  0  0
  -26.4459  -23.8799   20.5461 C   0  0  0  0  0  0
  -26.5140  -21.9909   20.3926 C   0  0  1  0  0  0
  -26.6496  -15.9721   23.0364 N   0  0  0  0  0  0
  -23.4077  -17.8777   19.9359 N   0  0  0  0  0  0
  -28.6403  -13.7943   22.0949 N   0  0  0  0  0  0
  -27.7322  -21.5545   21.0600 N   0  0  0  0  0  0
  -25.4272  -18.7814   20.6903 N   0  3  0  0  0  0
  -28.9876  -21.0243   19.2533 O   0  0  0  0  0  0
  -31.6076  -13.2103   19.1036 H   0  0  0  0  0  0
  -31.1876  -11.5393   19.2541 H   0  0  0  0  0  0
  -30.1464  -11.9318   17.1498 H   0  0  0  0  0  0
  -29.9963  -13.6192   17.4762 H   0  0  0  0  0  0
  -27.9137  -11.4921   18.0551 H   0  0  0  0  0  0
  -27.7380  -13.0658   17.3081 H   0  0  0  0  0  0
  -28.5590  -14.1058   19.2481 H   0  0  0  0  0  0
  -29.0592  -11.1375   19.8047 H   0  0  0  0  0  0
  -28.6368  -11.6172   21.2567 H   0  0  0  0  0  0
  -25.1879   -9.7523   22.7165 H   0  0  0  0  0  0
  -24.0610   -7.5774   22.7389 H   0  0  0  0  0  0
  -21.2064   -9.0290   19.8816 H   0  0  0  0  0  0
  -22.3431  -11.2175   19.8475 H   0  0  0  0  0  0
  -21.2480   -7.6490   23.9645 H   0  0  0  0  0  0
  -21.1539   -6.0789   25.8894 H   0  0  0  0  0  0
  -22.0393   -2.7882   23.2591 H   0  0  0  0  0  0
  -22.4495  -12.2005   22.7400 H   0  0  0  0  0  0
  -21.0816  -13.1919   22.3410 H   0  0  0  0  0  0
  -27.2647  -15.1037   18.7620 H   0  0  0  0  0  0
  -26.1031  -16.1125   19.4225 H   0  0  0  0  0  0
  -26.7427  -32.4943   23.0833 H   0  0  0  0  0  0
  -25.0166  -33.9467   25.0193 H   0  0  0  0  0  0
  -22.7836  -31.3097   21.4069 H   0  0  0  0  0  0
  -23.3791  -35.9474   23.3250 H   0  0  0  0  0  0
  -24.3559  -36.8888   22.2060 H   0  0  0  0  0  0
  -23.7206  -37.6334   23.6729 H   0  0  0  0  0  0
  -26.2761  -31.2826   20.6700 H   0  0  0  0  0  0
  -26.8971  -30.5684   22.1086 H   0  0  0  0  0  0
  -27.9102  -28.2021   21.4658 H   0  0  0  0  0  0
  -25.5288  -25.8238   18.7709 H   0  0  0  0  0  0
  -23.8720  -27.5425   18.7064 H   0  0  0  0  0  0
  -23.8881  -30.6485   19.4214 H   0  0  0  0  0  0
  -22.7736  -29.3686   19.7892 H   0  0  0  0  0  0
  -25.1333  -36.1736   25.0772 H   0  0  0  0  0  0
  -21.0039  -28.3389   24.1290 H   0  0  0  0  0  0
  -20.5727  -26.2373   23.3639 H   0  0  0  0  0  0
  -21.6663  -26.7446   22.1174 H   0  0  0  0  0  0
  -19.6920  -25.6270   21.1298 H   0  0  0  0  0  0
  -19.6717  -27.3145   20.6718 H   0  0  0  0  0  0
  -17.4222  -26.6704   21.4036 H   0  0  0  0  0  0
  -18.0344  -26.0131   22.9053 H   0  0  0  0  0  0
  -19.7965  -30.7358   24.2172 H   0  0  0  0  0  0
  -17.5033  -31.6279   24.5178 H   0  0  0  0  0  0
  -15.5373  -30.2974   23.7724 H   0  0  0  0  0  0
  -15.8710  -28.0839   22.7077 H   0  0  0  0  0  0
  -24.5851  -30.7213   25.7707 H   0  0  0  0  0  0
  -24.8832  -32.3103   26.4646 H   0  0  0  0  0  0
  -25.7833  -30.9150   27.0315 H   0  0  0  0  0  0
  -26.3188  -29.6508   24.1735 H   0  0  0  0  0  0
  -27.3981  -29.7364   25.5410 H   0  0  0  0  0  0
  -27.9168  -30.4029   24.0159 H   0  0  0  0  0  0
  -27.2641  -33.3745   26.2018 H   0  0  0  0  0  0
  -28.3955  -32.6886   25.0457 H   0  0  0  0  0  0
  -28.0671  -31.8623   26.5615 H   0  0  0  0  0  0
  -28.2541  -38.0109   24.7569 H   0  0  0  0  0  0
  -28.1137  -36.2637   24.6208 H   0  0  0  0  0  0
  -27.2304  -37.1290   25.8864 H   0  0  0  0  0  0
  -20.9532  -29.8802   21.6701 H   0  0  0  0  0  0
  -26.0114  -38.2755   24.1458 H   0  0  0  0  0  0
  -24.5208  -11.6153   18.1655 H   0  0  0  0  0  0
  -23.3740  -14.7007   18.2699 H   0  0  0  0  0  0
  -26.8661  -10.5804   20.3436 H   0  0  0  0  0  0
  -29.4326  -20.1279   22.3252 H   0  0  0  0  0  0
  -30.6129  -21.2622   21.6548 H   0  0  0  0  0  0
  -30.4006  -19.6605   20.9256 H   0  0  0  0  0  0
  -24.4809  -20.7561   19.9941 H   0  0  0  0  0  0
  -24.9548  -20.7324   21.6307 H   0  0  0  0  0  0
  -26.1184  -23.9933   21.5796 H   0  0  0  0  0  0
  -25.5354  -24.0986   19.9916 H   0  0  0  0  0  0
  -26.6798  -21.9171   19.3164 H   0  0  0  0  0  0
  -25.9587  -16.5275   23.5287 H   0  0  0  0  0  0
  -27.2807  -15.5598   23.7116 H   0  0  0  0  0  0
  -22.7298  -17.1507   19.7402 H   0  0  0  0  0  0
  -23.2674  -18.7891   19.5363 H   0  0  0  0  0  0
  -28.6362  -14.6043   22.6939 H   0  0  0  0  0  0
  -27.7064  -21.5484   22.0703 H   0  0  0  0  0  0
  -26.2887  -18.5054   21.1566 H   0  0  0  0  0  0
  1 25  1  0  0  0
  1 30  2  0  0  0
  1 85  1  0  0  0
  2  3  1  0  0  0
  2 25  1  0  0  0
  2 89  1  0  0  0
  2 90  1  0  0  0
  3  4  1  0  0  0
  3 91  1  0  0  0
  3 92  1  0  0  0
  4  5  1  0  0  0
  4 93  1  0  0  0
  4 94  1  0  0  0
  5  6  1  0  0  0
  5 26  1  0  0  0
  5 95  1  0  0  0
  6 25  1  0  0  0
  6 96  1  0  0  0
  6 97  1  0  0  0
  7  8  2  0  0  0
  7 26  1  0  0  0
  7 29  1  0  0  0
  8  9  1  0  0  0
  8 22  1  0  0  0
  9 10  1  0  0  0
  9 27  2  0  0  0
 10 11  2  0  0  0
 10 15  1  0  0  0
 11 12  1  0  0  0
 11 98  1  0  0  0
 12 13  2  0  0  0
 12 99  1  0  0  0
 13 14  1  0  0  0
 13 31  1  0  0  0
 14 15  2  0  0  0
 14100  1  0  0  0
 15101  1  0  0  0
 16 17  2  0  0  0
 16 21  1  0  0  0
 16 31  1  0  0  0
 17 18  1  0  0  0
 17102  1  0  0  0
 18 19  2  0  0  0
 18103  1  0  0  0
 19 20  1  0  0  0
 19 24  1  0  0  0
 20 21  2  0  0  0
 20104  1  0  0  0
 21 23  1  0  0  0
 22 28  1  0  0  0
 22 32  2  0  0  0
 26 27  1  0  0  0
 28105  1  0  0  0
 28106  1  0  0  0
 29107  1  0  0  0
 29108  1  0  0  0
 33 34  1  0  0  0
 33 66  1  0  0  0
 33 70  2  0  0  0
 34 36  1  0  0  0
 34 59  1  0  0  0
 34109  1  0  0  0
 35 44  2  0  0  0
 35 45  1  0  0  0
 35 68  1  0  0  0
 36 56  1  0  0  0
 36110  1  0  0  0
 37 39  1  0  0  0
 37 47  1  0  0  0
 37 66  1  0  0  0
 37111  1  0  0  0
 38 43  2  0  0  0
 38 46  1  0  0  0
 38 47  1  0  0  0
 39 64  1  0  0  0
 39 67  2  0  0  0
 40 52  1  0  0  0
 40 53  2  0  0  0
 40 58  1  0  0  0
 41112  1  0  0  0
 41113  1  0  0  0
 41114  1  0  0  0
 41 48  1  0  0  0
 42 43  1  0  0  0
 42 66  1  0  0  0
 42115  1  0  0  0
 42116  1  0  0  0
 43 44  1  0  0  0
 44117  1  0  0  0
 45 46  2  0  0  0
 45118  1  0  0  0
 46119  1  0  0  0
 47120  1  0  0  0
 47121  1  0  0  0
 48 56  1  0  0  0
 48 65  1  0  0  0
 48122  1  0  0  0
 49 50  1  0  0  0
 49 53  1  0  0  0
 49 64  1  0  0  0
 49123  1  0  0  0
 50 51  1  0  0  0
 50124  1  0  0  0
 50125  1  0  0  0
 51 52  1  0  0  0
 51126  1  0  0  0
 51127  1  0  0  0
 52128  1  0  0  0
 52129  1  0  0  0
 53 54  1  0  0  0
 54 55  2  0  0  0
 54130  1  0  0  0
 55 57  1  0  0  0
 55131  1  0  0  0
 56 69  2  0  0  0
 57 58  2  0  0  0
 57132  1  0  0  0
 58133  1  0  0  0
 59 60  1  0  0  0
 59 61  1  0  0  0
 59 62  1  0  0  0
 60134  1  0  0  0
 60135  1  0  0  0
 60136  1  0  0  0
 61137  1  0  0  0
 61138  1  0  0  0
 61139  1  0  0  0
 62140  1  0  0  0
 62141  1  0  0  0
 62142  1  0  0  0
 63 65  1  0  0  0
 63143  1  0  0  0
 63144  1  0  0  0
 63145  1  0  0  0
 64146  1  0  0  0
 65147  1  0  0  0
 68 81  1  0  0  0
 71 72  2  0  0  0
 71 73  1  0  0  0
 71148  1  0  0  0
 72 74  1  0  0  0
 72149  1  0  0  0
 73 75  2  0  0  0
 73150  1  0  0  0
 74 76  2  0  0  0
 74 77  1  0  0  0
 75 76  1  0  0  0
 75 85  1  0  0  0
 76 83  1  0  0  0
 77 84  1  0  0  0
 77 87  2  0  0  0
 78 79  1  0  0  0
 78 86  1  0  0  0
 78 88  2  0  0  0
 79151  1  0  0  0
 79152  1  0  0  0
 79153  1  0  0  0
 80 87  1  0  0  0
 80154  1  0  0  0
 80155  1  0  0  0
 80 82  1  0  0  0
 81 82  1  0  0  0
 81156  1  0  0  0
 81157  1  0  0  0
 82 86  1  0  0  0
 82158  1  0  0  0
 83159  1  0  0  0
 83160  1  0  0  0
 84161  1  0  0  0
 84162  1  0  0  0
 85163  1  0  0  0
 86164  1  0  0  0
 87165  1  0  0  0
M  CHG  1  87   1
M  ISO  4   1 100  68 101  81 101  85 100
M  END
> <chiral flag>
0

> <version>
0

> <s_m_source_file>
/data/baiqing/PycharmProjects/Reinvent-master-3.2/result/LINK_invent/BTK/process_docking_weight1_custom_product_contain_oxygen_bond_distance_aromatic_linkinvent_7_9_3/rearranged_h_0062.sdf

> <i_m_source_file_index>
19

> <r_mmod_Potential_Energy-OPLS-2005>
19512.32421875

> <r_mmod_Stretch_Energy-OPLS-2005>
11120.7275390625

> <r_mmod_Bend_Energy-OPLS-2005>
2243.69262695312

> <r_mmod_Torsional_Energy-OPLS-2005>
580.204162597656

> <r_mmod_Improper_Torsional_Energy-OPLS-2005>
95.3429260253906

> <r_mmod_Van_der_Waal_Energy-OPLS-2005>
4417.01123046875

> <r_mmod_Electrostatic_Energy-OPLS-2005>
-552.237548828125

> <r_mmod_Solvation_Energy-OPLS-2005>
-424.140899658203

> <b_mmod_Minimization_Converged-OPLS-2005>
0

> <r_mmod_RMS_Derivative-OPLS-2005>
9.54743671417236

$$$$
19
                    3D
 Structure written by MMmdl.
163172  0  0  1  0            999 V2000
  -30.6722  -14.5181   20.5370 C   0  0  0  0  0  0
  -30.4123  -12.3252   19.4393 C   0  0  0  0  0  0
  -29.4982  -12.5222   18.2119 C   0  0  0  0  0  0
  -28.0189  -12.3679   18.6177 C   0  0  0  0  0  0
  -27.6519  -13.2121   19.8680 C   0  0  2  0  0  0
  -28.6870  -13.0300   21.0011 C   0  0  0  0  0  0
  -25.2514  -13.8160   20.5644 C   0  0  0  0  0  0
  -24.1790  -13.0425   20.9173 C   0  0  0  0  0  0
  -24.6340  -11.6895   20.8697 C   0  0  0  0  0  0
  -23.9027  -10.4287   21.0377 C   0  0  0  0  0  0
  -24.3602   -9.4209   21.9157 C   0  0  0  0  0  0
  -23.6298   -8.2230   22.0741 C   0  0  0  0  0  0
  -22.4311   -8.0264   21.3524 C   0  0  0  0  0  0
  -21.9909   -9.0233   20.4643 C   0  0  0  0  0  0
  -22.7212  -10.2119   20.3033 C   0  0  0  0  0  0
  -21.6864   -6.0727   22.5259 C   0  0  0  0  0  0
  -21.4035   -6.5637   23.8194 C   0  0  0  0  0  0
  -21.3667   -5.6772   24.9155 C   0  0  0  0  0  0
  -21.6048   -4.3044   24.7214 C   0  0  0  0  0  0
  -21.8802   -3.8143   23.4330 C   0  0  0  0  0  0
  -21.9178   -4.6961   22.3388 C   0  0  0  0  0  0
  -22.7816  -13.5207   21.1864 C   0  0  0  0  0  0
  -22.1648   -4.2143   21.0973 F   0  0  0  0  0  0
  -21.5647   -3.4519   25.7718 F   0  0  0  0  0  0
  -30.0148  -13.3286   20.4419 N   0  0  0  0  0  0
  -26.2944  -12.9342   20.3253 N   0  0  0  0  0  0
  -25.9267  -11.6498   20.5695 N   0  0  0  0  0  0
  -22.0467  -12.8182   22.0431 N   0  0  0  0  0  0
  -25.4185  -15.1888   20.4063 N   0  0  0  0  0  0
  -31.8264  -14.6525   20.1168 O   0  0  0  0  0  0
  -21.6660   -6.8879   21.4236 O   0  0  0  0  0  0
  -22.3480  -14.5507   20.6711 O   0  0  0  0  0  0
  -24.6179  -31.8650   23.2077 C   0  0  0  0  0  0
  -25.9063  -32.4808   23.8364 C   0  0  1  0  0  0
  -27.2256  -27.3856   20.0992 C   0  0  0  0  0  0
  -25.5914  -33.8610   24.2302 N   0  0  0  0  0  0
  -23.4102  -30.4864   21.5515 C   0  0  2  0  0  0
  -24.8486  -28.9454   20.1234 C   0  0  0  0  0  0
  -22.7457  -29.4619   22.5009 C   0  0  0  0  0  0
  -18.0271  -28.1376   22.8504 C   0  0  0  0  0  0
  -24.1487  -36.7324   23.2638 C   0  0  0  0  0  0
  -25.9446  -30.8114   21.3727 C   0  0  0  0  0  0
  -26.0135  -29.4465   20.7116 C   0  0  0  0  0  0
  -27.2025  -28.6748   20.6919 C   0  0  0  0  0  0
  -26.0265  -26.8945   19.5324 C   0  0  0  0  0  0
  -24.8479  -27.6679   19.5370 C   0  0  0  0  0  0
  -23.6233  -29.8271   20.1648 C   0  0  0  0  0  0
  -25.4116  -36.3125   24.0333 C   0  0  1  0  0  0
  -20.5859  -28.3666   23.1337 C   0  0  2  0  0  0
  -20.6786  -26.9411   22.5428 C   0  0  0  0  0  0
  -19.5750  -26.6385   21.5244 C   0  0  0  0  0  0
  -18.1921  -26.7916   22.1649 C   0  0  0  0  0  0
  -19.1517  -28.8836   23.2904 C   0  0  0  0  0  0
  -18.9447  -30.1438   23.8919 C   0  0  0  0  0  0
  -17.6455  -30.6599   24.0562 C   0  0  0  0  0  0
  -25.9039  -34.9490   23.5125 C   0  0  0  0  0  0
  -16.5346  -29.9117   23.6305 C   0  0  0  0  0  0
  -16.7261  -28.6522   23.0347 C   0  0  0  0  0  0
  -26.4437  -31.6610   25.0737 C   0  0  0  0  0  0
  -25.3678  -31.3797   26.1488 C   0  0  0  0  0  0
  -27.0229  -30.3006   24.6189 C   0  0  0  0  0  0
  -27.5965  -32.4359   25.7528 C   0  0  0  0  0  0
  -27.5588  -37.1833   24.8456 C   0  0  0  0  0  0
  -21.4178  -29.3033   22.3764 N   0  0  0  0  0  0
  -26.4299  -37.3814   23.9407 N   0  0  0  0  0  0
  -24.6754  -31.0693   22.1014 N   0  0  0  0  0  0
  -23.4203  -28.8160   23.3067 O   0  0  0  0  0  0
  -28.4064  -26.6504   20.1298 O   0  0  0  0  0  0
  -26.5609  -34.8945   22.4691 O   0  0  0  0  0  0
  -23.5360  -32.1443   23.7434 O   0  0  0  0  0  0
  -30.8387  -19.7831   20.6894 C   0  0  0  0  0  0
  -31.5721  -17.4564   20.9976 C   0  0  0  0  0  0
  -29.2127  -17.9664   20.7084 C   0  0  0  0  0  0
  -28.7938  -23.8768   21.4882 C   0  0  0  0  0  0
  -31.8642  -18.8319   20.8870 C   0  0  0  0  0  0
  -29.4958  -19.3635   20.6120 C   0  0  0  0  0  0
  -28.6106  -24.0992   20.0882 C   0  0  0  0  0  0
  -30.2423  -16.9903   20.8762 C   0  0  0  0  0  0
  -28.7833  -22.5249   21.7222 C   0  0  0  0  0  0
  -28.5279  -22.8279   19.5519 C   0  0  0  0  0  0
  -33.2476  -19.2721   20.9578 C   0  0  0  0  0  0
  -28.3441  -20.3731   20.3788 C   0  0  0  0  0  0
  -28.5720  -25.4490   19.3347 C   0  0  0  0  0  0
  -28.5872  -21.8359   20.5368 N   0  0  0  0  0  0
  -33.8499  -19.7198   19.8601 N   0  0  0  0  0  0
  -29.9249  -15.5810   20.9366 N   0  0  0  0  0  0
  -33.8982  -19.2286   22.1163 N   0  3  0  0  0  0
  -28.9058  -21.8513   22.8994 O   0  0  0  0  0  0
  -28.3808  -22.4724   18.2463 O   0  0  0  0  0  0
  -31.4638  -12.4032   19.1544 H   0  0  0  0  0  0
  -30.2882  -11.3174   19.8390 H   0  0  0  0  0  0
  -29.7569  -11.8052   17.4312 H   0  0  0  0  0  0
  -29.6591  -13.5137   17.7813 H   0  0  0  0  0  0
  -27.8445  -11.3111   18.8234 H   0  0  0  0  0  0
  -27.3642  -12.6281   17.7830 H   0  0  0  0  0  0
  -27.6921  -14.2564   19.5579 H   0  0  0  0  0  0
  -28.6679  -12.0077   21.3806 H   0  0  0  0  0  0
  -28.4476  -13.6612   21.8587 H   0  0  0  0  0  0
  -25.2758   -9.5720   22.4705 H   0  0  0  0  0  0
  -24.0032   -7.4647   22.7448 H   0  0  0  0  0  0
  -21.0856   -8.8718   19.8967 H   0  0  0  0  0  0
  -22.3640  -10.9645   19.6134 H   0  0  0  0  0  0
  -21.2055   -7.6149   23.9703 H   0  0  0  0  0  0
  -21.1520   -6.0517   25.9056 H   0  0  0  0  0  0
  -22.0588   -2.7600   23.2802 H   0  0  0  0  0  0
  -22.4130  -11.9885   22.4860 H   0  0  0  0  0  0
  -21.1064  -13.1175   22.2650 H   0  0  0  0  0  0
  -24.6370  -15.8302   20.5103 H   0  0  0  0  0  0
  -26.2416  -15.6254   20.0127 H   0  0  0  0  0  0
  -26.7137  -32.5458   23.1106 H   0  0  0  0  0  0
  -25.0076  -33.9768   25.0460 H   0  0  0  0  0  0
  -22.7001  -31.3038   21.4135 H   0  0  0  0  0  0
  -23.3757  -35.9640   23.3291 H   0  0  0  0  0  0
  -24.3579  -36.8959   22.2054 H   0  0  0  0  0  0
  -23.7228  -37.6526   23.6647 H   0  0  0  0  0  0
  -26.0808  -31.5808   20.6123 H   0  0  0  0  0  0
  -26.8250  -30.8432   22.0033 H   0  0  0  0  0  0
  -28.1047  -29.0645   21.1385 H   0  0  0  0  0  0
  -25.9569  -25.9030   19.1102 H   0  0  0  0  0  0
  -23.9379  -27.2681   19.1123 H   0  0  0  0  0  0
  -23.7667  -30.6105   19.4192 H   0  0  0  0  0  0
  -22.7420  -29.2691   19.8450 H   0  0  0  0  0  0
  -25.1278  -36.1986   25.0820 H   0  0  0  0  0  0
  -20.9898  -28.3218   24.1476 H   0  0  0  0  0  0
  -20.5775  -26.2255   23.3608 H   0  0  0  0  0  0
  -21.6641  -26.7527   22.1157 H   0  0  0  0  0  0
  -19.6917  -25.6301   21.1273 H   0  0  0  0  0  0
  -19.6676  -27.3210   20.6783 H   0  0  0  0  0  0
  -17.4198  -26.6662   21.4037 H   0  0  0  0  0  0
  -18.0306  -26.0057   22.9046 H   0  0  0  0  0  0
  -19.7921  -30.7228   24.2316 H   0  0  0  0  0  0
  -17.5025  -31.6273   24.5178 H   0  0  0  0  0  0
  -15.5354  -30.3045   23.7607 H   0  0  0  0  0  0
  -15.8657  -28.0869   22.7052 H   0  0  0  0  0  0
  -24.5811  -30.7164   25.7880 H   0  0  0  0  0  0
  -24.8903  -32.2989   26.4883 H   0  0  0  0  0  0
  -25.8009  -30.9015   27.0287 H   0  0  0  0  0  0
  -26.2797  -29.6861   24.1084 H   0  0  0  0  0  0
  -27.3764  -29.7152   25.4699 H   0  0  0  0  0  0
  -27.8743  -30.4260   23.9492 H   0  0  0  0  0  0
  -27.2496  -33.3632   26.2101 H   0  0  0  0  0  0
  -28.3765  -32.6998   25.0375 H   0  0  0  0  0  0
  -28.0625  -31.8510   26.5473 H   0  0  0  0  0  0
  -28.2598  -38.0145   24.7516 H   0  0  0  0  0  0
  -28.1093  -36.2675   24.6238 H   0  0  0  0  0  0
  -27.2309  -37.1443   25.8864 H   0  0  0  0  0  0
  -20.9369  -29.8745   21.6967 H   0  0  0  0  0  0
  -26.0187  -38.2882   24.1424 H   0  0  0  0  0  0
  -31.0878  -20.8363   20.6167 H   0  0  0  0  0  0
  -32.3922  -16.7678   21.1430 H   0  0  0  0  0  0
  -28.1835  -17.6484   20.6221 H   0  0  0  0  0  0
  -28.9114  -24.6482   22.2413 H   0  0  0  0  0  0
  -27.5390  -20.1105   21.0664 H   0  0  0  0  0  0
  -27.9439  -20.1912   19.3827 H   0  0  0  0  0  0
  -27.8867  -25.3989   18.4876 H   0  0  0  0  0  0
  -29.5503  -25.5523   18.8646 H   0  0  0  0  0  0
  -33.3453  -19.6800   18.9845 H   0  0  0  0  0  0
  -34.8163  -19.9991   19.8265 H   0  0  0  0  0  0
  -28.9716  -15.3478   21.1672 H   0  0  0  0  0  0
  -33.3770  -18.9867   22.9475 H   0  0  0  0  0  0
  -34.8476  -19.5496   22.2293 H   0  0  0  0  0  0
  -29.1183  -22.4841   23.5765 H   0  0  0  0  0  0
  -28.5791  -23.2345   17.7109 H   0  0  0  0  0  0
  1 25  1  0  0  0
  1 30  2  0  0  0
  1 86  1  0  0  0
  2  3  1  0  0  0
  2 25  1  0  0  0
  2 90  1  0  0  0
  2 91  1  0  0  0
  3  4  1  0  0  0
  3 92  1  0  0  0
  3 93  1  0  0  0
  4  5  1  0  0  0
  4 94  1  0  0  0
  4 95  1  0  0  0
  5  6  1  0  0  0
  5 26  1  0  0  0
  5 96  1  0  0  0
  6 25  1  0  0  0
  6 97  1  0  0  0
  6 98  1  0  0  0
  7  8  2  0  0  0
  7 26  1  0  0  0
  7 29  1  0  0  0
  8  9  1  0  0  0
  8 22  1  0  0  0
  9 10  1  0  0  0
  9 27  2  0  0  0
 10 11  2  0  0  0
 10 15  1  0  0  0
 11 12  1  0  0  0
 11 99  1  0  0  0
 12 13  2  0  0  0
 12100  1  0  0  0
 13 14  1  0  0  0
 13 31  1  0  0  0
 14 15  2  0  0  0
 14101  1  0  0  0
 15102  1  0  0  0
 16 17  2  0  0  0
 16 21  1  0  0  0
 16 31  1  0  0  0
 17 18  1  0  0  0
 17103  1  0  0  0
 18 19  2  0  0  0
 18104  1  0  0  0
 19 20  1  0  0  0
 19 24  1  0  0  0
 20 21  2  0  0  0
 20105  1  0  0  0
 21 23  1  0  0  0
 22 28  1  0  0  0
 22 32  2  0  0  0
 26 27  1  0  0  0
 28106  1  0  0  0
 28107  1  0  0  0
 29108  1  0  0  0
 29109  1  0  0  0
 33 34  1  0  0  0
 33 66  1  0  0  0
 33 70  2  0  0  0
 34 36  1  0  0  0
 34 59  1  0  0  0
 34110  1  0  0  0
 35 44  2  0  0  0
 35 45  1  0  0  0
 35 68  1  0  0  0
 36 56  1  0  0  0
 36111  1  0  0  0
 37 39  1  0  0  0
 37 47  1  0  0  0
 37 66  1  0  0  0
 37112  1  0  0  0
 38 43  2  0  0  0
 38 46  1  0  0  0
 38 47  1  0  0  0
 39 64  1  0  0  0
 39 67  2  0  0  0
 40 52  1  0  0  0
 40 53  2  0  0  0
 40 58  1  0  0  0
 41113  1  0  0  0
 41114  1  0  0  0
 41115  1  0  0  0
 41 48  1  0  0  0
 42 43  1  0  0  0
 42 66  1  0  0  0
 42116  1  0  0  0
 42117  1  0  0  0
 43 44  1  0  0  0
 44118  1  0  0  0
 45 46  2  0  0  0
 45119  1  0  0  0
 46120  1  0  0  0
 47121  1  0  0  0
 47122  1  0  0  0
 48 56  1  0  0  0
 48 65  1  0  0  0
 48123  1  0  0  0
 49 50  1  0  0  0
 49 53  1  0  0  0
 49 64  1  0  0  0
 49124  1  0  0  0
 50 51  1  0  0  0
 50125  1  0  0  0
 50126  1  0  0  0
 51 52  1  0  0  0
 51127  1  0  0  0
 51128  1  0  0  0
 52129  1  0  0  0
 52130  1  0  0  0
 53 54  1  0  0  0
 54 55  2  0  0  0
 54131  1  0  0  0
 55 57  1  0  0  0
 55132  1  0  0  0
 56 69  2  0  0  0
 57 58  2  0  0  0
 57133  1  0  0  0
 58134  1  0  0  0
 59 60  1  0  0  0
 59 61  1  0  0  0
 59 62  1  0  0  0
 60135  1  0  0  0
 60136  1  0  0  0
 60137  1  0  0  0
 61138  1  0  0  0
 61139  1  0  0  0
 61140  1  0  0  0
 62141  1  0  0  0
 62142  1  0  0  0
 62143  1  0  0  0
 63 65  1  0  0  0
 63144  1  0  0  0
 63145  1  0  0  0
 63146  1  0  0  0
 64147  1  0  0  0
 65148  1  0  0  0
 68 83  1  0  0  0
 71 75  2  0  0  0
 71 76  1  0  0  0
 71149  1  0  0  0
 72 75  1  0  0  0
 72 78  2  0  0  0
 72150  1  0  0  0
 73 76  2  0  0  0
 73 78  1  0  0  0
 73151  1  0  0  0
 74 77  1  0  0  0
 74 79  2  0  0  0
 74152  1  0  0  0
 75 81  1  0  0  0
 76 82  1  0  0  0
 77 80  2  0  0  0
 77 83  1  0  0  0
 78 86  1  0  0  0
 79 84  1  0  0  0
 79 88  1  0  0  0
 80 84  1  0  0  0
 80 89  1  0  0  0
 81 85  1  0  0  0
 81 87  2  0  0  0
 82 84  1  0  0  0
 82153  1  0  0  0
 82154  1  0  0  0
 83155  1  0  0  0
 83156  1  0  0  0
 85157  1  0  0  0
 85158  1  0  0  0
 86159  1  0  0  0
 87160  1  0  0  0
 87161  1  0  0  0
 88162  1  0  0  0
 89163  1  0  0  0
M  CHG  1  87   1
M  ISO  4   1 100  68 101  83 101  86 100
M  END
> <chiral flag>
0

> <version>
0

> <s_m_source_file>
/data/baiqing/PycharmProjects/Reinvent-master-3.2/result/LINK_invent/BTK/process_docking_weight1_custom_product_contain_oxygen_bond_distance_aromatic_linkinvent_7_9_3/rearranged_h_0062.sdf

> <i_m_source_file_index>
20

> <r_mmod_Potential_Energy-OPLS-2005>
-332.302337646484

> <r_mmod_Stretch_Energy-OPLS-2005>
51.3413162231445

> <r_mmod_Bend_Energy-OPLS-2005>
125.322685241699

> <r_mmod_Torsional_Energy-OPLS-2005>
243.511154174805

> <r_mmod_Improper_Torsional_Energy-OPLS-2005>
5.86670589447021

> <r_mmod_Van_der_Waal_Energy-OPLS-2005>
145.081298828125

> <r_mmod_Electrostatic_Energy-OPLS-2005>
-482.712341308594

> <r_mmod_Solvation_Energy-OPLS-2005>
-442.416961669922

> <b_mmod_Minimization_Converged-OPLS-2005>
0

> <r_mmod_RMS_Derivative-OPLS-2005>
5.09506130218506

$$$$
20
                    3D
 Structure written by MMmdl.
159167  0  0  1  0            999 V2000
  -30.6245  -14.8102   20.4659 C   0  0  0  0  0  0
  -30.4343  -12.5022   19.4897 C   0  0  0  0  0  0
  -29.5186  -12.5182   18.2461 C   0  0  0  0  0  0
  -28.0496  -12.3192   18.6653 C   0  0  0  0  0  0
  -27.6387  -13.2402   19.8452 C   0  0  2  0  0  0
  -28.6830  -13.2293   20.9835 C   0  0  0  0  0  0
  -25.2487  -13.8189   20.5679 C   0  0  0  0  0  0
  -24.1794  -13.0425   20.9180 C   0  0  0  0  0  0
  -24.6401  -11.6918   20.8734 C   0  0  0  0  0  0
  -23.9083  -10.4291   21.0403 C   0  0  0  0  0  0
  -24.3630   -9.4212   21.9184 C   0  0  0  0  0  0
  -23.6301   -8.2252   22.0758 C   0  0  0  0  0  0
  -22.4287   -8.0286   21.3547 C   0  0  0  0  0  0
  -21.9930   -9.0250   20.4639 C   0  0  0  0  0  0
  -22.7264  -10.2127   20.3044 C   0  0  0  0  0  0
  -21.6860   -6.0742   22.5287 C   0  0  0  0  0  0
  -21.4026   -6.5646   23.8219 C   0  0  0  0  0  0
  -21.3669   -5.6799   24.9180 C   0  0  0  0  0  0
  -21.6038   -4.3054   24.7229 C   0  0  0  0  0  0
  -21.8814   -3.8149   23.4341 C   0  0  0  0  0  0
  -21.9185   -4.6970   22.3401 C   0  0  0  0  0  0
  -22.7814  -13.5214   21.1844 C   0  0  0  0  0  0
  -22.1655   -4.2160   21.0977 F   0  0  0  0  0  0
  -21.5625   -3.4537   25.7733 F   0  0  0  0  0  0
  -29.9775  -13.5881   20.3909 N   0  0  0  0  0  0
  -26.2931  -12.9423   20.3281 N   0  0  0  0  0  0
  -25.9342  -11.6558   20.5757 N   0  0  0  0  0  0
  -22.0458  -12.8205   22.0405 N   0  0  0  0  0  0
  -25.4132  -15.1917   20.4090 N   0  0  0  0  0  0
  -31.8201  -14.8566   20.1663 O   0  0  0  0  0  0
  -21.6645   -6.8884   21.4253 O   0  0  0  0  0  0
  -22.3512  -14.5526   20.6697 O   0  0  0  0  0  0
  -24.6396  -31.8499   23.1974 C   0  0  0  0  0  0
  -25.9200  -32.4735   23.8332 C   0  0  1  0  0  0
  -27.2105  -27.1983   20.1290 C   0  0  0  0  0  0
  -25.5975  -33.8537   24.2273 N   0  0  0  0  0  0
  -23.4425  -30.4751   21.5399 C   0  0  2  0  0  0
  -24.8926  -28.9253   20.1026 C   0  0  0  0  0  0
  -22.7563  -29.4577   22.4858 C   0  0  0  0  0  0
  -18.0322  -28.1421   22.8514 C   0  0  0  0  0  0
  -24.1465  -36.7207   23.2652 C   0  0  0  0  0  0
  -25.9963  -30.7352   21.4017 C   0  0  0  0  0  0
  -26.0663  -29.3569   20.7355 C   0  0  0  0  0  0
  -27.2292  -28.5014   20.7502 C   0  0  0  0  0  0
  -26.0298  -26.8835   19.4163 C   0  0  0  0  0  0
  -24.8823  -27.6967   19.4309 C   0  0  0  0  0  0
  -23.6694  -29.8229   20.1514 C   0  0  0  0  0  0
  -25.4105  -36.3031   24.0332 C   0  0  1  0  0  0
  -20.5915  -28.3738   23.1220 C   0  0  2  0  0  0
  -20.6765  -26.9435   22.5396 C   0  0  0  0  0  0
  -19.5735  -26.6400   21.5197 C   0  0  0  0  0  0
  -18.1936  -26.7973   22.1632 C   0  0  0  0  0  0
  -19.1579  -28.8902   23.2875 C   0  0  0  0  0  0
  -18.9506  -30.1503   23.8896 C   0  0  0  0  0  0
  -17.6499  -30.6611   24.0586 C   0  0  0  0  0  0
  -25.9064  -34.9420   23.5095 C   0  0  0  0  0  0
  -16.5390  -29.9097   23.6357 C   0  0  0  0  0  0
  -16.7310  -28.6519   23.0377 C   0  0  0  0  0  0
  -26.4554  -31.6549   25.0745 C   0  0  0  0  0  0
  -25.3784  -31.3704   26.1478 C   0  0  0  0  0  0
  -27.0421  -30.2939   24.6339 C   0  0  0  0  0  0
  -27.6116  -32.4291   25.7517 C   0  0  0  0  0  0
  -27.5557  -37.1750   24.8496 C   0  0  0  0  0  0
  -21.4251  -29.3064   22.3574 N   0  0  0  0  0  0
  -26.4279  -37.3724   23.9428 N   0  0  0  0  0  0
  -24.7118  -31.0401   22.1010 N   0  0  0  0  0  0
  -23.4232  -28.8130   23.2998 O   0  0  0  0  0  0
  -28.1831  -26.1491   20.2360 O   0  0  0  0  0  0
  -26.5626  -34.8910   22.4645 O   0  0  0  0  0  0
  -23.5486  -32.1387   23.7171 O   0  0  0  0  0  0
  -29.4637  -18.6247   20.5326 C   0  0  0  0  0  0
  -31.5576  -17.7104   21.3307 C   0  0  0  0  0  0
  -31.1014  -20.1413   21.5157 C   0  0  0  0  0  0
  -30.2859  -17.4320   20.7914 C   0  0  0  0  0  0
  -29.8512  -20.0172   20.8314 C   0  0  0  0  0  0
  -31.9441  -19.0140   21.6967 C   0  0  0  0  0  0
  -33.2430  -23.2913   21.9124 C   0  0  0  0  0  0
  -32.6932  -22.1429   21.4901 C   0  0  0  0  0  0
  -27.6388  -24.8659   20.6247 C   0  0  0  0  0  0
  -27.9106  -23.4776   20.6827 C   0  0  0  0  0  0
  -29.1134  -22.5936   20.3670 C   0  0  0  0  0  0
  -26.7127  -22.6562   21.1864 C   0  0  0  0  0  0
  -31.5630  -21.4264   22.2018 C   0  0  0  0  0  0
  -28.9482  -21.2097   20.6165 N   0  0  0  0  0  0
  -29.8773  -15.9882   20.6190 N   0  0  0  0  0  0
  -30.1571  -23.0306   19.8858 O   0  0  0  0  0  0
  -33.1510  -19.1724   22.2957 F   0  0  0  0  0  0
  -31.4769  -12.6232   19.1910 H   0  0  0  0  0  0
  -30.3811  -11.5385   19.9991 H   0  0  0  0  0  0
  -29.8199  -11.7405   17.5432 H   0  0  0  0  0  0
  -29.6227  -13.4691   17.7204 H   0  0  0  0  0  0
  -27.9357  -11.2746   18.9581 H   0  0  0  0  0  0
  -27.3874  -12.4693   17.8119 H   0  0  0  0  0  0
  -27.6152  -14.2497   19.4338 H   0  0  0  0  0  0
  -28.7340  -12.2505   21.4617 H   0  0  0  0  0  0
  -28.4080  -13.9391   21.7641 H   0  0  0  0  0  0
  -25.2764   -9.5694   22.4774 H   0  0  0  0  0  0
  -23.9999   -7.4650   22.7487 H   0  0  0  0  0  0
  -21.0863   -8.8766   19.8935 H   0  0  0  0  0  0
  -22.3721  -10.9665   19.6146 H   0  0  0  0  0  0
  -21.2038   -7.6158   23.9732 H   0  0  0  0  0  0
  -21.1501   -6.0525   25.9084 H   0  0  0  0  0  0
  -22.0582   -2.7614   23.2838 H   0  0  0  0  0  0
  -22.4071  -11.9868   22.4797 H   0  0  0  0  0  0
  -21.1064  -13.1226   22.2581 H   0  0  0  0  0  0
  -24.6300  -15.8320   20.4831 H   0  0  0  0  0  0
  -26.2577  -15.6399   20.0792 H   0  0  0  0  0  0
  -26.7277  -32.5377   23.1057 H   0  0  0  0  0  0
  -25.0154  -33.9626   25.0449 H   0  0  0  0  0  0
  -22.7451  -31.3001   21.3899 H   0  0  0  0  0  0
  -23.3744  -35.9509   23.3354 H   0  0  0  0  0  0
  -24.3560  -36.8803   22.2060 H   0  0  0  0  0  0
  -23.7172  -37.6409   23.6641 H   0  0  0  0  0  0
  -26.1548  -31.5029   20.6427 H   0  0  0  0  0  0
  -26.8646  -30.7707   22.0490 H   0  0  0  0  0  0
  -28.1103  -28.8017   21.2984 H   0  0  0  0  0  0
  -25.9665  -25.9430   18.8883 H   0  0  0  0  0  0
  -23.9917  -27.3662   18.9130 H   0  0  0  0  0  0
  -23.8109  -30.6103   19.4098 H   0  0  0  0  0  0
  -22.7863  -29.2689   19.8288 H   0  0  0  0  0  0
  -25.1249  -36.1893   25.0813 H   0  0  0  0  0  0
  -21.0057  -28.3368   24.1320 H   0  0  0  0  0  0
  -20.5615  -26.2372   23.3631 H   0  0  0  0  0  0
  -21.6623  -26.7395   22.1209 H   0  0  0  0  0  0
  -19.6882  -25.6302   21.1227 H   0  0  0  0  0  0
  -19.6651  -27.3227   20.6741 H   0  0  0  0  0  0
  -17.4168  -26.6783   21.4061 H   0  0  0  0  0  0
  -18.0351  -26.0098   22.9011 H   0  0  0  0  0  0
  -19.7987  -30.7334   24.2241 H   0  0  0  0  0  0
  -17.5044  -31.6289   24.5189 H   0  0  0  0  0  0
  -15.5380  -30.2982   23.7661 H   0  0  0  0  0  0
  -15.8736  -28.0814   22.7061 H   0  0  0  0  0  0
  -24.6032  -30.6945   25.7837 H   0  0  0  0  0  0
  -24.8884  -32.2849   26.4826 H   0  0  0  0  0  0
  -25.8143  -30.8984   27.0298 H   0  0  0  0  0  0
  -26.3021  -29.6644   24.1377 H   0  0  0  0  0  0
  -27.4083  -29.7269   25.4917 H   0  0  0  0  0  0
  -27.8918  -30.4152   23.9612 H   0  0  0  0  0  0
  -27.2752  -33.3629   26.2010 H   0  0  0  0  0  0
  -28.3969  -32.6767   25.0361 H   0  0  0  0  0  0
  -28.0725  -31.8464   26.5511 H   0  0  0  0  0  0
  -28.2583  -38.0040   24.7499 H   0  0  0  0  0  0
  -28.1030  -36.2556   24.6340 H   0  0  0  0  0  0
  -27.2291  -37.1465   25.8916 H   0  0  0  0  0  0
  -20.9481  -29.8736   21.6703 H   0  0  0  0  0  0
  -26.0172  -38.2783   24.1481 H   0  0  0  0  0  0
  -28.4909  -18.4595   20.0938 H   0  0  0  0  0  0
  -32.2523  -16.9117   21.5454 H   0  0  0  0  0  0
  -34.0503  -23.7530   21.3613 H   0  0  0  0  0  0
  -32.9021  -23.7883   22.8115 H   0  0  0  0  0  0
  -33.0658  -21.6750   20.5899 H   0  0  0  0  0  0
  -26.6589  -25.0859   21.0206 H   0  0  0  0  0  0
  -25.8458  -23.2563   21.4663 H   0  0  0  0  0  0
  -26.9722  -22.0708   22.0700 H   0  0  0  0  0  0
  -26.3646  -21.9796   20.4045 H   0  0  0  0  0  0
  -31.9206  -21.1551   23.1967 H   0  0  0  0  0  0
  -30.7414  -22.1084   22.4046 H   0  0  0  0  0  0
  -27.9691  -20.9923   20.7401 H   0  0  0  0  0  0
  -28.8831  -15.8253   20.6512 H   0  0  0  0  0  0
  1 25  1  0  0  0
  1 30  2  0  0  0
  1 85  1  0  0  0
  2  3  1  0  0  0
  2 25  1  0  0  0
  2 88  1  0  0  0
  2 89  1  0  0  0
  3  4  1  0  0  0
  3 90  1  0  0  0
  3 91  1  0  0  0
  4  5  1  0  0  0
  4 92  1  0  0  0
  4 93  1  0  0  0
  5  6  1  0  0  0
  5 26  1  0  0  0
  5 94  1  0  0  0
  6 25  1  0  0  0
  6 95  1  0  0  0
  6 96  1  0  0  0
  7  8  2  0  0  0
  7 26  1  0  0  0
  7 29  1  0  0  0
  8  9  1  0  0  0
  8 22  1  0  0  0
  9 10  1  0  0  0
  9 27  2  0  0  0
 10 11  2  0  0  0
 10 15  1  0  0  0
 11 12  1  0  0  0
 11 97  1  0  0  0
 12 13  2  0  0  0
 12 98  1  0  0  0
 13 14  1  0  0  0
 13 31  1  0  0  0
 14 15  2  0  0  0
 14 99  1  0  0  0
 15100  1  0  0  0
 16 17  2  0  0  0
 16 21  1  0  0  0
 16 31  1  0  0  0
 17 18  1  0  0  0
 17101  1  0  0  0
 18 19  2  0  0  0
 18102  1  0  0  0
 19 20  1  0  0  0
 19 24  1  0  0  0
 20 21  2  0  0  0
 20103  1  0  0  0
 21 23  1  0  0  0
 22 28  1  0  0  0
 22 32  2  0  0  0
 26 27  1  0  0  0
 28104  1  0  0  0
 28105  1  0  0  0
 29106  1  0  0  0
 29107  1  0  0  0
 33 34  1  0  0  0
 33 66  1  0  0  0
 33 70  2  0  0  0
 34 36  1  0  0  0
 34 59  1  0  0  0
 34108  1  0  0  0
 35 44  2  0  0  0
 35 45  1  0  0  0
 35 68  1  0  0  0
 36 56  1  0  0  0
 36109  1  0  0  0
 37 39  1  0  0  0
 37 47  1  0  0  0
 37 66  1  0  0  0
 37110  1  0  0  0
 38 43  2  0  0  0
 38 46  1  0  0  0
 38 47  1  0  0  0
 39 64  1  0  0  0
 39 67  2  0  0  0
 40 52  1  0  0  0
 40 53  2  0  0  0
 40 58  1  0  0  0
 41111  1  0  0  0
 41112  1  0  0  0
 41113  1  0  0  0
 41 48  1  0  0  0
 42 43  1  0  0  0
 42 66  1  0  0  0
 42114  1  0  0  0
 42115  1  0  0  0
 43 44  1  0  0  0
 44116  1  0  0  0
 45 46  2  0  0  0
 45117  1  0  0  0
 46118  1  0  0  0
 47119  1  0  0  0
 47120  1  0  0  0
 48 56  1  0  0  0
 48 65  1  0  0  0
 48121  1  0  0  0
 49 50  1  0  0  0
 49 53  1  0  0  0
 49 64  1  0  0  0
 49122  1  0  0  0
 50 51  1  0  0  0
 50123  1  0  0  0
 50124  1  0  0  0
 51 52  1  0  0  0
 51125  1  0  0  0
 51126  1  0  0  0
 52127  1  0  0  0
 52128  1  0  0  0
 53 54  1  0  0  0
 54 55  2  0  0  0
 54129  1  0  0  0
 55 57  1  0  0  0
 55130  1  0  0  0
 56 69  2  0  0  0
 57 58  2  0  0  0
 57131  1  0  0  0
 58132  1  0  0  0
 59 60  1  0  0  0
 59 61  1  0  0  0
 59 62  1  0  0  0
 60133  1  0  0  0
 60134  1  0  0  0
 60135  1  0  0  0
 61136  1  0  0  0
 61137  1  0  0  0
 61138  1  0  0  0
 62139  1  0  0  0
 62140  1  0  0  0
 62141  1  0  0  0
 63 65  1  0  0  0
 63142  1  0  0  0
 63143  1  0  0  0
 63144  1  0  0  0
 64145  1  0  0  0
 65146  1  0  0  0
 68 79  1  0  0  0
 71 74  2  0  0  0
 71 75  1  0  0  0
 71147  1  0  0  0
 72 74  1  0  0  0
 72 76  2  0  0  0
 72148  1  0  0  0
 73 75  2  0  0  0
 73 76  1  0  0  0
 73 83  1  0  0  0
 74 85  1  0  0  0
 75 84  1  0  0  0
 76 87  1  0  0  0
 77 78  2  0  0  0
 77149  1  0  0  0
 77150  1  0  0  0
 78 83  1  0  0  0
 78151  1  0  0  0
 79 80  2  0  0  0
 79152  1  0  0  0
 80 81  1  0  0  0
 80 82  1  0  0  0
 81 84  1  0  0  0
 81 86  2  0  0  0
 82153  1  0  0  0
 82154  1  0  0  0
 82155  1  0  0  0
 83156  1  0  0  0
 83157  1  0  0  0
 84158  1  0  0  0
 85159  1  0  0  0
M  ISO  4   1 100  68 101  79 101  85 100
M  END
> <chiral flag>
0

> <version>
0

> <s_m_source_file>
/data/baiqing/PycharmProjects/Reinvent-master-3.2/result/LINK_invent/BTK/process_docking_weight1_custom_product_contain_oxygen_bond_distance_aromatic_linkinvent_7_9_3/rearranged_h_0062.sdf

> <i_m_source_file_index>
21

> <r_mmod_Potential_Energy-OPLS-2005>
450.874176025391

> <r_mmod_Stretch_Energy-OPLS-2005>
174.270233154297

> <r_mmod_Bend_Energy-OPLS-2005>
266.421844482422

> <r_mmod_Torsional_Energy-OPLS-2005>
267.800811767578

> <r_mmod_Improper_Torsional_Energy-OPLS-2005>
7.76525640487671

> <r_mmod_Van_der_Waal_Energy-OPLS-2005>
162.576629638672

> <r_mmod_Electrostatic_Energy-OPLS-2005>
-338.020660400391

> <r_mmod_Solvation_Energy-OPLS-2005>
-231.227615356445

> <b_mmod_Minimization_Converged-OPLS-2005>
0

> <r_mmod_RMS_Derivative-OPLS-2005>
4.00155544281006

$$$$
21
                    3D
 Structure written by MMmdl.
149157  0  0  1  0            999 V2000
  -30.5896  -14.8034   20.4055 C   0  0  0  0  0  0
  -30.4231  -12.4856   19.4854 C   0  0  0  0  0  0
  -29.5039  -12.5152   18.2454 C   0  0  0  0  0  0
  -28.0311  -12.3338   18.6575 C   0  0  0  0  0  0
  -27.6323  -13.2444   19.8485 C   0  0  2  0  0  0
  -28.6775  -13.2066   20.9829 C   0  0  0  0  0  0
  -25.2435  -13.8239   20.5733 C   0  0  0  0  0  0
  -24.1751  -13.0446   20.9222 C   0  0  0  0  0  0
  -24.6366  -11.6943   20.8729 C   0  0  0  0  0  0
  -23.9050  -10.4297   21.0372 C   0  0  0  0  0  0
  -24.3596   -9.4222   21.9164 C   0  0  0  0  0  0
  -23.6269   -8.2260   22.0751 C   0  0  0  0  0  0
  -22.4257   -8.0274   21.3536 C   0  0  0  0  0  0
  -21.9876   -9.0247   20.4642 C   0  0  0  0  0  0
  -22.7209  -10.2125   20.3037 C   0  0  0  0  0  0
  -21.6861   -6.0722   22.5278 C   0  0  0  0  0  0
  -21.4020   -6.5627   23.8206 C   0  0  0  0  0  0
  -21.3674   -5.6793   24.9169 C   0  0  0  0  0  0
  -21.6036   -4.3056   24.7227 C   0  0  0  0  0  0
  -21.8825   -3.8144   23.4353 C   0  0  0  0  0  0
  -21.9191   -4.6953   22.3401 C   0  0  0  0  0  0
  -22.7769  -13.5204   21.1881 C   0  0  0  0  0  0
  -22.1649   -4.2141   21.0970 F   0  0  0  0  0  0
  -21.5635   -3.4536   25.7735 F   0  0  0  0  0  0
  -29.9740  -13.5666   20.3977 N   0  0  0  0  0  0
  -26.2872  -12.9473   20.3308 N   0  0  0  0  0  0
  -25.9298  -11.6603   20.5771 N   0  0  0  0  0  0
  -22.0420  -12.8186   22.0436 N   0  0  0  0  0  0
  -25.4071  -15.1966   20.4158 N   0  0  0  0  0  0
  -31.7874  -14.8669   20.1102 O   0  0  0  0  0  0
  -21.6648   -6.8855   21.4238 O   0  0  0  0  0  0
  -22.3434  -14.5494   20.6708 O   0  0  0  0  0  0
  -24.6326  -31.8517   23.1962 C   0  0  0  0  0  0
  -25.9142  -32.4739   23.8305 C   0  0  1  0  0  0
  -27.2196  -27.2336   20.1215 C   0  0  0  0  0  0
  -25.5951  -33.8552   24.2236 N   0  0  0  0  0  0
  -23.4280  -30.4709   21.5421 C   0  0  2  0  0  0
  -24.8759  -28.9148   20.1030 C   0  0  0  0  0  0
  -22.7488  -29.4575   22.4933 C   0  0  0  0  0  0
  -18.0281  -28.1354   22.8497 C   0  0  0  0  0  0
  -24.1491  -36.7264   23.2643 C   0  0  0  0  0  0
  -25.9737  -30.7511   21.3802 C   0  0  0  0  0  0
  -26.0458  -29.3734   20.7189 C   0  0  0  0  0  0
  -27.2153  -28.5441   20.7207 C   0  0  0  0  0  0
  -26.0256  -26.8487   19.4719 C   0  0  0  0  0  0
  -24.8723  -27.6634   19.4680 C   0  0  0  0  0  0
  -23.6438  -29.8010   20.1576 C   0  0  0  0  0  0
  -25.4132  -36.3061   24.0320 C   0  0  1  0  0  0
  -20.5889  -28.3664   23.1281 C   0  0  2  0  0  0
  -20.6770  -26.9379   22.5425 C   0  0  0  0  0  0
  -19.5754  -26.6356   21.5221 C   0  0  0  0  0  0
  -18.1925  -26.7898   22.1617 C   0  0  0  0  0  0
  -19.1538  -28.8833   23.2881 C   0  0  0  0  0  0
  -18.9459  -30.1439   23.8883 C   0  0  0  0  0  0
  -17.6468  -30.6565   24.0549 C   0  0  0  0  0  0
  -25.9077  -34.9438   23.5081 C   0  0  0  0  0  0
  -16.5353  -29.9058   23.6336 C   0  0  0  0  0  0
  -16.7268  -28.6465   23.0369 C   0  0  0  0  0  0
  -26.4507  -31.6586   25.0711 C   0  0  0  0  0  0
  -25.3730  -31.3734   26.1429 C   0  0  0  0  0  0
  -27.0368  -30.3006   24.6210 C   0  0  0  0  0  0
  -27.6050  -32.4341   25.7481 C   0  0  0  0  0  0
  -27.5579  -37.1790   24.8469 C   0  0  0  0  0  0
  -21.4196  -29.3015   22.3661 N   0  0  0  0  0  0
  -26.4289  -37.3772   23.9412 N   0  0  0  0  0  0
  -24.6962  -31.0455   22.0945 N   0  0  0  0  0  0
  -23.4181  -28.8136   23.3049 O   0  0  0  0  0  0
  -28.3048  -26.3220   20.2307 O   0  0  0  0  0  0
  -26.5645  -34.8911   22.4648 O   0  0  0  0  0  0
  -23.5483  -32.1359   23.7257 O   0  0  0  0  0  0
  -29.4182  -18.6131   20.4739 C   0  0  0  0  0  0
  -30.3487  -19.8876   18.6250 C   0  0  0  0  0  0
  -30.7341  -17.4630   18.7819 C   0  0  0  0  0  0
  -29.5735  -19.9202   19.8088 C   0  0  0  0  0  0
  -30.0004  -17.3490   19.9852 C   0  0  0  0  0  0
  -30.9030  -18.6957   18.1220 C   0  0  0  0  0  0
  -28.7045  -23.7844   20.3028 C   0  0  0  0  0  0
  -28.3066  -24.9853   19.7010 C   0  0  0  0  0  0
  -28.8343  -22.4543   19.5774 C   0  0  0  0  0  0
  -29.0733  -21.2646   20.2872 N   0  0  0  0  0  0
  -29.8265  -15.9699   20.5712 N   0  0  0  0  0  0
  -28.7290  -22.4117   18.3499 O   0  0  0  0  0  0
  -31.6151  -18.7315   16.9697 F   0  0  0  0  0  0
  -31.4619  -12.6064   19.1756 H   0  0  0  0  0  0
  -30.3700  -11.5166   19.9865 H   0  0  0  0  0  0
  -29.7931  -11.7375   17.5399 H   0  0  0  0  0  0
  -29.6302  -13.4641   17.7214 H   0  0  0  0  0  0
  -27.8954  -11.2888   18.9323 H   0  0  0  0  0  0
  -27.3727  -12.5122   17.8062 H   0  0  0  0  0  0
  -27.6154  -14.2618   19.4600 H   0  0  0  0  0  0
  -28.7209  -12.2183   21.4409 H   0  0  0  0  0  0
  -28.4029  -13.9007   21.7766 H   0  0  0  0  0  0
  -25.2741   -9.5732   22.4755 H   0  0  0  0  0  0
  -23.9992   -7.4660   22.7472 H   0  0  0  0  0  0
  -21.0811   -8.8731   19.8953 H   0  0  0  0  0  0
  -22.3625  -10.9643   19.6146 H   0  0  0  0  0  0
  -21.2014   -7.6134   23.9699 H   0  0  0  0  0  0
  -21.1488   -6.0523   25.9063 H   0  0  0  0  0  0
  -22.0588   -2.7610   23.2860 H   0  0  0  0  0  0
  -22.4034  -11.9842   22.4824 H   0  0  0  0  0  0
  -21.1030  -13.1204   22.2641 H   0  0  0  0  0  0
  -24.6367  -15.8462   20.5345 H   0  0  0  0  0  0
  -26.2521  -15.6446   20.0838 H   0  0  0  0  0  0
  -26.7191  -32.5359   23.1030 H   0  0  0  0  0  0
  -25.0143  -33.9719   25.0407 H   0  0  0  0  0  0
  -22.7255  -31.2945   21.3969 H   0  0  0  0  0  0
  -23.3781  -35.9568   23.3307 H   0  0  0  0  0  0
  -24.3572  -36.8886   22.2056 H   0  0  0  0  0  0
  -23.7225  -37.6452   23.6679 H   0  0  0  0  0  0
  -26.1211  -31.5105   20.6112 H   0  0  0  0  0  0
  -26.8472  -30.7981   22.0169 H   0  0  0  0  0  0
  -28.1025  -28.8861   21.2348 H   0  0  0  0  0  0
  -25.9516  -25.8835   18.9935 H   0  0  0  0  0  0
  -23.9749  -27.3093   18.9806 H   0  0  0  0  0  0
  -23.7569  -30.5792   19.4004 H   0  0  0  0  0  0
  -22.7614  -29.2302   19.8589 H   0  0  0  0  0  0
  -25.1328  -36.1896   25.0813 H   0  0  0  0  0  0
  -20.9980  -28.3226   24.1402 H   0  0  0  0  0  0
  -20.5666  -26.2265   23.3630 H   0  0  0  0  0  0
  -21.6632  -26.7394   22.1210 H   0  0  0  0  0  0
  -19.6919  -25.6272   21.1240 H   0  0  0  0  0  0
  -19.6702  -27.3175   20.6759 H   0  0  0  0  0  0
  -17.4214  -26.6673   21.3996 H   0  0  0  0  0  0
  -18.0305  -26.0015   22.8975 H   0  0  0  0  0  0
  -19.7941  -30.7252   24.2227 H   0  0  0  0  0  0
  -17.5017  -31.6253   24.5133 H   0  0  0  0  0  0
  -15.5351  -30.2955   23.7670 H   0  0  0  0  0  0
  -15.8664  -28.0774   22.7117 H   0  0  0  0  0  0
  -24.5947  -30.7029   25.7761 H   0  0  0  0  0  0
  -24.8887  -32.2908   26.4789 H   0  0  0  0  0  0
  -25.8062  -30.8972   27.0236 H   0  0  0  0  0  0
  -26.2957  -29.6746   24.1224 H   0  0  0  0  0  0
  -27.4048  -29.7269   25.4727 H   0  0  0  0  0  0
  -27.8833  -30.4296   23.9457 H   0  0  0  0  0  0
  -27.2651  -33.3672   26.1983 H   0  0  0  0  0  0
  -28.3887  -32.6841   25.0319 H   0  0  0  0  0  0
  -28.0673  -31.8510   26.5455 H   0  0  0  0  0  0
  -28.2597  -38.0084   24.7521 H   0  0  0  0  0  0
  -28.1067  -36.2621   24.6294 H   0  0  0  0  0  0
  -27.2287  -37.1428   25.8862 H   0  0  0  0  0  0
  -20.9382  -29.8712   21.6843 H   0  0  0  0  0  0
  -26.0167  -38.2833   24.1429 H   0  0  0  0  0  0
  -28.8394  -18.5791   21.3861 H   0  0  0  0  0  0
  -30.5502  -20.7924   18.0718 H   0  0  0  0  0  0
  -31.1760  -16.5930   18.3183 H   0  0  0  0  0  0
  -28.9826  -23.8130   21.3454 H   0  0  0  0  0  0
  -28.0000  -24.9946   18.6643 H   0  0  0  0  0  0
  -28.9254  -21.3392   21.2836 H   0  0  0  0  0  0
  -28.9349  -15.8106   21.0159 H   0  0  0  0  0  0
  1 25  1  0  0  0
  1 30  2  0  0  0
  1 81  1  0  0  0
  2  3  1  0  0  0
  2 25  1  0  0  0
  2 84  1  0  0  0
  2 85  1  0  0  0
  3  4  1  0  0  0
  3 86  1  0  0  0
  3 87  1  0  0  0
  4  5  1  0  0  0
  4 88  1  0  0  0
  4 89  1  0  0  0
  5  6  1  0  0  0
  5 26  1  0  0  0
  5 90  1  0  0  0
  6 25  1  0  0  0
  6 91  1  0  0  0
  6 92  1  0  0  0
  7  8  2  0  0  0
  7 26  1  0  0  0
  7 29  1  0  0  0
  8  9  1  0  0  0
  8 22  1  0  0  0
  9 10  1  0  0  0
  9 27  2  0  0  0
 10 11  2  0  0  0
 10 15  1  0  0  0
 11 12  1  0  0  0
 11 93  1  0  0  0
 12 13  2  0  0  0
 12 94  1  0  0  0
 13 14  1  0  0  0
 13 31  1  0  0  0
 14 15  2  0  0  0
 14 95  1  0  0  0
 15 96  1  0  0  0
 16 17  2  0  0  0
 16 21  1  0  0  0
 16 31  1  0  0  0
 17 18  1  0  0  0
 17 97  1  0  0  0
 18 19  2  0  0  0
 18 98  1  0  0  0
 19 20  1  0  0  0
 19 24  1  0  0  0
 20 21  2  0  0  0
 20 99  1  0  0  0
 21 23  1  0  0  0
 22 28  1  0  0  0
 22 32  2  0  0  0
 26 27  1  0  0  0
 28100  1  0  0  0
 28101  1  0  0  0
 29102  1  0  0  0
 29103  1  0  0  0
 33 34  1  0  0  0
 33 66  1  0  0  0
 33 70  2  0  0  0
 34 36  1  0  0  0
 34 59  1  0  0  0
 34104  1  0  0  0
 35 44  2  0  0  0
 35 45  1  0  0  0
 35 68  1  0  0  0
 36 56  1  0  0  0
 36105  1  0  0  0
 37 39  1  0  0  0
 37 47  1  0  0  0
 37 66  1  0  0  0
 37106  1  0  0  0
 38 43  2  0  0  0
 38 46  1  0  0  0
 38 47  1  0  0  0
 39 64  1  0  0  0
 39 67  2  0  0  0
 40 52  1  0  0  0
 40 53  2  0  0  0
 40 58  1  0  0  0
 41107  1  0  0  0
 41108  1  0  0  0
 41109  1  0  0  0
 41 48  1  0  0  0
 42 43  1  0  0  0
 42 66  1  0  0  0
 42110  1  0  0  0
 42111  1  0  0  0
 43 44  1  0  0  0
 44112  1  0  0  0
 45 46  2  0  0  0
 45113  1  0  0  0
 46114  1  0  0  0
 47115  1  0  0  0
 47116  1  0  0  0
 48 56  1  0  0  0
 48 65  1  0  0  0
 48117  1  0  0  0
 49 50  1  0  0  0
 49 53  1  0  0  0
 49 64  1  0  0  0
 49118  1  0  0  0
 50 51  1  0  0  0
 50119  1  0  0  0
 50120  1  0  0  0
 51 52  1  0  0  0
 51121  1  0  0  0
 51122  1  0  0  0
 52123  1  0  0  0
 52124  1  0  0  0
 53 54  1  0  0  0
 54 55  2  0  0  0
 54125  1  0  0  0
 55 57  1  0  0  0
 55126  1  0  0  0
 56 69  2  0  0  0
 57 58  2  0  0  0
 57127  1  0  0  0
 58128  1  0  0  0
 59 60  1  0  0  0
 59 61  1  0  0  0
 59 62  1  0  0  0
 60129  1  0  0  0
 60130  1  0  0  0
 60131  1  0  0  0
 61132  1  0  0  0
 61133  1  0  0  0
 61134  1  0  0  0
 62135  1  0  0  0
 62136  1  0  0  0
 62137  1  0  0  0
 63 65  1  0  0  0
 63138  1  0  0  0
 63139  1  0  0  0
 63140  1  0  0  0
 64141  1  0  0  0
 65142  1  0  0  0
 68 78  1  0  0  0
 71 74  2  0  0  0
 71 75  1  0  0  0
 71143  1  0  0  0
 72 74  1  0  0  0
 72 76  2  0  0  0
 72144  1  0  0  0
 73 75  2  0  0  0
 73 76  1  0  0  0
 73145  1  0  0  0
 74 80  1  0  0  0
 75 81  1  0  0  0
 76 83  1  0  0  0
 77 78  2  0  0  0
 77 79  1  0  0  0
 77146  1  0  0  0
 78147  1  0  0  0
 79 80  1  0  0  0
 79 82  2  0  0  0
 80148  1  0  0  0
 81149  1  0  0  0
M  ISO  4   1 100  68 101  78 101  81 100
M  END
> <chiral flag>
0

> <version>
0

> <s_m_source_file>
/data/baiqing/PycharmProjects/Reinvent-master-3.2/result/LINK_invent/BTK/process_docking_weight1_custom_product_contain_oxygen_bond_distance_aromatic_linkinvent_7_9_3/rearranged_h_0062.sdf

> <i_m_source_file_index>
22

> <r_mmod_Potential_Energy-OPLS-2005>
235.8671875

> <r_mmod_Stretch_Energy-OPLS-2005>
153.13215637207

> <r_mmod_Bend_Energy-OPLS-2005>
169.718704223633

> <r_mmod_Torsional_Energy-OPLS-2005>
247.46369934082

> <r_mmod_Improper_Torsional_Energy-OPLS-2005>
5.43815279006958

> <r_mmod_Van_der_Waal_Energy-OPLS-2005>
143.913436889648

> <r_mmod_Electrostatic_Energy-OPLS-2005>
-363.189331054688

> <r_mmod_Solvation_Energy-OPLS-2005>
-231.652267456055

> <b_mmod_Minimization_Converged-OPLS-2005>
0

> <r_mmod_RMS_Derivative-OPLS-2005>
3.23008298873901

$$$$
22
                    3D
 Structure written by MMmdl.
149157  0  0  1  0            999 V2000
  -30.5860  -14.8176   20.4625 C   0  0  0  0  0  0
  -30.4347  -12.5085   19.4732 C   0  0  0  0  0  0
  -29.5115  -12.5171   18.2349 C   0  0  0  0  0  0
  -28.0420  -12.3193   18.6537 C   0  0  0  0  0  0
  -27.6336  -13.2330   19.8398 C   0  0  2  0  0  0
  -28.6777  -13.2076   20.9755 C   0  0  0  0  0  0
  -25.2476  -13.8182   20.5667 C   0  0  0  0  0  0
  -24.1782  -13.0429   20.9208 C   0  0  0  0  0  0
  -24.6389  -11.6911   20.8751 C   0  0  0  0  0  0
  -23.9065  -10.4287   21.0406 C   0  0  0  0  0  0
  -24.3614   -9.4202   21.9182 C   0  0  0  0  0  0
  -23.6291   -8.2241   22.0760 C   0  0  0  0  0  0
  -22.4278   -8.0272   21.3548 C   0  0  0  0  0  0
  -21.9905   -9.0243   20.4652 C   0  0  0  0  0  0
  -22.7233  -10.2123   20.3052 C   0  0  0  0  0  0
  -21.6851   -6.0728   22.5278 C   0  0  0  0  0  0
  -21.4016   -6.5638   23.8211 C   0  0  0  0  0  0
  -21.3660   -5.6795   24.9178 C   0  0  0  0  0  0
  -21.6039   -4.3059   24.7230 C   0  0  0  0  0  0
  -21.8820   -3.8146   23.4357 C   0  0  0  0  0  0
  -21.9195   -4.6957   22.3409 C   0  0  0  0  0  0
  -22.7808  -13.5207   21.1873 C   0  0  0  0  0  0
  -22.1662   -4.2143   21.0986 F   0  0  0  0  0  0
  -21.5628   -3.4541   25.7744 F   0  0  0  0  0  0
  -29.9672  -13.5839   20.3835 N   0  0  0  0  0  0
  -26.2896  -12.9393   20.3223 N   0  0  0  0  0  0
  -25.9305  -11.6537   20.5727 N   0  0  0  0  0  0
  -22.0463  -12.8194   22.0435 N   0  0  0  0  0  0
  -25.4138  -15.1907   20.4062 N   0  0  0  0  0  0
  -31.7899  -14.8910   20.1936 O   0  0  0  0  0  0
  -21.6647   -6.8870   21.4242 O   0  0  0  0  0  0
  -22.3494  -14.5516   20.6722 O   0  0  0  0  0  0
  -24.6356  -31.8515   23.1963 C   0  0  0  0  0  0
  -25.9171  -32.4737   23.8316 C   0  0  1  0  0  0
  -27.2229  -27.2251   20.1484 C   0  0  0  0  0  0
  -25.5946  -33.8536   24.2235 N   0  0  0  0  0  0
  -23.4342  -30.4705   21.5406 C   0  0  2  0  0  0
  -24.8815  -28.9043   20.1198 C   0  0  0  0  0  0
  -22.7513  -29.4569   22.4917 C   0  0  0  0  0  0
  -18.0279  -28.1395   22.8494 C   0  0  0  0  0  0
  -24.1481  -36.7265   23.2643 C   0  0  0  0  0  0
  -25.9817  -30.7530   21.3793 C   0  0  0  0  0  0
  -26.0542  -29.3679   20.7303 C   0  0  0  0  0  0
  -27.2303  -28.5434   20.7296 C   0  0  0  0  0  0
  -26.0264  -26.8289   19.5182 C   0  0  0  0  0  0
  -24.8727  -27.6423   19.5029 C   0  0  0  0  0  0
  -23.6566  -29.7997   20.1587 C   0  0  0  0  0  0
  -25.4117  -36.3055   24.0325 C   0  0  1  0  0  0
  -20.5889  -28.3694   23.1279 C   0  0  2  0  0  0
  -20.6770  -26.9410   22.5414 C   0  0  0  0  0  0
  -19.5737  -26.6386   21.5219 C   0  0  0  0  0  0
  -18.1920  -26.7933   22.1646 C   0  0  0  0  0  0
  -19.1535  -28.8867   23.2877 C   0  0  0  0  0  0
  -18.9455  -30.1473   23.8885 C   0  0  0  0  0  0
  -17.6454  -30.6595   24.0563 C   0  0  0  0  0  0
  -25.9062  -34.9426   23.5079 C   0  0  0  0  0  0
  -16.5348  -29.9091   23.6339 C   0  0  0  0  0  0
  -16.7267  -28.6511   23.0361 C   0  0  0  0  0  0
  -26.4521  -31.6581   25.0719 C   0  0  0  0  0  0
  -25.3733  -31.3779   26.1437 C   0  0  0  0  0  0
  -27.0344  -30.2986   24.6223 C   0  0  0  0  0  0
  -27.6078  -32.4311   25.7482 C   0  0  0  0  0  0
  -27.5566  -37.1802   24.8479 C   0  0  0  0  0  0
  -21.4210  -29.3038   22.3670 N   0  0  0  0  0  0
  -26.4291  -37.3760   23.9401 N   0  0  0  0  0  0
  -24.7037  -31.0440   22.0956 N   0  0  0  0  0  0
  -23.4185  -28.8109   23.3037 O   0  0  0  0  0  0
  -28.3162  -26.3219   20.1017 O   0  0  0  0  0  0
  -26.5622  -34.8915   22.4638 O   0  0  0  0  0  0
  -23.5496  -32.1345   23.7244 O   0  0  0  0  0  0
  -31.7030  -19.0292   21.8449 C   0  0  0  0  0  0
  -30.9318  -20.1413   21.4512 C   0  0  0  0  0  0
  -31.3254  -17.7078   21.5318 C   0  0  0  0  0  0
  -29.3627  -18.6037   20.4066 C   0  0  0  0  0  0
  -29.7354  -19.9956   20.7138 C   0  0  0  0  0  0
  -30.1492  -17.4214   20.8034 C   0  0  0  0  0  0
  -28.7862  -23.7975   20.1511 C   0  0  0  0  0  0
  -28.2439  -24.9918   20.6445 C   0  0  0  0  0  0
  -28.8696  -22.4779   20.9098 C   0  0  0  0  0  0
  -29.0912  -21.2710   20.2326 N   0  0  0  0  0  0
  -29.7977  -15.9746   20.5795 N   0  0  0  0  0  0
  -28.7588  -22.4493   22.1375 O   0  0  0  0  0  0
  -31.4722  -12.6501   19.1659 H   0  0  0  0  0  0
  -30.3994  -11.5412   19.9760 H   0  0  0  0  0  0
  -29.8110  -11.7368   17.5332 H   0  0  0  0  0  0
  -29.6176  -13.4645   17.7038 H   0  0  0  0  0  0
  -27.9200  -11.2722   18.9354 H   0  0  0  0  0  0
  -27.3795  -12.4823   17.8032 H   0  0  0  0  0  0
  -27.6140  -14.2452   19.4365 H   0  0  0  0  0  0
  -28.7354  -12.2207   21.4358 H   0  0  0  0  0  0
  -28.3977  -13.9027   21.7689 H   0  0  0  0  0  0
  -25.2760   -9.5688   22.4759 H   0  0  0  0  0  0
  -24.0007   -7.4631   22.7474 H   0  0  0  0  0  0
  -21.0840   -8.8747   19.8955 H   0  0  0  0  0  0
  -22.3678  -10.9656   19.6162 H   0  0  0  0  0  0
  -21.2006   -7.6146   23.9709 H   0  0  0  0  0  0
  -21.1478   -6.0531   25.9078 H   0  0  0  0  0  0
  -22.0597   -2.7606   23.2858 H   0  0  0  0  0  0
  -22.4094  -11.9861   22.4821 H   0  0  0  0  0  0
  -21.1076  -13.1219   22.2646 H   0  0  0  0  0  0
  -24.6359  -15.8350   20.4994 H   0  0  0  0  0  0
  -26.2484  -15.6321   20.0440 H   0  0  0  0  0  0
  -26.7216  -32.5373   23.1034 H   0  0  0  0  0  0
  -25.0123  -33.9661   25.0404 H   0  0  0  0  0  0
  -22.7334  -31.2956   21.3926 H   0  0  0  0  0  0
  -23.3735  -35.9609   23.3351 H   0  0  0  0  0  0
  -24.3559  -36.8834   22.2045 H   0  0  0  0  0  0
  -23.7251  -37.6493   23.6633 H   0  0  0  0  0  0
  -26.1181  -31.5082   20.6040 H   0  0  0  0  0  0
  -26.8595  -30.8105   22.0112 H   0  0  0  0  0  0
  -28.1344  -28.9006   21.2006 H   0  0  0  0  0  0
  -25.9829  -25.8620   19.0361 H   0  0  0  0  0  0
  -23.9750  -27.2803   19.0198 H   0  0  0  0  0  0
  -23.7892  -30.5749   19.4034 H   0  0  0  0  0  0
  -22.7730  -29.2389   19.8511 H   0  0  0  0  0  0
  -25.1304  -36.1896   25.0821 H   0  0  0  0  0  0
  -20.9981  -28.3248   24.1406 H   0  0  0  0  0  0
  -20.5667  -26.2292   23.3613 H   0  0  0  0  0  0
  -21.6633  -26.7425   22.1214 H   0  0  0  0  0  0
  -19.6886  -25.6290   21.1257 H   0  0  0  0  0  0
  -19.6675  -27.3191   20.6742 H   0  0  0  0  0  0
  -17.4192  -26.6677   21.4052 H   0  0  0  0  0  0
  -18.0326  -26.0077   22.9048 H   0  0  0  0  0  0
  -19.7927  -30.7299   24.2244 H   0  0  0  0  0  0
  -17.5005  -31.6273   24.5165 H   0  0  0  0  0  0
  -15.5346  -30.2990   23.7674 H   0  0  0  0  0  0
  -15.8670  -28.0828   22.7079 H   0  0  0  0  0  0
  -24.5859  -30.7174   25.7778 H   0  0  0  0  0  0
  -24.8981  -32.2976   26.4857 H   0  0  0  0  0  0
  -25.8029  -30.8941   27.0215 H   0  0  0  0  0  0
  -26.2916  -29.6747   24.1235 H   0  0  0  0  0  0
  -27.3991  -29.7246   25.4751 H   0  0  0  0  0  0
  -27.8821  -30.4247   23.9483 H   0  0  0  0  0  0
  -27.2713  -33.3659   26.1977 H   0  0  0  0  0  0
  -28.3940  -32.6781   25.0333 H   0  0  0  0  0  0
  -28.0679  -31.8467   26.5459 H   0  0  0  0  0  0
  -28.2634  -38.0051   24.7461 H   0  0  0  0  0  0
  -28.1002  -36.2577   24.6385 H   0  0  0  0  0  0
  -27.2268  -37.1553   25.8882 H   0  0  0  0  0  0
  -20.9393  -29.8792   21.6904 H   0  0  0  0  0  0
  -26.0158  -38.2834   24.1386 H   0  0  0  0  0  0
  -32.6173  -19.1948   22.3979 H   0  0  0  0  0  0
  -31.2984  -21.1280   21.6981 H   0  0  0  0  0  0
  -31.9603  -16.9056   21.8815 H   0  0  0  0  0  0
  -28.4523  -18.4407   19.8477 H   0  0  0  0  0  0
  -29.2531  -23.8297   19.1774 H   0  0  0  0  0  0
  -27.7325  -25.0023   21.5975 H   0  0  0  0  0  0
  -28.9127  -21.3104   19.2387 H   0  0  0  0  0  0
  -28.8083  -15.7850   20.5410 H   0  0  0  0  0  0
  1 25  1  0  0  0
  1 30  2  0  0  0
  1 81  1  0  0  0
  2  3  1  0  0  0
  2 25  1  0  0  0
  2 83  1  0  0  0
  2 84  1  0  0  0
  3  4  1  0  0  0
  3 85  1  0  0  0
  3 86  1  0  0  0
  4  5  1  0  0  0
  4 87  1  0  0  0
  4 88  1  0  0  0
  5  6  1  0  0  0
  5 26  1  0  0  0
  5 89  1  0  0  0
  6 25  1  0  0  0
  6 90  1  0  0  0
  6 91  1  0  0  0
  7  8  2  0  0  0
  7 26  1  0  0  0
  7 29  1  0  0  0
  8  9  1  0  0  0
  8 22  1  0  0  0
  9 10  1  0  0  0
  9 27  2  0  0  0
 10 11  2  0  0  0
 10 15  1  0  0  0
 11 12  1  0  0  0
 11 92  1  0  0  0
 12 13  2  0  0  0
 12 93  1  0  0  0
 13 14  1  0  0  0
 13 31  1  0  0  0
 14 15  2  0  0  0
 14 94  1  0  0  0
 15 95  1  0  0  0
 16 17  2  0  0  0
 16 21  1  0  0  0
 16 31  1  0  0  0
 17 18  1  0  0  0
 17 96  1  0  0  0
 18 19  2  0  0  0
 18 97  1  0  0  0
 19 20  1  0  0  0
 19 24  1  0  0  0
 20 21  2  0  0  0
 20 98  1  0  0  0
 21 23  1  0  0  0
 22 28  1  0  0  0
 22 32  2  0  0  0
 26 27  1  0  0  0
 28 99  1  0  0  0
 28100  1  0  0  0
 29101  1  0  0  0
 29102  1  0  0  0
 33 34  1  0  0  0
 33 66  1  0  0  0
 33 70  2  0  0  0
 34 36  1  0  0  0
 34 59  1  0  0  0
 34103  1  0  0  0
 35 44  2  0  0  0
 35 45  1  0  0  0
 35 68  1  0  0  0
 36 56  1  0  0  0
 36104  1  0  0  0
 37 39  1  0  0  0
 37 47  1  0  0  0
 37 66  1  0  0  0
 37105  1  0  0  0
 38 43  2  0  0  0
 38 46  1  0  0  0
 38 47  1  0  0  0
 39 64  1  0  0  0
 39 67  2  0  0  0
 40 52  1  0  0  0
 40 53  2  0  0  0
 40 58  1  0  0  0
 41106  1  0  0  0
 41107  1  0  0  0
 41108  1  0  0  0
 41 48  1  0  0  0
 42 43  1  0  0  0
 42 66  1  0  0  0
 42109  1  0  0  0
 42110  1  0  0  0
 43 44  1  0  0  0
 44111  1  0  0  0
 45 46  2  0  0  0
 45112  1  0  0  0
 46113  1  0  0  0
 47114  1  0  0  0
 47115  1  0  0  0
 48 56  1  0  0  0
 48 65  1  0  0  0
 48116  1  0  0  0
 49 50  1  0  0  0
 49 53  1  0  0  0
 49 64  1  0  0  0
 49117  1  0  0  0
 50 51  1  0  0  0
 50118  1  0  0  0
 50119  1  0  0  0
 51 52  1  0  0  0
 51120  1  0  0  0
 51121  1  0  0  0
 52122  1  0  0  0
 52123  1  0  0  0
 53 54  1  0  0  0
 54 55  2  0  0  0
 54124  1  0  0  0
 55 57  1  0  0  0
 55125  1  0  0  0
 56 69  2  0  0  0
 57 58  2  0  0  0
 57126  1  0  0  0
 58127  1  0  0  0
 59 60  1  0  0  0
 59 61  1  0  0  0
 59 62  1  0  0  0
 60128  1  0  0  0
 60129  1  0  0  0
 60130  1  0  0  0
 61131  1  0  0  0
 61132  1  0  0  0
 61133  1  0  0  0
 62134  1  0  0  0
 62135  1  0  0  0
 62136  1  0  0  0
 63 65  1  0  0  0
 63137  1  0  0  0
 63138  1  0  0  0
 63139  1  0  0  0
 64140  1  0  0  0
 65141  1  0  0  0
 68 78  1  0  0  0
 71 72  2  0  0  0
 71 73  1  0  0  0
 71142  1  0  0  0
 72 75  1  0  0  0
 72143  1  0  0  0
 73 76  2  0  0  0
 73144  1  0  0  0
 74 75  2  0  0  0
 74 76  1  0  0  0
 74145  1  0  0  0
 75 80  1  0  0  0
 76 81  1  0  0  0
 77 78  2  0  0  0
 77 79  1  0  0  0
 77146  1  0  0  0
 78147  1  0  0  0
 79 80  1  0  0  0
 79 82  2  0  0  0
 80148  1  0  0  0
 81149  1  0  0  0
M  ISO  4   1 100  68 101  78 101  81 100
M  END
> <chiral flag>
0

> <version>
0

> <s_m_source_file>
/data/baiqing/PycharmProjects/Reinvent-master-3.2/result/LINK_invent/BTK/process_docking_weight1_custom_product_contain_oxygen_bond_distance_aromatic_linkinvent_7_9_3/rearranged_h_0062.sdf

> <i_m_source_file_index>
23

> <r_mmod_Potential_Energy-OPLS-2005>
225.721710205078

> <r_mmod_Stretch_Energy-OPLS-2005>
150.955795288086

> <r_mmod_Bend_Energy-OPLS-2005>
168.483627319336

> <r_mmod_Torsional_Energy-OPLS-2005>
266.281341552734

> <r_mmod_Improper_Torsional_Energy-OPLS-2005>
8.213942527771

> <r_mmod_Van_der_Waal_Energy-OPLS-2005>
133.450607299805

> <r_mmod_Electrostatic_Energy-OPLS-2005>
-381.644805908203

> <r_mmod_Solvation_Energy-OPLS-2005>
-232.530303955078

> <b_mmod_Minimization_Converged-OPLS-2005>
0

> <r_mmod_RMS_Derivative-OPLS-2005>
2.62025117874146

$$$$
23
                    3D
 Structure written by MMmdl.
169178  0  0  1  0            999 V2000
  -30.6582  -14.5426   20.5321 C   0  0  0  0  0  0
  -30.4351  -12.3434   19.4223 C   0  0  0  0  0  0
  -29.5001  -12.5169   18.2056 C   0  0  0  0  0  0
  -28.0219  -12.3621   18.6186 C   0  0  0  0  0  0
  -27.6603  -13.1989   19.8744 C   0  0  2  0  0  0
  -28.7095  -13.0020   20.9925 C   0  0  0  0  0  0
  -25.2588  -13.8108   20.5738 C   0  0  0  0  0  0
  -24.1827  -13.0396   20.9189 C   0  0  0  0  0  0
  -24.6379  -11.6869   20.8726 C   0  0  0  0  0  0
  -23.9045  -10.4264   21.0395 C   0  0  0  0  0  0
  -24.3600   -9.4193   21.9184 C   0  0  0  0  0  0
  -23.6277   -8.2233   22.0757 C   0  0  0  0  0  0
  -22.4262   -8.0266   21.3543 C   0  0  0  0  0  0
  -21.9889   -9.0240   20.4651 C   0  0  0  0  0  0
  -22.7215  -10.2111   20.3054 C   0  0  0  0  0  0
  -21.6843   -6.0731   22.5283 C   0  0  0  0  0  0
  -21.4006   -6.5640   23.8216 C   0  0  0  0  0  0
  -21.3652   -5.6788   24.9178 C   0  0  0  0  0  0
  -21.6036   -4.3050   24.7231 C   0  0  0  0  0  0
  -21.8822   -3.8143   23.4349 C   0  0  0  0  0  0
  -21.9190   -4.6960   22.3402 C   0  0  0  0  0  0
  -22.7858  -13.5222   21.1842 C   0  0  0  0  0  0
  -22.1671   -4.2158   21.0980 F   0  0  0  0  0  0
  -21.5616   -3.4535   25.7738 F   0  0  0  0  0  0
  -30.0331  -13.3332   20.4349 N   0  0  0  0  0  0
  -26.3023  -12.9267   20.3390 N   0  0  0  0  0  0
  -25.9302  -11.6434   20.5741 N   0  0  0  0  0  0
  -22.0466  -12.8244   22.0391 N   0  0  0  0  0  0
  -25.4261  -15.1831   20.4256 N   0  0  0  0  0  0
  -31.8049  -14.7348   20.1154 O   0  0  0  0  0  0
  -21.6629   -6.8870   21.4243 O   0  0  0  0  0  0
  -22.3579  -14.5540   20.6686 O   0  0  0  0  0  0
  -24.6170  -31.8651   23.2064 C   0  0  0  0  0  0
  -25.9053  -32.4802   23.8374 C   0  0  1  0  0  0
  -27.2432  -27.3981   20.1026 C   0  0  0  0  0  0
  -25.5902  -33.8602   24.2314 N   0  0  0  0  0  0
  -23.4074  -30.4862   21.5471 C   0  0  2  0  0  0
  -24.8549  -28.9476   20.1104 C   0  0  0  0  0  0
  -22.7432  -29.4633   22.4969 C   0  0  0  0  0  0
  -18.0284  -28.1384   22.8484 C   0  0  0  0  0  0
  -24.1487  -36.7307   23.2635 C   0  0  0  0  0  0
  -25.9381  -30.8187   21.3649 C   0  0  0  0  0  0
  -26.0140  -29.4502   20.7115 C   0  0  0  0  0  0
  -27.2033  -28.6818   20.7064 C   0  0  0  0  0  0
  -26.0562  -26.9127   19.5033 C   0  0  0  0  0  0
  -24.8733  -27.6798   19.5035 C   0  0  0  0  0  0
  -23.6169  -29.8172   20.1616 C   0  0  0  0  0  0
  -25.4104  -36.3102   24.0338 C   0  0  1  0  0  0
  -20.5871  -28.3675   23.1305 C   0  0  2  0  0  0
  -20.6770  -26.9404   22.5419 C   0  0  0  0  0  0
  -19.5751  -26.6385   21.5213 C   0  0  0  0  0  0
  -18.1928  -26.7930   22.1616 C   0  0  0  0  0  0
  -19.1532  -28.8846   23.2890 C   0  0  0  0  0  0
  -18.9458  -30.1451   23.8904 C   0  0  0  0  0  0
  -17.6457  -30.6580   24.0567 C   0  0  0  0  0  0
  -25.9038  -34.9466   23.5129 C   0  0  0  0  0  0
  -16.5352  -29.9081   23.6318 C   0  0  0  0  0  0
  -16.7274  -28.6502   23.0336 C   0  0  0  0  0  0
  -26.4464  -31.6588   25.0714 C   0  0  0  0  0  0
  -25.3720  -31.3712   26.1462 C   0  0  0  0  0  0
  -27.0286  -30.3018   24.6107 C   0  0  0  0  0  0
  -27.6043  -32.4305   25.7477 C   0  0  0  0  0  0
  -27.5585  -37.1805   24.8454 C   0  0  0  0  0  0
  -21.4158  -29.3029   22.3707 N   0  0  0  0  0  0
  -26.4286  -37.3789   23.9412 N   0  0  0  0  0  0
  -24.6724  -31.0726   22.0975 N   0  0  0  0  0  0
  -23.4190  -28.8179   23.3026 O   0  0  0  0  0  0
  -28.4262  -26.6723   20.1737 O   0  0  0  0  0  0
  -26.5604  -34.8925   22.4692 O   0  0  0  0  0  0
  -23.5357  -32.1421   23.7440 O   0  0  0  0  0  0
  -29.1286  -19.0106   19.6531 C   0  0  0  0  0  0
  -30.7403  -17.7938   21.5941 C   0  0  0  0  0  0
  -29.1947  -17.5984   19.7315 C   0  0  0  0  0  0
  -29.8543  -19.8406   20.5352 C   0  0  0  0  0  0
  -29.9828  -16.9663   20.7301 C   0  0  0  0  0  0
  -30.7019  -19.2179   21.4934 C   0  0  0  0  0  0
  -30.6099  -22.0298   19.7528 C   0  0  0  0  0  0
  -34.4189  -21.0531   24.0535 C   0  0  0  0  0  0
  -33.1442  -20.9716   23.6306 C   0  0  0  0  0  0
  -32.7037  -19.8620   22.8047 C   0  0  0  0  0  0
  -30.3072  -23.5077   19.4031 C   0  0  0  0  0  0
  -28.0156  -23.1978   20.3821 C   0  0  0  0  0  0
  -28.5201  -21.8948   21.0569 C   0  0  0  0  0  0
  -29.1451  -24.2178   20.1475 C   0  0  2  0  0  0
  -28.3906  -16.7916   18.7306 C   0  0  0  0  0  0
  -28.6803  -25.5013   19.3655 C   0  0  0  0  0  0
  -29.6997  -21.2749   20.4233 N   0  0  0  0  0  0
  -31.4422  -20.0412   22.3853 N   0  0  0  0  0  0
  -29.8706  -15.5511   20.9728 N   0  0  0  0  0  0
  -31.6884  -21.5674   19.3673 O   0  0  0  0  0  0
  -33.3918  -18.8787   22.5154 O   0  0  0  0  0  0
  -31.4768  -12.4596   19.1186 H   0  0  0  0  0  0
  -30.3535  -11.3348   19.8294 H   0  0  0  0  0  0
  -29.7468  -11.7897   17.4314 H   0  0  0  0  0  0
  -29.6554  -13.5005   17.7579 H   0  0  0  0  0  0
  -27.8413  -11.3043   18.8137 H   0  0  0  0  0  0
  -27.3696  -12.6319   17.7873 H   0  0  0  0  0  0
  -27.6894  -14.2406   19.5682 H   0  0  0  0  0  0
  -28.7064  -11.9658   21.3341 H   0  0  0  0  0  0
  -28.4664  -13.5992   21.8719 H   0  0  0  0  0  0
  -25.2745   -9.5666   22.4768 H   0  0  0  0  0  0
  -23.9978   -7.4621   22.7480 H   0  0  0  0  0  0
  -21.0812   -8.8755   19.8971 H   0  0  0  0  0  0
  -22.3673  -10.9650   19.6166 H   0  0  0  0  0  0
  -21.2007   -7.6148   23.9724 H   0  0  0  0  0  0
  -21.1465   -6.0518   25.9076 H   0  0  0  0  0  0
  -22.0605   -2.7611   23.2855 H   0  0  0  0  0  0
  -22.4029  -11.9910   22.4822 H   0  0  0  0  0  0
  -21.1090  -13.1323   22.2546 H   0  0  0  0  0  0
  -24.6590  -15.8341   20.5532 H   0  0  0  0  0  0
  -26.2851  -15.6361   20.1456 H   0  0  0  0  0  0
  -26.7126  -32.5501   23.1138 H   0  0  0  0  0  0
  -25.0053  -33.9752   25.0459 H   0  0  0  0  0  0
  -22.6962  -31.3031   21.4079 H   0  0  0  0  0  0
  -23.3753  -35.9637   23.3292 H   0  0  0  0  0  0
  -24.3590  -36.8921   22.2052 H   0  0  0  0  0  0
  -23.7233  -37.6507   23.6654 H   0  0  0  0  0  0
  -26.0579  -31.5828   20.5956 H   0  0  0  0  0  0
  -26.8233  -30.8709   21.9873 H   0  0  0  0  0  0
  -28.0959  -29.0654   21.1809 H   0  0  0  0  0  0
  -26.0019  -25.9321   19.0570 H   0  0  0  0  0  0
  -23.9787  -27.2815   19.0450 H   0  0  0  0  0  0
  -23.7246  -30.5928   19.4025 H   0  0  0  0  0  0
  -22.7396  -29.2388   19.8661 H   0  0  0  0  0  0
  -25.1277  -36.1964   25.0831 H   0  0  0  0  0  0
  -20.9966  -28.3260   24.1424 H   0  0  0  0  0  0
  -20.5667  -26.2286   23.3614 H   0  0  0  0  0  0
  -21.6647  -26.7440   22.1220 H   0  0  0  0  0  0
  -19.6911  -25.6303   21.1226 H   0  0  0  0  0  0
  -19.6680  -27.3206   20.6753 H   0  0  0  0  0  0
  -17.4197  -26.6688   21.4017 H   0  0  0  0  0  0
  -18.0315  -26.0068   22.9004 H   0  0  0  0  0  0
  -19.7933  -30.7268   24.2272 H   0  0  0  0  0  0
  -17.5010  -31.6253   24.5181 H   0  0  0  0  0  0
  -15.5350  -30.2984   23.7633 H   0  0  0  0  0  0
  -15.8678  -28.0822   22.7036 H   0  0  0  0  0  0
  -24.5903  -30.7037   25.7816 H   0  0  0  0  0  0
  -24.8898  -32.2873   26.4889 H   0  0  0  0  0  0
  -25.8062  -30.8910   27.0240 H   0  0  0  0  0  0
  -26.2836  -29.6799   24.1127 H   0  0  0  0  0  0
  -27.4008  -29.7228   25.4571 H   0  0  0  0  0  0
  -27.8698  -30.4325   23.9293 H   0  0  0  0  0  0
  -27.2673  -33.3609   26.2064 H   0  0  0  0  0  0
  -28.3850  -32.6850   25.0297 H   0  0  0  0  0  0
  -28.0718  -31.8422   26.5384 H   0  0  0  0  0  0
  -28.2586  -38.0119   24.7529 H   0  0  0  0  0  0
  -28.1096  -36.2654   24.6235 H   0  0  0  0  0  0
  -27.2316  -37.1410   25.8858 H   0  0  0  0  0  0
  -20.9328  -29.8753   21.6922 H   0  0  0  0  0  0
  -26.0175  -38.2864   24.1419 H   0  0  0  0  0  0
  -28.4997  -19.4710   18.9038 H   0  0  0  0  0  0
  -31.3273  -17.3270   22.3711 H   0  0  0  0  0  0
  -34.7443  -21.8793   24.6688 H   0  0  0  0  0  0
  -35.1574  -20.3053   23.7956 H   0  0  0  0  0  0
  -32.4479  -21.7477   23.9178 H   0  0  0  0  0  0
  -30.0969  -23.5164   18.3335 H   0  0  0  0  0  0
  -31.2212  -24.0888   19.5326 H   0  0  0  0  0  0
  -27.2316  -23.6480   20.9936 H   0  0  0  0  0  0
  -27.5489  -22.9448   19.4293 H   0  0  0  0  0  0
  -27.7029  -21.1728   21.0907 H   0  0  0  0  0  0
  -28.7779  -22.1035   22.0958 H   0  0  0  0  0  0
  -29.5283  -24.5351   21.1188 H   0  0  0  0  0  0
  -28.1814  -17.3763   17.8345 H   0  0  0  0  0  0
  -27.4371  -16.5006   19.1629 H   0  0  0  0  0  0
  -28.9309  -15.9000   18.4135 H   0  0  0  0  0  0
  -27.9003  -25.2531   18.6501 H   0  0  0  0  0  0
  -29.5078  -25.8207   18.7309 H   0  0  0  0  0  0
  -31.0292  -20.9312   22.6220 H   0  0  0  0  0  0
  -28.9568  -15.2375   21.2623 H   0  0  0  0  0  0
  1 25  1  0  0  0
  1 30  2  0  0  0
  1 89  1  0  0  0
  2  3  1  0  0  0
  2 25  1  0  0  0
  2 92  1  0  0  0
  2 93  1  0  0  0
  3  4  1  0  0  0
  3 94  1  0  0  0
  3 95  1  0  0  0
  4  5  1  0  0  0
  4 96  1  0  0  0
  4 97  1  0  0  0
  5  6  1  0  0  0
  5 26  1  0  0  0
  5 98  1  0  0  0
  6 25  1  0  0  0
  6 99  1  0  0  0
  6100  1  0  0  0
  7  8  2  0  0  0
  7 26  1  0  0  0
  7 29  1  0  0  0
  8  9  1  0  0  0
  8 22  1  0  0  0
  9 10  1  0  0  0
  9 27  2  0  0  0
 10 11  2  0  0  0
 10 15  1  0  0  0
 11 12  1  0  0  0
 11101  1  0  0  0
 12 13  2  0  0  0
 12102  1  0  0  0
 13 14  1  0  0  0
 13 31  1  0  0  0
 14 15  2  0  0  0
 14103  1  0  0  0
 15104  1  0  0  0
 16 17  2  0  0  0
 16 21  1  0  0  0
 16 31  1  0  0  0
 17 18  1  0  0  0
 17105  1  0  0  0
 18 19  2  0  0  0
 18106  1  0  0  0
 19 20  1  0  0  0
 19 24  1  0  0  0
 20 21  2  0  0  0
 20107  1  0  0  0
 21 23  1  0  0  0
 22 28  1  0  0  0
 22 32  2  0  0  0
 26 27  1  0  0  0
 28108  1  0  0  0
 28109  1  0  0  0
 29110  1  0  0  0
 29111  1  0  0  0
 33 34  1  0  0  0
 33 66  1  0  0  0
 33 70  2  0  0  0
 34 36  1  0  0  0
 34 59  1  0  0  0
 34112  1  0  0  0
 35 44  2  0  0  0
 35 45  1  0  0  0
 35 68  1  0  0  0
 36 56  1  0  0  0
 36113  1  0  0  0
 37 39  1  0  0  0
 37 47  1  0  0  0
 37 66  1  0  0  0
 37114  1  0  0  0
 38 43  2  0  0  0
 38 46  1  0  0  0
 38 47  1  0  0  0
 39 64  1  0  0  0
 39 67  2  0  0  0
 40 52  1  0  0  0
 40 53  2  0  0  0
 40 58  1  0  0  0
 41115  1  0  0  0
 41116  1  0  0  0
 41117  1  0  0  0
 41 48  1  0  0  0
 42 43  1  0  0  0
 42 66  1  0  0  0
 42118  1  0  0  0
 42119  1  0  0  0
 43 44  1  0  0  0
 44120  1  0  0  0
 45 46  2  0  0  0
 45121  1  0  0  0
 46122  1  0  0  0
 47123  1  0  0  0
 47124  1  0  0  0
 48 56  1  0  0  0
 48 65  1  0  0  0
 48125  1  0  0  0
 49 50  1  0  0  0
 49 53  1  0  0  0
 49 64  1  0  0  0
 49126  1  0  0  0
 50 51  1  0  0  0
 50127  1  0  0  0
 50128  1  0  0  0
 51 52  1  0  0  0
 51129  1  0  0  0
 51130  1  0  0  0
 52131  1  0  0  0
 52132  1  0  0  0
 53 54  1  0  0  0
 54 55  2  0  0  0
 54133  1  0  0  0
 55 57  1  0  0  0
 55134  1  0  0  0
 56 69  2  0  0  0
 57 58  2  0  0  0
 57135  1  0  0  0
 58136  1  0  0  0
 59 60  1  0  0  0
 59 61  1  0  0  0
 59 62  1  0  0  0
 60137  1  0  0  0
 60138  1  0  0  0
 60139  1  0  0  0
 61140  1  0  0  0
 61141  1  0  0  0
 61142  1  0  0  0
 62143  1  0  0  0
 62144  1  0  0  0
 62145  1  0  0  0
 63 65  1  0  0  0
 63146  1  0  0  0
 63147  1  0  0  0
 63148  1  0  0  0
 64149  1  0  0  0
 65150  1  0  0  0
 68 86  1  0  0  0
 71 73  2  0  0  0
 71 74  1  0  0  0
 71151  1  0  0  0
 72 75  2  0  0  0
 72 76  1  0  0  0
 72152  1  0  0  0
 73 75  1  0  0  0
 73 85  1  0  0  0
 74 76  2  0  0  0
 74 87  1  0  0  0
 75 89  1  0  0  0
 76 88  1  0  0  0
 77 81  1  0  0  0
 77 87  1  0  0  0
 77 90  2  0  0  0
 78 79  2  0  0  0
 78153  1  0  0  0
 78154  1  0  0  0
 79 80  1  0  0  0
 79155  1  0  0  0
 80 88  1  0  0  0
 80 91  2  0  0  0
 81 84  1  0  0  0
 81156  1  0  0  0
 81157  1  0  0  0
 82 83  1  0  0  0
 82 84  1  0  0  0
 82158  1  0  0  0
 82159  1  0  0  0
 83 87  1  0  0  0
 83160  1  0  0  0
 83161  1  0  0  0
 84 86  1  0  0  0
 84162  1  0  0  0
 85163  1  0  0  0
 85164  1  0  0  0
 85165  1  0  0  0
 86166  1  0  0  0
 86167  1  0  0  0
 88168  1  0  0  0
 89169  1  0  0  0
M  ISO  4   1 100  68 101  86 101  89 100
M  END
> <chiral flag>
0

> <version>
0

> <s_m_source_file>
/data/baiqing/PycharmProjects/Reinvent-master-3.2/result/LINK_invent/BTK/process_docking_weight1_custom_product_contain_oxygen_bond_distance_aromatic_linkinvent_7_9_3/rearranged_h_0062.sdf

> <i_m_source_file_index>
24

> <r_mmod_Potential_Energy-OPLS-2005>
25.9197521209717

> <r_mmod_Stretch_Energy-OPLS-2005>
51.4428901672363

> <r_mmod_Bend_Energy-OPLS-2005>
130.492645263672

> <r_mmod_Torsional_Energy-OPLS-2005>
343.614501953125

> <r_mmod_Improper_Torsional_Energy-OPLS-2005>
5.73049163818359

> <r_mmod_Van_der_Waal_Energy-OPLS-2005>
152.577774047852

> <r_mmod_Electrostatic_Energy-OPLS-2005>
-414.356384277344

> <r_mmod_Solvation_Energy-OPLS-2005>
-265.780700683594

> <b_mmod_Minimization_Converged-OPLS-2005>
0

> <r_mmod_RMS_Derivative-OPLS-2005>
1.38640820980072

$$$$
24
                    3D
 Structure written by MMmdl.
158167  0  0  1  0            999 V2000
  -30.5153  -15.0561   20.3986 C   0  0  0  0  0  0
  -30.4405  -12.6624   19.5015 C   0  0  0  0  0  0
  -29.5242  -12.5405   18.2623 C   0  0  0  0  0  0
  -28.0626  -12.3054   18.6873 C   0  0  0  0  0  0
  -27.6220  -13.2568   19.8294 C   0  0  2  0  0  0
  -28.6656  -13.3426   20.9632 C   0  0  0  0  0  0
  -25.2429  -13.8223   20.5720 C   0  0  0  0  0  0
  -24.1759  -13.0434   20.9238 C   0  0  0  0  0  0
  -24.6383  -11.6925   20.8755 C   0  0  0  0  0  0
  -23.9075  -10.4289   21.0411 C   0  0  0  0  0  0
  -24.3623   -9.4204   21.9191 C   0  0  0  0  0  0
  -23.6291   -8.2241   22.0759 C   0  0  0  0  0  0
  -22.4275   -8.0279   21.3545 C   0  0  0  0  0  0
  -21.9908   -9.0256   20.4649 C   0  0  0  0  0  0
  -22.7244  -10.2134   20.3059 C   0  0  0  0  0  0
  -21.6853   -6.0730   22.5275 C   0  0  0  0  0  0
  -21.4022   -6.5634   23.8208 C   0  0  0  0  0  0
  -21.3661   -5.6785   24.9168 C   0  0  0  0  0  0
  -21.6048   -4.3047   24.7223 C   0  0  0  0  0  0
  -21.8819   -3.8140   23.4343 C   0  0  0  0  0  0
  -21.9191   -4.6956   22.3398 C   0  0  0  0  0  0
  -22.7779  -13.5203   21.1881 C   0  0  0  0  0  0
  -22.1662   -4.2140   21.0975 F   0  0  0  0  0  0
  -21.5625   -3.4533   25.7739 F   0  0  0  0  0  0
  -29.9240  -13.7843   20.3462 N   0  0  0  0  0  0
  -26.2855  -12.9471   20.3228 N   0  0  0  0  0  0
  -25.9318  -11.6594   20.5730 N   0  0  0  0  0  0
  -22.0433  -12.8199   22.0443 N   0  0  0  0  0  0
  -25.4058  -15.1955   20.4121 N   0  0  0  0  0  0
  -31.7334  -15.0781   20.1819 O   0  0  0  0  0  0
  -21.6639   -6.8878   21.4238 O   0  0  0  0  0  0
  -22.3463  -14.5500   20.6710 O   0  0  0  0  0  0
  -24.6507  -31.8365   23.1811 C   0  0  0  0  0  0
  -25.9243  -32.4655   23.8229 C   0  0  1  0  0  0
  -27.2178  -27.0605   20.1635 C   0  0  0  0  0  0
  -25.5959  -33.8464   24.2145 N   0  0  0  0  0  0
  -23.4581  -30.4529   21.5285 C   0  0  2  0  0  0
  -24.9081  -28.8631   20.1135 C   0  0  0  0  0  0
  -22.7604  -29.4507   22.4833 C   0  0  0  0  0  0
  -18.0311  -28.1398   22.8471 C   0  0  0  0  0  0
  -24.1494  -36.7242   23.2644 C   0  0  0  0  0  0
  -26.0188  -30.6862   21.3903 C   0  0  0  0  0  0
  -26.0890  -29.2892   20.7341 C   0  0  0  0  0  0
  -27.2435  -28.4070   20.7357 C   0  0  0  0  0  0
  -26.0081  -26.7519   19.5063 C   0  0  0  0  0  0
  -24.8852  -27.6103   19.4817 C   0  0  0  0  0  0
  -23.6891  -29.7755   20.1513 C   0  0  0  0  0  0
  -25.4130  -36.3010   24.0309 C   0  0  1  0  0  0
  -20.5929  -28.3727   23.1221 C   0  0  2  0  0  0
  -20.6793  -26.9423   22.5403 C   0  0  0  0  0  0
  -19.5768  -26.6375   21.5210 C   0  0  0  0  0  0
  -18.1948  -26.7934   22.1623 C   0  0  0  0  0  0
  -19.1569  -28.8881   23.2837 C   0  0  0  0  0  0
  -18.9484  -30.1475   23.8864 C   0  0  0  0  0  0
  -17.6479  -30.6593   24.0553 C   0  0  0  0  0  0
  -25.9081  -34.9386   23.5040 C   0  0  0  0  0  0
  -16.5369  -29.9081   23.6338 C   0  0  0  0  0  0
  -16.7295  -28.6501   23.0356 C   0  0  0  0  0  0
  -26.4537  -31.6553   25.0705 C   0  0  0  0  0  0
  -25.3698  -31.3767   26.1386 C   0  0  0  0  0  0
  -27.0413  -30.2939   24.6339 C   0  0  0  0  0  0
  -27.6049  -32.4337   25.7499 C   0  0  0  0  0  0
  -27.5577  -37.1780   24.8467 C   0  0  0  0  0  0
  -21.4288  -29.3044   22.3584 N   0  0  0  0  0  0
  -26.4288  -37.3732   23.9405 N   0  0  0  0  0  0
  -24.7297  -31.0154   22.0879 N   0  0  0  0  0  0
  -23.4213  -28.8062   23.3016 O   0  0  0  0  0  0
  -28.2659  -26.0460   20.2160 O   0  0  0  0  0  0
  -26.5680  -34.8899   22.4626 O   0  0  0  0  0  0
  -23.5607  -32.1271   23.6985 O   0  0  0  0  0  0
  -31.7378  -19.5251   21.0668 C   0  0  0  0  0  0
  -30.8717  -20.6218   20.8576 C   0  0  0  0  0  0
  -31.3453  -18.1795   20.8936 C   0  0  0  0  0  0
  -29.1400  -19.0136   20.2946 C   0  0  0  0  0  0
  -29.5333  -20.4750   20.4331 C   0  0  0  0  0  0
  -30.0366  -17.8104   20.5148 C   0  0  0  0  0  0
  -28.0284  -22.1673   19.1108 C   0  0  0  0  0  0
  -29.0786  -23.2706   20.7626 C   0  0  0  0  0  0
  -27.6766  -23.6985   18.9390 C   0  0  1  0  0  0
  -28.0448  -24.4629   20.2430 C   0  0  2  0  0  0
  -27.7032  -18.7059   19.9242 C   0  0  0  0  0  0
  -28.3957  -24.2810   17.7080 C   0  0  0  0  0  0
  -28.7899  -21.8441   20.1883 N   0  0  0  0  0  0
  -29.7329  -16.2740   20.4447 N   0  0  0  0  0  0
  -27.6239  -21.3481   18.2807 O   0  0  0  0  0  0
  -31.4685  -12.8361   19.1806 H   0  0  0  0  0  0
  -30.4591  -11.7292   20.0670 H   0  0  0  0  0  0
  -29.8633  -11.7307   17.6152 H   0  0  0  0  0  0
  -29.5898  -13.4541   17.6692 H   0  0  0  0  0  0
  -27.9814  -11.2707   19.0220 H   0  0  0  0  0  0
  -27.3946  -12.4022   17.8305 H   0  0  0  0  0  0
  -27.5663  -14.2449   19.3722 H   0  0  0  0  0  0
  -28.7836  -12.3838   21.4705 H   0  0  0  0  0  0
  -28.3483  -14.0591   21.7224 H   0  0  0  0  0  0
  -25.2772   -9.5678   22.4762 H   0  0  0  0  0  0
  -23.9998   -7.4635   22.7476 H   0  0  0  0  0  0
  -21.0841   -8.8777   19.8955 H   0  0  0  0  0  0
  -22.3705  -10.9674   19.6164 H   0  0  0  0  0  0
  -21.2026   -7.6144   23.9709 H   0  0  0  0  0  0
  -21.1484   -6.0517   25.9071 H   0  0  0  0  0  0
  -22.0597   -2.7601   23.2839 H   0  0  0  0  0  0
  -22.4055  -11.9881   22.4860 H   0  0  0  0  0  0
  -21.1049  -13.1226   22.2644 H   0  0  0  0  0  0
  -24.6250  -15.8366   20.5053 H   0  0  0  0  0  0
  -26.2340  -15.6339   20.0347 H   0  0  0  0  0  0
  -26.7305  -32.5238   23.0947 H   0  0  0  0  0  0
  -25.0075  -33.9562   25.0273 H   0  0  0  0  0  0
  -22.7645  -31.2808   21.3681 H   0  0  0  0  0  0
  -23.3758  -35.9571   23.3292 H   0  0  0  0  0  0
  -24.3575  -36.8893   22.2061 H   0  0  0  0  0  0
  -23.7248  -37.6431   23.6696 H   0  0  0  0  0  0
  -26.1830  -31.4352   20.6144 H   0  0  0  0  0  0
  -26.8860  -30.7399   22.0371 H   0  0  0  0  0  0
  -28.1434  -28.7312   21.2398 H   0  0  0  0  0  0
  -25.8999  -25.7985   19.0169 H   0  0  0  0  0  0
  -23.9856  -27.2793   18.9808 H   0  0  0  0  0  0
  -23.8339  -30.5460   19.3936 H   0  0  0  0  0  0
  -22.8016  -29.2227   19.8385 H   0  0  0  0  0  0
  -25.1320  -36.1828   25.0801 H   0  0  0  0  0  0
  -21.0020  -28.3324   24.1343 H   0  0  0  0  0  0
  -20.5686  -26.2339   23.3626 H   0  0  0  0  0  0
  -21.6661  -26.7420   22.1205 H   0  0  0  0  0  0
  -19.6929  -25.6277   21.1259 H   0  0  0  0  0  0
  -19.6704  -27.3167   20.6725 H   0  0  0  0  0  0
  -17.4217  -26.6670   21.4029 H   0  0  0  0  0  0
  -18.0350  -26.0087   22.9031 H   0  0  0  0  0  0
  -19.7957  -30.7298   24.2225 H   0  0  0  0  0  0
  -17.5030  -31.6272   24.5156 H   0  0  0  0  0  0
  -15.5367  -30.2968   23.7683 H   0  0  0  0  0  0
  -15.8697  -28.0807   22.7088 H   0  0  0  0  0  0
  -24.5877  -30.7118   25.7702 H   0  0  0  0  0  0
  -24.8887  -32.2956   26.4744 H   0  0  0  0  0  0
  -25.7958  -30.8977   27.0210 H   0  0  0  0  0  0
  -26.3049  -29.6644   24.1333 H   0  0  0  0  0  0
  -27.3983  -29.7265   25.4944 H   0  0  0  0  0  0
  -27.8972  -30.4156   23.9699 H   0  0  0  0  0  0
  -27.2628  -33.3659   26.2007 H   0  0  0  0  0  0
  -28.3898  -32.6866   25.0358 H   0  0  0  0  0  0
  -28.0677  -31.8512   26.5476 H   0  0  0  0  0  0
  -28.2585  -38.0085   24.7506 H   0  0  0  0  0  0
  -28.1079  -36.2610   24.6300 H   0  0  0  0  0  0
  -27.2290  -37.1437   25.8870 H   0  0  0  0  0  0
  -20.9512  -29.8745   21.6743 H   0  0  0  0  0  0
  -26.0147  -38.2798   24.1400 H   0  0  0  0  0  0
  -32.7552  -19.7263   21.3726 H   0  0  0  0  0  0
  -31.2791  -21.6118   21.0062 H   0  0  0  0  0  0
  -32.0877  -17.4194   21.0887 H   0  0  0  0  0  0
  -29.0858  -23.2280   21.8516 H   0  0  0  0  0  0
  -30.0901  -23.5451   20.4616 H   0  0  0  0  0  0
  -26.6021  -23.7575   18.7700 H   0  0  0  0  0  0
  -27.1761  -24.3609   20.8954 H   0  0  0  0  0  0
  -27.0363  -19.5154   20.2193 H   0  0  0  0  0  0
  -27.3565  -17.8032   20.4257 H   0  0  0  0  0  0
  -27.6146  -18.5565   18.8483 H   0  0  0  0  0  0
  -29.4788  -24.2651   17.8365 H   0  0  0  0  0  0
  -28.1001  -25.3162   17.5357 H   0  0  0  0  0  0
  -28.1590  -23.7176   16.8047 H   0  0  0  0  0  0
  -28.7466  -16.0659   20.4419 H   0  0  0  0  0  0
  1 25  1  0  0  0
  1 30  2  0  0  0
  1 84  1  0  0  0
  2  3  1  0  0  0
  2 25  1  0  0  0
  2 86  1  0  0  0
  2 87  1  0  0  0
  3  4  1  0  0  0
  3 88  1  0  0  0
  3 89  1  0  0  0
  4  5  1  0  0  0
  4 90  1  0  0  0
  4 91  1  0  0  0
  5  6  1  0  0  0
  5 26  1  0  0  0
  5 92  1  0  0  0
  6 25  1  0  0  0
  6 93  1  0  0  0
  6 94  1  0  0  0
  7  8  2  0  0  0
  7 26  1  0  0  0
  7 29  1  0  0  0
  8  9  1  0  0  0
  8 22  1  0  0  0
  9 10  1  0  0  0
  9 27  2  0  0  0
 10 11  2  0  0  0
 10 15  1  0  0  0
 11 12  1  0  0  0
 11 95  1  0  0  0
 12 13  2  0  0  0
 12 96  1  0  0  0
 13 14  1  0  0  0
 13 31  1  0  0  0
 14 15  2  0  0  0
 14 97  1  0  0  0
 15 98  1  0  0  0
 16 17  2  0  0  0
 16 21  1  0  0  0
 16 31  1  0  0  0
 17 18  1  0  0  0
 17 99  1  0  0  0
 18 19  2  0  0  0
 18100  1  0  0  0
 19 20  1  0  0  0
 19 24  1  0  0  0
 20 21  2  0  0  0
 20101  1  0  0  0
 21 23  1  0  0  0
 22 28  1  0  0  0
 22 32  2  0  0  0
 26 27  1  0  0  0
 28102  1  0  0  0
 28103  1  0  0  0
 29104  1  0  0  0
 29105  1  0  0  0
 33 34  1  0  0  0
 33 66  1  0  0  0
 33 70  2  0  0  0
 34 36  1  0  0  0
 34 59  1  0  0  0
 34106  1  0  0  0
 35 44  2  0  0  0
 35 45  1  0  0  0
 35 68  1  0  0  0
 36 56  1  0  0  0
 36107  1  0  0  0
 37 39  1  0  0  0
 37 47  1  0  0  0
 37 66  1  0  0  0
 37108  1  0  0  0
 38 43  2  0  0  0
 38 46  1  0  0  0
 38 47  1  0  0  0
 39 64  1  0  0  0
 39 67  2  0  0  0
 40 52  1  0  0  0
 40 53  2  0  0  0
 40 58  1  0  0  0
 41109  1  0  0  0
 41110  1  0  0  0
 41111  1  0  0  0
 41 48  1  0  0  0
 42 43  1  0  0  0
 42 66  1  0  0  0
 42112  1  0  0  0
 42113  1  0  0  0
 43 44  1  0  0  0
 44114  1  0  0  0
 45 46  2  0  0  0
 45115  1  0  0  0
 46116  1  0  0  0
 47117  1  0  0  0
 47118  1  0  0  0
 48 56  1  0  0  0
 48 65  1  0  0  0
 48119  1  0  0  0
 49 50  1  0  0  0
 49 53  1  0  0  0
 49 64  1  0  0  0
 49120  1  0  0  0
 50 51  1  0  0  0
 50121  1  0  0  0
 50122  1  0  0  0
 51 52  1  0  0  0
 51123  1  0  0  0
 51124  1  0  0  0
 52125  1  0  0  0
 52126  1  0  0  0
 53 54  1  0  0  0
 54 55  2  0  0  0
 54127  1  0  0  0
 55 57  1  0  0  0
 55128  1  0  0  0
 56 69  2  0  0  0
 57 58  2  0  0  0
 57129  1  0  0  0
 58130  1  0  0  0
 59 60  1  0  0  0
 59 61  1  0  0  0
 59 62  1  0  0  0
 60131  1  0  0  0
 60132  1  0  0  0
 60133  1  0  0  0
 61134  1  0  0  0
 61135  1  0  0  0
 61136  1  0  0  0
 62137  1  0  0  0
 62138  1  0  0  0
 62139  1  0  0  0
 63 65  1  0  0  0
 63140  1  0  0  0
 63141  1  0  0  0
 63142  1  0  0  0
 64143  1  0  0  0
 65144  1  0  0  0
 68 80  1  0  0  0
 71 72  2  0  0  0
 71 73  1  0  0  0
 71145  1  0  0  0
 72 75  1  0  0  0
 72146  1  0  0  0
 73 76  2  0  0  0
 73147  1  0  0  0
 74 75  2  0  0  0
 74 76  1  0  0  0
 74 81  1  0  0  0
 75 83  1  0  0  0
 76 84  1  0  0  0
 77 79  1  0  0  0
 77 83  1  0  0  0
 77 85  2  0  0  0
 78 80  1  0  0  0
 78 83  1  0  0  0
 78148  1  0  0  0
 78149  1  0  0  0
 79 80  1  0  0  0
 79 82  1  0  0  0
 79150  1  0  0  0
 80151  1  0  0  0
 81152  1  0  0  0
 81153  1  0  0  0
 81154  1  0  0  0
 82155  1  0  0  0
 82156  1  0  0  0
 82157  1  0  0  0
 84158  1  0  0  0
M  ISO  4   1 100  68 101  80 101  84 100
M  END
> <chiral flag>
0

> <version>
0

> <s_m_source_file>
/data/baiqing/PycharmProjects/Reinvent-master-3.2/result/LINK_invent/BTK/process_docking_weight1_custom_product_contain_oxygen_bond_distance_aromatic_linkinvent_7_9_3/rearranged_h_0062.sdf

> <i_m_source_file_index>
25

> <r_mmod_Potential_Energy-OPLS-2005>
742.271118164062

> <r_mmod_Stretch_Energy-OPLS-2005>
336.171447753906

> <r_mmod_Bend_Energy-OPLS-2005>
322.654632568359

> <r_mmod_Torsional_Energy-OPLS-2005>
276.650207519531

> <r_mmod_Improper_Torsional_Energy-OPLS-2005>
6.41859197616577

> <r_mmod_Van_der_Waal_Energy-OPLS-2005>
119.088569641113

> <r_mmod_Electrostatic_Energy-OPLS-2005>
-368.604736328125

> <r_mmod_Solvation_Energy-OPLS-2005>
-218.674163818359

> <b_mmod_Minimization_Converged-OPLS-2005>
0

> <r_mmod_RMS_Derivative-OPLS-2005>
1.02938115596771

$$$$
25
                    3D
 Structure written by MMmdl.
150158  0  0  1  0            999 V2000
  -30.6044  -14.8764   20.4659 C   0  0  0  0  0  0
  -30.4275  -12.5556   19.4759 C   0  0  0  0  0  0
  -29.5071  -12.5199   18.2378 C   0  0  0  0  0  0
  -28.0410  -12.3177   18.6631 C   0  0  0  0  0  0
  -27.6274  -13.2470   19.8352 C   0  0  2  0  0  0
  -28.6751  -13.2672   20.9672 C   0  0  0  0  0  0
  -25.2455  -13.8218   20.5720 C   0  0  0  0  0  0
  -24.1772  -13.0439   20.9232 C   0  0  0  0  0  0
  -24.6391  -11.6925   20.8762 C   0  0  0  0  0  0
  -23.9078  -10.4293   21.0411 C   0  0  0  0  0  0
  -24.3626   -9.4206   21.9187 C   0  0  0  0  0  0
  -23.6298   -8.2243   22.0755 C   0  0  0  0  0  0
  -22.4280   -8.0282   21.3545 C   0  0  0  0  0  0
  -21.9919   -9.0257   20.4647 C   0  0  0  0  0  0
  -22.7251  -10.2135   20.3058 C   0  0  0  0  0  0
  -21.6855   -6.0737   22.5279 C   0  0  0  0  0  0
  -21.4017   -6.5640   23.8213 C   0  0  0  0  0  0
  -21.3660   -5.6793   24.9175 C   0  0  0  0  0  0
  -21.6043   -4.3055   24.7225 C   0  0  0  0  0  0
  -21.8818   -3.8147   23.4346 C   0  0  0  0  0  0
  -21.9193   -4.6964   22.3402 C   0  0  0  0  0  0
  -22.7792  -13.5208   21.1883 C   0  0  0  0  0  0
  -22.1661   -4.2149   21.0980 F   0  0  0  0  0  0
  -21.5628   -3.4539   25.7738 F   0  0  0  0  0  0
  -29.9491  -13.6578   20.3541 N   0  0  0  0  0  0
  -26.2879  -12.9451   20.3257 N   0  0  0  0  0  0
  -25.9322  -11.6580   20.5753 N   0  0  0  0  0  0
  -22.0445  -12.8194   22.0439 N   0  0  0  0  0  0
  -25.4109  -15.1948   20.4138 N   0  0  0  0  0  0
  -31.8085  -14.8978   20.1911 O   0  0  0  0  0  0
  -21.6642   -6.8881   21.4242 O   0  0  0  0  0  0
  -22.3475  -14.5511   20.6726 O   0  0  0  0  0  0
  -24.6399  -31.8473   23.1913 C   0  0  0  0  0  0
  -25.9185  -32.4713   23.8293 C   0  0  1  0  0  0
  -27.2153  -27.1728   20.1519 C   0  0  0  0  0  0
  -25.5945  -33.8518   24.2210 N   0  0  0  0  0  0
  -23.4421  -30.4670   21.5359 C   0  0  2  0  0  0
  -24.8918  -28.8971   20.1138 C   0  0  0  0  0  0
  -22.7549  -29.4562   22.4877 C   0  0  0  0  0  0
  -18.0301  -28.1392   22.8479 C   0  0  0  0  0  0
  -24.1494  -36.7265   23.2643 C   0  0  0  0  0  0
  -25.9952  -30.7320   21.3857 C   0  0  0  0  0  0
  -26.0676  -29.3447   20.7317 C   0  0  0  0  0  0
  -27.2343  -28.4969   20.7364 C   0  0  0  0  0  0
  -26.0176  -26.8147   19.5005 C   0  0  0  0  0  0
  -24.8760  -27.6429   19.4846 C   0  0  0  0  0  0
  -23.6672  -29.7961   20.1552 C   0  0  0  0  0  0
  -25.4125  -36.3044   24.0318 C   0  0  1  0  0  0
  -20.5912  -28.3714   23.1246 C   0  0  2  0  0  0
  -20.6787  -26.9421   22.5406 C   0  0  0  0  0  0
  -19.5761  -26.6380   21.5212 C   0  0  0  0  0  0
  -18.1942  -26.7931   22.1625 C   0  0  0  0  0  0
  -19.1557  -28.8871   23.2856 C   0  0  0  0  0  0
  -18.9474  -30.1469   23.8879 C   0  0  0  0  0  0
  -17.6471  -30.6590   24.0559 C   0  0  0  0  0  0
  -25.9071  -34.9416   23.5072 C   0  0  0  0  0  0
  -16.5362  -29.9084   23.6333 C   0  0  0  0  0  0
  -16.7286  -28.6502   23.0354 C   0  0  0  0  0  0
  -26.4518  -31.6568   25.0719 C   0  0  0  0  0  0
  -25.3711  -31.3740   26.1416 C   0  0  0  0  0  0
  -27.0382  -30.2971   24.6275 C   0  0  0  0  0  0
  -27.6053  -32.4327   25.7501 C   0  0  0  0  0  0
  -27.5576  -37.1795   24.8468 C   0  0  0  0  0  0
  -21.4246  -29.3047   22.3624 N   0  0  0  0  0  0
  -26.4294  -37.3751   23.9401 N   0  0  0  0  0  0
  -24.7119  -31.0360   22.0930 N   0  0  0  0  0  0
  -23.4206  -28.8109   23.3016 O   0  0  0  0  0  0
  -28.2633  -26.1968   20.1584 O   0  0  0  0  0  0
  -26.5654  -34.8906   22.4649 O   0  0  0  0  0  0
  -23.5525  -32.1331   23.7153 O   0  0  0  0  0  0
  -28.4184  -23.5549   20.3307 C   0  0  0  0  0  0
  -31.1140  -18.8270   23.8456 C   0  0  0  0  0  0
  -31.4900  -17.4970   23.7458 C   0  0  0  0  0  0
  -30.3839  -19.4100   22.8077 C   0  0  0  0  0  0
  -31.0755  -16.7564   22.6378 C   0  0  0  0  0  0
  -30.0032  -18.7619   21.5902 C   0  0  0  0  0  0
  -30.3126  -17.2709   21.5425 C   0  0  0  0  0  0
  -28.4950  -22.1922   20.1370 C   0  0  0  0  0  0
  -28.0067  -24.8381   20.6077 C   0  0  0  0  0  0
  -29.5377  -21.1984   20.6492 C   0  0  0  0  0  0
  -29.3156  -19.7846   20.6888 N   0  0  0  0  0  0
  -29.9147  -16.1036   20.6662 N   0  0  0  0  0  0
  -30.6457  -21.6295   20.9830 O   0  0  0  0  0  0
  -31.4632  -12.6932   19.1618 H   0  0  0  0  0  0
  -30.4018  -11.6023   20.0064 H   0  0  0  0  0  0
  -29.8141  -11.7234   17.5585 H   0  0  0  0  0  0
  -29.6036  -13.4534   17.6808 H   0  0  0  0  0  0
  -27.9295  -11.2756   18.9642 H   0  0  0  0  0  0
  -27.3750  -12.4605   17.8113 H   0  0  0  0  0  0
  -27.5932  -14.2515   19.4127 H   0  0  0  0  0  0
  -28.7540  -12.2930   21.4519 H   0  0  0  0  0  0
  -28.3891  -13.9795   21.7429 H   0  0  0  0  0  0
  -25.2769   -9.5681   22.4765 H   0  0  0  0  0  0
  -24.0005   -7.4634   22.7476 H   0  0  0  0  0  0
  -21.0850   -8.8779   19.8953 H   0  0  0  0  0  0
  -22.3710  -10.9676   19.6168 H   0  0  0  0  0  0
  -21.2012   -7.6149   23.9716 H   0  0  0  0  0  0
  -21.1482   -6.0523   25.9077 H   0  0  0  0  0  0
  -22.0597   -2.7609   23.2847 H   0  0  0  0  0  0
  -22.4072  -11.9861   22.4828 H   0  0  0  0  0  0
  -21.1060  -13.1210   22.2644 H   0  0  0  0  0  0
  -24.6404  -15.8450   20.5259 H   0  0  0  0  0  0
  -26.2546  -15.6384   20.0754 H   0  0  0  0  0  0
  -26.7250  -32.5334   23.1026 H   0  0  0  0  0  0
  -25.0068  -33.9639   25.0340 H   0  0  0  0  0  0
  -22.7431  -31.2919   21.3829 H   0  0  0  0  0  0
  -23.3755  -35.9598   23.3305 H   0  0  0  0  0  0
  -24.3577  -36.8894   22.2057 H   0  0  0  0  0  0
  -23.7252  -37.6463   23.6677 H   0  0  0  0  0  0
  -26.1462  -31.4863   20.6122 H   0  0  0  0  0  0
  -26.8676  -30.7834   22.0256 H   0  0  0  0  0  0
  -28.1344  -28.8338   21.2308 H   0  0  0  0  0  0
  -25.9526  -25.8499   19.0174 H   0  0  0  0  0  0
  -23.9783  -27.2946   18.9924 H   0  0  0  0  0  0
  -23.8018  -30.5697   19.3984 H   0  0  0  0  0  0
  -22.7828  -29.2358   19.8462 H   0  0  0  0  0  0
  -25.1317  -36.1881   25.0812 H   0  0  0  0  0  0
  -21.0004  -28.3299   24.1366 H   0  0  0  0  0  0
  -20.5683  -26.2327   23.3622 H   0  0  0  0  0  0
  -21.6654  -26.7432   22.1205 H   0  0  0  0  0  0
  -19.6921  -25.6286   21.1253 H   0  0  0  0  0  0
  -19.6695  -27.3182   20.6735 H   0  0  0  0  0  0
  -17.4211  -26.6672   21.4029 H   0  0  0  0  0  0
  -18.0343  -26.0079   22.9028 H   0  0  0  0  0  0
  -19.7949  -30.7290   24.2240 H   0  0  0  0  0  0
  -17.5023  -31.6268   24.5165 H   0  0  0  0  0  0
  -15.5361  -30.2980   23.7666 H   0  0  0  0  0  0
  -15.8686  -28.0814   22.7080 H   0  0  0  0  0  0
  -24.5903  -30.7075   25.7733 H   0  0  0  0  0  0
  -24.8883  -32.2913   26.4794 H   0  0  0  0  0  0
  -25.8001  -30.8944   27.0223 H   0  0  0  0  0  0
  -26.2993  -29.6697   24.1276 H   0  0  0  0  0  0
  -27.4004  -29.7264   25.4837 H   0  0  0  0  0  0
  -27.8896  -30.4218   23.9581 H   0  0  0  0  0  0
  -27.2650  -33.3642   26.2036 H   0  0  0  0  0  0
  -28.3884  -32.6864   25.0344 H   0  0  0  0  0  0
  -28.0699  -31.8481   26.5452 H   0  0  0  0  0  0
  -28.2602  -38.0083   24.7497 H   0  0  0  0  0  0
  -28.1064  -36.2612   24.6322 H   0  0  0  0  0  0
  -27.2288  -37.1477   25.8871 H   0  0  0  0  0  0
  -20.9450  -29.8759   21.6806 H   0  0  0  0  0  0
  -26.0164  -38.2824   24.1386 H   0  0  0  0  0  0
  -31.3791  -19.4061   24.7198 H   0  0  0  0  0  0
  -32.0539  -17.0264   24.5398 H   0  0  0  0  0  0
  -30.1171  -20.4349   23.0124 H   0  0  0  0  0  0
  -31.3528  -15.7162   22.7093 H   0  0  0  0  0  0
  -27.7267  -21.7511   19.5198 H   0  0  0  0  0  0
  -27.2952  -24.9252   21.4181 H   0  0  0  0  0  0
  -28.5189  -19.4424   20.1692 H   0  0  0  0  0  0
  -28.9298  -16.0678   20.4513 H   0  0  0  0  0  0
  1 25  1  0  0  0
  1 30  2  0  0  0
  1 82  1  0  0  0
  2  3  1  0  0  0
  2 25  1  0  0  0
  2 84  1  0  0  0
  2 85  1  0  0  0
  3  4  1  0  0  0
  3 86  1  0  0  0
  3 87  1  0  0  0
  4  5  1  0  0  0
  4 88  1  0  0  0
  4 89  1  0  0  0
  5  6  1  0  0  0
  5 26  1  0  0  0
  5 90  1  0  0  0
  6 25  1  0  0  0
  6 91  1  0  0  0
  6 92  1  0  0  0
  7  8  2  0  0  0
  7 26  1  0  0  0
  7 29  1  0  0  0
  8  9  1  0  0  0
  8 22  1  0  0  0
  9 10  1  0  0  0
  9 27  2  0  0  0
 10 11  2  0  0  0
 10 15  1  0  0  0
 11 12  1  0  0  0
 11 93  1  0  0  0
 12 13  2  0  0  0
 12 94  1  0  0  0
 13 14  1  0  0  0
 13 31  1  0  0  0
 14 15  2  0  0  0
 14 95  1  0  0  0
 15 96  1  0  0  0
 16 17  2  0  0  0
 16 21  1  0  0  0
 16 31  1  0  0  0
 17 18  1  0  0  0
 17 97  1  0  0  0
 18 19  2  0  0  0
 18 98  1  0  0  0
 19 20  1  0  0  0
 19 24  1  0  0  0
 20 21  2  0  0  0
 20 99  1  0  0  0
 21 23  1  0  0  0
 22 28  1  0  0  0
 22 32  2  0  0  0
 26 27  1  0  0  0
 28100  1  0  0  0
 28101  1  0  0  0
 29102  1  0  0  0
 29103  1  0  0  0
 33 34  1  0  0  0
 33 66  1  0  0  0
 33 70  2  0  0  0
 34 36  1  0  0  0
 34 59  1  0  0  0
 34104  1  0  0  0
 35 44  2  0  0  0
 35 45  1  0  0  0
 35 68  1  0  0  0
 36 56  1  0  0  0
 36105  1  0  0  0
 37 39  1  0  0  0
 37 47  1  0  0  0
 37 66  1  0  0  0
 37106  1  0  0  0
 38 43  2  0  0  0
 38 46  1  0  0  0
 38 47  1  0  0  0
 39 64  1  0  0  0
 39 67  2  0  0  0
 40 52  1  0  0  0
 40 53  2  0  0  0
 40 58  1  0  0  0
 41107  1  0  0  0
 41108  1  0  0  0
 41109  1  0  0  0
 41 48  1  0  0  0
 42 43  1  0  0  0
 42 66  1  0  0  0
 42110  1  0  0  0
 42111  1  0  0  0
 43 44  1  0  0  0
 44112  1  0  0  0
 45 46  2  0  0  0
 45113  1  0  0  0
 46114  1  0  0  0
 47115  1  0  0  0
 47116  1  0  0  0
 48 56  1  0  0  0
 48 65  1  0  0  0
 48117  1  0  0  0
 49 50  1  0  0  0
 49 53  1  0  0  0
 49 64  1  0  0  0
 49118  1  0  0  0
 50 51  1  0  0  0
 50119  1  0  0  0
 50120  1  0  0  0
 51 52  1  0  0  0
 51121  1  0  0  0
 51122  1  0  0  0
 52123  1  0  0  0
 52124  1  0  0  0
 53 54  1  0  0  0
 54 55  2  0  0  0
 54125  1  0  0  0
 55 57  1  0  0  0
 55126  1  0  0  0
 56 69  2  0  0  0
 57 58  2  0  0  0
 57127  1  0  0  0
 58128  1  0  0  0
 59 60  1  0  0  0
 59 61  1  0  0  0
 59 62  1  0  0  0
 60129  1  0  0  0
 60130  1  0  0  0
 60131  1  0  0  0
 61132  1  0  0  0
 61133  1  0  0  0
 61134  1  0  0  0
 62135  1  0  0  0
 62136  1  0  0  0
 62137  1  0  0  0
 63 65  1  0  0  0
 63138  1  0  0  0
 63139  1  0  0  0
 63140  1  0  0  0
 64141  1  0  0  0
 65142  1  0  0  0
 68 79  1  0  0  0
 71 78  2  0  0  0
 71 79  2  0  0  0
 72 73  2  0  0  0
 72 74  1  0  0  0
 72143  1  0  0  0
 73 75  1  0  0  0
 73144  1  0  0  0
 74 76  2  0  0  0
 74145  1  0  0  0
 75 77  2  0  0  0
 75146  1  0  0  0
 76 77  1  0  0  0
 76 81  1  0  0  0
 77 82  1  0  0  0
 78 80  1  0  0  0
 78147  1  0  0  0
 79148  1  0  0  0
 80 81  1  0  0  0
 80 83  2  0  0  0
 81149  1  0  0  0
 82150  1  0  0  0
M  ISO  4   1 100  68 101  79 101  82 100
M  END
> <chiral flag>
0

> <version>
0

> <s_m_source_file>
/data/baiqing/PycharmProjects/Reinvent-master-3.2/result/LINK_invent/BTK/process_docking_weight1_custom_product_contain_oxygen_bond_distance_aromatic_linkinvent_7_9_3/rearranged_h_0062.sdf

> <i_m_source_file_index>
26

> <r_mmod_Potential_Energy-OPLS-2005>
314.39306640625

> <r_mmod_Stretch_Energy-OPLS-2005>
215.311676025391

> <r_mmod_Bend_Energy-OPLS-2005>
275.458953857422

> <r_mmod_Torsional_Energy-OPLS-2005>
181.7275390625

> <r_mmod_Improper_Torsional_Energy-OPLS-2005>
6.78344678878784

> <r_mmod_Van_der_Waal_Energy-OPLS-2005>
161.676223754883

> <r_mmod_Electrostatic_Energy-OPLS-2005>
-439.997589111328

> <r_mmod_Solvation_Energy-OPLS-2005>
-241.030197143555

> <b_mmod_Minimization_Converged-OPLS-2005>
0

> <r_mmod_RMS_Derivative-OPLS-2005>
0.287740677595139

$$$$
26
                    3D
 Structure written by MMmdl.
163172  0  0  1  0            999 V2000
  -29.1601  -17.7130   20.4010 C   0  0  0  0  0  0
  -29.9929  -14.7137   19.5892 C   0  0  0  0  0  0
  -29.5268  -13.4998   18.5791 C   0  0  0  0  0  0
  -28.3542  -12.6517   19.0645 C   0  0  0  0  0  0
  -27.5233  -13.6377   19.8812 C   0  0  2  0  0  0
  -28.2757  -14.6780   20.8786 C   0  0  0  0  0  0
  -25.1619  -13.8790   20.6030 C   0  0  0  0  0  0
  -24.1424  -13.0472   20.9382 C   0  0  0  0  0  0
  -24.6641  -11.7171   20.8710 C   0  0  0  0  0  0
  -23.9446  -10.4332   21.0245 C   0  0  0  0  0  0
  -24.3876   -9.4243   21.9092 C   0  0  0  0  0  0
  -23.6445   -8.2329   22.0726 C   0  0  0  0  0  0
  -22.4417   -8.0368   21.3532 C   0  0  0  0  0  0
  -22.0123   -9.0344   20.4610 C   0  0  0  0  0  0
  -22.7552  -10.2162   20.2948 C   0  0  0  0  0  0
  -21.6904   -6.0796   22.5282 C   0  0  0  0  0  0
  -21.4056   -6.5672   23.8223 C   0  0  0  0  0  0
  -21.3676   -5.6810   24.9172 C   0  0  0  0  0  0
  -21.6047   -4.3073   24.7212 C   0  0  0  0  0  0
  -21.8807   -3.8178   23.4324 C   0  0  0  0  0  0
  -21.9204   -4.7009   22.3390 C   0  0  0  0  0  0
  -22.7357  -13.4903   21.1962 C   0  0  0  0  0  0
  -22.1669   -4.2189   21.0968 F   0  0  0  0  0  0
  -21.5620   -3.4549   25.7718 F   0  0  0  0  0  0
  -28.9960  -15.9592   20.2094 N   0  0  0  0  0  0
  -26.2618  -13.0910   20.3821 N   0  0  0  0  0  0
  -25.9743  -11.7605   20.5689 N   0  0  0  0  0  0
  -22.0202  -12.7791   22.0569 N   0  0  0  0  0  0
  -25.2388  -15.2575   20.4337 N   0  0  0  0  0  0
  -30.4317  -17.3831   20.3618 O   0  0  0  0  0  0
  -21.6718   -6.8992   21.4266 O   0  0  0  0  0  0
  -22.2888  -14.5167   20.6822 O   0  0  0  0  0  0
  -24.7341  -31.5860   23.0655 C   0  0  0  0  0  0
  -25.9457  -32.3402   23.7422 C   0  0  1  0  0  0
  -27.3878  -26.0375   19.4761 C   0  0  0  0  0  0
  -25.5592  -33.7405   24.0974 N   0  0  0  0  0  0
  -23.7478  -29.7935   21.4945 C   0  0  2  0  0  0
  -25.6469  -27.2991   20.7994 C   0  0  0  0  0  0
  -22.8004  -29.2581   22.5628 C   0  0  0  0  0  0
  -18.0202  -28.1425   22.8334 C   0  0  0  0  0  0
  -24.1478  -36.6701   23.2721 C   0  0  0  0  0  0
  -26.1027  -29.7534   21.7413 C   0  0  0  0  0  0
  -26.0295  -28.0364   21.8789 C   0  0  0  0  0  0
  -26.2130  -26.6830   21.2074 C   0  0  0  0  0  0
  -27.0529  -25.5538   18.1793 C   0  0  0  0  0  0
  -26.9660  -26.2890   19.2521 C   0  0  0  0  0  0
  -24.2529  -28.4902   20.5707 C   0  0  0  0  0  0
  -25.4207  -36.2343   24.0185 C   0  0  1  0  0  0
  -20.5795  -28.3611   23.1182 C   0  0  2  0  0  0
  -20.6457  -26.9176   22.5625 C   0  0  0  0  0  0
  -19.5579  -26.6216   21.5245 C   0  0  0  0  0  0
  -18.1730  -26.7937   22.1533 C   0  0  0  0  0  0
  -19.1489  -28.8925   23.2620 C   0  0  0  0  0  0
  -18.9479  -30.1494   23.8697 C   0  0  0  0  0  0
  -17.6473  -30.6608   24.0477 C   0  0  0  0  0  0
  -25.9210  -34.8721   23.4643 C   0  0  0  0  0  0
  -16.5340  -29.9121   23.6295 C   0  0  0  0  0  0
  -16.7202  -28.6540   23.0333 C   0  0  0  0  0  0
  -26.4609  -31.6343   25.0659 C   0  0  0  0  0  0
  -25.3458  -31.4012   26.1162 C   0  0  0  0  0  0
  -27.1015  -30.2638   24.7757 C   0  0  0  0  0  0
  -27.5789  -32.4790   25.7316 C   0  0  0  0  0  0
  -27.5525  -37.1436   24.8465 C   0  0  0  0  0  0
  -21.4724  -29.2416   22.3528 N   0  0  0  0  0  0
  -26.4267  -37.3225   23.9337 N   0  0  0  0  0  0
  -24.8750  -30.5287   22.1395 N   0  0  0  0  0  0
  -23.3186  -28.7429   23.5470 O   0  0  0  0  0  0
  -29.0261  -26.0215   19.2612 O   0  0  0  0  0  0
  -26.6281  -34.8582   22.4552 O   0  0  0  0  0  0
  -23.6178  -31.9822   23.4466 O   0  0  0  0  0  0
  -28.2088  -27.7218   20.7134 C   0  0  0  0  0  0
  -24.9466  -26.8570   18.7440 C   0  0  0  0  0  0
  -27.0621  -23.9748   20.6840 C   0  0  0  0  0  0
  -28.2631  -25.5820   21.4521 C   0  0  0  0  0  0
  -26.7181  -28.4409   19.2079 C   0  0  0  0  0  0
  -25.2841  -24.8560   19.7633 C   0  0  0  0  0  0
  -28.0591  -30.4675   18.6142 C   0  0  0  0  0  0
  -27.8369  -21.6574   20.5878 C   0  0  0  0  0  0
  -29.6216  -30.5794   18.3502 C   0  0  0  0  0  0
  -30.4234  -29.2667   17.9610 C   0  0  0  0  0  0
  -28.1246  -28.6192   17.1922 C   0  0  0  0  0  0
  -29.4361  -28.1094   17.8470 C   0  0  1  0  0  0
  -29.4308  -25.1818   22.3272 C   0  0  0  0  0  0
  -29.6976  -26.5874   18.0694 C   0  0  0  0  0  0
  -27.3700  -29.3353   18.2434 N   0  0  0  0  0  0
  -28.2466  -19.6043   20.4831 N   0  0  0  0  0  0
  -27.5004  -31.4467   19.1247 O   0  0  0  0  0  0
  -26.6590  -21.3580   20.3891 O   0  0  0  0  0  0
  -24.3092  -23.9626   19.4471 F   0  0  0  0  0  0
  -30.7283  -15.2709   19.0073 H   0  0  0  0  0  0
  -30.6253  -14.2975   20.3778 H   0  0  0  0  0  0
  -30.3786  -12.8508   18.3718 H   0  0  0  0  0  0
  -29.2382  -13.9509   17.6274 H   0  0  0  0  0  0
  -28.7161  -11.8424   19.7015 H   0  0  0  0  0  0
  -27.7928  -12.2084   18.2393 H   0  0  0  0  0  0
  -27.1837  -14.3038   19.0858 H   0  0  0  0  0  0
  -28.8950  -14.1422   21.5997 H   0  0  0  0  0  0
  -27.5338  -15.1167   21.5446 H   0  0  0  0  0  0
  -25.3003   -9.5694   22.4699 H   0  0  0  0  0  0
  -24.0105   -7.4731   22.7469 H   0  0  0  0  0  0
  -21.1055   -8.8899   19.8922 H   0  0  0  0  0  0
  -22.4012  -10.9685   19.6040 H   0  0  0  0  0  0
  -21.2078   -7.6183   23.9737 H   0  0  0  0  0  0
  -21.1507   -6.0539   25.9075 H   0  0  0  0  0  0
  -22.0566   -2.7638   23.2808 H   0  0  0  0  0  0
  -22.4047  -11.9575   22.4992 H   0  0  0  0  0  0
  -21.0752  -13.0573   22.2795 H   0  0  0  0  0  0
  -24.4236  -15.8560   20.5212 H   0  0  0  0  0  0
  -26.0731  -15.7445   20.1335 H   0  0  0  0  0  0
  -26.7635  -32.3658   23.0195 H   0  0  0  0  0  0
  -24.9070  -33.8179   24.8635 H   0  0  0  0  0  0
  -23.1950  -30.4893   20.8576 H   0  0  0  0  0  0
  -23.3820  -35.8952   23.3290 H   0  0  0  0  0  0
  -24.3455  -36.8542   22.2153 H   0  0  0  0  0  0
  -23.7204  -37.5775   23.7010 H   0  0  0  0  0  0
  -26.3075  -30.1375   20.7614 H   0  0  0  0  0  0
  -26.9822  -30.1092   22.2589 H   0  0  0  0  0  0
  -26.1655  -25.8903   22.0680 H   0  0  0  0  0  0
  -27.8273  -24.9334   17.7458 H   0  0  0  0  0  0
  -26.8070  -26.7470   17.9349 H   0  0  0  0  0  0
  -24.2637  -28.9741   19.5958 H   0  0  0  0  0  0
  -23.3885  -27.8214   20.5093 H   0  0  0  0  0  0
  -25.1532  -36.0974   25.0700 H   0  0  0  0  0  0
  -20.9560  -28.3226   24.1443 H   0  0  0  0  0  0
  -20.4894  -26.2283   23.3944 H   0  0  0  0  0  0
  -21.6349  -26.6754   22.1717 H   0  0  0  0  0  0
  -19.6651  -25.6073   21.1360 H   0  0  0  0  0  0
  -19.6666  -27.2958   20.6731 H   0  0  0  0  0  0
  -17.4032  -26.6726   21.3899 H   0  0  0  0  0  0
  -17.9974  -26.0116   22.8929 H   0  0  0  0  0  0
  -19.8009  -30.7253   24.2066 H   0  0  0  0  0  0
  -17.5077  -31.6276   24.5138 H   0  0  0  0  0  0
  -15.5349  -30.3030   23.7708 H   0  0  0  0  0  0
  -15.8581  -28.0833   22.7186 H   0  0  0  0  0  0
  -24.5632  -30.7365   25.7463 H   0  0  0  0  0  0
  -24.8679  -32.3362   26.4115 H   0  0  0  0  0  0
  -25.7349  -30.9474   27.0278 H   0  0  0  0  0  0
  -26.3952  -29.5383   24.3725 H   0  0  0  0  0  0
  -27.4674  -29.8247   25.7052 H   0  0  0  0  0  0
  -27.9742  -30.3406   24.1250 H   0  0  0  0  0  0
  -27.2049  -33.4236   26.1298 H   0  0  0  0  0  0
  -28.3719  -32.7168   25.0208 H   0  0  0  0  0  0
  -28.0428  -31.9556   26.5690 H   0  0  0  0  0  0
  -28.2544  -37.9725   24.7516 H   0  0  0  0  0  0
  -28.1037  -36.2257   24.6394 H   0  0  0  0  0  0
  -27.2179  -37.1122   25.8842 H   0  0  0  0  0  0
  -21.0984  -29.6925   21.5293 H   0  0  0  0  0  0
  -26.0022  -38.2269   24.1213 H   0  0  0  0  0  0
  -29.0264  -28.3724   20.9938 H   0  0  0  0  0  0
  -24.1697  -27.0241   18.0160 H   0  0  0  0  0  0
  -30.0773  -31.0017   19.2461 H   0  0  0  0  0  0
  -29.7834  -31.3295   17.5765 H   0  0  0  0  0  0
  -31.1888  -29.0315   18.7119 H   0  0  0  0  0  0
  -30.9773  -29.3832   17.0324 H   0  0  0  0  0  0
  -27.5811  -27.8859   16.6033 H   0  0  0  0  0  0
  -28.3831  -29.3291   16.4058 H   0  0  0  0  0  0
  -29.3525  -28.2305   18.8871 H   0  0  0  0  0  0
  -30.3088  -24.9711   21.7160 H   0  0  0  0  0  0
  -29.1903  -24.2759   22.8818 H   0  0  0  0  0  0
  -29.6821  -25.9749   23.0312 H   0  0  0  0  0  0
  -30.7499  -26.4396   18.2920 H   0  0  0  0  0  0
  -29.5373  -26.0429   17.1410 H   0  0  0  0  0  0
  -27.2854  -19.3084   20.4083 H   0  0  0  0  0  0
  1 25  1  0  0  0
  1 30  2  0  0  0
  1 86  1  0  0  0
  2  3  1  0  0  0
  2 25  1  0  0  0
  2 90  1  0  0  0
  2 91  1  0  0  0
  3  4  1  0  0  0
  3 92  1  0  0  0
  3 93  1  0  0  0
  4  5  1  0  0  0
  4 94  1  0  0  0
  4 95  1  0  0  0
  5  6  1  0  0  0
  5 26  1  0  0  0
  5 96  1  0  0  0
  6 25  1  0  0  0
  6 97  1  0  0  0
  6 98  1  0  0  0
  7  8  2  0  0  0
  7 26  1  0  0  0
  7 29  1  0  0  0
  8  9  1  0  0  0
  8 22  1  0  0  0
  9 10  1  0  0  0
  9 27  2  0  0  0
 10 11  2  0  0  0
 10 15  1  0  0  0
 11 12  1  0  0  0
 11 99  1  0  0  0
 12 13  2  0  0  0
 12100  1  0  0  0
 13 14  1  0  0  0
 13 31  1  0  0  0
 14 15  2  0  0  0
 14101  1  0  0  0
 15102  1  0  0  0
 16 17  2  0  0  0
 16 21  1  0  0  0
 16 31  1  0  0  0
 17 18  1  0  0  0
 17103  1  0  0  0
 18 19  2  0  0  0
 18104  1  0  0  0
 19 20  1  0  0  0
 19 24  1  0  0  0
 20 21  2  0  0  0
 20105  1  0  0  0
 21 23  1  0  0  0
 22 28  1  0  0  0
 22 32  2  0  0  0
 26 27  1  0  0  0
 28106  1  0  0  0
 28107  1  0  0  0
 29108  1  0  0  0
 29109  1  0  0  0
 33 34  1  0  0  0
 33 66  1  0  0  0
 33 70  2  0  0  0
 34 36  1  0  0  0
 34 59  1  0  0  0
 34110  1  0  0  0
 35 44  2  0  0  0
 35 45  1  0  0  0
 35 68  1  0  0  0
 36 56  1  0  0  0
 36111  1  0  0  0
 37 39  1  0  0  0
 37 47  1  0  0  0
 37 66  1  0  0  0
 37112  1  0  0  0
 38 43  2  0  0  0
 38 46  1  0  0  0
 38 47  1  0  0  0
 39 64  1  0  0  0
 39 67  2  0  0  0
 40 52  1  0  0  0
 40 53  2  0  0  0
 40 58  1  0  0  0
 41113  1  0  0  0
 41114  1  0  0  0
 41115  1  0  0  0
 41 48  1  0  0  0
 42 43  1  0  0  0
 42 66  1  0  0  0
 42116  1  0  0  0
 42117  1  0  0  0
 43 44  1  0  0  0
 44118  1  0  0  0
 45 46  2  0  0  0
 45119  1  0  0  0
 46120  1  0  0  0
 47121  1  0  0  0
 47122  1  0  0  0
 48 56  1  0  0  0
 48 65  1  0  0  0
 48123  1  0  0  0
 49 50  1  0  0  0
 49 53  1  0  0  0
 49 64  1  0  0  0
 49124  1  0  0  0
 50 51  1  0  0  0
 50125  1  0  0  0
 50126  1  0  0  0
 51 52  1  0  0  0
 51127  1  0  0  0
 51128  1  0  0  0
 52129  1  0  0  0
 52130  1  0  0  0
 53 54  1  0  0  0
 54 55  2  0  0  0
 54131  1  0  0  0
 55 57  1  0  0  0
 55132  1  0  0  0
 56 69  2  0  0  0
 57 58  2  0  0  0
 57133  1  0  0  0
 58134  1  0  0  0
 59 60  1  0  0  0
 59 61  1  0  0  0
 59 62  1  0  0  0
 60135  1  0  0  0
 60136  1  0  0  0
 60137  1  0  0  0
 61138  1  0  0  0
 61139  1  0  0  0
 61140  1  0  0  0
 62141  1  0  0  0
 62142  1  0  0  0
 62143  1  0  0  0
 63 65  1  0  0  0
 63144  1  0  0  0
 63145  1  0  0  0
 63146  1  0  0  0
 64147  1  0  0  0
 65148  1  0  0  0
 68 84  1  0  0  0
 71 74  2  0  0  0
 71 75  1  0  0  0
 71149  1  0  0  0
 72 75  2  0  0  0
 72 76  1  0  0  0
 72150  1  0  0  0
 73 74  1  0  0  0
 73 76  2  0  0  0
 73 78  1  0  0  0
 74 83  1  0  0  0
 75 85  1  0  0  0
 76 89  1  0  0  0
 77 79  1  0  0  0
 77 85  1  0  0  0
 77 87  2  0  0  0
 78 86  1  0  0  0
 78 88  2  0  0  0
 79 80  1  0  0  0
 79151  1  0  0  0
 79152  1  0  0  0
 80 82  1  0  0  0
 80153  1  0  0  0
 80154  1  0  0  0
 81 82  1  0  0  0
 81 85  1  0  0  0
 81155  1  0  0  0
 81156  1  0  0  0
 82 84  1  0  0  0
 82157  1  0  0  0
 83158  1  0  0  0
 83159  1  0  0  0
 83160  1  0  0  0
 84161  1  0  0  0
 84162  1  0  0  0
 86163  1  0  0  0
M  ISO  4   1 100  68 101  84 101  86 100
M  END
> <chiral flag>
0

> <version>
0

> <s_m_source_file>
/data/baiqing/PycharmProjects/Reinvent-master-3.2/result/LINK_invent/BTK/process_docking_weight1_custom_product_contain_oxygen_bond_distance_aromatic_linkinvent_7_9_3/rearranged_h_0062.sdf

> <i_m_source_file_index>
27

> <r_mmod_Potential_Energy-OPLS-2005>
32764.576171875

> <r_mmod_Stretch_Energy-OPLS-2005>
16590.99609375

> <r_mmod_Bend_Energy-OPLS-2005>
3546.64379882812

> <r_mmod_Torsional_Energy-OPLS-2005>
845.744079589844

> <r_mmod_Improper_Torsional_Energy-OPLS-2005>
69.8548812866211

> <r_mmod_Van_der_Waal_Energy-OPLS-2005>
4649.50390625

> <r_mmod_Electrostatic_Energy-OPLS-2005>
-349.943359375

> <r_mmod_Solvation_Energy-OPLS-2005>
-231.25244140625

> <b_mmod_Minimization_Converged-OPLS-2005>
0

> <r_mmod_RMS_Derivative-OPLS-2005>
19.6782875061035

$$$$
27
                    3D
 Structure written by MMmdl.
161169  0  0  1  0            999 V2000
  -30.6332  -14.6487   20.4806 C   0  0  0  0  0  0
  -30.4292  -12.3921   19.4637 C   0  0  0  0  0  0
  -29.5041  -12.4958   18.2309 C   0  0  0  0  0  0
  -28.0289  -12.3324   18.6452 C   0  0  0  0  0  0
  -27.6484  -13.2192   19.8605 C   0  0  2  0  0  0
  -28.6924  -13.1037   20.9953 C   0  0  0  0  0  0
  -25.2538  -13.8174   20.5691 C   0  0  0  0  0  0
  -24.1815  -13.0432   20.9204 C   0  0  0  0  0  0
  -24.6382  -11.6902   20.8749 C   0  0  0  0  0  0
  -23.9052  -10.4285   21.0401 C   0  0  0  0  0  0
  -24.3608   -9.4199   21.9174 C   0  0  0  0  0  0
  -23.6288   -8.2234   22.0750 C   0  0  0  0  0  0
  -22.4267   -8.0272   21.3541 C   0  0  0  0  0  0
  -21.9897   -9.0245   20.4645 C   0  0  0  0  0  0
  -22.7222  -10.2125   20.3050 C   0  0  0  0  0  0
  -21.6849   -6.0726   22.5275 C   0  0  0  0  0  0
  -21.4015   -6.5634   23.8208 C   0  0  0  0  0  0
  -21.3661   -5.6793   24.9175 C   0  0  0  0  0  0
  -21.6043   -4.3051   24.7232 C   0  0  0  0  0  0
  -21.8821   -3.8140   23.4355 C   0  0  0  0  0  0
  -21.9193   -4.6951   22.3408 C   0  0  0  0  0  0
  -22.7837  -13.5216   21.1869 C   0  0  0  0  0  0
  -22.1659   -4.2133   21.0986 F   0  0  0  0  0  0
  -21.5627   -3.4541   25.7748 F   0  0  0  0  0  0
  -30.0072  -13.4304   20.4259 N   0  0  0  0  0  0
  -26.2961  -12.9358   20.3320 N   0  0  0  0  0  0
  -25.9312  -11.6508   20.5775 N   0  0  0  0  0  0
  -22.0494  -12.8194   22.0430 N   0  0  0  0  0  0
  -25.4245  -15.1896   20.4093 N   0  0  0  0  0  0
  -31.8033  -14.7791   20.1118 O   0  0  0  0  0  0
  -21.6639   -6.8865   21.4234 O   0  0  0  0  0  0
  -22.3514  -14.5522   20.6722 O   0  0  0  0  0  0
  -24.6255  -31.8602   23.2030 C   0  0  0  0  0  0
  -25.9106  -32.4782   23.8360 C   0  0  1  0  0  0
  -27.2240  -27.3243   20.1272 C   0  0  0  0  0  0
  -25.5925  -33.8584   24.2289 N   0  0  0  0  0  0
  -23.4193  -30.4827   21.5452 C   0  0  2  0  0  0
  -24.8673  -28.9365   20.1123 C   0  0  0  0  0  0
  -22.7472  -29.4626   22.4944 C   0  0  0  0  0  0
  -18.0284  -28.1389   22.8489 C   0  0  0  0  0  0
  -24.1489  -36.7296   23.2640 C   0  0  0  0  0  0
  -25.9592  -30.7927   21.3739 C   0  0  0  0  0  0
  -26.0348  -29.4196   20.7184 C   0  0  0  0  0  0
  -27.2190  -28.6255   20.7145 C   0  0  0  0  0  0
  -26.0403  -26.8930   19.4913 C   0  0  0  0  0  0
  -24.8717  -27.6784   19.4885 C   0  0  0  0  0  0
  -23.6345  -29.8160   20.1608 C   0  0  0  0  0  0
  -25.4116  -36.3090   24.0333 C   0  0  1  0  0  0
  -20.5884  -28.3691   23.1289 C   0  0  2  0  0  0
  -20.6778  -26.9415   22.5416 C   0  0  0  0  0  0
  -19.5754  -26.6391   21.5217 C   0  0  0  0  0  0
  -18.1933  -26.7932   22.1626 C   0  0  0  0  0  0
  -19.1537  -28.8856   23.2883 C   0  0  0  0  0  0
  -18.9460  -30.1459   23.8898 C   0  0  0  0  0  0
  -17.6461  -30.6589   24.0568 C   0  0  0  0  0  0
  -25.9049  -34.9456   23.5114 C   0  0  0  0  0  0
  -16.5351  -29.9091   23.6332 C   0  0  0  0  0  0
  -16.7272  -28.6509   23.0350 C   0  0  0  0  0  0
  -26.4497  -31.6587   25.0723 C   0  0  0  0  0  0
  -25.3735  -31.3718   26.1454 C   0  0  0  0  0  0
  -27.0347  -30.3012   24.6172 C   0  0  0  0  0  0
  -27.6062  -32.4321   25.7486 C   0  0  0  0  0  0
  -27.5582  -37.1804   24.8465 C   0  0  0  0  0  0
  -21.4188  -29.3040   22.3682 N   0  0  0  0  0  0
  -26.4295  -37.3783   23.9405 N   0  0  0  0  0  0
  -24.6867  -31.0621   22.0977 N   0  0  0  0  0  0
  -23.4197  -28.8172   23.3032 O   0  0  0  0  0  0
  -28.3344  -26.4720   20.1499 O   0  0  0  0  0  0
  -26.5617  -34.8921   22.4676 O   0  0  0  0  0  0
  -23.5421  -32.1398   23.7361 O   0  0  0  0  0  0
  -29.6905  -17.8108   22.7688 C   0  0  0  0  0  0
  -29.6898  -18.6372   23.8980 C   0  0  0  0  0  0
  -29.9468  -18.3103   21.4686 C   0  0  0  0  0  0
  -30.3076  -20.5329   22.5000 C   0  0  0  0  0  0
  -30.1184  -19.7652   21.3028 C   0  0  0  0  0  0
  -30.0414  -19.9816   23.7686 C   0  0  0  0  0  0
  -28.9668  -22.6085   20.3382 C   0  0  0  0  0  0
  -28.8394  -23.9241   19.9365 C   0  0  0  0  0  0
  -29.6689  -21.6063   19.4910 C   0  0  0  0  0  0
  -30.9375  -21.9233   22.5218 C   0  0  0  0  0  0
  -31.2221  -19.8031   19.0939 C   0  0  0  0  0  0
  -30.0782  -17.1943   20.3644 C   0  0  0  0  0  0
  -28.1215  -25.1010   20.6694 C   0  0  0  0  0  0
  -29.8424  -15.7407   20.7248 N   0  0  0  0  0  0
  -30.2625  -20.4441   20.0073 N   0  0  0  0  0  0
  -29.7320  -21.8212   18.2730 O   0  0  0  0  0  0
  -30.1650  -20.7424   24.8835 F   0  0  0  0  0  0
  -31.4722  -12.5044   19.1641 H   0  0  0  0  0  0
  -30.3560  -11.4035   19.9198 H   0  0  0  0  0  0
  -29.7693  -11.7349   17.4961 H   0  0  0  0  0  0
  -29.6454  -13.4594   17.7391 H   0  0  0  0  0  0
  -27.8738  -11.2816   18.8937 H   0  0  0  0  0  0
  -27.3713  -12.5433   17.8012 H   0  0  0  0  0  0
  -27.6577  -14.2477   19.4991 H   0  0  0  0  0  0
  -28.7020  -12.0946   21.4096 H   0  0  0  0  0  0
  -28.4421  -13.7668   21.8247 H   0  0  0  0  0  0
  -25.2754   -9.5672   22.4750 H   0  0  0  0  0  0
  -23.9992   -7.4620   22.7471 H   0  0  0  0  0  0
  -21.0821   -8.8758   19.8959 H   0  0  0  0  0  0
  -22.3667  -10.9663   19.6162 H   0  0  0  0  0  0
  -21.2008   -7.6141   23.9704 H   0  0  0  0  0  0
  -21.1481   -6.0528   25.9075 H   0  0  0  0  0  0
  -22.0600   -2.7600   23.2866 H   0  0  0  0  0  0
  -22.4124  -11.9843   22.4781 H   0  0  0  0  0  0
  -21.1113  -13.1208   22.2670 H   0  0  0  0  0  0
  -24.6561  -15.8424   20.5203 H   0  0  0  0  0  0
  -26.2686  -15.6286   20.0647 H   0  0  0  0  0  0
  -26.7173  -32.5459   23.1110 H   0  0  0  0  0  0
  -25.0076  -33.9730   25.0437 H   0  0  0  0  0  0
  -22.7132  -31.3033   21.4019 H   0  0  0  0  0  0
  -23.3753  -35.9627   23.3308 H   0  0  0  0  0  0
  -24.3579  -36.8909   22.2053 H   0  0  0  0  0  0
  -23.7238  -37.6499   23.6655 H   0  0  0  0  0  0
  -26.0904  -31.5556   20.6055 H   0  0  0  0  0  0
  -26.8399  -30.8424   22.0027 H   0  0  0  0  0  0
  -28.1157  -28.9904   21.1956 H   0  0  0  0  0  0
  -26.0126  -25.9301   19.0007 H   0  0  0  0  0  0
  -23.9793  -27.3050   19.0055 H   0  0  0  0  0  0
  -23.7539  -30.5923   19.4043 H   0  0  0  0  0  0
  -22.7546  -29.2451   19.8582 H   0  0  0  0  0  0
  -25.1296  -36.1950   25.0827 H   0  0  0  0  0  0
  -20.9974  -28.3268   24.1410 H   0  0  0  0  0  0
  -20.5692  -26.2297   23.3614 H   0  0  0  0  0  0
  -21.6646  -26.7459   22.1199 H   0  0  0  0  0  0
  -19.6920  -25.6305   21.1241 H   0  0  0  0  0  0
  -19.6693  -27.3206   20.6751 H   0  0  0  0  0  0
  -17.4204  -26.6679   21.4026 H   0  0  0  0  0  0
  -18.0333  -26.0074   22.9023 H   0  0  0  0  0  0
  -19.7937  -30.7275   24.2267 H   0  0  0  0  0  0
  -17.5016  -31.6266   24.5177 H   0  0  0  0  0  0
  -15.5353  -30.2993   23.7658 H   0  0  0  0  0  0
  -15.8671  -28.0832   22.7063 H   0  0  0  0  0  0
  -24.5900  -30.7084   25.7774 H   0  0  0  0  0  0
  -24.8941  -32.2882   26.4902 H   0  0  0  0  0  0
  -25.8064  -30.8870   27.0213 H   0  0  0  0  0  0
  -26.2921  -29.6754   24.1209 H   0  0  0  0  0  0
  -27.4065  -29.7278   25.4673 H   0  0  0  0  0  0
  -27.8780  -30.4306   23.9384 H   0  0  0  0  0  0
  -27.2679  -33.3617   26.2074 H   0  0  0  0  0  0
  -28.3860  -32.6890   25.0305 H   0  0  0  0  0  0
  -28.0745  -31.8442   26.5389 H   0  0  0  0  0  0
  -28.2607  -38.0094   24.7511 H   0  0  0  0  0  0
  -28.1071  -36.2627   24.6297 H   0  0  0  0  0  0
  -27.2298  -37.1461   25.8868 H   0  0  0  0  0  0
  -20.9370  -29.8744   21.6872 H   0  0  0  0  0  0
  -26.0183  -38.2860   24.1400 H   0  0  0  0  0  0
  -29.5123  -16.7607   22.9406 H   0  0  0  0  0  0
  -29.4984  -18.2220   24.8771 H   0  0  0  0  0  0
  -28.5322  -22.2936   21.2749 H   0  0  0  0  0  0
  -29.2732  -24.2138   18.9894 H   0  0  0  0  0  0
  -31.4414  -22.1880   21.5940 H   0  0  0  0  0  0
  -31.7052  -21.9622   23.2959 H   0  0  0  0  0  0
  -30.2033  -22.6893   22.7698 H   0  0  0  0  0  0
  -31.9650  -19.2261   19.6424 H   0  0  0  0  0  0
  -31.8051  -20.5271   18.5206 H   0  0  0  0  0  0
  -30.7114  -19.1528   18.3837 H   0  0  0  0  0  0
  -31.0800  -17.2542   19.9423 H   0  0  0  0  0  0
  -29.3919  -17.4449   19.5551 H   0  0  0  0  0  0
  -28.4600  -25.0940   21.7061 H   0  0  0  0  0  0
  -27.0630  -24.8463   20.7196 H   0  0  0  0  0  0
  -28.9007  -15.5203   21.0102 H   0  0  0  0  0  0
  1 25  1  0  0  0
  1 30  2  0  0  0
  1 84  1  0  0  0
  2  3  1  0  0  0
  2 25  1  0  0  0
  2 88  1  0  0  0
  2 89  1  0  0  0
  3  4  1  0  0  0
  3 90  1  0  0  0
  3 91  1  0  0  0
  4  5  1  0  0  0
  4 92  1  0  0  0
  4 93  1  0  0  0
  5  6  1  0  0  0
  5 26  1  0  0  0
  5 94  1  0  0  0
  6 25  1  0  0  0
  6 95  1  0  0  0
  6 96  1  0  0  0
  7  8  2  0  0  0
  7 26  1  0  0  0
  7 29  1  0  0  0
  8  9  1  0  0  0
  8 22  1  0  0  0
  9 10  1  0  0  0
  9 27  2  0  0  0
 10 11  2  0  0  0
 10 15  1  0  0  0
 11 12  1  0  0  0
 11 97  1  0  0  0
 12 13  2  0  0  0
 12 98  1  0  0  0
 13 14  1  0  0  0
 13 31  1  0  0  0
 14 15  2  0  0  0
 14 99  1  0  0  0
 15100  1  0  0  0
 16 17  2  0  0  0
 16 21  1  0  0  0
 16 31  1  0  0  0
 17 18  1  0  0  0
 17101  1  0  0  0
 18 19  2  0  0  0
 18102  1  0  0  0
 19 20  1  0  0  0
 19 24  1  0  0  0
 20 21  2  0  0  0
 20103  1  0  0  0
 21 23  1  0  0  0
 22 28  1  0  0  0
 22 32  2  0  0  0
 26 27  1  0  0  0
 28104  1  0  0  0
 28105  1  0  0  0
 29106  1  0  0  0
 29107  1  0  0  0
 33 34  1  0  0  0
 33 66  1  0  0  0
 33 70  2  0  0  0
 34 36  1  0  0  0
 34 59  1  0  0  0
 34108  1  0  0  0
 35 44  2  0  0  0
 35 45  1  0  0  0
 35 68  1  0  0  0
 36 56  1  0  0  0
 36109  1  0  0  0
 37 39  1  0  0  0
 37 47  1  0  0  0
 37 66  1  0  0  0
 37110  1  0  0  0
 38 43  2  0  0  0
 38 46  1  0  0  0
 38 47  1  0  0  0
 39 64  1  0  0  0
 39 67  2  0  0  0
 40 52  1  0  0  0
 40 53  2  0  0  0
 40 58  1  0  0  0
 41111  1  0  0  0
 41112  1  0  0  0
 41113  1  0  0  0
 41 48  1  0  0  0
 42 43  1  0  0  0
 42 66  1  0  0  0
 42114  1  0  0  0
 42115  1  0  0  0
 43 44  1  0  0  0
 44116  1  0  0  0
 45 46  2  0  0  0
 45117  1  0  0  0
 46118  1  0  0  0
 47119  1  0  0  0
 47120  1  0  0  0
 48 56  1  0  0  0
 48 65  1  0  0  0
 48121  1  0  0  0
 49 50  1  0  0  0
 49 53  1  0  0  0
 49 64  1  0  0  0
 49122  1  0  0  0
 50 51  1  0  0  0
 50123  1  0  0  0
 50124  1  0  0  0
 51 52  1  0  0  0
 51125  1  0  0  0
 51126  1  0  0  0
 52127  1  0  0  0
 52128  1  0  0  0
 53 54  1  0  0  0
 54 55  2  0  0  0
 54129  1  0  0  0
 55 57  1  0  0  0
 55130  1  0  0  0
 56 69  2  0  0  0
 57 58  2  0  0  0
 57131  1  0  0  0
 58132  1  0  0  0
 59 60  1  0  0  0
 59 61  1  0  0  0
 59 62  1  0  0  0
 60133  1  0  0  0
 60134  1  0  0  0
 60135  1  0  0  0
 61136  1  0  0  0
 61137  1  0  0  0
 61138  1  0  0  0
 62139  1  0  0  0
 62140  1  0  0  0
 62141  1  0  0  0
 63 65  1  0  0  0
 63142  1  0  0  0
 63143  1  0  0  0
 63144  1  0  0  0
 64145  1  0  0  0
 65146  1  0  0  0
 68 83  1  0  0  0
 71 72  2  0  0  0
 71 73  1  0  0  0
 71147  1  0  0  0
 72 76  1  0  0  0
 72148  1  0  0  0
 73 75  2  0  0  0
 73 82  1  0  0  0
 74 75  1  0  0  0
 74 76  2  0  0  0
 74 80  1  0  0  0
 75 85  1  0  0  0
 76 87  1  0  0  0
 77 78  2  0  0  0
 77 79  1  0  0  0
 77149  1  0  0  0
 78 83  1  0  0  0
 78150  1  0  0  0
 79 85  1  0  0  0
 79 86  2  0  0  0
 80151  1  0  0  0
 80152  1  0  0  0
 80153  1  0  0  0
 81 85  1  0  0  0
 81154  1  0  0  0
 81155  1  0  0  0
 81156  1  0  0  0
 82 84  1  0  0  0
 82157  1  0  0  0
 82158  1  0  0  0
 83159  1  0  0  0
 83160  1  0  0  0
 84161  1  0  0  0
M  ISO  4   1 100  68 101  83 101  84 100
M  END
> <chiral flag>
0

> <version>
0

> <s_m_source_file>
/data/baiqing/PycharmProjects/Reinvent-master-3.2/result/LINK_invent/BTK/process_docking_weight1_custom_product_contain_oxygen_bond_distance_aromatic_linkinvent_7_9_3/rearranged_h_0062.sdf

> <i_m_source_file_index>
28

> <r_mmod_Potential_Energy-OPLS-2005>
148.465911865234

> <r_mmod_Stretch_Energy-OPLS-2005>
99.8096542358398

> <r_mmod_Bend_Energy-OPLS-2005>
162.133255004883

> <r_mmod_Torsional_Energy-OPLS-2005>
290.350158691406

> <r_mmod_Improper_Torsional_Energy-OPLS-2005>
7.23864126205444

> <r_mmod_Van_der_Waal_Energy-OPLS-2005>
172.717102050781

> <r_mmod_Electrostatic_Energy-OPLS-2005>
-417.867309570312

> <r_mmod_Solvation_Energy-OPLS-2005>
-215.870040893555

> <b_mmod_Minimization_Converged-OPLS-2005>
0

> <r_mmod_RMS_Derivative-OPLS-2005>
1.07884216308594

$$$$
28
                    3D
 Structure written by MMmdl.
153161  0  0  1  0            999 V2000
  -30.6264  -14.7599   20.4431 C   0  0  0  0  0  0
  -30.4249  -12.4612   19.4851 C   0  0  0  0  0  0
  -29.5091  -12.5081   18.2423 C   0  0  0  0  0  0
  -28.0350  -12.3333   18.6525 C   0  0  0  0  0  0
  -27.6392  -13.2382   19.8496 C   0  0  2  0  0  0
  -28.6830  -13.1930   20.9875 C   0  0  0  0  0  0
  -25.2496  -13.8213   20.5686 C   0  0  0  0  0  0
  -24.1805  -13.0446   20.9222 C   0  0  0  0  0  0
  -24.6403  -11.6923   20.8771 C   0  0  0  0  0  0
  -23.9082  -10.4295   21.0423 C   0  0  0  0  0  0
  -24.3629   -9.4201   21.9187 C   0  0  0  0  0  0
  -23.6302   -8.2240   22.0752 C   0  0  0  0  0  0
  -22.4283   -8.0285   21.3543 C   0  0  0  0  0  0
  -21.9925   -9.0262   20.4643 C   0  0  0  0  0  0
  -22.7263  -10.2135   20.3060 C   0  0  0  0  0  0
  -21.6854   -6.0738   22.5274 C   0  0  0  0  0  0
  -21.4018   -6.5642   23.8208 C   0  0  0  0  0  0
  -21.3652   -5.6793   24.9169 C   0  0  0  0  0  0
  -21.6049   -4.3057   24.7220 C   0  0  0  0  0  0
  -21.8819   -3.8149   23.4340 C   0  0  0  0  0  0
  -21.9193   -4.6967   22.3398 C   0  0  0  0  0  0
  -22.7822  -13.5217   21.1877 C   0  0  0  0  0  0
  -22.1662   -4.2155   21.0977 F   0  0  0  0  0  0
  -21.5623   -3.4540   25.7729 F   0  0  0  0  0  0
  -29.9819  -13.5411   20.4001 N   0  0  0  0  0  0
  -26.2928  -12.9431   20.3282 N   0  0  0  0  0  0
  -25.9334  -11.6567   20.5773 N   0  0  0  0  0  0
  -22.0468  -12.8200   22.0424 N   0  0  0  0  0  0
  -25.4166  -15.1933   20.4014 N   0  0  0  0  0  0
  -31.8239  -14.7962   20.1534 O   0  0  0  0  0  0
  -21.6642   -6.8886   21.4239 O   0  0  0  0  0  0
  -22.3498  -14.5517   20.6712 O   0  0  0  0  0  0
  -24.6292  -31.8537   23.1973 C   0  0  0  0  0  0
  -25.9115  -32.4744   23.8303 C   0  0  1  0  0  0
  -27.2227  -27.2579   20.1243 C   0  0  0  0  0  0
  -25.5916  -33.8555   24.2236 N   0  0  0  0  0  0
  -23.4259  -30.4744   21.5406 C   0  0  2  0  0  0
  -24.8730  -28.9196   20.1041 C   0  0  0  0  0  0
  -22.7486  -29.4570   22.4911 C   0  0  0  0  0  0
  -18.0278  -28.1368   22.8457 C   0  0  0  0  0  0
  -24.1492  -36.7284   23.2644 C   0  0  0  0  0  0
  -25.9700  -30.7641   21.3785 C   0  0  0  0  0  0
  -26.0403  -29.3863   20.7195 C   0  0  0  0  0  0
  -27.2107  -28.5619   20.7265 C   0  0  0  0  0  0
  -26.0320  -26.8557   19.4804 C   0  0  0  0  0  0
  -24.8742  -27.6630   19.4760 C   0  0  0  0  0  0
  -23.6418  -29.8063   20.1563 C   0  0  0  0  0  0
  -25.4121  -36.3081   24.0329 C   0  0  1  0  0  0
  -20.5880  -28.3656   23.1282 C   0  0  2  0  0  0
  -20.6766  -26.9374   22.5417 C   0  0  0  0  0  0
  -19.5760  -26.6359   21.5201 C   0  0  0  0  0  0
  -18.1930  -26.7908   22.1604 C   0  0  0  0  0  0
  -19.1533  -28.8829   23.2863 C   0  0  0  0  0  0
  -18.9464  -30.1431   23.8874 C   0  0  0  0  0  0
  -17.6468  -30.6578   24.0534 C   0  0  0  0  0  0
  -25.9064  -34.9443   23.5100 C   0  0  0  0  0  0
  -16.5350  -29.9068   23.6335 C   0  0  0  0  0  0
  -16.7266  -28.6490   23.0347 C   0  0  0  0  0  0
  -26.4488  -31.6580   25.0701 C   0  0  0  0  0  0
  -25.3720  -31.3714   26.1428 C   0  0  0  0  0  0
  -27.0322  -30.2999   24.6183 C   0  0  0  0  0  0
  -27.6046  -32.4317   25.7467 C   0  0  0  0  0  0
  -27.5585  -37.1796   24.8467 C   0  0  0  0  0  0
  -21.4188  -29.3011   22.3677 N   0  0  0  0  0  0
  -26.4299  -37.3780   23.9421 N   0  0  0  0  0  0
  -24.6938  -31.0496   22.0952 N   0  0  0  0  0  0
  -23.4193  -28.8102   23.2997 O   0  0  0  0  0  0
  -28.3372  -26.3920   20.2254 O   0  0  0  0  0  0
  -26.5648  -34.8923   22.4676 O   0  0  0  0  0  0
  -23.5446  -32.1355   23.7284 O   0  0  0  0  0  0
  -30.8995  -20.1323   19.7014 C   0  0  0  0  0  0
  -31.4646  -17.7413   19.7868 C   0  0  0  0  0  0
  -29.6321  -19.9088   20.2608 C   0  0  0  0  0  0
  -30.2115  -17.3783   20.3415 C   0  0  0  0  0  0
  -29.2959  -18.4970   20.5750 C   0  0  0  0  0  0
  -31.7963  -19.0746   19.4738 C   0  0  0  0  0  0
  -28.3289  -23.6495   20.2943 C   0  0  0  0  0  0
  -28.7686  -21.1942   20.5252 C   0  0  0  0  0  0
  -28.4721  -25.0631   19.5314 C   0  0  0  0  0  0
  -28.9666  -22.5116   20.0183 N   0  0  0  0  0  0
  -28.0443  -18.1526   21.1237 N   0  0  0  0  0  0
  -29.8836  -15.9315   20.6150 N   0  0  0  0  0  0
  -27.7738  -20.9696   21.3246 N   0  3  0  0  0  0
  -33.0142  -19.3413   18.9398 F   0  0  0  0  0  0
  -31.4685  -12.5696   19.1846 H   0  0  0  0  0  0
  -30.3582  -11.4910   19.9805 H   0  0  0  0  0  0
  -29.7960  -11.7321   17.5318 H   0  0  0  0  0  0
  -29.6374  -13.4602   17.7257 H   0  0  0  0  0  0
  -27.8911  -11.2863   18.9206 H   0  0  0  0  0  0
  -27.3801  -12.5252   17.8021 H   0  0  0  0  0  0
  -27.6280  -14.2570   19.4611 H   0  0  0  0  0  0
  -28.7225  -12.2026   21.4429 H   0  0  0  0  0  0
  -28.4165  -13.8864   21.7861 H   0  0  0  0  0  0
  -25.2774   -9.5671   22.4757 H   0  0  0  0  0  0
  -24.0006   -7.4630   22.7467 H   0  0  0  0  0  0
  -21.0858   -8.8798   19.8943 H   0  0  0  0  0  0
  -22.3740  -10.9679   19.6167 H   0  0  0  0  0  0
  -21.2016   -7.6149   23.9719 H   0  0  0  0  0  0
  -21.1473   -6.0517   25.9072 H   0  0  0  0  0  0
  -22.0605   -2.7613   23.2840 H   0  0  0  0  0  0
  -22.4094  -11.9867   22.4818 H   0  0  0  0  0  0
  -21.1073  -13.1202   22.2623 H   0  0  0  0  0  0
  -24.6346  -15.8347   20.4778 H   0  0  0  0  0  0
  -26.2351  -15.6164   19.9862 H   0  0  0  0  0  0
  -26.7164  -32.5380   23.1024 H   0  0  0  0  0  0
  -25.0035  -33.9683   25.0363 H   0  0  0  0  0  0
  -22.7223  -31.2967   21.3953 H   0  0  0  0  0  0
  -23.3771  -35.9601   23.3299 H   0  0  0  0  0  0
  -24.3581  -36.8924   22.2065 H   0  0  0  0  0  0
  -23.7228  -37.6470   23.6671 H   0  0  0  0  0  0
  -26.1143  -31.5253   20.6106 H   0  0  0  0  0  0
  -26.8464  -30.8099   22.0133 H   0  0  0  0  0  0
  -28.0998  -28.9082   21.2360 H   0  0  0  0  0  0
  -25.9555  -25.8893   19.0072 H   0  0  0  0  0  0
  -23.9784  -27.2981   18.9923 H   0  0  0  0  0  0
  -23.7614  -30.5838   19.4013 H   0  0  0  0  0  0
  -22.7594  -29.2396   19.8511 H   0  0  0  0  0  0
  -25.1307  -36.1928   25.0821 H   0  0  0  0  0  0
  -20.9954  -28.3218   24.1413 H   0  0  0  0  0  0
  -20.5646  -26.2244   23.3606 H   0  0  0  0  0  0
  -21.6631  -26.7398   22.1217 H   0  0  0  0  0  0
  -19.6927  -25.6275   21.1226 H   0  0  0  0  0  0
  -19.6719  -27.3163   20.6729 H   0  0  0  0  0  0
  -17.4196  -26.6620   21.4014 H   0  0  0  0  0  0
  -18.0340  -26.0064   22.9017 H   0  0  0  0  0  0
  -19.7948  -30.7239   24.2231 H   0  0  0  0  0  0
  -17.5035  -31.6259   24.5126 H   0  0  0  0  0  0
  -15.5355  -30.2962   23.7698 H   0  0  0  0  0  0
  -15.8658  -28.0817   22.7078 H   0  0  0  0  0  0
  -24.5929  -30.7024   25.7762 H   0  0  0  0  0  0
  -24.8863  -32.2862   26.4834 H   0  0  0  0  0  0
  -25.8056  -30.8919   27.0218 H   0  0  0  0  0  0
  -26.2882  -29.6744   24.1231 H   0  0  0  0  0  0
  -27.4032  -29.7271   25.4691 H   0  0  0  0  0  0
  -27.8753  -30.4268   23.9389 H   0  0  0  0  0  0
  -27.2685  -33.3669   26.1953 H   0  0  0  0  0  0
  -28.3894  -32.6784   25.0309 H   0  0  0  0  0  0
  -28.0648  -31.8483   26.5455 H   0  0  0  0  0  0
  -28.2592  -38.0098   24.7541 H   0  0  0  0  0  0
  -28.1091  -36.2639   24.6265 H   0  0  0  0  0  0
  -27.2304  -37.1419   25.8865 H   0  0  0  0  0  0
  -20.9365  -29.8757   21.6907 H   0  0  0  0  0  0
  -26.0183  -38.2861   24.1415 H   0  0  0  0  0  0
  -31.1969  -21.1380   19.4579 H   0  0  0  0  0  0
  -32.2223  -17.0083   19.5628 H   0  0  0  0  0  0
  -27.5814  -23.6924   21.0895 H   0  0  0  0  0  0
  -27.8624  -25.0344   18.6305 H   0  0  0  0  0  0
  -29.4908  -25.0790   19.1446 H   0  0  0  0  0  0
  -27.2852  -18.2633   20.4574 H   0  0  0  0  0  0
  -28.0063  -17.2084   21.4818 H   0  0  0  0  0  0
  -28.9279  -15.7612   20.8799 H   0  0  0  0  0  0
  -27.6268  -20.0031   21.6486 H   0  0  0  0  0  0
  -27.0713  -21.6436   21.6048 H   0  0  0  0  0  0
  1 25  1  0  0  0
  1 30  2  0  0  0
  1 82  1  0  0  0
  2  3  1  0  0  0
  2 25  1  0  0  0
  2 85  1  0  0  0
  2 86  1  0  0  0
  3  4  1  0  0  0
  3 87  1  0  0  0
  3 88  1  0  0  0
  4  5  1  0  0  0
  4 89  1  0  0  0
  4 90  1  0  0  0
  5  6  1  0  0  0
  5 26  1  0  0  0
  5 91  1  0  0  0
  6 25  1  0  0  0
  6 92  1  0  0  0
  6 93  1  0  0  0
  7  8  2  0  0  0
  7 26  1  0  0  0
  7 29  1  0  0  0
  8  9  1  0  0  0
  8 22  1  0  0  0
  9 10  1  0  0  0
  9 27  2  0  0  0
 10 11  2  0  0  0
 10 15  1  0  0  0
 11 12  1  0  0  0
 11 94  1  0  0  0
 12 13  2  0  0  0
 12 95  1  0  0  0
 13 14  1  0  0  0
 13 31  1  0  0  0
 14 15  2  0  0  0
 14 96  1  0  0  0
 15 97  1  0  0  0
 16 17  2  0  0  0
 16 21  1  0  0  0
 16 31  1  0  0  0
 17 18  1  0  0  0
 17 98  1  0  0  0
 18 19  2  0  0  0
 18 99  1  0  0  0
 19 20  1  0  0  0
 19 24  1  0  0  0
 20 21  2  0  0  0
 20100  1  0  0  0
 21 23  1  0  0  0
 22 28  1  0  0  0
 22 32  2  0  0  0
 26 27  1  0  0  0
 28101  1  0  0  0
 28102  1  0  0  0
 29103  1  0  0  0
 29104  1  0  0  0
 33 34  1  0  0  0
 33 66  1  0  0  0
 33 70  2  0  0  0
 34 36  1  0  0  0
 34 59  1  0  0  0
 34105  1  0  0  0
 35 44  2  0  0  0
 35 45  1  0  0  0
 35 68  1  0  0  0
 36 56  1  0  0  0
 36106  1  0  0  0
 37 39  1  0  0  0
 37 47  1  0  0  0
 37 66  1  0  0  0
 37107  1  0  0  0
 38 43  2  0  0  0
 38 46  1  0  0  0
 38 47  1  0  0  0
 39 64  1  0  0  0
 39 67  2  0  0  0
 40 52  1  0  0  0
 40 53  2  0  0  0
 40 58  1  0  0  0
 41108  1  0  0  0
 41109  1  0  0  0
 41110  1  0  0  0
 41 48  1  0  0  0
 42 43  1  0  0  0
 42 66  1  0  0  0
 42111  1  0  0  0
 42112  1  0  0  0
 43 44  1  0  0  0
 44113  1  0  0  0
 45 46  2  0  0  0
 45114  1  0  0  0
 46115  1  0  0  0
 47116  1  0  0  0
 47117  1  0  0  0
 48 56  1  0  0  0
 48 65  1  0  0  0
 48118  1  0  0  0
 49 50  1  0  0  0
 49 53  1  0  0  0
 49 64  1  0  0  0
 49119  1  0  0  0
 50 51  1  0  0  0
 50120  1  0  0  0
 50121  1  0  0  0
 51 52  1  0  0  0
 51122  1  0  0  0
 51123  1  0  0  0
 52124  1  0  0  0
 52125  1  0  0  0
 53 54  1  0  0  0
 54 55  2  0  0  0
 54126  1  0  0  0
 55 57  1  0  0  0
 55127  1  0  0  0
 56 69  2  0  0  0
 57 58  2  0  0  0
 57128  1  0  0  0
 58129  1  0  0  0
 59 60  1  0  0  0
 59 61  1  0  0  0
 59 62  1  0  0  0
 60130  1  0  0  0
 60131  1  0  0  0
 60132  1  0  0  0
 61133  1  0  0  0
 61134  1  0  0  0
 61135  1  0  0  0
 62136  1  0  0  0
 62137  1  0  0  0
 62138  1  0  0  0
 63 65  1  0  0  0
 63139  1  0  0  0
 63140  1  0  0  0
 63141  1  0  0  0
 64142  1  0  0  0
 65143  1  0  0  0
 68 79  1  0  0  0
 71 73  2  0  0  0
 71 76  1  0  0  0
 71144  1  0  0  0
 72 74  1  0  0  0
 72 76  2  0  0  0
 72145  1  0  0  0
 73 75  1  0  0  0
 73 78  1  0  0  0
 74 75  2  0  0  0
 74 82  1  0  0  0
 75 81  1  0  0  0
 76 84  1  0  0  0
 77 79  1  0  0  0
 77 80  2  0  0  0
 77146  1  0  0  0
 78 80  1  0  0  0
 78 83  2  0  0  0
 79147  1  0  0  0
 79148  1  0  0  0
 81149  1  0  0  0
 81150  1  0  0  0
 82151  1  0  0  0
 83152  1  0  0  0
 83153  1  0  0  0
M  CHG  1  83   1
M  ISO  4   1 100  68 101  79 101  82 100
M  END
> <chiral flag>
0

> <version>
0

> <s_m_source_file>
/data/baiqing/PycharmProjects/Reinvent-master-3.2/result/LINK_invent/BTK/process_docking_weight1_custom_product_contain_oxygen_bond_distance_aromatic_linkinvent_7_9_3/rearranged_h_0062.sdf

> <i_m_source_file_index>
29

> <r_mmod_Potential_Energy-OPLS-2005>
259.123779296875

> <r_mmod_Stretch_Energy-OPLS-2005>
161.614120483398

> <r_mmod_Bend_Energy-OPLS-2005>
189.416549682617

> <r_mmod_Torsional_Energy-OPLS-2005>
225.823974609375

> <r_mmod_Improper_Torsional_Energy-OPLS-2005>
11.1188058853149

> <r_mmod_Van_der_Waal_Energy-OPLS-2005>
160.067031860352

> <r_mmod_Electrostatic_Energy-OPLS-2005>
-88.8399047851562

> <r_mmod_Solvation_Energy-OPLS-2005>
-489.547271728516

> <b_mmod_Minimization_Converged-OPLS-2005>
0

> <r_mmod_RMS_Derivative-OPLS-2005>
2.02728486061096

$$$$
29
                    3D
 Structure written by MMmdl.
164172  0  0  1  0            999 V2000
  -30.6825  -14.4908   20.5310 C   0  0  0  0  0  0
  -30.4297  -12.3092   19.4299 C   0  0  0  0  0  0
  -29.5045  -12.5034   18.2069 C   0  0  0  0  0  0
  -28.0233  -12.3756   18.6154 C   0  0  0  0  0  0
  -27.6655  -13.2081   19.8750 C   0  0  2  0  0  0
  -28.7059  -12.9985   20.9996 C   0  0  0  0  0  0
  -25.2613  -13.8152   20.5662 C   0  0  0  0  0  0
  -24.1850  -13.0439   20.9146 C   0  0  0  0  0  0
  -24.6409  -11.6906   20.8693 C   0  0  0  0  0  0
  -23.9072  -10.4298   21.0367 C   0  0  0  0  0  0
  -24.3608   -9.4222   21.9161 C   0  0  0  0  0  0
  -23.6277   -8.2260   22.0753 C   0  0  0  0  0  0
  -22.4250   -8.0295   21.3550 C   0  0  0  0  0  0
  -21.9882   -9.0267   20.4654 C   0  0  0  0  0  0
  -22.7228  -10.2133   20.3047 C   0  0  0  0  0  0
  -21.6860   -6.0725   22.5256 C   0  0  0  0  0  0
  -21.4032   -6.5619   23.8194 C   0  0  0  0  0  0
  -21.3663   -5.6775   24.9151 C   0  0  0  0  0  0
  -21.6029   -4.3036   24.7202 C   0  0  0  0  0  0
  -21.8828   -3.8144   23.4325 C   0  0  0  0  0  0
  -21.9202   -4.6955   22.3387 C   0  0  0  0  0  0
  -22.7877  -13.5238   21.1796 C   0  0  0  0  0  0
  -22.1664   -4.2147   21.0960 F   0  0  0  0  0  0
  -21.5631   -3.4523   25.7714 F   0  0  0  0  0  0
  -30.0385  -13.2951   20.4506 N   0  0  0  0  0  0
  -26.3041  -12.9330   20.3349 N   0  0  0  0  0  0
  -25.9331  -11.6486   20.5713 N   0  0  0  0  0  0
  -22.0508  -12.8265   22.0369 N   0  0  0  0  0  0
  -25.4378  -15.1859   20.4067 N   0  0  0  0  0  0
  -31.8217  -14.6717   20.0917 O   0  0  0  0  0  0
  -21.6641   -6.8868   21.4228 O   0  0  0  0  0  0
  -22.3576  -14.5555   20.6652 O   0  0  0  0  0  0
  -24.6156  -31.8679   23.2092 C   0  0  0  0  0  0
  -25.9041  -32.4828   23.8393 C   0  0  1  0  0  0
  -27.2231  -27.4198   20.1121 C   0  0  0  0  0  0
  -25.5886  -33.8622   24.2320 N   0  0  0  0  0  0
  -23.4048  -30.4927   21.5490 C   0  0  2  0  0  0
  -24.8508  -28.9598   20.1115 C   0  0  0  0  0  0
  -22.7427  -29.4664   22.4970 C   0  0  0  0  0  0
  -18.0275  -28.1381   22.8493 C   0  0  0  0  0  0
  -24.1483  -36.7312   23.2637 C   0  0  0  0  0  0
  -25.9359  -30.8307   21.3650 C   0  0  0  0  0  0
  -26.0127  -29.4657   20.7105 C   0  0  0  0  0  0
  -27.2058  -28.7028   20.7050 C   0  0  0  0  0  0
  -26.0503  -26.9380   19.4937 C   0  0  0  0  0  0
  -24.8654  -27.6965   19.4967 C   0  0  0  0  0  0
  -23.6140  -29.8281   20.1623 C   0  0  0  0  0  0
  -25.4104  -36.3113   24.0335 C   0  0  1  0  0  0
  -20.5871  -28.3679   23.1310 C   0  0  2  0  0  0
  -20.6770  -26.9411   22.5415 C   0  0  0  0  0  0
  -19.5742  -26.6391   21.5208 C   0  0  0  0  0  0
  -18.1922  -26.7929   22.1623 C   0  0  0  0  0  0
  -19.1529  -28.8849   23.2898 C   0  0  0  0  0  0
  -18.9458  -30.1450   23.8927 C   0  0  0  0  0  0
  -17.6461  -30.6589   24.0570 C   0  0  0  0  0  0
  -25.9029  -34.9478   23.5127 C   0  0  0  0  0  0
  -16.5354  -29.9094   23.6322 C   0  0  0  0  0  0
  -16.7267  -28.6505   23.0358 C   0  0  0  0  0  0
  -26.4458  -31.6618   25.0737 C   0  0  0  0  0  0
  -25.3722  -31.3752   26.1492 C   0  0  0  0  0  0
  -27.0283  -30.3056   24.6135 C   0  0  0  0  0  0
  -27.6050  -32.4329   25.7483 C   0  0  0  0  0  0
  -27.5582  -37.1801   24.8459 C   0  0  0  0  0  0
  -21.4152  -29.3041   22.3714 N   0  0  0  0  0  0
  -26.4292  -37.3801   23.9404 N   0  0  0  0  0  0
  -24.6700  -31.0778   22.0997 N   0  0  0  0  0  0
  -23.4196  -28.8196   23.3009 O   0  0  0  0  0  0
  -28.3520  -26.6246   20.1519 O   0  0  0  0  0  0
  -26.5615  -34.8939   22.4696 O   0  0  0  0  0  0
  -23.5334  -32.1433   23.7482 O   0  0  0  0  0  0
  -29.6530  -18.0003   18.1368 C   0  0  0  0  0  0
  -29.7489  -16.7907   18.8405 C   0  0  0  0  0  0
  -29.8035  -18.0203   20.9426 C   0  0  0  0  0  0
  -29.7111  -19.2582   20.2413 C   0  0  0  0  0  0
  -29.6598  -19.2381   18.8155 C   0  0  0  0  0  0
  -29.8522  -16.7816   20.2495 C   0  0  0  0  0  0
  -29.6863  -20.5317   21.0036 C   0  0  0  0  0  0
  -28.0644  -23.8464   18.9087 C   0  0  0  0  0  0
  -29.6383  -20.5015   17.9633 C   0  0  0  0  0  0
  -28.8285  -24.2800   17.6668 C   0  0  0  0  0  0
  -28.5942  -22.8764   21.2538 C   0  0  0  0  0  0
  -28.1763  -25.4030   20.9123 C   0  0  0  0  0  0
  -28.7289  -24.0941   20.2691 C   0  0  2  0  0  0
  -30.5326  -20.7161   22.0129 N   0  0  0  0  0  0
  -29.9326  -15.5340   20.9483 N   0  0  0  0  0  0
  -28.8262  -21.5176   20.6701 N   0  3  0  0  0  0
  -26.9623  -23.2999   18.8094 O   0  0  0  0  0  0
  -31.4757  -12.4044   19.1361 H   0  0  0  0  0  0
  -30.3272  -11.2996   19.8282 H   0  0  0  0  0  0
  -29.7403  -11.7664   17.4368 H   0  0  0  0  0  0
  -29.6846  -13.4790   17.7525 H   0  0  0  0  0  0
  -27.8214  -11.3208   18.8013 H   0  0  0  0  0  0
  -27.3813  -12.6679   17.7824 H   0  0  0  0  0  0
  -27.7089  -14.2544   19.5750 H   0  0  0  0  0  0
  -28.6785  -11.9670   21.3526 H   0  0  0  0  0  0
  -28.4714  -13.6131   21.8691 H   0  0  0  0  0  0
  -25.2760   -9.5695   22.4733 H   0  0  0  0  0  0
  -23.9990   -7.4642   22.7458 H   0  0  0  0  0  0
  -21.0820   -8.8777   19.8947 H   0  0  0  0  0  0
  -22.3683  -10.9661   19.6146 H   0  0  0  0  0  0
  -21.2045   -7.6122   23.9688 H   0  0  0  0  0  0
  -21.1463   -6.0503   25.9046 H   0  0  0  0  0  0
  -22.0614   -2.7606   23.2820 H   0  0  0  0  0  0
  -22.4108  -11.9939   22.4801 H   0  0  0  0  0  0
  -21.1130  -13.1321   22.2519 H   0  0  0  0  0  0
  -24.6758  -15.8464   20.5193 H   0  0  0  0  0  0
  -26.2962  -15.6230   20.0985 H   0  0  0  0  0  0
  -26.7129  -32.5545   23.1167 H   0  0  0  0  0  0
  -25.0031  -33.9766   25.0470 H   0  0  0  0  0  0
  -22.6935  -31.3102   21.4117 H   0  0  0  0  0  0
  -23.3749  -35.9639   23.3298 H   0  0  0  0  0  0
  -24.3592  -36.8942   22.2056 H   0  0  0  0  0  0
  -23.7238  -37.6512   23.6662 H   0  0  0  0  0  0
  -26.0535  -31.5975   20.5977 H   0  0  0  0  0  0
  -26.8214  -30.8809   21.9873 H   0  0  0  0  0  0
  -28.1001  -29.0815   21.1781 H   0  0  0  0  0  0
  -26.0432  -25.9657   19.0239 H   0  0  0  0  0  0
  -23.9731  -27.3031   19.0279 H   0  0  0  0  0  0
  -23.7242  -30.6051   19.4047 H   0  0  0  0  0  0
  -22.7373  -29.2499   19.8646 H   0  0  0  0  0  0
  -25.1274  -36.1972   25.0829 H   0  0  0  0  0  0
  -20.9960  -28.3244   24.1430 H   0  0  0  0  0  0
  -20.5666  -26.2284   23.3600 H   0  0  0  0  0  0
  -21.6643  -26.7442   22.1215 H   0  0  0  0  0  0
  -19.6894  -25.6297   21.1247 H   0  0  0  0  0  0
  -19.6670  -27.3206   20.6737 H   0  0  0  0  0  0
  -17.4173  -26.6684   21.4031 H   0  0  0  0  0  0
  -18.0315  -26.0074   22.9024 H   0  0  0  0  0  0
  -19.7939  -30.7251   24.2320 H   0  0  0  0  0  0
  -17.5023  -31.6278   24.5153 H   0  0  0  0  0  0
  -15.5357  -30.3010   23.7628 H   0  0  0  0  0  0
  -15.8666  -28.0825   22.7076 H   0  0  0  0  0  0
  -24.5816  -30.7194   25.7822 H   0  0  0  0  0  0
  -24.9005  -32.2933   26.5003 H   0  0  0  0  0  0
  -25.8048  -30.8841   27.0218 H   0  0  0  0  0  0
  -26.2838  -29.6827   24.1168 H   0  0  0  0  0  0
  -27.4021  -29.7280   25.4601 H   0  0  0  0  0  0
  -27.8686  -30.4358   23.9314 H   0  0  0  0  0  0
  -27.2682  -33.3625   26.2083 H   0  0  0  0  0  0
  -28.3835  -32.6902   25.0286 H   0  0  0  0  0  0
  -28.0746  -31.8445   26.5378 H   0  0  0  0  0  0
  -28.2588  -38.0109   24.7531 H   0  0  0  0  0  0
  -28.1091  -36.2642   24.6246 H   0  0  0  0  0  0
  -27.2315  -37.1431   25.8870 H   0  0  0  0  0  0
  -20.9301  -29.8782   21.6963 H   0  0  0  0  0  0
  -26.0177  -38.2874   24.1419 H   0  0  0  0  0  0
  -29.5843  -17.9650   17.0581 H   0  0  0  0  0  0
  -29.7365  -15.8674   18.2762 H   0  0  0  0  0  0
  -29.8493  -18.0209   22.0235 H   0  0  0  0  0  0
  -29.8843  -20.2792   16.9245 H   0  0  0  0  0  0
  -30.3727  -21.2295   18.3125 H   0  0  0  0  0  0
  -28.6478  -20.9577   17.9726 H   0  0  0  0  0  0
  -29.8823  -24.0210   17.7647 H   0  0  0  0  0  0
  -28.7464  -25.3570   17.5194 H   0  0  0  0  0  0
  -28.4328  -23.7754   16.7862 H   0  0  0  0  0  0
  -27.5881  -22.8804   21.6756 H   0  0  0  0  0  0
  -29.2588  -23.0393   22.1023 H   0  0  0  0  0  0
  -28.6891  -25.5581   21.8619 H   0  0  0  0  0  0
  -27.1330  -25.2380   21.1883 H   0  0  0  0  0  0
  -29.7907  -24.2449   20.0809 H   0  0  0  0  0  0
  -31.2429  -20.0210   22.1940 H   0  0  0  0  0  0
  -30.5479  -21.5592   22.5611 H   0  0  0  0  0  0
  -29.1187  -15.2886   21.4927 H   0  0  0  0  0  0
  -28.1442  -21.2386   19.9735 H   0  0  0  0  0  0
  1 25  1  0  0  0
  1 30  2  0  0  0
  1 85  1  0  0  0
  2  3  1  0  0  0
  2 25  1  0  0  0
  2 88  1  0  0  0
  2 89  1  0  0  0
  3  4  1  0  0  0
  3 90  1  0  0  0
  3 91  1  0  0  0
  4  5  1  0  0  0
  4 92  1  0  0  0
  4 93  1  0  0  0
  5  6  1  0  0  0
  5 26  1  0  0  0
  5 94  1  0  0  0
  6 25  1  0  0  0
  6 95  1  0  0  0
  6 96  1  0  0  0
  7  8  2  0  0  0
  7 26  1  0  0  0
  7 29  1  0  0  0
  8  9  1  0  0  0
  8 22  1  0  0  0
  9 10  1  0  0  0
  9 27  2  0  0  0
 10 11  2  0  0  0
 10 15  1  0  0  0
 11 12  1  0  0  0
 11 97  1  0  0  0
 12 13  2  0  0  0
 12 98  1  0  0  0
 13 14  1  0  0  0
 13 31  1  0  0  0
 14 15  2  0  0  0
 14 99  1  0  0  0
 15100  1  0  0  0
 16 17  2  0  0  0
 16 21  1  0  0  0
 16 31  1  0  0  0
 17 18  1  0  0  0
 17101  1  0  0  0
 18 19  2  0  0  0
 18102  1  0  0  0
 19 20  1  0  0  0
 19 24  1  0  0  0
 20 21  2  0  0  0
 20103  1  0  0  0
 21 23  1  0  0  0
 22 28  1  0  0  0
 22 32  2  0  0  0
 26 27  1  0  0  0
 28104  1  0  0  0
 28105  1  0  0  0
 29106  1  0  0  0
 29107  1  0  0  0
 33 34  1  0  0  0
 33 66  1  0  0  0
 33 70  2  0  0  0
 34 36  1  0  0  0
 34 59  1  0  0  0
 34108  1  0  0  0
 35 44  2  0  0  0
 35 45  1  0  0  0
 35 68  1  0  0  0
 36 56  1  0  0  0
 36109  1  0  0  0
 37 39  1  0  0  0
 37 47  1  0  0  0
 37 66  1  0  0  0
 37110  1  0  0  0
 38 43  2  0  0  0
 38 46  1  0  0  0
 38 47  1  0  0  0
 39 64  1  0  0  0
 39 67  2  0  0  0
 40 52  1  0  0  0
 40 53  2  0  0  0
 40 58  1  0  0  0
 41111  1  0  0  0
 41112  1  0  0  0
 41113  1  0  0  0
 41 48  1  0  0  0
 42 43  1  0  0  0
 42 66  1  0  0  0
 42114  1  0  0  0
 42115  1  0  0  0
 43 44  1  0  0  0
 44116  1  0  0  0
 45 46  2  0  0  0
 45117  1  0  0  0
 46118  1  0  0  0
 47119  1  0  0  0
 47120  1  0  0  0
 48 56  1  0  0  0
 48 65  1  0  0  0
 48121  1  0  0  0
 49 50  1  0  0  0
 49 53  1  0  0  0
 49 64  1  0  0  0
 49122  1  0  0  0
 50 51  1  0  0  0
 50123  1  0  0  0
 50124  1  0  0  0
 51 52  1  0  0  0
 51125  1  0  0  0
 51126  1  0  0  0
 52127  1  0  0  0
 52128  1  0  0  0
 53 54  1  0  0  0
 54 55  2  0  0  0
 54129  1  0  0  0
 55 57  1  0  0  0
 55130  1  0  0  0
 56 69  2  0  0  0
 57 58  2  0  0  0
 57131  1  0  0  0
 58132  1  0  0  0
 59 60  1  0  0  0
 59 61  1  0  0  0
 59 62  1  0  0  0
 60133  1  0  0  0
 60134  1  0  0  0
 60135  1  0  0  0
 61136  1  0  0  0
 61137  1  0  0  0
 61138  1  0  0  0
 62139  1  0  0  0
 62140  1  0  0  0
 62141  1  0  0  0
 63 65  1  0  0  0
 63142  1  0  0  0
 63143  1  0  0  0
 63144  1  0  0  0
 64145  1  0  0  0
 65146  1  0  0  0
 68 82  1  0  0  0
 71 72  2  0  0  0
 71 75  1  0  0  0
 71147  1  0  0  0
 72 76  1  0  0  0
 72148  1  0  0  0
 73 74  1  0  0  0
 73 76  2  0  0  0
 73149  1  0  0  0
 74 75  2  0  0  0
 74 77  1  0  0  0
 75 79  1  0  0  0
 76 85  1  0  0  0
 77 84  1  0  0  0
 77 86  2  0  0  0
 78 80  1  0  0  0
 78 83  1  0  0  0
 78 87  2  0  0  0
 79150  1  0  0  0
 79151  1  0  0  0
 79152  1  0  0  0
 80153  1  0  0  0
 80154  1  0  0  0
 80155  1  0  0  0
 81 86  1  0  0  0
 81156  1  0  0  0
 81157  1  0  0  0
 81 83  1  0  0  0
 82 83  1  0  0  0
 82158  1  0  0  0
 82159  1  0  0  0
 83160  1  0  0  0
 84161  1  0  0  0
 84162  1  0  0  0
 85163  1  0  0  0
 86164  1  0  0  0
M  CHG  1  86   1
M  ISO  4   1 100  68 101  82 101  85 100
M  END
> <chiral flag>
0

> <version>
0

> <s_m_source_file>
/data/baiqing/PycharmProjects/Reinvent-master-3.2/result/LINK_invent/BTK/process_docking_weight1_custom_product_contain_oxygen_bond_distance_aromatic_linkinvent_7_9_3/rearranged_h_0062.sdf

> <i_m_source_file_index>
30

> <r_mmod_Potential_Energy-OPLS-2005>
-202.718383789062

> <r_mmod_Stretch_Energy-OPLS-2005>
45.1626586914062

> <r_mmod_Bend_Energy-OPLS-2005>
102.346076965332

> <r_mmod_Torsional_Energy-OPLS-2005>
249.581024169922

> <r_mmod_Improper_Torsional_Energy-OPLS-2005>
6.601402759552

> <r_mmod_Van_der_Waal_Energy-OPLS-2005>
148.988128662109

> <r_mmod_Electrostatic_Energy-OPLS-2005>
-354.002349853516

> <r_mmod_Solvation_Energy-OPLS-2005>
-418.713806152344

> <b_mmod_Minimization_Converged-OPLS-2005>
0

> <r_mmod_RMS_Derivative-OPLS-2005>
3.07390642166138

$$$$
30
                    3D
 Structure written by MMmdl.
157165  0  0  1  0            999 V2000
  -30.6545  -14.5357   20.5846 C   0  0  0  0  0  0
  -30.4435  -12.3522   19.4197 C   0  0  0  0  0  0
  -29.5029  -12.5152   18.2072 C   0  0  0  0  0  0
  -28.0243  -12.3593   18.6225 C   0  0  0  0  0  0
  -27.6634  -13.2011   19.8735 C   0  0  2  0  0  0
  -28.7077  -12.9830   20.9908 C   0  0  0  0  0  0
  -25.2593  -13.8131   20.5665 C   0  0  0  0  0  0
  -24.1834  -13.0424   20.9174 C   0  0  0  0  0  0
  -24.6382  -11.6894   20.8729 C   0  0  0  0  0  0
  -23.9032  -10.4284   21.0395 C   0  0  0  0  0  0
  -24.3600   -9.4210   21.9171 C   0  0  0  0  0  0
  -23.6291   -8.2240   22.0739 C   0  0  0  0  0  0
  -22.4275   -8.0265   21.3529 C   0  0  0  0  0  0
  -21.9896   -9.0239   20.4635 C   0  0  0  0  0  0
  -22.7210  -10.2125   20.3043 C   0  0  0  0  0  0
  -21.6843   -6.0720   22.5275 C   0  0  0  0  0  0
  -21.4013   -6.5629   23.8217 C   0  0  0  0  0  0
  -21.3657   -5.6787   24.9178 C   0  0  0  0  0  0
  -21.6051   -4.3047   24.7226 C   0  0  0  0  0  0
  -21.8818   -3.8135   23.4346 C   0  0  0  0  0  0
  -21.9195   -4.6954   22.3396 C   0  0  0  0  0  0
  -22.7862  -13.5228   21.1836 C   0  0  0  0  0  0
  -22.1660   -4.2131   21.0984 F   0  0  0  0  0  0
  -21.5632   -3.4540   25.7740 F   0  0  0  0  0  0
  -30.0313  -13.3286   20.4413 N   0  0  0  0  0  0
  -26.3028  -12.9289   20.3352 N   0  0  0  0  0  0
  -25.9308  -11.6458   20.5763 N   0  0  0  0  0  0
  -22.0498  -12.8246   22.0406 N   0  0  0  0  0  0
  -25.4334  -15.1857   20.4069 N   0  0  0  0  0  0
  -31.7858  -14.7593   20.1412 O   0  0  0  0  0  0
  -21.6630   -6.8873   21.4244 O   0  0  0  0  0  0
  -22.3570  -14.5536   20.6676 O   0  0  0  0  0  0
  -24.6223  -31.8640   23.2090 C   0  0  0  0  0  0
  -25.9091  -32.4799   23.8392 C   0  0  1  0  0  0
  -27.2291  -27.3729   20.0900 C   0  0  0  0  0  0
  -25.5932  -33.8600   24.2310 N   0  0  0  0  0  0
  -23.4120  -30.4922   21.5508 C   0  0  2  0  0  0
  -24.8579  -28.9606   20.1103 C   0  0  0  0  0  0
  -22.7445  -29.4653   22.4952 C   0  0  0  0  0  0
  -18.0279  -28.1390   22.8484 C   0  0  0  0  0  0
  -24.1487  -36.7312   23.2635 C   0  0  0  0  0  0
  -25.9508  -30.8079   21.3764 C   0  0  0  0  0  0
  -26.0248  -29.4413   20.7164 C   0  0  0  0  0  0
  -27.2092  -28.6553   20.7069 C   0  0  0  0  0  0
  -26.0372  -26.9424   19.4524 C   0  0  0  0  0  0
  -24.8631  -27.7126   19.4738 C   0  0  0  0  0  0
  -23.6239  -29.8336   20.1634 C   0  0  0  0  0  0
  -25.4107  -36.3096   24.0329 C   0  0  1  0  0  0
  -20.5877  -28.3686   23.1290 C   0  0  2  0  0  0
  -20.6777  -26.9417   22.5406 C   0  0  0  0  0  0
  -19.5757  -26.6387   21.5209 C   0  0  0  0  0  0
  -18.1929  -26.7933   22.1623 C   0  0  0  0  0  0
  -19.1531  -28.8853   23.2887 C   0  0  0  0  0  0
  -18.9458  -30.1457   23.8902 C   0  0  0  0  0  0
  -17.6459  -30.6590   24.0564 C   0  0  0  0  0  0
  -25.9045  -34.9463   23.5109 C   0  0  0  0  0  0
  -16.5348  -29.9088   23.6332 C   0  0  0  0  0  0
  -16.7268  -28.6508   23.0345 C   0  0  0  0  0  0
  -26.4493  -31.6606   25.0750 C   0  0  0  0  0  0
  -25.3746  -31.3738   26.1495 C   0  0  0  0  0  0
  -27.0335  -30.3029   24.6191 C   0  0  0  0  0  0
  -27.6057  -32.4337   25.7516 C   0  0  0  0  0  0
  -27.5578  -37.1808   24.8459 C   0  0  0  0  0  0
  -21.4162  -29.3049   22.3693 N   0  0  0  0  0  0
  -26.4287  -37.3786   23.9408 N   0  0  0  0  0  0
  -24.6802  -31.0705   22.1018 N   0  0  0  0  0  0
  -23.4200  -28.8182   23.3000 O   0  0  0  0  0  0
  -28.3692  -26.5642   20.1343 O   0  0  0  0  0  0
  -26.5603  -34.8917   22.4667 O   0  0  0  0  0  0
  -23.5400  -32.1420   23.7444 O   0  0  0  0  0  0
  -30.1708  -18.4105   23.4091 C   0  0  0  0  0  0
  -30.2084  -19.5075   22.5273 C   0  0  0  0  0  0
  -30.1257  -17.0941   22.9113 C   0  0  0  0  0  0
  -30.2029  -17.9632   20.6330 C   0  0  0  0  0  0
  -30.2176  -19.3052   21.1303 C   0  0  0  0  0  0
  -30.1384  -16.8480   21.5217 C   0  0  0  0  0  0
  -30.2761  -20.5007   20.1966 C   0  0  0  0  0  0
  -29.1882  -24.1081   20.2095 C   0  0  0  0  0  0
  -27.7552  -22.3833   18.9527 C   0  0  0  0  0  0
  -28.2223  -25.1970   19.6375 C   0  0  0  0  0  0
  -29.1506  -22.6699   19.5378 C   0  0  2  0  0  0
  -27.6321  -22.3301   17.6311 N   0  0  0  0  0  0
  -29.8592  -15.5069   21.0958 N   0  0  0  0  0  0
  -29.4320  -21.5253   20.4430 N   0  0  0  0  0  0
  -31.0098  -20.4724   19.2082 O   0  0  0  0  0  0
  -29.9591  -24.3888   21.1362 O   0  0  0  0  0  0
  -26.7861  -22.1830   19.6860 O   0  0  0  0  0  0
  -31.4812  -12.4957   19.1135 H   0  0  0  0  0  0
  -30.3880  -11.3391   19.8188 H   0  0  0  0  0  0
  -29.7543  -11.7843   17.4388 H   0  0  0  0  0  0
  -29.6550  -13.4985   17.7592 H   0  0  0  0  0  0
  -27.8495  -11.3023   18.8267 H   0  0  0  0  0  0
  -27.3660  -12.6178   17.7902 H   0  0  0  0  0  0
  -27.7052  -14.2481   19.5728 H   0  0  0  0  0  0
  -28.7060  -11.9395   21.3109 H   0  0  0  0  0  0
  -28.4546  -13.5570   21.8839 H   0  0  0  0  0  0
  -25.2736   -9.5702   22.4749 H   0  0  0  0  0  0
  -23.9992   -7.4636   22.7461 H   0  0  0  0  0  0
  -21.0814   -8.8763   19.8956 H   0  0  0  0  0  0
  -22.3651  -10.9672   19.6159 H   0  0  0  0  0  0
  -21.2008   -7.6142   23.9720 H   0  0  0  0  0  0
  -21.1479   -6.0505   25.9082 H   0  0  0  0  0  0
  -22.0601   -2.7588   23.2846 H   0  0  0  0  0  0
  -22.4085  -11.9915   22.4831 H   0  0  0  0  0  0
  -21.1119  -13.1304   22.2593 H   0  0  0  0  0  0
  -24.6666  -15.8415   20.5081 H   0  0  0  0  0  0
  -26.2876  -15.6231   20.0847 H   0  0  0  0  0  0
  -26.7156  -32.5488   23.1148 H   0  0  0  0  0  0
  -25.0101  -33.9759   25.0469 H   0  0  0  0  0  0
  -22.7034  -31.3120   21.4131 H   0  0  0  0  0  0
  -23.3739  -35.9656   23.3293 H   0  0  0  0  0  0
  -24.3583  -36.8938   22.2050 H   0  0  0  0  0  0
  -23.7255  -37.6518   23.6657 H   0  0  0  0  0  0
  -26.0776  -31.5741   20.6111 H   0  0  0  0  0  0
  -26.8330  -30.8540   22.0025 H   0  0  0  0  0  0
  -28.1039  -29.0213   21.1912 H   0  0  0  0  0  0
  -25.9666  -26.0066   18.9195 H   0  0  0  0  0  0
  -23.9691  -27.3431   18.9879 H   0  0  0  0  0  0
  -23.7377  -30.6129   19.4085 H   0  0  0  0  0  0
  -22.7450  -29.2602   19.8619 H   0  0  0  0  0  0
  -25.1284  -36.1945   25.0819 H   0  0  0  0  0  0
  -20.9971  -28.3255   24.1413 H   0  0  0  0  0  0
  -20.5690  -26.2295   23.3596 H   0  0  0  0  0  0
  -21.6642  -26.7467   22.1191 H   0  0  0  0  0  0
  -19.6918  -25.6295   21.1243 H   0  0  0  0  0  0
  -19.6695  -27.3191   20.6731 H   0  0  0  0  0  0
  -17.4201  -26.6673   21.4019 H   0  0  0  0  0  0
  -18.0342  -26.0077   22.9022 H   0  0  0  0  0  0
  -19.7931  -30.7271   24.2274 H   0  0  0  0  0  0
  -17.5014  -31.6272   24.5165 H   0  0  0  0  0  0
  -15.5347  -30.2995   23.7660 H   0  0  0  0  0  0
  -15.8667  -28.0838   22.7053 H   0  0  0  0  0  0
  -24.5875  -30.7142   25.7819 H   0  0  0  0  0  0
  -24.9003  -32.2920   26.4971 H   0  0  0  0  0  0
  -25.8089  -30.8859   27.0235 H   0  0  0  0  0  0
  -26.2907  -29.6782   24.1213 H   0  0  0  0  0  0
  -27.4032  -29.7279   25.4696 H   0  0  0  0  0  0
  -27.8780  -30.4307   23.9411 H   0  0  0  0  0  0
  -27.2646  -33.3601   26.2141 H   0  0  0  0  0  0
  -28.3842  -32.6959   25.0341 H   0  0  0  0  0  0
  -28.0760  -31.8448   26.5400 H   0  0  0  0  0  0
  -28.2586  -38.0109   24.7506 H   0  0  0  0  0  0
  -28.1078  -36.2646   24.6275 H   0  0  0  0  0  0
  -27.2305  -37.1448   25.8862 H   0  0  0  0  0  0
  -20.9329  -29.8788   21.6922 H   0  0  0  0  0  0
  -26.0167  -38.2859   24.1409 H   0  0  0  0  0  0
  -30.1521  -18.5812   24.4766 H   0  0  0  0  0  0
  -30.2349  -20.5123   22.9324 H   0  0  0  0  0  0
  -30.0493  -16.2727   23.6117 H   0  0  0  0  0  0
  -30.1793  -17.8020   19.5638 H   0  0  0  0  0  0
  -27.2393  -24.8239   19.9153 H   0  0  0  0  0  0
  -28.2852  -25.2021   18.5499 H   0  0  0  0  0  0
  -29.8794  -22.6800   18.7260 H   0  0  0  0  0  0
  -28.4370  -22.4517   17.0310 H   0  0  0  0  0  0
  -26.7396  -22.1157   17.2123 H   0  0  0  0  0  0
  -28.9628  -15.1528   21.3915 H   0  0  0  0  0  0
  -28.8170  -21.4381   21.2394 H   0  0  0  0  0  0
  1 25  1  0  0  0
  1 30  2  0  0  0
  1 83  1  0  0  0
  2  3  1  0  0  0
  2 25  1  0  0  0
  2 88  1  0  0  0
  2 89  1  0  0  0
  3  4  1  0  0  0
  3 90  1  0  0  0
  3 91  1  0  0  0
  4  5  1  0  0  0
  4 92  1  0  0  0
  4 93  1  0  0  0
  5  6  1  0  0  0
  5 26  1  0  0  0
  5 94  1  0  0  0
  6 25  1  0  0  0
  6 95  1  0  0  0
  6 96  1  0  0  0
  7  8  2  0  0  0
  7 26  1  0  0  0
  7 29  1  0  0  0
  8  9  1  0  0  0
  8 22  1  0  0  0
  9 10  1  0  0  0
  9 27  2  0  0  0
 10 11  2  0  0  0
 10 15  1  0  0  0
 11 12  1  0  0  0
 11 97  1  0  0  0
 12 13  2  0  0  0
 12 98  1  0  0  0
 13 14  1  0  0  0
 13 31  1  0  0  0
 14 15  2  0  0  0
 14 99  1  0  0  0
 15100  1  0  0  0
 16 17  2  0  0  0
 16 21  1  0  0  0
 16 31  1  0  0  0
 17 18  1  0  0  0
 17101  1  0  0  0
 18 19  2  0  0  0
 18102  1  0  0  0
 19 20  1  0  0  0
 19 24  1  0  0  0
 20 21  2  0  0  0
 20103  1  0  0  0
 21 23  1  0  0  0
 22 28  1  0  0  0
 22 32  2  0  0  0
 26 27  1  0  0  0
 28104  1  0  0  0
 28105  1  0  0  0
 29106  1  0  0  0
 29107  1  0  0  0
 33 34  1  0  0  0
 33 66  1  0  0  0
 33 70  2  0  0  0
 34 36  1  0  0  0
 34 59  1  0  0  0
 34108  1  0  0  0
 35 44  2  0  0  0
 35 45  1  0  0  0
 35 68  1  0  0  0
 36 56  1  0  0  0
 36109  1  0  0  0
 37 39  1  0  0  0
 37 47  1  0  0  0
 37 66  1  0  0  0
 37110  1  0  0  0
 38 43  2  0  0  0
 38 46  1  0  0  0
 38 47  1  0  0  0
 39 64  1  0  0  0
 39 67  2  0  0  0
 40 52  1  0  0  0
 40 53  2  0  0  0
 40 58  1  0  0  0
 41111  1  0  0  0
 41112  1  0  0  0
 41113  1  0  0  0
 41 48  1  0  0  0
 42 43  1  0  0  0
 42 66  1  0  0  0
 42114  1  0  0  0
 42115  1  0  0  0
 43 44  1  0  0  0
 44116  1  0  0  0
 45 46  2  0  0  0
 45117  1  0  0  0
 46118  1  0  0  0
 47119  1  0  0  0
 47120  1  0  0  0
 48 56  1  0  0  0
 48 65  1  0  0  0
 48121  1  0  0  0
 49 50  1  0  0  0
 49 53  1  0  0  0
 49 64  1  0  0  0
 49122  1  0  0  0
 50 51  1  0  0  0
 50123  1  0  0  0
 50124  1  0  0  0
 51 52  1  0  0  0
 51125  1  0  0  0
 51126  1  0  0  0
 52127  1  0  0  0
 52128  1  0  0  0
 53 54  1  0  0  0
 54 55  2  0  0  0
 54129  1  0  0  0
 55 57  1  0  0  0
 55130  1  0  0  0
 56 69  2  0  0  0
 57 58  2  0  0  0
 57131  1  0  0  0
 58132  1  0  0  0
 59 60  1  0  0  0
 59 61  1  0  0  0
 59 62  1  0  0  0
 60133  1  0  0  0
 60134  1  0  0  0
 60135  1  0  0  0
 61136  1  0  0  0
 61137  1  0  0  0
 61138  1  0  0  0
 62139  1  0  0  0
 62140  1  0  0  0
 62141  1  0  0  0
 63 65  1  0  0  0
 63142  1  0  0  0
 63143  1  0  0  0
 63144  1  0  0  0
 64145  1  0  0  0
 65146  1  0  0  0
 68 80  1  0  0  0
 71 72  2  0  0  0
 71 73  1  0  0  0
 71147  1  0  0  0
 72 75  1  0  0  0
 72148  1  0  0  0
 73 76  2  0  0  0
 73149  1  0  0  0
 74 75  2  0  0  0
 74 76  1  0  0  0
 74150  1  0  0  0
 75 77  1  0  0  0
 76 83  1  0  0  0
 77 84  1  0  0  0
 77 85  2  0  0  0
 78 80  1  0  0  0
 78 81  1  0  0  0
 78 86  2  0  0  0
 79 81  1  0  0  0
 79 82  1  0  0  0
 79 87  2  0  0  0
 80151  1  0  0  0
 80152  1  0  0  0
 81 84  1  0  0  0
 81153  1  0  0  0
 82154  1  0  0  0
 82155  1  0  0  0
 83156  1  0  0  0
 84157  1  0  0  0
M  ISO  4   1 100  68 101  80 101  83 100
M  END
> <chiral flag>
0

> <version>
0

> <s_m_source_file>
/data/baiqing/PycharmProjects/Reinvent-master-3.2/result/LINK_invent/BTK/process_docking_weight1_custom_product_contain_oxygen_bond_distance_aromatic_linkinvent_7_9_3/rearranged_h_0062.sdf

> <i_m_source_file_index>
31

> <r_mmod_Potential_Energy-OPLS-2005>
-300.380035400391

> <r_mmod_Stretch_Energy-OPLS-2005>
55.5479049682617

> <r_mmod_Bend_Energy-OPLS-2005>
116.622550964355

> <r_mmod_Torsional_Energy-OPLS-2005>
222.718780517578

> <r_mmod_Improper_Torsional_Energy-OPLS-2005>
6.48806571960449

> <r_mmod_Van_der_Waal_Energy-OPLS-2005>
157.948089599609

> <r_mmod_Electrostatic_Energy-OPLS-2005>
-595.563354492188

> <r_mmod_Solvation_Energy-OPLS-2005>
-289.631896972656

> <b_mmod_Minimization_Converged-OPLS-2005>
0

> <r_mmod_RMS_Derivative-OPLS-2005>
2.56489539146423

$$$$
31
                    3D
 Structure written by MMmdl.
156164  0  0  1  0            999 V2000
  -30.7497  -14.4812   20.6642 C   0  0  0  0  0  0
  -30.4247  -12.3456   19.4415 C   0  0  0  0  0  0
  -29.5031  -12.5431   18.2222 C   0  0  0  0  0  0
  -28.0291  -12.3698   18.6274 C   0  0  0  0  0  0
  -27.6617  -13.2182   19.8758 C   0  0  2  0  0  0
  -28.7004  -13.0213   21.0064 C   0  0  0  0  0  0
  -25.2573  -13.8194   20.5741 C   0  0  0  0  0  0
  -24.1821  -13.0467   20.9188 C   0  0  0  0  0  0
  -24.6377  -11.6943   20.8686 C   0  0  0  0  0  0
  -23.9058  -10.4313   21.0385 C   0  0  0  0  0  0
  -24.3613   -9.4233   21.9173 C   0  0  0  0  0  0
  -23.6280   -8.2274   22.0758 C   0  0  0  0  0  0
  -22.4259   -8.0307   21.3558 C   0  0  0  0  0  0
  -21.9898   -9.0285   20.4671 C   0  0  0  0  0  0
  -22.7226  -10.2160   20.3057 C   0  0  0  0  0  0
  -21.6858   -6.0742   22.5278 C   0  0  0  0  0  0
  -21.4017   -6.5629   23.8212 C   0  0  0  0  0  0
  -21.3670   -5.6775   24.9169 C   0  0  0  0  0  0
  -21.6055   -4.3036   24.7214 C   0  0  0  0  0  0
  -21.8823   -3.8135   23.4323 C   0  0  0  0  0  0
  -21.9192   -4.6969   22.3390 C   0  0  0  0  0  0
  -22.7844  -13.5285   21.1816 C   0  0  0  0  0  0
  -22.1662   -4.2164   21.0961 F   0  0  0  0  0  0
  -21.5635   -3.4536   25.7727 F   0  0  0  0  0  0
  -30.0395  -13.3268   20.4739 N   0  0  0  0  0  0
  -26.3013  -12.9379   20.3374 N   0  0  0  0  0  0
  -25.9295  -11.6534   20.5704 N   0  0  0  0  0  0
  -22.0436  -12.8324   22.0375 N   0  0  0  0  0  0
  -25.4265  -15.1925   20.4253 N   0  0  0  0  0  0
  -31.8309  -14.6843   20.1068 O   0  0  0  0  0  0
  -21.6628   -6.8898   21.4244 O   0  0  0  0  0  0
  -22.3546  -14.5596   20.6652 O   0  0  0  0  0  0
  -24.6188  -31.8678   23.2097 C   0  0  0  0  0  0
  -25.9084  -32.4822   23.8391 C   0  0  1  0  0  0
  -27.2310  -27.3978   20.1164 C   0  0  0  0  0  0
  -25.5942  -33.8617   24.2334 N   0  0  0  0  0  0
  -23.4060  -30.4916   21.5520 C   0  0  2  0  0  0
  -24.8516  -28.9592   20.1120 C   0  0  0  0  0  0
  -22.7443  -29.4665   22.4993 C   0  0  0  0  0  0
  -18.0282  -28.1380   22.8509 C   0  0  0  0  0  0
  -24.1482  -36.7300   23.2638 C   0  0  0  0  0  0
  -25.9375  -30.8271   21.3614 C   0  0  0  0  0  0
  -26.0161  -29.4604   20.7091 C   0  0  0  0  0  0
  -27.2054  -28.6896   20.7045 C   0  0  0  0  0  0
  -26.0437  -26.9331   19.4980 C   0  0  0  0  0  0
  -24.8645  -27.6959   19.5024 C   0  0  0  0  0  0
  -23.6158  -29.8282   20.1650 C   0  0  0  0  0  0
  -25.4105  -36.3108   24.0348 C   0  0  1  0  0  0
  -20.5885  -28.3664   23.1309 C   0  0  2  0  0  0
  -20.6767  -26.9400   22.5419 C   0  0  0  0  0  0
  -19.5751  -26.6386   21.5204 C   0  0  0  0  0  0
  -18.1927  -26.7906   22.1634 C   0  0  0  0  0  0
  -19.1536  -28.8840   23.2909 C   0  0  0  0  0  0
  -18.9458  -30.1441   23.8900 C   0  0  0  0  0  0
  -17.6455  -30.6573   24.0570 C   0  0  0  0  0  0
  -25.9034  -34.9479   23.5127 C   0  0  0  0  0  0
  -16.5356  -29.9084   23.6327 C   0  0  0  0  0  0
  -16.7271  -28.6498   23.0331 C   0  0  0  0  0  0
  -26.4481  -31.6594   25.0717 C   0  0  0  0  0  0
  -25.3741  -31.3721   26.1473 C   0  0  0  0  0  0
  -27.0300  -30.3042   24.6051 C   0  0  0  0  0  0
  -27.6060  -32.4303   25.7471 C   0  0  0  0  0  0
  -27.5571  -37.1815   24.8465 C   0  0  0  0  0  0
  -21.4169  -29.3048   22.3738 N   0  0  0  0  0  0
  -26.4296  -37.3798   23.9420 N   0  0  0  0  0  0
  -24.6738  -31.0777   22.0991 N   0  0  0  0  0  0
  -23.4207  -28.8200   23.3046 O   0  0  0  0  0  0
  -28.3787  -26.6111   20.1845 O   0  0  0  0  0  0
  -26.5582  -34.8936   22.4679 O   0  0  0  0  0  0
  -23.5392  -32.1452   23.7494 O   0  0  0  0  0  0
  -29.8519  -17.8895   21.3257 C   0  0  0  0  0  0
  -31.9072  -17.0175   22.2747 C   0  0  0  0  0  0
  -30.2690  -19.2460   21.5203 C   0  0  0  0  0  0
  -30.6555  -16.7714   21.6686 C   0  0  0  0  0  0
  -31.5407  -19.4516   22.1391 C   0  0  0  0  0  0
  -32.3364  -18.3412   22.5072 C   0  0  0  0  0  0
  -29.3155  -20.3566   21.0737 C   0  0  0  0  0  0
  -29.2748  -24.2220   20.6360 C   0  0  0  0  0  0
  -28.8478  -22.7259   20.4504 C   0  0  0  0  0  0
  -28.1929  -25.1776   20.0351 C   0  0  0  0  0  0
  -32.0839  -20.7127   22.4238 N   0  0  0  0  0  0
  -30.1802  -15.4293   21.4486 N   0  0  0  0  0  0
  -29.7296  -21.6457   20.9652 N   0  0  0  0  0  0
  -28.1573  -20.0538   20.7664 O   0  0  0  0  0  0
  -33.5370  -18.5523   23.1033 F   0  0  0  0  0  0
  -31.4705  -12.4415   19.1432 H   0  0  0  0  0  0
  -30.3216  -11.3353   19.8386 H   0  0  0  0  0  0
  -29.7568  -11.8374   17.4330 H   0  0  0  0  0  0
  -29.6508  -13.5399   17.8026 H   0  0  0  0  0  0
  -27.8597  -11.3114   18.8376 H   0  0  0  0  0  0
  -27.3726  -12.6221   17.7939 H   0  0  0  0  0  0
  -27.7015  -14.2637   19.5677 H   0  0  0  0  0  0
  -28.6713  -11.9897   21.3658 H   0  0  0  0  0  0
  -28.4423  -13.6365   21.8687 H   0  0  0  0  0  0
  -25.2778   -9.5720   22.4742 H   0  0  0  0  0  0
  -24.0013   -7.4664   22.7476 H   0  0  0  0  0  0
  -21.0838   -8.8805   19.8969 H   0  0  0  0  0  0
  -22.3683  -10.9701   19.6164 H   0  0  0  0  0  0
  -21.2000   -7.6135   23.9732 H   0  0  0  0  0  0
  -21.1488   -6.0484   25.9079 H   0  0  0  0  0  0
  -22.0579   -2.7599   23.2801 H   0  0  0  0  0  0
  -22.4013  -12.0016   22.4850 H   0  0  0  0  0  0
  -21.1073  -13.1411   22.2567 H   0  0  0  0  0  0
  -24.6622  -15.8460   20.5620 H   0  0  0  0  0  0
  -26.2901  -15.6424   20.1466 H   0  0  0  0  0  0
  -26.7141  -32.5505   23.1151 H   0  0  0  0  0  0
  -25.0152  -33.9756   25.0514 H   0  0  0  0  0  0
  -22.6942  -31.3096   21.4132 H   0  0  0  0  0  0
  -23.3737  -35.9633   23.3310 H   0  0  0  0  0  0
  -24.3581  -36.8905   22.2047 H   0  0  0  0  0  0
  -23.7227  -37.6514   23.6619 H   0  0  0  0  0  0
  -26.0418  -31.5912   20.5915 H   0  0  0  0  0  0
  -26.8268  -30.8864   21.9764 H   0  0  0  0  0  0
  -28.0958  -29.0676   21.1844 H   0  0  0  0  0  0
  -25.9976  -25.9637   19.0208 H   0  0  0  0  0  0
  -23.9691  -27.2945   19.0459 H   0  0  0  0  0  0
  -23.7256  -30.6030   19.4053 H   0  0  0  0  0  0
  -22.7364  -29.2519   19.8669 H   0  0  0  0  0  0
  -25.1273  -36.1989   25.0840 H   0  0  0  0  0  0
  -20.9967  -28.3224   24.1449 H   0  0  0  0  0  0
  -20.5657  -26.2282   23.3606 H   0  0  0  0  0  0
  -21.6640  -26.7449   22.1215 H   0  0  0  0  0  0
  -19.6905  -25.6308   21.1239 H   0  0  0  0  0  0
  -19.6651  -27.3202   20.6737 H   0  0  0  0  0  0
  -17.4196  -26.6657   21.4055 H   0  0  0  0  0  0
  -18.0344  -26.0035   22.9024 H   0  0  0  0  0  0
  -19.7938  -30.7265   24.2256 H   0  0  0  0  0  0
  -17.4997  -31.6227   24.5208 H   0  0  0  0  0  0
  -15.5346  -30.2959   23.7611 H   0  0  0  0  0  0
  -15.8687  -28.0818   22.7021 H   0  0  0  0  0  0
  -24.5914  -30.7056   25.7817 H   0  0  0  0  0  0
  -24.8918  -32.2867   26.4906 H   0  0  0  0  0  0
  -25.8117  -30.8912   27.0222 H   0  0  0  0  0  0
  -26.2820  -29.6827   24.1096 H   0  0  0  0  0  0
  -27.4072  -29.7276   25.4495 H   0  0  0  0  0  0
  -27.8646  -30.4377   23.9179 H   0  0  0  0  0  0
  -27.2693  -33.3606   26.2055 H   0  0  0  0  0  0
  -28.3859  -32.6867   25.0287 H   0  0  0  0  0  0
  -28.0699  -31.8406   26.5384 H   0  0  0  0  0  0
  -28.2618  -38.0085   24.7509 H   0  0  0  0  0  0
  -28.1060  -36.2631   24.6295 H   0  0  0  0  0  0
  -27.2302  -37.1473   25.8876 H   0  0  0  0  0  0
  -20.9329  -29.8814   21.6993 H   0  0  0  0  0  0
  -26.0187  -38.2884   24.1407 H   0  0  0  0  0  0
  -28.8839  -17.7009   20.8842 H   0  0  0  0  0  0
  -32.5440  -16.2010   22.5818 H   0  0  0  0  0  0
  -30.2422  -24.4084   20.1639 H   0  0  0  0  0  0
  -29.3882  -24.4388   21.6990 H   0  0  0  0  0  0
  -28.6815  -22.5429   19.3855 H   0  0  0  0  0  0
  -27.8724  -22.6135   20.9277 H   0  0  0  0  0  0
  -27.2544  -24.8896   20.5102 H   0  0  0  0  0  0
  -28.0895  -24.9610   18.9706 H   0  0  0  0  0  0
  -31.5528  -21.2619   23.0910 H   0  0  0  0  0  0
  -33.0282  -20.6262   22.7861 H   0  0  0  0  0  0
  -29.2670  -15.2040   21.8111 H   0  0  0  0  0  0
  -30.6983  -21.8369   21.2083 H   0  0  0  0  0  0
  1 25  1  0  0  0
  1 30  2  0  0  0
  1 82  1  0  0  0
  2  3  1  0  0  0
  2 25  1  0  0  0
  2 86  1  0  0  0
  2 87  1  0  0  0
  3  4  1  0  0  0
  3 88  1  0  0  0
  3 89  1  0  0  0
  4  5  1  0  0  0
  4 90  1  0  0  0
  4 91  1  0  0  0
  5  6  1  0  0  0
  5 26  1  0  0  0
  5 92  1  0  0  0
  6 25  1  0  0  0
  6 93  1  0  0  0
  6 94  1  0  0  0
  7  8  2  0  0  0
  7 26  1  0  0  0
  7 29  1  0  0  0
  8  9  1  0  0  0
  8 22  1  0  0  0
  9 10  1  0  0  0
  9 27  2  0  0  0
 10 11  2  0  0  0
 10 15  1  0  0  0
 11 12  1  0  0  0
 11 95  1  0  0  0
 12 13  2  0  0  0
 12 96  1  0  0  0
 13 14  1  0  0  0
 13 31  1  0  0  0
 14 15  2  0  0  0
 14 97  1  0  0  0
 15 98  1  0  0  0
 16 17  2  0  0  0
 16 21  1  0  0  0
 16 31  1  0  0  0
 17 18  1  0  0  0
 17 99  1  0  0  0
 18 19  2  0  0  0
 18100  1  0  0  0
 19 20  1  0  0  0
 19 24  1  0  0  0
 20 21  2  0  0  0
 20101  1  0  0  0
 21 23  1  0  0  0
 22 28  1  0  0  0
 22 32  2  0  0  0
 26 27  1  0  0  0
 28102  1  0  0  0
 28103  1  0  0  0
 29104  1  0  0  0
 29105  1  0  0  0
 33 34  1  0  0  0
 33 66  1  0  0  0
 33 70  2  0  0  0
 34 36  1  0  0  0
 34 59  1  0  0  0
 34106  1  0  0  0
 35 44  2  0  0  0
 35 45  1  0  0  0
 35 68  1  0  0  0
 36 56  1  0  0  0
 36107  1  0  0  0
 37 39  1  0  0  0
 37 47  1  0  0  0
 37 66  1  0  0  0
 37108  1  0  0  0
 38 43  2  0  0  0
 38 46  1  0  0  0
 38 47  1  0  0  0
 39 64  1  0  0  0
 39 67  2  0  0  0
 40 52  1  0  0  0
 40 53  2  0  0  0
 40 58  1  0  0  0
 41109  1  0  0  0
 41110  1  0  0  0
 41111  1  0  0  0
 41 48  1  0  0  0
 42 43  1  0  0  0
 42 66  1  0  0  0
 42112  1  0  0  0
 42113  1  0  0  0
 43 44  1  0  0  0
 44114  1  0  0  0
 45 46  2  0  0  0
 45115  1  0  0  0
 46116  1  0  0  0
 47117  1  0  0  0
 47118  1  0  0  0
 48 56  1  0  0  0
 48 65  1  0  0  0
 48119  1  0  0  0
 49 50  1  0  0  0
 49 53  1  0  0  0
 49 64  1  0  0  0
 49120  1  0  0  0
 50 51  1  0  0  0
 50121  1  0  0  0
 50122  1  0  0  0
 51 52  1  0  0  0
 51123  1  0  0  0
 51124  1  0  0  0
 52125  1  0  0  0
 52126  1  0  0  0
 53 54  1  0  0  0
 54 55  2  0  0  0
 54127  1  0  0  0
 55 57  1  0  0  0
 55128  1  0  0  0
 56 69  2  0  0  0
 57 58  2  0  0  0
 57129  1  0  0  0
 58130  1  0  0  0
 59 60  1  0  0  0
 59 61  1  0  0  0
 59 62  1  0  0  0
 60131  1  0  0  0
 60132  1  0  0  0
 60133  1  0  0  0
 61134  1  0  0  0
 61135  1  0  0  0
 61136  1  0  0  0
 62137  1  0  0  0
 62138  1  0  0  0
 62139  1  0  0  0
 63 65  1  0  0  0
 63140  1  0  0  0
 63141  1  0  0  0
 63142  1  0  0  0
 64143  1  0  0  0
 65144  1  0  0  0
 68 80  1  0  0  0
 71 73  2  0  0  0
 71 74  1  0  0  0
 71145  1  0  0  0
 72 74  2  0  0  0
 72 76  1  0  0  0
 72146  1  0  0  0
 73 75  1  0  0  0
 73 77  1  0  0  0
 74 82  1  0  0  0
 75 76  2  0  0  0
 75 81  1  0  0  0
 76 85  1  0  0  0
 77 83  1  0  0  0
 77 84  2  0  0  0
 78 79  1  0  0  0
 78 80  1  0  0  0
 78147  1  0  0  0
 78148  1  0  0  0
 79 83  1  0  0  0
 79149  1  0  0  0
 79150  1  0  0  0
 80151  1  0  0  0
 80152  1  0  0  0
 81153  1  0  0  0
 81154  1  0  0  0
 82155  1  0  0  0
 83156  1  0  0  0
M  ISO  4   1 100  68 101  80 101  82 100
M  END
> <chiral flag>
0

> <version>
0

> <s_m_source_file>
/data/baiqing/PycharmProjects/Reinvent-master-3.2/result/LINK_invent/BTK/process_docking_weight1_custom_product_contain_oxygen_bond_distance_aromatic_linkinvent_7_9_3/rearranged_h_0062.sdf

> <i_m_source_file_index>
32

> <r_mmod_Potential_Energy-OPLS-2005>
-12.8093204498291

> <r_mmod_Stretch_Energy-OPLS-2005>
53.3486137390137

> <r_mmod_Bend_Energy-OPLS-2005>
118.488121032715

> <r_mmod_Torsional_Energy-OPLS-2005>
239.851821899414

> <r_mmod_Improper_Torsional_Energy-OPLS-2005>
8.40172672271729

> <r_mmod_Van_der_Waal_Energy-OPLS-2005>
167.666915893555

> <r_mmod_Electrostatic_Energy-OPLS-2005>
-391.244659423828

> <r_mmod_Solvation_Energy-OPLS-2005>
-227.842102050781

> <b_mmod_Minimization_Converged-OPLS-2005>
0

> <r_mmod_RMS_Derivative-OPLS-2005>
5.59879779815674

$$$$
32
                    3D
 Structure written by MMmdl.
167176  0  0  1  0            999 V2000
  -30.6161  -14.7602   20.4986 C   0  0  0  0  0  0
  -30.4436  -12.4739   19.4659 C   0  0  0  0  0  0
  -29.5120  -12.5044   18.2340 C   0  0  0  0  0  0
  -28.0401  -12.3215   18.6537 C   0  0  0  0  0  0
  -27.6435  -13.2294   19.8477 C   0  0  2  0  0  0
  -28.6901  -13.1751   20.9809 C   0  0  0  0  0  0
  -25.2523  -13.8192   20.5660 C   0  0  0  0  0  0
  -24.1810  -13.0434   20.9202 C   0  0  0  0  0  0
  -24.6413  -11.6915   20.8764 C   0  0  0  0  0  0
  -23.9077  -10.4299   21.0416 C   0  0  0  0  0  0
  -24.3625   -9.4218   21.9196 C   0  0  0  0  0  0
  -23.6303   -8.2252   22.0763 C   0  0  0  0  0  0
  -22.4284   -8.0301   21.3542 C   0  0  0  0  0  0
  -21.9925   -9.0275   20.4635 C   0  0  0  0  0  0
  -22.7254  -10.2140   20.3062 C   0  0  0  0  0  0
  -21.6854   -6.0736   22.5290 C   0  0  0  0  0  0
  -21.3999   -6.5654   23.8219 C   0  0  0  0  0  0
  -21.3663   -5.6784   24.9180 C   0  0  0  0  0  0
  -21.6043   -4.3052   24.7225 C   0  0  0  0  0  0
  -21.8822   -3.8154   23.4346 C   0  0  0  0  0  0
  -21.9185   -4.6963   22.3386 C   0  0  0  0  0  0
  -22.7834  -13.5232   21.1861 C   0  0  0  0  0  0
  -22.1664   -4.2160   21.0965 F   0  0  0  0  0  0
  -21.5629   -3.4537   25.7737 F   0  0  0  0  0  0
  -29.9857  -13.5369   20.3903 N   0  0  0  0  0  0
  -26.2959  -12.9400   20.3258 N   0  0  0  0  0  0
  -25.9347  -11.6548   20.5749 N   0  0  0  0  0  0
  -22.0465  -12.8217   22.0409 N   0  0  0  0  0  0
  -25.4170  -15.1897   20.4033 N   0  0  0  0  0  0
  -31.8195  -14.8536   20.2433 O   0  0  0  0  0  0
  -21.6643   -6.8896   21.4248 O   0  0  0  0  0  0
  -22.3518  -14.5537   20.6713 O   0  0  0  0  0  0
  -24.6344  -31.8524   23.1946 C   0  0  0  0  0  0
  -25.9169  -32.4735   23.8314 C   0  0  1  0  0  0
  -27.2436  -27.2489   20.1400 C   0  0  0  0  0  0
  -25.5957  -33.8523   24.2233 N   0  0  0  0  0  0
  -23.4345  -30.4673   21.5369 C   0  0  2  0  0  0
  -24.8859  -28.9099   20.1124 C   0  0  0  0  0  0
  -22.7527  -29.4544   22.4889 C   0  0  0  0  0  0
  -18.0277  -28.1369   22.8461 C   0  0  0  0  0  0
  -24.1495  -36.7272   23.2639 C   0  0  0  0  0  0
  -25.9793  -30.7579   21.3800 C   0  0  0  0  0  0
  -26.0564  -29.3767   20.7249 C   0  0  0  0  0  0
  -27.2364  -28.5610   20.7254 C   0  0  0  0  0  0
  -26.0434  -26.8468   19.5065 C   0  0  0  0  0  0
  -24.8838  -27.6512   19.4938 C   0  0  0  0  0  0
  -23.6576  -29.8004   20.1540 C   0  0  0  0  0  0
  -25.4122  -36.3045   24.0319 C   0  0  1  0  0  0
  -20.5883  -28.3673   23.1242 C   0  0  2  0  0  0
  -20.6782  -26.9386   22.5397 C   0  0  0  0  0  0
  -19.5786  -26.6364   21.5183 C   0  0  0  0  0  0
  -18.1945  -26.7897   22.1576 C   0  0  0  0  0  0
  -19.1536  -28.8839   23.2841 C   0  0  0  0  0  0
  -18.9476  -30.1436   23.8864 C   0  0  0  0  0  0
  -17.6484  -30.6584   24.0535 C   0  0  0  0  0  0
  -25.9062  -34.9411   23.5072 C   0  0  0  0  0  0
  -16.5373  -29.9087   23.6322 C   0  0  0  0  0  0
  -16.7270  -28.6487   23.0354 C   0  0  0  0  0  0
  -26.4534  -31.6563   25.0718 C   0  0  0  0  0  0
  -25.3757  -31.3705   26.1449 C   0  0  0  0  0  0
  -27.0375  -30.2967   24.6212 C   0  0  0  0  0  0
  -27.6102  -32.4294   25.7495 C   0  0  0  0  0  0
  -27.5576  -37.1780   24.8461 C   0  0  0  0  0  0
  -21.4218  -29.3022   22.3649 N   0  0  0  0  0  0
  -26.4289  -37.3759   23.9404 N   0  0  0  0  0  0
  -24.7000  -31.0472   22.0931 N   0  0  0  0  0  0
  -23.4213  -28.8087   23.2994 O   0  0  0  0  0  0
  -28.3582  -26.3670   20.1874 O   0  0  0  0  0  0
  -26.5665  -34.8911   22.4658 O   0  0  0  0  0  0
  -23.5497  -32.1359   23.7232 O   0  0  0  0  0  0
  -30.7952  -18.6342   23.0158 C   0  0  0  0  0  0
  -30.5383  -17.3839   22.4246 C   0  0  0  0  0  0
  -29.8065  -18.5444   20.4258 C   0  0  0  0  0  0
  -30.6105  -19.8633   22.3323 C   0  0  0  0  0  0
  -30.0977  -17.2738   21.0944 C   0  0  0  0  0  0
  -30.0026  -19.8622   21.0345 C   0  0  0  0  0  0
  -29.0151  -22.2685   20.7847 C   0  0  0  0  0  0
  -33.1523  -22.8571   24.4400 C   0  0  0  0  0  0
  -33.1483  -22.7880   22.9046 C   0  0  0  0  0  0
  -31.7592  -22.5459   25.0136 C   0  0  0  0  0  0
  -32.6083  -21.4326   22.4109 C   0  0  0  0  0  0
  -31.2338  -21.1870   24.5092 C   0  0  0  0  0  0
  -31.1980  -21.1462   22.9663 C   0  0  0  0  0  0
  -29.3211  -23.7735   20.3121 C   0  0  0  0  0  0
  -28.1300  -24.8734   20.1958 C   0  0  0  0  0  0
  -29.7483  -21.1647   20.3488 N   0  0  0  0  0  0
  -29.8224  -15.9004   20.5870 N   0  0  0  0  0  0
  -28.1255  -22.1145   21.6244 O   0  0  0  0  0  0
  -31.4799  -12.6201   19.1545 H   0  0  0  0  0  0
  -30.4116  -11.5003   19.9582 H   0  0  0  0  0  0
  -29.7996  -11.7268   17.5249 H   0  0  0  0  0  0
  -29.6302  -13.4540   17.7097 H   0  0  0  0  0  0
  -27.9064  -11.2734   18.9271 H   0  0  0  0  0  0
  -27.3827  -12.5014   17.8029 H   0  0  0  0  0  0
  -27.6328  -14.2464   19.4580 H   0  0  0  0  0  0
  -28.7324  -12.1818   21.4304 H   0  0  0  0  0  0
  -28.4236  -13.8674   21.7818 H   0  0  0  0  0  0
  -25.2762   -9.5683   22.4781 H   0  0  0  0  0  0
  -24.0004   -7.4629   22.7499 H   0  0  0  0  0  0
  -21.0858   -8.8792   19.8940 H   0  0  0  0  0  0
  -22.3732  -10.9682   19.6177 H   0  0  0  0  0  0
  -21.2005   -7.6159   23.9722 H   0  0  0  0  0  0
  -21.1474   -6.0522   25.9074 H   0  0  0  0  0  0
  -22.0595   -2.7623   23.2834 H   0  0  0  0  0  0
  -22.4076  -11.9876   22.4788 H   0  0  0  0  0  0
  -21.1093  -13.1245   22.2603 H   0  0  0  0  0  0
  -24.6402  -15.8364   20.4961 H   0  0  0  0  0  0
  -26.2581  -15.6358   20.0604 H   0  0  0  0  0  0
  -26.7235  -32.5366   23.1047 H   0  0  0  0  0  0
  -25.0068  -33.9620   25.0366 H   0  0  0  0  0  0
  -22.7326  -31.2880   21.3872 H   0  0  0  0  0  0
  -23.3756  -35.9596   23.3287 H   0  0  0  0  0  0
  -24.3592  -36.8936   22.2056 H   0  0  0  0  0  0
  -23.7233  -37.6454   23.6698 H   0  0  0  0  0  0
  -26.1265  -31.5150   20.6090 H   0  0  0  0  0  0
  -26.8537  -30.8028   22.0173 H   0  0  0  0  0  0
  -28.1304  -28.9128   21.2230 H   0  0  0  0  0  0
  -25.9699  -25.8816   19.0296 H   0  0  0  0  0  0
  -23.9902  -27.2757   19.0136 H   0  0  0  0  0  0
  -23.7922  -30.5778   19.4011 H   0  0  0  0  0  0
  -22.7765  -29.2362   19.8449 H   0  0  0  0  0  0
  -25.1278  -36.1901   25.0808 H   0  0  0  0  0  0
  -20.9934  -28.3303   24.1381 H   0  0  0  0  0  0
  -20.5669  -26.2293   23.3613 H   0  0  0  0  0  0
  -21.6657  -26.7429   22.1205 H   0  0  0  0  0  0
  -19.6967  -25.6274   21.1236 H   0  0  0  0  0  0
  -19.6754  -27.3167   20.6711 H   0  0  0  0  0  0
  -17.4210  -26.6613   21.3988 H   0  0  0  0  0  0
  -18.0356  -26.0057   22.8994 H   0  0  0  0  0  0
  -19.7988  -30.7204   24.2272 H   0  0  0  0  0  0
  -17.5078  -31.6271   24.5128 H   0  0  0  0  0  0
  -15.5379  -30.2979   23.7693 H   0  0  0  0  0  0
  -15.8656  -28.0809   22.7094 H   0  0  0  0  0  0
  -24.5968  -30.6990   25.7821 H   0  0  0  0  0  0
  -24.8894  -32.2845   26.4843 H   0  0  0  0  0  0
  -25.8094  -30.8952   27.0257 H   0  0  0  0  0  0
  -26.2942  -29.6680   24.1276 H   0  0  0  0  0  0
  -27.4098  -29.7256   25.4729 H   0  0  0  0  0  0
  -27.8819  -30.4214   23.9424 H   0  0  0  0  0  0
  -27.2744  -33.3677   26.1929 H   0  0  0  0  0  0
  -28.3995  -32.6695   25.0350 H   0  0  0  0  0  0
  -28.0648  -31.8465   26.5529 H   0  0  0  0  0  0
  -28.2562  -38.0114   24.7536 H   0  0  0  0  0  0
  -28.1106  -36.2632   24.6244 H   0  0  0  0  0  0
  -27.2294  -37.1365   25.8869 H   0  0  0  0  0  0
  -20.9434  -29.8777   21.6865 H   0  0  0  0  0  0
  -26.0169  -38.2821   24.1465 H   0  0  0  0  0  0
  -31.1765  -18.6170   24.0247 H   0  0  0  0  0  0
  -30.6892  -16.4962   23.0250 H   0  0  0  0  0  0
  -29.4356  -18.5044   19.4121 H   0  0  0  0  0  0
  -33.4818  -23.8443   24.7685 H   0  0  0  0  0  0
  -33.8818  -22.1492   24.8359 H   0  0  0  0  0  0
  -34.1557  -22.9533   22.5193 H   0  0  0  0  0  0
  -32.5327  -23.5953   22.5045 H   0  0  0  0  0  0
  -31.0642  -23.3382   24.7324 H   0  0  0  0  0  0
  -31.7982  -22.5460   26.1033 H   0  0  0  0  0  0
  -33.2869  -20.6344   22.7125 H   0  0  0  0  0  0
  -32.5953  -21.4298   21.3207 H   0  0  0  0  0  0
  -30.2345  -21.0060   24.9063 H   0  0  0  0  0  0
  -31.8829  -20.4070   24.9029 H   0  0  0  0  0  0
  -30.5829  -21.9980   22.7148 H   0  0  0  0  0  0
  -29.8923  -23.7462   19.3839 H   0  0  0  0  0  0
  -30.0198  -24.1515   21.0613 H   0  0  0  0  0  0
  -27.4173  -24.6752   20.9963 H   0  0  0  0  0  0
  -27.6231  -24.6122   19.2682 H   0  0  0  0  0  0
  -30.3020  -21.3258   19.5170 H   0  0  0  0  0  0
  -28.8443  -15.7021   20.4535 H   0  0  0  0  0  0
  1 25  1  0  0  0
  1 30  2  0  0  0
  1 87  1  0  0  0
  2  3  1  0  0  0
  2 25  1  0  0  0
  2 89  1  0  0  0
  2 90  1  0  0  0
  3  4  1  0  0  0
  3 91  1  0  0  0
  3 92  1  0  0  0
  4  5  1  0  0  0
  4 93  1  0  0  0
  4 94  1  0  0  0
  5  6  1  0  0  0
  5 26  1  0  0  0
  5 95  1  0  0  0
  6 25  1  0  0  0
  6 96  1  0  0  0
  6 97  1  0  0  0
  7  8  2  0  0  0
  7 26  1  0  0  0
  7 29  1  0  0  0
  8  9  1  0  0  0
  8 22  1  0  0  0
  9 10  1  0  0  0
  9 27  2  0  0  0
 10 11  2  0  0  0
 10 15  1  0  0  0
 11 12  1  0  0  0
 11 98  1  0  0  0
 12 13  2  0  0  0
 12 99  1  0  0  0
 13 14  1  0  0  0
 13 31  1  0  0  0
 14 15  2  0  0  0
 14100  1  0  0  0
 15101  1  0  0  0
 16 17  2  0  0  0
 16 21  1  0  0  0
 16 31  1  0  0  0
 17 18  1  0  0  0
 17102  1  0  0  0
 18 19  2  0  0  0
 18103  1  0  0  0
 19 20  1  0  0  0
 19 24  1  0  0  0
 20 21  2  0  0  0
 20104  1  0  0  0
 21 23  1  0  0  0
 22 28  1  0  0  0
 22 32  2  0  0  0
 26 27  1  0  0  0
 28105  1  0  0  0
 28106  1  0  0  0
 29107  1  0  0  0
 29108  1  0  0  0
 33 34  1  0  0  0
 33 66  1  0  0  0
 33 70  2  0  0  0
 34 36  1  0  0  0
 34 59  1  0  0  0
 34109  1  0  0  0
 35 44  2  0  0  0
 35 45  1  0  0  0
 35 68  1  0  0  0
 36 56  1  0  0  0
 36110  1  0  0  0
 37 39  1  0  0  0
 37 47  1  0  0  0
 37 66  1  0  0  0
 37111  1  0  0  0
 38 43  2  0  0  0
 38 46  1  0  0  0
 38 47  1  0  0  0
 39 64  1  0  0  0
 39 67  2  0  0  0
 40 52  1  0  0  0
 40 53  2  0  0  0
 40 58  1  0  0  0
 41112  1  0  0  0
 41113  1  0  0  0
 41114  1  0  0  0
 41 48  1  0  0  0
 42 43  1  0  0  0
 42 66  1  0  0  0
 42115  1  0  0  0
 42116  1  0  0  0
 43 44  1  0  0  0
 44117  1  0  0  0
 45 46  2  0  0  0
 45118  1  0  0  0
 46119  1  0  0  0
 47120  1  0  0  0
 47121  1  0  0  0
 48 56  1  0  0  0
 48 65  1  0  0  0
 48122  1  0  0  0
 49 50  1  0  0  0
 49 53  1  0  0  0
 49 64  1  0  0  0
 49123  1  0  0  0
 50 51  1  0  0  0
 50124  1  0  0  0
 50125  1  0  0  0
 51 52  1  0  0  0
 51126  1  0  0  0
 51127  1  0  0  0
 52128  1  0  0  0
 52129  1  0  0  0
 53 54  1  0  0  0
 54 55  2  0  0  0
 54130  1  0  0  0
 55 57  1  0  0  0
 55131  1  0  0  0
 56 69  2  0  0  0
 57 58  2  0  0  0
 57132  1  0  0  0
 58133  1  0  0  0
 59 60  1  0  0  0
 59 61  1  0  0  0
 59 62  1  0  0  0
 60134  1  0  0  0
 60135  1  0  0  0
 60136  1  0  0  0
 61137  1  0  0  0
 61138  1  0  0  0
 61139  1  0  0  0
 62140  1  0  0  0
 62141  1  0  0  0
 62142  1  0  0  0
 63 65  1  0  0  0
 63143  1  0  0  0
 63144  1  0  0  0
 63145  1  0  0  0
 64146  1  0  0  0
 65147  1  0  0  0
 68 85  1  0  0  0
 71 72  2  0  0  0
 71 74  1  0  0  0
 71148  1  0  0  0
 72 75  1  0  0  0
 72149  1  0  0  0
 73 75  2  0  0  0
 73 76  1  0  0  0
 73150  1  0  0  0
 74 76  2  0  0  0
 74 83  1  0  0  0
 75 87  1  0  0  0
 76 86  1  0  0  0
 77 84  1  0  0  0
 77 86  1  0  0  0
 77 88  2  0  0  0
 78 79  1  0  0  0
 78 80  1  0  0  0
 78151  1  0  0  0
 78152  1  0  0  0
 79 81  1  0  0  0
 79153  1  0  0  0
 79154  1  0  0  0
 80 82  1  0  0  0
 80155  1  0  0  0
 80156  1  0  0  0
 81 83  1  0  0  0
 81157  1  0  0  0
 81158  1  0  0  0
 82 83  1  0  0  0
 82159  1  0  0  0
 82160  1  0  0  0
 83161  1  0  0  0
 84 85  1  0  0  0
 84162  1  0  0  0
 84163  1  0  0  0
 85164  1  0  0  0
 85165  1  0  0  0
 86166  1  0  0  0
 87167  1  0  0  0
M  ISO  4   1 100  68 101  85 101  87 100
M  END
> <chiral flag>
0

> <version>
0

> <s_m_source_file>
/data/baiqing/PycharmProjects/Reinvent-master-3.2/result/LINK_invent/BTK/process_docking_weight1_custom_product_contain_oxygen_bond_distance_aromatic_linkinvent_7_9_3/rearranged_h_0062.sdf

> <i_m_source_file_index>
33

> <r_mmod_Potential_Energy-OPLS-2005>
251.548141479492

> <r_mmod_Stretch_Energy-OPLS-2005>
139.582153320312

> <r_mmod_Bend_Energy-OPLS-2005>
171.244277954102

> <r_mmod_Torsional_Energy-OPLS-2005>
309.384948730469

> <r_mmod_Improper_Torsional_Energy-OPLS-2005>
10.0481872558594

> <r_mmod_Van_der_Waal_Energy-OPLS-2005>
144.844482421875

> <r_mmod_Electrostatic_Energy-OPLS-2005>
-382.563507080078

> <r_mmod_Solvation_Energy-OPLS-2005>
-234.252212524414

> <b_mmod_Minimization_Converged-OPLS-2005>
0

> <r_mmod_RMS_Derivative-OPLS-2005>
5.33549737930298

$$$$
33
                    3D
 Structure written by MMmdl.
162171  0  0  1  0            999 V2000
  -30.6030  -14.8012   20.4509 C   0  0  0  0  0  0
  -30.4365  -12.4958   19.4674 C   0  0  0  0  0  0
  -29.5100  -12.5094   18.2322 C   0  0  0  0  0  0
  -28.0394  -12.3209   18.6535 C   0  0  0  0  0  0
  -27.6363  -13.2352   19.8409 C   0  0  2  0  0  0
  -28.6855  -13.2066   20.9725 C   0  0  0  0  0  0
  -25.2492  -13.8198   20.5700 C   0  0  0  0  0  0
  -24.1795  -13.0434   20.9220 C   0  0  0  0  0  0
  -24.6395  -11.6916   20.8753 C   0  0  0  0  0  0
  -23.9072  -10.4291   21.0409 C   0  0  0  0  0  0
  -24.3622   -9.4206   21.9186 C   0  0  0  0  0  0
  -23.6297   -8.2242   22.0756 C   0  0  0  0  0  0
  -22.4279   -8.0280   21.3546 C   0  0  0  0  0  0
  -21.9914   -9.0253   20.4647 C   0  0  0  0  0  0
  -22.7243  -10.2132   20.3058 C   0  0  0  0  0  0
  -21.6855   -6.0734   22.5279 C   0  0  0  0  0  0
  -21.4015   -6.5640   23.8211 C   0  0  0  0  0  0
  -21.3660   -5.6794   24.9174 C   0  0  0  0  0  0
  -21.6045   -4.3056   24.7227 C   0  0  0  0  0  0
  -21.8819   -3.8147   23.4348 C   0  0  0  0  0  0
  -21.9193   -4.6962   22.3402 C   0  0  0  0  0  0
  -22.7814  -13.5210   21.1878 C   0  0  0  0  0  0
  -22.1661   -4.2147   21.0980 F   0  0  0  0  0  0
  -21.5630   -3.4540   25.7739 F   0  0  0  0  0  0
  -29.9742  -13.5741   20.3728 N   0  0  0  0  0  0
  -26.2918  -12.9410   20.3262 N   0  0  0  0  0  0
  -25.9326  -11.6550   20.5748 N   0  0  0  0  0  0
  -22.0462  -12.8198   22.0434 N   0  0  0  0  0  0
  -25.4154  -15.1928   20.4113 N   0  0  0  0  0  0
  -31.8115  -14.8701   20.2099 O   0  0  0  0  0  0
  -21.6643   -6.8877   21.4241 O   0  0  0  0  0  0
  -22.3495  -14.5514   20.6721 O   0  0  0  0  0  0
  -24.6379  -31.8523   23.1965 C   0  0  0  0  0  0
  -25.9183  -32.4739   23.8324 C   0  0  1  0  0  0
  -27.2176  -27.2183   20.1142 C   0  0  0  0  0  0
  -25.5957  -33.8543   24.2241 N   0  0  0  0  0  0
  -23.4364  -30.4779   21.5420 C   0  0  2  0  0  0
  -24.8816  -28.9252   20.1107 C   0  0  0  0  0  0
  -22.7538  -29.4598   22.4891 C   0  0  0  0  0  0
  -18.0302  -28.1395   22.8479 C   0  0  0  0  0  0
  -24.1492  -36.7274   23.2639 C   0  0  0  0  0  0
  -25.9898  -30.7512   21.3841 C   0  0  0  0  0  0
  -26.0615  -29.3724   20.7196 C   0  0  0  0  0  0
  -27.2317  -28.5333   20.7108 C   0  0  0  0  0  0
  -25.9933  -26.8473   19.5033 C   0  0  0  0  0  0
  -24.8550  -27.6706   19.4929 C   0  0  0  0  0  0
  -23.6569  -29.8188   20.1576 C   0  0  0  0  0  0
  -25.4120  -36.3058   24.0320 C   0  0  1  0  0  0
  -20.5910  -28.3717   23.1248 C   0  0  2  0  0  0
  -20.6791  -26.9428   22.5400 C   0  0  0  0  0  0
  -19.5762  -26.6386   21.5210 C   0  0  0  0  0  0
  -18.1944  -26.7934   22.1624 C   0  0  0  0  0  0
  -19.1556  -28.8873   23.2857 C   0  0  0  0  0  0
  -18.9474  -30.1469   23.8882 C   0  0  0  0  0  0
  -17.6471  -30.6591   24.0562 C   0  0  0  0  0  0
  -25.9067  -34.9430   23.5082 C   0  0  0  0  0  0
  -16.5362  -29.9084   23.6335 C   0  0  0  0  0  0
  -16.7287  -28.6504   23.0355 C   0  0  0  0  0  0
  -26.4522  -31.6578   25.0735 C   0  0  0  0  0  0
  -25.3721  -31.3745   26.1437 C   0  0  0  0  0  0
  -27.0377  -30.2983   24.6269 C   0  0  0  0  0  0
  -27.6063  -32.4329   25.7519 C   0  0  0  0  0  0
  -27.5580  -37.1793   24.8464 C   0  0  0  0  0  0
  -21.4239  -29.3057   22.3631 N   0  0  0  0  0  0
  -26.4289  -37.3763   23.9409 N   0  0  0  0  0  0
  -24.7078  -31.0451   22.0967 N   0  0  0  0  0  0
  -23.4214  -28.8130   23.3003 O   0  0  0  0  0  0
  -28.2732  -26.2522   20.1715 O   0  0  0  0  0  0
  -26.5640  -34.8912   22.4653 O   0  0  0  0  0  0
  -23.5515  -32.1368   23.7227 O   0  0  0  0  0  0
  -31.1857  -17.6596   21.7208 C   0  0  0  0  0  0
  -29.5473  -18.5881   20.2083 C   0  0  0  0  0  0
  -31.5818  -18.9713   22.0757 C   0  0  0  0  0  0
  -31.0132  -20.1165   21.4312 C   0  0  0  0  0  0
  -29.9459  -19.9794   20.4890 C   0  0  0  0  0  0
  -30.1833  -17.3965   20.7717 C   0  0  0  0  0  0
  -28.4550  -23.7331   19.2910 C   0  0  0  0  0  0
  -29.6407  -21.1018   18.3617 C   0  0  0  0  0  0
  -28.2241  -25.1241   19.2933 C   0  0  0  0  0  0
  -28.0655  -23.0520   17.9944 C   0  0  0  0  0  0
  -28.9963  -22.5898   20.2882 C   0  0  0  0  0  0
  -29.2331  -22.2507   17.4428 C   0  0  0  0  0  0
  -31.6335  -21.4871   21.6892 C   0  0  0  0  0  0
  -32.6714  -19.1046   23.1487 C   0  0  0  0  0  0
  -29.4511  -21.1914   19.7115 N   0  0  0  0  0  0
  -29.8224  -15.9628   20.5122 N   0  0  0  0  0  0
  -30.1486  -20.1220   17.8034 O   0  0  0  0  0  0
  -32.8447  -17.9690   23.8277 F   0  0  0  0  0  0
  -33.8374  -19.4145   22.5815 F   0  0  0  0  0  0
  -32.3560  -20.0416   24.0442 F   0  0  0  0  0  0
  -31.4737  -12.6339   19.1573 H   0  0  0  0  0  0
  -30.3988  -11.5290   19.9719 H   0  0  0  0  0  0
  -29.8024  -11.7272   17.5307 H   0  0  0  0  0  0
  -29.6213  -13.4553   17.6998 H   0  0  0  0  0  0
  -27.9121  -11.2752   18.9355 H   0  0  0  0  0  0
  -27.3771  -12.4884   17.8035 H   0  0  0  0  0  0
  -27.6159  -14.2484   19.4398 H   0  0  0  0  0  0
  -28.7398  -12.2189   21.4325 H   0  0  0  0  0  0
  -28.4150  -13.9038   21.7673 H   0  0  0  0  0  0
  -25.2766   -9.5685   22.4761 H   0  0  0  0  0  0
  -24.0007   -7.4635   22.7478 H   0  0  0  0  0  0
  -21.0846   -8.8770   19.8953 H   0  0  0  0  0  0
  -22.3700  -10.9670   19.6169 H   0  0  0  0  0  0
  -21.2006   -7.6148   23.9713 H   0  0  0  0  0  0
  -21.1484   -6.0525   25.9076 H   0  0  0  0  0  0
  -22.0598   -2.7609   23.2850 H   0  0  0  0  0  0
  -22.4082  -11.9862   22.4822 H   0  0  0  0  0  0
  -21.1076  -13.1218   22.2637 H   0  0  0  0  0  0
  -24.6446  -15.8420   20.5253 H   0  0  0  0  0  0
  -26.2550  -15.6372   20.0648 H   0  0  0  0  0  0
  -26.7253  -32.5368   23.1062 H   0  0  0  0  0  0
  -25.0095  -33.9674   25.0381 H   0  0  0  0  0  0
  -22.7355  -31.3024   21.3967 H   0  0  0  0  0  0
  -23.3758  -35.9602   23.3291 H   0  0  0  0  0  0
  -24.3581  -36.8913   22.2056 H   0  0  0  0  0  0
  -23.7242  -37.6468   23.6676 H   0  0  0  0  0  0
  -26.1386  -31.5131   20.6176 H   0  0  0  0  0  0
  -26.8634  -30.7953   22.0231 H   0  0  0  0  0  0
  -28.1326  -28.8712   21.2033 H   0  0  0  0  0  0
  -25.8622  -25.8743   19.0543 H   0  0  0  0  0  0
  -23.9474  -27.3140   19.0254 H   0  0  0  0  0  0
  -23.7896  -30.5986   19.4067 H   0  0  0  0  0  0
  -22.7726  -29.2599   19.8460 H   0  0  0  0  0  0
  -25.1304  -36.1897   25.0812 H   0  0  0  0  0  0
  -21.0004  -28.3300   24.1368 H   0  0  0  0  0  0
  -20.5697  -26.2328   23.3611 H   0  0  0  0  0  0
  -21.6656  -26.7449   22.1189 H   0  0  0  0  0  0
  -19.6925  -25.6292   21.1252 H   0  0  0  0  0  0
  -19.6697  -27.3186   20.6731 H   0  0  0  0  0  0
  -17.4212  -26.6677   21.4029 H   0  0  0  0  0  0
  -18.0348  -26.0081   22.9026 H   0  0  0  0  0  0
  -19.7947  -30.7291   24.2245 H   0  0  0  0  0  0
  -17.5023  -31.6270   24.5166 H   0  0  0  0  0  0
  -15.5362  -30.2982   23.7668 H   0  0  0  0  0  0
  -15.8687  -28.0818   22.7079 H   0  0  0  0  0  0
  -24.5903  -30.7092   25.7755 H   0  0  0  0  0  0
  -24.8906  -32.2919   26.4831 H   0  0  0  0  0  0
  -25.8013  -30.8937   27.0235 H   0  0  0  0  0  0
  -26.2980  -29.6719   24.1270 H   0  0  0  0  0  0
  -27.4007  -29.7264   25.4819 H   0  0  0  0  0  0
  -27.8883  -30.4237   23.9565 H   0  0  0  0  0  0
  -27.2663  -33.3637   26.2070 H   0  0  0  0  0  0
  -28.3891  -32.6875   25.0361 H   0  0  0  0  0  0
  -28.0714  -31.8472   26.5459 H   0  0  0  0  0  0
  -28.2585  -38.0101   24.7518 H   0  0  0  0  0  0
  -28.1087  -36.2631   24.6280 H   0  0  0  0  0  0
  -27.2297  -37.1427   25.8866 H   0  0  0  0  0  0
  -20.9434  -29.8780   21.6828 H   0  0  0  0  0  0
  -26.0162  -38.2832   24.1416 H   0  0  0  0  0  0
  -31.6676  -16.8239   22.2054 H   0  0  0  0  0  0
  -28.7640  -18.4320   19.4799 H   0  0  0  0  0  0
  -27.8854  -25.5204   18.3462 H   0  0  0  0  0  0
  -27.7264  -23.7530   17.2309 H   0  0  0  0  0  0
  -27.2160  -22.3943   18.1882 H   0  0  0  0  0  0
  -28.1858  -22.3770   20.9850 H   0  0  0  0  0  0
  -29.7712  -23.0619   20.8825 H   0  0  0  0  0  0
  -28.9634  -21.8428   16.4680 H   0  0  0  0  0  0
  -30.0981  -22.8951   17.2828 H   0  0  0  0  0  0
  -32.6539  -21.4349   22.0603 H   0  0  0  0  0  0
  -31.0476  -22.0422   22.4214 H   0  0  0  0  0  0
  -31.7141  -22.0629   20.7681 H   0  0  0  0  0  0
  -28.8350  -15.7882   20.4093 H   0  0  0  0  0  0
  1 25  1  0  0  0
  1 30  2  0  0  0
  1 86  1  0  0  0
  2  3  1  0  0  0
  2 25  1  0  0  0
  2 91  1  0  0  0
  2 92  1  0  0  0
  3  4  1  0  0  0
  3 93  1  0  0  0
  3 94  1  0  0  0
  4  5  1  0  0  0
  4 95  1  0  0  0
  4 96  1  0  0  0
  5  6  1  0  0  0
  5 26  1  0  0  0
  5 97  1  0  0  0
  6 25  1  0  0  0
  6 98  1  0  0  0
  6 99  1  0  0  0
  7  8  2  0  0  0
  7 26  1  0  0  0
  7 29  1  0  0  0
  8  9  1  0  0  0
  8 22  1  0  0  0
  9 10  1  0  0  0
  9 27  2  0  0  0
 10 11  2  0  0  0
 10 15  1  0  0  0
 11 12  1  0  0  0
 11100  1  0  0  0
 12 13  2  0  0  0
 12101  1  0  0  0
 13 14  1  0  0  0
 13 31  1  0  0  0
 14 15  2  0  0  0
 14102  1  0  0  0
 15103  1  0  0  0
 16 17  2  0  0  0
 16 21  1  0  0  0
 16 31  1  0  0  0
 17 18  1  0  0  0
 17104  1  0  0  0
 18 19  2  0  0  0
 18105  1  0  0  0
 19 20  1  0  0  0
 19 24  1  0  0  0
 20 21  2  0  0  0
 20106  1  0  0  0
 21 23  1  0  0  0
 22 28  1  0  0  0
 22 32  2  0  0  0
 26 27  1  0  0  0
 28107  1  0  0  0
 28108  1  0  0  0
 29109  1  0  0  0
 29110  1  0  0  0
 33 34  1  0  0  0
 33 66  1  0  0  0
 33 70  2  0  0  0
 34 36  1  0  0  0
 34 59  1  0  0  0
 34111  1  0  0  0
 35 44  2  0  0  0
 35 45  1  0  0  0
 35 68  1  0  0  0
 36 56  1  0  0  0
 36112  1  0  0  0
 37 39  1  0  0  0
 37 47  1  0  0  0
 37 66  1  0  0  0
 37113  1  0  0  0
 38 43  2  0  0  0
 38 46  1  0  0  0
 38 47  1  0  0  0
 39 64  1  0  0  0
 39 67  2  0  0  0
 40 52  1  0  0  0
 40 53  2  0  0  0
 40 58  1  0  0  0
 41114  1  0  0  0
 41115  1  0  0  0
 41116  1  0  0  0
 41 48  1  0  0  0
 42 43  1  0  0  0
 42 66  1  0  0  0
 42117  1  0  0  0
 42118  1  0  0  0
 43 44  1  0  0  0
 44119  1  0  0  0
 45 46  2  0  0  0
 45120  1  0  0  0
 46121  1  0  0  0
 47122  1  0  0  0
 47123  1  0  0  0
 48 56  1  0  0  0
 48 65  1  0  0  0
 48124  1  0  0  0
 49 50  1  0  0  0
 49 53  1  0  0  0
 49 64  1  0  0  0
 49125  1  0  0  0
 50 51  1  0  0  0
 50126  1  0  0  0
 50127  1  0  0  0
 51 52  1  0  0  0
 51128  1  0  0  0
 51129  1  0  0  0
 52130  1  0  0  0
 52131  1  0  0  0
 53 54  1  0  0  0
 54 55  2  0  0  0
 54132  1  0  0  0
 55 57  1  0  0  0
 55133  1  0  0  0
 56 69  2  0  0  0
 57 58  2  0  0  0
 57134  1  0  0  0
 58135  1  0  0  0
 59 60  1  0  0  0
 59 61  1  0  0  0
 59 62  1  0  0  0
 60136  1  0  0  0
 60137  1  0  0  0
 60138  1  0  0  0
 61139  1  0  0  0
 61140  1  0  0  0
 61141  1  0  0  0
 62142  1  0  0  0
 62143  1  0  0  0
 62144  1  0  0  0
 63 65  1  0  0  0
 63145  1  0  0  0
 63146  1  0  0  0
 63147  1  0  0  0
 64148  1  0  0  0
 65149  1  0  0  0
 68 79  1  0  0  0
 71 73  2  0  0  0
 71 76  1  0  0  0
 71150  1  0  0  0
 72 75  1  0  0  0
 72 76  2  0  0  0
 72151  1  0  0  0
 73 74  1  0  0  0
 73 84  1  0  0  0
 74 75  2  0  0  0
 74 83  1  0  0  0
 75 85  1  0  0  0
 76 86  1  0  0  0
 77 79  2  0  0  0
 77 80  1  0  0  0
 77 81  1  0  0  0
 78 82  1  0  0  0
 78 85  1  0  0  0
 78 87  2  0  0  0
 79152  1  0  0  0
 80 82  1  0  0  0
 80153  1  0  0  0
 80154  1  0  0  0
 81 85  1  0  0  0
 81155  1  0  0  0
 81156  1  0  0  0
 82157  1  0  0  0
 82158  1  0  0  0
 83159  1  0  0  0
 83160  1  0  0  0
 83161  1  0  0  0
 84 88  1  0  0  0
 84 89  1  0  0  0
 84 90  1  0  0  0
 86162  1  0  0  0
M  ISO  4   1 100  68 101  79 101  86 100
M  END
> <chiral flag>
0

> <version>
0

> <s_m_source_file>
/data/baiqing/PycharmProjects/Reinvent-master-3.2/result/LINK_invent/BTK/process_docking_weight1_custom_product_contain_oxygen_bond_distance_aromatic_linkinvent_7_9_3/rearranged_h_0062.sdf

> <i_m_source_file_index>
34

> <r_mmod_Potential_Energy-OPLS-2005>
480.404815673828

> <r_mmod_Stretch_Energy-OPLS-2005>
179.222579956055

> <r_mmod_Bend_Energy-OPLS-2005>
238.990692138672

> <r_mmod_Torsional_Energy-OPLS-2005>
290.733123779297

> <r_mmod_Improper_Torsional_Energy-OPLS-2005>
8.63220596313477

> <r_mmod_Van_der_Waal_Energy-OPLS-2005>
178.751525878906

> <r_mmod_Electrostatic_Energy-OPLS-2005>
-318.099578857422

> <r_mmod_Solvation_Energy-OPLS-2005>
-216.868545532227

> <b_mmod_Minimization_Converged-OPLS-2005>
0

> <r_mmod_RMS_Derivative-OPLS-2005>
0.38697275519371

$$$$
34
                    3D
 Structure written by MMmdl.
168177  0  0  1  0            999 V2000
  -30.6166  -14.7884   20.5026 C   0  0  0  0  0  0
  -30.4545  -12.5020   19.4616 C   0  0  0  0  0  0
  -29.5191  -12.5009   18.2333 C   0  0  0  0  0  0
  -28.0479  -12.3159   18.6547 C   0  0  0  0  0  0
  -27.6508  -13.2228   19.8449 C   0  0  2  0  0  0
  -28.6975  -13.1834   20.9791 C   0  0  0  0  0  0
  -25.2611  -13.8186   20.5709 C   0  0  0  0  0  0
  -24.1887  -13.0413   20.9215 C   0  0  0  0  0  0
  -24.6435  -11.6915   20.8725 C   0  0  0  0  0  0
  -23.9089  -10.4286   21.0355 C   0  0  0  0  0  0
  -24.3635   -9.4231   21.9144 C   0  0  0  0  0  0
  -23.6323   -8.2254   22.0750 C   0  0  0  0  0  0
  -22.4295   -8.0292   21.3539 C   0  0  0  0  0  0
  -21.9924   -9.0240   20.4627 C   0  0  0  0  0  0
  -22.7260  -10.2119   20.3003 C   0  0  0  0  0  0
  -21.6875   -6.0738   22.5279 C   0  0  0  0  0  0
  -21.4033   -6.5634   23.8237 C   0  0  0  0  0  0
  -21.3658   -5.6795   24.9186 C   0  0  0  0  0  0
  -21.6027   -4.3050   24.7261 C   0  0  0  0  0  0
  -21.8824   -3.8153   23.4382 C   0  0  0  0  0  0
  -21.9215   -4.6944   22.3440 C   0  0  0  0  0  0
  -22.7907  -13.5237   21.1854 C   0  0  0  0  0  0
  -22.1680   -4.2124   21.1013 F   0  0  0  0  0  0
  -21.5616   -3.4548   25.7777 F   0  0  0  0  0  0
  -29.9893  -13.5595   20.3922 N   0  0  0  0  0  0
  -26.3011  -12.9333   20.3247 N   0  0  0  0  0  0
  -25.9366  -11.6491   20.5735 N   0  0  0  0  0  0
  -22.0555  -12.8178   22.0393 N   0  0  0  0  0  0
  -25.4312  -15.1931   20.4238 N   0  0  0  0  0  0
  -31.8119  -14.8764   20.2100 O   0  0  0  0  0  0
  -21.6673   -6.8853   21.4242 O   0  0  0  0  0  0
  -22.3578  -14.5511   20.6708 O   0  0  0  0  0  0
  -24.6236  -31.8583   23.1989 C   0  0  0  0  0  0
  -25.9076  -32.4750   23.8325 C   0  0  1  0  0  0
  -27.1943  -27.2716   20.1669 C   0  0  0  0  0  0
  -25.5873  -33.8523   24.2263 N   0  0  0  0  0  0
  -23.4187  -30.4825   21.5257 C   0  0  2  0  0  0
  -24.8668  -28.9332   20.0995 C   0  0  0  0  0  0
  -22.7478  -29.4589   22.4716 C   0  0  0  0  0  0
  -18.0279  -28.1366   22.8400 C   0  0  0  0  0  0
  -24.1530  -36.7352   23.2618 C   0  0  0  0  0  0
  -25.9575  -30.7833   21.3669 C   0  0  0  0  0  0
  -26.0272  -29.4013   20.7200 C   0  0  0  0  0  0
  -27.1903  -28.5777   20.7540 C   0  0  0  0  0  0
  -26.0139  -26.8538   19.5137 C   0  0  0  0  0  0
  -24.8593  -27.6640   19.4945 C   0  0  0  0  0  0
  -23.6478  -29.8318   20.1348 C   0  0  0  0  0  0
  -25.4126  -36.3051   24.0313 C   0  0  1  0  0  0
  -20.5879  -28.3662   23.1217 C   0  0  2  0  0  0
  -20.6792  -26.9349   22.5401 C   0  0  0  0  0  0
  -19.5800  -26.6327   21.5174 C   0  0  0  0  0  0
  -18.1949  -26.7887   22.1575 C   0  0  0  0  0  0
  -19.1556  -28.8816   23.2810 C   0  0  0  0  0  0
  -18.9502  -30.1400   23.8803 C   0  0  0  0  0  0
  -17.6517  -30.6532   24.0543 C   0  0  0  0  0  0
  -25.9031  -34.9410   23.5116 C   0  0  0  0  0  0
  -16.5371  -29.9035   23.6352 C   0  0  0  0  0  0
  -16.7286  -28.6510   23.0277 C   0  0  0  0  0  0
  -26.4462  -31.6566   25.0706 C   0  0  0  0  0  0
  -25.3678  -31.3804   26.1485 C   0  0  0  0  0  0
  -27.0278  -30.2984   24.6131 C   0  0  0  0  0  0
  -27.5979  -32.4359   25.7490 C   0  0  0  0  0  0
  -27.5590  -37.1840   24.8444 C   0  0  0  0  0  0
  -21.4186  -29.3044   22.3605 N   0  0  0  0  0  0
  -26.4288  -37.3755   23.9389 N   0  0  0  0  0  0
  -24.6834  -31.0609   22.0889 N   0  0  0  0  0  0
  -23.4261  -28.8076   23.2743 O   0  0  0  0  0  0
  -28.3075  -26.4257   20.2988 O   0  0  0  0  0  0
  -26.5569  -34.8881   22.4669 O   0  0  0  0  0  0
  -23.5431  -32.1407   23.7338 O   0  0  0  0  0  0
  -31.4121  -19.0229   22.3093 C   0  0  0  0  0  0
  -31.2316  -17.7038   21.8321 C   0  0  0  0  0  0
  -29.3118  -18.4878   20.6112 C   0  0  0  0  0  0
  -30.5802  -20.1235   21.9436 C   0  0  0  0  0  0
  -29.4748  -19.8784   21.0464 C   0  0  0  0  0  0
  -30.1458  -17.3600   20.9941 C   0  0  0  0  0  0
  -27.1463  -20.7493   20.6600 C   0  0  0  0  0  0
  -30.8456  -21.4961   22.5088 C   0  0  0  0  0  0
  -31.8710  -22.0563   23.2102 C   0  0  0  0  0  0
  -26.1585  -21.9304   20.8364 C   0  0  0  0  0  0
  -26.5702  -23.2534   20.1510 C   0  0  0  0  0  0
  -28.8900  -22.3651   20.1529 C   0  0  0  0  0  0
  -27.9983  -23.6678   20.5121 C   0  0  1  0  0  0
  -31.7968  -23.5261   23.6116 C   0  0  0  0  0  0
  -33.1696  -21.3938   23.6644 C   0  0  0  0  0  0
  -28.4166  -25.0409   19.7601 C   0  0  0  0  0  0
  -28.4969  -20.9809   20.6864 N   0  0  0  0  0  0
  -29.8270  -15.9285   20.6856 N   0  0  0  0  0  0
  -26.6443  -19.6328   20.5099 O   0  0  0  0  0  0
  -31.4750  -12.6798   19.1249 H   0  0  0  0  0  0
  -30.4668  -11.5270   19.9523 H   0  0  0  0  0  0
  -29.8064  -11.7076   17.5431 H   0  0  0  0  0  0
  -29.6374  -13.4386   17.6888 H   0  0  0  0  0  0
  -27.9059  -11.2715   18.9303 H   0  0  0  0  0  0
  -27.3896  -12.4902   17.8021 H   0  0  0  0  0  0
  -27.6346  -14.2346   19.4463 H   0  0  0  0  0  0
  -28.7549  -12.1943   21.4397 H   0  0  0  0  0  0
  -28.4224  -13.8785   21.7686 H   0  0  0  0  0  0
  -25.2759   -9.5745   22.4749 H   0  0  0  0  0  0
  -24.0038   -7.4662   22.7503 H   0  0  0  0  0  0
  -21.0854   -8.8742   19.8954 H   0  0  0  0  0  0
  -22.3685  -10.9639   19.6145 H   0  0  0  0  0  0
  -21.2008   -7.6143   23.9718 H   0  0  0  0  0  0
  -21.1465   -6.0531   25.9081 H   0  0  0  0  0  0
  -22.0593   -2.7609   23.2924 H   0  0  0  0  0  0
  -22.4176  -11.9844   22.4751 H   0  0  0  0  0  0
  -21.1139  -13.1129   22.2499 H   0  0  0  0  0  0
  -24.6694  -15.8506   20.5603 H   0  0  0  0  0  0
  -26.2751  -15.6428   20.0886 H   0  0  0  0  0  0
  -26.7103  -32.5425   23.1018 H   0  0  0  0  0  0
  -25.0018  -33.9659   25.0417 H   0  0  0  0  0  0
  -22.7060  -31.2934   21.3702 H   0  0  0  0  0  0
  -23.3740  -35.9737   23.3274 H   0  0  0  0  0  0
  -24.3616  -36.9031   22.2042 H   0  0  0  0  0  0
  -23.7462  -37.6577   23.6725 H   0  0  0  0  0  0
  -26.0744  -31.5434   20.5928 H   0  0  0  0  0  0
  -26.8401  -30.8465   21.9875 H   0  0  0  0  0  0
  -28.0708  -28.9288   21.2698 H   0  0  0  0  0  0
  -25.9585  -25.8777   19.0510 H   0  0  0  0  0  0
  -23.9585  -27.2964   19.0219 H   0  0  0  0  0  0
  -23.7946  -30.6261   19.4011 H   0  0  0  0  0  0
  -22.7689  -29.2818   19.7980 H   0  0  0  0  0  0
  -25.1316  -36.1832   25.0812 H   0  0  0  0  0  0
  -20.9924  -28.3248   24.1367 H   0  0  0  0  0  0
  -20.5770  -26.2192   23.3596 H   0  0  0  0  0  0
  -21.6631  -26.7415   22.1091 H   0  0  0  0  0  0
  -19.6980  -25.6244   21.1228 H   0  0  0  0  0  0
  -19.6813  -27.3081   20.6643 H   0  0  0  0  0  0
  -17.4245  -26.6599   21.3955 H   0  0  0  0  0  0
  -18.0311  -26.0061   22.9016 H   0  0  0  0  0  0
  -19.8001  -30.7214   24.2139 H   0  0  0  0  0  0
  -17.5096  -31.6223   24.5123 H   0  0  0  0  0  0
  -15.5378  -30.2909   23.7731 H   0  0  0  0  0  0
  -15.8692  -28.0851   22.6882 H   0  0  0  0  0  0
  -24.5824  -30.7101   25.7997 H   0  0  0  0  0  0
  -24.8827  -32.2981   26.4817 H   0  0  0  0  0  0
  -25.8062  -30.9213   27.0352 H   0  0  0  0  0  0
  -26.2845  -29.6745   24.1142 H   0  0  0  0  0  0
  -27.3909  -29.7226   25.4640 H   0  0  0  0  0  0
  -27.8755  -30.4272   23.9372 H   0  0  0  0  0  0
  -27.2524  -33.3682   26.2009 H   0  0  0  0  0  0
  -28.3865  -32.6872   25.0389 H   0  0  0  0  0  0
  -28.0543  -31.8539   26.5508 H   0  0  0  0  0  0
  -28.2487  -38.0215   24.7418 H   0  0  0  0  0  0
  -28.1176  -36.2720   24.6289 H   0  0  0  0  0  0
  -27.2272  -37.1470   25.8825 H   0  0  0  0  0  0
  -20.9303  -29.9110   21.7160 H   0  0  0  0  0  0
  -26.0138  -38.2804   24.1403 H   0  0  0  0  0  0
  -32.2174  -19.1386   23.0150 H   0  0  0  0  0  0
  -31.9238  -16.9488   22.1782 H   0  0  0  0  0  0
  -28.4822  -18.2594   19.9648 H   0  0  0  0  0  0
  -30.0566  -22.2037   22.3125 H   0  0  0  0  0  0
  -26.0497  -22.0756   21.9101 H   0  0  0  0  0  0
  -25.1533  -21.6513   20.5130 H   0  0  0  0  0  0
  -25.8527  -24.0367   20.4172 H   0  0  0  0  0  0
  -26.5100  -23.1326   19.0657 H   0  0  0  0  0  0
  -29.9473  -22.5941   20.2529 H   0  0  0  0  0  0
  -28.7847  -22.2047   19.0821 H   0  0  0  0  0  0
  -28.0399  -23.8405   21.5922 H   0  0  0  0  0  0
  -30.8708  -23.9991   23.2734 H   0  0  0  0  0  0
  -32.6307  -24.0895   23.1867 H   0  0  0  0  0  0
  -31.8678  -23.6150   24.6974 H   0  0  0  0  0  0
  -33.7567  -21.0294   22.8195 H   0  0  0  0  0  0
  -33.0069  -20.5812   24.3722 H   0  0  0  0  0  0
  -33.8087  -22.1071   24.1932 H   0  0  0  0  0  0
  -28.0438  -25.0384   18.7355 H   0  0  0  0  0  0
  -29.4968  -24.9526   19.6524 H   0  0  0  0  0  0
  -28.8373  -15.7211   20.6868 H   0  0  0  0  0  0
  1 25  1  0  0  0
  1 30  2  0  0  0
  1 88  1  0  0  0
  2  3  1  0  0  0
  2 25  1  0  0  0
  2 90  1  0  0  0
  2 91  1  0  0  0
  3  4  1  0  0  0
  3 92  1  0  0  0
  3 93  1  0  0  0
  4  5  1  0  0  0
  4 94  1  0  0  0
  4 95  1  0  0  0
  5  6  1  0  0  0
  5 26  1  0  0  0
  5 96  1  0  0  0
  6 25  1  0  0  0
  6 97  1  0  0  0
  6 98  1  0  0  0
  7  8  2  0  0  0
  7 26  1  0  0  0
  7 29  1  0  0  0
  8  9  1  0  0  0
  8 22  1  0  0  0
  9 10  1  0  0  0
  9 27  2  0  0  0
 10 11  2  0  0  0
 10 15  1  0  0  0
 11 12  1  0  0  0
 11 99  1  0  0  0
 12 13  2  0  0  0
 12100  1  0  0  0
 13 14  1  0  0  0
 13 31  1  0  0  0
 14 15  2  0  0  0
 14101  1  0  0  0
 15102  1  0  0  0
 16 17  2  0  0  0
 16 21  1  0  0  0
 16 31  1  0  0  0
 17 18  1  0  0  0
 17103  1  0  0  0
 18 19  2  0  0  0
 18104  1  0  0  0
 19 20  1  0  0  0
 19 24  1  0  0  0
 20 21  2  0  0  0
 20105  1  0  0  0
 21 23  1  0  0  0
 22 28  1  0  0  0
 22 32  2  0  0  0
 26 27  1  0  0  0
 28106  1  0  0  0
 28107  1  0  0  0
 29108  1  0  0  0
 29109  1  0  0  0
 33 34  1  0  0  0
 33 66  1  0  0  0
 33 70  2  0  0  0
 34 36  1  0  0  0
 34 59  1  0  0  0
 34110  1  0  0  0
 35 44  2  0  0  0
 35 45  1  0  0  0
 35 68  1  0  0  0
 36 56  1  0  0  0
 36111  1  0  0  0
 37 39  1  0  0  0
 37 47  1  0  0  0
 37 66  1  0  0  0
 37112  1  0  0  0
 38 43  2  0  0  0
 38 46  1  0  0  0
 38 47  1  0  0  0
 39 64  1  0  0  0
 39 67  2  0  0  0
 40 52  1  0  0  0
 40 53  2  0  0  0
 40 58  1  0  0  0
 41113  1  0  0  0
 41114  1  0  0  0
 41115  1  0  0  0
 41 48  1  0  0  0
 42 43  1  0  0  0
 42 66  1  0  0  0
 42116  1  0  0  0
 42117  1  0  0  0
 43 44  1  0  0  0
 44118  1  0  0  0
 45 46  2  0  0  0
 45119  1  0  0  0
 46120  1  0  0  0
 47121  1  0  0  0
 47122  1  0  0  0
 48 56  1  0  0  0
 48 65  1  0  0  0
 48123  1  0  0  0
 49 50  1  0  0  0
 49 53  1  0  0  0
 49 64  1  0  0  0
 49124  1  0  0  0
 50 51  1  0  0  0
 50125  1  0  0  0
 50126  1  0  0  0
 51 52  1  0  0  0
 51127  1  0  0  0
 51128  1  0  0  0
 52129  1  0  0  0
 52130  1  0  0  0
 53 54  1  0  0  0
 54 55  2  0  0  0
 54131  1  0  0  0
 55 57  1  0  0  0
 55132  1  0  0  0
 56 69  2  0  0  0
 57 58  2  0  0  0
 57133  1  0  0  0
 58134  1  0  0  0
 59 60  1  0  0  0
 59 61  1  0  0  0
 59 62  1  0  0  0
 60135  1  0  0  0
 60136  1  0  0  0
 60137  1  0  0  0
 61138  1  0  0  0
 61139  1  0  0  0
 61140  1  0  0  0
 62141  1  0  0  0
 62142  1  0  0  0
 62143  1  0  0  0
 63 65  1  0  0  0
 63144  1  0  0  0
 63145  1  0  0  0
 63146  1  0  0  0
 64147  1  0  0  0
 65148  1  0  0  0
 68 86  1  0  0  0
 71 72  2  0  0  0
 71 74  1  0  0  0
 71149  1  0  0  0
 72 76  1  0  0  0
 72150  1  0  0  0
 73 75  1  0  0  0
 73 76  2  0  0  0
 73151  1  0  0  0
 74 75  2  0  0  0
 74 78  1  0  0  0
 75 87  1  0  0  0
 76 88  1  0  0  0
 77 80  1  0  0  0
 77 87  1  0  0  0
 77 89  2  0  0  0
 78 79  2  0  0  0
 78152  1  0  0  0
 79 84  1  0  0  0
 79 85  1  0  0  0
 80 81  1  0  0  0
 80153  1  0  0  0
 80154  1  0  0  0
 81 83  1  0  0  0
 81155  1  0  0  0
 81156  1  0  0  0
 82 83  1  0  0  0
 82 87  1  0  0  0
 82157  1  0  0  0
 82158  1  0  0  0
 83 86  1  0  0  0
 83159  1  0  0  0
 84160  1  0  0  0
 84161  1  0  0  0
 84162  1  0  0  0
 85163  1  0  0  0
 85164  1  0  0  0
 85165  1  0  0  0
 86166  1  0  0  0
 86167  1  0  0  0
 88168  1  0  0  0
M  ISO  4   1 100  68 101  86 101  88 100
M  END
> <chiral flag>
0

> <version>
0

> <s_m_source_file>
/data/baiqing/PycharmProjects/Reinvent-master-3.2/result/LINK_invent/BTK/process_docking_weight1_custom_product_contain_oxygen_bond_distance_aromatic_linkinvent_7_9_3/rearranged_h_0062.sdf

> <i_m_source_file_index>
35

> <r_mmod_Potential_Energy-OPLS-2005>
357.923797607422

> <r_mmod_Stretch_Energy-OPLS-2005>
149.570846557617

> <r_mmod_Bend_Energy-OPLS-2005>
217.789093017578

> <r_mmod_Torsional_Energy-OPLS-2005>
305.846527099609

> <r_mmod_Improper_Torsional_Energy-OPLS-2005>
6.99978065490723

> <r_mmod_Van_der_Waal_Energy-OPLS-2005>
154.934234619141

> <r_mmod_Electrostatic_Energy-OPLS-2005>
-362.106567382812

> <r_mmod_Solvation_Energy-OPLS-2005>
-212.266342163086

> <b_mmod_Minimization_Converged-OPLS-2005>
0

> <r_mmod_RMS_Derivative-OPLS-2005>
11.0202627182007

$$$$
35
                    3D
 Structure written by MMmdl.
152160  0  0  1  0            999 V2000
  -30.5856  -14.8225   20.4523 C   0  0  0  0  0  0
  -30.4393  -12.5096   19.4729 C   0  0  0  0  0  0
  -29.5114  -12.5030   18.2382 C   0  0  0  0  0  0
  -28.0424  -12.3080   18.6622 C   0  0  0  0  0  0
  -27.6342  -13.2328   19.8391 C   0  0  2  0  0  0
  -28.6811  -13.2160   20.9719 C   0  0  0  0  0  0
  -25.2490  -13.8192   20.5697 C   0  0  0  0  0  0
  -24.1788  -13.0434   20.9220 C   0  0  0  0  0  0
  -24.6382  -11.6914   20.8757 C   0  0  0  0  0  0
  -23.9065  -10.4290   21.0414 C   0  0  0  0  0  0
  -24.3614   -9.4207   21.9196 C   0  0  0  0  0  0
  -23.6290   -8.2239   22.0758 C   0  0  0  0  0  0
  -22.4277   -8.0276   21.3538 C   0  0  0  0  0  0
  -21.9914   -9.0252   20.4639 C   0  0  0  0  0  0
  -22.7241  -10.2131   20.3056 C   0  0  0  0  0  0
  -21.6852   -6.0729   22.5277 C   0  0  0  0  0  0
  -21.4014   -6.5637   23.8208 C   0  0  0  0  0  0
  -21.3659   -5.6792   24.9170 C   0  0  0  0  0  0
  -21.6046   -4.3053   24.7226 C   0  0  0  0  0  0
  -21.8817   -3.8142   23.4348 C   0  0  0  0  0  0
  -21.9193   -4.6958   22.3401 C   0  0  0  0  0  0
  -22.7808  -13.5218   21.1885 C   0  0  0  0  0  0
  -22.1660   -4.2146   21.0976 F   0  0  0  0  0  0
  -21.5632   -3.4533   25.7736 F   0  0  0  0  0  0
  -29.9666  -13.5896   20.3708 N   0  0  0  0  0  0
  -26.2905  -12.9395   20.3252 N   0  0  0  0  0  0
  -25.9312  -11.6543   20.5762 N   0  0  0  0  0  0
  -22.0449  -12.8192   22.0425 N   0  0  0  0  0  0
  -25.4161  -15.1916   20.4093 N   0  0  0  0  0  0
  -31.7960  -14.8981   20.2233 O   0  0  0  0  0  0
  -21.6636   -6.8873   21.4239 O   0  0  0  0  0  0
  -22.3488  -14.5523   20.6739 O   0  0  0  0  0  0
  -24.6347  -31.8527   23.1944 C   0  0  0  0  0  0
  -25.9155  -32.4743   23.8309 C   0  0  1  0  0  0
  -27.2236  -27.2279   20.1426 C   0  0  0  0  0  0
  -25.5933  -33.8548   24.2248 N   0  0  0  0  0  0
  -23.4345  -30.4718   21.5381 C   0  0  2  0  0  0
  -24.8847  -28.9086   20.1154 C   0  0  0  0  0  0
  -22.7521  -29.4580   22.4892 C   0  0  0  0  0  0
  -18.0295  -28.1385   22.8492 C   0  0  0  0  0  0
  -24.1487  -36.7264   23.2640 C   0  0  0  0  0  0
  -25.9822  -30.7559   21.3791 C   0  0  0  0  0  0
  -26.0573  -29.3722   20.7271 C   0  0  0  0  0  0
  -27.2309  -28.5442   20.7287 C   0  0  0  0  0  0
  -26.0289  -26.8374   19.5055 C   0  0  0  0  0  0
  -24.8763  -27.6500   19.4933 C   0  0  0  0  0  0
  -23.6568  -29.8003   20.1570 C   0  0  0  0  0  0
  -25.4114  -36.3066   24.0334 C   0  0  1  0  0  0
  -20.5914  -28.3703   23.1272 C   0  0  2  0  0  0
  -20.6788  -26.9419   22.5413 C   0  0  0  0  0  0
  -19.5755  -26.6390   21.5224 C   0  0  0  0  0  0
  -18.1932  -26.7928   22.1628 C   0  0  0  0  0  0
  -19.1555  -28.8856   23.2875 C   0  0  0  0  0  0
  -18.9469  -30.1454   23.8895 C   0  0  0  0  0  0
  -17.6466  -30.6580   24.0567 C   0  0  0  0  0  0
  -25.9060  -34.9441   23.5098 C   0  0  0  0  0  0
  -16.5356  -29.9079   23.6337 C   0  0  0  0  0  0
  -16.7284  -28.6500   23.0353 C   0  0  0  0  0  0
  -26.4520  -31.6567   25.0702 C   0  0  0  0  0  0
  -25.3733  -31.3711   26.1408 C   0  0  0  0  0  0
  -27.0383  -30.2990   24.6195 C   0  0  0  0  0  0
  -27.6060  -32.4310   25.7484 C   0  0  0  0  0  0
  -27.5578  -37.1784   24.8465 C   0  0  0  0  0  0
  -21.4223  -29.3044   22.3644 N   0  0  0  0  0  0
  -26.4286  -37.3771   23.9416 N   0  0  0  0  0  0
  -24.7034  -31.0458   22.0934 N   0  0  0  0  0  0
  -23.4206  -28.8137   23.3010 O   0  0  0  0  0  0
  -28.3063  -26.3086   20.1285 O   0  0  0  0  0  0
  -26.5634  -34.8927   22.4667 O   0  0  0  0  0  0
  -23.5487  -32.1360   23.7214 O   0  0  0  0  0  0
  -29.4786  -18.6314   20.3134 C   0  0  0  0  0  0
  -31.0148  -17.6142   21.8976 C   0  0  0  0  0  0
  -30.7005  -20.0689   21.8668 C   0  0  0  0  0  0
  -30.0979  -17.4063   20.8495 C   0  0  0  0  0  0
  -29.7559  -19.9955   20.7997 C   0  0  0  0  0  0
  -31.3005  -18.8991   22.3958 C   0  0  0  0  0  0
  -28.8059  -23.7848   20.1470 C   0  0  0  0  0  0
  -28.1342  -24.9439   20.5563 C   0  0  0  0  0  0
  -28.6484  -22.4032   20.7715 C   0  0  0  0  0  0
  -31.1354  -21.4057   22.4578 C   0  0  0  0  0  0
  -29.2749  -21.2928   20.1923 N   0  0  0  0  0  0
  -29.7916  -15.9793   20.4858 N   0  0  0  0  0  0
  -27.9768  -22.2356   21.7918 O   0  0  0  0  0  0
  -32.1882  -19.0000   23.4151 F   0  0  0  0  0  0
  -31.4732  -12.6597   19.1597 H   0  0  0  0  0  0
  -30.4137  -11.5471   19.9861 H   0  0  0  0  0  0
  -29.8088  -11.7130   17.5470 H   0  0  0  0  0  0
  -29.6135  -13.4427   17.6933 H   0  0  0  0  0  0
  -27.9262  -11.2653   18.9602 H   0  0  0  0  0  0
  -27.3759  -12.4555   17.8117 H   0  0  0  0  0  0
  -27.6108  -14.2424   19.4288 H   0  0  0  0  0  0
  -28.7410  -12.2324   21.4388 H   0  0  0  0  0  0
  -28.4049  -13.9179   21.7607 H   0  0  0  0  0  0
  -25.2757   -9.5682   22.4774 H   0  0  0  0  0  0
  -23.9995   -7.4627   22.7476 H   0  0  0  0  0  0
  -21.0850   -8.8769   19.8934 H   0  0  0  0  0  0
  -22.3710  -10.9668   19.6159 H   0  0  0  0  0  0
  -21.2005   -7.6144   23.9713 H   0  0  0  0  0  0
  -21.1485   -6.0517   25.9073 H   0  0  0  0  0  0
  -22.0599   -2.7605   23.2845 H   0  0  0  0  0  0
  -22.4063  -11.9839   22.4783 H   0  0  0  0  0  0
  -21.1067  -13.1199   22.2641 H   0  0  0  0  0  0
  -24.6451  -15.8421   20.5147 H   0  0  0  0  0  0
  -26.2567  -15.6321   20.0611 H   0  0  0  0  0  0
  -26.7226  -32.5396   23.1050 H   0  0  0  0  0  0
  -25.0092  -33.9672   25.0408 H   0  0  0  0  0  0
  -22.7342  -31.2957   21.3870 H   0  0  0  0  0  0
  -23.3770  -35.9573   23.3288 H   0  0  0  0  0  0
  -24.3585  -36.8903   22.2057 H   0  0  0  0  0  0
  -23.7217  -37.6449   23.6674 H   0  0  0  0  0  0
  -26.1206  -31.5130   20.6058 H   0  0  0  0  0  0
  -26.8596  -30.8110   22.0117 H   0  0  0  0  0  0
  -28.1304  -28.8944   21.2161 H   0  0  0  0  0  0
  -25.9818  -25.8712   19.0240 H   0  0  0  0  0  0
  -23.9790  -27.2883   19.0099 H   0  0  0  0  0  0
  -23.7844  -30.5733   19.3990 H   0  0  0  0  0  0
  -22.7758  -29.2332   19.8507 H   0  0  0  0  0  0
  -25.1294  -36.1907   25.0828 H   0  0  0  0  0  0
  -21.0001  -28.3270   24.1395 H   0  0  0  0  0  0
  -20.5708  -26.2295   23.3613 H   0  0  0  0  0  0
  -21.6648  -26.7455   22.1186 H   0  0  0  0  0  0
  -19.6926  -25.6309   21.1228 H   0  0  0  0  0  0
  -19.6691  -27.3222   20.6776 H   0  0  0  0  0  0
  -17.4213  -26.6703   21.4015 H   0  0  0  0  0  0
  -18.0312  -26.0062   22.9015 H   0  0  0  0  0  0
  -19.7944  -30.7274   24.2257 H   0  0  0  0  0  0
  -17.5021  -31.6264   24.5158 H   0  0  0  0  0  0
  -15.5357  -30.2972   23.7663 H   0  0  0  0  0  0
  -15.8690  -28.0818   22.7060 H   0  0  0  0  0  0
  -24.5945  -30.7023   25.7731 H   0  0  0  0  0  0
  -24.8882  -32.2870   26.4785 H   0  0  0  0  0  0
  -25.8045  -30.8926   27.0212 H   0  0  0  0  0  0
  -26.2981  -29.6704   24.1233 H   0  0  0  0  0  0
  -27.4092  -29.7278   25.4716 H   0  0  0  0  0  0
  -27.8842  -30.4273   23.9437 H   0  0  0  0  0  0
  -27.2683  -33.3655   26.1973 H   0  0  0  0  0  0
  -28.3917  -32.6785   25.0334 H   0  0  0  0  0  0
  -28.0665  -31.8475   26.5463 H   0  0  0  0  0  0
  -28.2571  -38.0104   24.7537 H   0  0  0  0  0  0
  -28.1095  -36.2630   24.6259 H   0  0  0  0  0  0
  -27.2292  -37.1399   25.8866 H   0  0  0  0  0  0
  -20.9402  -29.8752   21.6842 H   0  0  0  0  0  0
  -26.0160  -38.2840   24.1431 H   0  0  0  0  0  0
  -28.7763  -18.5240   19.4987 H   0  0  0  0  0  0
  -31.5053  -16.7743   22.3658 H   0  0  0  0  0  0
  -29.5279  -23.8879   19.3509 H   0  0  0  0  0  0
  -27.3866  -24.8878   21.3360 H   0  0  0  0  0  0
  -30.3425  -21.8205   23.0805 H   0  0  0  0  0  0
  -31.3821  -22.1237   21.6756 H   0  0  0  0  0  0
  -32.0202  -21.3141   23.0870 H   0  0  0  0  0  0
  -29.6124  -21.4623   19.2544 H   0  0  0  0  0  0
  -28.8134  -15.7901   20.3338 H   0  0  0  0  0  0
  1 25  1  0  0  0
  1 30  2  0  0  0
  1 82  1  0  0  0
  2  3  1  0  0  0
  2 25  1  0  0  0
  2 85  1  0  0  0
  2 86  1  0  0  0
  3  4  1  0  0  0
  3 87  1  0  0  0
  3 88  1  0  0  0
  4  5  1  0  0  0
  4 89  1  0  0  0
  4 90  1  0  0  0
  5  6  1  0  0  0
  5 26  1  0  0  0
  5 91  1  0  0  0
  6 25  1  0  0  0
  6 92  1  0  0  0
  6 93  1  0  0  0
  7  8  2  0  0  0
  7 26  1  0  0  0
  7 29  1  0  0  0
  8  9  1  0  0  0
  8 22  1  0  0  0
  9 10  1  0  0  0
  9 27  2  0  0  0
 10 11  2  0  0  0
 10 15  1  0  0  0
 11 12  1  0  0  0
 11 94  1  0  0  0
 12 13  2  0  0  0
 12 95  1  0  0  0
 13 14  1  0  0  0
 13 31  1  0  0  0
 14 15  2  0  0  0
 14 96  1  0  0  0
 15 97  1  0  0  0
 16 17  2  0  0  0
 16 21  1  0  0  0
 16 31  1  0  0  0
 17 18  1  0  0  0
 17 98  1  0  0  0
 18 19  2  0  0  0
 18 99  1  0  0  0
 19 20  1  0  0  0
 19 24  1  0  0  0
 20 21  2  0  0  0
 20100  1  0  0  0
 21 23  1  0  0  0
 22 28  1  0  0  0
 22 32  2  0  0  0
 26 27  1  0  0  0
 28101  1  0  0  0
 28102  1  0  0  0
 29103  1  0  0  0
 29104  1  0  0  0
 33 34  1  0  0  0
 33 66  1  0  0  0
 33 70  2  0  0  0
 34 36  1  0  0  0
 34 59  1  0  0  0
 34105  1  0  0  0
 35 44  2  0  0  0
 35 45  1  0  0  0
 35 68  1  0  0  0
 36 56  1  0  0  0
 36106  1  0  0  0
 37 39  1  0  0  0
 37 47  1  0  0  0
 37 66  1  0  0  0
 37107  1  0  0  0
 38 43  2  0  0  0
 38 46  1  0  0  0
 38 47  1  0  0  0
 39 64  1  0  0  0
 39 67  2  0  0  0
 40 52  1  0  0  0
 40 53  2  0  0  0
 40 58  1  0  0  0
 41108  1  0  0  0
 41109  1  0  0  0
 41110  1  0  0  0
 41 48  1  0  0  0
 42 43  1  0  0  0
 42 66  1  0  0  0
 42111  1  0  0  0
 42112  1  0  0  0
 43 44  1  0  0  0
 44113  1  0  0  0
 45 46  2  0  0  0
 45114  1  0  0  0
 46115  1  0  0  0
 47116  1  0  0  0
 47117  1  0  0  0
 48 56  1  0  0  0
 48 65  1  0  0  0
 48118  1  0  0  0
 49 50  1  0  0  0
 49 53  1  0  0  0
 49 64  1  0  0  0
 49119  1  0  0  0
 50 51  1  0  0  0
 50120  1  0  0  0
 50121  1  0  0  0
 51 52  1  0  0  0
 51122  1  0  0  0
 51123  1  0  0  0
 52124  1  0  0  0
 52125  1  0  0  0
 53 54  1  0  0  0
 54 55  2  0  0  0
 54126  1  0  0  0
 55 57  1  0  0  0
 55127  1  0  0  0
 56 69  2  0  0  0
 57 58  2  0  0  0
 57128  1  0  0  0
 58129  1  0  0  0
 59 60  1  0  0  0
 59 61  1  0  0  0
 59 62  1  0  0  0
 60130  1  0  0  0
 60131  1  0  0  0
 60132  1  0  0  0
 61133  1  0  0  0
 61134  1  0  0  0
 61135  1  0  0  0
 62136  1  0  0  0
 62137  1  0  0  0
 62138  1  0  0  0
 63 65  1  0  0  0
 63139  1  0  0  0
 63140  1  0  0  0
 63141  1  0  0  0
 64142  1  0  0  0
 65143  1  0  0  0
 68 78  1  0  0  0
 71 74  2  0  0  0
 71 75  1  0  0  0
 71144  1  0  0  0
 72 74  1  0  0  0
 72 76  2  0  0  0
 72145  1  0  0  0
 73 75  2  0  0  0
 73 76  1  0  0  0
 73 80  1  0  0  0
 74 82  1  0  0  0
 75 81  1  0  0  0
 76 84  1  0  0  0
 77 78  2  0  0  0
 77 79  1  0  0  0
 77146  1  0  0  0
 78147  1  0  0  0
 79 81  1  0  0  0
 79 83  2  0  0  0
 80148  1  0  0  0
 80149  1  0  0  0
 80150  1  0  0  0
 81151  1  0  0  0
 82152  1  0  0  0
M  ISO  4   1 100  68 101  78 101  82 100
M  END
> <chiral flag>
0

> <version>
0

> <s_m_source_file>
/data/baiqing/PycharmProjects/Reinvent-master-3.2/result/LINK_invent/BTK/process_docking_weight1_custom_product_contain_oxygen_bond_distance_aromatic_linkinvent_7_9_3/rearranged_h_0062.sdf

> <i_m_source_file_index>
36

> <r_mmod_Potential_Energy-OPLS-2005>
248.461059570312

> <r_mmod_Stretch_Energy-OPLS-2005>
152.740753173828

> <r_mmod_Bend_Energy-OPLS-2005>
166.643112182617

> <r_mmod_Torsional_Energy-OPLS-2005>
272.050750732422

> <r_mmod_Improper_Torsional_Energy-OPLS-2005>
9.12741756439209

> <r_mmod_Van_der_Waal_Energy-OPLS-2005>
139.477172851562

> <r_mmod_Electrostatic_Energy-OPLS-2005>
-379.645385742188

> <r_mmod_Solvation_Energy-OPLS-2005>
-229.201797485352

> <b_mmod_Minimization_Converged-OPLS-2005>
0

> <r_mmod_RMS_Derivative-OPLS-2005>
1.48711609840393

$$$$
36
                    3D
 Structure written by MMmdl.
157165  0  0  1  0            999 V2000
  -30.6782  -14.5792   20.5322 C   0  0  0  0  0  0
  -30.4198  -12.3667   19.4407 C   0  0  0  0  0  0
  -29.4940  -12.4885   18.2123 C   0  0  0  0  0  0
  -28.0184  -12.3388   18.6307 C   0  0  0  0  0  0
  -27.6486  -13.2154   19.8562 C   0  0  2  0  0  0
  -28.6926  -13.0792   20.9865 C   0  0  0  0  0  0
  -25.2554  -13.8193   20.5690 C   0  0  0  0  0  0
  -24.1819  -13.0454   20.9204 C   0  0  0  0  0  0
  -24.6397  -11.6928   20.8763 C   0  0  0  0  0  0
  -23.9068  -10.4305   21.0423 C   0  0  0  0  0  0
  -24.3617   -9.4226   21.9203 C   0  0  0  0  0  0
  -23.6293   -8.2251   22.0762 C   0  0  0  0  0  0
  -22.4274   -8.0294   21.3556 C   0  0  0  0  0  0
  -21.9922   -9.0269   20.4645 C   0  0  0  0  0  0
  -22.7245  -10.2160   20.3071 C   0  0  0  0  0  0
  -21.6852   -6.0766   22.5281 C   0  0  0  0  0  0
  -21.4000   -6.5656   23.8215 C   0  0  0  0  0  0
  -21.3654   -5.6803   24.9175 C   0  0  0  0  0  0
  -21.6040   -4.3065   24.7217 C   0  0  0  0  0  0
  -21.8823   -3.8168   23.4333 C   0  0  0  0  0  0
  -21.9185   -4.6985   22.3395 C   0  0  0  0  0  0
  -22.7850  -13.5258   21.1859 C   0  0  0  0  0  0
  -22.1665   -4.2172   21.0972 F   0  0  0  0  0  0
  -21.5628   -3.4539   25.7733 F   0  0  0  0  0  0
  -30.0054  -13.3964   20.4131 N   0  0  0  0  0  0
  -26.2961  -12.9359   20.3291 N   0  0  0  0  0  0
  -25.9309  -11.6519   20.5753 N   0  0  0  0  0  0
  -22.0469  -12.8248   22.0399 N   0  0  0  0  0  0
  -25.4275  -15.1903   20.4076 N   0  0  0  0  0  0
  -31.8421  -14.6875   20.1352 O   0  0  0  0  0  0
  -21.6635   -6.8901   21.4245 O   0  0  0  0  0  0
  -22.3543  -14.5569   20.6707 O   0  0  0  0  0  0
  -24.6218  -31.8646   23.2081 C   0  0  0  0  0  0
  -25.9080  -32.4817   23.8395 C   0  0  1  0  0  0
  -27.2286  -27.3624   20.0932 C   0  0  0  0  0  0
  -25.5886  -33.8604   24.2329 N   0  0  0  0  0  0
  -23.4138  -30.4891   21.5452 C   0  0  2  0  0  0
  -24.8621  -28.9464   20.1124 C   0  0  0  0  0  0
  -22.7464  -29.4637   22.4922 C   0  0  0  0  0  0
  -18.0287  -28.1355   22.8454 C   0  0  0  0  0  0
  -24.1503  -36.7326   23.2633 C   0  0  0  0  0  0
  -25.9518  -30.8052   21.3751 C   0  0  0  0  0  0
  -26.0267  -29.4344   20.7168 C   0  0  0  0  0  0
  -27.2092  -28.6464   20.7089 C   0  0  0  0  0  0
  -26.0361  -26.9049   19.4883 C   0  0  0  0  0  0
  -24.8653  -27.6843   19.4960 C   0  0  0  0  0  0
  -23.6312  -29.8266   20.1586 C   0  0  0  0  0  0
  -25.4120  -36.3113   24.0332 C   0  0  1  0  0  0
  -20.5881  -28.3659   23.1288 C   0  0  2  0  0  0
  -20.6778  -26.9378   22.5395 C   0  0  0  0  0  0
  -19.5755  -26.6365   21.5173 C   0  0  0  0  0  0
  -18.1934  -26.7890   22.1593 C   0  0  0  0  0  0
  -19.1534  -28.8817   23.2877 C   0  0  0  0  0  0
  -18.9464  -30.1416   23.8905 C   0  0  0  0  0  0
  -17.6471  -30.6573   24.0530 C   0  0  0  0  0  0
  -25.9026  -34.9467   23.5141 C   0  0  0  0  0  0
  -16.5355  -29.9072   23.6294 C   0  0  0  0  0  0
  -16.7273  -28.6484   23.0319 C   0  0  0  0  0  0
  -26.4478  -31.6610   25.0752 C   0  0  0  0  0  0
  -25.3696  -31.3685   26.1469 C   0  0  0  0  0  0
  -27.0318  -30.3039   24.6171 C   0  0  0  0  0  0
  -27.6071  -32.4316   25.7512 C   0  0  0  0  0  0
  -27.5609  -37.1822   24.8459 C   0  0  0  0  0  0
  -21.4172  -29.3054   22.3708 N   0  0  0  0  0  0
  -26.4323  -37.3789   23.9398 N   0  0  0  0  0  0
  -24.6806  -31.0708   22.1000 N   0  0  0  0  0  0
  -23.4240  -28.8160   23.2947 O   0  0  0  0  0  0
  -28.3817  -26.5773   20.1342 O   0  0  0  0  0  0
  -26.5618  -34.8922   22.4724 O   0  0  0  0  0  0
  -23.5387  -32.1400   23.7435 O   0  0  0  0  0  0
  -32.2209  -18.3211   22.3502 C   0  0  0  0  0  0
  -31.7044  -17.0890   21.9255 C   0  0  0  0  0  0
  -29.7412  -18.2297   21.0233 C   0  0  0  0  0  0
  -31.5162  -19.5172   22.1234 C   0  0  0  0  0  0
  -30.4660  -17.0036   21.2504 C   0  0  0  0  0  0
  -30.2630  -19.5013   21.4528 C   0  0  0  0  0  0
  -29.1768  -21.5413   20.3495 C   0  0  0  0  0  0
  -32.1343  -20.8162   22.6279 C   0  0  0  0  0  0
  -29.0945  -23.0921   20.5994 C   0  0  0  0  0  0
  -28.0546  -23.9680   19.7997 C   0  0  0  0  0  0
  -28.5239  -25.3898   19.2944 C   0  0  0  0  0  0
  -29.5683  -20.7757   21.3990 N   0  0  0  0  0  0
  -29.9577  -15.6846   20.8982 N   0  0  0  0  0  0
  -28.8930  -21.0632   19.2483 O   0  0  0  0  0  0
  -31.4629  -12.4695   19.1354 H   0  0  0  0  0  0
  -30.3376  -11.3743   19.8862 H   0  0  0  0  0  0
  -29.7459  -11.7263   17.4745 H   0  0  0  0  0  0
  -29.6442  -13.4506   17.7227 H   0  0  0  0  0  0
  -27.8509  -11.2872   18.8667 H   0  0  0  0  0  0
  -27.3614  -12.5656   17.7905 H   0  0  0  0  0  0
  -27.6663  -14.2505   19.5100 H   0  0  0  0  0  0
  -28.6938  -12.0646   21.3852 H   0  0  0  0  0  0
  -28.4463  -13.7307   21.8264 H   0  0  0  0  0  0
  -25.2762   -9.5699   22.4790 H   0  0  0  0  0  0
  -23.9995   -7.4648   22.7494 H   0  0  0  0  0  0
  -21.0849   -8.8801   19.8941 H   0  0  0  0  0  0
  -22.3706  -10.9713   19.6187 H   0  0  0  0  0  0
  -21.1995   -7.6159   23.9726 H   0  0  0  0  0  0
  -21.1468   -6.0531   25.9083 H   0  0  0  0  0  0
  -22.0604   -2.7625   23.2824 H   0  0  0  0  0  0
  -22.4051  -11.9889   22.4771 H   0  0  0  0  0  0
  -21.1100  -13.1306   22.2604 H   0  0  0  0  0  0
  -24.6626  -15.8468   20.5210 H   0  0  0  0  0  0
  -26.2711  -15.6251   20.0575 H   0  0  0  0  0  0
  -26.7165  -32.5512   23.1161 H   0  0  0  0  0  0
  -24.9970  -33.9739   25.0434 H   0  0  0  0  0  0
  -22.7052  -31.3085   21.4055 H   0  0  0  0  0  0
  -23.3770  -35.9662   23.3281 H   0  0  0  0  0  0
  -24.3546  -36.8941   22.2043 H   0  0  0  0  0  0
  -23.7247  -37.6516   23.6666 H   0  0  0  0  0  0
  -26.0728  -31.5751   20.6125 H   0  0  0  0  0  0
  -26.8361  -30.8594   21.9982 H   0  0  0  0  0  0
  -28.1066  -29.0104   21.1900 H   0  0  0  0  0  0
  -25.9822  -25.9301   19.0269 H   0  0  0  0  0  0
  -23.9652  -27.3028   19.0336 H   0  0  0  0  0  0
  -23.7523  -30.6071   19.4050 H   0  0  0  0  0  0
  -22.7524  -29.2561   19.8524 H   0  0  0  0  0  0
  -25.1293  -36.1981   25.0820 H   0  0  0  0  0  0
  -20.9963  -28.3246   24.1406 H   0  0  0  0  0  0
  -20.5627  -26.2268   23.3595 H   0  0  0  0  0  0
  -21.6664  -26.7403   22.1207 H   0  0  0  0  0  0
  -19.6912  -25.6268   21.1211 H   0  0  0  0  0  0
  -19.6704  -27.3186   20.6708 H   0  0  0  0  0  0
  -17.4183  -26.6594   21.4019 H   0  0  0  0  0  0
  -18.0367  -26.0056   22.9023 H   0  0  0  0  0  0
  -19.7958  -30.7191   24.2336 H   0  0  0  0  0  0
  -17.5033  -31.6255   24.5141 H   0  0  0  0  0  0
  -15.5347  -30.2979   23.7623 H   0  0  0  0  0  0
  -15.8660  -28.0814   22.7021 H   0  0  0  0  0  0
  -24.5926  -30.6987   25.7762 H   0  0  0  0  0  0
  -24.8812  -32.2807   26.4916 H   0  0  0  0  0  0
  -25.8007  -30.8848   27.0247 H   0  0  0  0  0  0
  -26.2886  -29.6792   24.1207 H   0  0  0  0  0  0
  -27.4024  -29.7288   25.4675 H   0  0  0  0  0  0
  -27.8766  -30.4323   23.9390 H   0  0  0  0  0  0
  -27.2741  -33.3644   26.2090 H   0  0  0  0  0  0
  -28.3896  -32.6809   25.0323 H   0  0  0  0  0  0
  -28.0742  -31.8404   26.5399 H   0  0  0  0  0  0
  -28.2613  -38.0148   24.7527 H   0  0  0  0  0  0
  -28.1126  -36.2659   24.6288 H   0  0  0  0  0  0
  -27.2299  -37.1453   25.8856 H   0  0  0  0  0  0
  -20.9338  -29.8836   21.6975 H   0  0  0  0  0  0
  -26.0226  -38.2874   24.1380 H   0  0  0  0  0  0
  -33.1661  -18.3367   22.8743 H   0  0  0  0  0  0
  -32.2760  -16.2009   22.1502 H   0  0  0  0  0  0
  -28.7728  -18.1942   20.5440 H   0  0  0  0  0  0
  -33.1641  -20.6744   22.9607 H   0  0  0  0  0  0
  -31.5702  -21.2122   23.4727 H   0  0  0  0  0  0
  -32.1576  -21.5686   21.8389 H   0  0  0  0  0  0
  -30.0954  -23.4609   20.3745 H   0  0  0  0  0  0
  -28.9574  -23.2833   21.6632 H   0  0  0  0  0  0
  -27.1283  -24.0648   20.3642 H   0  0  0  0  0  0
  -27.7708  -23.4093   18.9070 H   0  0  0  0  0  0
  -28.0551  -25.5897   18.3301 H   0  0  0  0  0  0
  -29.5814  -25.3178   19.0420 H   0  0  0  0  0  0
  -29.7183  -21.3404   22.2232 H   0  0  0  0  0  0
  -28.9612  -15.5496   20.9751 H   0  0  0  0  0  0
  1 25  1  0  0  0
  1 30  2  0  0  0
  1 83  1  0  0  0
  2  3  1  0  0  0
  2 25  1  0  0  0
  2 85  1  0  0  0
  2 86  1  0  0  0
  3  4  1  0  0  0
  3 87  1  0  0  0
  3 88  1  0  0  0
  4  5  1  0  0  0
  4 89  1  0  0  0
  4 90  1  0  0  0
  5  6  1  0  0  0
  5 26  1  0  0  0
  5 91  1  0  0  0
  6 25  1  0  0  0
  6 92  1  0  0  0
  6 93  1  0  0  0
  7  8  2  0  0  0
  7 26  1  0  0  0
  7 29  1  0  0  0
  8  9  1  0  0  0
  8 22  1  0  0  0
  9 10  1  0  0  0
  9 27  2  0  0  0
 10 11  2  0  0  0
 10 15  1  0  0  0
 11 12  1  0  0  0
 11 94  1  0  0  0
 12 13  2  0  0  0
 12 95  1  0  0  0
 13 14  1  0  0  0
 13 31  1  0  0  0
 14 15  2  0  0  0
 14 96  1  0  0  0
 15 97  1  0  0  0
 16 17  2  0  0  0
 16 21  1  0  0  0
 16 31  1  0  0  0
 17 18  1  0  0  0
 17 98  1  0  0  0
 18 19  2  0  0  0
 18 99  1  0  0  0
 19 20  1  0  0  0
 19 24  1  0  0  0
 20 21  2  0  0  0
 20100  1  0  0  0
 21 23  1  0  0  0
 22 28  1  0  0  0
 22 32  2  0  0  0
 26 27  1  0  0  0
 28101  1  0  0  0
 28102  1  0  0  0
 29103  1  0  0  0
 29104  1  0  0  0
 33 34  1  0  0  0
 33 66  1  0  0  0
 33 70  2  0  0  0
 34 36  1  0  0  0
 34 59  1  0  0  0
 34105  1  0  0  0
 35 44  2  0  0  0
 35 45  1  0  0  0
 35 68  1  0  0  0
 36 56  1  0  0  0
 36106  1  0  0  0
 37 39  1  0  0  0
 37 47  1  0  0  0
 37 66  1  0  0  0
 37107  1  0  0  0
 38 43  2  0  0  0
 38 46  1  0  0  0
 38 47  1  0  0  0
 39 64  1  0  0  0
 39 67  2  0  0  0
 40 52  1  0  0  0
 40 53  2  0  0  0
 40 58  1  0  0  0
 41108  1  0  0  0
 41109  1  0  0  0
 41110  1  0  0  0
 41 48  1  0  0  0
 42 43  1  0  0  0
 42 66  1  0  0  0
 42111  1  0  0  0
 42112  1  0  0  0
 43 44  1  0  0  0
 44113  1  0  0  0
 45 46  2  0  0  0
 45114  1  0  0  0
 46115  1  0  0  0
 47116  1  0  0  0
 47117  1  0  0  0
 48 56  1  0  0  0
 48 65  1  0  0  0
 48118  1  0  0  0
 49 50  1  0  0  0
 49 53  1  0  0  0
 49 64  1  0  0  0
 49119  1  0  0  0
 50 51  1  0  0  0
 50120  1  0  0  0
 50121  1  0  0  0
 51 52  1  0  0  0
 51122  1  0  0  0
 51123  1  0  0  0
 52124  1  0  0  0
 52125  1  0  0  0
 53 54  1  0  0  0
 54 55  2  0  0  0
 54126  1  0  0  0
 55 57  1  0  0  0
 55127  1  0  0  0
 56 69  2  0  0  0
 57 58  2  0  0  0
 57128  1  0  0  0
 58129  1  0  0  0
 59 60  1  0  0  0
 59 61  1  0  0  0
 59 62  1  0  0  0
 60130  1  0  0  0
 60131  1  0  0  0
 60132  1  0  0  0
 61133  1  0  0  0
 61134  1  0  0  0
 61135  1  0  0  0
 62136  1  0  0  0
 62137  1  0  0  0
 62138  1  0  0  0
 63 65  1  0  0  0
 63139  1  0  0  0
 63140  1  0  0  0
 63141  1  0  0  0
 64142  1  0  0  0
 65143  1  0  0  0
 68 81  1  0  0  0
 71 72  2  0  0  0
 71 74  1  0  0  0
 71144  1  0  0  0
 72 75  1  0  0  0
 72145  1  0  0  0
 73 75  2  0  0  0
 73 76  1  0  0  0
 73146  1  0  0  0
 74 76  2  0  0  0
 74 78  1  0  0  0
 75 83  1  0  0  0
 76 82  1  0  0  0
 77 79  1  0  0  0
 77 82  1  0  0  0
 77 84  2  0  0  0
 78147  1  0  0  0
 78148  1  0  0  0
 78149  1  0  0  0
 79 80  1  0  0  0
 79150  1  0  0  0
 79151  1  0  0  0
 80 81  1  0  0  0
 80152  1  0  0  0
 80153  1  0  0  0
 81154  1  0  0  0
 81155  1  0  0  0
 82156  1  0  0  0
 83157  1  0  0  0
M  ISO  4   1 100  68 101  81 101  83 100
M  END
> <chiral flag>
0

> <version>
0

> <s_m_source_file>
/data/baiqing/PycharmProjects/Reinvent-master-3.2/result/LINK_invent/BTK/process_docking_weight1_custom_product_contain_oxygen_bond_distance_aromatic_linkinvent_7_9_3/rearranged_h_0062.sdf

> <i_m_source_file_index>
37

> <r_mmod_Potential_Energy-OPLS-2005>
-13.0477952957153

> <r_mmod_Stretch_Energy-OPLS-2005>
66.0539016723633

> <r_mmod_Bend_Energy-OPLS-2005>
141.347045898438

> <r_mmod_Torsional_Energy-OPLS-2005>
251.534240722656

> <r_mmod_Improper_Torsional_Energy-OPLS-2005>
6.97566699981689

> <r_mmod_Van_der_Waal_Energy-OPLS-2005>
149.191589355469

> <r_mmod_Electrostatic_Energy-OPLS-2005>
-428.111572265625

> <r_mmod_Solvation_Energy-OPLS-2005>
-232.091949462891

> <b_mmod_Minimization_Converged-OPLS-2005>
0

> <r_mmod_RMS_Derivative-OPLS-2005>
3.40348958969116

$$$$
37
                    3D
 Structure written by MMmdl.
168176  0  0  1  0            999 V2000
  -30.7546  -14.3706   20.6550 C   0  0  0  0  0  0
  -30.4106  -12.2804   19.3999 C   0  0  0  0  0  0
  -29.4832  -12.5173   18.1936 C   0  0  0  0  0  0
  -28.0052  -12.3819   18.6080 C   0  0  0  0  0  0
  -27.6629  -13.2025   19.8807 C   0  0  2  0  0  0
  -28.6995  -12.9428   20.9955 C   0  0  0  0  0  0
  -25.2575  -13.8154   20.5672 C   0  0  0  0  0  0
  -24.1826  -13.0438   20.9173 C   0  0  0  0  0  0
  -24.6373  -11.6904   20.8729 C   0  0  0  0  0  0
  -23.9040  -10.4292   21.0399 C   0  0  0  0  0  0
  -24.3600   -9.4212   21.9177 C   0  0  0  0  0  0
  -23.6287   -8.2243   22.0747 C   0  0  0  0  0  0
  -22.4267   -8.0276   21.3543 C   0  0  0  0  0  0
  -21.9896   -9.0242   20.4640 C   0  0  0  0  0  0
  -22.7213  -10.2129   20.3047 C   0  0  0  0  0  0
  -21.6850   -6.0730   22.5281 C   0  0  0  0  0  0
  -21.4013   -6.5636   23.8213 C   0  0  0  0  0  0
  -21.3663   -5.6790   24.9176 C   0  0  0  0  0  0
  -21.6044   -4.3052   24.7228 C   0  0  0  0  0  0
  -21.8818   -3.8143   23.4350 C   0  0  0  0  0  0
  -21.9194   -4.6959   22.3405 C   0  0  0  0  0  0
  -22.7849  -13.5244   21.1858 C   0  0  0  0  0  0
  -22.1661   -4.2145   21.0982 F   0  0  0  0  0  0
  -21.5632   -3.4535   25.7741 F   0  0  0  0  0  0
  -30.0383  -13.2358   20.4526 N   0  0  0  0  0  0
  -26.3017  -12.9322   20.3378 N   0  0  0  0  0  0
  -25.9297  -11.6481   20.5748 N   0  0  0  0  0  0
  -22.0489  -12.8229   22.0407 N   0  0  0  0  0  0
  -25.4309  -15.1872   20.4088 N   0  0  0  0  0  0
  -31.8054  -14.6146   20.0513 O   0  0  0  0  0  0
  -21.6637   -6.8873   21.4242 O   0  0  0  0  0  0
  -22.3542  -14.5557   20.6718 O   0  0  0  0  0  0
  -24.6122  -31.8702   23.2110 C   0  0  0  0  0  0
  -25.9033  -32.4818   23.8388 C   0  0  1  0  0  0
  -27.2243  -27.4515   20.0666 C   0  0  0  0  0  0
  -25.5901  -33.8620   24.2313 N   0  0  0  0  0  0
  -23.3975  -30.4948   21.5534 C   0  0  2  0  0  0
  -24.8365  -28.9640   20.1134 C   0  0  0  0  0  0
  -22.7402  -29.4672   22.5012 C   0  0  0  0  0  0
  -18.0289  -28.1392   22.8479 C   0  0  0  0  0  0
  -24.1496  -36.7310   23.2637 C   0  0  0  0  0  0
  -25.9273  -30.8338   21.3666 C   0  0  0  0  0  0
  -25.9979  -29.4732   20.7056 C   0  0  0  0  0  0
  -27.1940  -28.7244   20.6775 C   0  0  0  0  0  0
  -26.0453  -26.9579   19.4620 C   0  0  0  0  0  0
  -24.8530  -27.7029   19.4934 C   0  0  0  0  0  0
  -23.5999  -29.8295   20.1674 C   0  0  0  0  0  0
  -25.4120  -36.3105   24.0331 C   0  0  1  0  0  0
  -20.5873  -28.3652   23.1328 C   0  0  2  0  0  0
  -20.6781  -26.9395   22.5412 C   0  0  0  0  0  0
  -19.5763  -26.6398   21.5209 C   0  0  0  0  0  0
  -18.1937  -26.7941   22.1618 C   0  0  0  0  0  0
  -19.1536  -28.8849   23.2887 C   0  0  0  0  0  0
  -18.9465  -30.1463   23.8885 C   0  0  0  0  0  0
  -17.6465  -30.6585   24.0570 C   0  0  0  0  0  0
  -25.9049  -34.9468   23.5117 C   0  0  0  0  0  0
  -16.5355  -29.9082   23.6345 C   0  0  0  0  0  0
  -16.7277  -28.6515   23.0334 C   0  0  0  0  0  0
  -26.4458  -31.6605   25.0725 C   0  0  0  0  0  0
  -25.3727  -31.3730   26.1479 C   0  0  0  0  0  0
  -27.0277  -30.3045   24.6098 C   0  0  0  0  0  0
  -27.6029  -32.4329   25.7487 C   0  0  0  0  0  0
  -27.5588  -37.1813   24.8468 C   0  0  0  0  0  0
  -21.4137  -29.3023   22.3742 N   0  0  0  0  0  0
  -26.4303  -37.3791   23.9413 N   0  0  0  0  0  0
  -24.6636  -31.0818   22.1003 N   0  0  0  0  0  0
  -23.4189  -28.8223   23.3047 O   0  0  0  0  0  0
  -28.4166  -26.7633   20.0475 O   0  0  0  0  0  0
  -26.5616  -34.8914   22.4684 O   0  0  0  0  0  0
  -23.5328  -32.1471   23.7512 O   0  0  0  0  0  0
  -32.8136  -17.6569   22.7536 C   0  0  0  0  0  0
  -32.2172  -16.4672   22.3103 C   0  0  0  0  0  0
  -30.0667  -17.6037   22.1485 C   0  0  0  0  0  0
  -30.6599  -18.8114   22.5903 C   0  0  0  0  0  0
  -32.0515  -18.8338   22.9015 C   0  0  0  0  0  0
  -30.8425  -16.4349   21.9880 C   0  0  0  0  0  0
  -29.8086  -20.0005   22.7373 C   0  0  0  0  0  0
  -32.7722  -20.0699   23.4265 C   0  0  0  0  0  0
  -28.3645  -25.2696   22.5639 C   0  0  0  0  0  0
  -30.5694  -25.3571   21.3297 C   0  0  0  0  0  0
  -29.1653  -23.2422   21.2309 C   0  0  0  0  0  0
  -29.6871  -22.5297   22.4955 C   0  0  0  0  0  0
  -28.3961  -25.3307   20.0561 C   0  0  0  0  0  0
  -29.1296  -24.7962   21.3090 C   0  0  0  0  0  0
  -28.6539  -19.9204   23.3954 N   0  0  0  0  0  0
  -30.2278  -15.2381   21.5335 N   0  0  0  0  0  0
  -30.2047  -21.1760   22.2252 N   0  3  0  0  0  0
  -31.4549  -12.3725   19.0967 H   0  0  0  0  0  0
  -30.3019  -11.2605   19.7715 H   0  0  0  0  0  0
  -29.7149  -11.8091   17.3971 H   0  0  0  0  0  0
  -29.6590  -13.5116   17.7798 H   0  0  0  0  0  0
  -27.8061  -11.3241   18.7839 H   0  0  0  0  0  0
  -27.3549  -12.6793   17.7844 H   0  0  0  0  0  0
  -27.7212  -14.2575   19.6113 H   0  0  0  0  0  0
  -28.6586  -11.8972   21.3052 H   0  0  0  0  0  0
  -28.4540  -13.5149   21.8906 H   0  0  0  0  0  0
  -25.2746   -9.5697   22.4747 H   0  0  0  0  0  0
  -24.0002   -7.4635   22.7461 H   0  0  0  0  0  0
  -21.0830   -8.8755   19.8942 H   0  0  0  0  0  0
  -22.3669  -10.9666   19.6153 H   0  0  0  0  0  0
  -21.2001   -7.6142   23.9719 H   0  0  0  0  0  0
  -21.1487   -6.0517   25.9080 H   0  0  0  0  0  0
  -22.0594   -2.7605   23.2849 H   0  0  0  0  0  0
  -22.4095  -11.9886   22.4799 H   0  0  0  0  0  0
  -21.1103  -13.1249   22.2606 H   0  0  0  0  0  0
  -24.6644  -15.8432   20.5112 H   0  0  0  0  0  0
  -26.2854  -15.6251   20.0881 H   0  0  0  0  0  0
  -26.7084  -32.5509   23.1126 H   0  0  0  0  0  0
  -25.0021  -33.9793   25.0433 H   0  0  0  0  0  0
  -22.6838  -31.3106   21.4183 H   0  0  0  0  0  0
  -23.3744  -35.9658   23.3317 H   0  0  0  0  0  0
  -24.3584  -36.8920   22.2048 H   0  0  0  0  0  0
  -23.7260  -37.6527   23.6640 H   0  0  0  0  0  0
  -26.0565  -31.6059   20.6071 H   0  0  0  0  0  0
  -26.8102  -30.8679   21.9937 H   0  0  0  0  0  0
  -28.0951  -29.1203   21.1237 H   0  0  0  0  0  0
  -26.0322  -26.0136   18.9361 H   0  0  0  0  0  0
  -23.9599  -27.3130   19.0245 H   0  0  0  0  0  0
  -23.6954  -30.6043   19.4061 H   0  0  0  0  0  0
  -22.7259  -29.2438   19.8797 H   0  0  0  0  0  0
  -25.1294  -36.1963   25.0823 H   0  0  0  0  0  0
  -20.9948  -28.3196   24.1454 H   0  0  0  0  0  0
  -20.5721  -26.2236   23.3575 H   0  0  0  0  0  0
  -21.6644  -26.7472   22.1178 H   0  0  0  0  0  0
  -19.6923  -25.6316   21.1225 H   0  0  0  0  0  0
  -19.6724  -27.3219   20.6746 H   0  0  0  0  0  0
  -17.4211  -26.6691   21.4011 H   0  0  0  0  0  0
  -18.0320  -26.0091   22.9023 H   0  0  0  0  0  0
  -19.7944  -30.7288   24.2215 H   0  0  0  0  0  0
  -17.5030  -31.6264   24.5173 H   0  0  0  0  0  0
  -15.5355  -30.2975   23.7704 H   0  0  0  0  0  0
  -15.8679  -28.0855   22.7021 H   0  0  0  0  0  0
  -24.5871  -30.7107   25.7829 H   0  0  0  0  0  0
  -24.8941  -32.2894   26.4948 H   0  0  0  0  0  0
  -25.8079  -30.8884   27.0228 H   0  0  0  0  0  0
  -26.2815  -29.6832   24.1133 H   0  0  0  0  0  0
  -27.4029  -29.7264   25.4554 H   0  0  0  0  0  0
  -27.8659  -30.4373   23.9256 H   0  0  0  0  0  0
  -27.2628  -33.3602   26.2114 H   0  0  0  0  0  0
  -28.3803  -32.6953   25.0295 H   0  0  0  0  0  0
  -28.0726  -31.8426   26.5369 H   0  0  0  0  0  0
  -28.2602  -38.0109   24.7502 H   0  0  0  0  0  0
  -28.1077  -36.2640   24.6295 H   0  0  0  0  0  0
  -27.2301  -37.1467   25.8869 H   0  0  0  0  0  0
  -20.9292  -29.8703   21.6936 H   0  0  0  0  0  0
  -26.0186  -38.2869   24.1414 H   0  0  0  0  0  0
  -33.8684  -17.6516   22.9915 H   0  0  0  0  0  0
  -32.8304  -15.5820   22.2236 H   0  0  0  0  0  0
  -29.0133  -17.5827   21.9043 H   0  0  0  0  0  0
  -33.7257  -19.8038   23.8834 H   0  0  0  0  0  0
  -32.1875  -20.5840   24.1898 H   0  0  0  0  0  0
  -32.9845  -20.7679   22.6162 H   0  0  0  0  0  0
  -28.2945  -26.3576   22.5963 H   0  0  0  0  0  0
  -28.8501  -24.9588   23.4886 H   0  0  0  0  0  0
  -27.3440  -24.8855   22.5770 H   0  0  0  0  0  0
  -31.1242  -25.0566   20.4400 H   0  0  0  0  0  0
  -31.1356  -25.0199   22.1961 H   0  0  0  0  0  0
  -30.5742  -26.4471   21.3652 H   0  0  0  0  0  0
  -28.1535  -22.8770   21.0470 H   0  0  0  0  0  0
  -29.7430  -22.9320   20.3594 H   0  0  0  0  0  0
  -28.9176  -22.5163   23.2670 H   0  0  0  0  0  0
  -30.5175  -23.0890   22.9235 H   0  0  0  0  0  0
  -27.3966  -24.9006   20.0559 H   0  0  0  0  0  0
  -28.8807  -24.9758   19.1456 H   0  0  0  0  0  0
  -28.3926  -19.0482   23.8311 H   0  0  0  0  0  0
  -28.0232  -20.6998   23.4757 H   0  0  0  0  0  0
  -29.3025  -15.0269   21.8748 H   0  0  0  0  0  0
  -31.0579  -21.1317   21.6814 H   0  0  0  0  0  0
  1 25  1  0  0  0
  1 30  2  0  0  0
  1 86  1  0  0  0
  2  3  1  0  0  0
  2 25  1  0  0  0
  2 88  1  0  0  0
  2 89  1  0  0  0
  3  4  1  0  0  0
  3 90  1  0  0  0
  3 91  1  0  0  0
  4  5  1  0  0  0
  4 92  1  0  0  0
  4 93  1  0  0  0
  5  6  1  0  0  0
  5 26  1  0  0  0
  5 94  1  0  0  0
  6 25  1  0  0  0
  6 95  1  0  0  0
  6 96  1  0  0  0
  7  8  2  0  0  0
  7 26  1  0  0  0
  7 29  1  0  0  0
  8  9  1  0  0  0
  8 22  1  0  0  0
  9 10  1  0  0  0
  9 27  2  0  0  0
 10 11  2  0  0  0
 10 15  1  0  0  0
 11 12  1  0  0  0
 11 97  1  0  0  0
 12 13  2  0  0  0
 12 98  1  0  0  0
 13 14  1  0  0  0
 13 31  1  0  0  0
 14 15  2  0  0  0
 14 99  1  0  0  0
 15100  1  0  0  0
 16 17  2  0  0  0
 16 21  1  0  0  0
 16 31  1  0  0  0
 17 18  1  0  0  0
 17101  1  0  0  0
 18 19  2  0  0  0
 18102  1  0  0  0
 19 20  1  0  0  0
 19 24  1  0  0  0
 20 21  2  0  0  0
 20103  1  0  0  0
 21 23  1  0  0  0
 22 28  1  0  0  0
 22 32  2  0  0  0
 26 27  1  0  0  0
 28104  1  0  0  0
 28105  1  0  0  0
 29106  1  0  0  0
 29107  1  0  0  0
 33 34  1  0  0  0
 33 66  1  0  0  0
 33 70  2  0  0  0
 34 36  1  0  0  0
 34 59  1  0  0  0
 34108  1  0  0  0
 35 44  2  0  0  0
 35 45  1  0  0  0
 35 68  1  0  0  0
 36 56  1  0  0  0
 36109  1  0  0  0
 37 39  1  0  0  0
 37 47  1  0  0  0
 37 66  1  0  0  0
 37110  1  0  0  0
 38 43  2  0  0  0
 38 46  1  0  0  0
 38 47  1  0  0  0
 39 64  1  0  0  0
 39 67  2  0  0  0
 40 52  1  0  0  0
 40 53  2  0  0  0
 40 58  1  0  0  0
 41111  1  0  0  0
 41112  1  0  0  0
 41113  1  0  0  0
 41 48  1  0  0  0
 42 43  1  0  0  0
 42 66  1  0  0  0
 42114  1  0  0  0
 42115  1  0  0  0
 43 44  1  0  0  0
 44116  1  0  0  0
 45 46  2  0  0  0
 45117  1  0  0  0
 46118  1  0  0  0
 47119  1  0  0  0
 47120  1  0  0  0
 48 56  1  0  0  0
 48 65  1  0  0  0
 48121  1  0  0  0
 49 50  1  0  0  0
 49 53  1  0  0  0
 49 64  1  0  0  0
 49122  1  0  0  0
 50 51  1  0  0  0
 50123  1  0  0  0
 50124  1  0  0  0
 51 52  1  0  0  0
 51125  1  0  0  0
 51126  1  0  0  0
 52127  1  0  0  0
 52128  1  0  0  0
 53 54  1  0  0  0
 54 55  2  0  0  0
 54129  1  0  0  0
 55 57  1  0  0  0
 55130  1  0  0  0
 56 69  2  0  0  0
 57 58  2  0  0  0
 57131  1  0  0  0
 58132  1  0  0  0
 59 60  1  0  0  0
 59 61  1  0  0  0
 59 62  1  0  0  0
 60133  1  0  0  0
 60134  1  0  0  0
 60135  1  0  0  0
 61136  1  0  0  0
 61137  1  0  0  0
 61138  1  0  0  0
 62139  1  0  0  0
 62140  1  0  0  0
 62141  1  0  0  0
 63 65  1  0  0  0
 63142  1  0  0  0
 63143  1  0  0  0
 63144  1  0  0  0
 64145  1  0  0  0
 65146  1  0  0  0
 68 83  1  0  0  0
 71 72  2  0  0  0
 71 75  1  0  0  0
 71147  1  0  0  0
 72 76  1  0  0  0
 72148  1  0  0  0
 73 74  1  0  0  0
 73 76  2  0  0  0
 73149  1  0  0  0
 74 75  2  0  0  0
 74 77  1  0  0  0
 75 78  1  0  0  0
 76 86  1  0  0  0
 77 85  1  0  0  0
 77 87  2  0  0  0
 78150  1  0  0  0
 78151  1  0  0  0
 78152  1  0  0  0
 79153  1  0  0  0
 79154  1  0  0  0
 79155  1  0  0  0
 79 84  1  0  0  0
 80 84  1  0  0  0
 80156  1  0  0  0
 80157  1  0  0  0
 80158  1  0  0  0
 81 82  1  0  0  0
 81 84  1  0  0  0
 81159  1  0  0  0
 81160  1  0  0  0
 82 87  1  0  0  0
 82161  1  0  0  0
 82162  1  0  0  0
 83 84  1  0  0  0
 83163  1  0  0  0
 83164  1  0  0  0
 85165  1  0  0  0
 85166  1  0  0  0
 86167  1  0  0  0
 87168  1  0  0  0
M  CHG  1  87   1
M  ISO  4   1 100  68 101  83 101  86 100
M  END
> <chiral flag>
0

> <version>
0

> <s_m_source_file>
/data/baiqing/PycharmProjects/Reinvent-master-3.2/result/LINK_invent/BTK/process_docking_weight1_custom_product_contain_oxygen_bond_distance_aromatic_linkinvent_7_9_3/rearranged_h_0062.sdf

> <i_m_source_file_index>
38

> <r_mmod_Potential_Energy-OPLS-2005>
-221.996566772461

> <r_mmod_Stretch_Energy-OPLS-2005>
35.2745933532715

> <r_mmod_Bend_Energy-OPLS-2005>
103.741920471191

> <r_mmod_Torsional_Energy-OPLS-2005>
234.898498535156

> <r_mmod_Improper_Torsional_Energy-OPLS-2005>
2.09390234947205

> <r_mmod_Van_der_Waal_Energy-OPLS-2005>
173.410934448242

> <r_mmod_Electrostatic_Energy-OPLS-2005>
-379.629089355469

> <r_mmod_Solvation_Energy-OPLS-2005>
-400.252410888672

> <b_mmod_Minimization_Converged-OPLS-2005>
0

> <r_mmod_RMS_Derivative-OPLS-2005>
2.03529167175293

$$$$
38
                    3D
 Structure written by MMmdl.
168177  0  0  1  0            999 V2000
  -30.7197  -14.5240   20.5251 C   0  0  0  0  0  0
  -30.4053  -12.3240   19.4498 C   0  0  0  0  0  0
  -29.4931  -12.5024   18.2192 C   0  0  0  0  0  0
  -28.0136  -12.3681   18.6250 C   0  0  0  0  0  0
  -27.6529  -13.2241   19.8700 C   0  0  2  0  0  0
  -28.6971  -13.0685   21.0008 C   0  0  0  0  0  0
  -25.2565  -13.8195   20.5745 C   0  0  0  0  0  0
  -24.1826  -13.0453   20.9204 C   0  0  0  0  0  0
  -24.6398  -11.6920   20.8738 C   0  0  0  0  0  0
  -23.9077  -10.4295   21.0396 C   0  0  0  0  0  0
  -24.3626   -9.4212   21.9178 C   0  0  0  0  0  0
  -23.6305   -8.2245   22.0756 C   0  0  0  0  0  0
  -22.4288   -8.0281   21.3545 C   0  0  0  0  0  0
  -21.9916   -9.0244   20.4644 C   0  0  0  0  0  0
  -22.7243  -10.2126   20.3053 C   0  0  0  0  0  0
  -21.6859   -6.0749   22.5282 C   0  0  0  0  0  0
  -21.4005   -6.5651   23.8213 C   0  0  0  0  0  0
  -21.3664   -5.6804   24.9172 C   0  0  0  0  0  0
  -21.6047   -4.3065   24.7221 C   0  0  0  0  0  0
  -21.8814   -3.8160   23.4337 C   0  0  0  0  0  0
  -21.9192   -4.6980   22.3396 C   0  0  0  0  0  0
  -22.7852  -13.5248   21.1853 C   0  0  0  0  0  0
  -22.1665   -4.2174   21.0973 F   0  0  0  0  0  0
  -21.5634   -3.4544   25.7730 F   0  0  0  0  0  0
  -30.0215  -13.3549   20.4331 N   0  0  0  0  0  0
  -26.2990  -12.9387   20.3386 N   0  0  0  0  0  0
  -25.9331  -11.6528   20.5771 N   0  0  0  0  0  0
  -22.0498  -12.8221   22.0394 N   0  0  0  0  0  0
  -25.4304  -15.1916   20.4203 N   0  0  0  0  0  0
  -31.8636  -14.6002   20.0767 O   0  0  0  0  0  0
  -21.6653   -6.8884   21.4242 O   0  0  0  0  0  0
  -22.3544  -14.5563   20.6727 O   0  0  0  0  0  0
  -24.6179  -31.8646   23.2080 C   0  0  0  0  0  0
  -25.9056  -32.4802   23.8394 C   0  0  1  0  0  0
  -27.2327  -27.4049   20.1133 C   0  0  0  0  0  0
  -25.5916  -33.8606   24.2335 N   0  0  0  0  0  0
  -23.4082  -30.4864   21.5489 C   0  0  2  0  0  0
  -24.8562  -28.9419   20.1211 C   0  0  0  0  0  0
  -22.7419  -29.4660   22.4997 C   0  0  0  0  0  0
  -18.0274  -28.1383   22.8503 C   0  0  0  0  0  0
  -24.1484  -36.7294   23.2632 C   0  0  0  0  0  0
  -25.9369  -30.8246   21.3614 C   0  0  0  0  0  0
  -26.0184  -29.4535   20.7148 C   0  0  0  0  0  0
  -27.2152  -28.6944   20.7019 C   0  0  0  0  0  0
  -26.0557  -26.9103   19.5190 C   0  0  0  0  0  0
  -24.8712  -27.6713   19.5193 C   0  0  0  0  0  0
  -23.6188  -29.8105   20.1670 C   0  0  0  0  0  0
  -25.4103  -36.3098   24.0348 C   0  0  1  0  0  0
  -20.5862  -28.3674   23.1305 C   0  0  2  0  0  0
  -20.6760  -26.9407   22.5411 C   0  0  0  0  0  0
  -19.5736  -26.6389   21.5210 C   0  0  0  0  0  0
  -18.1917  -26.7937   22.1623 C   0  0  0  0  0  0
  -19.1523  -28.8849   23.2900 C   0  0  0  0  0  0
  -18.9448  -30.1457   23.8905 C   0  0  0  0  0  0
  -17.6446  -30.6586   24.0570 C   0  0  0  0  0  0
  -25.9040  -34.9464   23.5140 C   0  0  0  0  0  0
  -16.5335  -29.9085   23.6335 C   0  0  0  0  0  0
  -16.7261  -28.6499   23.0362 C   0  0  0  0  0  0
  -26.4490  -31.6570   25.0717 C   0  0  0  0  0  0
  -25.3767  -31.3649   26.1461 C   0  0  0  0  0  0
  -27.0305  -30.3016   24.6078 C   0  0  0  0  0  0
  -27.6099  -32.4250   25.7456 C   0  0  0  0  0  0
  -27.5601  -37.1778   24.8451 C   0  0  0  0  0  0
  -21.4142  -29.3040   22.3714 N   0  0  0  0  0  0
  -26.4281  -37.3796   23.9442 N   0  0  0  0  0  0
  -24.6728  -31.0725   22.0991 N   0  0  0  0  0  0
  -23.4168  -28.8208   23.3065 O   0  0  0  0  0  0
  -28.3749  -26.6280   20.0899 O   0  0  0  0  0  0
  -26.5597  -34.8921   22.4703 O   0  0  0  0  0  0
  -23.5363  -32.1419   23.7456 O   0  0  0  0  0  0
  -31.3279  -19.7529   20.8562 C   0  0  0  0  0  0
  -31.8580  -17.3748   20.8529 C   0  0  0  0  0  0
  -29.5413  -18.0989   21.0073 C   0  0  0  0  0  0
  -32.2748  -18.7167   20.7807 C   0  0  0  0  0  0
  -29.9437  -19.4781   20.9741 C   0  0  0  0  0  0
  -30.4855  -17.0234   20.9363 C   0  0  0  0  0  0
  -27.3639  -22.7290   21.8641 C   0  0  0  0  0  0
  -28.0158  -20.4350   22.1164 C   0  0  0  0  0  0
  -28.2925  -22.9348   20.9039 C   0  0  0  0  0  0
  -27.1950  -21.4324   22.4831 C   0  0  0  0  0  0
  -29.1443  -21.7970   20.4587 C   0  0  0  0  0  0
  -33.6951  -19.0284   20.6186 C   0  0  0  0  0  0
  -35.3945  -20.2789   19.2693 C   0  0  0  0  0  0
  -35.4812  -21.2437   18.0916 C   0  0  0  0  0  0
  -28.3870  -25.5092   20.9594 C   0  0  0  0  0  0
  -29.0195  -20.5948   21.1390 N   0  0  0  0  0  0
  -30.0523  -15.6310   20.9620 N   0  0  0  0  0  0
  -28.5333  -24.1914   20.3111 N   0  0  0  0  0  0
  -34.0677  -19.8704   19.6319 N   0  0  0  0  0  0
  -34.5772  -18.4542   21.4428 N   0  3  0  0  0  0
  -29.9215  -21.9354   19.5070 O   0  0  0  0  0  0
  -36.4042  -19.8771   19.8594 O   0  0  0  0  0  0
  -26.2748  -21.2364   23.4339 O   0  0  0  0  0  0
  -31.4553  -12.3809   19.1548 H   0  0  0  0  0  0
  -30.2786  -11.3285   19.8791 H   0  0  0  0  0  0
  -29.7372  -11.7652   17.4542 H   0  0  0  0  0  0
  -29.6641  -13.4818   17.7707 H   0  0  0  0  0  0
  -27.8192  -11.3138   18.8262 H   0  0  0  0  0  0
  -27.3690  -12.6407   17.7880 H   0  0  0  0  0  0
  -27.6763  -14.2647   19.5453 H   0  0  0  0  0  0
  -28.6762  -12.0545   21.4027 H   0  0  0  0  0  0
  -28.4650  -13.7272   21.8400 H   0  0  0  0  0  0
  -25.2757   -9.5707   22.4767 H   0  0  0  0  0  0
  -24.0025   -7.4643   22.7473 H   0  0  0  0  0  0
  -21.0858   -8.8737   19.8947 H   0  0  0  0  0  0
  -22.3681  -10.9664   19.6174 H   0  0  0  0  0  0
  -21.1980   -7.6157   23.9726 H   0  0  0  0  0  0
  -21.1502   -6.0530   25.9080 H   0  0  0  0  0  0
  -22.0591   -2.7626   23.2826 H   0  0  0  0  0  0
  -22.4117  -11.9850   22.4722 H   0  0  0  0  0  0
  -21.1113  -13.1243   22.2619 H   0  0  0  0  0  0
  -24.6680  -15.8492   20.5406 H   0  0  0  0  0  0
  -26.2837  -15.6302   20.0991 H   0  0  0  0  0  0
  -26.7124  -32.5509   23.1151 H   0  0  0  0  0  0
  -25.0100  -33.9766   25.0506 H   0  0  0  0  0  0
  -22.7001  -31.3050   21.4038 H   0  0  0  0  0  0
  -23.3784  -35.9581   23.3223 H   0  0  0  0  0  0
  -24.3609  -36.8990   22.2061 H   0  0  0  0  0  0
  -23.7160  -37.6448   23.6690 H   0  0  0  0  0  0
  -26.0435  -31.5856   20.5870 H   0  0  0  0  0  0
  -26.8255  -30.8865   21.9778 H   0  0  0  0  0  0
  -28.1155  -29.0857   21.1547 H   0  0  0  0  0  0
  -26.0595  -25.9311   19.0609 H   0  0  0  0  0  0
  -23.9772  -27.2694   19.0629 H   0  0  0  0  0  0
  -23.7281  -30.5791   19.4017 H   0  0  0  0  0  0
  -22.7441  -29.2272   19.8731 H   0  0  0  0  0  0
  -25.1264  -36.1962   25.0832 H   0  0  0  0  0  0
  -20.9955  -28.3231   24.1427 H   0  0  0  0  0  0
  -20.5661  -26.2278   23.3607 H   0  0  0  0  0  0
  -21.6633  -26.7456   22.1193 H   0  0  0  0  0  0
  -19.6885  -25.6300   21.1242 H   0  0  0  0  0  0
  -19.6672  -27.3207   20.6753 H   0  0  0  0  0  0
  -17.4193  -26.6716   21.4020 H   0  0  0  0  0  0
  -18.0303  -26.0057   22.8996 H   0  0  0  0  0  0
  -19.7920  -30.7288   24.2270 H   0  0  0  0  0  0
  -17.4989  -31.6274   24.5156 H   0  0  0  0  0  0
  -15.5339  -30.2987   23.7646 H   0  0  0  0  0  0
  -15.8665  -28.0810   22.7084 H   0  0  0  0  0  0
  -24.5933  -30.7024   25.7760 H   0  0  0  0  0  0
  -24.8975  -32.2788   26.4980 H   0  0  0  0  0  0
  -25.8116  -30.8736   27.0178 H   0  0  0  0  0  0
  -26.2826  -29.6743   24.1210 H   0  0  0  0  0  0
  -27.4164  -29.7275   25.4515 H   0  0  0  0  0  0
  -27.8627  -30.4339   23.9159 H   0  0  0  0  0  0
  -27.2812  -33.3606   26.1988 H   0  0  0  0  0  0
  -28.3938  -32.6696   25.0275 H   0  0  0  0  0  0
  -28.0721  -31.8368   26.5394 H   0  0  0  0  0  0
  -28.2529  -38.0164   24.7646 H   0  0  0  0  0  0
  -28.1192  -36.2715   24.6093 H   0  0  0  0  0  0
  -27.2343  -37.1186   25.8849 H   0  0  0  0  0  0
  -20.9320  -29.8757   21.6920 H   0  0  0  0  0  0
  -26.0165  -38.2856   24.1544 H   0  0  0  0  0  0
  -31.6812  -20.7744   20.8652 H   0  0  0  0  0  0
  -32.6360  -16.6288   20.8224 H   0  0  0  0  0  0
  -28.4915  -17.8627   21.0864 H   0  0  0  0  0  0
  -26.7404  -23.5465   22.1972 H   0  0  0  0  0  0
  -27.9674  -19.4599   22.5781 H   0  0  0  0  0  0
  -34.4974  -21.5710   17.7550 H   0  0  0  0  0  0
  -35.9866  -20.7652   17.2529 H   0  0  0  0  0  0
  -36.0552  -22.1256   18.3758 H   0  0  0  0  0  0
  -29.2400  -25.6336   21.6299 H   0  0  0  0  0  0
  -27.4927  -25.5023   21.5853 H   0  0  0  0  0  0
  -29.0970  -15.4620   21.2361 H   0  0  0  0  0  0
  -29.3398  -24.1328   19.6952 H   0  0  0  0  0  0
  -33.2690  -20.1958   19.1090 H   0  0  0  0  0  0
  -34.2720  -17.8840   22.2159 H   0  0  0  0  0  0
  -35.5593  -18.6648   21.3217 H   0  0  0  0  0  0
  -25.8391  -22.0648   23.5942 H   0  0  0  0  0  0
  1 25  1  0  0  0
  1 30  2  0  0  0
  1 87  1  0  0  0
  2  3  1  0  0  0
  2 25  1  0  0  0
  2 94  1  0  0  0
  2 95  1  0  0  0
  3  4  1  0  0  0
  3 96  1  0  0  0
  3 97  1  0  0  0
  4  5  1  0  0  0
  4 98  1  0  0  0
  4 99  1  0  0  0
  5  6  1  0  0  0
  5 26  1  0  0  0
  5100  1  0  0  0
  6 25  1  0  0  0
  6101  1  0  0  0
  6102  1  0  0  0
  7  8  2  0  0  0
  7 26  1  0  0  0
  7 29  1  0  0  0
  8  9  1  0  0  0
  8 22  1  0  0  0
  9 10  1  0  0  0
  9 27  2  0  0  0
 10 11  2  0  0  0
 10 15  1  0  0  0
 11 12  1  0  0  0
 11103  1  0  0  0
 12 13  2  0  0  0
 12104  1  0  0  0
 13 14  1  0  0  0
 13 31  1  0  0  0
 14 15  2  0  0  0
 14105  1  0  0  0
 15106  1  0  0  0
 16 17  2  0  0  0
 16 21  1  0  0  0
 16 31  1  0  0  0
 17 18  1  0  0  0
 17107  1  0  0  0
 18 19  2  0  0  0
 18108  1  0  0  0
 19 20  1  0  0  0
 19 24  1  0  0  0
 20 21  2  0  0  0
 20109  1  0  0  0
 21 23  1  0  0  0
 22 28  1  0  0  0
 22 32  2  0  0  0
 26 27  1  0  0  0
 28110  1  0  0  0
 28111  1  0  0  0
 29112  1  0  0  0
 29113  1  0  0  0
 33 34  1  0  0  0
 33 66  1  0  0  0
 33 70  2  0  0  0
 34 36  1  0  0  0
 34 59  1  0  0  0
 34114  1  0  0  0
 35 44  2  0  0  0
 35 45  1  0  0  0
 35 68  1  0  0  0
 36 56  1  0  0  0
 36115  1  0  0  0
 37 39  1  0  0  0
 37 47  1  0  0  0
 37 66  1  0  0  0
 37116  1  0  0  0
 38 43  2  0  0  0
 38 46  1  0  0  0
 38 47  1  0  0  0
 39 64  1  0  0  0
 39 67  2  0  0  0
 40 52  1  0  0  0
 40 53  2  0  0  0
 40 58  1  0  0  0
 41117  1  0  0  0
 41118  1  0  0  0
 41119  1  0  0  0
 41 48  1  0  0  0
 42 43  1  0  0  0
 42 66  1  0  0  0
 42120  1  0  0  0
 42121  1  0  0  0
 43 44  1  0  0  0
 44122  1  0  0  0
 45 46  2  0  0  0
 45123  1  0  0  0
 46124  1  0  0  0
 47125  1  0  0  0
 47126  1  0  0  0
 48 56  1  0  0  0
 48 65  1  0  0  0
 48127  1  0  0  0
 49 50  1  0  0  0
 49 53  1  0  0  0
 49 64  1  0  0  0
 49128  1  0  0  0
 50 51  1  0  0  0
 50129  1  0  0  0
 50130  1  0  0  0
 51 52  1  0  0  0
 51131  1  0  0  0
 51132  1  0  0  0
 52133  1  0  0  0
 52134  1  0  0  0
 53 54  1  0  0  0
 54 55  2  0  0  0
 54135  1  0  0  0
 55 57  1  0  0  0
 55136  1  0  0  0
 56 69  2  0  0  0
 57 58  2  0  0  0
 57137  1  0  0  0
 58138  1  0  0  0
 59 60  1  0  0  0
 59 61  1  0  0  0
 59 62  1  0  0  0
 60139  1  0  0  0
 60140  1  0  0  0
 60141  1  0  0  0
 61142  1  0  0  0
 61143  1  0  0  0
 61144  1  0  0  0
 62145  1  0  0  0
 62146  1  0  0  0
 62147  1  0  0  0
 63 65  1  0  0  0
 63148  1  0  0  0
 63149  1  0  0  0
 63150  1  0  0  0
 64151  1  0  0  0
 65152  1  0  0  0
 68 85  1  0  0  0
 71 74  2  0  0  0
 71 75  1  0  0  0
 71153  1  0  0  0
 72 74  1  0  0  0
 72 76  2  0  0  0
 72154  1  0  0  0
 73 75  2  0  0  0
 73 76  1  0  0  0
 73155  1  0  0  0
 74 82  1  0  0  0
 75 86  1  0  0  0
 76 87  1  0  0  0
 77 79  2  0  0  0
 77 80  1  0  0  0
 77156  1  0  0  0
 78 80  2  0  0  0
 78 86  1  0  0  0
 78157  1  0  0  0
 79 81  1  0  0  0
 79 88  1  0  0  0
 80 93  1  0  0  0
 81 86  1  0  0  0
 81 91  2  0  0  0
 82 89  1  0  0  0
 82 90  2  0  0  0
 83 84  1  0  0  0
 83 89  1  0  0  0
 83 92  2  0  0  0
 84158  1  0  0  0
 84159  1  0  0  0
 84160  1  0  0  0
 85 88  1  0  0  0
 85161  1  0  0  0
 85162  1  0  0  0
 87163  1  0  0  0
 88164  1  0  0  0
 89165  1  0  0  0
 90166  1  0  0  0
 90167  1  0  0  0
 93168  1  0  0  0
M  CHG  1  90   1
M  ISO  4   1 100  68 101  85 101  87 100
M  END
> <chiral flag>
0

> <version>
0

> <s_m_source_file>
/data/baiqing/PycharmProjects/Reinvent-master-3.2/result/LINK_invent/BTK/process_docking_weight1_custom_product_contain_oxygen_bond_distance_aromatic_linkinvent_7_9_3/rearranged_h_0062.sdf

> <i_m_source_file_index>
39

> <r_mmod_Potential_Energy-OPLS-2005>
-308.839721679688

> <r_mmod_Stretch_Energy-OPLS-2005>
64.6008071899414

> <r_mmod_Bend_Energy-OPLS-2005>
127.103492736816

> <r_mmod_Torsional_Energy-OPLS-2005>
244.292663574219

> <r_mmod_Improper_Torsional_Energy-OPLS-2005>
7.38102722167969

> <r_mmod_Van_der_Waal_Energy-OPLS-2005>
202.090530395508

> <r_mmod_Electrostatic_Energy-OPLS-2005>
-508.041839599609

> <r_mmod_Solvation_Energy-OPLS-2005>
-467.3251953125

> <b_mmod_Minimization_Converged-OPLS-2005>
0

> <r_mmod_RMS_Derivative-OPLS-2005>
2.07564520835876

$$$$
39
                    3D
 Structure written by MMmdl.
160168  0  0  1  0            999 V2000
  -30.5926  -14.6501   20.5238 C   0  0  0  0  0  0
  -30.4472  -12.4048   19.4500 C   0  0  0  0  0  0
  -29.5161  -12.5189   18.2202 C   0  0  0  0  0  0
  -28.0364  -12.3473   18.6240 C   0  0  0  0  0  0
  -27.6536  -13.2094   19.8565 C   0  0  2  0  0  0
  -28.6952  -13.0479   20.9863 C   0  0  0  0  0  0
  -25.2565  -13.8160   20.5614 C   0  0  0  0  0  0
  -24.1834  -13.0422   20.9130 C   0  0  0  0  0  0
  -24.6399  -11.6897   20.8686 C   0  0  0  0  0  0
  -23.9062  -10.4290   21.0377 C   0  0  0  0  0  0
  -24.3624   -9.4212   21.9155 C   0  0  0  0  0  0
  -23.6309   -8.2245   22.0739 C   0  0  0  0  0  0
  -22.4294   -8.0274   21.3536 C   0  0  0  0  0  0
  -21.9911   -9.0240   20.4639 C   0  0  0  0  0  0
  -22.7227  -10.2127   20.3038 C   0  0  0  0  0  0
  -21.6852   -6.0725   22.5274 C   0  0  0  0  0  0
  -21.4015   -6.5630   23.8202 C   0  0  0  0  0  0
  -21.3657   -5.6776   24.9162 C   0  0  0  0  0  0
  -21.6052   -4.3040   24.7208 C   0  0  0  0  0  0
  -21.8818   -3.8131   23.4328 C   0  0  0  0  0  0
  -21.9193   -4.6953   22.3389 C   0  0  0  0  0  0
  -22.7857  -13.5223   21.1795 C   0  0  0  0  0  0
  -22.1660   -4.2135   21.0963 F   0  0  0  0  0  0
  -21.5640   -3.4528   25.7722 F   0  0  0  0  0  0
  -30.0083  -13.4130   20.4348 N   0  0  0  0  0  0
  -26.2979  -12.9319   20.3228 N   0  0  0  0  0  0
  -25.9318  -11.6479   20.5690 N   0  0  0  0  0  0
  -22.0506  -12.8250   22.0398 N   0  0  0  0  0  0
  -25.4271  -15.1875   20.4052 N   0  0  0  0  0  0
  -31.7531  -14.8442   20.1503 O   0  0  0  0  0  0
  -21.6650   -6.8879   21.4250 O   0  0  0  0  0  0
  -22.3541  -14.5516   20.6617 O   0  0  0  0  0  0
  -24.6261  -31.8590   23.2033 C   0  0  0  0  0  0
  -25.9110  -32.4789   23.8341 C   0  0  1  0  0  0
  -27.2283  -27.3292   20.1194 C   0  0  0  0  0  0
  -25.5912  -33.8581   24.2261 N   0  0  0  0  0  0
  -23.4197  -30.4836   21.5458 C   0  0  2  0  0  0
  -24.8660  -28.9396   20.1133 C   0  0  0  0  0  0
  -22.7484  -29.4617   22.4941 C   0  0  0  0  0  0
  -18.0294  -28.1391   22.8507 C   0  0  0  0  0  0
  -24.1478  -36.7282   23.2636 C   0  0  0  0  0  0
  -25.9595  -30.7942   21.3710 C   0  0  0  0  0  0
  -26.0345  -29.4231   20.7138 C   0  0  0  0  0  0
  -27.2191  -28.6308   20.7070 C   0  0  0  0  0  0
  -26.0324  -26.8945   19.5007 C   0  0  0  0  0  0
  -24.8657  -27.6796   19.4984 C   0  0  0  0  0  0
  -23.6331  -29.8169   20.1613 C   0  0  0  0  0  0
  -25.4103  -36.3076   24.0332 C   0  0  1  0  0  0
  -20.5899  -28.3675   23.1296 C   0  0  2  0  0  0
  -20.6779  -26.9404   22.5420 C   0  0  0  0  0  0
  -19.5751  -26.6385   21.5230 C   0  0  0  0  0  0
  -18.1931  -26.7939   22.1638 C   0  0  0  0  0  0
  -19.1551  -28.8853   23.2901 C   0  0  0  0  0  0
  -18.9462  -30.1460   23.8906 C   0  0  0  0  0  0
  -17.6457  -30.6590   24.0565 C   0  0  0  0  0  0
  -25.9050  -34.9456   23.5100 C   0  0  0  0  0  0
  -16.5350  -29.9088   23.6330 C   0  0  0  0  0  0
  -16.7283  -28.6510   23.0358 C   0  0  0  0  0  0
  -26.4493  -31.6612   25.0720 C   0  0  0  0  0  0
  -25.3726  -31.3771   26.1456 C   0  0  0  0  0  0
  -27.0314  -30.3024   24.6175 C   0  0  0  0  0  0
  -27.6056  -32.4353   25.7473 C   0  0  0  0  0  0
  -27.5589  -37.1784   24.8459 C   0  0  0  0  0  0
  -21.4203  -29.3017   22.3691 N   0  0  0  0  0  0
  -26.4272  -37.3787   23.9446 N   0  0  0  0  0  0
  -24.6873  -31.0624   22.0967 N   0  0  0  0  0  0
  -23.4221  -28.8143   23.2996 O   0  0  0  0  0  0
  -28.3536  -26.4934   20.1820 O   0  0  0  0  0  0
  -26.5625  -34.8933   22.4668 O   0  0  0  0  0  0
  -23.5433  -32.1346   23.7408 O   0  0  0  0  0  0
  -29.1337  -17.8390   19.7816 C   0  0  0  0  0  0
  -29.0815  -19.2666   19.7526 C   0  0  0  0  0  0
  -30.4910  -17.9087   21.7644 C   0  0  0  0  0  0
  -29.8547  -17.1215   20.7740 C   0  0  0  0  0  0
  -29.7228  -20.0677   20.7410 C   0  0  0  0  0  0
  -30.4315  -19.3366   21.7522 C   0  0  0  0  0  0
  -29.0149  -22.4923   20.0731 C   0  0  0  0  0  0
  -30.6344  -24.4282   19.7302 C   0  0  0  0  0  0
  -29.8418  -20.4801   24.3257 C   0  0  0  0  0  0
  -28.1574  -25.0422   19.9700 C   0  0  0  0  0  0
  -29.3025  -24.0202   20.3867 C   0  0  1  0  0  0
  -29.7073  -21.5370   20.7639 N   0  0  0  0  0  0
  -29.7476  -15.6690   20.8840 N   0  0  0  0  0  0
  -28.1833  -22.2043   19.2124 O   0  0  0  0  0  0
  -32.1700  -19.2869   23.8031 O   0  0  0  0  0  0
  -31.6765  -21.5138   22.7023 O   0  0  0  0  0  0
  -31.2043  -20.1905   23.1490 S   0  0  0  0  0  0
  -31.4875  -12.5500   19.1531 H   0  0  0  0  0  0
  -30.3998  -11.4049   19.8830 H   0  0  0  0  0  0
  -29.7907  -11.7770   17.4698 H   0  0  0  0  0  0
  -29.6505  -13.4926   17.7411 H   0  0  0  0  0  0
  -27.8714  -11.2935   18.8485 H   0  0  0  0  0  0
  -27.3863  -12.5818   17.7799 H   0  0  0  0  0  0
  -27.6754  -14.2464   19.5201 H   0  0  0  0  0  0
  -28.7159  -12.0179   21.3426 H   0  0  0  0  0  0
  -28.4335  -13.6533   21.8542 H   0  0  0  0  0  0
  -25.2776   -9.5690   22.4708 H   0  0  0  0  0  0
  -24.0005   -7.4646   22.7471 H   0  0  0  0  0  0
  -21.0815   -8.8758   19.8966 H   0  0  0  0  0  0
  -22.3669  -10.9659   19.6135 H   0  0  0  0  0  0
  -21.2024   -7.6138   23.9707 H   0  0  0  0  0  0
  -21.1480   -6.0501   25.9064 H   0  0  0  0  0  0
  -22.0614   -2.7594   23.2822 H   0  0  0  0  0  0
  -22.4114  -11.9948   22.4853 H   0  0  0  0  0  0
  -21.1116  -13.1281   22.2559 H   0  0  0  0  0  0
  -24.6574  -15.8387   20.5148 H   0  0  0  0  0  0
  -26.2729  -15.6307   20.0736 H   0  0  0  0  0  0
  -26.7177  -32.5460   23.1096 H   0  0  0  0  0  0
  -25.0083  -33.9697   25.0419 H   0  0  0  0  0  0
  -22.7151  -31.3060   21.4035 H   0  0  0  0  0  0
  -23.3764  -35.9585   23.3247 H   0  0  0  0  0  0
  -24.3590  -36.8961   22.2064 H   0  0  0  0  0  0
  -23.7187  -37.6454   23.6686 H   0  0  0  0  0  0
  -26.0897  -31.5558   20.6018 H   0  0  0  0  0  0
  -26.8413  -30.8423   21.9985 H   0  0  0  0  0  0
  -28.1150  -28.9983   21.1878 H   0  0  0  0  0  0
  -25.9629  -25.9291   19.0227 H   0  0  0  0  0  0
  -23.9674  -27.3008   19.0301 H   0  0  0  0  0  0
  -23.7533  -30.5880   19.4004 H   0  0  0  0  0  0
  -22.7545  -29.2441   19.8616 H   0  0  0  0  0  0
  -25.1285  -36.1918   25.0824 H   0  0  0  0  0  0
  -21.0009  -28.3235   24.1413 H   0  0  0  0  0  0
  -20.5677  -26.2283   23.3619 H   0  0  0  0  0  0
  -21.6643  -26.7434   22.1211 H   0  0  0  0  0  0
  -19.6888  -25.6295   21.1261 H   0  0  0  0  0  0
  -19.6682  -27.3197   20.6769 H   0  0  0  0  0  0
  -17.4211  -26.6712   21.4035 H   0  0  0  0  0  0
  -18.0312  -26.0072   22.9026 H   0  0  0  0  0  0
  -19.7927  -30.7296   24.2269 H   0  0  0  0  0  0
  -17.4999  -31.6274   24.5163 H   0  0  0  0  0  0
  -15.5350  -30.2987   23.7639 H   0  0  0  0  0  0
  -15.8693  -28.0833   22.7055 H   0  0  0  0  0  0
  -24.5867  -30.7165   25.7786 H   0  0  0  0  0  0
  -24.8952  -32.2954   26.4884 H   0  0  0  0  0  0
  -25.8035  -30.8931   27.0228 H   0  0  0  0  0  0
  -26.2863  -29.6801   24.1204 H   0  0  0  0  0  0
  -27.4009  -29.7286   25.4685 H   0  0  0  0  0  0
  -27.8751  -30.4301   23.9384 H   0  0  0  0  0  0
  -27.2665  -33.3665   26.2023 H   0  0  0  0  0  0
  -28.3866  -32.6905   25.0297 H   0  0  0  0  0  0
  -28.0713  -31.8497   26.5412 H   0  0  0  0  0  0
  -28.2582  -38.0111   24.7598 H   0  0  0  0  0  0
  -28.1123  -36.2669   24.6169 H   0  0  0  0  0  0
  -27.2347  -37.1301   25.8866 H   0  0  0  0  0  0
  -20.9390  -29.8737   21.6898 H   0  0  0  0  0  0
  -26.0160  -38.2854   24.1496 H   0  0  0  0  0  0
  -28.5887  -17.2915   19.0249 H   0  0  0  0  0  0
  -28.5245  -19.7348   18.9542 H   0  0  0  0  0  0
  -30.9985  -17.4159   22.5805 H   0  0  0  0  0  0
  -31.4515  -23.7634   20.0180 H   0  0  0  0  0  0
  -30.9222  -25.4374   20.0274 H   0  0  0  0  0  0
  -30.5631  -24.4141   18.6420 H   0  0  0  0  0  0
  -29.5065  -19.5275   24.7295 H   0  0  0  0  0  0
  -29.0164  -20.9682   23.8132 H   0  0  0  0  0  0
  -30.1971  -21.1153   25.1358 H   0  0  0  0  0  0
  -27.2639  -24.7348   20.5169 H   0  0  0  0  0  0
  -27.9458  -24.8922   18.9108 H   0  0  0  0  0  0
  -29.4277  -24.0956   21.4675 H   0  0  0  0  0  0
  -30.3630  -21.9336   21.4320 H   0  0  0  0  0  0
  -28.8245  -15.3342   21.1149 H   0  0  0  0  0  0
  1 25  1  0  0  0
  1 30  2  0  0  0
  1 83  1  0  0  0
  2  3  1  0  0  0
  2 25  1  0  0  0
  2 88  1  0  0  0
  2 89  1  0  0  0
  3  4  1  0  0  0
  3 90  1  0  0  0
  3 91  1  0  0  0
  4  5  1  0  0  0
  4 92  1  0  0  0
  4 93  1  0  0  0
  5  6  1  0  0  0
  5 26  1  0  0  0
  5 94  1  0  0  0
  6 25  1  0  0  0
  6 95  1  0  0  0
  6 96  1  0  0  0
  7  8  2  0  0  0
  7 26  1  0  0  0
  7 29  1  0  0  0
  8  9  1  0  0  0
  8 22  1  0  0  0
  9 10  1  0  0  0
  9 27  2  0  0  0
 10 11  2  0  0  0
 10 15  1  0  0  0
 11 12  1  0  0  0
 11 97  1  0  0  0
 12 13  2  0  0  0
 12 98  1  0  0  0
 13 14  1  0  0  0
 13 31  1  0  0  0
 14 15  2  0  0  0
 14 99  1  0  0  0
 15100  1  0  0  0
 16 17  2  0  0  0
 16 21  1  0  0  0
 16 31  1  0  0  0
 17 18  1  0  0  0
 17101  1  0  0  0
 18 19  2  0  0  0
 18102  1  0  0  0
 19 20  1  0  0  0
 19 24  1  0  0  0
 20 21  2  0  0  0
 20103  1  0  0  0
 21 23  1  0  0  0
 22 28  1  0  0  0
 22 32  2  0  0  0
 26 27  1  0  0  0
 28104  1  0  0  0
 28105  1  0  0  0
 29106  1  0  0  0
 29107  1  0  0  0
 33 34  1  0  0  0
 33 66  1  0  0  0
 33 70  2  0  0  0
 34 36  1  0  0  0
 34 59  1  0  0  0
 34108  1  0  0  0
 35 44  2  0  0  0
 35 45  1  0  0  0
 35 68  1  0  0  0
 36 56  1  0  0  0
 36109  1  0  0  0
 37 39  1  0  0  0
 37 47  1  0  0  0
 37 66  1  0  0  0
 37110  1  0  0  0
 38 43  2  0  0  0
 38 46  1  0  0  0
 38 47  1  0  0  0
 39 64  1  0  0  0
 39 67  2  0  0  0
 40 52  1  0  0  0
 40 53  2  0  0  0
 40 58  1  0  0  0
 41111  1  0  0  0
 41112  1  0  0  0
 41113  1  0  0  0
 41 48  1  0  0  0
 42 43  1  0  0  0
 42 66  1  0  0  0
 42114  1  0  0  0
 42115  1  0  0  0
 43 44  1  0  0  0
 44116  1  0  0  0
 45 46  2  0  0  0
 45117  1  0  0  0
 46118  1  0  0  0
 47119  1  0  0  0
 47120  1  0  0  0
 48 56  1  0  0  0
 48 65  1  0  0  0
 48121  1  0  0  0
 49 50  1  0  0  0
 49 53  1  0  0  0
 49 64  1  0  0  0
 49122  1  0  0  0
 50 51  1  0  0  0
 50123  1  0  0  0
 50124  1  0  0  0
 51 52  1  0  0  0
 51125  1  0  0  0
 51126  1  0  0  0
 52127  1  0  0  0
 52128  1  0  0  0
 53 54  1  0  0  0
 54 55  2  0  0  0
 54129  1  0  0  0
 55 57  1  0  0  0
 55130  1  0  0  0
 56 69  2  0  0  0
 57 58  2  0  0  0
 57131  1  0  0  0
 58132  1  0  0  0
 59 60  1  0  0  0
 59 61  1  0  0  0
 59 62  1  0  0  0
 60133  1  0  0  0
 60134  1  0  0  0
 60135  1  0  0  0
 61136  1  0  0  0
 61137  1  0  0  0
 61138  1  0  0  0
 62139  1  0  0  0
 62140  1  0  0  0
 62141  1  0  0  0
 63 65  1  0  0  0
 63142  1  0  0  0
 63143  1  0  0  0
 63144  1  0  0  0
 64145  1  0  0  0
 65146  1  0  0  0
 68 80  1  0  0  0
 71 72  2  0  0  0
 71 74  1  0  0  0
 71147  1  0  0  0
 72 75  1  0  0  0
 72148  1  0  0  0
 73 74  2  0  0  0
 73 76  1  0  0  0
 73149  1  0  0  0
 74 83  1  0  0  0
 75 76  2  0  0  0
 75 82  1  0  0  0
 76 87  1  0  0  0
 77 81  1  0  0  0
 77 82  1  0  0  0
 77 84  2  0  0  0
 78150  1  0  0  0
 78151  1  0  0  0
 78152  1  0  0  0
 78 81  1  0  0  0
 79153  1  0  0  0
 79154  1  0  0  0
 79155  1  0  0  0
 79 87  1  0  0  0
 80 81  1  0  0  0
 80156  1  0  0  0
 80157  1  0  0  0
 81158  1  0  0  0
 82159  1  0  0  0
 83160  1  0  0  0
 85 87  2  0  0  0
 86 87  2  0  0  0
M  ISO  4   1 100  68 101  80 101  83 100
M  END
> <chiral flag>
0

> <version>
0

> <s_m_source_file>
/data/baiqing/PycharmProjects/Reinvent-master-3.2/result/LINK_invent/BTK/process_docking_weight1_custom_product_contain_oxygen_bond_distance_aromatic_linkinvent_7_9_3/rearranged_h_0062.sdf

> <i_m_source_file_index>
40

> <r_mmod_Potential_Energy-OPLS-2005>
-92.6218795776367

> <r_mmod_Stretch_Energy-OPLS-2005>
78.8455657958984

> <r_mmod_Bend_Energy-OPLS-2005>
138.465057373047

> <r_mmod_Torsional_Energy-OPLS-2005>
253.251327514648

> <r_mmod_Improper_Torsional_Energy-OPLS-2005>
5.63462734222412

> <r_mmod_Van_der_Waal_Energy-OPLS-2005>
141.723907470703

> <r_mmod_Electrostatic_Energy-OPLS-2005>
-486.234588623047

> <r_mmod_Solvation_Energy-OPLS-2005>
-273.866912841797

> <b_mmod_Minimization_Converged-OPLS-2005>
0

> <r_mmod_RMS_Derivative-OPLS-2005>
3.25602006912231

$$$$
40
                    3D
 Structure written by MMmdl.
159167  0  0  1  0            999 V2000
  -30.7142  -14.5093   20.5523 C   0  0  0  0  0  0
  -30.4191  -12.3229   19.4297 C   0  0  0  0  0  0
  -29.4923  -12.4624   18.2061 C   0  0  0  0  0  0
  -28.0127  -12.3416   18.6233 C   0  0  0  0  0  0
  -27.6516  -13.2041   19.8641 C   0  0  2  0  0  0
  -28.6994  -13.0453   20.9864 C   0  0  0  0  0  0
  -25.2573  -13.8151   20.5696 C   0  0  0  0  0  0
  -24.1819  -13.0428   20.9194 C   0  0  0  0  0  0
  -24.6375  -11.6900   20.8760 C   0  0  0  0  0  0
  -23.9042  -10.4292   21.0422 C   0  0  0  0  0  0
  -24.3602   -9.4208   21.9190 C   0  0  0  0  0  0
  -23.6287   -8.2240   22.0753 C   0  0  0  0  0  0
  -22.4273   -8.0277   21.3540 C   0  0  0  0  0  0
  -21.9899   -9.0249   20.4643 C   0  0  0  0  0  0
  -22.7222  -10.2135   20.3063 C   0  0  0  0  0  0
  -21.6852   -6.0732   22.5282 C   0  0  0  0  0  0
  -21.4007   -6.5635   23.8214 C   0  0  0  0  0  0
  -21.3657   -5.6786   24.9173 C   0  0  0  0  0  0
  -21.6050   -4.3050   24.7223 C   0  0  0  0  0  0
  -21.8820   -3.8145   23.4342 C   0  0  0  0  0  0
  -21.9192   -4.6962   22.3401 C   0  0  0  0  0  0
  -22.7849  -13.5241   21.1843 C   0  0  0  0  0  0
  -22.1665   -4.2150   21.0978 F   0  0  0  0  0  0
  -21.5630   -3.4532   25.7733 F   0  0  0  0  0  0
  -30.0187  -13.3454   20.4106 N   0  0  0  0  0  0
  -26.2983  -12.9304   20.3362 N   0  0  0  0  0  0
  -25.9298  -11.6473   20.5797 N   0  0  0  0  0  0
  -22.0483  -12.8245   22.0406 N   0  0  0  0  0  0
  -25.4310  -15.1863   20.4109 N   0  0  0  0  0  0
  -31.8669  -14.6472   20.1392 O   0  0  0  0  0  0
  -21.6640   -6.8874   21.4243 O   0  0  0  0  0  0
  -22.3546  -14.5548   20.6688 O   0  0  0  0  0  0
  -24.6170  -31.8659   23.2063 C   0  0  0  0  0  0
  -25.9052  -32.4810   23.8371 C   0  0  1  0  0  0
  -27.2342  -27.4145   20.1084 C   0  0  0  0  0  0
  -25.5896  -33.8602   24.2312 N   0  0  0  0  0  0
  -23.4060  -30.4866   21.5488 C   0  0  2  0  0  0
  -24.8540  -28.9472   20.1144 C   0  0  0  0  0  0
  -22.7435  -29.4638   22.4997 C   0  0  0  0  0  0
  -18.0281  -28.1368   22.8488 C   0  0  0  0  0  0
  -24.1484  -36.7315   23.2638 C   0  0  0  0  0  0
  -25.9352  -30.8271   21.3588 C   0  0  0  0  0  0
  -26.0150  -29.4582   20.7098 C   0  0  0  0  0  0
  -27.2116  -28.7017   20.6976 C   0  0  0  0  0  0
  -26.0601  -26.9227   19.5008 C   0  0  0  0  0  0
  -24.8729  -27.6811   19.5022 C   0  0  0  0  0  0
  -23.6157  -29.8153   20.1637 C   0  0  0  0  0  0
  -25.4104  -36.3099   24.0337 C   0  0  1  0  0  0
  -20.5872  -28.3646   23.1319 C   0  0  2  0  0  0
  -20.6763  -26.9382   22.5414 C   0  0  0  0  0  0
  -19.5741  -26.6379   21.5205 C   0  0  0  0  0  0
  -18.1921  -26.7918   22.1612 C   0  0  0  0  0  0
  -19.1532  -28.8823   23.2903 C   0  0  0  0  0  0
  -18.9461  -30.1436   23.8900 C   0  0  0  0  0  0
  -17.6458  -30.6571   24.0567 C   0  0  0  0  0  0
  -25.9034  -34.9464   23.5125 C   0  0  0  0  0  0
  -16.5350  -29.9069   23.6323 C   0  0  0  0  0  0
  -16.7272  -28.6494   23.0331 C   0  0  0  0  0  0
  -26.4476  -31.6581   25.0697 C   0  0  0  0  0  0
  -25.3749  -31.3678   26.1449 C   0  0  0  0  0  0
  -27.0303  -30.3023   24.6059 C   0  0  0  0  0  0
  -27.6056  -32.4296   25.7462 C   0  0  0  0  0  0
  -27.5577  -37.1814   24.8468 C   0  0  0  0  0  0
  -21.4162  -29.3022   22.3746 N   0  0  0  0  0  0
  -26.4285  -37.3787   23.9414 N   0  0  0  0  0  0
  -24.6713  -31.0743   22.0970 N   0  0  0  0  0  0
  -23.4204  -28.8182   23.3044 O   0  0  0  0  0  0
  -28.3794  -26.6432   20.1121 O   0  0  0  0  0  0
  -26.5600  -34.8918   22.4689 O   0  0  0  0  0  0
  -23.5357  -32.1411   23.7452 O   0  0  0  0  0  0
  -29.0845  -16.4165   18.8967 C   0  0  0  0  0  0
  -29.3341  -17.9551   20.7608 C   0  0  0  0  0  0
  -28.2655  -18.7185   18.6901 C   0  0  0  0  0  0
  -29.4927  -16.6432   20.2298 C   0  0  0  0  0  0
  -28.4679  -17.4287   18.1399 C   0  0  0  0  0  0
  -28.7650  -19.0138   19.9931 C   0  0  0  0  0  0
  -29.0074  -21.5174   20.0723 C   0  0  0  0  0  0
  -27.4766  -19.7500   17.8862 C   0  0  0  0  0  0
  -28.5867  -22.8009   20.8289 C   0  0  0  0  0  0
  -28.6983  -24.1371   20.0235 C   0  0  0  0  0  0
  -28.2808  -25.3948   20.8342 C   0  0  0  0  0  0
  -28.0523  -17.1213   16.8426 N   0  0  0  0  0  0
  -28.6259  -20.3211   20.5858 N   0  0  0  0  0  0
  -30.0455  -15.5818   21.0338 N   0  0  0  0  0  0
  -29.6874  -21.6156   19.0477 O   0  0  0  0  0  0
  -31.4632  -12.4174   19.1238 H   0  0  0  0  0  0
  -30.3266  -11.3294   19.8720 H   0  0  0  0  0  0
  -29.7296  -11.6927   17.4705 H   0  0  0  0  0  0
  -29.6691  -13.4143   17.7075 H   0  0  0  0  0  0
  -27.8235  -11.2905   18.8434 H   0  0  0  0  0  0
  -27.3612  -12.5950   17.7853 H   0  0  0  0  0  0
  -27.6676  -14.2403   19.5393 H   0  0  0  0  0  0
  -28.6892  -12.0292   21.3831 H   0  0  0  0  0  0
  -28.4634  -13.7002   21.8269 H   0  0  0  0  0  0
  -25.2747   -9.5684   22.4761 H   0  0  0  0  0  0
  -24.0000   -7.4630   22.7470 H   0  0  0  0  0  0
  -21.0829   -8.8767   19.8948 H   0  0  0  0  0  0
  -22.3680  -10.9675   19.6172 H   0  0  0  0  0  0
  -21.2002   -7.6143   23.9715 H   0  0  0  0  0  0
  -21.1478   -6.0515   25.9075 H   0  0  0  0  0  0
  -22.0604   -2.7610   23.2842 H   0  0  0  0  0  0
  -22.4083  -11.9909   22.4814 H   0  0  0  0  0  0
  -21.1099  -13.1274   22.2598 H   0  0  0  0  0  0
  -24.6694  -15.8469   20.5195 H   0  0  0  0  0  0
  -26.2910  -15.6205   20.0991 H   0  0  0  0  0  0
  -26.7126  -32.5526   23.1143 H   0  0  0  0  0  0
  -25.0048  -33.9755   25.0459 H   0  0  0  0  0  0
  -22.6952  -31.3037   21.4086 H   0  0  0  0  0  0
  -23.3728  -35.9668   23.3309 H   0  0  0  0  0  0
  -24.3575  -36.8913   22.2047 H   0  0  0  0  0  0
  -23.7250  -37.6531   23.6646 H   0  0  0  0  0  0
  -26.0439  -31.5883   20.5848 H   0  0  0  0  0  0
  -26.8243  -30.8862   21.9748 H   0  0  0  0  0  0
  -28.1088  -29.0918   21.1580 H   0  0  0  0  0  0
  -26.0672  -25.9514   19.0272 H   0  0  0  0  0  0
  -23.9842  -27.2846   19.0299 H   0  0  0  0  0  0
  -23.7249  -30.5886   19.4026 H   0  0  0  0  0  0
  -22.7403  -29.2343   19.8669 H   0  0  0  0  0  0
  -25.1281  -36.1957   25.0830 H   0  0  0  0  0  0
  -20.9965  -28.3187   24.1443 H   0  0  0  0  0  0
  -20.5634  -26.2267   23.3608 H   0  0  0  0  0  0
  -21.6637  -26.7389   22.1223 H   0  0  0  0  0  0
  -19.6898  -25.6293   21.1222 H   0  0  0  0  0  0
  -19.6664  -27.3205   20.6744 H   0  0  0  0  0  0
  -17.4210  -26.6706   21.3996 H   0  0  0  0  0  0
  -18.0280  -26.0042   22.8976 H   0  0  0  0  0  0
  -19.7938  -30.7251   24.2270 H   0  0  0  0  0  0
  -17.5006  -31.6246   24.5182 H   0  0  0  0  0  0
  -15.5348  -30.2966   23.7644 H   0  0  0  0  0  0
  -15.8679  -28.0829   22.7007 H   0  0  0  0  0  0
  -24.5927  -30.7017   25.7785 H   0  0  0  0  0  0
  -24.8938  -32.2828   26.4913 H   0  0  0  0  0  0
  -25.8106  -30.8835   27.0197 H   0  0  0  0  0  0
  -26.2832  -29.6781   24.1135 H   0  0  0  0  0  0
  -27.4111  -29.7250   25.4497 H   0  0  0  0  0  0
  -27.8653  -30.4350   23.9171 H   0  0  0  0  0  0
  -27.2679  -33.3582   26.2073 H   0  0  0  0  0  0
  -28.3846  -32.6868   25.0273 H   0  0  0  0  0  0
  -28.0747  -31.8395   26.5349 H   0  0  0  0  0  0
  -28.2611  -38.0095   24.7500 H   0  0  0  0  0  0
  -28.1054  -36.2628   24.6311 H   0  0  0  0  0  0
  -27.2300  -37.1482   25.8873 H   0  0  0  0  0  0
  -20.9333  -29.8762   21.6985 H   0  0  0  0  0  0
  -26.0168  -38.2869   24.1399 H   0  0  0  0  0  0
  -29.2196  -15.4476   18.4445 H   0  0  0  0  0  0
  -29.6624  -18.1573   21.7709 H   0  0  0  0  0  0
  -26.7213  -19.2859   17.2536 H   0  0  0  0  0  0
  -28.1476  -20.3234   17.2474 H   0  0  0  0  0  0
  -26.9310  -20.4357   18.5335 H   0  0  0  0  0  0
  -29.1970  -22.8713   21.7292 H   0  0  0  0  0  0
  -27.5555  -22.6749   21.1624 H   0  0  0  0  0  0
  -28.0833  -24.0711   19.1255 H   0  0  0  0  0  0
  -29.7256  -24.2679   19.6817 H   0  0  0  0  0  0
  -27.2805  -25.2397   21.2419 H   0  0  0  0  0  0
  -28.9354  -25.4829   21.7021 H   0  0  0  0  0  0
  -27.9778  -16.1524   16.5490 H   0  0  0  0  0  0
  -27.4087  -17.7416   16.3632 H   0  0  0  0  0  0
  -28.2191  -20.3503   21.5120 H   0  0  0  0  0  0
  -30.4397  -15.9093   21.9037 H   0  0  0  0  0  0
  1 25  1  0  0  0
  1 30  2  0  0  0
  1 84  1  0  0  0
  2  3  1  0  0  0
  2 25  1  0  0  0
  2 86  1  0  0  0
  2 87  1  0  0  0
  3  4  1  0  0  0
  3 88  1  0  0  0
  3 89  1  0  0  0
  4  5  1  0  0  0
  4 90  1  0  0  0
  4 91  1  0  0  0
  5  6  1  0  0  0
  5 26  1  0  0  0
  5 92  1  0  0  0
  6 25  1  0  0  0
  6 93  1  0  0  0
  6 94  1  0  0  0
  7  8  2  0  0  0
  7 26  1  0  0  0
  7 29  1  0  0  0
  8  9  1  0  0  0
  8 22  1  0  0  0
  9 10  1  0  0  0
  9 27  2  0  0  0
 10 11  2  0  0  0
 10 15  1  0  0  0
 11 12  1  0  0  0
 11 95  1  0  0  0
 12 13  2  0  0  0
 12 96  1  0  0  0
 13 14  1  0  0  0
 13 31  1  0  0  0
 14 15  2  0  0  0
 14 97  1  0  0  0
 15 98  1  0  0  0
 16 17  2  0  0  0
 16 21  1  0  0  0
 16 31  1  0  0  0
 17 18  1  0  0  0
 17 99  1  0  0  0
 18 19  2  0  0  0
 18100  1  0  0  0
 19 20  1  0  0  0
 19 24  1  0  0  0
 20 21  2  0  0  0
 20101  1  0  0  0
 21 23  1  0  0  0
 22 28  1  0  0  0
 22 32  2  0  0  0
 26 27  1  0  0  0
 28102  1  0  0  0
 28103  1  0  0  0
 29104  1  0  0  0
 29105  1  0  0  0
 33 34  1  0  0  0
 33 66  1  0  0  0
 33 70  2  0  0  0
 34 36  1  0  0  0
 34 59  1  0  0  0
 34106  1  0  0  0
 35 44  2  0  0  0
 35 45  1  0  0  0
 35 68  1  0  0  0
 36 56  1  0  0  0
 36107  1  0  0  0
 37 39  1  0  0  0
 37 47  1  0  0  0
 37 66  1  0  0  0
 37108  1  0  0  0
 38 43  2  0  0  0
 38 46  1  0  0  0
 38 47  1  0  0  0
 39 64  1  0  0  0
 39 67  2  0  0  0
 40 52  1  0  0  0
 40 53  2  0  0  0
 40 58  1  0  0  0
 41109  1  0  0  0
 41110  1  0  0  0
 41111  1  0  0  0
 41 48  1  0  0  0
 42 43  1  0  0  0
 42 66  1  0  0  0
 42112  1  0  0  0
 42113  1  0  0  0
 43 44  1  0  0  0
 44114  1  0  0  0
 45 46  2  0  0  0
 45115  1  0  0  0
 46116  1  0  0  0
 47117  1  0  0  0
 47118  1  0  0  0
 48 56  1  0  0  0
 48 65  1  0  0  0
 48119  1  0  0  0
 49 50  1  0  0  0
 49 53  1  0  0  0
 49 64  1  0  0  0
 49120  1  0  0  0
 50 51  1  0  0  0
 50121  1  0  0  0
 50122  1  0  0  0
 51 52  1  0  0  0
 51123  1  0  0  0
 51124  1  0  0  0
 52125  1  0  0  0
 52126  1  0  0  0
 53 54  1  0  0  0
 54 55  2  0  0  0
 54127  1  0  0  0
 55 57  1  0  0  0
 55128  1  0  0  0
 56 69  2  0  0  0
 57 58  2  0  0  0
 57129  1  0  0  0
 58130  1  0  0  0
 59 60  1  0  0  0
 59 61  1  0  0  0
 59 62  1  0  0  0
 60131  1  0  0  0
 60132  1  0  0  0
 60133  1  0  0  0
 61134  1  0  0  0
 61135  1  0  0  0
 61136  1  0  0  0
 62137  1  0  0  0
 62138  1  0  0  0
 62139  1  0  0  0
 63 65  1  0  0  0
 63140  1  0  0  0
 63141  1  0  0  0
 63142  1  0  0  0
 64143  1  0  0  0
 65144  1  0  0  0
 68 81  1  0  0  0
 71 74  2  0  0  0
 71 75  1  0  0  0
 71145  1  0  0  0
 72 74  1  0  0  0
 72 76  2  0  0  0
 72146  1  0  0  0
 73 75  2  0  0  0
 73 76  1  0  0  0
 73 78  1  0  0  0
 74 84  1  0  0  0
 75 82  1  0  0  0
 76 83  1  0  0  0
 77 79  1  0  0  0
 77 83  1  0  0  0
 77 85  2  0  0  0
 78147  1  0  0  0
 78148  1  0  0  0
 78149  1  0  0  0
 79 80  1  0  0  0
 79150  1  0  0  0
 79151  1  0  0  0
 80 81  1  0  0  0
 80152  1  0  0  0
 80153  1  0  0  0
 81154  1  0  0  0
 81155  1  0  0  0
 82156  1  0  0  0
 82157  1  0  0  0
 83158  1  0  0  0
 84159  1  0  0  0
M  ISO  4   1 100  68 101  81 101  84 100
M  END
> <chiral flag>
0

> <version>
0

> <s_m_source_file>
/data/baiqing/PycharmProjects/Reinvent-master-3.2/result/LINK_invent/BTK/process_docking_weight1_custom_product_contain_oxygen_bond_distance_aromatic_linkinvent_7_9_3/rearranged_h_0062.sdf

> <i_m_source_file_index>
41

> <r_mmod_Potential_Energy-OPLS-2005>
-14.2915353775024

> <r_mmod_Stretch_Energy-OPLS-2005>
46.0637359619141

> <r_mmod_Bend_Energy-OPLS-2005>
105.884834289551

> <r_mmod_Torsional_Energy-OPLS-2005>
310.878082275391

> <r_mmod_Improper_Torsional_Energy-OPLS-2005>
8.44048500061035

> <r_mmod_Van_der_Waal_Energy-OPLS-2005>
149.582366943359

> <r_mmod_Electrostatic_Energy-OPLS-2005>
-414.361572265625

> <r_mmod_Solvation_Energy-OPLS-2005>
-240.330795288086

> <b_mmod_Minimization_Converged-OPLS-2005>
0

> <r_mmod_RMS_Derivative-OPLS-2005>
1.43798565864563

$$$$
41
                    3D
 Structure written by MMmdl.
168176  0  0  1  0            999 V2000
  -30.6314  -14.5494   20.4646 C   0  0  0  0  0  0
  -30.4445  -12.3332   19.4091 C   0  0  0  0  0  0
  -29.4980  -12.4863   18.1981 C   0  0  0  0  0  0
  -28.0184  -12.3367   18.6151 C   0  0  0  0  0  0
  -27.6524  -13.1950   19.8556 C   0  0  2  0  0  0
  -28.7093  -13.0232   20.9729 C   0  0  0  0  0  0
  -25.2586  -13.8116   20.5677 C   0  0  0  0  0  0
  -24.1847  -13.0417   20.9189 C   0  0  0  0  0  0
  -24.6386  -11.6878   20.8750 C   0  0  0  0  0  0
  -23.9047  -10.4279   21.0417 C   0  0  0  0  0  0
  -24.3604   -9.4191   21.9190 C   0  0  0  0  0  0
  -23.6286   -8.2227   22.0758 C   0  0  0  0  0  0
  -22.4265   -8.0274   21.3545 C   0  0  0  0  0  0
  -21.9890   -9.0246   20.4646 C   0  0  0  0  0  0
  -22.7219  -10.2126   20.3065 C   0  0  0  0  0  0
  -21.6847   -6.0735   22.5281 C   0  0  0  0  0  0
  -21.4006   -6.5639   23.8215 C   0  0  0  0  0  0
  -21.3661   -5.6791   24.9176 C   0  0  0  0  0  0
  -21.6049   -4.3052   24.7220 C   0  0  0  0  0  0
  -21.8826   -3.8145   23.4339 C   0  0  0  0  0  0
  -21.9186   -4.6962   22.3397 C   0  0  0  0  0  0
  -22.7869  -13.5220   21.1836 C   0  0  0  0  0  0
  -22.1650   -4.2147   21.0971 F   0  0  0  0  0  0
  -21.5630   -3.4540   25.7731 F   0  0  0  0  0  0
  -30.0294  -13.3330   20.3975 N   0  0  0  0  0  0
  -26.2995  -12.9260   20.3313 N   0  0  0  0  0  0
  -25.9299  -11.6440   20.5751 N   0  0  0  0  0  0
  -22.0498  -12.8256   22.0406 N   0  0  0  0  0  0
  -25.4284  -15.1845   20.4076 N   0  0  0  0  0  0
  -31.8319  -14.7320   20.2490 O   0  0  0  0  0  0
  -21.6635   -6.8873   21.4243 O   0  0  0  0  0  0
  -22.3566  -14.5518   20.6651 O   0  0  0  0  0  0
  -24.6192  -31.8645   23.2083 C   0  0  0  0  0  0
  -25.9072  -32.4805   23.8385 C   0  0  1  0  0  0
  -27.2376  -27.3991   20.0811 C   0  0  0  0  0  0
  -25.5915  -33.8599   24.2313 N   0  0  0  0  0  0
  -23.4081  -30.4909   21.5494 C   0  0  2  0  0  0
  -24.8512  -28.9522   20.1162 C   0  0  0  0  0  0
  -22.7424  -29.4653   22.4949 C   0  0  0  0  0  0
  -18.0302  -28.1392   22.8503 C   0  0  0  0  0  0
  -24.1494  -36.7307   23.2635 C   0  0  0  0  0  0
  -25.9425  -30.8191   21.3665 C   0  0  0  0  0  0
  -26.0162  -29.4519   20.7099 C   0  0  0  0  0  0
  -27.2074  -28.6830   20.6876 C   0  0  0  0  0  0
  -26.0389  -26.9135   19.5056 C   0  0  0  0  0  0
  -24.8590  -27.6822   19.5166 C   0  0  0  0  0  0
  -23.6176  -29.8277   20.1640 C   0  0  0  0  0  0
  -25.4119  -36.3092   24.0325 C   0  0  1  0  0  0
  -20.5888  -28.3692   23.1302 C   0  0  2  0  0  0
  -20.6798  -26.9425   22.5414 C   0  0  0  0  0  0
  -19.5760  -26.6401   21.5223 C   0  0  0  0  0  0
  -18.1938  -26.7934   22.1644 C   0  0  0  0  0  0
  -19.1547  -28.8858   23.2909 C   0  0  0  0  0  0
  -18.9469  -30.1468   23.8921 C   0  0  0  0  0  0
  -17.6468  -30.6597   24.0580 C   0  0  0  0  0  0
  -25.9045  -34.9458   23.5109 C   0  0  0  0  0  0
  -16.5362  -29.9104   23.6327 C   0  0  0  0  0  0
  -16.7285  -28.6516   23.0344 C   0  0  0  0  0  0
  -26.4480  -31.6594   25.0738 C   0  0  0  0  0  0
  -25.3733  -31.3714   26.1479 C   0  0  0  0  0  0
  -27.0296  -30.3021   24.6147 C   0  0  0  0  0  0
  -27.6064  -32.4308   25.7500 C   0  0  0  0  0  0
  -27.5574  -37.1814   24.8459 C   0  0  0  0  0  0
  -21.4149  -29.3053   22.3692 N   0  0  0  0  0  0
  -26.4293  -37.3780   23.9396 N   0  0  0  0  0  0
  -24.6754  -31.0724   22.0996 N   0  0  0  0  0  0
  -23.4177  -28.8176   23.2992 O   0  0  0  0  0  0
  -28.4327  -26.6868   20.0858 O   0  0  0  0  0  0
  -26.5597  -34.8913   22.4666 O   0  0  0  0  0  0
  -23.5375  -32.1405   23.7464 O   0  0  0  0  0  0
  -28.9626  -16.7719   22.2197 C   0  0  0  0  0  0
  -29.7329  -18.0422   20.3085 C   0  0  0  0  0  0
  -28.3978  -17.9251   22.8218 C   0  0  0  0  0  0
  -28.4838  -19.1690   22.1002 C   0  0  0  0  0  0
  -29.5903  -16.7999   20.9691 C   0  0  0  0  0  0
  -29.2062  -19.2416   20.8618 C   0  0  0  0  0  0
  -28.9046  -22.7982   19.7718 C   0  0  0  0  0  0
  -27.7378  -20.4094   22.5896 C   0  0  0  0  0  0
  -27.9380  -18.8123   25.2360 C   0  0  0  0  0  0
  -28.0110  -16.4023   24.8853 C   0  0  0  0  0  0
  -26.1133  -17.6167   23.8924 C   0  0  0  0  0  0
  -28.7267  -24.1946   20.4257 C   0  0  0  0  0  0
  -28.5779  -25.3944   19.4358 C   0  0  0  0  0  0
  -27.6300  -17.7268   24.1703 C   0  0  0  0  0  0
  -29.7413  -15.5508   20.2950 N   0  0  0  0  0  0
  -29.3527  -20.4181   20.0736 N   0  0  0  0  0  0
  -29.3275  -21.7677   20.5428 N   0  0  0  0  0  0
  -28.6460  -22.6351   18.5753 O   0  0  0  0  0  0
  -31.4829  -12.4717   19.0996 H   0  0  0  0  0  0
  -30.3830  -11.3316   19.8356 H   0  0  0  0  0  0
  -29.7442  -11.7472   17.4344 H   0  0  0  0  0  0
  -29.6492  -13.4631   17.7356 H   0  0  0  0  0  0
  -27.8379  -11.2830   18.8312 H   0  0  0  0  0  0
  -27.3637  -12.5923   17.7799 H   0  0  0  0  0  0
  -27.6599  -14.2283   19.5141 H   0  0  0  0  0  0
  -28.7040  -12.0008   21.3535 H   0  0  0  0  0  0
  -28.4849  -13.6631   21.8274 H   0  0  0  0  0  0
  -25.2760   -9.5665   22.4755 H   0  0  0  0  0  0
  -23.9997   -7.4619   22.7479 H   0  0  0  0  0  0
  -21.0816   -8.8762   19.8951 H   0  0  0  0  0  0
  -22.3679  -10.9665   19.6172 H   0  0  0  0  0  0
  -21.2001   -7.6144   23.9712 H   0  0  0  0  0  0
  -21.1476   -6.0519   25.9079 H   0  0  0  0  0  0
  -22.0607   -2.7606   23.2838 H   0  0  0  0  0  0
  -22.4099  -11.9927   22.4828 H   0  0  0  0  0  0
  -21.1114  -13.1307   22.2577 H   0  0  0  0  0  0
  -24.6570  -15.8329   20.5166 H   0  0  0  0  0  0
  -26.2736  -15.6348   20.0851 H   0  0  0  0  0  0
  -26.7135  -32.5486   23.1141 H   0  0  0  0  0  0
  -25.0092  -33.9756   25.0474 H   0  0  0  0  0  0
  -22.7003  -31.3110   21.4107 H   0  0  0  0  0  0
  -23.3746  -35.9649   23.3310 H   0  0  0  0  0  0
  -24.3595  -36.8914   22.2046 H   0  0  0  0  0  0
  -23.7272  -37.6525   23.6653 H   0  0  0  0  0  0
  -26.0613  -31.5874   20.6019 H   0  0  0  0  0  0
  -26.8273  -30.8670   21.9886 H   0  0  0  0  0  0
  -28.1075  -29.0723   21.1410 H   0  0  0  0  0  0
  -25.9695  -25.9392   19.0515 H   0  0  0  0  0  0
  -23.9571  -27.2837   19.0707 H   0  0  0  0  0  0
  -23.7366  -30.6077   19.4109 H   0  0  0  0  0  0
  -22.7382  -29.2578   19.8603 H   0  0  0  0  0  0
  -25.1296  -36.1942   25.0820 H   0  0  0  0  0  0
  -21.0001  -28.3270   24.1412 H   0  0  0  0  0  0
  -20.5735  -26.2288   23.3614 H   0  0  0  0  0  0
  -21.6656  -26.7482   22.1173 H   0  0  0  0  0  0
  -19.6914  -25.6319   21.1216 H   0  0  0  0  0  0
  -19.6689  -27.3243   20.6774 H   0  0  0  0  0  0
  -17.4207  -26.6689   21.4052 H   0  0  0  0  0  0
  -18.0366  -26.0094   22.9064 H   0  0  0  0  0  0
  -19.7955  -30.7294   24.2269 H   0  0  0  0  0  0
  -17.5031  -31.6270   24.5203 H   0  0  0  0  0  0
  -15.5364  -30.3010   23.7652 H   0  0  0  0  0  0
  -15.8696  -28.0850   22.7020 H   0  0  0  0  0  0
  -24.5950  -30.7002   25.7832 H   0  0  0  0  0  0
  -24.8872  -32.2863   26.4874 H   0  0  0  0  0  0
  -25.8085  -30.8947   27.0273 H   0  0  0  0  0  0
  -26.2851  -29.6818   24.1151 H   0  0  0  0  0  0
  -27.3969  -29.7234   25.4634 H   0  0  0  0  0  0
  -27.8733  -30.4306   23.9367 H   0  0  0  0  0  0
  -27.2714  -33.3631   26.2064 H   0  0  0  0  0  0
  -28.3901  -32.6827   25.0340 H   0  0  0  0  0  0
  -28.0709  -31.8433   26.5432 H   0  0  0  0  0  0
  -28.2590  -38.0105   24.7496 H   0  0  0  0  0  0
  -28.1064  -36.2635   24.6301 H   0  0  0  0  0  0
  -27.2281  -37.1488   25.8857 H   0  0  0  0  0  0
  -20.9292  -29.8793   21.6936 H   0  0  0  0  0  0
  -26.0164  -38.2852   24.1411 H   0  0  0  0  0  0
  -28.8489  -15.7965   22.6609 H   0  0  0  0  0  0
  -30.1857  -18.0629   19.3270 H   0  0  0  0  0  0
  -26.8390  -20.1896   23.1487 H   0  0  0  0  0  0
  -27.3409  -20.9930   21.7642 H   0  0  0  0  0  0
  -28.3917  -21.0368   23.1964 H   0  0  0  0  0  0
  -29.0117  -18.9143   25.3956 H   0  0  0  0  0  0
  -27.4961  -18.5515   26.1990 H   0  0  0  0  0  0
  -27.5464  -19.8023   25.0350 H   0  0  0  0  0  0
  -29.0885  -16.3181   25.0379 H   0  0  0  0  0  0
  -27.6693  -15.5178   24.3464 H   0  0  0  0  0  0
  -27.5464  -16.3294   25.8678 H   0  0  0  0  0  0
  -25.6919  -18.4701   23.3683 H   0  0  0  0  0  0
  -25.5505  -17.5011   24.8183 H   0  0  0  0  0  0
  -25.8946  -16.7497   23.2680 H   0  0  0  0  0  0
  -29.5800  -24.3742   21.0782 H   0  0  0  0  0  0
  -27.8491  -24.1479   21.0690 H   0  0  0  0  0  0
  -27.8202  -25.1875   18.6840 H   0  0  0  0  0  0
  -29.4987  -25.4593   18.8551 H   0  0  0  0  0  0
  -28.8475  -15.1409   20.0808 H   0  0  0  0  0  0
  -29.6974  -20.3070   19.1240 H   0  0  0  0  0  0
  -29.6015  -21.9071   21.5092 H   0  0  0  0  0  0
  1 25  1  0  0  0
  1 30  2  0  0  0
  1 85  1  0  0  0
  2  3  1  0  0  0
  2 25  1  0  0  0
  2 89  1  0  0  0
  2 90  1  0  0  0
  3  4  1  0  0  0
  3 91  1  0  0  0
  3 92  1  0  0  0
  4  5  1  0  0  0
  4 93  1  0  0  0
  4 94  1  0  0  0
  5  6  1  0  0  0
  5 26  1  0  0  0
  5 95  1  0  0  0
  6 25  1  0  0  0
  6 96  1  0  0  0
  6 97  1  0  0  0
  7  8  2  0  0  0
  7 26  1  0  0  0
  7 29  1  0  0  0
  8  9  1  0  0  0
  8 22  1  0  0  0
  9 10  1  0  0  0
  9 27  2  0  0  0
 10 11  2  0  0  0
 10 15  1  0  0  0
 11 12  1  0  0  0
 11 98  1  0  0  0
 12 13  2  0  0  0
 12 99  1  0  0  0
 13 14  1  0  0  0
 13 31  1  0  0  0
 14 15  2  0  0  0
 14100  1  0  0  0
 15101  1  0  0  0
 16 17  2  0  0  0
 16 21  1  0  0  0
 16 31  1  0  0  0
 17 18  1  0  0  0
 17102  1  0  0  0
 18 19  2  0  0  0
 18103  1  0  0  0
 19 20  1  0  0  0
 19 24  1  0  0  0
 20 21  2  0  0  0
 20104  1  0  0  0
 21 23  1  0  0  0
 22 28  1  0  0  0
 22 32  2  0  0  0
 26 27  1  0  0  0
 28105  1  0  0  0
 28106  1  0  0  0
 29107  1  0  0  0
 29108  1  0  0  0
 33 34  1  0  0  0
 33 66  1  0  0  0
 33 70  2  0  0  0
 34 36  1  0  0  0
 34 59  1  0  0  0
 34109  1  0  0  0
 35 44  2  0  0  0
 35 45  1  0  0  0
 35 68  1  0  0  0
 36 56  1  0  0  0
 36110  1  0  0  0
 37 39  1  0  0  0
 37 47  1  0  0  0
 37 66  1  0  0  0
 37111  1  0  0  0
 38 43  2  0  0  0
 38 46  1  0  0  0
 38 47  1  0  0  0
 39 64  1  0  0  0
 39 67  2  0  0  0
 40 52  1  0  0  0
 40 53  2  0  0  0
 40 58  1  0  0  0
 41112  1  0  0  0
 41113  1  0  0  0
 41114  1  0  0  0
 41 48  1  0  0  0
 42 43  1  0  0  0
 42 66  1  0  0  0
 42115  1  0  0  0
 42116  1  0  0  0
 43 44  1  0  0  0
 44117  1  0  0  0
 45 46  2  0  0  0
 45118  1  0  0  0
 46119  1  0  0  0
 47120  1  0  0  0
 47121  1  0  0  0
 48 56  1  0  0  0
 48 65  1  0  0  0
 48122  1  0  0  0
 49 50  1  0  0  0
 49 53  1  0  0  0
 49 64  1  0  0  0
 49123  1  0  0  0
 50 51  1  0  0  0
 50124  1  0  0  0
 50125  1  0  0  0
 51 52  1  0  0  0
 51126  1  0  0  0
 51127  1  0  0  0
 52128  1  0  0  0
 52129  1  0  0  0
 53 54  1  0  0  0
 54 55  2  0  0  0
 54130  1  0  0  0
 55 57  1  0  0  0
 55131  1  0  0  0
 56 69  2  0  0  0
 57 58  2  0  0  0
 57132  1  0  0  0
 58133  1  0  0  0
 59 60  1  0  0  0
 59 61  1  0  0  0
 59 62  1  0  0  0
 60134  1  0  0  0
 60135  1  0  0  0
 60136  1  0  0  0
 61137  1  0  0  0
 61138  1  0  0  0
 61139  1  0  0  0
 62140  1  0  0  0
 62141  1  0  0  0
 62142  1  0  0  0
 63 65  1  0  0  0
 63143  1  0  0  0
 63144  1  0  0  0
 63145  1  0  0  0
 64146  1  0  0  0
 65147  1  0  0  0
 68 83  1  0  0  0
 71 73  2  0  0  0
 71 75  1  0  0  0
 71148  1  0  0  0
 72 75  2  0  0  0
 72 76  1  0  0  0
 72149  1  0  0  0
 73 74  1  0  0  0
 73 84  1  0  0  0
 74 76  2  0  0  0
 74 78  1  0  0  0
 75 85  1  0  0  0
 76 86  1  0  0  0
 77 82  1  0  0  0
 77 87  1  0  0  0
 77 88  2  0  0  0
 78150  1  0  0  0
 78151  1  0  0  0
 78152  1  0  0  0
 79153  1  0  0  0
 79154  1  0  0  0
 79155  1  0  0  0
 79 84  1  0  0  0
 80 84  1  0  0  0
 80156  1  0  0  0
 80157  1  0  0  0
 80158  1  0  0  0
 81 84  1  0  0  0
 81159  1  0  0  0
 81160  1  0  0  0
 81161  1  0  0  0
 82 83  1  0  0  0
 82162  1  0  0  0
 82163  1  0  0  0
 83164  1  0  0  0
 83165  1  0  0  0
 85166  1  0  0  0
 86 87  1  0  0  0
 86167  1  0  0  0
 87168  1  0  0  0
M  ISO  4   1 100  68 101  83 101  85 100
M  END
> <chiral flag>
0

> <version>
0

> <s_m_source_file>
/data/baiqing/PycharmProjects/Reinvent-master-3.2/result/LINK_invent/BTK/process_docking_weight1_custom_product_contain_oxygen_bond_distance_aromatic_linkinvent_7_9_3/rearranged_h_0062.sdf

> <i_m_source_file_index>
42

> <r_mmod_Potential_Energy-OPLS-2005>
40.3747253417969

> <r_mmod_Stretch_Energy-OPLS-2005>
57.1958503723145

> <r_mmod_Bend_Energy-OPLS-2005>
155.296478271484

> <r_mmod_Torsional_Energy-OPLS-2005>
264.911865234375

> <r_mmod_Improper_Torsional_Energy-OPLS-2005>
21.5849781036377

> <r_mmod_Van_der_Waal_Energy-OPLS-2005>
173.396728515625

> <r_mmod_Electrostatic_Energy-OPLS-2005>
-435.719604492188

> <r_mmod_Solvation_Energy-OPLS-2005>
-224.360168457031

> <b_mmod_Minimization_Converged-OPLS-2005>
0

> <r_mmod_RMS_Derivative-OPLS-2005>
2.78417873382568

$$$$
42
                    3D
 Structure written by MMmdl.
154162  0  0  1  0            999 V2000
  -30.7249  -14.4759   20.5726 C   0  0  0  0  0  0
  -30.4145  -12.3115   19.4256 C   0  0  0  0  0  0
  -29.4911  -12.4991   18.2062 C   0  0  0  0  0  0
  -28.0132  -12.3622   18.6199 C   0  0  0  0  0  0
  -27.6577  -13.2118   19.8695 C   0  0  2  0  0  0
  -28.7011  -13.0209   20.9936 C   0  0  0  0  0  0
  -25.2574  -13.8174   20.5682 C   0  0  0  0  0  0
  -24.1835  -13.0443   20.9185 C   0  0  0  0  0  0
  -24.6395  -11.6910   20.8736 C   0  0  0  0  0  0
  -23.9064  -10.4294   21.0409 C   0  0  0  0  0  0
  -24.3616   -9.4209   21.9188 C   0  0  0  0  0  0
  -23.6290   -8.2244   22.0755 C   0  0  0  0  0  0
  -22.4273   -8.0285   21.3545 C   0  0  0  0  0  0
  -21.9914   -9.0257   20.4644 C   0  0  0  0  0  0
  -22.7239  -10.2137   20.3055 C   0  0  0  0  0  0
  -21.6851   -6.0739   22.5279 C   0  0  0  0  0  0
  -21.4012   -6.5642   23.8213 C   0  0  0  0  0  0
  -21.3658   -5.6794   24.9175 C   0  0  0  0  0  0
  -21.6044   -4.3058   24.7225 C   0  0  0  0  0  0
  -21.8820   -3.8151   23.4346 C   0  0  0  0  0  0
  -21.9192   -4.6967   22.3402 C   0  0  0  0  0  0
  -22.7860  -13.5236   21.1854 C   0  0  0  0  0  0
  -22.1662   -4.2152   21.0979 F   0  0  0  0  0  0
  -21.5629   -3.4542   25.7737 F   0  0  0  0  0  0
  -30.0280  -13.3148   20.4309 N   0  0  0  0  0  0
  -26.3007  -12.9352   20.3352 N   0  0  0  0  0  0
  -25.9321  -11.6507   20.5765 N   0  0  0  0  0  0
  -22.0507  -12.8218   22.0405 N   0  0  0  0  0  0
  -25.4294  -15.1894   20.4081 N   0  0  0  0  0  0
  -31.8599  -14.6200   20.1097 O   0  0  0  0  0  0
  -21.6638   -6.8881   21.4241 O   0  0  0  0  0  0
  -22.3544  -14.5547   20.6708 O   0  0  0  0  0  0
  -24.6175  -31.8680   23.2113 C   0  0  0  0  0  0
  -25.9064  -32.4821   23.8408 C   0  0  1  0  0  0
  -27.2230  -27.4091   20.0931 C   0  0  0  0  0  0
  -25.5913  -33.8621   24.2336 N   0  0  0  0  0  0
  -23.4052  -30.4949   21.5532 C   0  0  2  0  0  0
  -24.8485  -28.9664   20.1110 C   0  0  0  0  0  0
  -22.7424  -29.4664   22.4984 C   0  0  0  0  0  0
  -18.0275  -28.1380   22.8497 C   0  0  0  0  0  0
  -24.1487  -36.7309   23.2641 C   0  0  0  0  0  0
  -25.9393  -30.8250   21.3705 C   0  0  0  0  0  0
  -26.0133  -29.4610   20.7110 C   0  0  0  0  0  0
  -27.2031  -28.6908   20.6988 C   0  0  0  0  0  0
  -26.0372  -26.9509   19.4672 C   0  0  0  0  0  0
  -24.8574  -27.7120   19.4846 C   0  0  0  0  0  0
  -23.6127  -29.8351   20.1657 C   0  0  0  0  0  0
  -25.4109  -36.3112   24.0339 C   0  0  1  0  0  0
  -20.5870  -28.3676   23.1310 C   0  0  2  0  0  0
  -20.6766  -26.9410   22.5414 C   0  0  0  0  0  0
  -19.5738  -26.6385   21.5215 C   0  0  0  0  0  0
  -18.1919  -26.7927   22.1626 C   0  0  0  0  0  0
  -19.1527  -28.8845   23.2898 C   0  0  0  0  0  0
  -18.9452  -30.1452   23.8905 C   0  0  0  0  0  0
  -17.6455  -30.6589   24.0564 C   0  0  0  0  0  0
  -25.9038  -34.9476   23.5132 C   0  0  0  0  0  0
  -16.5345  -29.9089   23.6330 C   0  0  0  0  0  0
  -16.7263  -28.6504   23.0355 C   0  0  0  0  0  0
  -26.4481  -31.6598   25.0740 C   0  0  0  0  0  0
  -25.3737  -31.3685   26.1473 C   0  0  0  0  0  0
  -27.0334  -30.3048   24.6131 C   0  0  0  0  0  0
  -27.6052  -32.4324   25.7505 C   0  0  0  0  0  0
  -27.5582  -37.1808   24.8468 C   0  0  0  0  0  0
  -21.4151  -29.3041   22.3718 N   0  0  0  0  0  0
  -26.4298  -37.3797   23.9409 N   0  0  0  0  0  0
  -24.6726  -31.0766   22.1027 N   0  0  0  0  0  0
  -23.4190  -28.8195   23.3023 O   0  0  0  0  0  0
  -28.3698  -26.6268   20.1398 O   0  0  0  0  0  0
  -26.5596  -34.8927   22.4690 O   0  0  0  0  0  0
  -23.5360  -32.1444   23.7492 O   0  0  0  0  0  0
  -32.3618  -18.2138   22.3260 C   0  0  0  0  0  0
  -31.6787  -19.3798   21.9369 C   0  0  0  0  0  0
  -31.8242  -16.9463   22.0475 C   0  0  0  0  0  0
  -29.8919  -18.0102   21.0063 C   0  0  0  0  0  0
  -30.4306  -19.3036   21.2693 C   0  0  0  0  0  0
  -30.5904  -16.8247   21.3706 C   0  0  0  0  0  0
  -29.9674  -21.7907   20.9767 C   0  0  0  0  0  0
  -28.9618  -22.7790   20.3497 C   0  0  0  0  0  0
  -29.2974  -24.2959   20.5163 C   0  0  0  0  0  0
  -28.1820  -25.2051   19.9495 C   0  0  0  0  0  0
  -29.6984  -20.4679   20.8360 N   0  0  0  0  0  0
  -30.0502  -15.5250   21.0947 N   0  0  0  0  0  0
  -30.9474  -22.2404   21.5735 O   0  0  0  0  0  0
  -31.4601  -12.3951   19.1240 H   0  0  0  0  0  0
  -30.3055  -11.3077   19.8391 H   0  0  0  0  0  0
  -29.7316  -11.7660   17.4350 H   0  0  0  0  0  0
  -29.6607  -13.4807   17.7602 H   0  0  0  0  0  0
  -27.8242  -11.3075   18.8235 H   0  0  0  0  0  0
  -27.3627  -12.6302   17.7866 H   0  0  0  0  0  0
  -27.6938  -14.2556   19.5566 H   0  0  0  0  0  0
  -28.6796  -11.9950   21.3645 H   0  0  0  0  0  0
  -28.4660  -13.6492   21.8540 H   0  0  0  0  0  0
  -25.2761   -9.5687   22.4761 H   0  0  0  0  0  0
  -24.0002   -7.4638   22.7476 H   0  0  0  0  0  0
  -21.0849   -8.8774   19.8947 H   0  0  0  0  0  0
  -22.3701  -10.9676   19.6161 H   0  0  0  0  0  0
  -21.2005   -7.6151   23.9716 H   0  0  0  0  0  0
  -21.1479   -6.0526   25.9077 H   0  0  0  0  0  0
  -22.0601   -2.7614   23.2844 H   0  0  0  0  0  0
  -22.4124  -11.9861   22.4760 H   0  0  0  0  0  0
  -21.1129  -13.1243   22.2632 H   0  0  0  0  0  0
  -24.6633  -15.8459   20.5134 H   0  0  0  0  0  0
  -26.2799  -15.6257   20.0751 H   0  0  0  0  0  0
  -26.7130  -32.5527   23.1167 H   0  0  0  0  0  0
  -25.0075  -33.9782   25.0487 H   0  0  0  0  0  0
  -22.6944  -31.3130   21.4179 H   0  0  0  0  0  0
  -23.3758  -35.9633   23.3305 H   0  0  0  0  0  0
  -24.3574  -36.8926   22.2053 H   0  0  0  0  0  0
  -23.7230  -37.6510   23.6655 H   0  0  0  0  0  0
  -26.0600  -31.5943   20.6063 H   0  0  0  0  0  0
  -26.8241  -30.8712   21.9935 H   0  0  0  0  0  0
  -28.0986  -29.0652   21.1752 H   0  0  0  0  0  0
  -25.9925  -25.9991   18.9587 H   0  0  0  0  0  0
  -23.9649  -27.3288   19.0090 H   0  0  0  0  0  0
  -23.7214  -30.6138   19.4097 H   0  0  0  0  0  0
  -22.7348  -29.2583   19.8690 H   0  0  0  0  0  0
  -25.1284  -36.1980   25.0833 H   0  0  0  0  0  0
  -20.9961  -28.3245   24.1430 H   0  0  0  0  0  0
  -20.5684  -26.2279   23.3602 H   0  0  0  0  0  0
  -21.6634  -26.7459   22.1197 H   0  0  0  0  0  0
  -19.6900  -25.6299   21.1235 H   0  0  0  0  0  0
  -19.6675  -27.3198   20.6749 H   0  0  0  0  0  0
  -17.4193  -26.6696   21.4021 H   0  0  0  0  0  0
  -18.0304  -26.0064   22.9015 H   0  0  0  0  0  0
  -19.7930  -30.7267   24.2272 H   0  0  0  0  0  0
  -17.5013  -31.6269   24.5168 H   0  0  0  0  0  0
  -15.5345  -30.2993   23.7650 H   0  0  0  0  0  0
  -15.8665  -28.0822   22.7066 H   0  0  0  0  0  0
  -24.5923  -30.7027   25.7791 H   0  0  0  0  0  0
  -24.8910  -32.2829   26.4934 H   0  0  0  0  0  0
  -25.8086  -30.8839   27.0225 H   0  0  0  0  0  0
  -26.2896  -29.6789   24.1192 H   0  0  0  0  0  0
  -27.4118  -29.7302   25.4596 H   0  0  0  0  0  0
  -27.8719  -30.4377   23.9290 H   0  0  0  0  0  0
  -27.2672  -33.3617   26.2105 H   0  0  0  0  0  0
  -28.3848  -32.6898   25.0322 H   0  0  0  0  0  0
  -28.0738  -31.8438   26.5402 H   0  0  0  0  0  0
  -28.2601  -38.0107   24.7534 H   0  0  0  0  0  0
  -28.1082  -36.2640   24.6284 H   0  0  0  0  0  0
  -27.2295  -37.1449   25.8870 H   0  0  0  0  0  0
  -20.9308  -29.8772   21.6950 H   0  0  0  0  0  0
  -26.0191  -38.2877   24.1413 H   0  0  0  0  0  0
  -33.3101  -18.2927   22.8387 H   0  0  0  0  0  0
  -32.1516  -20.3206   22.1691 H   0  0  0  0  0  0
  -32.3733  -16.0678   22.3580 H   0  0  0  0  0  0
  -28.9424  -17.9244   20.4971 H   0  0  0  0  0  0
  -27.9860  -22.5773   20.7934 H   0  0  0  0  0  0
  -28.8721  -22.5442   19.2886 H   0  0  0  0  0  0
  -30.2427  -24.5241   20.0228 H   0  0  0  0  0  0
  -29.4366  -24.5237   21.5737 H   0  0  0  0  0  0
  -27.2592  -24.8875   20.4387 H   0  0  0  0  0  0
  -28.0679  -25.0057   18.8828 H   0  0  0  0  0  0
  -28.8428  -20.2730   20.3335 H   0  0  0  0  0  0
  -29.0649  -15.3863   21.2601 H   0  0  0  0  0  0
  1 25  1  0  0  0
  1 30  2  0  0  0
  1 82  1  0  0  0
  2  3  1  0  0  0
  2 25  1  0  0  0
  2 84  1  0  0  0
  2 85  1  0  0  0
  3  4  1  0  0  0
  3 86  1  0  0  0
  3 87  1  0  0  0
  4  5  1  0  0  0
  4 88  1  0  0  0
  4 89  1  0  0  0
  5  6  1  0  0  0
  5 26  1  0  0  0
  5 90  1  0  0  0
  6 25  1  0  0  0
  6 91  1  0  0  0
  6 92  1  0  0  0
  7  8  2  0  0  0
  7 26  1  0  0  0
  7 29  1  0  0  0
  8  9  1  0  0  0
  8 22  1  0  0  0
  9 10  1  0  0  0
  9 27  2  0  0  0
 10 11  2  0  0  0
 10 15  1  0  0  0
 11 12  1  0  0  0
 11 93  1  0  0  0
 12 13  2  0  0  0
 12 94  1  0  0  0
 13 14  1  0  0  0
 13 31  1  0  0  0
 14 15  2  0  0  0
 14 95  1  0  0  0
 15 96  1  0  0  0
 16 17  2  0  0  0
 16 21  1  0  0  0
 16 31  1  0  0  0
 17 18  1  0  0  0
 17 97  1  0  0  0
 18 19  2  0  0  0
 18 98  1  0  0  0
 19 20  1  0  0  0
 19 24  1  0  0  0
 20 21  2  0  0  0
 20 99  1  0  0  0
 21 23  1  0  0  0
 22 28  1  0  0  0
 22 32  2  0  0  0
 26 27  1  0  0  0
 28100  1  0  0  0
 28101  1  0  0  0
 29102  1  0  0  0
 29103  1  0  0  0
 33 34  1  0  0  0
 33 66  1  0  0  0
 33 70  2  0  0  0
 34 36  1  0  0  0
 34 59  1  0  0  0
 34104  1  0  0  0
 35 44  2  0  0  0
 35 45  1  0  0  0
 35 68  1  0  0  0
 36 56  1  0  0  0
 36105  1  0  0  0
 37 39  1  0  0  0
 37 47  1  0  0  0
 37 66  1  0  0  0
 37106  1  0  0  0
 38 43  2  0  0  0
 38 46  1  0  0  0
 38 47  1  0  0  0
 39 64  1  0  0  0
 39 67  2  0  0  0
 40 52  1  0  0  0
 40 53  2  0  0  0
 40 58  1  0  0  0
 41107  1  0  0  0
 41108  1  0  0  0
 41109  1  0  0  0
 41 48  1  0  0  0
 42 43  1  0  0  0
 42 66  1  0  0  0
 42110  1  0  0  0
 42111  1  0  0  0
 43 44  1  0  0  0
 44112  1  0  0  0
 45 46  2  0  0  0
 45113  1  0  0  0
 46114  1  0  0  0
 47115  1  0  0  0
 47116  1  0  0  0
 48 56  1  0  0  0
 48 65  1  0  0  0
 48117  1  0  0  0
 49 50  1  0  0  0
 49 53  1  0  0  0
 49 64  1  0  0  0
 49118  1  0  0  0
 50 51  1  0  0  0
 50119  1  0  0  0
 50120  1  0  0  0
 51 52  1  0  0  0
 51121  1  0  0  0
 51122  1  0  0  0
 52123  1  0  0  0
 52124  1  0  0  0
 53 54  1  0  0  0
 54 55  2  0  0  0
 54125  1  0  0  0
 55 57  1  0  0  0
 55126  1  0  0  0
 56 69  2  0  0  0
 57 58  2  0  0  0
 57127  1  0  0  0
 58128  1  0  0  0
 59 60  1  0  0  0
 59 61  1  0  0  0
 59 62  1  0  0  0
 60129  1  0  0  0
 60130  1  0  0  0
 60131  1  0  0  0
 61132  1  0  0  0
 61133  1  0  0  0
 61134  1  0  0  0
 62135  1  0  0  0
 62136  1  0  0  0
 62137  1  0  0  0
 63 65  1  0  0  0
 63138  1  0  0  0
 63139  1  0  0  0
 63140  1  0  0  0
 64141  1  0  0  0
 65142  1  0  0  0
 68 80  1  0  0  0
 71 72  2  0  0  0
 71 73  1  0  0  0
 71143  1  0  0  0
 72 75  1  0  0  0
 72144  1  0  0  0
 73 76  2  0  0  0
 73145  1  0  0  0
 74 75  2  0  0  0
 74 76  1  0  0  0
 74146  1  0  0  0
 75 81  1  0  0  0
 76 82  1  0  0  0
 77 78  1  0  0  0
 77 81  1  0  0  0
 77 83  2  0  0  0
 78 79  1  0  0  0
 78147  1  0  0  0
 78148  1  0  0  0
 79 80  1  0  0  0
 79149  1  0  0  0
 79150  1  0  0  0
 80151  1  0  0  0
 80152  1  0  0  0
 81153  1  0  0  0
 82154  1  0  0  0
M  ISO  4   1 100  68 101  80 101  82 100
M  END
> <chiral flag>
0

> <version>
0

> <s_m_source_file>
/data/baiqing/PycharmProjects/Reinvent-master-3.2/result/LINK_invent/BTK/process_docking_weight1_custom_product_contain_oxygen_bond_distance_aromatic_linkinvent_7_9_3/rearranged_h_0062.sdf

> <i_m_source_file_index>
43

> <r_mmod_Potential_Energy-OPLS-2005>
-82.9036636352539

> <r_mmod_Stretch_Energy-OPLS-2005>
43.5146064758301

> <r_mmod_Bend_Energy-OPLS-2005>
102.434417724609

> <r_mmod_Torsional_Energy-OPLS-2005>
222.946380615234

> <r_mmod_Improper_Torsional_Energy-OPLS-2005>
3.56133818626404

> <r_mmod_Van_der_Waal_Energy-OPLS-2005>
167.015167236328

> <r_mmod_Electrostatic_Energy-OPLS-2005>
-401.277069091797

> <r_mmod_Solvation_Energy-OPLS-2005>
-238.666366577148

> <b_mmod_Minimization_Converged-OPLS-2005>
0

> <r_mmod_RMS_Derivative-OPLS-2005>
0.538797676563263

$$$$
43
                    3D
 Structure written by MMmdl.
158167  0  0  1  0            999 V2000
  -30.6443  -14.7467   20.4556 C   0  0  0  0  0  0
  -30.4285  -12.4609   19.4584 C   0  0  0  0  0  0
  -29.4976  -12.4692   18.2280 C   0  0  0  0  0  0
  -28.0273  -12.2960   18.6554 C   0  0  0  0  0  0
  -27.6289  -13.2287   19.8307 C   0  0  2  0  0  0
  -28.6802  -13.2197   20.9614 C   0  0  0  0  0  0
  -25.2469  -13.8211   20.5747 C   0  0  0  0  0  0
  -24.1731  -13.0442   20.9233 C   0  0  0  0  0  0
  -24.6338  -11.6935   20.8750 C   0  0  0  0  0  0
  -23.9012  -10.4295   21.0387 C   0  0  0  0  0  0
  -24.3575   -9.4218   21.9167 C   0  0  0  0  0  0
  -23.6263   -8.2248   22.0738 C   0  0  0  0  0  0
  -22.4256   -8.0270   21.3534 C   0  0  0  0  0  0
  -21.9881   -9.0243   20.4646 C   0  0  0  0  0  0
  -22.7186  -10.2131   20.3051 C   0  0  0  0  0  0
  -21.6851   -6.0718   22.5265 C   0  0  0  0  0  0
  -21.4029   -6.5624   23.8205 C   0  0  0  0  0  0
  -21.3655   -5.6781   24.9166 C   0  0  0  0  0  0
  -21.6039   -4.3050   24.7220 C   0  0  0  0  0  0
  -21.8805   -3.8142   23.4336 C   0  0  0  0  0  0
  -21.9205   -4.6955   22.3394 C   0  0  0  0  0  0
  -22.7787  -13.5248   21.1918 C   0  0  0  0  0  0
  -22.1673   -4.2138   21.0979 F   0  0  0  0  0  0
  -21.5616   -3.4536   25.7727 F   0  0  0  0  0  0
  -29.9777  -13.5453   20.3537 N   0  0  0  0  0  0
  -26.2870  -12.9410   20.3264 N   0  0  0  0  0  0
  -25.9263  -11.6563   20.5767 N   0  0  0  0  0  0
  -22.0417  -12.8239   22.0475 N   0  0  0  0  0  0
  -25.4211  -15.1930   20.4254 N   0  0  0  0  0  0
  -31.8602  -14.7945   20.2505 O   0  0  0  0  0  0
  -21.6644   -6.8857   21.4224 O   0  0  0  0  0  0
  -22.3475  -14.5542   20.6762 O   0  0  0  0  0  0
  -24.6376  -31.8483   23.1919 C   0  0  0  0  0  0
  -25.9164  -32.4702   23.8301 C   0  0  1  0  0  0
  -27.2203  -27.2210   20.1385 C   0  0  0  0  0  0
  -25.5933  -33.8506   24.2221 N   0  0  0  0  0  0
  -23.4378  -30.4691   21.5355 C   0  0  2  0  0  0
  -24.8859  -28.9025   20.1171 C   0  0  0  0  0  0
  -22.7531  -29.4583   22.4880 C   0  0  0  0  0  0
  -18.0298  -28.1320   22.8462 C   0  0  0  0  0  0
  -24.1500  -36.7278   23.2638 C   0  0  0  0  0  0
  -25.9887  -30.7449   21.3835 C   0  0  0  0  0  0
  -26.0591  -29.3634   20.7314 C   0  0  0  0  0  0
  -27.2281  -28.5320   20.7324 C   0  0  0  0  0  0
  -26.0298  -26.8414   19.4798 C   0  0  0  0  0  0
  -24.8773  -27.6506   19.4827 C   0  0  0  0  0  0
  -23.6625  -29.7955   20.1568 C   0  0  0  0  0  0
  -25.4108  -36.3049   24.0342 C   0  0  1  0  0  0
  -20.5875  -28.3698   23.1149 C   0  0  2  0  0  0
  -20.6838  -26.9449   22.5226 C   0  0  0  0  0  0
  -19.5693  -26.6191   21.5229 C   0  0  0  0  0  0
  -18.1931  -26.7811   22.1709 C   0  0  0  0  0  0
  -19.1541  -28.8822   23.2802 C   0  0  0  0  0  0
  -18.9449  -30.1408   23.8832 C   0  0  0  0  0  0
  -17.6448  -30.6529   24.0507 C   0  0  0  0  0  0
  -25.9056  -34.9421   23.5089 C   0  0  0  0  0  0
  -16.5345  -29.9027   23.6260 C   0  0  0  0  0  0
  -16.7288  -28.6426   23.0325 C   0  0  0  0  0  0
  -26.4516  -31.6546   25.0713 C   0  0  0  0  0  0
  -25.3731  -31.3739   26.1433 C   0  0  0  0  0  0
  -27.0337  -30.2942   24.6249 C   0  0  0  0  0  0
  -27.6055  -32.4312   25.7490 C   0  0  0  0  0  0
  -27.5580  -37.1799   24.8482 C   0  0  0  0  0  0
  -21.4233  -29.3119   22.3665 N   0  0  0  0  0  0
  -26.4287  -37.3741   23.9423 N   0  0  0  0  0  0
  -24.7073  -31.0421   22.0910 N   0  0  0  0  0  0
  -23.4192  -28.8066   23.2950 O   0  0  0  0  0  0
  -28.3055  -26.3044   20.1574 O   0  0  0  0  0  0
  -26.5641  -34.8903   22.4648 O   0  0  0  0  0  0
  -23.5514  -32.1357   23.7172 O   0  0  0  0  0  0
  -30.8338  -19.8370   22.1065 C   0  0  0  0  0  0
  -31.0511  -17.3878   22.0808 C   0  0  0  0  0  0
  -29.7296  -18.5310   20.3825 C   0  0  0  0  0  0
  -31.3406  -18.6414   22.6618 C   0  0  0  0  0  0
  -30.0095  -19.8454   20.9521 C   0  0  0  0  0  0
  -30.2390  -17.2788   20.9299 C   0  0  0  0  0  0
  -29.3632  -22.3926   21.0240 C   0  0  0  0  0  0
  -28.4477  -22.6953   18.9031 C   0  0  0  0  0  0
  -29.2337  -21.3553   18.9886 C   0  0  0  0  0  0
  -28.9893  -23.5840   20.0420 C   0  0  1  0  0  0
  -32.2099  -18.7162   23.9098 C   0  0  0  0  0  0
  -28.0548  -24.8451   20.5140 C   0  0  0  0  0  0
  -29.5417  -21.1609   20.4062 N   0  0  0  0  0  0
  -29.9015  -15.9177   20.4474 N   0  0  0  0  0  0
  -29.4647  -22.5893   22.2407 O   0  0  0  0  0  0
  -31.4645  -12.5945   19.1417 H   0  0  0  0  0  0
  -30.3840  -11.5042   19.9807 H   0  0  0  0  0  0
  -29.7797  -11.6679   17.5430 H   0  0  0  0  0  0
  -29.6175  -13.4006   17.6751 H   0  0  0  0  0  0
  -27.8956  -11.2562   18.9567 H   0  0  0  0  0  0
  -27.3598  -12.4554   17.8073 H   0  0  0  0  0  0
  -27.6066  -14.2326   19.4077 H   0  0  0  0  0  0
  -28.7145  -12.2531   21.4662 H   0  0  0  0  0  0
  -28.4206  -13.9630   21.7198 H   0  0  0  0  0  0
  -25.2700   -9.5728   22.4772 H   0  0  0  0  0  0
  -23.9967   -7.4665   22.7477 H   0  0  0  0  0  0
  -21.0803   -8.8763   19.8975 H   0  0  0  0  0  0
  -22.3603  -10.9681   19.6200 H   0  0  0  0  0  0
  -21.2031   -7.6144   23.9707 H   0  0  0  0  0  0
  -21.1487   -6.0501   25.9059 H   0  0  0  0  0  0
  -22.0588   -2.7606   23.2839 H   0  0  0  0  0  0
  -22.4006  -11.9873   22.4825 H   0  0  0  0  0  0
  -21.1058  -13.1282   22.2740 H   0  0  0  0  0  0
  -24.6686  -15.8527   20.5946 H   0  0  0  0  0  0
  -26.2902  -15.6473   20.1748 H   0  0  0  0  0  0
  -26.7215  -32.5363   23.1018 H   0  0  0  0  0  0
  -25.0093  -33.9610   25.0396 H   0  0  0  0  0  0
  -22.7417  -31.2962   21.3820 H   0  0  0  0  0  0
  -23.3738  -35.9630   23.3305 H   0  0  0  0  0  0
  -24.3620  -36.8880   22.2050 H   0  0  0  0  0  0
  -23.7280  -37.6502   23.6644 H   0  0  0  0  0  0
  -26.1426  -31.4957   20.6057 H   0  0  0  0  0  0
  -26.8550  -30.7909   22.0314 H   0  0  0  0  0  0
  -28.1205  -28.8693   21.2413 H   0  0  0  0  0  0
  -25.9772  -25.8944   18.9602 H   0  0  0  0  0  0
  -23.9862  -27.2941   18.9840 H   0  0  0  0  0  0
  -23.7868  -30.5617   19.3925 H   0  0  0  0  0  0
  -22.7847  -29.2283   19.8533 H   0  0  0  0  0  0
  -25.1277  -36.1894   25.0838 H   0  0  0  0  0  0
  -20.9948  -28.3148   24.1280 H   0  0  0  0  0  0
  -21.6605  -26.7615   22.0702 H   0  0  0  0  0  0
  -20.6086  -26.2289   23.3426 H   0  0  0  0  0  0
  -19.6829  -25.5976   21.1575 H   0  0  0  0  0  0
  -19.6518  -27.2773   20.6583 H   0  0  0  0  0  0
  -17.4158  -26.6433   21.4169 H   0  0  0  0  0  0
  -18.0342  -26.0032   22.9192 H   0  0  0  0  0  0
  -19.7934  -30.7240   24.2173 H   0  0  0  0  0  0
  -17.5017  -31.6213   24.5075 H   0  0  0  0  0  0
  -15.5348  -30.2924   23.7535 H   0  0  0  0  0  0
  -15.8723  -28.0688   22.7064 H   0  0  0  0  0  0
  -24.5896  -30.7070   25.7811 H   0  0  0  0  0  0
  -24.8910  -32.2905   26.4865 H   0  0  0  0  0  0
  -25.8025  -30.8957   27.0237 H   0  0  0  0  0  0
  -26.2911  -29.6701   24.1251 H   0  0  0  0  0  0
  -27.3950  -29.7220   25.4811 H   0  0  0  0  0  0
  -27.8835  -30.4180   23.9515 H   0  0  0  0  0  0
  -27.2622  -33.3603   26.2061 H   0  0  0  0  0  0
  -28.3831  -32.6889   25.0281 H   0  0  0  0  0  0
  -28.0738  -31.8448   26.5415 H   0  0  0  0  0  0
  -28.2598  -38.0102   24.7462 H   0  0  0  0  0  0
  -28.1061  -36.2607   24.6334 H   0  0  0  0  0  0
  -27.2303  -37.1480   25.8897 H   0  0  0  0  0  0
  -20.9387  -29.9110   21.7102 H   0  0  0  0  0  0
  -26.0173  -38.2822   24.1380 H   0  0  0  0  0  0
  -31.1106  -20.7647   22.5876 H   0  0  0  0  0  0
  -31.4468  -16.4953   22.5440 H   0  0  0  0  0  0
  -29.0984  -18.4859   19.5068 H   0  0  0  0  0  0
  -27.3952  -22.4697   19.0758 H   0  0  0  0  0  0
  -28.5112  -23.1648   17.9204 H   0  0  0  0  0  0
  -30.1768  -21.4301   18.4410 H   0  0  0  0  0  0
  -28.6766  -20.5184   18.5646 H   0  0  0  0  0  0
  -29.9425  -24.0092   19.7280 H   0  0  0  0  0  0
  -33.1870  -19.1371   23.6693 H   0  0  0  0  0  0
  -32.3760  -17.7363   24.3570 H   0  0  0  0  0  0
  -31.7399  -19.3482   24.6662 H   0  0  0  0  0  0
  -28.0340  -24.8371   21.6018 H   0  0  0  0  0  0
  -27.0388  -24.5645   20.2488 H   0  0  0  0  0  0
  -28.9547  -15.8017   20.1182 H   0  0  0  0  0  0
  1 25  1  0  0  0
  1 30  2  0  0  0
  1 84  1  0  0  0
  2  3  1  0  0  0
  2 25  1  0  0  0
  2 86  1  0  0  0
  2 87  1  0  0  0
  3  4  1  0  0  0
  3 88  1  0  0  0
  3 89  1  0  0  0
  4  5  1  0  0  0
  4 90  1  0  0  0
  4 91  1  0  0  0
  5  6  1  0  0  0
  5 26  1  0  0  0
  5 92  1  0  0  0
  6 25  1  0  0  0
  6 93  1  0  0  0
  6 94  1  0  0  0
  7  8  2  0  0  0
  7 26  1  0  0  0
  7 29  1  0  0  0
  8  9  1  0  0  0
  8 22  1  0  0  0
  9 10  1  0  0  0
  9 27  2  0  0  0
 10 11  2  0  0  0
 10 15  1  0  0  0
 11 12  1  0  0  0
 11 95  1  0  0  0
 12 13  2  0  0  0
 12 96  1  0  0  0
 13 14  1  0  0  0
 13 31  1  0  0  0
 14 15  2  0  0  0
 14 97  1  0  0  0
 15 98  1  0  0  0
 16 17  2  0  0  0
 16 21  1  0  0  0
 16 31  1  0  0  0
 17 18  1  0  0  0
 17 99  1  0  0  0
 18 19  2  0  0  0
 18100  1  0  0  0
 19 20  1  0  0  0
 19 24  1  0  0  0
 20 21  2  0  0  0
 20101  1  0  0  0
 21 23  1  0  0  0
 22 28  1  0  0  0
 22 32  2  0  0  0
 26 27  1  0  0  0
 28102  1  0  0  0
 28103  1  0  0  0
 29104  1  0  0  0
 29105  1  0  0  0
 33 34  1  0  0  0
 33 66  1  0  0  0
 33 70  2  0  0  0
 34 36  1  0  0  0
 34 59  1  0  0  0
 34106  1  0  0  0
 35 44  2  0  0  0
 35 45  1  0  0  0
 35 68  1  0  0  0
 36 56  1  0  0  0
 36107  1  0  0  0
 37 39  1  0  0  0
 37 47  1  0  0  0
 37 66  1  0  0  0
 37108  1  0  0  0
 38 43  2  0  0  0
 38 46  1  0  0  0
 38 47  1  0  0  0
 39 64  1  0  0  0
 39 67  2  0  0  0
 40 52  1  0  0  0
 40 53  2  0  0  0
 40 58  1  0  0  0
 41109  1  0  0  0
 41110  1  0  0  0
 41111  1  0  0  0
 41 48  1  0  0  0
 42 43  1  0  0  0
 42 66  1  0  0  0
 42112  1  0  0  0
 42113  1  0  0  0
 43 44  1  0  0  0
 44114  1  0  0  0
 45 46  2  0  0  0
 45115  1  0  0  0
 46116  1  0  0  0
 47117  1  0  0  0
 47118  1  0  0  0
 48 56  1  0  0  0
 48 65  1  0  0  0
 48119  1  0  0  0
 49 50  1  0  0  0
 49 53  1  0  0  0
 49 64  1  0  0  0
 49120  1  0  0  0
 50 51  1  0  0  0
 50121  1  0  0  0
 50122  1  0  0  0
 51 52  1  0  0  0
 51123  1  0  0  0
 51124  1  0  0  0
 52125  1  0  0  0
 52126  1  0  0  0
 53 54  1  0  0  0
 54 55  2  0  0  0
 54127  1  0  0  0
 55 57  1  0  0  0
 55128  1  0  0  0
 56 69  2  0  0  0
 57 58  2  0  0  0
 57129  1  0  0  0
 58130  1  0  0  0
 59 60  1  0  0  0
 59 61  1  0  0  0
 59 62  1  0  0  0
 60131  1  0  0  0
 60132  1  0  0  0
 60133  1  0  0  0
 61134  1  0  0  0
 61135  1  0  0  0
 61136  1  0  0  0
 62137  1  0  0  0
 62138  1  0  0  0
 62139  1  0  0  0
 63 65  1  0  0  0
 63140  1  0  0  0
 63141  1  0  0  0
 63142  1  0  0  0
 64143  1  0  0  0
 65144  1  0  0  0
 68 82  1  0  0  0
 71 74  2  0  0  0
 71 75  1  0  0  0
 71145  1  0  0  0
 72 74  1  0  0  0
 72 76  2  0  0  0
 72146  1  0  0  0
 73 75  2  0  0  0
 73 76  1  0  0  0
 73147  1  0  0  0
 74 81  1  0  0  0
 75 83  1  0  0  0
 76 84  1  0  0  0
 77 80  1  0  0  0
 77 83  1  0  0  0
 77 85  2  0  0  0
 78 79  1  0  0  0
 78 80  1  0  0  0
 78148  1  0  0  0
 78149  1  0  0  0
 79 83  1  0  0  0
 79150  1  0  0  0
 79151  1  0  0  0
 80 82  1  0  0  0
 80152  1  0  0  0
 81153  1  0  0  0
 81154  1  0  0  0
 81155  1  0  0  0
 82156  1  0  0  0
 82157  1  0  0  0
 84158  1  0  0  0
M  ISO  4   1 100  68 101  82 101  84 100
M  END
> <chiral flag>
0

> <version>
0

> <s_m_source_file>
/data/baiqing/PycharmProjects/Reinvent-master-3.2/result/LINK_invent/BTK/process_docking_weight1_custom_product_contain_oxygen_bond_distance_aromatic_linkinvent_7_9_3/rearranged_h_0062.sdf

> <i_m_source_file_index>
44

> <r_mmod_Potential_Energy-OPLS-2005>
321.921020507812

> <r_mmod_Stretch_Energy-OPLS-2005>
132.321075439453

> <r_mmod_Bend_Energy-OPLS-2005>
199.551559448242

> <r_mmod_Torsional_Energy-OPLS-2005>
293.741119384766

> <r_mmod_Improper_Torsional_Energy-OPLS-2005>
8.44763565063477

> <r_mmod_Van_der_Waal_Energy-OPLS-2005>
136.091339111328

> <r_mmod_Electrostatic_Energy-OPLS-2005>
-328.690399169922

> <r_mmod_Solvation_Energy-OPLS-2005>
-224.831726074219

> <b_mmod_Minimization_Converged-OPLS-2005>
0

> <r_mmod_RMS_Derivative-OPLS-2005>
6.09579181671143

$$$$
44
                    3D
 Structure written by MMmdl.
174183  0  0  1  0            999 V2000
  -30.5986  -14.7137   20.4493 C   0  0  0  0  0  0
  -30.4382  -12.4280   19.4678 C   0  0  0  0  0  0
  -29.5063  -12.5124   18.2376 C   0  0  0  0  0  0
  -28.0347  -12.3327   18.6553 C   0  0  0  0  0  0
  -27.6507  -13.2053   19.8776 C   0  0  2  0  0  0
  -28.7022  -13.1126   21.0050 C   0  0  0  0  0  0
  -25.2579  -13.8131   20.5731 C   0  0  0  0  0  0
  -24.1826  -13.0415   20.9158 C   0  0  0  0  0  0
  -24.6369  -11.6878   20.8747 C   0  0  0  0  0  0
  -23.9032  -10.4282   21.0431 C   0  0  0  0  0  0
  -24.3600   -9.4200   21.9206 C   0  0  0  0  0  0
  -23.6278   -8.2236   22.0759 C   0  0  0  0  0  0
  -22.4266   -8.0284   21.3535 C   0  0  0  0  0  0
  -21.9893   -9.0262   20.4659 C   0  0  0  0  0  0
  -22.7219  -10.2137   20.3077 C   0  0  0  0  0  0
  -21.6865   -6.0733   22.5274 C   0  0  0  0  0  0
  -21.4014   -6.5630   23.8204 C   0  0  0  0  0  0
  -21.3645   -5.6787   24.9167 C   0  0  0  0  0  0
  -21.6046   -4.3052   24.7214 C   0  0  0  0  0  0
  -21.8819   -3.8137   23.4339 C   0  0  0  0  0  0
  -21.9194   -4.6962   22.3400 C   0  0  0  0  0  0
  -22.7857  -13.5246   21.1830 C   0  0  0  0  0  0
  -22.1684   -4.2149   21.0968 F   0  0  0  0  0  0
  -21.5621   -3.4526   25.7725 F   0  0  0  0  0  0
  -30.0086  -13.4698   20.4308 N   0  0  0  0  0  0
  -26.2991  -12.9267   20.3444 N   0  0  0  0  0  0
  -25.9304  -11.6436   20.5820 N   0  0  0  0  0  0
  -22.0465  -12.8276   22.0398 N   0  0  0  0  0  0
  -25.4373  -15.1858   20.4261 N   0  0  0  0  0  0
  -31.7441  -14.8700   20.0173 O   0  0  0  0  0  0
  -21.6633   -6.8876   21.4236 O   0  0  0  0  0  0
  -22.3582  -14.5560   20.6701 O   0  0  0  0  0  0
  -24.6321  -31.8568   23.1998 C   0  0  0  0  0  0
  -25.9143  -32.4769   23.8360 C   0  0  1  0  0  0
  -27.2274  -27.2745   20.1149 C   0  0  0  0  0  0
  -25.5930  -33.8564   24.2292 N   0  0  0  0  0  0
  -23.4289  -30.4780   21.5457 C   0  0  2  0  0  0
  -24.8762  -28.9318   20.1089 C   0  0  0  0  0  0
  -22.7515  -29.4590   22.4938 C   0  0  0  0  0  0
  -18.0293  -28.1408   22.8484 C   0  0  0  0  0  0
  -24.1470  -36.7277   23.2643 C   0  0  0  0  0  0
  -25.9766  -30.7694   21.3805 C   0  0  0  0  0  0
  -26.0487  -29.3951   20.7190 C   0  0  0  0  0  0
  -27.2262  -28.5801   20.7122 C   0  0  0  0  0  0
  -26.0284  -26.8807   19.4740 C   0  0  0  0  0  0
  -24.8707  -27.6807   19.4770 C   0  0  0  0  0  0
  -23.6449  -29.8155   20.1602 C   0  0  0  0  0  0
  -25.4093  -36.3078   24.0343 C   0  0  1  0  0  0
  -20.5895  -28.3696   23.1275 C   0  0  2  0  0  0
  -20.6774  -26.9407   22.5422 C   0  0  0  0  0  0
  -19.5748  -26.6378   21.5231 C   0  0  0  0  0  0
  -18.1925  -26.7953   22.1633 C   0  0  0  0  0  0
  -19.1552  -28.8873   23.2867 C   0  0  0  0  0  0
  -18.9469  -30.1480   23.8884 C   0  0  0  0  0  0
  -17.6462  -30.6591   24.0571 C   0  0  0  0  0  0
  -25.9048  -34.9451   23.5130 C   0  0  0  0  0  0
  -16.5354  -29.9088   23.6333 C   0  0  0  0  0  0
  -16.7279  -28.6509   23.0344 C   0  0  0  0  0  0
  -26.4496  -31.6603   25.0755 C   0  0  0  0  0  0
  -25.3712  -31.3783   26.1485 C   0  0  0  0  0  0
  -27.0336  -30.3005   24.6253 C   0  0  0  0  0  0
  -27.6075  -32.4341   25.7493 C   0  0  0  0  0  0
  -27.5578  -37.1786   24.8458 C   0  0  0  0  0  0
  -21.4220  -29.3027   22.3659 N   0  0  0  0  0  0
  -26.4274  -37.3769   23.9423 N   0  0  0  0  0  0
  -24.6986  -31.0520   22.0985 N   0  0  0  0  0  0
  -23.4212  -28.8117   23.3028 O   0  0  0  0  0  0
  -28.3236  -26.3803   20.1725 O   0  0  0  0  0  0
  -26.5616  -34.8923   22.4698 O   0  0  0  0  0  0
  -23.5474  -32.1412   23.7273 O   0  0  0  0  0  0
  -28.1700  -19.3937   19.1903 C   0  0  0  0  0  0
  -29.7652  -18.3839   20.7186 C   0  0  0  0  0  0
  -28.5428  -16.9712   19.1707 C   0  0  0  0  0  0
  -29.1291  -19.6019   20.2129 C   0  0  0  0  0  0
  -27.8507  -18.1054   18.6923 C   0  0  0  0  0  0
  -29.4769  -17.0510   20.2251 C   0  0  0  0  0  0
  -29.8822  -21.2590   21.9215 C   0  0  0  0  0  0
  -25.9716  -18.7137   17.1279 C   0  0  0  0  0  0
  -30.3324  -22.6824   22.2895 C   0  0  0  0  0  0
  -29.3471  -23.7846   21.8812 C   0  0  0  0  0  0
  -28.7104  -22.2208   19.9785 C   0  0  0  0  0  0
  -29.0917  -23.7440   20.3770 C   0  0  1  0  0  0
  -24.1556  -16.8984   17.3518 C   0  0  0  0  0  0
  -24.7206  -17.8862   15.0976 C   0  0  0  0  0  0
  -23.5225  -19.2550   16.8177 C   0  0  0  0  0  0
  -28.0777  -24.9183   19.9285 C   0  0  0  0  0  0
  -24.6098  -18.1772   16.6055 C   0  0  0  0  0  0
  -29.3360  -21.0132   20.6956 N   0  0  0  0  0  0
  -26.7461  -17.8585   17.8214 N   0  0  0  0  0  0
  -29.8483  -15.7839   20.8938 N   0  0  0  0  0  0
  -30.0441  -20.3944   22.7857 O   0  0  0  0  0  0
  -26.3137  -19.8665   16.8527 O   0  0  0  0  0  0
  -31.4771  -12.5547   19.1593 H   0  0  0  0  0  0
  -30.3878  -11.4408   19.9309 H   0  0  0  0  0  0
  -29.7790  -11.7575   17.4995 H   0  0  0  0  0  0
  -29.6343  -13.4798   17.7476 H   0  0  0  0  0  0
  -27.8867  -11.2787   18.8974 H   0  0  0  0  0  0
  -27.3772  -12.5495   17.8139 H   0  0  0  0  0  0
  -27.6441  -14.2272   19.5226 H   0  0  0  0  0  0
  -28.7314  -12.1021   21.4160 H   0  0  0  0  0  0
  -28.4419  -13.7657   21.8396 H   0  0  0  0  0  0
  -25.2753   -9.5665   22.4781 H   0  0  0  0  0  0
  -23.9990   -7.4611   22.7460 H   0  0  0  0  0  0
  -21.0823   -8.8787   19.8966 H   0  0  0  0  0  0
  -22.3689  -10.9685   19.6183 H   0  0  0  0  0  0
  -21.2005   -7.6138   23.9716 H   0  0  0  0  0  0
  -21.1480   -6.0510   25.9069 H   0  0  0  0  0  0
  -22.0609   -2.7604   23.2843 H   0  0  0  0  0  0
  -22.4032  -11.9947   22.4852 H   0  0  0  0  0  0
  -21.1107  -13.1393   22.2553 H   0  0  0  0  0  0
  -24.6858  -15.8461   20.5893 H   0  0  0  0  0  0
  -26.3291  -15.6359   20.2784 H   0  0  0  0  0  0
  -26.7211  -32.5401   23.1108 H   0  0  0  0  0  0
  -25.0065  -33.9691   25.0430 H   0  0  0  0  0  0
  -22.7263  -31.3012   21.4024 H   0  0  0  0  0  0
  -23.3747  -35.9594   23.3300 H   0  0  0  0  0  0
  -24.3559  -36.8895   22.2058 H   0  0  0  0  0  0
  -23.7204  -37.6472   23.6664 H   0  0  0  0  0  0
  -26.1190  -31.5260   20.6082 H   0  0  0  0  0  0
  -26.8546  -30.8163   22.0131 H   0  0  0  0  0  0
  -28.1218  -28.9316   21.2065 H   0  0  0  0  0  0
  -25.9483  -25.9292   18.9724 H   0  0  0  0  0  0
  -23.9749  -27.3178   18.9931 H   0  0  0  0  0  0
  -23.7643  -30.5979   19.4094 H   0  0  0  0  0  0
  -22.7628  -29.2492   19.8543 H   0  0  0  0  0  0
  -25.1256  -36.1957   25.0832 H   0  0  0  0  0  0
  -20.9987  -28.3285   24.1398 H   0  0  0  0  0  0
  -20.5683  -26.2293   23.3615 H   0  0  0  0  0  0
  -21.6635  -26.7409   22.1219 H   0  0  0  0  0  0
  -19.6880  -25.6293   21.1245 H   0  0  0  0  0  0
  -19.6694  -27.3190   20.6767 H   0  0  0  0  0  0
  -17.4193  -26.6728   21.4032 H   0  0  0  0  0  0
  -18.0278  -26.0102   22.9027 H   0  0  0  0  0  0
  -19.7936  -30.7312   24.2235 H   0  0  0  0  0  0
  -17.5003  -31.6259   24.5186 H   0  0  0  0  0  0
  -15.5362  -30.2978   23.7653 H   0  0  0  0  0  0
  -15.8684  -28.0820   22.7066 H   0  0  0  0  0  0
  -24.5831  -30.7194   25.7820 H   0  0  0  0  0  0
  -24.8972  -32.2972   26.4942 H   0  0  0  0  0  0
  -25.8006  -30.8924   27.0252 H   0  0  0  0  0  0
  -26.2921  -29.6757   24.1248 H   0  0  0  0  0  0
  -27.3977  -29.7268   25.4794 H   0  0  0  0  0  0
  -27.8826  -30.4274   23.9523 H   0  0  0  0  0  0
  -27.2700  -33.3639   26.2078 H   0  0  0  0  0  0
  -28.3852  -32.6909   25.0287 H   0  0  0  0  0  0
  -28.0778  -31.8471   26.5390 H   0  0  0  0  0  0
  -28.2603  -38.0079   24.7513 H   0  0  0  0  0  0
  -28.1076  -36.2623   24.6262 H   0  0  0  0  0  0
  -27.2308  -37.1401   25.8863 H   0  0  0  0  0  0
  -20.9419  -29.8764   21.6871 H   0  0  0  0  0  0
  -26.0176  -38.2849   24.1438 H   0  0  0  0  0  0
  -27.6194  -20.2386   18.8177 H   0  0  0  0  0  0
  -30.4718  -18.4448   21.5308 H   0  0  0  0  0  0
  -28.2861  -16.0132   18.7519 H   0  0  0  0  0  0
  -31.3062  -22.8596   21.8344 H   0  0  0  0  0  0
  -30.4932  -22.7229   23.3679 H   0  0  0  0  0  0
  -29.7579  -24.7584   22.1512 H   0  0  0  0  0  0
  -28.4125  -23.6749   22.4337 H   0  0  0  0  0  0
  -28.8832  -22.1097   18.9070 H   0  0  0  0  0  0
  -27.6326  -22.1190   20.1116 H   0  0  0  0  0  0
  -30.0417  -23.9577   19.8851 H   0  0  0  0  0  0
  -24.8470  -16.0646   17.2184 H   0  0  0  0  0  0
  -23.1829  -16.5590   16.9917 H   0  0  0  0  0  0
  -24.0494  -17.0807   18.4233 H   0  0  0  0  0  0
  -25.4456  -17.0974   14.8938 H   0  0  0  0  0  0
  -25.0295  -18.7740   14.5440 H   0  0  0  0  0  0
  -23.7633  -17.5676   14.6833 H   0  0  0  0  0  0
  -23.4492  -19.5516   17.8656 H   0  0  0  0  0  0
  -22.5402  -18.8944   16.5110 H   0  0  0  0  0  0
  -23.7248  -20.1560   16.2363 H   0  0  0  0  0  0
  -27.1268  -24.6635   20.3972 H   0  0  0  0  0  0
  -27.9241  -24.8059   18.8540 H   0  0  0  0  0  0
  -26.3902  -16.9129   17.8218 H   0  0  0  0  0  0
  -29.1005  -15.4439   21.4785 H   0  0  0  0  0  0
  1 25  1  0  0  0
  1 30  2  0  0  0
  1 90  1  0  0  0
  2  3  1  0  0  0
  2 25  1  0  0  0
  2 93  1  0  0  0
  2 94  1  0  0  0
  3  4  1  0  0  0
  3 95  1  0  0  0
  3 96  1  0  0  0
  4  5  1  0  0  0
  4 97  1  0  0  0
  4 98  1  0  0  0
  5  6  1  0  0  0
  5 26  1  0  0  0
  5 99  1  0  0  0
  6 25  1  0  0  0
  6100  1  0  0  0
  6101  1  0  0  0
  7  8  2  0  0  0
  7 26  1  0  0  0
  7 29  1  0  0  0
  8  9  1  0  0  0
  8 22  1  0  0  0
  9 10  1  0  0  0
  9 27  2  0  0  0
 10 11  2  0  0  0
 10 15  1  0  0  0
 11 12  1  0  0  0
 11102  1  0  0  0
 12 13  2  0  0  0
 12103  1  0  0  0
 13 14  1  0  0  0
 13 31  1  0  0  0
 14 15  2  0  0  0
 14104  1  0  0  0
 15105  1  0  0  0
 16 17  2  0  0  0
 16 21  1  0  0  0
 16 31  1  0  0  0
 17 18  1  0  0  0
 17106  1  0  0  0
 18 19  2  0  0  0
 18107  1  0  0  0
 19 20  1  0  0  0
 19 24  1  0  0  0
 20 21  2  0  0  0
 20108  1  0  0  0
 21 23  1  0  0  0
 22 28  1  0  0  0
 22 32  2  0  0  0
 26 27  1  0  0  0
 28109  1  0  0  0
 28110  1  0  0  0
 29111  1  0  0  0
 29112  1  0  0  0
 33 34  1  0  0  0
 33 66  1  0  0  0
 33 70  2  0  0  0
 34 36  1  0  0  0
 34 59  1  0  0  0
 34113  1  0  0  0
 35 44  2  0  0  0
 35 45  1  0  0  0
 35 68  1  0  0  0
 36 56  1  0  0  0
 36114  1  0  0  0
 37 39  1  0  0  0
 37 47  1  0  0  0
 37 66  1  0  0  0
 37115  1  0  0  0
 38 43  2  0  0  0
 38 46  1  0  0  0
 38 47  1  0  0  0
 39 64  1  0  0  0
 39 67  2  0  0  0
 40 52  1  0  0  0
 40 53  2  0  0  0
 40 58  1  0  0  0
 41116  1  0  0  0
 41117  1  0  0  0
 41118  1  0  0  0
 41 48  1  0  0  0
 42 43  1  0  0  0
 42 66  1  0  0  0
 42119  1  0  0  0
 42120  1  0  0  0
 43 44  1  0  0  0
 44121  1  0  0  0
 45 46  2  0  0  0
 45122  1  0  0  0
 46123  1  0  0  0
 47124  1  0  0  0
 47125  1  0  0  0
 48 56  1  0  0  0
 48 65  1  0  0  0
 48126  1  0  0  0
 49 50  1  0  0  0
 49 53  1  0  0  0
 49 64  1  0  0  0
 49127  1  0  0  0
 50 51  1  0  0  0
 50128  1  0  0  0
 50129  1  0  0  0
 51 52  1  0  0  0
 51130  1  0  0  0
 51131  1  0  0  0
 52132  1  0  0  0
 52133  1  0  0  0
 53 54  1  0  0  0
 54 55  2  0  0  0
 54134  1  0  0  0
 55 57  1  0  0  0
 55135  1  0  0  0
 56 69  2  0  0  0
 57 58  2  0  0  0
 57136  1  0  0  0
 58137  1  0  0  0
 59 60  1  0  0  0
 59 61  1  0  0  0
 59 62  1  0  0  0
 60138  1  0  0  0
 60139  1  0  0  0
 60140  1  0  0  0
 61141  1  0  0  0
 61142  1  0  0  0
 61143  1  0  0  0
 62144  1  0  0  0
 62145  1  0  0  0
 62146  1  0  0  0
 63 65  1  0  0  0
 63147  1  0  0  0
 63148  1  0  0  0
 63149  1  0  0  0
 64150  1  0  0  0
 65151  1  0  0  0
 68 86  1  0  0  0
 71 74  2  0  0  0
 71 75  1  0  0  0
 71152  1  0  0  0
 72 74  1  0  0  0
 72 76  2  0  0  0
 72153  1  0  0  0
 73 75  2  0  0  0
 73 76  1  0  0  0
 73154  1  0  0  0
 74 88  1  0  0  0
 75 89  1  0  0  0
 76 90  1  0  0  0
 77 79  1  0  0  0
 77 88  1  0  0  0
 77 91  2  0  0  0
 78 87  1  0  0  0
 78 89  1  0  0  0
 78 92  2  0  0  0
 79 80  1  0  0  0
 79155  1  0  0  0
 79156  1  0  0  0
 80 82  1  0  0  0
 80157  1  0  0  0
 80158  1  0  0  0
 81 82  1  0  0  0
 81 88  1  0  0  0
 81159  1  0  0  0
 81160  1  0  0  0
 82 86  1  0  0  0
 82161  1  0  0  0
 83162  1  0  0  0
 83163  1  0  0  0
 83164  1  0  0  0
 83 87  1  0  0  0
 84 87  1  0  0  0
 84165  1  0  0  0
 84166  1  0  0  0
 84167  1  0  0  0
 85 87  1  0  0  0
 85168  1  0  0  0
 85169  1  0  0  0
 85170  1  0  0  0
 86171  1  0  0  0
 86172  1  0  0  0
 89173  1  0  0  0
 90174  1  0  0  0
M  ISO  4   1 100  68 101  86 101  90 100
M  END
> <chiral flag>
0

> <version>
0

> <s_m_source_file>
/data/baiqing/PycharmProjects/Reinvent-master-3.2/result/LINK_invent/BTK/process_docking_weight1_custom_product_contain_oxygen_bond_distance_aromatic_linkinvent_7_9_3/rearranged_h_0062.sdf

> <i_m_source_file_index>
45

> <r_mmod_Potential_Energy-OPLS-2005>
275.511047363281

> <r_mmod_Stretch_Energy-OPLS-2005>
131.858245849609

> <r_mmod_Bend_Energy-OPLS-2005>
182.600814819336

> <r_mmod_Torsional_Energy-OPLS-2005>
339.700134277344

> <r_mmod_Improper_Torsional_Energy-OPLS-2005>
8.64275932312012

> <r_mmod_Van_der_Waal_Energy-OPLS-2005>
161.435791015625

> <r_mmod_Electrostatic_Energy-OPLS-2005>
-386.405090332031

> <r_mmod_Solvation_Energy-OPLS-2005>
-237.827331542969

> <b_mmod_Minimization_Converged-OPLS-2005>
0

> <r_mmod_RMS_Derivative-OPLS-2005>
3.26537990570068

$$$$
45
                    3D
 Structure written by MMmdl.
159167  0  0  1  0            999 V2000
  -30.6751  -14.5514   20.5323 C   0  0  0  0  0  0
  -30.4194  -12.3431   19.4452 C   0  0  0  0  0  0
  -29.4975  -12.5003   18.2180 C   0  0  0  0  0  0
  -28.0190  -12.3545   18.6277 C   0  0  0  0  0  0
  -27.6526  -13.2157   19.8666 C   0  0  2  0  0  0
  -28.6941  -13.0489   20.9960 C   0  0  0  0  0  0
  -25.2549  -13.8183   20.5681 C   0  0  0  0  0  0
  -24.1819  -13.0443   20.9188 C   0  0  0  0  0  0
  -24.6386  -11.6913   20.8741 C   0  0  0  0  0  0
  -23.9061  -10.4295   21.0407 C   0  0  0  0  0  0
  -24.3615   -9.4211   21.9185 C   0  0  0  0  0  0
  -23.6290   -8.2247   22.0756 C   0  0  0  0  0  0
  -22.4272   -8.0283   21.3546 C   0  0  0  0  0  0
  -21.9906   -9.0257   20.4650 C   0  0  0  0  0  0
  -22.7232  -10.2137   20.3058 C   0  0  0  0  0  0
  -21.6852   -6.0736   22.5278 C   0  0  0  0  0  0
  -21.4015   -6.5642   23.8211 C   0  0  0  0  0  0
  -21.3656   -5.6794   24.9176 C   0  0  0  0  0  0
  -21.6044   -4.3055   24.7225 C   0  0  0  0  0  0
  -21.8818   -3.8149   23.4343 C   0  0  0  0  0  0
  -21.9192   -4.6965   22.3401 C   0  0  0  0  0  0
  -22.7843  -13.5235   21.1849 C   0  0  0  0  0  0
  -22.1661   -4.2149   21.0977 F   0  0  0  0  0  0
  -21.5626   -3.4540   25.7738 F   0  0  0  0  0  0
  -30.0174  -13.3588   20.4357 N   0  0  0  0  0  0
  -26.2975  -12.9362   20.3330 N   0  0  0  0  0  0
  -25.9310  -11.6512   20.5757 N   0  0  0  0  0  0
  -22.0488  -12.8231   22.0411 N   0  0  0  0  0  0
  -25.4261  -15.1902   20.4080 N   0  0  0  0  0  0
  -31.8280  -14.6764   20.1113 O   0  0  0  0  0  0
  -21.6636   -6.8878   21.4240 O   0  0  0  0  0  0
  -22.3528  -14.5538   20.6695 O   0  0  0  0  0  0
  -24.6184  -31.8637   23.2052 C   0  0  0  0  0  0
  -25.9064  -32.4801   23.8363 C   0  0  1  0  0  0
  -27.2302  -27.3771   20.1042 C   0  0  0  0  0  0
  -25.5888  -33.8597   24.2288 N   0  0  0  0  0  0
  -23.4094  -30.4862   21.5458 C   0  0  2  0  0  0
  -24.8551  -28.9444   20.1100 C   0  0  0  0  0  0
  -22.7436  -29.4637   22.4954 C   0  0  0  0  0  0
  -18.0278  -28.1379   22.8487 C   0  0  0  0  0  0
  -24.1493  -36.7318   23.2637 C   0  0  0  0  0  0
  -25.9429  -30.8099   21.3686 C   0  0  0  0  0  0
  -26.0163  -29.4398   20.7150 C   0  0  0  0  0  0
  -27.2011  -28.6612   20.7124 C   0  0  0  0  0  0
  -26.0492  -26.9138   19.4802 C   0  0  0  0  0  0
  -24.8693  -27.6840   19.4882 C   0  0  0  0  0  0
  -23.6203  -29.8176   20.1603 C   0  0  0  0  0  0
  -25.4115  -36.3097   24.0327 C   0  0  1  0  0  0
  -20.5872  -28.3675   23.1303 C   0  0  2  0  0  0
  -20.6770  -26.9406   22.5416 C   0  0  0  0  0  0
  -19.5749  -26.6383   21.5210 C   0  0  0  0  0  0
  -18.1928  -26.7922   22.1619 C   0  0  0  0  0  0
  -19.1527  -28.8840   23.2894 C   0  0  0  0  0  0
  -18.9456  -30.1446   23.8909 C   0  0  0  0  0  0
  -17.6461  -30.6587   24.0564 C   0  0  0  0  0  0
  -25.9034  -34.9459   23.5110 C   0  0  0  0  0  0
  -16.5352  -29.9091   23.6326 C   0  0  0  0  0  0
  -16.7267  -28.6506   23.0343 C   0  0  0  0  0  0
  -26.4471  -31.6602   25.0718 C   0  0  0  0  0  0
  -25.3720  -31.3731   26.1460 C   0  0  0  0  0  0
  -27.0310  -30.3031   24.6137 C   0  0  0  0  0  0
  -27.6032  -32.4334   25.7489 C   0  0  0  0  0  0
  -27.5588  -37.1814   24.8457 C   0  0  0  0  0  0
  -21.4156  -29.3041   22.3705 N   0  0  0  0  0  0
  -26.4300  -37.3784   23.9398 N   0  0  0  0  0  0
  -24.6753  -31.0695   22.0970 N   0  0  0  0  0  0
  -23.4196  -28.8180   23.3008 O   0  0  0  0  0  0
  -28.3906  -26.6148   20.1729 O   0  0  0  0  0  0
  -26.5614  -34.8922   22.4685 O   0  0  0  0  0  0
  -23.5365  -32.1411   23.7416 O   0  0  0  0  0  0
  -29.1866  -18.0040   21.0284 C   0  0  0  0  0  0
  -30.7679  -19.8578   20.8987 C   0  0  0  0  0  0
  -31.5614  -17.5418   20.8215 C   0  0  0  0  0  0
  -29.4387  -19.4125   21.0202 C   0  0  0  0  0  0
  -30.2372  -17.0414   20.9158 C   0  0  0  0  0  0
  -31.8203  -18.9277   20.8104 C   0  0  0  0  0  0
  -34.5602  -21.2286   18.9329 C   0  0  0  0  0  0
  -33.4810  -20.5326   19.3198 C   0  0  0  0  0  0
  -28.4861  -22.9472   20.8105 C   0  0  0  0  0  0
  -28.3181  -20.4458   21.2653 C   0  0  0  0  0  0
  -27.7100  -24.0884   20.0855 C   0  0  0  0  0  0
  -28.5012  -25.3208   19.5150 C   0  0  0  0  0  0
  -29.9335  -15.6192   20.9456 N   0  0  0  0  0  0
  -28.2618  -21.6671   20.4204 N   0  0  0  0  0  0
  -29.1975  -23.2128   21.7806 O   0  0  0  0  0  0
  -33.4896  -19.4993   20.7511 S   0  0  0  0  0  0
  -31.4646  -12.4374   19.1451 H   0  0  0  0  0  0
  -30.3238  -11.3435   19.8713 H   0  0  0  0  0  0
  -29.7481  -11.7588   17.4588 H   0  0  0  0  0  0
  -29.6579  -13.4764   17.7569 H   0  0  0  0  0  0
  -27.8394  -11.3008   18.8436 H   0  0  0  0  0  0
  -27.3683  -12.6057   17.7889 H   0  0  0  0  0  0
  -27.6793  -14.2550   19.5392 H   0  0  0  0  0  0
  -28.6836  -12.0274   21.3790 H   0  0  0  0  0  0
  -28.4505  -13.6858   21.8476 H   0  0  0  0  0  0
  -25.2758   -9.5686   22.4760 H   0  0  0  0  0  0
  -23.9996   -7.4639   22.7480 H   0  0  0  0  0  0
  -21.0835   -8.8776   19.8957 H   0  0  0  0  0  0
  -22.3688  -10.9676   19.6171 H   0  0  0  0  0  0
  -21.2011   -7.6151   23.9715 H   0  0  0  0  0  0
  -21.1477   -6.0525   25.9078 H   0  0  0  0  0  0
  -22.0601   -2.7608   23.2845 H   0  0  0  0  0  0
  -22.4094  -11.9882   22.4790 H   0  0  0  0  0  0
  -21.1113  -13.1270   22.2630 H   0  0  0  0  0  0
  -24.6557  -15.8424   20.5085 H   0  0  0  0  0  0
  -26.2694  -15.6261   20.0578 H   0  0  0  0  0  0
  -26.7139  -32.5485   23.1121 H   0  0  0  0  0  0
  -25.0001  -33.9743   25.0408 H   0  0  0  0  0  0
  -22.7002  -31.3048   21.4051 H   0  0  0  0  0  0
  -23.3738  -35.9669   23.3293 H   0  0  0  0  0  0
  -24.3577  -36.8938   22.2050 H   0  0  0  0  0  0
  -23.7270  -37.6527   23.6667 H   0  0  0  0  0  0
  -26.0638  -31.5744   20.5999 H   0  0  0  0  0  0
  -26.8275  -30.8613   21.9914 H   0  0  0  0  0  0
  -28.0937  -29.0353   21.1947 H   0  0  0  0  0  0
  -26.0123  -25.9491   18.9972 H   0  0  0  0  0  0
  -23.9760  -27.2974   19.0160 H   0  0  0  0  0  0
  -23.7329  -30.5923   19.4009 H   0  0  0  0  0  0
  -22.7442  -29.2383   19.8637 H   0  0  0  0  0  0
  -25.1300  -36.1956   25.0822 H   0  0  0  0  0  0
  -20.9961  -28.3255   24.1420 H   0  0  0  0  0  0
  -20.5667  -26.2285   23.3607 H   0  0  0  0  0  0
  -21.6645  -26.7448   22.1214 H   0  0  0  0  0  0
  -19.6909  -25.6292   21.1239 H   0  0  0  0  0  0
  -19.6691  -27.3193   20.6735 H   0  0  0  0  0  0
  -17.4200  -26.6659   21.4023 H   0  0  0  0  0  0
  -18.0333  -26.0068   22.9017 H   0  0  0  0  0  0
  -19.7937  -30.7250   24.2287 H   0  0  0  0  0  0
  -17.5021  -31.6264   24.5170 H   0  0  0  0  0  0
  -15.5351  -30.2998   23.7645 H   0  0  0  0  0  0
  -15.8662  -28.0837   22.7045 H   0  0  0  0  0  0
  -24.5876  -30.7103   25.7789 H   0  0  0  0  0  0
  -24.8934  -32.2899   26.4913 H   0  0  0  0  0  0
  -25.8050  -30.8890   27.0220 H   0  0  0  0  0  0
  -26.2880  -29.6782   24.1165 H   0  0  0  0  0  0
  -27.4025  -29.7282   25.4628 H   0  0  0  0  0  0
  -27.8735  -30.4316   23.9338 H   0  0  0  0  0  0
  -27.2633  -33.3619   26.2090 H   0  0  0  0  0  0
  -28.3830  -32.6917   25.0311 H   0  0  0  0  0  0
  -28.0714  -31.8448   26.5383 H   0  0  0  0  0  0
  -28.2602  -38.0118   24.7502 H   0  0  0  0  0  0
  -28.1093  -36.2645   24.6289 H   0  0  0  0  0  0
  -27.2299  -37.1457   25.8858 H   0  0  0  0  0  0
  -20.9321  -29.8775   21.6930 H   0  0  0  0  0  0
  -26.0183  -38.2861   24.1390 H   0  0  0  0  0  0
  -28.1672  -17.6605   21.1418 H   0  0  0  0  0  0
  -30.9852  -20.9167   20.9187 H   0  0  0  0  0  0
  -32.4128  -16.8809   20.7814 H   0  0  0  0  0  0
  -34.5338  -21.8571   18.0539 H   0  0  0  0  0  0
  -35.4878  -21.1831   19.4860 H   0  0  0  0  0  0
  -32.5561  -20.5853   18.7605 H   0  0  0  0  0  0
  -28.3661  -20.7336   22.3173 H   0  0  0  0  0  0
  -27.3587  -19.9390   21.1555 H   0  0  0  0  0  0
  -26.9375  -24.4414   20.7680 H   0  0  0  0  0  0
  -27.1676  -23.6333   19.2560 H   0  0  0  0  0  0
  -28.2415  -25.4533   18.4637 H   0  0  0  0  0  0
  -29.5629  -25.0714   19.4976 H   0  0  0  0  0  0
  -28.9893  -15.3797   21.2076 H   0  0  0  0  0  0
  -27.7290  -21.5571   19.5678 H   0  0  0  0  0  0
  1 25  1  0  0  0
  1 30  2  0  0  0
  1 83  1  0  0  0
  2  3  1  0  0  0
  2 25  1  0  0  0
  2 87  1  0  0  0
  2 88  1  0  0  0
  3  4  1  0  0  0
  3 89  1  0  0  0
  3 90  1  0  0  0
  4  5  1  0  0  0
  4 91  1  0  0  0
  4 92  1  0  0  0
  5  6  1  0  0  0
  5 26  1  0  0  0
  5 93  1  0  0  0
  6 25  1  0  0  0
  6 94  1  0  0  0
  6 95  1  0  0  0
  7  8  2  0  0  0
  7 26  1  0  0  0
  7 29  1  0  0  0
  8  9  1  0  0  0
  8 22  1  0  0  0
  9 10  1  0  0  0
  9 27  2  0  0  0
 10 11  2  0  0  0
 10 15  1  0  0  0
 11 12  1  0  0  0
 11 96  1  0  0  0
 12 13  2  0  0  0
 12 97  1  0  0  0
 13 14  1  0  0  0
 13 31  1  0  0  0
 14 15  2  0  0  0
 14 98  1  0  0  0
 15 99  1  0  0  0
 16 17  2  0  0  0
 16 21  1  0  0  0
 16 31  1  0  0  0
 17 18  1  0  0  0
 17100  1  0  0  0
 18 19  2  0  0  0
 18101  1  0  0  0
 19 20  1  0  0  0
 19 24  1  0  0  0
 20 21  2  0  0  0
 20102  1  0  0  0
 21 23  1  0  0  0
 22 28  1  0  0  0
 22 32  2  0  0  0
 26 27  1  0  0  0
 28103  1  0  0  0
 28104  1  0  0  0
 29105  1  0  0  0
 29106  1  0  0  0
 33 34  1  0  0  0
 33 66  1  0  0  0
 33 70  2  0  0  0
 34 36  1  0  0  0
 34 59  1  0  0  0
 34107  1  0  0  0
 35 44  2  0  0  0
 35 45  1  0  0  0
 35 68  1  0  0  0
 36 56  1  0  0  0
 36108  1  0  0  0
 37 39  1  0  0  0
 37 47  1  0  0  0
 37 66  1  0  0  0
 37109  1  0  0  0
 38 43  2  0  0  0
 38 46  1  0  0  0
 38 47  1  0  0  0
 39 64  1  0  0  0
 39 67  2  0  0  0
 40 52  1  0  0  0
 40 53  2  0  0  0
 40 58  1  0  0  0
 41110  1  0  0  0
 41111  1  0  0  0
 41112  1  0  0  0
 41 48  1  0  0  0
 42 43  1  0  0  0
 42 66  1  0  0  0
 42113  1  0  0  0
 42114  1  0  0  0
 43 44  1  0  0  0
 44115  1  0  0  0
 45 46  2  0  0  0
 45116  1  0  0  0
 46117  1  0  0  0
 47118  1  0  0  0
 47119  1  0  0  0
 48 56  1  0  0  0
 48 65  1  0  0  0
 48120  1  0  0  0
 49 50  1  0  0  0
 49 53  1  0  0  0
 49 64  1  0  0  0
 49121  1  0  0  0
 50 51  1  0  0  0
 50122  1  0  0  0
 50123  1  0  0  0
 51 52  1  0  0  0
 51124  1  0  0  0
 51125  1  0  0  0
 52126  1  0  0  0
 52127  1  0  0  0
 53 54  1  0  0  0
 54 55  2  0  0  0
 54128  1  0  0  0
 55 57  1  0  0  0
 55129  1  0  0  0
 56 69  2  0  0  0
 57 58  2  0  0  0
 57130  1  0  0  0
 58131  1  0  0  0
 59 60  1  0  0  0
 59 61  1  0  0  0
 59 62  1  0  0  0
 60132  1  0  0  0
 60133  1  0  0  0
 60134  1  0  0  0
 61135  1  0  0  0
 61136  1  0  0  0
 61137  1  0  0  0
 62138  1  0  0  0
 62139  1  0  0  0
 62140  1  0  0  0
 63 65  1  0  0  0
 63141  1  0  0  0
 63142  1  0  0  0
 63143  1  0  0  0
 64144  1  0  0  0
 65145  1  0  0  0
 68 82  1  0  0  0
 71 74  2  0  0  0
 71 75  1  0  0  0
 71146  1  0  0  0
 72 74  1  0  0  0
 72 76  2  0  0  0
 72147  1  0  0  0
 73 75  2  0  0  0
 73 76  1  0  0  0
 73148  1  0  0  0
 74 80  1  0  0  0
 75 83  1  0  0  0
 76 86  1  0  0  0
 77 78  2  0  0  0
 77149  1  0  0  0
 77150  1  0  0  0
 78 86  1  0  0  0
 78151  1  0  0  0
 79 81  1  0  0  0
 79 84  1  0  0  0
 79 85  2  0  0  0
 80 84  1  0  0  0
 80152  1  0  0  0
 80153  1  0  0  0
 81 82  1  0  0  0
 81154  1  0  0  0
 81155  1  0  0  0
 82156  1  0  0  0
 82157  1  0  0  0
 83158  1  0  0  0
 84159  1  0  0  0
M  ISO  4   1 100  68 101  82 101  83 100
M  END
> <chiral flag>
0

> <version>
0

> <s_m_source_file>
/data/baiqing/PycharmProjects/Reinvent-master-3.2/result/LINK_invent/BTK/process_docking_weight1_custom_product_contain_oxygen_bond_distance_aromatic_linkinvent_7_9_3/rearranged_h_0062.sdf

> <i_m_source_file_index>
46

> <r_mmod_Potential_Energy-OPLS-2005>
-102.923919677734

> <r_mmod_Stretch_Energy-OPLS-2005>
53.8828506469727

> <r_mmod_Bend_Energy-OPLS-2005>
126.723449707031

> <r_mmod_Torsional_Energy-OPLS-2005>
208.807357788086

> <r_mmod_Improper_Torsional_Energy-OPLS-2005>
6.55119132995605

> <r_mmod_Van_der_Waal_Energy-OPLS-2005>
144.844116210938

> <r_mmod_Electrostatic_Energy-OPLS-2005>
-416.519836425781

> <r_mmod_Solvation_Energy-OPLS-2005>
-253.338592529297

> <b_mmod_Minimization_Converged-OPLS-2005>
0

> <r_mmod_RMS_Derivative-OPLS-2005>
1.06382477283478

$$$$
46
                    3D
 Structure written by MMmdl.
164172  0  0  1  0            999 V2000
  -30.7081  -14.5032   20.6138 C   0  0  0  0  0  0
  -30.4356  -12.3370   19.4396 C   0  0  0  0  0  0
  -29.5053  -12.5089   18.2192 C   0  0  0  0  0  0
  -28.0294  -12.3411   18.6345 C   0  0  0  0  0  0
  -27.6596  -13.2050   19.8690 C   0  0  2  0  0  0
  -28.6985  -13.0173   20.9983 C   0  0  0  0  0  0
  -25.2575  -13.8171   20.5686 C   0  0  0  0  0  0
  -24.1828  -13.0450   20.9188 C   0  0  0  0  0  0
  -24.6369  -11.6918   20.8723 C   0  0  0  0  0  0
  -23.9031  -10.4306   21.0409 C   0  0  0  0  0  0
  -24.3586   -9.4225   21.9188 C   0  0  0  0  0  0
  -23.6279   -8.2243   22.0751 C   0  0  0  0  0  0
  -22.4248   -8.0282   21.3546 C   0  0  0  0  0  0
  -21.9884   -9.0257   20.4649 C   0  0  0  0  0  0
  -22.7202  -10.2145   20.3046 C   0  0  0  0  0  0
  -21.6846   -6.0739   22.5284 C   0  0  0  0  0  0
  -21.4031   -6.5651   23.8219 C   0  0  0  0  0  0
  -21.3666   -5.6795   24.9179 C   0  0  0  0  0  0
  -21.6026   -4.3047   24.7230 C   0  0  0  0  0  0
  -21.8809   -3.8153   23.4350 C   0  0  0  0  0  0
  -21.9192   -4.6971   22.3406 C   0  0  0  0  0  0
  -22.7843  -13.5246   21.1861 C   0  0  0  0  0  0
  -22.1653   -4.2170   21.0984 F   0  0  0  0  0  0
  -21.5631   -3.4524   25.7736 F   0  0  0  0  0  0
  -30.0333  -13.3293   20.4511 N   0  0  0  0  0  0
  -26.3001  -12.9327   20.3304 N   0  0  0  0  0  0
  -25.9291  -11.6486   20.5718 N   0  0  0  0  0  0
  -22.0471  -12.8267   22.0435 N   0  0  0  0  0  0
  -25.4325  -15.1887   20.4147 N   0  0  0  0  0  0
  -31.8274  -14.7003   20.1294 O   0  0  0  0  0  0
  -21.6628   -6.8878   21.4231 O   0  0  0  0  0  0
  -22.3523  -14.5562   20.6726 O   0  0  0  0  0  0
  -24.6189  -31.8675   23.2043 C   0  0  0  0  0  0
  -25.9075  -32.4823   23.8368 C   0  0  1  0  0  0
  -27.2384  -27.4063   20.1258 C   0  0  0  0  0  0
  -25.5915  -33.8611   24.2329 N   0  0  0  0  0  0
  -23.4110  -30.4877   21.5447 C   0  0  2  0  0  0
  -24.8592  -28.9434   20.1174 C   0  0  0  0  0  0
  -22.7442  -29.4677   22.4957 C   0  0  0  0  0  0
  -18.0299  -28.1421   22.8481 C   0  0  0  0  0  0
  -24.1474  -36.7310   23.2643 C   0  0  0  0  0  0
  -25.9374  -30.8283   21.3549 C   0  0  0  0  0  0
  -26.0178  -29.4544   20.7158 C   0  0  0  0  0  0
  -27.2137  -28.6950   20.7141 C   0  0  0  0  0  0
  -26.0657  -26.9160   19.5158 C   0  0  0  0  0  0
  -24.8785  -27.6746   19.5118 C   0  0  0  0  0  0
  -23.6239  -29.8167   20.1606 C   0  0  0  0  0  0
  -25.4096  -36.3112   24.0349 C   0  0  1  0  0  0
  -20.5882  -28.3722   23.1304 C   0  0  2  0  0  0
  -20.6795  -26.9451   22.5429 C   0  0  0  0  0  0
  -19.5776  -26.6423   21.5229 C   0  0  0  0  0  0
  -18.1948  -26.7968   22.1618 C   0  0  0  0  0  0
  -19.1544  -28.8886   23.2900 C   0  0  0  0  0  0
  -18.9467  -30.1477   23.8940 C   0  0  0  0  0  0
  -17.6468  -30.6604   24.0602 C   0  0  0  0  0  0
  -25.9034  -34.9480   23.5141 C   0  0  0  0  0  0
  -16.5363  -29.9123   23.6317 C   0  0  0  0  0  0
  -16.7289  -28.6550   23.0317 C   0  0  0  0  0  0
  -26.4493  -31.6587   25.0693 C   0  0  0  0  0  0
  -25.3780  -31.3656   26.1461 C   0  0  0  0  0  0
  -27.0314  -30.3046   24.6028 C   0  0  0  0  0  0
  -27.6083  -32.4302   25.7444 C   0  0  0  0  0  0
  -27.5578  -37.1809   24.8473 C   0  0  0  0  0  0
  -21.4164  -29.3069   22.3688 N   0  0  0  0  0  0
  -26.4282  -37.3803   23.9421 N   0  0  0  0  0  0
  -24.6753  -31.0763   22.0952 N   0  0  0  0  0  0
  -23.4196  -28.8245   23.3044 O   0  0  0  0  0  0
  -28.3870  -26.6387   20.1250 O   0  0  0  0  0  0
  -26.5581  -34.8942   22.4690 O   0  0  0  0  0  0
  -23.5377  -32.1429   23.7426 O   0  0  0  0  0  0
  -30.8754  -19.5268   22.2618 C   0  0  0  0  0  0
  -31.5222  -18.4765   22.9394 C   0  0  0  0  0  0
  -29.7664  -17.8989   20.8416 C   0  0  0  0  0  0
  -29.9981  -19.2600   21.1910 C   0  0  0  0  0  0
  -31.2902  -17.1286   22.5927 C   0  0  0  0  0  0
  -30.4003  -16.8270   21.5291 C   0  0  0  0  0  0
  -33.1930  -23.2321   19.9877 C   0  0  0  0  0  0
  -31.9820  -22.9390   20.4951 C   0  0  0  0  0  0
  -31.1699  -21.8670   19.9319 C   0  0  0  0  0  0
  -31.9832  -16.0437   23.4031 C   0  0  0  0  0  0
  -29.2707  -20.4091   20.4464 C   0  0  0  0  0  0
  -29.0574  -24.2148   20.1967 C   0  0  0  0  0  0
  -29.1457  -22.8944   21.0505 C   0  0  0  0  0  0
  -28.3215  -25.4043   20.8809 C   0  0  0  0  0  0
  -30.0145  -15.4780   21.2425 N   0  0  0  0  0  0
  -29.9196  -21.7550   20.4573 N   0  0  0  0  0  0
  -31.6128  -21.0484   19.1175 O   0  0  0  0  0  0
  -31.4813  -12.4499   19.1435 H   0  0  0  0  0  0
  -30.3520  -11.3311   19.8552 H   0  0  0  0  0  0
  -29.7610  -11.7862   17.4448 H   0  0  0  0  0  0
  -29.6499  -13.4967   17.7781 H   0  0  0  0  0  0
  -27.8651  -11.2872   18.8643 H   0  0  0  0  0  0
  -27.3697  -12.5717   17.7976 H   0  0  0  0  0  0
  -27.6959  -14.2438   19.5436 H   0  0  0  0  0  0
  -28.6843  -11.9915   21.3651 H   0  0  0  0  0  0
  -28.4396  -13.6284   21.8636 H   0  0  0  0  0  0
  -25.2726   -9.5734   22.4751 H   0  0  0  0  0  0
  -24.0026   -7.4627   22.7433 H   0  0  0  0  0  0
  -21.0831   -8.8756   19.8931 H   0  0  0  0  0  0
  -22.3653  -10.9682   19.6150 H   0  0  0  0  0  0
  -21.2030   -7.6151   23.9746 H   0  0  0  0  0  0
  -21.1490   -6.0514   25.9094 H   0  0  0  0  0  0
  -22.0581   -2.7615   23.2828 H   0  0  0  0  0  0
  -22.4071  -11.9962   22.4882 H   0  0  0  0  0  0
  -21.1089  -13.1325   22.2598 H   0  0  0  0  0  0
  -24.6694  -15.8476   20.5311 H   0  0  0  0  0  0
  -26.2912  -15.6296   20.1095 H   0  0  0  0  0  0
  -26.7149  -32.5557   23.1140 H   0  0  0  0  0  0
  -25.0097  -33.9750   25.0501 H   0  0  0  0  0  0
  -22.7037  -31.3062   21.3994 H   0  0  0  0  0  0
  -23.3745  -35.9636   23.3314 H   0  0  0  0  0  0
  -24.3568  -36.8917   22.2058 H   0  0  0  0  0  0
  -23.7218  -37.6514   23.6648 H   0  0  0  0  0  0
  -26.0360  -31.5818   20.5717 H   0  0  0  0  0  0
  -26.8304  -30.8997   21.9629 H   0  0  0  0  0  0
  -28.1068  -29.0837   21.1811 H   0  0  0  0  0  0
  -26.0742  -25.9403   19.0492 H   0  0  0  0  0  0
  -23.9882  -27.2761   19.0453 H   0  0  0  0  0  0
  -23.7466  -30.5911   19.4013 H   0  0  0  0  0  0
  -22.7481  -29.2405   19.8578 H   0  0  0  0  0  0
  -25.1260  -36.1974   25.0840 H   0  0  0  0  0  0
  -20.9980  -28.3323   24.1424 H   0  0  0  0  0  0
  -20.5726  -26.2344   23.3634 H   0  0  0  0  0  0
  -21.6671  -26.7518   22.1217 H   0  0  0  0  0  0
  -19.6946  -25.6340   21.1262 H   0  0  0  0  0  0
  -19.6715  -27.3241   20.6764 H   0  0  0  0  0  0
  -17.4229  -26.6746   21.3999 H   0  0  0  0  0  0
  -18.0320  -26.0104   22.9004 H   0  0  0  0  0  0
  -19.7944  -30.7279   24.2340 H   0  0  0  0  0  0
  -17.5027  -31.6263   24.5246 H   0  0  0  0  0  0
  -15.5367  -30.3042   23.7623 H   0  0  0  0  0  0
  -15.8692  -28.0901   22.6970 H   0  0  0  0  0  0
  -24.5944  -30.7020   25.7786 H   0  0  0  0  0  0
  -24.8981  -32.2791   26.4982 H   0  0  0  0  0  0
  -25.8158  -30.8771   27.0178 H   0  0  0  0  0  0
  -26.2803  -29.6773   24.1220 H   0  0  0  0  0  0
  -27.4260  -29.7311   25.4422 H   0  0  0  0  0  0
  -27.8555  -30.4384   23.9023 H   0  0  0  0  0  0
  -27.2721  -33.3597   26.2050 H   0  0  0  0  0  0
  -28.3857  -32.6882   25.0239 H   0  0  0  0  0  0
  -28.0802  -31.8424   26.5332 H   0  0  0  0  0  0
  -28.2615  -38.0088   24.7506 H   0  0  0  0  0  0
  -28.1046  -36.2623   24.6288 H   0  0  0  0  0  0
  -27.2310  -37.1464   25.8883 H   0  0  0  0  0  0
  -20.9366  -29.8728   21.6819 H   0  0  0  0  0  0
  -26.0176  -38.2883   24.1424 H   0  0  0  0  0  0
  -31.0605  -20.5434   22.5804 H   0  0  0  0  0  0
  -32.1884  -18.7167   23.7558 H   0  0  0  0  0  0
  -29.0765  -17.6770   20.0408 H   0  0  0  0  0  0
  -33.7881  -24.0267   20.4131 H   0  0  0  0  0  0
  -33.6110  -22.6924   19.1497 H   0  0  0  0  0  0
  -31.6377  -23.5138   21.3409 H   0  0  0  0  0  0
  -32.3936  -16.4438   24.3310 H   0  0  0  0  0  0
  -32.8071  -15.6117   22.8363 H   0  0  0  0  0  0
  -31.2951  -15.2439   23.6686 H   0  0  0  0  0  0
  -28.2652  -20.4638   20.8634 H   0  0  0  0  0  0
  -29.1286  -20.1090   19.4069 H   0  0  0  0  0  0
  -28.5554  -23.9973   19.2549 H   0  0  0  0  0  0
  -30.0495  -24.5743   19.9324 H   0  0  0  0  0  0
  -28.1246  -22.5753   21.2624 H   0  0  0  0  0  0
  -29.5722  -23.1197   22.0283 H   0  0  0  0  0  0
  -28.7914  -25.6026   21.8453 H   0  0  0  0  0  0
  -27.2954  -25.1126   21.1074 H   0  0  0  0  0  0
  -29.0728  -15.2270   21.5005 H   0  0  0  0  0  0
  1 25  1  0  0  0
  1 30  2  0  0  0
  1 85  1  0  0  0
  2  3  1  0  0  0
  2 25  1  0  0  0
  2 88  1  0  0  0
  2 89  1  0  0  0
  3  4  1  0  0  0
  3 90  1  0  0  0
  3 91  1  0  0  0
  4  5  1  0  0  0
  4 92  1  0  0  0
  4 93  1  0  0  0
  5  6  1  0  0  0
  5 26  1  0  0  0
  5 94  1  0  0  0
  6 25  1  0  0  0
  6 95  1  0  0  0
  6 96  1  0  0  0
  7  8  2  0  0  0
  7 26  1  0  0  0
  7 29  1  0  0  0
  8  9  1  0  0  0
  8 22  1  0  0  0
  9 10  1  0  0  0
  9 27  2  0  0  0
 10 11  2  0  0  0
 10 15  1  0  0  0
 11 12  1  0  0  0
 11 97  1  0  0  0
 12 13  2  0  0  0
 12 98  1  0  0  0
 13 14  1  0  0  0
 13 31  1  0  0  0
 14 15  2  0  0  0
 14 99  1  0  0  0
 15100  1  0  0  0
 16 17  2  0  0  0
 16 21  1  0  0  0
 16 31  1  0  0  0
 17 18  1  0  0  0
 17101  1  0  0  0
 18 19  2  0  0  0
 18102  1  0  0  0
 19 20  1  0  0  0
 19 24  1  0  0  0
 20 21  2  0  0  0
 20103  1  0  0  0
 21 23  1  0  0  0
 22 28  1  0  0  0
 22 32  2  0  0  0
 26 27  1  0  0  0
 28104  1  0  0  0
 28105  1  0  0  0
 29106  1  0  0  0
 29107  1  0  0  0
 33 34  1  0  0  0
 33 66  1  0  0  0
 33 70  2  0  0  0
 34 36  1  0  0  0
 34 59  1  0  0  0
 34108  1  0  0  0
 35 44  2  0  0  0
 35 45  1  0  0  0
 35 68  1  0  0  0
 36 56  1  0  0  0
 36109  1  0  0  0
 37 39  1  0  0  0
 37 47  1  0  0  0
 37 66  1  0  0  0
 37110  1  0  0  0
 38 43  2  0  0  0
 38 46  1  0  0  0
 38 47  1  0  0  0
 39 64  1  0  0  0
 39 67  2  0  0  0
 40 52  1  0  0  0
 40 53  2  0  0  0
 40 58  1  0  0  0
 41111  1  0  0  0
 41112  1  0  0  0
 41113  1  0  0  0
 41 48  1  0  0  0
 42 43  1  0  0  0
 42 66  1  0  0  0
 42114  1  0  0  0
 42115  1  0  0  0
 43 44  1  0  0  0
 44116  1  0  0  0
 45 46  2  0  0  0
 45117  1  0  0  0
 46118  1  0  0  0
 47119  1  0  0  0
 47120  1  0  0  0
 48 56  1  0  0  0
 48 65  1  0  0  0
 48121  1  0  0  0
 49 50  1  0  0  0
 49 53  1  0  0  0
 49 64  1  0  0  0
 49122  1  0  0  0
 50 51  1  0  0  0
 50123  1  0  0  0
 50124  1  0  0  0
 51 52  1  0  0  0
 51125  1  0  0  0
 51126  1  0  0  0
 52127  1  0  0  0
 52128  1  0  0  0
 53 54  1  0  0  0
 54 55  2  0  0  0
 54129  1  0  0  0
 55 57  1  0  0  0
 55130  1  0  0  0
 56 69  2  0  0  0
 57 58  2  0  0  0
 57131  1  0  0  0
 58132  1  0  0  0
 59 60  1  0  0  0
 59 61  1  0  0  0
 59 62  1  0  0  0
 60133  1  0  0  0
 60134  1  0  0  0
 60135  1  0  0  0
 61136  1  0  0  0
 61137  1  0  0  0
 61138  1  0  0  0
 62139  1  0  0  0
 62140  1  0  0  0
 62141  1  0  0  0
 63 65  1  0  0  0
 63142  1  0  0  0
 63143  1  0  0  0
 63144  1  0  0  0
 64145  1  0  0  0
 65146  1  0  0  0
 68 84  1  0  0  0
 71 72  2  0  0  0
 71 74  1  0  0  0
 71147  1  0  0  0
 72 75  1  0  0  0
 72148  1  0  0  0
 73 74  2  0  0  0
 73 76  1  0  0  0
 73149  1  0  0  0
 74 81  1  0  0  0
 75 76  2  0  0  0
 75 80  1  0  0  0
 76 85  1  0  0  0
 77 78  2  0  0  0
 77150  1  0  0  0
 77151  1  0  0  0
 78 79  1  0  0  0
 78152  1  0  0  0
 79 86  1  0  0  0
 79 87  2  0  0  0
 80153  1  0  0  0
 80154  1  0  0  0
 80155  1  0  0  0
 81 86  1  0  0  0
 81156  1  0  0  0
 81157  1  0  0  0
 82 83  1  0  0  0
 82 84  1  0  0  0
 82158  1  0  0  0
 82159  1  0  0  0
 83 86  1  0  0  0
 83160  1  0  0  0
 83161  1  0  0  0
 84162  1  0  0  0
 84163  1  0  0  0
 85164  1  0  0  0
M  ISO  4   1 100  68 101  84 101  85 100
M  END
> <chiral flag>
0

> <version>
0

> <s_m_source_file>
/data/baiqing/PycharmProjects/Reinvent-master-3.2/result/LINK_invent/BTK/process_docking_weight1_custom_product_contain_oxygen_bond_distance_aromatic_linkinvent_7_9_3/rearranged_h_0062.sdf

> <i_m_source_file_index>
47

> <r_mmod_Potential_Energy-OPLS-2005>
6.23069286346436

> <r_mmod_Stretch_Energy-OPLS-2005>
52.5914115905762

> <r_mmod_Bend_Energy-OPLS-2005>
103.724983215332

> <r_mmod_Torsional_Energy-OPLS-2005>
273.443634033203

> <r_mmod_Improper_Torsional_Energy-OPLS-2005>
4.06040096282959

> <r_mmod_Van_der_Waal_Energy-OPLS-2005>
161.594528198242

> <r_mmod_Electrostatic_Energy-OPLS-2005>
-376.225769042969

> <r_mmod_Solvation_Energy-OPLS-2005>
-230.559463500977

> <b_mmod_Minimization_Converged-OPLS-2005>
0

> <r_mmod_RMS_Derivative-OPLS-2005>
3.83363366127014

$$$$
47
                    3D
 Structure written by MMmdl.
172181  0  0  1  0            999 V2000
  -30.7578  -14.3911   20.6476 C   0  0  0  0  0  0
  -30.4125  -12.2905   19.3980 C   0  0  0  0  0  0
  -29.4824  -12.5181   18.1916 C   0  0  0  0  0  0
  -28.0063  -12.3771   18.6097 C   0  0  0  0  0  0
  -27.6629  -13.2051   19.8768 C   0  0  2  0  0  0
  -28.7036  -12.9600   20.9916 C   0  0  0  0  0  0
  -25.2592  -13.8167   20.5685 C   0  0  0  0  0  0
  -24.1837  -13.0448   20.9175 C   0  0  0  0  0  0
  -24.6390  -11.6911   20.8736 C   0  0  0  0  0  0
  -23.9062  -10.4296   21.0413 C   0  0  0  0  0  0
  -24.3612   -9.4212   21.9188 C   0  0  0  0  0  0
  -23.6289   -8.2248   22.0757 C   0  0  0  0  0  0
  -22.4272   -8.0286   21.3549 C   0  0  0  0  0  0
  -21.9910   -9.0259   20.4648 C   0  0  0  0  0  0
  -22.7238  -10.2137   20.3056 C   0  0  0  0  0  0
  -21.6851   -6.0737   22.5281 C   0  0  0  0  0  0
  -21.4013   -6.5641   23.8214 C   0  0  0  0  0  0
  -21.3658   -5.6792   24.9176 C   0  0  0  0  0  0
  -21.6048   -4.3058   24.7227 C   0  0  0  0  0  0
  -21.8817   -3.8149   23.4349 C   0  0  0  0  0  0
  -21.9190   -4.6966   22.3404 C   0  0  0  0  0  0
  -22.7861  -13.5249   21.1839 C   0  0  0  0  0  0
  -22.1659   -4.2153   21.0982 F   0  0  0  0  0  0
  -21.5629   -3.4544   25.7739 F   0  0  0  0  0  0
  -30.0397  -13.2554   20.4429 N   0  0  0  0  0  0
  -26.3029  -12.9334   20.3375 N   0  0  0  0  0  0
  -25.9313  -11.6494   20.5766 N   0  0  0  0  0  0
  -22.0492  -12.8236   22.0388 N   0  0  0  0  0  0
  -25.4334  -15.1881   20.4092 N   0  0  0  0  0  0
  -31.8331  -14.6149   20.0832 O   0  0  0  0  0  0
  -21.6637   -6.8879   21.4245 O   0  0  0  0  0  0
  -22.3551  -14.5560   20.6692 O   0  0  0  0  0  0
  -24.6130  -31.8696   23.2128 C   0  0  0  0  0  0
  -25.9030  -32.4833   23.8406 C   0  0  1  0  0  0
  -27.2278  -27.4454   20.0856 C   0  0  0  0  0  0
  -25.5883  -33.8633   24.2326 N   0  0  0  0  0  0
  -23.3992  -30.4958   21.5531 C   0  0  2  0  0  0
  -24.8421  -28.9686   20.1127 C   0  0  0  0  0  0
  -22.7396  -29.4671   22.4995 C   0  0  0  0  0  0
  -18.0271  -28.1378   22.8493 C   0  0  0  0  0  0
  -24.1491  -36.7314   23.2639 C   0  0  0  0  0  0
  -25.9283  -30.8363   21.3682 C   0  0  0  0  0  0
  -26.0024  -29.4742   20.7105 C   0  0  0  0  0  0
  -27.1960  -28.7191   20.6971 C   0  0  0  0  0  0
  -26.0500  -26.9635   19.4659 C   0  0  0  0  0  0
  -24.8601  -27.7106   19.4890 C   0  0  0  0  0  0
  -23.6046  -29.8339   20.1657 C   0  0  0  0  0  0
  -25.4113  -36.3117   24.0338 C   0  0  1  0  0  0
  -20.5863  -28.3663   23.1320 C   0  0  2  0  0  0
  -20.6761  -26.9404   22.5417 C   0  0  0  0  0  0
  -19.5738  -26.6388   21.5209 C   0  0  0  0  0  0
  -18.1913  -26.7924   22.1623 C   0  0  0  0  0  0
  -19.1521  -28.8834   23.2906 C   0  0  0  0  0  0
  -18.9456  -30.1435   23.8926 C   0  0  0  0  0  0
  -17.6460  -30.6581   24.0566 C   0  0  0  0  0  0
  -25.9042  -34.9485   23.5130 C   0  0  0  0  0  0
  -16.5348  -29.9090   23.6329 C   0  0  0  0  0  0
  -16.7264  -28.6508   23.0349 C   0  0  0  0  0  0
  -26.4465  -31.6611   25.0729 C   0  0  0  0  0  0
  -25.3734  -31.3711   26.1476 C   0  0  0  0  0  0
  -27.0305  -30.3057   24.6109 C   0  0  0  0  0  0
  -27.6040  -32.4331   25.7484 C   0  0  0  0  0  0
  -27.5583  -37.1804   24.8463 C   0  0  0  0  0  0
  -21.4132  -29.3032   22.3729 N   0  0  0  0  0  0
  -26.4303  -37.3797   23.9407 N   0  0  0  0  0  0
  -24.6648  -31.0806   22.1029 N   0  0  0  0  0  0
  -23.4172  -28.8217   23.3035 O   0  0  0  0  0  0
  -28.4028  -26.7218   20.1138 O   0  0  0  0  0  0
  -26.5610  -34.8932   22.4694 O   0  0  0  0  0  0
  -23.5326  -32.1447   23.7525 O   0  0  0  0  0  0
  -32.0715  -16.3743   22.6136 C   0  0  0  0  0  0
  -30.1309  -17.6935   21.9651 C   0  0  0  0  0  0
  -32.0009  -18.7571   23.1594 C   0  0  0  0  0  0
  -32.6706  -17.5051   23.2117 C   0  0  0  0  0  0
  -30.7233  -18.8406   22.5390 C   0  0  0  0  0  0
  -30.8072  -16.4572   21.9932 C   0  0  0  0  0  0
  -29.3899  -20.6552   23.5097 C   0  0  0  0  0  0
  -33.1293  -20.9791   23.1228 C   0  0  0  0  0  0
  -32.6016  -19.9437   23.7948 C   0  0  0  0  0  0
  -29.3319  -24.5645   20.8073 C   0  0  0  0  0  0
  -29.0303  -22.0952   23.1842 C   0  0  0  0  0  0
  -30.1216  -20.9740   21.3298 C   0  0  0  0  0  0
  -29.8396  -22.3740   21.9088 C   0  0  1  0  0  0
  -35.1559  -17.5358   22.7951 C   0  0  0  0  0  0
  -34.2411  -16.0686   24.6555 C   0  0  0  0  0  0
  -28.3170  -25.3009   19.9219 C   0  0  0  0  0  0
  -34.0572  -17.3695   23.8543 C   0  0  0  0  0  0
  -30.0273  -20.0794   22.4782 N   0  0  0  0  0  0
  -30.1849  -15.2999   21.4532 N   0  0  0  0  0  0
  -29.1199  -23.2502   20.9793 N   0  0  0  0  0  0
  -29.1046  -20.1241   24.5884 O   0  0  0  0  0  0
  -30.2618  -25.1691   21.3492 O   0  0  0  0  0  0
  -31.4572  -12.3795   19.0948 H   0  0  0  0  0  0
  -30.3024  -11.2733   19.7774 H   0  0  0  0  0  0
  -29.7142  -11.8080   17.3968 H   0  0  0  0  0  0
  -29.6521  -13.5122   17.7749 H   0  0  0  0  0  0
  -27.8128  -11.3191   18.7934 H   0  0  0  0  0  0
  -27.3530  -12.6646   17.7849 H   0  0  0  0  0  0
  -27.7161  -14.2576   19.5971 H   0  0  0  0  0  0
  -28.6700  -11.9181   21.3134 H   0  0  0  0  0  0
  -28.4598  -13.5412   21.8811 H   0  0  0  0  0  0
  -25.2756   -9.5686   22.4764 H   0  0  0  0  0  0
  -23.9995   -7.4639   22.7474 H   0  0  0  0  0  0
  -21.0842   -8.8783   19.8948 H   0  0  0  0  0  0
  -22.3707  -10.9679   19.6163 H   0  0  0  0  0  0
  -21.2005   -7.6149   23.9719 H   0  0  0  0  0  0
  -21.1483   -6.0524   25.9076 H   0  0  0  0  0  0
  -22.0596   -2.7614   23.2850 H   0  0  0  0  0  0
  -22.4087  -11.9885   22.4764 H   0  0  0  0  0  0
  -21.1115  -13.1275   22.2592 H   0  0  0  0  0  0
  -24.6714  -15.8486   20.5187 H   0  0  0  0  0  0
  -26.2911  -15.6246   20.0952 H   0  0  0  0  0  0
  -26.7106  -32.5551   23.1176 H   0  0  0  0  0  0
  -25.0024  -33.9800   25.0463 H   0  0  0  0  0  0
  -22.6880  -31.3131   21.4172 H   0  0  0  0  0  0
  -23.3746  -35.9649   23.3324 H   0  0  0  0  0  0
  -24.3583  -36.8923   22.2049 H   0  0  0  0  0  0
  -23.7244  -37.6523   23.6647 H   0  0  0  0  0  0
  -26.0451  -31.6061   20.6044 H   0  0  0  0  0  0
  -26.8144  -30.8821   21.9895 H   0  0  0  0  0  0
  -28.0908  -29.1047   21.1667 H   0  0  0  0  0  0
  -26.0262  -26.0158   18.9483 H   0  0  0  0  0  0
  -23.9710  -27.3170   19.0152 H   0  0  0  0  0  0
  -23.7134  -30.6119   19.4094 H   0  0  0  0  0  0
  -22.7285  -29.2559   19.8669 H   0  0  0  0  0  0
  -25.1288  -36.1987   25.0830 H   0  0  0  0  0  0
  -20.9955  -28.3235   24.1441 H   0  0  0  0  0  0
  -20.5674  -26.2280   23.3605 H   0  0  0  0  0  0
  -21.6631  -26.7454   22.1191 H   0  0  0  0  0  0
  -19.6913  -25.6307   21.1220 H   0  0  0  0  0  0
  -19.6679  -27.3224   20.6757 H   0  0  0  0  0  0
  -17.4182  -26.6680   21.4021 H   0  0  0  0  0  0
  -18.0317  -26.0061   22.9021 H   0  0  0  0  0  0
  -19.7936  -30.7228   24.2318 H   0  0  0  0  0  0
  -17.5019  -31.6271   24.5157 H   0  0  0  0  0  0
  -15.5349  -30.2992   23.7645 H   0  0  0  0  0  0
  -15.8665  -28.0826   22.7050 H   0  0  0  0  0  0
  -24.5902  -30.7071   25.7805 H   0  0  0  0  0  0
  -24.8926  -32.2863   26.4937 H   0  0  0  0  0  0
  -25.8081  -30.8860   27.0223 H   0  0  0  0  0  0
  -26.2851  -29.6816   24.1167 H   0  0  0  0  0  0
  -27.4085  -29.7304   25.4570 H   0  0  0  0  0  0
  -27.8683  -30.4384   23.9258 H   0  0  0  0  0  0
  -27.2653  -33.3615   26.2087 H   0  0  0  0  0  0
  -28.3824  -32.6921   25.0298 H   0  0  0  0  0  0
  -28.0725  -31.8443   26.5377 H   0  0  0  0  0  0
  -28.2595  -38.0105   24.7506 H   0  0  0  0  0  0
  -28.1084  -36.2631   24.6295 H   0  0  0  0  0  0
  -27.2290  -37.1467   25.8865 H   0  0  0  0  0  0
  -20.9283  -29.8767   21.6964 H   0  0  0  0  0  0
  -26.0199  -38.2881   24.1401 H   0  0  0  0  0  0
  -32.5836  -15.4241   22.6316 H   0  0  0  0  0  0
  -29.1585  -17.7684   21.4978 H   0  0  0  0  0  0
  -33.5444  -21.8277   23.6473 H   0  0  0  0  0  0
  -33.1585  -20.9949   22.0432 H   0  0  0  0  0  0
  -32.5911  -19.9648   24.8761 H   0  0  0  0  0  0
  -29.2953  -22.7707   23.9979 H   0  0  0  0  0  0
  -27.9554  -22.1536   23.0130 H   0  0  0  0  0  0
  -31.0974  -20.9200   20.8466 H   0  0  0  0  0  0
  -29.3693  -20.6771   20.5979 H   0  0  0  0  0  0
  -30.7954  -22.8187   22.1973 H   0  0  0  0  0  0
  -35.0831  -18.5092   22.3085 H   0  0  0  0  0  0
  -35.0800  -16.7722   22.0205 H   0  0  0  0  0  0
  -36.1496  -17.4658   23.2384 H   0  0  0  0  0  0
  -33.4500  -15.9487   25.3968 H   0  0  0  0  0  0
  -35.1896  -16.0803   25.1939 H   0  0  0  0  0  0
  -34.2491  -15.1823   24.0213 H   0  0  0  0  0  0
  -27.3455  -24.8999   20.2115 H   0  0  0  0  0  0
  -28.4849  -25.0535   18.8734 H   0  0  0  0  0  0
  -34.1915  -18.1656   24.5854 H   0  0  0  0  0  0
  -29.2271  -15.1229   21.7163 H   0  0  0  0  0  0
  -28.3373  -22.8498   20.4775 H   0  0  0  0  0  0
  1 25  1  0  0  0
  1 30  2  0  0  0
  1 89  1  0  0  0
  2  3  1  0  0  0
  2 25  1  0  0  0
  2 93  1  0  0  0
  2 94  1  0  0  0
  3  4  1  0  0  0
  3 95  1  0  0  0
  3 96  1  0  0  0
  4  5  1  0  0  0
  4 97  1  0  0  0
  4 98  1  0  0  0
  5  6  1  0  0  0
  5 26  1  0  0  0
  5 99  1  0  0  0
  6 25  1  0  0  0
  6100  1  0  0  0
  6101  1  0  0  0
  7  8  2  0  0  0
  7 26  1  0  0  0
  7 29  1  0  0  0
  8  9  1  0  0  0
  8 22  1  0  0  0
  9 10  1  0  0  0
  9 27  2  0  0  0
 10 11  2  0  0  0
 10 15  1  0  0  0
 11 12  1  0  0  0
 11102  1  0  0  0
 12 13  2  0  0  0
 12103  1  0  0  0
 13 14  1  0  0  0
 13 31  1  0  0  0
 14 15  2  0  0  0
 14104  1  0  0  0
 15105  1  0  0  0
 16 17  2  0  0  0
 16 21  1  0  0  0
 16 31  1  0  0  0
 17 18  1  0  0  0
 17106  1  0  0  0
 18 19  2  0  0  0
 18107  1  0  0  0
 19 20  1  0  0  0
 19 24  1  0  0  0
 20 21  2  0  0  0
 20108  1  0  0  0
 21 23  1  0  0  0
 22 28  1  0  0  0
 22 32  2  0  0  0
 26 27  1  0  0  0
 28109  1  0  0  0
 28110  1  0  0  0
 29111  1  0  0  0
 29112  1  0  0  0
 33 34  1  0  0  0
 33 66  1  0  0  0
 33 70  2  0  0  0
 34 36  1  0  0  0
 34 59  1  0  0  0
 34113  1  0  0  0
 35 44  2  0  0  0
 35 45  1  0  0  0
 35 68  1  0  0  0
 36 56  1  0  0  0
 36114  1  0  0  0
 37 39  1  0  0  0
 37 47  1  0  0  0
 37 66  1  0  0  0
 37115  1  0  0  0
 38 43  2  0  0  0
 38 46  1  0  0  0
 38 47  1  0  0  0
 39 64  1  0  0  0
 39 67  2  0  0  0
 40 52  1  0  0  0
 40 53  2  0  0  0
 40 58  1  0  0  0
 41116  1  0  0  0
 41117  1  0  0  0
 41118  1  0  0  0
 41 48  1  0  0  0
 42 43  1  0  0  0
 42 66  1  0  0  0
 42119  1  0  0  0
 42120  1  0  0  0
 43 44  1  0  0  0
 44121  1  0  0  0
 45 46  2  0  0  0
 45122  1  0  0  0
 46123  1  0  0  0
 47124  1  0  0  0
 47125  1  0  0  0
 48 56  1  0  0  0
 48 65  1  0  0  0
 48126  1  0  0  0
 49 50  1  0  0  0
 49 53  1  0  0  0
 49 64  1  0  0  0
 49127  1  0  0  0
 50 51  1  0  0  0
 50128  1  0  0  0
 50129  1  0  0  0
 51 52  1  0  0  0
 51130  1  0  0  0
 51131  1  0  0  0
 52132  1  0  0  0
 52133  1  0  0  0
 53 54  1  0  0  0
 54 55  2  0  0  0
 54134  1  0  0  0
 55 57  1  0  0  0
 55135  1  0  0  0
 56 69  2  0  0  0
 57 58  2  0  0  0
 57136  1  0  0  0
 58137  1  0  0  0
 59 60  1  0  0  0
 59 61  1  0  0  0
 59 62  1  0  0  0
 60138  1  0  0  0
 60139  1  0  0  0
 60140  1  0  0  0
 61141  1  0  0  0
 61142  1  0  0  0
 61143  1  0  0  0
 62144  1  0  0  0
 62145  1  0  0  0
 62146  1  0  0  0
 63 65  1  0  0  0
 63147  1  0  0  0
 63148  1  0  0  0
 63149  1  0  0  0
 64150  1  0  0  0
 65151  1  0  0  0
 68 86  1  0  0  0
 71 74  2  0  0  0
 71 76  1  0  0  0
 71152  1  0  0  0
 72 75  1  0  0  0
 72 76  2  0  0  0
 72153  1  0  0  0
 73 74  1  0  0  0
 73 75  2  0  0  0
 73 79  1  0  0  0
 74 87  1  0  0  0
 75 88  1  0  0  0
 76 89  1  0  0  0
 77 81  1  0  0  0
 77 88  1  0  0  0
 77 91  2  0  0  0
 78 79  2  0  0  0
 78154  1  0  0  0
 78155  1  0  0  0
 79156  1  0  0  0
 80 86  1  0  0  0
 80 90  1  0  0  0
 80 92  2  0  0  0
 81 83  1  0  0  0
 81157  1  0  0  0
 81158  1  0  0  0
 82 83  1  0  0  0
 82 88  1  0  0  0
 82159  1  0  0  0
 82160  1  0  0  0
 83 90  1  0  0  0
 83161  1  0  0  0
 84162  1  0  0  0
 84163  1  0  0  0
 84164  1  0  0  0
 84 87  1  0  0  0
 85 87  1  0  0  0
 85165  1  0  0  0
 85166  1  0  0  0
 85167  1  0  0  0
 86168  1  0  0  0
 86169  1  0  0  0
 87170  1  0  0  0
 89171  1  0  0  0
 90172  1  0  0  0
M  ISO  4   1 100  68 101  86 101  89 100
M  END
> <chiral flag>
0

> <version>
0

> <s_m_source_file>
/data/baiqing/PycharmProjects/Reinvent-master-3.2/result/LINK_invent/BTK/process_docking_weight1_custom_product_contain_oxygen_bond_distance_aromatic_linkinvent_7_9_3/rearranged_h_0062.sdf

> <i_m_source_file_index>
48

> <r_mmod_Potential_Energy-OPLS-2005>
13.9840450286865

> <r_mmod_Stretch_Energy-OPLS-2005>
36.3477058410645

> <r_mmod_Bend_Energy-OPLS-2005>
121.068328857422

> <r_mmod_Torsional_Energy-OPLS-2005>
325.814300537109

> <r_mmod_Improper_Torsional_Energy-OPLS-2005>
2.60345506668091

> <r_mmod_Van_der_Waal_Energy-OPLS-2005>
159.845336914062

> <r_mmod_Electrostatic_Energy-OPLS-2005>
-378.106170654297

> <r_mmod_Solvation_Energy-OPLS-2005>
-262.99853515625

> <b_mmod_Minimization_Converged-OPLS-2005>
0

> <r_mmod_RMS_Derivative-OPLS-2005>
1.25317060947418

$$$$
48
                    3D
 Structure written by MMmdl.
161170  0  0  1  0            999 V2000
  -30.6617  -14.6140   20.4906 C   0  0  0  0  0  0
  -30.4147  -12.3711   19.4601 C   0  0  0  0  0  0
  -29.4954  -12.4903   18.2251 C   0  0  0  0  0  0
  -28.0223  -12.3320   18.6410 C   0  0  0  0  0  0
  -27.6445  -13.2181   19.8590 C   0  0  2  0  0  0
  -28.6880  -13.0953   20.9929 C   0  0  0  0  0  0
  -25.2511  -13.8179   20.5685 C   0  0  0  0  0  0
  -24.1789  -13.0443   20.9196 C   0  0  0  0  0  0
  -24.6363  -11.6915   20.8758 C   0  0  0  0  0  0
  -23.9050  -10.4296   21.0428 C   0  0  0  0  0  0
  -24.3614   -9.4212   21.9200 C   0  0  0  0  0  0
  -23.6290   -8.2245   22.0777 C   0  0  0  0  0  0
  -22.4277   -8.0287   21.3560 C   0  0  0  0  0  0
  -21.9910   -9.0254   20.4656 C   0  0  0  0  0  0
  -22.7231  -10.2129   20.3062 C   0  0  0  0  0  0
  -21.6852   -6.0740   22.5285 C   0  0  0  0  0  0
  -21.4000   -6.5640   23.8223 C   0  0  0  0  0  0
  -21.3650   -5.6787   24.9180 C   0  0  0  0  0  0
  -21.6042   -4.3052   24.7224 C   0  0  0  0  0  0
  -21.8818   -3.8151   23.4346 C   0  0  0  0  0  0
  -21.9188   -4.6966   22.3409 C   0  0  0  0  0  0
  -22.7802  -13.5225   21.1854 C   0  0  0  0  0  0
  -22.1658   -4.2161   21.0978 F   0  0  0  0  0  0
  -21.5633   -3.4534   25.7739 F   0  0  0  0  0  0
  -30.0007  -13.4165   20.4187 N   0  0  0  0  0  0
  -26.2926  -12.9364   20.3296 N   0  0  0  0  0  0
  -25.9283  -11.6524   20.5764 N   0  0  0  0  0  0
  -22.0447  -12.8223   22.0405 N   0  0  0  0  0  0
  -25.4234  -15.1910   20.4107 N   0  0  0  0  0  0
  -31.8283  -14.7000   20.0998 O   0  0  0  0  0  0
  -21.6632   -6.8890   21.4257 O   0  0  0  0  0  0
  -22.3501  -14.5547   20.6713 O   0  0  0  0  0  0
  -24.6250  -31.8596   23.2003 C   0  0  0  0  0  0
  -25.9075  -32.4776   23.8372 C   0  0  1  0  0  0
  -27.2334  -27.3458   20.1127 C   0  0  0  0  0  0
  -25.5865  -33.8567   24.2286 N   0  0  0  0  0  0
  -23.4235  -30.4829   21.5379 C   0  0  2  0  0  0
  -24.8744  -28.9359   20.1127 C   0  0  0  0  0  0
  -22.7492  -29.4634   22.4869 C   0  0  0  0  0  0
  -18.0316  -28.1441   22.8480 C   0  0  0  0  0  0
  -24.1497  -36.7335   23.2651 C   0  0  0  0  0  0
  -25.9605  -30.8023   21.3663 C   0  0  0  0  0  0
  -26.0420  -29.4292   20.7108 C   0  0  0  0  0  0
  -27.2301  -28.6437   20.6996 C   0  0  0  0  0  0
  -26.0464  -26.8855   19.5102 C   0  0  0  0  0  0
  -24.8745  -27.6666   19.5090 C   0  0  0  0  0  0
  -23.6435  -29.8174   20.1549 C   0  0  0  0  0  0
  -25.4111  -36.3093   24.0338 C   0  0  1  0  0  0
  -20.5918  -28.3745   23.1275 C   0  0  2  0  0  0
  -20.6799  -26.9465   22.5423 C   0  0  0  0  0  0
  -19.5776  -26.6416   21.5232 C   0  0  0  0  0  0
  -18.1946  -26.7978   22.1645 C   0  0  0  0  0  0
  -19.1570  -28.8899   23.2880 C   0  0  0  0  0  0
  -18.9505  -30.1480   23.8938 C   0  0  0  0  0  0
  -17.6506  -30.6628   24.0608 C   0  0  0  0  0  0
  -25.9043  -34.9447   23.5137 C   0  0  0  0  0  0
  -16.5396  -29.9156   23.6337 C   0  0  0  0  0  0
  -16.7308  -28.6589   23.0334 C   0  0  0  0  0  0
  -26.4475  -31.6577   25.0740 C   0  0  0  0  0  0
  -25.3726  -31.3675   26.1491 C   0  0  0  0  0  0
  -27.0312  -30.3013   24.6152 C   0  0  0  0  0  0
  -27.6057  -32.4267   25.7519 C   0  0  0  0  0  0
  -27.5575  -37.1805   24.8460 C   0  0  0  0  0  0
  -21.4199  -29.3098   22.3650 N   0  0  0  0  0  0
  -26.4297  -37.3773   23.9399 N   0  0  0  0  0  0
  -24.6877  -31.0642   22.0935 N   0  0  0  0  0  0
  -23.4213  -28.8164   23.2942 O   0  0  0  0  0  0
  -28.3431  -26.5047   20.1091 O   0  0  0  0  0  0
  -26.5662  -34.8908   22.4736 O   0  0  0  0  0  0
  -23.5407  -32.1365   23.7341 O   0  0  0  0  0  0
  -29.5309  -18.2905   20.6710 C   0  0  0  0  0  0
  -31.7172  -17.4044   21.2575 C   0  0  0  0  0  0
  -31.3638  -19.8280   21.2143 C   0  0  0  0  0  0
  -30.0132  -19.6519   20.8003 C   0  0  0  0  0  0
  -30.3796  -17.1381   20.8895 C   0  0  0  0  0  0
  -32.1985  -18.7110   21.4186 C   0  0  0  0  0  0
  -28.2304  -21.2904   21.3712 C   0  0  0  0  0  0
  -27.6968  -22.7631   21.3303 C   0  0  0  0  0  0
  -29.6219  -23.2999   19.7893 C   0  0  0  0  0  0
  -29.6159  -21.7745   19.4361 C   0  0  0  0  0  0
  -28.2520  -23.8081   20.2968 C   0  0  2  0  0  0
  -31.9472  -21.2071   21.4967 C   0  0  0  0  0  0
  -28.2316  -25.2822   20.9159 C   0  0  0  0  0  0
  -29.2171  -20.8641   20.5373 N   0  0  0  0  0  0
  -29.9287  -15.7408   20.7916 N   0  0  0  0  0  0
  -27.7271  -20.5364   22.2122 O   0  0  0  0  0  0
  -33.4885  -18.8890   21.7921 F   0  0  0  0  0  0
  -31.4627  -12.4547   19.1667 H   0  0  0  0  0  0
  -30.3165  -11.3843   19.9171 H   0  0  0  0  0  0
  -29.7603  -11.7325   17.4852 H   0  0  0  0  0  0
  -29.6378  -13.4582   17.7429 H   0  0  0  0  0  0
  -27.8682  -11.2797   18.8886 H   0  0  0  0  0  0
  -27.3624  -12.5426   17.7994 H   0  0  0  0  0  0
  -27.6586  -14.2472   19.5029 H   0  0  0  0  0  0
  -28.6926  -12.0793   21.3937 H   0  0  0  0  0  0
  -28.4394  -13.7499   21.8280 H   0  0  0  0  0  0
  -25.2755   -9.5684   22.4785 H   0  0  0  0  0  0
  -23.9992   -7.4640   22.7507 H   0  0  0  0  0  0
  -21.0845   -8.8762   19.8964 H   0  0  0  0  0  0
  -22.3697  -10.9669   19.6176 H   0  0  0  0  0  0
  -21.1986   -7.6150   23.9732 H   0  0  0  0  0  0
  -21.1468   -6.0516   25.9085 H   0  0  0  0  0  0
  -22.0603   -2.7615   23.2837 H   0  0  0  0  0  0
  -22.4055  -11.9849   22.4744 H   0  0  0  0  0  0
  -21.1070  -13.1256   22.2646 H   0  0  0  0  0  0
  -24.6578  -15.8467   20.5253 H   0  0  0  0  0  0
  -26.2699  -15.6283   20.0714 H   0  0  0  0  0  0
  -26.7170  -32.5481   23.1155 H   0  0  0  0  0  0
  -24.9822  -33.9709   25.0293 H   0  0  0  0  0  0
  -22.7190  -31.3016   21.3857 H   0  0  0  0  0  0
  -23.3737  -35.9691   23.3301 H   0  0  0  0  0  0
  -24.3581  -36.8993   22.2067 H   0  0  0  0  0  0
  -23.7266  -37.6535   23.6704 H   0  0  0  0  0  0
  -26.0817  -31.5662   20.5979 H   0  0  0  0  0  0
  -26.8430  -30.8579   21.9934 H   0  0  0  0  0  0
  -28.1316  -29.0122   21.1690 H   0  0  0  0  0  0
  -26.0290  -25.9073   19.0500 H   0  0  0  0  0  0
  -23.9768  -27.2827   19.0449 H   0  0  0  0  0  0
  -23.7769  -30.5955   19.4006 H   0  0  0  0  0  0
  -22.7627  -29.2532   19.8468 H   0  0  0  0  0  0
  -25.1263  -36.1979   25.0825 H   0  0  0  0  0  0
  -21.0012  -28.3384   24.1402 H   0  0  0  0  0  0
  -20.5730  -26.2373   23.3635 H   0  0  0  0  0  0
  -21.6657  -26.7500   22.1198 H   0  0  0  0  0  0
  -19.6966  -25.6329   21.1259 H   0  0  0  0  0  0
  -19.6735  -27.3245   20.6773 H   0  0  0  0  0  0
  -17.4192  -26.6733   21.4064 H   0  0  0  0  0  0
  -18.0363  -26.0136   22.9067 H   0  0  0  0  0  0
  -19.7987  -30.7258   24.2345 H   0  0  0  0  0  0
  -17.5095  -31.6310   24.5220 H   0  0  0  0  0  0
  -15.5410  -30.3091   23.7626 H   0  0  0  0  0  0
  -15.8714  -28.0939   22.6990 H   0  0  0  0  0  0
  -24.5940  -30.6974   25.7837 H   0  0  0  0  0  0
  -24.8863  -32.2802   26.4934 H   0  0  0  0  0  0
  -25.8070  -30.8874   27.0272 H   0  0  0  0  0  0
  -26.2883  -29.6755   24.1207 H   0  0  0  0  0  0
  -27.4064  -29.7264   25.4621 H   0  0  0  0  0  0
  -27.8716  -30.4314   23.9339 H   0  0  0  0  0  0
  -27.2746  -33.3608   26.2068 H   0  0  0  0  0  0
  -28.3921  -32.6729   25.0375 H   0  0  0  0  0  0
  -28.0677  -31.8384   26.5466 H   0  0  0  0  0  0
  -28.2563  -38.0117   24.7451 H   0  0  0  0  0  0
  -28.1074  -36.2618   24.6328 H   0  0  0  0  0  0
  -27.2277  -37.1521   25.8860 H   0  0  0  0  0  0
  -20.9372  -29.8863   21.6904 H   0  0  0  0  0  0
  -26.0196  -38.2863   24.1358 H   0  0  0  0  0  0
  -28.4990  -18.1339   20.3900 H   0  0  0  0  0  0
  -32.4138  -16.6045   21.4538 H   0  0  0  0  0  0
  -27.8971  -23.1516   22.3291 H   0  0  0  0  0  0
  -26.6097  -22.7296   21.2508 H   0  0  0  0  0  0
  -29.9048  -23.8653   18.9007 H   0  0  0  0  0  0
  -30.3959  -23.5103   20.5269 H   0  0  0  0  0  0
  -30.5888  -21.4862   19.0397 H   0  0  0  0  0  0
  -28.9204  -21.6028   18.6149 H   0  0  0  0  0  0
  -27.5693  -23.8072   19.4460 H   0  0  0  0  0  0
  -32.2912  -21.6763   20.5749 H   0  0  0  0  0  0
  -32.7923  -21.1476   22.1815 H   0  0  0  0  0  0
  -31.2175  -21.8585   21.9784 H   0  0  0  0  0  0
  -29.0324  -25.3396   21.6511 H   0  0  0  0  0  0
  -27.3240  -25.3663   21.5204 H   0  0  0  0  0  0
  -28.9460  -15.5710   20.9456 H   0  0  0  0  0  0
  1 25  1  0  0  0
  1 30  2  0  0  0
  1 85  1  0  0  0
  2  3  1  0  0  0
  2 25  1  0  0  0
  2 88  1  0  0  0
  2 89  1  0  0  0
  3  4  1  0  0  0
  3 90  1  0  0  0
  3 91  1  0  0  0
  4  5  1  0  0  0
  4 92  1  0  0  0
  4 93  1  0  0  0
  5  6  1  0  0  0
  5 26  1  0  0  0
  5 94  1  0  0  0
  6 25  1  0  0  0
  6 95  1  0  0  0
  6 96  1  0  0  0
  7  8  2  0  0  0
  7 26  1  0  0  0
  7 29  1  0  0  0
  8  9  1  0  0  0
  8 22  1  0  0  0
  9 10  1  0  0  0
  9 27  2  0  0  0
 10 11  2  0  0  0
 10 15  1  0  0  0
 11 12  1  0  0  0
 11 97  1  0  0  0
 12 13  2  0  0  0
 12 98  1  0  0  0
 13 14  1  0  0  0
 13 31  1  0  0  0
 14 15  2  0  0  0
 14 99  1  0  0  0
 15100  1  0  0  0
 16 17  2  0  0  0
 16 21  1  0  0  0
 16 31  1  0  0  0
 17 18  1  0  0  0
 17101  1  0  0  0
 18 19  2  0  0  0
 18102  1  0  0  0
 19 20  1  0  0  0
 19 24  1  0  0  0
 20 21  2  0  0  0
 20103  1  0  0  0
 21 23  1  0  0  0
 22 28  1  0  0  0
 22 32  2  0  0  0
 26 27  1  0  0  0
 28104  1  0  0  0
 28105  1  0  0  0
 29106  1  0  0  0
 29107  1  0  0  0
 33 34  1  0  0  0
 33 66  1  0  0  0
 33 70  2  0  0  0
 34 36  1  0  0  0
 34 59  1  0  0  0
 34108  1  0  0  0
 35 44  2  0  0  0
 35 45  1  0  0  0
 35 68  1  0  0  0
 36 56  1  0  0  0
 36109  1  0  0  0
 37 39  1  0  0  0
 37 47  1  0  0  0
 37 66  1  0  0  0
 37110  1  0  0  0
 38 43  2  0  0  0
 38 46  1  0  0  0
 38 47  1  0  0  0
 39 64  1  0  0  0
 39 67  2  0  0  0
 40 52  1  0  0  0
 40 53  2  0  0  0
 40 58  1  0  0  0
 41111  1  0  0  0
 41112  1  0  0  0
 41113  1  0  0  0
 41 48  1  0  0  0
 42 43  1  0  0  0
 42 66  1  0  0  0
 42114  1  0  0  0
 42115  1  0  0  0
 43 44  1  0  0  0
 44116  1  0  0  0
 45 46  2  0  0  0
 45117  1  0  0  0
 46118  1  0  0  0
 47119  1  0  0  0
 47120  1  0  0  0
 48 56  1  0  0  0
 48 65  1  0  0  0
 48121  1  0  0  0
 49 50  1  0  0  0
 49 53  1  0  0  0
 49 64  1  0  0  0
 49122  1  0  0  0
 50 51  1  0  0  0
 50123  1  0  0  0
 50124  1  0  0  0
 51 52  1  0  0  0
 51125  1  0  0  0
 51126  1  0  0  0
 52127  1  0  0  0
 52128  1  0  0  0
 53 54  1  0  0  0
 54 55  2  0  0  0
 54129  1  0  0  0
 55 57  1  0  0  0
 55130  1  0  0  0
 56 69  2  0  0  0
 57 58  2  0  0  0
 57131  1  0  0  0
 58132  1  0  0  0
 59 60  1  0  0  0
 59 61  1  0  0  0
 59 62  1  0  0  0
 60133  1  0  0  0
 60134  1  0  0  0
 60135  1  0  0  0
 61136  1  0  0  0
 61137  1  0  0  0
 61138  1  0  0  0
 62139  1  0  0  0
 62140  1  0  0  0
 62141  1  0  0  0
 63 65  1  0  0  0
 63142  1  0  0  0
 63143  1  0  0  0
 63144  1  0  0  0
 64145  1  0  0  0
 65146  1  0  0  0
 68 83  1  0  0  0
 71 74  2  0  0  0
 71 75  1  0  0  0
 71147  1  0  0  0
 72 75  2  0  0  0
 72 76  1  0  0  0
 72148  1  0  0  0
 73 74  1  0  0  0
 73 76  2  0  0  0
 73 82  1  0  0  0
 74 84  1  0  0  0
 75 85  1  0  0  0
 76 87  1  0  0  0
 77 78  1  0  0  0
 77 84  1  0  0  0
 77 86  2  0  0  0
 78 81  1  0  0  0
 78149  1  0  0  0
 78150  1  0  0  0
 79 80  1  0  0  0
 79 81  1  0  0  0
 79151  1  0  0  0
 79152  1  0  0  0
 80 84  1  0  0  0
 80153  1  0  0  0
 80154  1  0  0  0
 81 83  1  0  0  0
 81155  1  0  0  0
 82156  1  0  0  0
 82157  1  0  0  0
 82158  1  0  0  0
 83159  1  0  0  0
 83160  1  0  0  0
 85161  1  0  0  0
M  ISO  4   1 100  68 101  83 101  85 100
M  END
> <chiral flag>
0

> <version>
0

> <s_m_source_file>
/data/baiqing/PycharmProjects/Reinvent-master-3.2/result/LINK_invent/BTK/process_docking_weight1_custom_product_contain_oxygen_bond_distance_aromatic_linkinvent_7_9_3/rearranged_h_0062.sdf

> <i_m_source_file_index>
49

> <r_mmod_Potential_Energy-OPLS-2005>
185.502380371094

> <r_mmod_Stretch_Energy-OPLS-2005>
83.33251953125

> <r_mmod_Bend_Energy-OPLS-2005>
143.164947509766

> <r_mmod_Torsional_Energy-OPLS-2005>
318.904052734375

> <r_mmod_Improper_Torsional_Energy-OPLS-2005>
5.24038743972778

> <r_mmod_Van_der_Waal_Energy-OPLS-2005>
157.54866027832

> <r_mmod_Electrostatic_Energy-OPLS-2005>
-347.439727783203

> <r_mmod_Solvation_Energy-OPLS-2005>
-215.982452392578

> <b_mmod_Minimization_Converged-OPLS-2005>
0

> <r_mmod_RMS_Derivative-OPLS-2005>
3.46953654289246

$$$$
49
                    3D
 Structure written by MMmdl.
161170  0  0  1  0            999 V2000
  -30.6243  -14.7594   20.4752 C   0  0  0  0  0  0
  -30.4350  -12.4770   19.4581 C   0  0  0  0  0  0
  -29.5037  -12.5084   18.2272 C   0  0  0  0  0  0
  -28.0352  -12.3229   18.6487 C   0  0  0  0  0  0
  -27.6392  -13.2304   19.8423 C   0  0  2  0  0  0
  -28.6869  -13.1853   20.9757 C   0  0  0  0  0  0
  -25.2512  -13.8193   20.5690 C   0  0  0  0  0  0
  -24.1807  -13.0425   20.9207 C   0  0  0  0  0  0
  -24.6415  -11.6913   20.8765 C   0  0  0  0  0  0
  -23.9078  -10.4284   21.0449 C   0  0  0  0  0  0
  -24.3643   -9.4195   21.9210 C   0  0  0  0  0  0
  -23.6331   -8.2229   22.0771 C   0  0  0  0  0  0
  -22.4298   -8.0285   21.3556 C   0  0  0  0  0  0
  -21.9937   -9.0245   20.4646 C   0  0  0  0  0  0
  -22.7267  -10.2125   20.3075 C   0  0  0  0  0  0
  -21.6851   -6.0738   22.5290 C   0  0  0  0  0  0
  -21.4006   -6.5654   23.8221 C   0  0  0  0  0  0
  -21.3656   -5.6820   24.9200 C   0  0  0  0  0  0
  -21.6052   -4.3076   24.7249 C   0  0  0  0  0  0
  -21.8823   -3.8155   23.4377 C   0  0  0  0  0  0
  -21.9195   -4.6962   22.3421 C   0  0  0  0  0  0
  -22.7824  -13.5205   21.1878 C   0  0  0  0  0  0
  -22.1675   -4.2154   21.1004 F   0  0  0  0  0  0
  -21.5622   -3.4554   25.7755 F   0  0  0  0  0  0
  -29.9824  -13.5433   20.3808 N   0  0  0  0  0  0
  -26.2934  -12.9406   20.3271 N   0  0  0  0  0  0
  -25.9342  -11.6545   20.5749 N   0  0  0  0  0  0
  -22.0507  -12.8147   22.0430 N   0  0  0  0  0  0
  -25.4168  -15.1916   20.4073 N   0  0  0  0  0  0
  -31.8277  -14.8349   20.2086 O   0  0  0  0  0  0
  -21.6647   -6.8887   21.4263 O   0  0  0  0  0  0
  -22.3491  -14.5508   20.6748 O   0  0  0  0  0  0
  -24.6306  -31.8559   23.1985 C   0  0  0  0  0  0
  -25.9137  -32.4759   23.8338 C   0  0  1  0  0  0
  -27.2339  -27.2821   20.1427 C   0  0  0  0  0  0
  -25.5929  -33.8556   24.2261 N   0  0  0  0  0  0
  -23.4264  -30.4741   21.5418 C   0  0  2  0  0  0
  -24.8766  -28.9139   20.1191 C   0  0  0  0  0  0
  -22.7497  -29.4590   22.4942 C   0  0  0  0  0  0
  -18.0278  -28.1395   22.8494 C   0  0  0  0  0  0
  -24.1481  -36.7277   23.2640 C   0  0  0  0  0  0
  -25.9679  -30.7803   21.3675 C   0  0  0  0  0  0
  -26.0471  -29.3995   20.7173 C   0  0  0  0  0  0
  -27.2323  -28.6001   20.7063 C   0  0  0  0  0  0
  -26.0399  -26.8448   19.5344 C   0  0  0  0  0  0
  -24.8771  -27.6441   19.5168 C   0  0  0  0  0  0
  -23.6437  -29.7977   20.1617 C   0  0  0  0  0  0
  -25.4112  -36.3067   24.0323 C   0  0  1  0  0  0
  -20.5884  -28.3701   23.1289 C   0  0  2  0  0  0
  -20.6761  -26.9410   22.5433 C   0  0  0  0  0  0
  -19.5735  -26.6388   21.5235 C   0  0  0  0  0  0
  -18.1915  -26.7942   22.1624 C   0  0  0  0  0  0
  -19.1528  -28.8859   23.2893 C   0  0  0  0  0  0
  -18.9452  -30.1464   23.8903 C   0  0  0  0  0  0
  -17.6451  -30.6596   24.0564 C   0  0  0  0  0  0
  -25.9050  -34.9439   23.5091 C   0  0  0  0  0  0
  -16.5344  -29.9090   23.6342 C   0  0  0  0  0  0
  -16.7264  -28.6507   23.0373 C   0  0  0  0  0  0
  -26.4508  -31.6590   25.0727 C   0  0  0  0  0  0
  -25.3738  -31.3730   26.1459 C   0  0  0  0  0  0
  -27.0354  -30.3007   24.6205 C   0  0  0  0  0  0
  -27.6050  -32.4343   25.7516 C   0  0  0  0  0  0
  -27.5587  -37.1779   24.8452 C   0  0  0  0  0  0
  -21.4199  -29.3047   22.3688 N   0  0  0  0  0  0
  -26.4277  -37.3787   23.9426 N   0  0  0  0  0  0
  -24.6947  -31.0535   22.0939 N   0  0  0  0  0  0
  -23.4206  -28.8152   23.3050 O   0  0  0  0  0  0
  -28.3590  -26.4353   20.1222 O   0  0  0  0  0  0
  -26.5637  -34.8919   22.4669 O   0  0  0  0  0  0
  -23.5464  -32.1349   23.7306 O   0  0  0  0  0  0
  -31.6197  -18.8300   22.2577 C   0  0  0  0  0  0
  -31.2408  -17.5307   21.8710 C   0  0  0  0  0  0
  -31.0475  -19.9898   21.6895 C   0  0  0  0  0  0
  -30.0237  -19.8801   20.7016 C   0  0  0  0  0  0
  -30.2488  -17.3157   20.8927 C   0  0  0  0  0  0
  -29.6346  -18.5166   20.3314 C   0  0  0  0  0  0
  -30.0507  -21.3106   18.7456 C   0  0  0  0  0  0
  -29.9539  -22.6844   18.0550 C   0  0  0  0  0  0
  -29.8733  -23.8841   19.0127 C   0  0  0  0  0  0
  -28.8658  -22.3075   20.7033 C   0  0  0  0  0  0
  -28.6598  -23.7145   19.9178 C   0  0  1  0  0  0
  -31.6248  -21.3271   22.1416 C   0  0  0  0  0  0
  -28.3013  -25.0695   20.7377 C   0  0  0  0  0  0
  -29.5605  -21.1228   20.0038 N   0  0  0  0  0  0
  -29.8554  -15.9119   20.5965 N   0  0  0  0  0  0
  -30.5847  -20.4068   18.0924 O   0  0  0  0  0  0
  -28.6549  -18.3546   19.4086 F   0  0  0  0  0  0
  -31.4730  -12.6150   19.1443 H   0  0  0  0  0  0
  -30.3915  -11.5062   19.9516 H   0  0  0  0  0  0
  -29.7859  -11.7307   17.5174 H   0  0  0  0  0  0
  -29.6161  -13.4584   17.7025 H   0  0  0  0  0  0
  -27.8990  -11.2737   18.9200 H   0  0  0  0  0  0
  -27.3744  -12.5064   17.8003 H   0  0  0  0  0  0
  -27.6256  -14.2469   19.4519 H   0  0  0  0  0  0
  -28.7288  -12.1960   21.4305 H   0  0  0  0  0  0
  -28.4182  -13.8750   21.7775 H   0  0  0  0  0  0
  -25.2818   -9.5642   22.4749 H   0  0  0  0  0  0
  -24.0041   -7.4605   22.7465 H   0  0  0  0  0  0
  -21.0888   -8.8777   19.8917 H   0  0  0  0  0  0
  -22.3780  -10.9671   19.6167 H   0  0  0  0  0  0
  -21.2006   -7.6162   23.9721 H   0  0  0  0  0  0
  -21.1473   -6.0554   25.9094 H   0  0  0  0  0  0
  -22.0601   -2.7605   23.2882 H   0  0  0  0  0  0
  -22.4204  -11.9826   22.4793 H   0  0  0  0  0  0
  -21.1100  -13.1075   22.2649 H   0  0  0  0  0  0
  -24.6389  -15.8359   20.5030 H   0  0  0  0  0  0
  -26.2545  -15.6349   20.0551 H   0  0  0  0  0  0
  -26.7212  -32.5435   23.1099 H   0  0  0  0  0  0
  -25.0056  -33.9704   25.0392 H   0  0  0  0  0  0
  -22.7219  -31.2955   21.3927 H   0  0  0  0  0  0
  -23.3770  -35.9576   23.3236 H   0  0  0  0  0  0
  -24.3571  -36.8981   22.2067 H   0  0  0  0  0  0
  -23.7189  -37.6434   23.6713 H   0  0  0  0  0  0
  -26.0938  -31.5410   20.5951 H   0  0  0  0  0  0
  -26.8511  -30.8390   21.9934 H   0  0  0  0  0  0
  -28.1387  -28.9791   21.1595 H   0  0  0  0  0  0
  -26.0038  -25.8672   19.0744 H   0  0  0  0  0  0
  -23.9777  -27.2666   19.0517 H   0  0  0  0  0  0
  -23.7593  -30.5678   19.3980 H   0  0  0  0  0  0
  -22.7636  -29.2220   19.8685 H   0  0  0  0  0  0
  -25.1282  -36.1901   25.0812 H   0  0  0  0  0  0
  -20.9970  -28.3271   24.1408 H   0  0  0  0  0  0
  -20.5655  -26.2302   23.3631 H   0  0  0  0  0  0
  -21.6634  -26.7420   22.1233 H   0  0  0  0  0  0
  -19.6894  -25.6310   21.1250 H   0  0  0  0  0  0
  -19.6679  -27.3196   20.6767 H   0  0  0  0  0  0
  -17.4197  -26.6732   21.4011 H   0  0  0  0  0  0
  -18.0265  -26.0079   22.8992 H   0  0  0  0  0  0
  -19.7922  -30.7295   24.2267 H   0  0  0  0  0  0
  -17.4995  -31.6276   24.5181 H   0  0  0  0  0  0
  -15.5339  -30.2998   23.7655 H   0  0  0  0  0  0
  -15.8669  -28.0823   22.7097 H   0  0  0  0  0  0
  -24.5927  -30.7064   25.7786 H   0  0  0  0  0  0
  -24.8926  -32.2898   26.4876 H   0  0  0  0  0  0
  -25.8084  -30.8920   27.0239 H   0  0  0  0  0  0
  -26.2934  -29.6771   24.1215 H   0  0  0  0  0  0
  -27.4006  -29.7264   25.4734 H   0  0  0  0  0  0
  -27.8819  -30.4274   23.9457 H   0  0  0  0  0  0
  -27.2634  -33.3637   26.2110 H   0  0  0  0  0  0
  -28.3871  -32.6948   25.0356 H   0  0  0  0  0  0
  -28.0733  -31.8476   26.5445 H   0  0  0  0  0  0
  -28.2547  -38.0138   24.7583 H   0  0  0  0  0  0
  -28.1137  -36.2665   24.6153 H   0  0  0  0  0  0
  -27.2314  -37.1289   25.8857 H   0  0  0  0  0  0
  -20.9390  -29.8746   21.6869 H   0  0  0  0  0  0
  -26.0136  -38.2832   24.1525 H   0  0  0  0  0  0
  -32.3946  -18.9330   23.0060 H   0  0  0  0  0  0
  -31.7223  -16.6920   22.3547 H   0  0  0  0  0  0
  -29.0859  -22.6745   17.3954 H   0  0  0  0  0  0
  -30.8234  -22.8080   17.4082 H   0  0  0  0  0  0
  -29.7887  -24.8065   18.4367 H   0  0  0  0  0  0
  -30.7875  -23.9667   19.6022 H   0  0  0  0  0  0
  -27.8855  -21.9492   21.0198 H   0  0  0  0  0  0
  -29.3857  -22.5249   21.6320 H   0  0  0  0  0  0
  -27.8081  -23.5688   19.2517 H   0  0  0  0  0  0
  -32.6569  -21.2086   22.4766 H   0  0  0  0  0  0
  -31.0547  -21.7257   22.9828 H   0  0  0  0  0  0
  -31.6503  -22.0692   21.3422 H   0  0  0  0  0  0
  -28.9993  -25.1186   21.5764 H   0  0  0  0  0  0
  -27.3273  -24.9326   21.2107 H   0  0  0  0  0  0
  -28.8626  -15.7673   20.5089 H   0  0  0  0  0  0
  1 25  1  0  0  0
  1 30  2  0  0  0
  1 85  1  0  0  0
  2  3  1  0  0  0
  2 25  1  0  0  0
  2 88  1  0  0  0
  2 89  1  0  0  0
  3  4  1  0  0  0
  3 90  1  0  0  0
  3 91  1  0  0  0
  4  5  1  0  0  0
  4 92  1  0  0  0
  4 93  1  0  0  0
  5  6  1  0  0  0
  5 26  1  0  0  0
  5 94  1  0  0  0
  6 25  1  0  0  0
  6 95  1  0  0  0
  6 96  1  0  0  0
  7  8  2  0  0  0
  7 26  1  0  0  0
  7 29  1  0  0  0
  8  9  1  0  0  0
  8 22  1  0  0  0
  9 10  1  0  0  0
  9 27  2  0  0  0
 10 11  2  0  0  0
 10 15  1  0  0  0
 11 12  1  0  0  0
 11 97  1  0  0  0
 12 13  2  0  0  0
 12 98  1  0  0  0
 13 14  1  0  0  0
 13 31  1  0  0  0
 14 15  2  0  0  0
 14 99  1  0  0  0
 15100  1  0  0  0
 16 17  2  0  0  0
 16 21  1  0  0  0
 16 31  1  0  0  0
 17 18  1  0  0  0
 17101  1  0  0  0
 18 19  2  0  0  0
 18102  1  0  0  0
 19 20  1  0  0  0
 19 24  1  0  0  0
 20 21  2  0  0  0
 20103  1  0  0  0
 21 23  1  0  0  0
 22 28  1  0  0  0
 22 32  2  0  0  0
 26 27  1  0  0  0
 28104  1  0  0  0
 28105  1  0  0  0
 29106  1  0  0  0
 29107  1  0  0  0
 33 34  1  0  0  0
 33 66  1  0  0  0
 33 70  2  0  0  0
 34 36  1  0  0  0
 34 59  1  0  0  0
 34108  1  0  0  0
 35 44  2  0  0  0
 35 45  1  0  0  0
 35 68  1  0  0  0
 36 56  1  0  0  0
 36109  1  0  0  0
 37 39  1  0  0  0
 37 47  1  0  0  0
 37 66  1  0  0  0
 37110  1  0  0  0
 38 43  2  0  0  0
 38 46  1  0  0  0
 38 47  1  0  0  0
 39 64  1  0  0  0
 39 67  2  0  0  0
 40 52  1  0  0  0
 40 53  2  0  0  0
 40 58  1  0  0  0
 41111  1  0  0  0
 41112  1  0  0  0
 41113  1  0  0  0
 41 48  1  0  0  0
 42 43  1  0  0  0
 42 66  1  0  0  0
 42114  1  0  0  0
 42115  1  0  0  0
 43 44  1  0  0  0
 44116  1  0  0  0
 45 46  2  0  0  0
 45117  1  0  0  0
 46118  1  0  0  0
 47119  1  0  0  0
 47120  1  0  0  0
 48 56  1  0  0  0
 48 65  1  0  0  0
 48121  1  0  0  0
 49 50  1  0  0  0
 49 53  1  0  0  0
 49 64  1  0  0  0
 49122  1  0  0  0
 50 51  1  0  0  0
 50123  1  0  0  0
 50124  1  0  0  0
 51 52  1  0  0  0
 51125  1  0  0  0
 51126  1  0  0  0
 52127  1  0  0  0
 52128  1  0  0  0
 53 54  1  0  0  0
 54 55  2  0  0  0
 54129  1  0  0  0
 55 57  1  0  0  0
 55130  1  0  0  0
 56 69  2  0  0  0
 57 58  2  0  0  0
 57131  1  0  0  0
 58132  1  0  0  0
 59 60  1  0  0  0
 59 61  1  0  0  0
 59 62  1  0  0  0
 60133  1  0  0  0
 60134  1  0  0  0
 60135  1  0  0  0
 61136  1  0  0  0
 61137  1  0  0  0
 61138  1  0  0  0
 62139  1  0  0  0
 62140  1  0  0  0
 62141  1  0  0  0
 63 65  1  0  0  0
 63142  1  0  0  0
 63143  1  0  0  0
 63144  1  0  0  0
 64145  1  0  0  0
 65146  1  0  0  0
 68 83  1  0  0  0
 71 72  2  0  0  0
 71 73  1  0  0  0
 71147  1  0  0  0
 72 75  1  0  0  0
 72148  1  0  0  0
 73 74  2  0  0  0
 73 82  1  0  0  0
 74 76  1  0  0  0
 74 84  1  0  0  0
 75 76  2  0  0  0
 75 85  1  0  0  0
 76 87  1  0  0  0
 77 78  1  0  0  0
 77 84  1  0  0  0
 77 86  2  0  0  0
 78 79  1  0  0  0
 78149  1  0  0  0
 78150  1  0  0  0
 79 81  1  0  0  0
 79151  1  0  0  0
 79152  1  0  0  0
 80 81  1  0  0  0
 80 84  1  0  0  0
 80153  1  0  0  0
 80154  1  0  0  0
 81 83  1  0  0  0
 81155  1  0  0  0
 82156  1  0  0  0
 82157  1  0  0  0
 82158  1  0  0  0
 83159  1  0  0  0
 83160  1  0  0  0
 85161  1  0  0  0
M  ISO  4   1 100  68 101  83 101  85 100
M  END
> <chiral flag>
0

> <version>
0

> <s_m_source_file>
/data/baiqing/PycharmProjects/Reinvent-master-3.2/result/LINK_invent/BTK/process_docking_weight1_custom_product_contain_oxygen_bond_distance_aromatic_linkinvent_7_9_3/rearranged_h_0062.sdf

> <i_m_source_file_index>
50

> <r_mmod_Potential_Energy-OPLS-2005>
257.065521240234

> <r_mmod_Stretch_Energy-OPLS-2005>
135.153305053711

> <r_mmod_Bend_Energy-OPLS-2005>
166.309844970703

> <r_mmod_Torsional_Energy-OPLS-2005>
324.21826171875

> <r_mmod_Improper_Torsional_Energy-OPLS-2005>
7.81178092956543

> <r_mmod_Van_der_Waal_Energy-OPLS-2005>
142.966903686523

> <r_mmod_Electrostatic_Energy-OPLS-2005>
-381.097747802734

> <r_mmod_Solvation_Energy-OPLS-2005>
-219.901245117188

> <b_mmod_Minimization_Converged-OPLS-2005>
0

> <r_mmod_RMS_Derivative-OPLS-2005>
3.11260533332825

$$$$
50
                    3D
 Structure written by MMmdl.
161169  0  0  1  0            999 V2000
  -30.7251  -14.4581   20.5760 C   0  0  0  0  0  0
  -30.4168  -12.3005   19.4218 C   0  0  0  0  0  0
  -29.4897  -12.4939   18.2050 C   0  0  0  0  0  0
  -28.0124  -12.3563   18.6226 C   0  0  0  0  0  0
  -27.6603  -13.2068   19.8726 C   0  0  2  0  0  0
  -28.7041  -12.9999   20.9946 C   0  0  0  0  0  0
  -25.2591  -13.8169   20.5676 C   0  0  0  0  0  0
  -24.1840  -13.0443   20.9176 C   0  0  0  0  0  0
  -24.6397  -11.6912   20.8751 C   0  0  0  0  0  0
  -23.9063  -10.4296   21.0413 C   0  0  0  0  0  0
  -24.3614   -9.4208   21.9191 C   0  0  0  0  0  0
  -23.6288   -8.2244   22.0763 C   0  0  0  0  0  0
  -22.4271   -8.0284   21.3550 C   0  0  0  0  0  0
  -21.9909   -9.0259   20.4652 C   0  0  0  0  0  0
  -22.7238  -10.2135   20.3063 C   0  0  0  0  0  0
  -21.6848   -6.0738   22.5283 C   0  0  0  0  0  0
  -21.4011   -6.5643   23.8217 C   0  0  0  0  0  0
  -21.3657   -5.6795   24.9182 C   0  0  0  0  0  0
  -21.6042   -4.3058   24.7232 C   0  0  0  0  0  0
  -21.8818   -3.8150   23.4352 C   0  0  0  0  0  0
  -21.9190   -4.6966   22.3407 C   0  0  0  0  0  0
  -22.7863  -13.5247   21.1834 C   0  0  0  0  0  0
  -22.1659   -4.2148   21.0986 F   0  0  0  0  0  0
  -21.5627   -3.4544   25.7745 F   0  0  0  0  0  0
  -30.0339  -13.2948   20.4357 N   0  0  0  0  0  0
  -26.3025  -12.9338   20.3376 N   0  0  0  0  0  0
  -25.9321  -11.6500   20.5789 N   0  0  0  0  0  0
  -22.0500  -12.8246   22.0393 N   0  0  0  0  0  0
  -25.4325  -15.1884   20.4069 N   0  0  0  0  0  0
  -31.8493  -14.6209   20.0947 O   0  0  0  0  0  0
  -21.6637   -6.8879   21.4244 O   0  0  0  0  0  0
  -22.3553  -14.5553   20.6678 O   0  0  0  0  0  0
  -24.6152  -31.8700   23.2137 C   0  0  0  0  0  0
  -25.9046  -32.4833   23.8432 C   0  0  1  0  0  0
  -27.2256  -27.4331   20.0838 C   0  0  0  0  0  0
  -25.5913  -33.8631   24.2371 N   0  0  0  0  0  0
  -23.4032  -30.4968   21.5549 C   0  0  2  0  0  0
  -24.8445  -28.9675   20.1115 C   0  0  0  0  0  0
  -22.7422  -29.4665   22.4995 C   0  0  0  0  0  0
  -18.0274  -28.1358   22.8463 C   0  0  0  0  0  0
  -24.1494  -36.7311   23.2643 C   0  0  0  0  0  0
  -25.9339  -30.8331   21.3691 C   0  0  0  0  0  0
  -26.0086  -29.4717   20.7051 C   0  0  0  0  0  0
  -27.2037  -28.7148   20.6822 C   0  0  0  0  0  0
  -26.0398  -26.9460   19.4845 C   0  0  0  0  0  0
  -24.8550  -27.7043   19.4970 C   0  0  0  0  0  0
  -23.6100  -29.8375   20.1665 C   0  0  0  0  0  0
  -25.4111  -36.3118   24.0351 C   0  0  1  0  0  0
  -20.5864  -28.3664   23.1286 C   0  0  2  0  0  0
  -20.6757  -26.9396   22.5394 C   0  0  0  0  0  0
  -19.5741  -26.6361   21.5184 C   0  0  0  0  0  0
  -18.1920  -26.7904   22.1592 C   0  0  0  0  0  0
  -19.1525  -28.8833   23.2865 C   0  0  0  0  0  0
  -18.9453  -30.1427   23.8888 C   0  0  0  0  0  0
  -17.6457  -30.6569   24.0551 C   0  0  0  0  0  0
  -25.9034  -34.9483   23.5158 C   0  0  0  0  0  0
  -16.5349  -29.9061   23.6309 C   0  0  0  0  0  0
  -16.7266  -28.6475   23.0327 C   0  0  0  0  0  0
  -26.4472  -31.6605   25.0758 C   0  0  0  0  0  0
  -25.3752  -31.3669   26.1519 C   0  0  0  0  0  0
  -27.0298  -30.3057   24.6108 C   0  0  0  0  0  0
  -27.6069  -32.4321   25.7494 C   0  0  0  0  0  0
  -27.5591  -37.1812   24.8469 C   0  0  0  0  0  0
  -21.4152  -29.3046   22.3725 N   0  0  0  0  0  0
  -26.4304  -37.3794   23.9416 N   0  0  0  0  0  0
  -24.6693  -31.0792   22.1046 N   0  0  0  0  0  0
  -23.4192  -28.8200   23.3032 O   0  0  0  0  0  0
  -28.3845  -26.6714   20.1153 O   0  0  0  0  0  0
  -26.5576  -34.8919   22.4704 O   0  0  0  0  0  0
  -23.5336  -32.1455   23.7513 O   0  0  0  0  0  0
  -32.2212  -18.4748   21.8479 C   0  0  0  0  0  0
  -31.2903  -19.5182   21.6840 C   0  0  0  0  0  0
  -31.8299  -17.1370   21.6567 C   0  0  0  0  0  0
  -29.9532  -19.2416   21.3108 C   0  0  0  0  0  0
  -30.4994  -16.8274   21.2885 C   0  0  0  0  0  0
  -29.5682  -17.8815   21.1175 C   0  0  0  0  0  0
  -28.9908  -20.3632   21.1917 C   0  0  0  0  0  0
  -28.3837  -23.2258   22.5511 C   0  0  0  0  0  0
  -26.9756  -23.1429   23.1209 C   0  0  0  0  0  0
  -29.1879  -24.0779   20.2720 C   0  0  0  0  0  0
  -28.1868  -25.2498   20.0155 C   0  0  0  0  0  0
  -28.5748  -22.8775   21.0620 C   0  0  1  0  0  0
  -27.6826  -20.1462   21.3435 N   0  0  0  0  0  0
  -30.0510  -15.4769   21.1411 N   0  0  0  0  0  0
  -29.3964  -21.6377   20.9702 N   0  3  0  0  0  0
  -29.3272  -23.5203   23.2877 O   0  0  0  0  0  0
  -28.2902  -17.5606   20.7845 F   0  0  0  0  0  0
  -31.4618  -12.3862   19.1201 H   0  0  0  0  0  0
  -30.3097  -11.2938   19.8285 H   0  0  0  0  0  0
  -29.7265  -11.7609   17.4320 H   0  0  0  0  0  0
  -29.6585  -13.4750   17.7593 H   0  0  0  0  0  0
  -27.8275  -11.3015   18.8311 H   0  0  0  0  0  0
  -27.3582  -12.6185   17.7904 H   0  0  0  0  0  0
  -27.7015  -14.2513   19.5644 H   0  0  0  0  0  0
  -28.6800  -11.9675   21.3481 H   0  0  0  0  0  0
  -28.4679  -13.6099   21.8668 H   0  0  0  0  0  0
  -25.2754   -9.5681   22.4770 H   0  0  0  0  0  0
  -23.9992   -7.4636   22.7485 H   0  0  0  0  0  0
  -21.0838   -8.8779   19.8960 H   0  0  0  0  0  0
  -22.3699  -10.9676   19.6175 H   0  0  0  0  0  0
  -21.2004   -7.6150   23.9720 H   0  0  0  0  0  0
  -21.1479   -6.0529   25.9082 H   0  0  0  0  0  0
  -22.0597   -2.7611   23.2858 H   0  0  0  0  0  0
  -22.4098  -11.9898   22.4777 H   0  0  0  0  0  0
  -21.1124  -13.1292   22.2597 H   0  0  0  0  0  0
  -24.6651  -15.8438   20.5096 H   0  0  0  0  0  0
  -26.2871  -15.6300   20.0920 H   0  0  0  0  0  0
  -26.7124  -32.5526   23.1193 H   0  0  0  0  0  0
  -25.0119  -33.9804   25.0554 H   0  0  0  0  0  0
  -22.6918  -31.3145   21.4218 H   0  0  0  0  0  0
  -23.3760  -35.9642   23.3312 H   0  0  0  0  0  0
  -24.3598  -36.8908   22.2058 H   0  0  0  0  0  0
  -23.7230  -37.6516   23.6638 H   0  0  0  0  0  0
  -26.0553  -31.6067   20.6093 H   0  0  0  0  0  0
  -26.8175  -30.8739   21.9937 H   0  0  0  0  0  0
  -28.1045  -29.1013   21.1403 H   0  0  0  0  0  0
  -26.0087  -25.9820   18.9973 H   0  0  0  0  0  0
  -23.9603  -27.3105   19.0336 H   0  0  0  0  0  0
  -23.7235  -30.6192   19.4146 H   0  0  0  0  0  0
  -22.7300  -29.2675   19.8653 H   0  0  0  0  0  0
  -25.1277  -36.2009   25.0842 H   0  0  0  0  0  0
  -20.9942  -28.3224   24.1409 H   0  0  0  0  0  0
  -20.5633  -26.2287   23.3589 H   0  0  0  0  0  0
  -21.6629  -26.7414   22.1215 H   0  0  0  0  0  0
  -19.6908  -25.6267   21.1221 H   0  0  0  0  0  0
  -19.6681  -27.3162   20.6708 H   0  0  0  0  0  0
  -17.4187  -26.6643   21.3994 H   0  0  0  0  0  0
  -18.0319  -26.0052   22.8996 H   0  0  0  0  0  0
  -19.7946  -30.7214   24.2275 H   0  0  0  0  0  0
  -17.5025  -31.6255   24.5142 H   0  0  0  0  0  0
  -15.5348  -30.2953   23.7652 H   0  0  0  0  0  0
  -15.8662  -28.0795   22.7039 H   0  0  0  0  0  0
  -24.5935  -30.7003   25.7852 H   0  0  0  0  0  0
  -24.8927  -32.2802   26.5016 H   0  0  0  0  0  0
  -25.8135  -30.8814   27.0249 H   0  0  0  0  0  0
  -26.2825  -29.6821   24.1190 H   0  0  0  0  0  0
  -27.4116  -29.7288   25.4535 H   0  0  0  0  0  0
  -27.8645  -30.4395   23.9223 H   0  0  0  0  0  0
  -27.2710  -33.3623   26.2090 H   0  0  0  0  0  0
  -28.3846  -32.6880   25.0282 H   0  0  0  0  0  0
  -28.0772  -31.8432   26.5379 H   0  0  0  0  0  0
  -28.2606  -38.0113   24.7514 H   0  0  0  0  0  0
  -28.1087  -36.2638   24.6294 H   0  0  0  0  0  0
  -27.2308  -37.1462   25.8873 H   0  0  0  0  0  0
  -20.9311  -29.8829   21.6994 H   0  0  0  0  0  0
  -26.0205  -38.2882   24.1402 H   0  0  0  0  0  0
  -33.2393  -18.6972   22.1377 H   0  0  0  0  0  0
  -31.6217  -20.5298   21.8681 H   0  0  0  0  0  0
  -32.5587  -16.3560   21.8159 H   0  0  0  0  0  0
  -26.7831  -23.9953   23.7717 H   0  0  0  0  0  0
  -26.8632  -22.2283   23.7025 H   0  0  0  0  0  0
  -26.2276  -23.1418   22.3288 H   0  0  0  0  0  0
  -30.0667  -24.4602   20.7953 H   0  0  0  0  0  0
  -29.5687  -23.6955   19.3214 H   0  0  0  0  0  0
  -28.8110  -25.5551   19.1722 H   0  0  0  0  0  0
  -28.1813  -25.4559   21.0865 H   0  0  0  0  0  0
  -27.6035  -22.6638   20.6173 H   0  0  0  0  0  0
  -27.3843  -19.1818   21.4147 H   0  0  0  0  0  0
  -26.9928  -20.8437   21.1281 H   0  0  0  0  0  0
  -29.0807  -15.3051   21.3532 H   0  0  0  0  0  0
  -30.3972  -21.7715   20.9237 H   0  0  0  0  0  0
  1 25  1  0  0  0
  1 30  2  0  0  0
  1 84  1  0  0  0
  2  3  1  0  0  0
  2 25  1  0  0  0
  2 88  1  0  0  0
  2 89  1  0  0  0
  3  4  1  0  0  0
  3 90  1  0  0  0
  3 91  1  0  0  0
  4  5  1  0  0  0
  4 92  1  0  0  0
  4 93  1  0  0  0
  5  6  1  0  0  0
  5 26  1  0  0  0
  5 94  1  0  0  0
  6 25  1  0  0  0
  6 95  1  0  0  0
  6 96  1  0  0  0
  7  8  2  0  0  0
  7 26  1  0  0  0
  7 29  1  0  0  0
  8  9  1  0  0  0
  8 22  1  0  0  0
  9 10  1  0  0  0
  9 27  2  0  0  0
 10 11  2  0  0  0
 10 15  1  0  0  0
 11 12  1  0  0  0
 11 97  1  0  0  0
 12 13  2  0  0  0
 12 98  1  0  0  0
 13 14  1  0  0  0
 13 31  1  0  0  0
 14 15  2  0  0  0
 14 99  1  0  0  0
 15100  1  0  0  0
 16 17  2  0  0  0
 16 21  1  0  0  0
 16 31  1  0  0  0
 17 18  1  0  0  0
 17101  1  0  0  0
 18 19  2  0  0  0
 18102  1  0  0  0
 19 20  1  0  0  0
 19 24  1  0  0  0
 20 21  2  0  0  0
 20103  1  0  0  0
 21 23  1  0  0  0
 22 28  1  0  0  0
 22 32  2  0  0  0
 26 27  1  0  0  0
 28104  1  0  0  0
 28105  1  0  0  0
 29106  1  0  0  0
 29107  1  0  0  0
 33 34  1  0  0  0
 33 66  1  0  0  0
 33 70  2  0  0  0
 34 36  1  0  0  0
 34 59  1  0  0  0
 34108  1  0  0  0
 35 44  2  0  0  0
 35 45  1  0  0  0
 35 68  1  0  0  0
 36 56  1  0  0  0
 36109  1  0  0  0
 37 39  1  0  0  0
 37 47  1  0  0  0
 37 66  1  0  0  0
 37110  1  0  0  0
 38 43  2  0  0  0
 38 46  1  0  0  0
 38 47  1  0  0  0
 39 64  1  0  0  0
 39 67  2  0  0  0
 40 52  1  0  0  0
 40 53  2  0  0  0
 40 58  1  0  0  0
 41111  1  0  0  0
 41112  1  0  0  0
 41113  1  0  0  0
 41 48  1  0  0  0
 42 43  1  0  0  0
 42 66  1  0  0  0
 42114  1  0  0  0
 42115  1  0  0  0
 43 44  1  0  0  0
 44116  1  0  0  0
 45 46  2  0  0  0
 45117  1  0  0  0
 46118  1  0  0  0
 47119  1  0  0  0
 47120  1  0  0  0
 48 56  1  0  0  0
 48 65  1  0  0  0
 48121  1  0  0  0
 49 50  1  0  0  0
 49 53  1  0  0  0
 49 64  1  0  0  0
 49122  1  0  0  0
 50 51  1  0  0  0
 50123  1  0  0  0
 50124  1  0  0  0
 51 52  1  0  0  0
 51125  1  0  0  0
 51126  1  0  0  0
 52127  1  0  0  0
 52128  1  0  0  0
 53 54  1  0  0  0
 54 55  2  0  0  0
 54129  1  0  0  0
 55 57  1  0  0  0
 55130  1  0  0  0
 56 69  2  0  0  0
 57 58  2  0  0  0
 57131  1  0  0  0
 58132  1  0  0  0
 59 60  1  0  0  0
 59 61  1  0  0  0
 59 62  1  0  0  0
 60133  1  0  0  0
 60134  1  0  0  0
 60135  1  0  0  0
 61136  1  0  0  0
 61137  1  0  0  0
 61138  1  0  0  0
 62139  1  0  0  0
 62140  1  0  0  0
 62141  1  0  0  0
 63 65  1  0  0  0
 63142  1  0  0  0
 63143  1  0  0  0
 63144  1  0  0  0
 64145  1  0  0  0
 65146  1  0  0  0
 68 81  1  0  0  0
 71 72  2  0  0  0
 71 73  1  0  0  0
 71147  1  0  0  0
 72 74  1  0  0  0
 72148  1  0  0  0
 73 75  2  0  0  0
 73149  1  0  0  0
 74 76  2  0  0  0
 74 77  1  0  0  0
 75 76  1  0  0  0
 75 84  1  0  0  0
 76 87  1  0  0  0
 77 83  1  0  0  0
 77 85  2  0  0  0
 78 79  1  0  0  0
 78 82  1  0  0  0
 78 86  2  0  0  0
 79150  1  0  0  0
 79151  1  0  0  0
 79152  1  0  0  0
 80 81  1  0  0  0
 80153  1  0  0  0
 80154  1  0  0  0
 80 82  1  0  0  0
 81155  1  0  0  0
 81156  1  0  0  0
 82 85  1  0  0  0
 82157  1  0  0  0
 83158  1  0  0  0
 83159  1  0  0  0
 84160  1  0  0  0
 85161  1  0  0  0
M  CHG  1  85   1
M  ISO  4   1 100  68 101  81 101  84 100
M  END
> <chiral flag>
0

> <version>
0

> <s_m_source_file>
/data/baiqing/PycharmProjects/Reinvent-master-3.2/result/LINK_invent/BTK/process_docking_weight1_custom_product_contain_oxygen_bond_distance_aromatic_linkinvent_7_9_3/rearranged_h_0062.sdf

> <i_m_source_file_index>
51

> <r_mmod_Potential_Energy-OPLS-2005>
-159.15315246582

> <r_mmod_Stretch_Energy-OPLS-2005>
41.5785903930664

> <r_mmod_Bend_Energy-OPLS-2005>
309.032440185547

> <r_mmod_Torsional_Energy-OPLS-2005>
218.683288574219

> <r_mmod_Improper_Torsional_Energy-OPLS-2005>
4.95597505569458

> <r_mmod_Van_der_Waal_Energy-OPLS-2005>
174.672988891602

> <r_mmod_Electrostatic_Energy-OPLS-2005>
-472.655456542969

> <r_mmod_Solvation_Energy-OPLS-2005>
-449.134704589844

> <b_mmod_Minimization_Converged-OPLS-2005>
0

> <r_mmod_RMS_Derivative-OPLS-2005>
1.90350890159607

$$$$
51
                    3D
 Structure written by MMmdl.
163172  0  0  1  0            999 V2000
  -30.5667  -14.7385   20.4606 C   0  0  0  0  0  0
  -30.4465  -12.4533   19.4420 C   0  0  0  0  0  0
  -29.5086  -12.5104   18.2145 C   0  0  0  0  0  0
  -28.0340  -12.3309   18.6373 C   0  0  0  0  0  0
  -27.6428  -13.2196   19.8486 C   0  0  2  0  0  0
  -28.6950  -13.1291   20.9749 C   0  0  0  0  0  0
  -25.2539  -13.8160   20.5699 C   0  0  0  0  0  0
  -24.1827  -13.0420   20.9221 C   0  0  0  0  0  0
  -24.6401  -11.6895   20.8760 C   0  0  0  0  0  0
  -23.9075  -10.4281   21.0427 C   0  0  0  0  0  0
  -24.3621   -9.4188   21.9200 C   0  0  0  0  0  0
  -23.6292   -8.2228   22.0760 C   0  0  0  0  0  0
  -22.4273   -8.0279   21.3551 C   0  0  0  0  0  0
  -21.9912   -9.0254   20.4651 C   0  0  0  0  0  0
  -22.7249  -10.2131   20.3067 C   0  0  0  0  0  0
  -21.6851   -6.0737   22.5283 C   0  0  0  0  0  0
  -21.4008   -6.5637   23.8218 C   0  0  0  0  0  0
  -21.3659   -5.6792   24.9181 C   0  0  0  0  0  0
  -21.6049   -4.3059   24.7232 C   0  0  0  0  0  0
  -21.8814   -3.8146   23.4355 C   0  0  0  0  0  0
  -21.9187   -4.6964   22.3410 C   0  0  0  0  0  0
  -22.7850  -13.5216   21.1887 C   0  0  0  0  0  0
  -22.1660   -4.2149   21.0994 F   0  0  0  0  0  0
  -21.5630   -3.4542   25.7744 F   0  0  0  0  0  0
  -29.9874  -13.4952   20.3828 N   0  0  0  0  0  0
  -26.2953  -12.9339   20.3283 N   0  0  0  0  0  0
  -25.9327  -11.6492   20.5744 N   0  0  0  0  0  0
  -22.0486  -12.8207   22.0436 N   0  0  0  0  0  0
  -25.4197  -15.1890   20.4118 N   0  0  0  0  0  0
  -31.7740  -14.8857   20.2470 O   0  0  0  0  0  0
  -21.6635   -6.8882   21.4248 O   0  0  0  0  0  0
  -22.3542  -14.5529   20.6750 O   0  0  0  0  0  0
  -24.6298  -31.8580   23.1912 C   0  0  0  0  0  0
  -25.9121  -32.4758   23.8283 C   0  0  1  0  0  0
  -27.2387  -27.2711   20.1370 C   0  0  0  0  0  0
  -25.5921  -33.8567   24.2208 N   0  0  0  0  0  0
  -23.4303  -30.4745   21.5351 C   0  0  2  0  0  0
  -24.8804  -28.9097   20.1196 C   0  0  0  0  0  0
  -22.7513  -29.4606   22.4886 C   0  0  0  0  0  0
  -18.0322  -28.1388   22.8447 C   0  0  0  0  0  0
  -24.1518  -36.7292   23.2635 C   0  0  0  0  0  0
  -25.9742  -30.7702   21.3717 C   0  0  0  0  0  0
  -26.0516  -29.3900   20.7204 C   0  0  0  0  0  0
  -27.2360  -28.5861   20.7099 C   0  0  0  0  0  0
  -26.0422  -26.8446   19.5230 C   0  0  0  0  0  0
  -24.8780  -27.6424   19.5131 C   0  0  0  0  0  0
  -23.6536  -29.7999   20.1555 C   0  0  0  0  0  0
  -25.4143  -36.3079   24.0316 C   0  0  1  0  0  0
  -20.5918  -28.3724   23.1246 C   0  0  2  0  0  0
  -20.6822  -26.9443   22.5389 C   0  0  0  0  0  0
  -19.5809  -26.6383   21.5188 C   0  0  0  0  0  0
  -18.1986  -26.7926   22.1592 C   0  0  0  0  0  0
  -19.1570  -28.8866   23.2844 C   0  0  0  0  0  0
  -18.9510  -30.1458   23.8884 C   0  0  0  0  0  0
  -17.6515  -30.6592   24.0556 C   0  0  0  0  0  0
  -25.9075  -34.9455   23.5064 C   0  0  0  0  0  0
  -16.5401  -29.9106   23.6306 C   0  0  0  0  0  0
  -16.7310  -28.6519   23.0320 C   0  0  0  0  0  0
  -26.4476  -31.6577   25.0672 C   0  0  0  0  0  0
  -25.3661  -31.3753   26.1360 C   0  0  0  0  0  0
  -27.0323  -30.3003   24.6142 C   0  0  0  0  0  0
  -27.6023  -32.4326   25.7456 C   0  0  0  0  0  0
  -27.5599  -37.1810   24.8463 C   0  0  0  0  0  0
  -21.4224  -29.3068   22.3631 N   0  0  0  0  0  0
  -26.4327  -37.3764   23.9388 N   0  0  0  0  0  0
  -24.6974  -31.0526   22.0890 N   0  0  0  0  0  0
  -23.4196  -28.8138   23.2989 O   0  0  0  0  0  0
  -28.3575  -26.4111   20.1242 O   0  0  0  0  0  0
  -26.5665  -34.8928   22.4644 O   0  0  0  0  0  0
  -23.5445  -32.1403   23.7201 O   0  0  0  0  0  0
  -29.0011  -19.6548   22.2448 C   0  0  0  0  0  0
  -29.2260  -17.2085   22.3270 C   0  0  0  0  0  0
  -29.7210  -18.4211   20.2768 C   0  0  0  0  0  0
  -28.9076  -18.4343   22.9484 C   0  0  0  0  0  0
  -29.4307  -19.7162   20.8963 C   0  0  0  0  0  0
  -29.6428  -17.1509   20.9825 C   0  0  0  0  0  0
  -31.2201  -22.7334   19.5603 C   0  0  0  0  0  0
  -30.4479  -23.8350   19.7203 C   0  0  0  0  0  0
  -30.7743  -21.3405   19.6294 C   0  0  0  0  0  0
  -31.9335  -25.4619   18.5985 C   0  0  0  0  0  0
  -31.0742  -25.1410   19.5813 C   0  0  0  0  0  0
  -28.7185  -22.2700   20.6690 C   0  0  0  0  0  0
  -28.9510  -23.7035   19.9637 C   0  0  1  0  0  0
  -28.4306  -18.4391   24.3896 C   0  0  0  0  0  0
  -28.2280  -25.0030   20.6341 C   0  0  0  0  0  0
  -29.6099  -21.0805   20.2928 N   0  0  0  0  0  0
  -29.6840  -15.8027   20.3858 N   0  0  0  0  0  0
  -31.4599  -20.4516   19.1165 O   0  0  0  0  0  0
  -31.4826  -12.6086   19.1367 H   0  0  0  0  0  0
  -30.4080  -11.4672   19.9091 H   0  0  0  0  0  0
  -29.7841  -11.7428   17.4900 H   0  0  0  0  0  0
  -29.6319  -13.4668   17.7024 H   0  0  0  0  0  0
  -27.8915  -11.2803   18.8938 H   0  0  0  0  0  0
  -27.3707  -12.5314   17.7942 H   0  0  0  0  0  0
  -27.6347  -14.2428   19.4757 H   0  0  0  0  0  0
  -28.7352  -12.1203   21.3905 H   0  0  0  0  0  0
  -28.4402  -13.7937   21.8029 H   0  0  0  0  0  0
  -25.2765   -9.5662   22.4779 H   0  0  0  0  0  0
  -23.9997   -7.4616   22.7479 H   0  0  0  0  0  0
  -21.0838   -8.8788   19.8960 H   0  0  0  0  0  0
  -22.3720  -10.9676   19.6183 H   0  0  0  0  0  0
  -21.1996   -7.6141   23.9725 H   0  0  0  0  0  0
  -21.1491   -6.0522   25.9086 H   0  0  0  0  0  0
  -22.0591   -2.7608   23.2862 H   0  0  0  0  0  0
  -22.4071  -11.9839   22.4791 H   0  0  0  0  0  0
  -21.1124  -13.1261   22.2674 H   0  0  0  0  0  0
  -24.6459  -15.8342   20.5295 H   0  0  0  0  0  0
  -26.2561  -15.6410   20.0673 H   0  0  0  0  0  0
  -26.7189  -32.5442   23.1032 H   0  0  0  0  0  0
  -25.0037  -33.9714   25.0333 H   0  0  0  0  0  0
  -22.7264  -31.2952   21.3788 H   0  0  0  0  0  0
  -23.3784  -35.9613   23.3305 H   0  0  0  0  0  0
  -24.3621  -36.8930   22.2046 H   0  0  0  0  0  0
  -23.7294  -37.6500   23.6676 H   0  0  0  0  0  0
  -26.1098  -31.5278   20.5989 H   0  0  0  0  0  0
  -26.8511  -30.8262   22.0044 H   0  0  0  0  0  0
  -28.1409  -28.9549   21.1727 H   0  0  0  0  0  0
  -26.0025  -25.8710   19.0547 H   0  0  0  0  0  0
  -23.9805  -27.2654   19.0415 H   0  0  0  0  0  0
  -23.7932  -30.5741   19.3998 H   0  0  0  0  0  0
  -22.7721  -29.2389   19.8393 H   0  0  0  0  0  0
  -25.1338  -36.1916   25.0813 H   0  0  0  0  0  0
  -20.9998  -28.3335   24.1367 H   0  0  0  0  0  0
  -20.5743  -26.2348   23.3614 H   0  0  0  0  0  0
  -21.6706  -26.7491   22.1192 H   0  0  0  0  0  0
  -19.7004  -25.6274   21.1289 H   0  0  0  0  0  0
  -19.6763  -27.3136   20.6675 H   0  0  0  0  0  0
  -17.4256  -26.6639   21.4007 H   0  0  0  0  0  0
  -18.0420  -26.0057   22.8987 H   0  0  0  0  0  0
  -19.7997  -30.7253   24.2258 H   0  0  0  0  0  0
  -17.5096  -31.6270   24.5175 H   0  0  0  0  0  0
  -15.5414  -30.3025   23.7634 H   0  0  0  0  0  0
  -15.8707  -28.0864   22.7008 H   0  0  0  0  0  0
  -24.5843  -30.7103   25.7661 H   0  0  0  0  0  0
  -24.8813  -32.2928   26.4698 H   0  0  0  0  0  0
  -25.7902  -30.8968   27.0193 H   0  0  0  0  0  0
  -26.2896  -29.6751   24.1167 H   0  0  0  0  0  0
  -27.4046  -29.7253   25.4630 H   0  0  0  0  0  0
  -27.8745  -30.4298   23.9342 H   0  0  0  0  0  0
  -27.2635  -33.3664   26.1961 H   0  0  0  0  0  0
  -28.3852  -32.6856   25.0285 H   0  0  0  0  0  0
  -28.0653  -31.8502   26.5427 H   0  0  0  0  0  0
  -28.2593  -38.0127   24.7520 H   0  0  0  0  0  0
  -28.1150  -36.2665   24.6307 H   0  0  0  0  0  0
  -27.2337  -37.1459   25.8876 H   0  0  0  0  0  0
  -20.9427  -29.8816   21.6857 H   0  0  0  0  0  0
  -26.0216  -38.2851   24.1376 H   0  0  0  0  0  0
  -28.7647  -20.5605   22.7819 H   0  0  0  0  0  0
  -29.0925  -16.2900   22.8806 H   0  0  0  0  0  0
  -29.9936  -18.3947   19.2314 H   0  0  0  0  0  0
  -32.2746  -22.8681   19.3664 H   0  0  0  0  0  0
  -32.3798  -26.4453   18.5498 H   0  0  0  0  0  0
  -32.2063  -24.7527   17.8288 H   0  0  0  0  0  0
  -30.8538  -25.8993   20.3210 H   0  0  0  0  0  0
  -27.6807  -21.9702   20.5264 H   0  0  0  0  0  0
  -28.8368  -22.4384   21.7387 H   0  0  0  0  0  0
  -28.5284  -23.6188   18.9619 H   0  0  0  0  0  0
  -28.9002  -19.2471   24.9516 H   0  0  0  0  0  0
  -28.6684  -17.5008   24.8927 H   0  0  0  0  0  0
  -27.3491  -18.5770   24.4304 H   0  0  0  0  0  0
  -28.5774  -25.0505   21.6654 H   0  0  0  0  0  0
  -27.1706  -24.7573   20.7252 H   0  0  0  0  0  0
  -28.7547  -15.4451   20.2309 H   0  0  0  0  0  0
  1 25  1  0  0  0
  1 30  2  0  0  0
  1 87  1  0  0  0
  2  3  1  0  0  0
  2 25  1  0  0  0
  2 89  1  0  0  0
  2 90  1  0  0  0
  3  4  1  0  0  0
  3 91  1  0  0  0
  3 92  1  0  0  0
  4  5  1  0  0  0
  4 93  1  0  0  0
  4 94  1  0  0  0
  5  6  1  0  0  0
  5 26  1  0  0  0
  5 95  1  0  0  0
  6 25  1  0  0  0
  6 96  1  0  0  0
  6 97  1  0  0  0
  7  8  2  0  0  0
  7 26  1  0  0  0
  7 29  1  0  0  0
  8  9  1  0  0  0
  8 22  1  0  0  0
  9 10  1  0  0  0
  9 27  2  0  0  0
 10 11  2  0  0  0
 10 15  1  0  0  0
 11 12  1  0  0  0
 11 98  1  0  0  0
 12 13  2  0  0  0
 12 99  1  0  0  0
 13 14  1  0  0  0
 13 31  1  0  0  0
 14 15  2  0  0  0
 14100  1  0  0  0
 15101  1  0  0  0
 16 17  2  0  0  0
 16 21  1  0  0  0
 16 31  1  0  0  0
 17 18  1  0  0  0
 17102  1  0  0  0
 18 19  2  0  0  0
 18103  1  0  0  0
 19 20  1  0  0  0
 19 24  1  0  0  0
 20 21  2  0  0  0
 20104  1  0  0  0
 21 23  1  0  0  0
 22 28  1  0  0  0
 22 32  2  0  0  0
 26 27  1  0  0  0
 28105  1  0  0  0
 28106  1  0  0  0
 29107  1  0  0  0
 29108  1  0  0  0
 33 34  1  0  0  0
 33 66  1  0  0  0
 33 70  2  0  0  0
 34 36  1  0  0  0
 34 59  1  0  0  0
 34109  1  0  0  0
 35 44  2  0  0  0
 35 45  1  0  0  0
 35 68  1  0  0  0
 36 56  1  0  0  0
 36110  1  0  0  0
 37 39  1  0  0  0
 37 47  1  0  0  0
 37 66  1  0  0  0
 37111  1  0  0  0
 38 43  2  0  0  0
 38 46  1  0  0  0
 38 47  1  0  0  0
 39 64  1  0  0  0
 39 67  2  0  0  0
 40 52  1  0  0  0
 40 53  2  0  0  0
 40 58  1  0  0  0
 41112  1  0  0  0
 41113  1  0  0  0
 41114  1  0  0  0
 41 48  1  0  0  0
 42 43  1  0  0  0
 42 66  1  0  0  0
 42115  1  0  0  0
 42116  1  0  0  0
 43 44  1  0  0  0
 44117  1  0  0  0
 45 46  2  0  0  0
 45118  1  0  0  0
 46119  1  0  0  0
 47120  1  0  0  0
 47121  1  0  0  0
 48 56  1  0  0  0
 48 65  1  0  0  0
 48122  1  0  0  0
 49 50  1  0  0  0
 49 53  1  0  0  0
 49 64  1  0  0  0
 49123  1  0  0  0
 50 51  1  0  0  0
 50124  1  0  0  0
 50125  1  0  0  0
 51 52  1  0  0  0
 51126  1  0  0  0
 51127  1  0  0  0
 52128  1  0  0  0
 52129  1  0  0  0
 53 54  1  0  0  0
 54 55  2  0  0  0
 54130  1  0  0  0
 55 57  1  0  0  0
 55131  1  0  0  0
 56 69  2  0  0  0
 57 58  2  0  0  0
 57132  1  0  0  0
 58133  1  0  0  0
 59 60  1  0  0  0
 59 61  1  0  0  0
 59 62  1  0  0  0
 60134  1  0  0  0
 60135  1  0  0  0
 60136  1  0  0  0
 61137  1  0  0  0
 61138  1  0  0  0
 61139  1  0  0  0
 62140  1  0  0  0
 62141  1  0  0  0
 62142  1  0  0  0
 63 65  1  0  0  0
 63143  1  0  0  0
 63144  1  0  0  0
 63145  1  0  0  0
 64146  1  0  0  0
 65147  1  0  0  0
 68 85  1  0  0  0
 71 74  2  0  0  0
 71 75  1  0  0  0
 71148  1  0  0  0
 72 74  1  0  0  0
 72 76  2  0  0  0
 72149  1  0  0  0
 73 75  2  0  0  0
 73 76  1  0  0  0
 73150  1  0  0  0
 74 84  1  0  0  0
 75 86  1  0  0  0
 76 87  1  0  0  0
 77 78  2  0  0  0
 77 79  1  0  0  0
 77151  1  0  0  0
 78 81  1  0  0  0
 78 83  1  0  0  0
 79 86  1  0  0  0
 79 88  2  0  0  0
 80 81  2  0  0  0
 80152  1  0  0  0
 80153  1  0  0  0
 81154  1  0  0  0
 82 83  1  0  0  0
 82 86  1  0  0  0
 82155  1  0  0  0
 82156  1  0  0  0
 83 85  1  0  0  0
 83157  1  0  0  0
 84158  1  0  0  0
 84159  1  0  0  0
 84160  1  0  0  0
 85161  1  0  0  0
 85162  1  0  0  0
 87163  1  0  0  0
M  ISO  4   1 100  68 101  85 101  87 100
M  END
> <chiral flag>
0

> <version>
0

> <s_m_source_file>
/data/baiqing/PycharmProjects/Reinvent-master-3.2/result/LINK_invent/BTK/process_docking_weight1_custom_product_contain_oxygen_bond_distance_aromatic_linkinvent_7_9_3/rearranged_h_0062.sdf

> <i_m_source_file_index>
52

> <r_mmod_Potential_Energy-OPLS-2005>
360.449523925781

> <r_mmod_Stretch_Energy-OPLS-2005>
128.692138671875

> <r_mmod_Bend_Energy-OPLS-2005>
184.877807617188

> <r_mmod_Torsional_Energy-OPLS-2005>
349.707794189453

> <r_mmod_Improper_Torsional_Energy-OPLS-2005>
15.5271739959717

> <r_mmod_Van_der_Waal_Energy-OPLS-2005>
152.2724609375

> <r_mmod_Electrostatic_Energy-OPLS-2005>
-331.114624023438

> <r_mmod_Solvation_Energy-OPLS-2005>
-221.736541748047

> <b_mmod_Minimization_Converged-OPLS-2005>
0

> <r_mmod_RMS_Derivative-OPLS-2005>
2.61667490005493

$$$$
52
                    3D
 Structure written by MMmdl.
156164  0  0  1  0            999 V2000
  -30.6990  -14.4672   20.5775 C   0  0  0  0  0  0
  -30.4279  -12.3047   19.4189 C   0  0  0  0  0  0
  -29.4970  -12.5072   18.2053 C   0  0  0  0  0  0
  -28.0185  -12.3666   18.6188 C   0  0  0  0  0  0
  -27.6663  -13.2028   19.8775 C   0  0  2  0  0  0
  -28.7083  -12.9731   20.9960 C   0  0  0  0  0  0
  -25.2620  -13.8148   20.5692 C   0  0  0  0  0  0
  -24.1856  -13.0434   20.9168 C   0  0  0  0  0  0
  -24.6399  -11.6897   20.8725 C   0  0  0  0  0  0
  -23.9057  -10.4288   21.0393 C   0  0  0  0  0  0
  -24.3604   -9.4207   21.9176 C   0  0  0  0  0  0
  -23.6283   -8.2242   22.0752 C   0  0  0  0  0  0
  -22.4269   -8.0279   21.3541 C   0  0  0  0  0  0
  -21.9899   -9.0254   20.4650 C   0  0  0  0  0  0
  -22.7225  -10.2131   20.3054 C   0  0  0  0  0  0
  -21.6850   -6.0734   22.5277 C   0  0  0  0  0  0
  -21.4014   -6.5635   23.8213 C   0  0  0  0  0  0
  -21.3662   -5.6788   24.9174 C   0  0  0  0  0  0
  -21.6043   -4.3050   24.7222 C   0  0  0  0  0  0
  -21.8819   -3.8144   23.4342 C   0  0  0  0  0  0
  -21.9196   -4.6962   22.3401 C   0  0  0  0  0  0
  -22.7879  -13.5245   21.1830 C   0  0  0  0  0  0
  -22.1661   -4.2149   21.0977 F   0  0  0  0  0  0
  -21.5629   -3.4536   25.7732 F   0  0  0  0  0  0
  -30.0421  -13.2815   20.4495 N   0  0  0  0  0  0
  -26.3054  -12.9308   20.3379 N   0  0  0  0  0  0
  -25.9327  -11.6469   20.5766 N   0  0  0  0  0  0
  -22.0515  -12.8247   22.0389 N   0  0  0  0  0  0
  -25.4370  -15.1866   20.4125 N   0  0  0  0  0  0
  -31.8051  -14.6814   20.0715 O   0  0  0  0  0  0
  -21.6633   -6.8876   21.4240 O   0  0  0  0  0  0
  -22.3569  -14.5564   20.6697 O   0  0  0  0  0  0
  -24.6170  -31.8670   23.2106 C   0  0  0  0  0  0
  -25.9061  -32.4815   23.8398 C   0  0  1  0  0  0
  -27.2297  -27.4139   20.0954 C   0  0  0  0  0  0
  -25.5910  -33.8614   24.2322 N   0  0  0  0  0  0
  -23.4047  -30.4926   21.5514 C   0  0  2  0  0  0
  -24.8493  -28.9608   20.1121 C   0  0  0  0  0  0
  -22.7422  -29.4659   22.4984 C   0  0  0  0  0  0
  -18.0272  -28.1388   22.8485 C   0  0  0  0  0  0
  -24.1482  -36.7314   23.2635 C   0  0  0  0  0  0
  -25.9369  -30.8253   21.3683 C   0  0  0  0  0  0
  -26.0112  -29.4600   20.7124 C   0  0  0  0  0  0
  -27.2020  -28.6944   20.7017 C   0  0  0  0  0  0
  -26.0455  -26.9418   19.4776 C   0  0  0  0  0  0
  -24.8631  -27.7023   19.4911 C   0  0  0  0  0  0
  -23.6135  -29.8298   20.1641 C   0  0  0  0  0  0
  -25.4102  -36.3106   24.0335 C   0  0  1  0  0  0
  -20.5864  -28.3674   23.1313 C   0  0  2  0  0  0
  -20.6765  -26.9409   22.5415 C   0  0  0  0  0  0
  -19.5744  -26.6393   21.5213 C   0  0  0  0  0  0
  -18.1921  -26.7932   22.1624 C   0  0  0  0  0  0
  -19.1522  -28.8848   23.2894 C   0  0  0  0  0  0
  -18.9450  -30.1455   23.8905 C   0  0  0  0  0  0
  -17.6452  -30.6590   24.0569 C   0  0  0  0  0  0
  -25.9038  -34.9473   23.5126 C   0  0  0  0  0  0
  -16.5342  -29.9092   23.6329 C   0  0  0  0  0  0
  -16.7262  -28.6513   23.0340 C   0  0  0  0  0  0
  -26.4477  -31.6604   25.0737 C   0  0  0  0  0  0
  -25.3746  -31.3719   26.1490 C   0  0  0  0  0  0
  -27.0318  -30.3044   24.6138 C   0  0  0  0  0  0
  -27.6045  -32.4335   25.7497 C   0  0  0  0  0  0
  -27.5582  -37.1801   24.8456 C   0  0  0  0  0  0
  -21.4149  -29.3039   22.3724 N   0  0  0  0  0  0
  -26.4282  -37.3799   23.9421 N   0  0  0  0  0  0
  -24.6710  -31.0763   22.1012 N   0  0  0  0  0  0
  -23.4189  -28.8195   23.3024 O   0  0  0  0  0  0
  -28.3947  -26.6634   20.1353 O   0  0  0  0  0  0
  -26.5599  -34.8927   22.4686 O   0  0  0  0  0  0
  -23.5359  -32.1428   23.7498 O   0  0  0  0  0  0
  -30.9158  -18.9997   21.9930 C   0  0  0  0  0  0
  -30.7744  -17.5987   22.1193 C   0  0  0  0  0  0
  -29.7592  -17.5145   19.9139 C   0  0  0  0  0  0
  -30.4759  -19.6845   20.8330 C   0  0  0  0  0  0
  -30.2103  -16.8400   21.0725 C   0  0  0  0  0  0
  -29.8906  -18.9187   19.7909 C   0  0  0  0  0  0
  -30.7413  -21.1715   20.6961 C   0  0  0  0  0  0
  -29.4621  -24.4181   20.3035 C   0  0  0  0  0  0
  -29.6166  -23.2500   18.0001 C   0  0  0  0  0  0
  -28.3109  -25.2796   19.7258 C   0  0  0  0  0  0
  -30.1003  -23.2614   19.4636 C   0  0  2  0  0  0
  -30.0217  -15.4341   21.2257 N   0  0  0  0  0  0
  -29.8467  -21.9171   20.0224 N   0  0  0  0  0  0
  -31.7572  -21.6613   21.1956 O   0  0  0  0  0  0
  -29.8567  -24.6548   21.4500 O   0  0  0  0  0  0
  -29.4547  -19.5148   18.6533 F   0  0  0  0  0  0
  -31.4722  -12.4031   19.1176 H   0  0  0  0  0  0
  -30.3276  -11.2907   19.8100 H   0  0  0  0  0  0
  -29.7341  -11.7832   17.4248 H   0  0  0  0  0  0
  -29.6668  -13.4928   17.7685 H   0  0  0  0  0  0
  -27.8290  -11.3103   18.8143 H   0  0  0  0  0  0
  -27.3671  -12.6415   17.7887 H   0  0  0  0  0  0
  -27.7151  -14.2518   19.5847 H   0  0  0  0  0  0
  -28.6835  -11.9336   21.3271 H   0  0  0  0  0  0
  -28.4659  -13.5604   21.8820 H   0  0  0  0  0  0
  -25.2754   -9.5681   22.4747 H   0  0  0  0  0  0
  -23.9995   -7.4633   22.7467 H   0  0  0  0  0  0
  -21.0832   -8.8771   19.8958 H   0  0  0  0  0  0
  -22.3685  -10.9665   19.6162 H   0  0  0  0  0  0
  -21.2004   -7.6142   23.9713 H   0  0  0  0  0  0
  -21.1487   -6.0516   25.9075 H   0  0  0  0  0  0
  -22.0600   -2.7607   23.2839 H   0  0  0  0  0  0
  -22.4122  -11.9907   22.4780 H   0  0  0  0  0  0
  -21.1144  -13.1299   22.2609 H   0  0  0  0  0  0
  -24.6762  -15.8474   20.5294 H   0  0  0  0  0  0
  -26.2976  -15.6243   20.1077 H   0  0  0  0  0  0
  -26.7130  -32.5517   23.1157 H   0  0  0  0  0  0
  -25.0061  -33.9771   25.0468 H   0  0  0  0  0  0
  -22.6940  -31.3104   21.4150 H   0  0  0  0  0  0
  -23.3742  -35.9648   23.3295 H   0  0  0  0  0  0
  -24.3577  -36.8933   22.2050 H   0  0  0  0  0  0
  -23.7234  -37.6519   23.6650 H   0  0  0  0  0  0
  -26.0570  -31.5923   20.6021 H   0  0  0  0  0  0
  -26.8221  -30.8732   21.9907 H   0  0  0  0  0  0
  -28.0968  -29.0762   21.1739 H   0  0  0  0  0  0
  -26.0026  -25.9865   18.9759 H   0  0  0  0  0  0
  -23.9717  -27.3154   19.0168 H   0  0  0  0  0  0
  -23.7252  -30.6076   19.4079 H   0  0  0  0  0  0
  -22.7357  -29.2540   19.8653 H   0  0  0  0  0  0
  -25.1272  -36.1962   25.0827 H   0  0  0  0  0  0
  -20.9947  -28.3238   24.1439 H   0  0  0  0  0  0
  -20.5677  -26.2277   23.3600 H   0  0  0  0  0  0
  -21.6635  -26.7459   22.1203 H   0  0  0  0  0  0
  -19.6904  -25.6307   21.1234 H   0  0  0  0  0  0
  -19.6683  -27.3212   20.6749 H   0  0  0  0  0  0
  -17.4188  -26.6669   21.4030 H   0  0  0  0  0  0
  -18.0329  -26.0079   22.9028 H   0  0  0  0  0  0
  -19.7927  -30.7270   24.2273 H   0  0  0  0  0  0
  -17.5010  -31.6269   24.5175 H   0  0  0  0  0  0
  -15.5346  -30.2997   23.7663 H   0  0  0  0  0  0
  -15.8658  -28.0852   22.7034 H   0  0  0  0  0  0
  -24.5898  -30.7086   25.7835 H   0  0  0  0  0  0
  -24.8965  -32.2882   26.4965 H   0  0  0  0  0  0
  -25.8104  -30.8868   27.0234 H   0  0  0  0  0  0
  -26.2878  -29.6802   24.1175 H   0  0  0  0  0  0
  -27.4058  -29.7284   25.4613 H   0  0  0  0  0  0
  -27.8724  -30.4355   23.9320 H   0  0  0  0  0  0
  -27.2643  -33.3607   26.2123 H   0  0  0  0  0  0
  -28.3824  -32.6951   25.0312 H   0  0  0  0  0  0
  -28.0753  -31.8443   26.5376 H   0  0  0  0  0  0
  -28.2575  -38.0123   24.7550 H   0  0  0  0  0  0
  -28.1101  -36.2660   24.6213 H   0  0  0  0  0  0
  -27.2313  -37.1373   25.8861 H   0  0  0  0  0  0
  -20.9314  -29.8765   21.6950 H   0  0  0  0  0  0
  -26.0165  -38.2869   24.1455 H   0  0  0  0  0  0
  -31.3750  -19.5546   22.7990 H   0  0  0  0  0  0
  -31.1114  -17.1113   23.0241 H   0  0  0  0  0  0
  -29.3075  -16.9609   19.1036 H   0  0  0  0  0  0
  -29.8227  -24.1974   17.5002 H   0  0  0  0  0  0
  -28.5488  -23.0431   17.9189 H   0  0  0  0  0  0
  -30.1399  -22.4806   17.4311 H   0  0  0  0  0  0
  -27.3924  -24.8293   20.1024 H   0  0  0  0  0  0
  -28.2726  -25.2431   18.6398 H   0  0  0  0  0  0
  -31.1765  -23.4426   19.4381 H   0  0  0  0  0  0
  -29.1647  -15.1397   21.6686 H   0  0  0  0  0  0
  -29.0290  -21.4283   19.6863 H   0  0  0  0  0  0
  1 25  1  0  0  0
  1 30  2  0  0  0
  1 82  1  0  0  0
  2  3  1  0  0  0
  2 25  1  0  0  0
  2 87  1  0  0  0
  2 88  1  0  0  0
  3  4  1  0  0  0
  3 89  1  0  0  0
  3 90  1  0  0  0
  4  5  1  0  0  0
  4 91  1  0  0  0
  4 92  1  0  0  0
  5  6  1  0  0  0
  5 26  1  0  0  0
  5 93  1  0  0  0
  6 25  1  0  0  0
  6 94  1  0  0  0
  6 95  1  0  0  0
  7  8  2  0  0  0
  7 26  1  0  0  0
  7 29  1  0  0  0
  8  9  1  0  0  0
  8 22  1  0  0  0
  9 10  1  0  0  0
  9 27  2  0  0  0
 10 11  2  0  0  0
 10 15  1  0  0  0
 11 12  1  0  0  0
 11 96  1  0  0  0
 12 13  2  0  0  0
 12 97  1  0  0  0
 13 14  1  0  0  0
 13 31  1  0  0  0
 14 15  2  0  0  0
 14 98  1  0  0  0
 15 99  1  0  0  0
 16 17  2  0  0  0
 16 21  1  0  0  0
 16 31  1  0  0  0
 17 18  1  0  0  0
 17100  1  0  0  0
 18 19  2  0  0  0
 18101  1  0  0  0
 19 20  1  0  0  0
 19 24  1  0  0  0
 20 21  2  0  0  0
 20102  1  0  0  0
 21 23  1  0  0  0
 22 28  1  0  0  0
 22 32  2  0  0  0
 26 27  1  0  0  0
 28103  1  0  0  0
 28104  1  0  0  0
 29105  1  0  0  0
 29106  1  0  0  0
 33 34  1  0  0  0
 33 66  1  0  0  0
 33 70  2  0  0  0
 34 36  1  0  0  0
 34 59  1  0  0  0
 34107  1  0  0  0
 35 44  2  0  0  0
 35 45  1  0  0  0
 35 68  1  0  0  0
 36 56  1  0  0  0
 36108  1  0  0  0
 37 39  1  0  0  0
 37 47  1  0  0  0
 37 66  1  0  0  0
 37109  1  0  0  0
 38 43  2  0  0  0
 38 46  1  0  0  0
 38 47  1  0  0  0
 39 64  1  0  0  0
 39 67  2  0  0  0
 40 52  1  0  0  0
 40 53  2  0  0  0
 40 58  1  0  0  0
 41110  1  0  0  0
 41111  1  0  0  0
 41112  1  0  0  0
 41 48  1  0  0  0
 42 43  1  0  0  0
 42 66  1  0  0  0
 42113  1  0  0  0
 42114  1  0  0  0
 43 44  1  0  0  0
 44115  1  0  0  0
 45 46  2  0  0  0
 45116  1  0  0  0
 46117  1  0  0  0
 47118  1  0  0  0
 47119  1  0  0  0
 48 56  1  0  0  0
 48 65  1  0  0  0
 48120  1  0  0  0
 49 50  1  0  0  0
 49 53  1  0  0  0
 49 64  1  0  0  0
 49121  1  0  0  0
 50 51  1  0  0  0
 50122  1  0  0  0
 50123  1  0  0  0
 51 52  1  0  0  0
 51124  1  0  0  0
 51125  1  0  0  0
 52126  1  0  0  0
 52127  1  0  0  0
 53 54  1  0  0  0
 54 55  2  0  0  0
 54128  1  0  0  0
 55 57  1  0  0  0
 55129  1  0  0  0
 56 69  2  0  0  0
 57 58  2  0  0  0
 57130  1  0  0  0
 58131  1  0  0  0
 59 60  1  0  0  0
 59 61  1  0  0  0
 59 62  1  0  0  0
 60132  1  0  0  0
 60133  1  0  0  0
 60134  1  0  0  0
 61135  1  0  0  0
 61136  1  0  0  0
 61137  1  0  0  0
 62138  1  0  0  0
 62139  1  0  0  0
 62140  1  0  0  0
 63 65  1  0  0  0
 63141  1  0  0  0
 63142  1  0  0  0
 63143  1  0  0  0
 64144  1  0  0  0
 65145  1  0  0  0
 68 80  1  0  0  0
 71 72  2  0  0  0
 71 74  1  0  0  0
 71146  1  0  0  0
 72 75  1  0  0  0
 72147  1  0  0  0
 73 75  2  0  0  0
 73 76  1  0  0  0
 73148  1  0  0  0
 74 76  2  0  0  0
 74 77  1  0  0  0
 75 82  1  0  0  0
 76 86  1  0  0  0
 77 83  1  0  0  0
 77 84  2  0  0  0
 78 80  1  0  0  0
 78 81  1  0  0  0
 78 85  2  0  0  0
 79149  1  0  0  0
 79150  1  0  0  0
 79151  1  0  0  0
 79 81  1  0  0  0
 80152  1  0  0  0
 80153  1  0  0  0
 81 83  1  0  0  0
 81154  1  0  0  0
 82155  1  0  0  0
 83156  1  0  0  0
M  ISO  4   1 100  68 101  80 101  82 100
M  END
> <chiral flag>
0

> <version>
0

> <s_m_source_file>
/data/baiqing/PycharmProjects/Reinvent-master-3.2/result/LINK_invent/BTK/process_docking_weight1_custom_product_contain_oxygen_bond_distance_aromatic_linkinvent_7_9_3/rearranged_h_0062.sdf

> <i_m_source_file_index>
53

> <r_mmod_Potential_Energy-OPLS-2005>
-33.1646614074707

> <r_mmod_Stretch_Energy-OPLS-2005>
42.3470306396484

> <r_mmod_Bend_Energy-OPLS-2005>
98.0784759521484

> <r_mmod_Torsional_Energy-OPLS-2005>
263.911315917969

> <r_mmod_Improper_Torsional_Energy-OPLS-2005>
4.11942434310913

> <r_mmod_Van_der_Waal_Energy-OPLS-2005>
158.210372924805

> <r_mmod_Electrostatic_Energy-OPLS-2005>
-355.702575683594

> <r_mmod_Solvation_Energy-OPLS-2005>
-258.088653564453

> <b_mmod_Minimization_Converged-OPLS-2005>
0

> <r_mmod_RMS_Derivative-OPLS-2005>
1.07439768314362

$$$$
53
                    3D
 Structure written by MMmdl.
165174  0  0  1  0            999 V2000
  -30.7305  -14.4040   20.6414 C   0  0  0  0  0  0
  -30.4228  -12.2917   19.4011 C   0  0  0  0  0  0
  -29.4876  -12.5168   18.1968 C   0  0  0  0  0  0
  -28.0099  -12.3770   18.6120 C   0  0  0  0  0  0
  -27.6664  -13.1988   19.8819 C   0  0  2  0  0  0
  -28.7060  -12.9380   20.9948 C   0  0  0  0  0  0
  -25.2610  -13.8151   20.5676 C   0  0  0  0  0  0
  -24.1850  -13.0436   20.9167 C   0  0  0  0  0  0
  -24.6389  -11.6900   20.8728 C   0  0  0  0  0  0
  -23.9051  -10.4294   21.0406 C   0  0  0  0  0  0
  -24.3605   -9.4211   21.9186 C   0  0  0  0  0  0
  -23.6282   -8.2246   22.0760 C   0  0  0  0  0  0
  -22.4269   -8.0281   21.3545 C   0  0  0  0  0  0
  -21.9902   -9.0252   20.4645 C   0  0  0  0  0  0
  -22.7223  -10.2136   20.3054 C   0  0  0  0  0  0
  -21.6849   -6.0735   22.5274 C   0  0  0  0  0  0
  -21.4014   -6.5643   23.8209 C   0  0  0  0  0  0
  -21.3659   -5.6794   24.9170 C   0  0  0  0  0  0
  -21.6045   -4.3054   24.7221 C   0  0  0  0  0  0
  -21.8821   -3.8146   23.4342 C   0  0  0  0  0  0
  -21.9192   -4.6965   22.3398 C   0  0  0  0  0  0
  -22.7875  -13.5239   21.1832 C   0  0  0  0  0  0
  -22.1660   -4.2149   21.0974 F   0  0  0  0  0  0
  -21.5632   -3.4539   25.7735 F   0  0  0  0  0  0
  -30.0431  -13.2466   20.4520 N   0  0  0  0  0  0
  -26.3042  -12.9308   20.3388 N   0  0  0  0  0  0
  -25.9309  -11.6473   20.5763 N   0  0  0  0  0  0
  -22.0514  -12.8237   22.0393 N   0  0  0  0  0  0
  -25.4354  -15.1869   20.4080 N   0  0  0  0  0  0
  -31.8089  -14.6421   20.0893 O   0  0  0  0  0  0
  -21.6637   -6.8876   21.4238 O   0  0  0  0  0  0
  -22.3567  -14.5553   20.6686 O   0  0  0  0  0  0
  -24.6113  -31.8700   23.2130 C   0  0  0  0  0  0
  -25.9019  -32.4833   23.8424 C   0  0  1  0  0  0
  -27.2399  -27.4674   20.0940 C   0  0  0  0  0  0
  -25.5889  -33.8630   24.2353 N   0  0  0  0  0  0
  -23.3983  -30.4913   21.5528 C   0  0  2  0  0  0
  -24.8474  -28.9563   20.1207 C   0  0  0  0  0  0
  -22.7392  -29.4661   22.5023 C   0  0  0  0  0  0
  -18.0265  -28.1377   22.8500 C   0  0  0  0  0  0
  -24.1483  -36.7319   23.2641 C   0  0  0  0  0  0
  -25.9233  -30.8427   21.3636 C   0  0  0  0  0  0
  -26.0031  -29.4768   20.7175 C   0  0  0  0  0  0
  -27.2039  -28.7367   20.7072 C   0  0  0  0  0  0
  -26.0748  -26.9506   19.4939 C   0  0  0  0  0  0
  -24.8749  -27.6887   19.5095 C   0  0  0  0  0  0
  -23.6072  -29.8195   20.1682 C   0  0  0  0  0  0
  -25.4101  -36.3113   24.0341 C   0  0  1  0  0  0
  -20.5855  -28.3653   23.1338 C   0  0  2  0  0  0
  -20.6751  -26.9392   22.5425 C   0  0  0  0  0  0
  -19.5726  -26.6384   21.5221 C   0  0  0  0  0  0
  -18.1906  -26.7926   22.1629 C   0  0  0  0  0  0
  -19.1515  -28.8835   23.2912 C   0  0  0  0  0  0
  -18.9441  -30.1449   23.8904 C   0  0  0  0  0  0
  -17.6443  -30.6585   24.0565 C   0  0  0  0  0  0
  -25.9027  -34.9478   23.5141 C   0  0  0  0  0  0
  -16.5337  -29.9084   23.6335 C   0  0  0  0  0  0
  -16.7258  -28.6506   23.0351 C   0  0  0  0  0  0
  -26.4465  -31.6601   25.0739 C   0  0  0  0  0  0
  -25.3756  -31.3691   26.1509 C   0  0  0  0  0  0
  -27.0294  -30.3043   24.6103 C   0  0  0  0  0  0
  -27.6064  -32.4305   25.7480 C   0  0  0  0  0  0
  -27.5588  -37.1798   24.8460 C   0  0  0  0  0  0
  -21.4127  -29.3022   22.3748 N   0  0  0  0  0  0
  -26.4285  -37.3800   23.9428 N   0  0  0  0  0  0
  -24.6620  -31.0818   22.1022 N   0  0  0  0  0  0
  -23.4174  -28.8210   23.3062 O   0  0  0  0  0  0
  -28.4059  -26.7472   20.0458 O   0  0  0  0  0  0
  -26.5591  -34.8922   22.4702 O   0  0  0  0  0  0
  -23.5312  -32.1449   23.7531 O   0  0  0  0  0  0
  -31.0620  -19.2990   22.4579 C   0  0  0  0  0  0
  -31.8075  -17.0355   21.9245 C   0  0  0  0  0  0
  -29.4325  -17.5788   21.9056 C   0  0  0  0  0  0
  -32.1040  -18.3647   22.2828 C   0  0  0  0  0  0
  -29.7084  -18.9199   22.2831 C   0  0  0  0  0  0
  -30.4668  -16.6354   21.7289 C   0  0  0  0  0  0
  -27.4709  -19.5482   23.0555 C   0  0  0  0  0  0
  -28.2639  -24.4515   20.8751 C   0  0  0  0  0  0
  -26.2713  -20.4964   22.9418 C   0  0  0  0  0  0
  -26.6663  -21.9718   22.9354 C   0  0  0  0  0  0
  -28.9631  -21.3022   22.1542 C   0  0  0  0  0  0
  -27.7490  -22.2178   21.8863 C   0  0  2  0  0  0
  -33.5467  -18.7823   22.4893 C   0  0  0  0  0  0
  -28.6356  -25.9125   21.1838 C   0  0  0  0  0  0
  -28.6505  -19.8857   22.4582 N   0  0  0  0  0  0
  -30.0992  -15.2980   21.4203 N   0  0  0  0  0  0
  -28.1387  -23.6276   21.9255 N   0  0  0  0  0  0
  -27.2987  -18.4965   23.6812 O   0  0  0  0  0  0
  -28.0977  -24.0736   19.7121 O   0  0  0  0  0  0
  -31.4647  -12.3972   19.0945 H   0  0  0  0  0  0
  -30.3271  -11.2714   19.7750 H   0  0  0  0  0  0
  -29.7192  -11.8066   17.4022 H   0  0  0  0  0  0
  -29.6580  -13.5100   17.7784 H   0  0  0  0  0  0
  -27.8139  -11.3189   18.7912 H   0  0  0  0  0  0
  -27.3584  -12.6706   17.7884 H   0  0  0  0  0  0
  -27.7247  -14.2524   19.6095 H   0  0  0  0  0  0
  -28.6754  -11.8909   21.3004 H   0  0  0  0  0  0
  -28.4573  -13.4984   21.8962 H   0  0  0  0  0  0
  -25.2751   -9.5688   22.4756 H   0  0  0  0  0  0
  -23.9994   -7.4645   22.7487 H   0  0  0  0  0  0
  -21.0836   -8.8759   19.8949 H   0  0  0  0  0  0
  -22.3675  -10.9673   19.6163 H   0  0  0  0  0  0
  -21.2008   -7.6151   23.9707 H   0  0  0  0  0  0
  -21.1481   -6.0528   25.9072 H   0  0  0  0  0  0
  -22.0604   -2.7606   23.2843 H   0  0  0  0  0  0
  -22.4128  -11.9883   22.4750 H   0  0  0  0  0  0
  -21.1139  -13.1277   22.2613 H   0  0  0  0  0  0
  -24.6711  -15.8447   20.5162 H   0  0  0  0  0  0
  -26.2902  -15.6210   20.0844 H   0  0  0  0  0  0
  -26.7098  -32.5569   23.1206 H   0  0  0  0  0  0
  -25.0051  -33.9801   25.0503 H   0  0  0  0  0  0
  -22.6857  -31.3064   21.4127 H   0  0  0  0  0  0
  -23.3769  -35.9622   23.3238 H   0  0  0  0  0  0
  -24.3590  -36.9008   22.2068 H   0  0  0  0  0  0
  -23.7189  -37.6481   23.6705 H   0  0  0  0  0  0
  -26.0312  -31.6065   20.5929 H   0  0  0  0  0  0
  -26.8127  -30.8991   21.9793 H   0  0  0  0  0  0
  -28.1005  -29.1375   21.1591 H   0  0  0  0  0  0
  -26.0997  -25.9810   19.0164 H   0  0  0  0  0  0
  -23.9860  -27.2822   19.0467 H   0  0  0  0  0  0
  -23.7114  -30.5926   19.4064 H   0  0  0  0  0  0
  -22.7329  -29.2347   19.8756 H   0  0  0  0  0  0
  -25.1266  -36.1977   25.0831 H   0  0  0  0  0  0
  -20.9946  -28.3207   24.1458 H   0  0  0  0  0  0
  -20.5672  -26.2250   23.3598 H   0  0  0  0  0  0
  -21.6616  -26.7437   22.1209 H   0  0  0  0  0  0
  -19.6878  -25.6306   21.1224 H   0  0  0  0  0  0
  -19.6662  -27.3208   20.6765 H   0  0  0  0  0  0
  -17.4180  -26.6707   21.4023 H   0  0  0  0  0  0
  -18.0281  -26.0060   22.9010 H   0  0  0  0  0  0
  -19.7915  -30.7272   24.2272 H   0  0  0  0  0  0
  -17.4992  -31.6260   24.5174 H   0  0  0  0  0  0
  -15.5332  -30.2980   23.7654 H   0  0  0  0  0  0
  -15.8663  -28.0828   22.7050 H   0  0  0  0  0  0
  -24.5863  -30.7122   25.7832 H   0  0  0  0  0  0
  -24.9039  -32.2850   26.5073 H   0  0  0  0  0  0
  -25.8121  -30.8744   27.0194 H   0  0  0  0  0  0
  -26.2813  -29.6780   24.1226 H   0  0  0  0  0  0
  -27.4139  -29.7303   25.4547 H   0  0  0  0  0  0
  -27.8620  -30.4369   23.9192 H   0  0  0  0  0  0
  -27.2731  -33.3638   26.2030 H   0  0  0  0  0  0
  -28.3878  -32.6798   25.0289 H   0  0  0  0  0  0
  -28.0717  -31.8434   26.5409 H   0  0  0  0  0  0
  -28.2565  -38.0140   24.7576 H   0  0  0  0  0  0
  -28.1128  -36.2669   24.6195 H   0  0  0  0  0  0
  -27.2318  -37.1346   25.8865 H   0  0  0  0  0  0
  -20.9283  -29.8748   21.6976 H   0  0  0  0  0  0
  -26.0175  -38.2868   24.1477 H   0  0  0  0  0  0
  -31.3172  -20.3086   22.7482 H   0  0  0  0  0  0
  -32.6176  -16.3275   21.8142 H   0  0  0  0  0  0
  -28.4111  -17.2641   21.7441 H   0  0  0  0  0  0
  -25.5734  -20.3030   23.7562 H   0  0  0  0  0  0
  -25.7462  -20.2508   22.0179 H   0  0  0  0  0  0
  -27.0196  -22.2601   23.9273 H   0  0  0  0  0  0
  -25.7883  -22.5840   22.7252 H   0  0  0  0  0  0
  -29.5169  -21.6977   23.0070 H   0  0  0  0  0  0
  -29.6332  -21.3523   21.2947 H   0  0  0  0  0  0
  -27.3347  -21.9675   20.9064 H   0  0  0  0  0  0
  -33.6178  -19.7717   22.9419 H   0  0  0  0  0  0
  -34.0741  -18.8084   21.5357 H   0  0  0  0  0  0
  -34.0594  -18.0765   23.1433 H   0  0  0  0  0  0
  -29.6962  -25.9530   21.4330 H   0  0  0  0  0  0
  -28.0929  -26.2624   22.0649 H   0  0  0  0  0  0
  -29.1819  -15.0075   21.7225 H   0  0  0  0  0  0
  -28.3052  -24.0323   22.8380 H   0  0  0  0  0  0
  1 25  1  0  0  0
  1 30  2  0  0  0
  1 86  1  0  0  0
  2  3  1  0  0  0
  2 25  1  0  0  0
  2 90  1  0  0  0
  2 91  1  0  0  0
  3  4  1  0  0  0
  3 92  1  0  0  0
  3 93  1  0  0  0
  4  5  1  0  0  0
  4 94  1  0  0  0
  4 95  1  0  0  0
  5  6  1  0  0  0
  5 26  1  0  0  0
  5 96  1  0  0  0
  6 25  1  0  0  0
  6 97  1  0  0  0
  6 98  1  0  0  0
  7  8  2  0  0  0
  7 26  1  0  0  0
  7 29  1  0  0  0
  8  9  1  0  0  0
  8 22  1  0  0  0
  9 10  1  0  0  0
  9 27  2  0  0  0
 10 11  2  0  0  0
 10 15  1  0  0  0
 11 12  1  0  0  0
 11 99  1  0  0  0
 12 13  2  0  0  0
 12100  1  0  0  0
 13 14  1  0  0  0
 13 31  1  0  0  0
 14 15  2  0  0  0
 14101  1  0  0  0
 15102  1  0  0  0
 16 17  2  0  0  0
 16 21  1  0  0  0
 16 31  1  0  0  0
 17 18  1  0  0  0
 17103  1  0  0  0
 18 19  2  0  0  0
 18104  1  0  0  0
 19 20  1  0  0  0
 19 24  1  0  0  0
 20 21  2  0  0  0
 20105  1  0  0  0
 21 23  1  0  0  0
 22 28  1  0  0  0
 22 32  2  0  0  0
 26 27  1  0  0  0
 28106  1  0  0  0
 28107  1  0  0  0
 29108  1  0  0  0
 29109  1  0  0  0
 33 34  1  0  0  0
 33 66  1  0  0  0
 33 70  2  0  0  0
 34 36  1  0  0  0
 34 59  1  0  0  0
 34110  1  0  0  0
 35 44  2  0  0  0
 35 45  1  0  0  0
 35 68  1  0  0  0
 36 56  1  0  0  0
 36111  1  0  0  0
 37 39  1  0  0  0
 37 47  1  0  0  0
 37 66  1  0  0  0
 37112  1  0  0  0
 38 43  2  0  0  0
 38 46  1  0  0  0
 38 47  1  0  0  0
 39 64  1  0  0  0
 39 67  2  0  0  0
 40 52  1  0  0  0
 40 53  2  0  0  0
 40 58  1  0  0  0
 41113  1  0  0  0
 41114  1  0  0  0
 41115  1  0  0  0
 41 48  1  0  0  0
 42 43  1  0  0  0
 42 66  1  0  0  0
 42116  1  0  0  0
 42117  1  0  0  0
 43 44  1  0  0  0
 44118  1  0  0  0
 45 46  2  0  0  0
 45119  1  0  0  0
 46120  1  0  0  0
 47121  1  0  0  0
 47122  1  0  0  0
 48 56  1  0  0  0
 48 65  1  0  0  0
 48123  1  0  0  0
 49 50  1  0  0  0
 49 53  1  0  0  0
 49 64  1  0  0  0
 49124  1  0  0  0
 50 51  1  0  0  0
 50125  1  0  0  0
 50126  1  0  0  0
 51 52  1  0  0  0
 51127  1  0  0  0
 51128  1  0  0  0
 52129  1  0  0  0
 52130  1  0  0  0
 53 54  1  0  0  0
 54 55  2  0  0  0
 54131  1  0  0  0
 55 57  1  0  0  0
 55132  1  0  0  0
 56 69  2  0  0  0
 57 58  2  0  0  0
 57133  1  0  0  0
 58134  1  0  0  0
 59 60  1  0  0  0
 59 61  1  0  0  0
 59 62  1  0  0  0
 60135  1  0  0  0
 60136  1  0  0  0
 60137  1  0  0  0
 61138  1  0  0  0
 61139  1  0  0  0
 61140  1  0  0  0
 62141  1  0  0  0
 62142  1  0  0  0
 62143  1  0  0  0
 63 65  1  0  0  0
 63144  1  0  0  0
 63145  1  0  0  0
 63146  1  0  0  0
 64147  1  0  0  0
 65148  1  0  0  0
 68 84  1  0  0  0
 71 74  2  0  0  0
 71 75  1  0  0  0
 71149  1  0  0  0
 72 74  1  0  0  0
 72 76  2  0  0  0
 72150  1  0  0  0
 73 75  2  0  0  0
 73 76  1  0  0  0
 73151  1  0  0  0
 74 83  1  0  0  0
 75 85  1  0  0  0
 76 86  1  0  0  0
 77 79  1  0  0  0
 77 85  1  0  0  0
 77 88  2  0  0  0
 78 84  1  0  0  0
 78 87  1  0  0  0
 78 89  2  0  0  0
 79 80  1  0  0  0
 79152  1  0  0  0
 79153  1  0  0  0
 80 82  1  0  0  0
 80154  1  0  0  0
 80155  1  0  0  0
 81 82  1  0  0  0
 81 85  1  0  0  0
 81156  1  0  0  0
 81157  1  0  0  0
 82 87  1  0  0  0
 82158  1  0  0  0
 83159  1  0  0  0
 83160  1  0  0  0
 83161  1  0  0  0
 84162  1  0  0  0
 84163  1  0  0  0
 86164  1  0  0  0
 87165  1  0  0  0
M  ISO  4   1 100  68 101  84 101  86 100
M  END
> <chiral flag>
0

> <version>
0

> <s_m_source_file>
/data/baiqing/PycharmProjects/Reinvent-master-3.2/result/LINK_invent/BTK/process_docking_weight1_custom_product_contain_oxygen_bond_distance_aromatic_linkinvent_7_9_3/rearranged_h_0062.sdf

> <i_m_source_file_index>
54

> <r_mmod_Potential_Energy-OPLS-2005>
-33.4653396606445

> <r_mmod_Stretch_Energy-OPLS-2005>
38.8781623840332

> <r_mmod_Bend_Energy-OPLS-2005>
97.6907501220703

> <r_mmod_Torsional_Energy-OPLS-2005>
285.115386962891

> <r_mmod_Improper_Torsional_Energy-OPLS-2005>
2.73750948905945

> <r_mmod_Van_der_Waal_Energy-OPLS-2005>
171.143585205078

> <r_mmod_Electrostatic_Energy-OPLS-2005>
-384.055969238281

> <r_mmod_Solvation_Energy-OPLS-2005>
-252.006210327148

> <b_mmod_Minimization_Converged-OPLS-2005>
0

> <r_mmod_RMS_Derivative-OPLS-2005>
1.06656861305237

$$$$
54
                    3D
 Structure written by MMmdl.
156164  0  0  1  0            999 V2000
  -30.7242  -14.5165   20.5030 C   0  0  0  0  0  0
  -30.3949  -12.3079   19.4640 C   0  0  0  0  0  0
  -29.4937  -12.4989   18.2294 C   0  0  0  0  0  0
  -28.0137  -12.3597   18.6300 C   0  0  0  0  0  0
  -27.6473  -13.2224   19.8668 C   0  0  2  0  0  0
  -28.6866  -13.0626   21.0031 C   0  0  0  0  0  0
  -25.2470  -13.8215   20.5668 C   0  0  0  0  0  0
  -24.1742  -13.0441   20.9201 C   0  0  0  0  0  0
  -24.6336  -11.6920   20.8755 C   0  0  0  0  0  0
  -23.9033  -10.4282   21.0409 C   0  0  0  0  0  0
  -24.3586   -9.4189   21.9182 C   0  0  0  0  0  0
  -23.6260   -8.2218   22.0741 C   0  0  0  0  0  0
  -22.4234   -8.0267   21.3550 C   0  0  0  0  0  0
  -21.9884   -9.0228   20.4640 C   0  0  0  0  0  0
  -22.7206  -10.2116   20.3050 C   0  0  0  0  0  0
  -21.6844   -6.0703   22.5261 C   0  0  0  0  0  0
  -21.4021   -6.5618   23.8196 C   0  0  0  0  0  0
  -21.3659   -5.6787   24.9172 C   0  0  0  0  0  0
  -21.6050   -4.3046   24.7238 C   0  0  0  0  0  0
  -21.8805   -3.8114   23.4362 C   0  0  0  0  0  0
  -21.9181   -4.6923   22.3406 C   0  0  0  0  0  0
  -22.7778  -13.5222   21.1875 C   0  0  0  0  0  0
  -22.1644   -4.2101   21.0990 F   0  0  0  0  0  0
  -21.5624   -3.4533   25.7759 F   0  0  0  0  0  0
  -30.0212  -13.3459   20.4465 N   0  0  0  0  0  0
  -26.2912  -12.9396   20.3327 N   0  0  0  0  0  0
  -25.9257  -11.6539   20.5761 N   0  0  0  0  0  0
  -22.0429  -12.8204   22.0458 N   0  0  0  0  0  0
  -25.4172  -15.1921   20.4055 N   0  0  0  0  0  0
  -31.8769  -14.5707   20.0634 O   0  0  0  0  0  0
  -21.6617   -6.8847   21.4226 O   0  0  0  0  0  0
  -22.3442  -14.5503   20.6719 O   0  0  0  0  0  0
  -24.6136  -31.8691   23.2084 C   0  0  0  0  0  0
  -25.9022  -32.4813   23.8399 C   0  0  1  0  0  0
  -27.2329  -27.4289   20.0986 C   0  0  0  0  0  0
  -25.5886  -33.8617   24.2333 N   0  0  0  0  0  0
  -23.4029  -30.4925   21.5470 C   0  0  2  0  0  0
  -24.8514  -28.9546   20.1154 C   0  0  0  0  0  0
  -22.7414  -29.4675   22.4979 C   0  0  0  0  0  0
  -18.0259  -28.1384   22.8520 C   0  0  0  0  0  0
  -24.1480  -36.7326   23.2625 C   0  0  0  0  0  0
  -25.9317  -30.8292   21.3661 C   0  0  0  0  0  0
  -26.0111  -29.4627   20.7146 C   0  0  0  0  0  0
  -27.2074  -28.7064   20.7058 C   0  0  0  0  0  0
  -26.0596  -26.9403   19.4881 C   0  0  0  0  0  0
  -24.8699  -27.6919   19.4984 C   0  0  0  0  0  0
  -23.6148  -29.8228   20.1633 C   0  0  0  0  0  0
  -25.4101  -36.3120   24.0329 C   0  0  1  0  0  0
  -20.5863  -28.3690   23.1309 C   0  0  2  0  0  0
  -20.6738  -26.9440   22.5341 C   0  0  0  0  0  0
  -19.5699  -26.6425   21.5180 C   0  0  0  0  0  0
  -18.1890  -26.7975   22.1602 C   0  0  0  0  0  0
  -19.1516  -28.8857   23.2919 C   0  0  0  0  0  0
  -18.9445  -30.1431   23.8931 C   0  0  0  0  0  0
  -17.6452  -30.6596   24.0553 C   0  0  0  0  0  0
  -25.9043  -34.9477   23.5138 C   0  0  0  0  0  0
  -16.5349  -29.9097   23.6324 C   0  0  0  0  0  0
  -16.7252  -28.6488   23.0422 C   0  0  0  0  0  0
  -26.4472  -31.6603   25.0730 C   0  0  0  0  0  0
  -25.3745  -31.3689   26.1477 C   0  0  0  0  0  0
  -27.0320  -30.3048   24.6114 C   0  0  0  0  0  0
  -27.6067  -32.4321   25.7490 C   0  0  0  0  0  0
  -27.5586  -37.1809   24.8459 C   0  0  0  0  0  0
  -21.4146  -29.3094   22.3750 N   0  0  0  0  0  0
  -26.4298  -37.3790   23.9404 N   0  0  0  0  0  0
  -24.6667  -31.0810   22.0987 N   0  0  0  0  0  0
  -23.4177  -28.8229   23.3029 O   0  0  0  0  0  0
  -28.3734  -26.6532   20.0982 O   0  0  0  0  0  0
  -26.5589  -34.8930   22.4692 O   0  0  0  0  0  0
  -23.5333  -32.1442   23.7478 O   0  0  0  0  0  0
  -28.5530  -19.1138   23.2887 C   0  0  0  0  0  0
  -28.4905  -20.3339   22.5966 C   0  0  0  0  0  0
  -29.7034  -19.3272   20.7556 C   0  0  0  0  0  0
  -29.7377  -18.0629   21.4213 C   0  0  0  0  0  0
  -29.1829  -17.9816   22.7327 C   0  0  0  0  0  0
  -29.0761  -20.4698   21.3179 C   0  0  0  0  0  0
  -30.4825  -16.9194   20.7463 C   0  0  0  0  0  0
  -28.3138  -22.8182   20.7884 C   0  0  0  0  0  0
  -29.2870  -16.7502   23.6253 C   0  0  0  0  0  0
  -28.6708  -24.1219   20.0303 C   0  0  0  0  0  0
  -28.2301  -25.4025   20.8024 C   0  0  0  0  0  0
  -29.1096  -21.7334   20.6256 N   0  0  0  0  0  0
  -30.0684  -15.6326   20.9257 N   0  0  0  0  0  0
  -31.4082  -17.2461   19.9890 O   0  0  0  0  0  0
  -27.2902  -22.7961   21.4770 O   0  0  0  0  0  0
  -31.4485  -12.3361   19.1840 H   0  0  0  0  0  0
  -30.2393  -11.3151   19.8925 H   0  0  0  0  0  0
  -29.7513  -11.7736   17.4583 H   0  0  0  0  0  0
  -29.6580  -13.4845   17.7916 H   0  0  0  0  0  0
  -27.8487  -11.3068   18.8576 H   0  0  0  0  0  0
  -27.3599  -12.5952   17.7902 H   0  0  0  0  0  0
  -27.6764  -14.2616   19.5391 H   0  0  0  0  0  0
  -28.6560  -12.0434   21.3922 H   0  0  0  0  0  0
  -28.4458  -13.7023   21.8543 H   0  0  0  0  0  0
  -25.2729   -9.5641   22.4767 H   0  0  0  0  0  0
  -23.9952   -7.4601   22.7451 H   0  0  0  0  0  0
  -21.0815   -8.8719   19.8959 H   0  0  0  0  0  0
  -22.3643  -10.9633   19.6138 H   0  0  0  0  0  0
  -21.2039   -7.6125   23.9697 H   0  0  0  0  0  0
  -21.1503   -6.0523   25.9082 H   0  0  0  0  0  0
  -22.0599   -2.7572   23.2877 H   0  0  0  0  0  0
  -22.4068  -11.9886   22.4861 H   0  0  0  0  0  0
  -21.1039  -13.1192   22.2678 H   0  0  0  0  0  0
  -24.6482  -15.8487   20.4867 H   0  0  0  0  0  0
  -26.2695  -15.6227   20.0689 H   0  0  0  0  0  0
  -26.7116  -32.5553   23.1199 H   0  0  0  0  0  0
  -25.0088  -33.9795   25.0514 H   0  0  0  0  0  0
  -22.6859  -31.3021   21.4029 H   0  0  0  0  0  0
  -23.3753  -35.9657   23.3306 H   0  0  0  0  0  0
  -24.3569  -36.8917   22.2036 H   0  0  0  0  0  0
  -23.7241  -37.6530   23.6649 H   0  0  0  0  0  0
  -26.0440  -31.5923   20.5943 H   0  0  0  0  0  0
  -26.8173  -30.8872   21.9893 H   0  0  0  0  0  0
  -28.0970  -29.0902   21.1865 H   0  0  0  0  0  0
  -26.0694  -25.9717   19.0102 H   0  0  0  0  0  0
  -23.9816  -27.2942   19.0268 H   0  0  0  0  0  0
  -23.7224  -30.5932   19.4001 H   0  0  0  0  0  0
  -22.7399  -29.2395   19.8730 H   0  0  0  0  0  0
  -25.1290  -36.1987   25.0822 H   0  0  0  0  0  0
  -20.9972  -28.3202   24.1416 H   0  0  0  0  0  0
  -20.5758  -26.2272   23.3534 H   0  0  0  0  0  0
  -21.6573  -26.7527   22.1038 H   0  0  0  0  0  0
  -19.6878  -25.6354   21.1155 H   0  0  0  0  0  0
  -19.6674  -27.3242   20.6722 H   0  0  0  0  0  0
  -17.4205  -26.6840   21.3950 H   0  0  0  0  0  0
  -18.0244  -26.0095   22.8967 H   0  0  0  0  0  0
  -19.7904  -30.7178   24.2443 H   0  0  0  0  0  0
  -17.5035  -31.6242   24.5258 H   0  0  0  0  0  0
  -15.5361  -30.3020   23.7691 H   0  0  0  0  0  0
  -15.8656  -28.0763   22.7151 H   0  0  0  0  0  0
  -24.5922  -30.7033   25.7798 H   0  0  0  0  0  0
  -24.8953  -32.2846   26.4959 H   0  0  0  0  0  0
  -25.8095  -30.8832   27.0219 H   0  0  0  0  0  0
  -26.2877  -29.6791   24.1179 H   0  0  0  0  0  0
  -27.4097  -29.7279   25.4562 H   0  0  0  0  0  0
  -27.8714  -30.4344   23.9275 H   0  0  0  0  0  0
  -27.2698  -33.3598   26.2123 H   0  0  0  0  0  0
  -28.3866  -32.6894   25.0317 H   0  0  0  0  0  0
  -28.0781  -31.8420   26.5357 H   0  0  0  0  0  0
  -28.2603  -38.0096   24.7519 H   0  0  0  0  0  0
  -28.1075  -36.2641   24.6305 H   0  0  0  0  0  0
  -27.2296  -37.1478   25.8846 H   0  0  0  0  0  0
  -20.9406  -29.8901   21.6976 H   0  0  0  0  0  0
  -26.0202  -38.2871   24.1411 H   0  0  0  0  0  0
  -28.1259  -19.0652   24.2821 H   0  0  0  0  0  0
  -28.0105  -21.1629   23.0946 H   0  0  0  0  0  0
  -30.1906  -19.4250   19.7917 H   0  0  0  0  0  0
  -28.6880  -16.8737   24.5273 H   0  0  0  0  0  0
  -30.3219  -16.5939   23.9351 H   0  0  0  0  0  0
  -28.9115  -15.8456   23.1538 H   0  0  0  0  0  0
  -28.2022  -24.0759   19.0462 H   0  0  0  0  0  0
  -29.7461  -24.1601   19.8557 H   0  0  0  0  0  0
  -28.8372  -25.4803   21.7059 H   0  0  0  0  0  0
  -27.2052  -25.2747   21.1594 H   0  0  0  0  0  0
  -29.8372  -21.8403   19.9316 H   0  0  0  0  0  0
  -29.2004  -15.5030   21.4180 H   0  0  0  0  0  0
  1 25  1  0  0  0
  1 30  2  0  0  0
  1 83  1  0  0  0
  2  3  1  0  0  0
  2 25  1  0  0  0
  2 86  1  0  0  0
  2 87  1  0  0  0
  3  4  1  0  0  0
  3 88  1  0  0  0
  3 89  1  0  0  0
  4  5  1  0  0  0
  4 90  1  0  0  0
  4 91  1  0  0  0
  5  6  1  0  0  0
  5 26  1  0  0  0
  5 92  1  0  0  0
  6 25  1  0  0  0
  6 93  1  0  0  0
  6 94  1  0  0  0
  7  8  2  0  0  0
  7 26  1  0  0  0
  7 29  1  0  0  0
  8  9  1  0  0  0
  8 22  1  0  0  0
  9 10  1  0  0  0
  9 27  2  0  0  0
 10 11  2  0  0  0
 10 15  1  0  0  0
 11 12  1  0  0  0
 11 95  1  0  0  0
 12 13  2  0  0  0
 12 96  1  0  0  0
 13 14  1  0  0  0
 13 31  1  0  0  0
 14 15  2  0  0  0
 14 97  1  0  0  0
 15 98  1  0  0  0
 16 17  2  0  0  0
 16 21  1  0  0  0
 16 31  1  0  0  0
 17 18  1  0  0  0
 17 99  1  0  0  0
 18 19  2  0  0  0
 18100  1  0  0  0
 19 20  1  0  0  0
 19 24  1  0  0  0
 20 21  2  0  0  0
 20101  1  0  0  0
 21 23  1  0  0  0
 22 28  1  0  0  0
 22 32  2  0  0  0
 26 27  1  0  0  0
 28102  1  0  0  0
 28103  1  0  0  0
 29104  1  0  0  0
 29105  1  0  0  0
 33 34  1  0  0  0
 33 66  1  0  0  0
 33 70  2  0  0  0
 34 36  1  0  0  0
 34 59  1  0  0  0
 34106  1  0  0  0
 35 44  2  0  0  0
 35 45  1  0  0  0
 35 68  1  0  0  0
 36 56  1  0  0  0
 36107  1  0  0  0
 37 39  1  0  0  0
 37 47  1  0  0  0
 37 66  1  0  0  0
 37108  1  0  0  0
 38 43  2  0  0  0
 38 46  1  0  0  0
 38 47  1  0  0  0
 39 64  1  0  0  0
 39 67  2  0  0  0
 40 52  1  0  0  0
 40 53  2  0  0  0
 40 58  1  0  0  0
 41109  1  0  0  0
 41110  1  0  0  0
 41111  1  0  0  0
 41 48  1  0  0  0
 42 43  1  0  0  0
 42 66  1  0  0  0
 42112  1  0  0  0
 42113  1  0  0  0
 43 44  1  0  0  0
 44114  1  0  0  0
 45 46  2  0  0  0
 45115  1  0  0  0
 46116  1  0  0  0
 47117  1  0  0  0
 47118  1  0  0  0
 48 56  1  0  0  0
 48 65  1  0  0  0
 48119  1  0  0  0
 49 50  1  0  0  0
 49 53  1  0  0  0
 49 64  1  0  0  0
 49120  1  0  0  0
 50 51  1  0  0  0
 50121  1  0  0  0
 50122  1  0  0  0
 51 52  1  0  0  0
 51123  1  0  0  0
 51124  1  0  0  0
 52125  1  0  0  0
 52126  1  0  0  0
 53 54  1  0  0  0
 54 55  2  0  0  0
 54127  1  0  0  0
 55 57  1  0  0  0
 55128  1  0  0  0
 56 69  2  0  0  0
 57 58  2  0  0  0
 57129  1  0  0  0
 58130  1  0  0  0
 59 60  1  0  0  0
 59 61  1  0  0  0
 59 62  1  0  0  0
 60131  1  0  0  0
 60132  1  0  0  0
 60133  1  0  0  0
 61134  1  0  0  0
 61135  1  0  0  0
 61136  1  0  0  0
 62137  1  0  0  0
 62138  1  0  0  0
 62139  1  0  0  0
 63 65  1  0  0  0
 63140  1  0  0  0
 63141  1  0  0  0
 63142  1  0  0  0
 64143  1  0  0  0
 65144  1  0  0  0
 68 81  1  0  0  0
 71 72  2  0  0  0
 71 75  1  0  0  0
 71145  1  0  0  0
 72 76  1  0  0  0
 72146  1  0  0  0
 73 74  1  0  0  0
 73 76  2  0  0  0
 73147  1  0  0  0
 74 75  2  0  0  0
 74 77  1  0  0  0
 75 79  1  0  0  0
 76 82  1  0  0  0
 77 83  1  0  0  0
 77 84  2  0  0  0
 78 80  1  0  0  0
 78 82  1  0  0  0
 78 85  2  0  0  0
 79148  1  0  0  0
 79149  1  0  0  0
 79150  1  0  0  0
 80 81  1  0  0  0
 80151  1  0  0  0
 80152  1  0  0  0
 81153  1  0  0  0
 81154  1  0  0  0
 82155  1  0  0  0
 83156  1  0  0  0
M  ISO  4   1 100  68 101  81 101  83 100
M  END
> <chiral flag>
0

> <version>
0

> <s_m_source_file>
/data/baiqing/PycharmProjects/Reinvent-master-3.2/result/LINK_invent/BTK/process_docking_weight1_custom_product_contain_oxygen_bond_distance_aromatic_linkinvent_7_9_3/rearranged_h_0062.sdf

> <i_m_source_file_index>
55

> <r_mmod_Potential_Energy-OPLS-2005>
-103.192474365234

> <r_mmod_Stretch_Energy-OPLS-2005>
47.0823211669922

> <r_mmod_Bend_Energy-OPLS-2005>
111.122032165527

> <r_mmod_Torsional_Energy-OPLS-2005>
248.500778198242

> <r_mmod_Improper_Torsional_Energy-OPLS-2005>
4.56255102157593

> <r_mmod_Van_der_Waal_Energy-OPLS-2005>
174.913482666016

> <r_mmod_Electrostatic_Energy-OPLS-2005>
-469.566436767578

> <r_mmod_Solvation_Energy-OPLS-2005>
-240.539978027344

> <b_mmod_Minimization_Converged-OPLS-2005>
0

> <r_mmod_RMS_Derivative-OPLS-2005>
6.27608728408813

$$$$
55
                    3D
 Structure written by MMmdl.
163171  0  0  1  0            999 V2000
  -30.5739  -14.8647   20.3660 C   0  0  0  0  0  0
  -30.4498  -12.5089   19.5052 C   0  0  0  0  0  0
  -29.5360  -12.4612   18.2580 C   0  0  0  0  0  0
  -28.0527  -12.3110   18.6572 C   0  0  0  0  0  0
  -27.6348  -13.2390   19.8284 C   0  0  2  0  0  0
  -28.6822  -13.2355   20.9648 C   0  0  0  0  0  0
  -25.2467  -13.8176   20.5586 C   0  0  0  0  0  0
  -24.1793  -13.0430   20.9167 C   0  0  0  0  0  0
  -24.6389  -11.6908   20.8698 C   0  0  0  0  0  0
  -23.9093  -10.4281   21.0375 C   0  0  0  0  0  0
  -24.3643   -9.4196   21.9138 C   0  0  0  0  0  0
  -23.6289   -8.2252   22.0760 C   0  0  0  0  0  0
  -22.4285   -8.0284   21.3550 C   0  0  0  0  0  0
  -21.9917   -9.0264   20.4664 C   0  0  0  0  0  0
  -22.7280  -10.2128   20.3027 C   0  0  0  0  0  0
  -21.6838   -6.0715   22.5273 C   0  0  0  0  0  0
  -21.4040   -6.5624   23.8210 C   0  0  0  0  0  0
  -21.3642   -5.6772   24.9158 C   0  0  0  0  0  0
  -21.6072   -4.3046   24.7202 C   0  0  0  0  0  0
  -21.8810   -3.8134   23.4317 C   0  0  0  0  0  0
  -21.9198   -4.6953   22.3401 C   0  0  0  0  0  0
  -22.7806  -13.5184   21.1822 C   0  0  0  0  0  0
  -22.1623   -4.2137   21.0965 F   0  0  0  0  0  0
  -21.5639   -3.4523   25.7733 F   0  0  0  0  0  0
  -29.9694  -13.6169   20.3726 N   0  0  0  0  0  0
  -26.2907  -12.9410   20.3149 N   0  0  0  0  0  0
  -25.9324  -11.6557   20.5705 N   0  0  0  0  0  0
  -22.0426  -12.8237   22.0391 N   0  0  0  0  0  0
  -25.4168  -15.1899   20.3931 N   0  0  0  0  0  0
  -31.7766  -14.9319   20.1082 O   0  0  0  0  0  0
  -21.6622   -6.8881   21.4254 O   0  0  0  0  0  0
  -22.3511  -14.5489   20.6627 O   0  0  0  0  0  0
  -24.6273  -31.8546   23.1881 C   0  0  0  0  0  0
  -25.9113  -32.4750   23.8271 C   0  0  1  0  0  0
  -27.3033  -27.3001   20.1265 C   0  0  0  0  0  0
  -25.5889  -33.8555   24.2181 N   0  0  0  0  0  0
  -23.4260  -30.4670   21.5301 C   0  0  2  0  0  0
  -24.8911  -28.9004   20.1070 C   0  0  0  0  0  0
  -22.7490  -29.4613   22.4921 C   0  0  0  0  0  0
  -18.0280  -28.1390   22.8459 C   0  0  0  0  0  0
  -24.1475  -36.7307   23.2628 C   0  0  0  0  0  0
  -25.9676  -30.7719   21.3631 C   0  0  0  0  0  0
  -26.0529  -29.3934   20.7131 C   0  0  0  0  0  0
  -27.2475  -28.6088   20.7047 C   0  0  0  0  0  0
  -26.1148  -26.8562   19.4949 C   0  0  0  0  0  0
  -24.9281  -27.6363   19.4860 C   0  0  0  0  0  0
  -23.6441  -29.7742   20.1556 C   0  0  0  0  0  0
  -25.4106  -36.3081   24.0304 C   0  0  1  0  0  0
  -20.5876  -28.3709   23.1258 C   0  0  2  0  0  0
  -20.6774  -26.9439   22.5404 C   0  0  0  0  0  0
  -19.5766  -26.6368   21.5207 C   0  0  0  0  0  0
  -18.1938  -26.7933   22.1606 C   0  0  0  0  0  0
  -19.1530  -28.8860   23.2842 C   0  0  0  0  0  0
  -18.9472  -30.1457   23.8848 C   0  0  0  0  0  0
  -17.6471  -30.6583   24.0561 C   0  0  0  0  0  0
  -25.9066  -34.9453   23.5055 C   0  0  0  0  0  0
  -16.5360  -29.9072   23.6331 C   0  0  0  0  0  0
  -16.7279  -28.6504   23.0341 C   0  0  0  0  0  0
  -26.4462  -31.6583   25.0681 C   0  0  0  0  0  0
  -25.3675  -31.3774   26.1395 C   0  0  0  0  0  0
  -27.0275  -30.2980   24.6167 C   0  0  0  0  0  0
  -27.5984  -32.4348   25.7478 C   0  0  0  0  0  0
  -27.5594  -37.1810   24.8461 C   0  0  0  0  0  0
  -21.4197  -29.3047   22.3649 N   0  0  0  0  0  0
  -26.4305  -37.3781   23.9404 N   0  0  0  0  0  0
  -24.6921  -31.0499   22.0820 N   0  0  0  0  0  0
  -23.4198  -28.8204   23.3054 O   0  0  0  0  0  0
  -28.4866  -26.5179   20.2092 O   0  0  0  0  0  0
  -26.5676  -34.8943   22.4654 O   0  0  0  0  0  0
  -23.5432  -32.1359   23.7198 O   0  0  0  0  0  0
  -30.0954  -18.5814   17.6148 C   0  0  0  0  0  0
  -29.7459  -18.7393   20.3417 C   0  0  0  0  0  0
  -29.9971  -19.8669   18.1892 C   0  0  0  0  0  0
  -30.0176  -17.3824   18.3443 C   0  0  0  0  0  0
  -29.8143  -20.0279   19.6009 C   0  0  0  0  0  0
  -29.9016  -17.3847   19.7570 C   0  0  0  0  0  0
  -30.1023  -22.6938   19.9580 C   0  0  0  0  0  0
  -30.0539  -21.0004   17.1650 C   0  0  0  0  0  0
  -29.9821  -16.1034   17.5245 C   0  0  0  0  0  0
  -30.9695  -24.9671   20.9398 C   0  0  0  0  0  0
  -29.1473  -23.8078   22.1391 C   0  0  0  0  0  0
  -28.5865  -25.0477   19.9124 C   0  0  0  0  0  0
  -29.6660  -24.0951   20.7040 C   0  0  0  0  0  0
  -29.5969  -21.4036   20.2272 N   0  0  0  0  0  0
  -29.7908  -16.0389   20.4612 N   0  0  0  0  0  0
  -31.0227  -22.8107   19.1454 O   0  0  0  0  0  0
  -31.4889  -12.6449   19.2049 H   0  0  0  0  0  0
  -30.4233  -11.5609   20.0412 H   0  0  0  0  0  0
  -29.8371  -11.6312   17.6169 H   0  0  0  0  0  0
  -29.6796  -13.3538   17.6535 H   0  0  0  0  0  0
  -27.9153  -11.2714   18.9527 H   0  0  0  0  0  0
  -27.4040  -12.4594   17.7885 H   0  0  0  0  0  0
  -27.6074  -14.2464   19.4129 H   0  0  0  0  0  0
  -28.7426  -12.2522   21.4321 H   0  0  0  0  0  0
  -28.4022  -13.9378   21.7481 H   0  0  0  0  0  0
  -25.2759   -9.5656   22.4734 H   0  0  0  0  0  0
  -23.9994   -7.4648   22.7475 H   0  0  0  0  0  0
  -21.0842   -8.8772   19.8979 H   0  0  0  0  0  0
  -22.3689  -10.9666   19.6149 H   0  0  0  0  0  0
  -21.2026   -7.6143   23.9725 H   0  0  0  0  0  0
  -21.1472   -6.0487   25.9091 H   0  0  0  0  0  0
  -22.0615   -2.7615   23.2799 H   0  0  0  0  0  0
  -22.3984  -11.9903   22.4840 H   0  0  0  0  0  0
  -21.1072  -13.1371   22.2578 H   0  0  0  0  0  0
  -24.6544  -15.8486   20.4886 H   0  0  0  0  0  0
  -26.2590  -15.6170   20.0275 H   0  0  0  0  0  0
  -26.7207  -32.5416   23.1050 H   0  0  0  0  0  0
  -25.0023  -33.9686   25.0309 H   0  0  0  0  0  0
  -22.7224  -31.2870   21.3734 H   0  0  0  0  0  0
  -23.3748  -35.9644   23.3279 H   0  0  0  0  0  0
  -24.3578  -36.8956   22.2060 H   0  0  0  0  0  0
  -23.7235  -37.6488   23.6683 H   0  0  0  0  0  0
  -26.1014  -31.5307   20.5899 H   0  0  0  0  0  0
  -26.8435  -30.8274   21.9975 H   0  0  0  0  0  0
  -28.1356  -29.0000   21.1765 H   0  0  0  0  0  0
  -26.0854  -25.8959   19.0024 H   0  0  0  0  0  0
  -24.0432  -27.2516   18.9904 H   0  0  0  0  0  0
  -23.7416  -30.5341   19.3819 H   0  0  0  0  0  0
  -22.7689  -29.1863   19.8743 H   0  0  0  0  0  0
  -25.1301  -36.1915   25.0810 H   0  0  0  0  0  0
  -20.9973  -28.3297   24.1375 H   0  0  0  0  0  0
  -20.5629  -26.2363   23.3622 H   0  0  0  0  0  0
  -21.6653  -26.7447   22.1232 H   0  0  0  0  0  0
  -19.6940  -25.6248   21.1276 H   0  0  0  0  0  0
  -19.6696  -27.3133   20.6695 H   0  0  0  0  0  0
  -17.4223  -26.6656   21.3996 H   0  0  0  0  0  0
  -18.0352  -26.0057   22.8990 H   0  0  0  0  0  0
  -19.7969  -30.7280   24.2184 H   0  0  0  0  0  0
  -17.5051  -31.6278   24.5178 H   0  0  0  0  0  0
  -15.5364  -30.2992   23.7658 H   0  0  0  0  0  0
  -15.8693  -28.0832   22.7053 H   0  0  0  0  0  0
  -24.5811  -30.7161   25.7730 H   0  0  0  0  0  0
  -24.8912  -32.2964   26.4814 H   0  0  0  0  0  0
  -25.7969  -30.8944   27.0176 H   0  0  0  0  0  0
  -26.2832  -29.6760   24.1161 H   0  0  0  0  0  0
  -27.3885  -29.7219   25.4694 H   0  0  0  0  0  0
  -27.8758  -30.4203   23.9431 H   0  0  0  0  0  0
  -27.2522  -33.3621   26.2053 H   0  0  0  0  0  0
  -28.3798  -32.6954   25.0336 H   0  0  0  0  0  0
  -28.0644  -31.8491   26.5401 H   0  0  0  0  0  0
  -28.2592  -38.0121   24.7527 H   0  0  0  0  0  0
  -28.1095  -36.2655   24.6243 H   0  0  0  0  0  0
  -27.2339  -37.1438   25.8869 H   0  0  0  0  0  0
  -20.9400  -29.8771   21.6842 H   0  0  0  0  0  0
  -26.0166  -38.2861   24.1367 H   0  0  0  0  0  0
  -30.2188  -18.5038   16.5428 H   0  0  0  0  0  0
  -29.5497  -18.7839   21.4024 H   0  0  0  0  0  0
  -29.7655  -20.6557   16.1686 H   0  0  0  0  0  0
  -31.0754  -21.3695   17.0729 H   0  0  0  0  0  0
  -29.3913  -21.8305   17.4025 H   0  0  0  0  0  0
  -29.6956  -16.2801   16.4865 H   0  0  0  0  0  0
  -29.2187  -15.4369   17.9225 H   0  0  0  0  0  0
  -30.9563  -15.6134   17.5247 H   0  0  0  0  0  0
  -31.6563  -24.5060   21.6608 H   0  0  0  0  0  0
  -30.7627  -25.9605   21.3589 H   0  0  0  0  0  0
  -31.5531  -25.1637   20.0361 H   0  0  0  0  0  0
  -29.7404  -23.0496   22.6558 H   0  0  0  0  0  0
  -28.1105  -23.4772   22.1450 H   0  0  0  0  0  0
  -29.2048  -24.6952   22.7766 H   0  0  0  0  0  0
  -27.6063  -24.6074   20.0746 H   0  0  0  0  0  0
  -28.7789  -24.9466   18.8424 H   0  0  0  0  0  0
  -28.9040  -21.4234   20.9612 H   0  0  0  0  0  0
  -28.8716  -15.8611   20.8284 H   0  0  0  0  0  0
  1 25  1  0  0  0
  1 30  2  0  0  0
  1 85  1  0  0  0
  2  3  1  0  0  0
  2 25  1  0  0  0
  2 87  1  0  0  0
  2 88  1  0  0  0
  3  4  1  0  0  0
  3 89  1  0  0  0
  3 90  1  0  0  0
  4  5  1  0  0  0
  4 91  1  0  0  0
  4 92  1  0  0  0
  5  6  1  0  0  0
  5 26  1  0  0  0
  5 93  1  0  0  0
  6 25  1  0  0  0
  6 94  1  0  0  0
  6 95  1  0  0  0
  7  8  2  0  0  0
  7 26  1  0  0  0
  7 29  1  0  0  0
  8  9  1  0  0  0
  8 22  1  0  0  0
  9 10  1  0  0  0
  9 27  2  0  0  0
 10 11  2  0  0  0
 10 15  1  0  0  0
 11 12  1  0  0  0
 11 96  1  0  0  0
 12 13  2  0  0  0
 12 97  1  0  0  0
 13 14  1  0  0  0
 13 31  1  0  0  0
 14 15  2  0  0  0
 14 98  1  0  0  0
 15 99  1  0  0  0
 16 17  2  0  0  0
 16 21  1  0  0  0
 16 31  1  0  0  0
 17 18  1  0  0  0
 17100  1  0  0  0
 18 19  2  0  0  0
 18101  1  0  0  0
 19 20  1  0  0  0
 19 24  1  0  0  0
 20 21  2  0  0  0
 20102  1  0  0  0
 21 23  1  0  0  0
 22 28  1  0  0  0
 22 32  2  0  0  0
 26 27  1  0  0  0
 28103  1  0  0  0
 28104  1  0  0  0
 29105  1  0  0  0
 29106  1  0  0  0
 33 34  1  0  0  0
 33 66  1  0  0  0
 33 70  2  0  0  0
 34 36  1  0  0  0
 34 59  1  0  0  0
 34107  1  0  0  0
 35 44  2  0  0  0
 35 45  1  0  0  0
 35 68  1  0  0  0
 36 56  1  0  0  0
 36108  1  0  0  0
 37 39  1  0  0  0
 37 47  1  0  0  0
 37 66  1  0  0  0
 37109  1  0  0  0
 38 43  2  0  0  0
 38 46  1  0  0  0
 38 47  1  0  0  0
 39 64  1  0  0  0
 39 67  2  0  0  0
 40 52  1  0  0  0
 40 53  2  0  0  0
 40 58  1  0  0  0
 41110  1  0  0  0
 41111  1  0  0  0
 41112  1  0  0  0
 41 48  1  0  0  0
 42 43  1  0  0  0
 42 66  1  0  0  0
 42113  1  0  0  0
 42114  1  0  0  0
 43 44  1  0  0  0
 44115  1  0  0  0
 45 46  2  0  0  0
 45116  1  0  0  0
 46117  1  0  0  0
 47118  1  0  0  0
 47119  1  0  0  0
 48 56  1  0  0  0
 48 65  1  0  0  0
 48120  1  0  0  0
 49 50  1  0  0  0
 49 53  1  0  0  0
 49 64  1  0  0  0
 49121  1  0  0  0
 50 51  1  0  0  0
 50122  1  0  0  0
 50123  1  0  0  0
 51 52  1  0  0  0
 51124  1  0  0  0
 51125  1  0  0  0
 52126  1  0  0  0
 52127  1  0  0  0
 53 54  1  0  0  0
 54 55  2  0  0  0
 54128  1  0  0  0
 55 57  1  0  0  0
 55129  1  0  0  0
 56 69  2  0  0  0
 57 58  2  0  0  0
 57130  1  0  0  0
 58131  1  0  0  0
 59 60  1  0  0  0
 59 61  1  0  0  0
 59 62  1  0  0  0
 60132  1  0  0  0
 60133  1  0  0  0
 60134  1  0  0  0
 61135  1  0  0  0
 61136  1  0  0  0
 61137  1  0  0  0
 62138  1  0  0  0
 62139  1  0  0  0
 62140  1  0  0  0
 63 65  1  0  0  0
 63141  1  0  0  0
 63142  1  0  0  0
 63143  1  0  0  0
 64144  1  0  0  0
 65145  1  0  0  0
 68 82  1  0  0  0
 71 73  2  0  0  0
 71 74  1  0  0  0
 71146  1  0  0  0
 72 75  2  0  0  0
 72 76  1  0  0  0
 72147  1  0  0  0
 73 75  1  0  0  0
 73 78  1  0  0  0
 74 76  2  0  0  0
 74 79  1  0  0  0
 75 84  1  0  0  0
 76 85  1  0  0  0
 77 83  1  0  0  0
 77 84  1  0  0  0
 77 86  2  0  0  0
 78148  1  0  0  0
 78149  1  0  0  0
 78150  1  0  0  0
 79151  1  0  0  0
 79152  1  0  0  0
 79153  1  0  0  0
 80154  1  0  0  0
 80155  1  0  0  0
 80156  1  0  0  0
 80 83  1  0  0  0
 81 83  1  0  0  0
 81157  1  0  0  0
 81158  1  0  0  0
 81159  1  0  0  0
 82 83  1  0  0  0
 82160  1  0  0  0
 82161  1  0  0  0
 84162  1  0  0  0
 85163  1  0  0  0
M  ISO  4   1 100  68 101  82 101  85 100
M  END
> <chiral flag>
0

> <version>
0

> <s_m_source_file>
/data/baiqing/PycharmProjects/Reinvent-master-3.2/result/LINK_invent/BTK/process_docking_weight1_custom_product_contain_oxygen_bond_distance_aromatic_linkinvent_7_9_3/rearranged_h_0062.sdf

> <i_m_source_file_index>
56

> <r_mmod_Potential_Energy-OPLS-2005>
310.73046875

> <r_mmod_Stretch_Energy-OPLS-2005>
200.206802368164

> <r_mmod_Bend_Energy-OPLS-2005>
215.729110717773

> <r_mmod_Torsional_Energy-OPLS-2005>
282.965637207031

> <r_mmod_Improper_Torsional_Energy-OPLS-2005>
6.92095518112183

> <r_mmod_Van_der_Waal_Energy-OPLS-2005>
145.729263305664

> <r_mmod_Electrostatic_Energy-OPLS-2005>
-423.336822509766

> <r_mmod_Solvation_Energy-OPLS-2005>
-229.398208618164

> <b_mmod_Minimization_Converged-OPLS-2005>
0

> <r_mmod_RMS_Derivative-OPLS-2005>
10.1443395614624

$$$$
56
                    3D
 Structure written by MMmdl.
168177  0  0  1  0            999 V2000
  -30.6049  -14.7421   20.4583 C   0  0  0  0  0  0
  -30.4259  -12.4442   19.4937 C   0  0  0  0  0  0
  -29.5171  -12.5264   18.2453 C   0  0  0  0  0  0
  -28.0378  -12.3581   18.6394 C   0  0  0  0  0  0
  -27.6440  -13.2382   19.8561 C   0  0  2  0  0  0
  -28.6806  -13.1587   20.9986 C   0  0  0  0  0  0
  -25.2529  -13.8218   20.5705 C   0  0  0  0  0  0
  -24.1834  -13.0462   20.9200 C   0  0  0  0  0  0
  -24.6422  -11.6932   20.8750 C   0  0  0  0  0  0
  -23.9102  -10.4313   21.0434 C   0  0  0  0  0  0
  -24.3656   -9.4221   21.9216 C   0  0  0  0  0  0
  -23.6314   -8.2263   22.0763 C   0  0  0  0  0  0
  -22.4300   -8.0292   21.3550 C   0  0  0  0  0  0
  -21.9954   -9.0282   20.4662 C   0  0  0  0  0  0
  -22.7275  -10.2163   20.3074 C   0  0  0  0  0  0
  -21.6865   -6.0740   22.5276 C   0  0  0  0  0  0
  -21.4006   -6.5653   23.8208 C   0  0  0  0  0  0
  -21.3657   -5.6803   24.9180 C   0  0  0  0  0  0
  -21.6042   -4.3059   24.7240 C   0  0  0  0  0  0
  -21.8815   -3.8151   23.4353 C   0  0  0  0  0  0
  -21.9193   -4.6969   22.3403 C   0  0  0  0  0  0
  -22.7854  -13.5231   21.1874 C   0  0  0  0  0  0
  -22.1667   -4.2166   21.0978 F   0  0  0  0  0  0
  -21.5626   -3.4521   25.7741 F   0  0  0  0  0  0
  -29.9946  -13.5042   20.4389 N   0  0  0  0  0  0
  -26.2947  -12.9425   20.3271 N   0  0  0  0  0  0
  -25.9348  -11.6567   20.5735 N   0  0  0  0  0  0
  -22.0495  -12.8223   22.0414 N   0  0  0  0  0  0
  -25.4296  -15.1957   20.4181 N   0  0  0  0  0  0
  -31.7575  -14.8627   20.0338 O   0  0  0  0  0  0
  -21.6649   -6.8898   21.4244 O   0  0  0  0  0  0
  -22.3548  -14.5554   20.6729 O   0  0  0  0  0  0
  -24.6317  -31.8577   23.2010 C   0  0  0  0  0  0
  -25.9148  -32.4763   23.8358 C   0  0  1  0  0  0
  -27.2070  -27.2592   20.1250 C   0  0  0  0  0  0
  -25.5954  -33.8571   24.2288 N   0  0  0  0  0  0
  -23.4284  -30.4826   21.5434 C   0  0  2  0  0  0
  -24.8740  -28.9354   20.1091 C   0  0  0  0  0  0
  -22.7511  -29.4620   22.4900 C   0  0  0  0  0  0
  -18.0305  -28.1372   22.8478 C   0  0  0  0  0  0
  -24.1489  -36.7293   23.2629 C   0  0  0  0  0  0
  -25.9762  -30.7669   21.3855 C   0  0  0  0  0  0
  -26.0465  -29.3904   20.7265 C   0  0  0  0  0  0
  -27.2174  -28.5630   20.7286 C   0  0  0  0  0  0
  -26.0240  -26.9000   19.4407 C   0  0  0  0  0  0
  -24.8680  -27.6979   19.4543 C   0  0  0  0  0  0
  -23.6467  -29.8231   20.1579 C   0  0  0  0  0  0
  -25.4110  -36.3083   24.0328 C   0  0  1  0  0  0
  -20.5911  -28.3697   23.1249 C   0  0  2  0  0  0
  -20.6794  -26.9411   22.5391 C   0  0  0  0  0  0
  -19.5765  -26.6370   21.5203 C   0  0  0  0  0  0
  -18.1949  -26.7912   22.1622 C   0  0  0  0  0  0
  -19.1556  -28.8851   23.2861 C   0  0  0  0  0  0
  -18.9477  -30.1450   23.8885 C   0  0  0  0  0  0
  -17.6474  -30.6567   24.0564 C   0  0  0  0  0  0
  -25.9059  -34.9449   23.5112 C   0  0  0  0  0  0
  -16.5370  -29.9061   23.6319 C   0  0  0  0  0  0
  -16.7292  -28.6477   23.0344 C   0  0  0  0  0  0
  -26.4503  -31.6569   25.0735 C   0  0  0  0  0  0
  -25.3724  -31.3714   26.1448 C   0  0  0  0  0  0
  -27.0346  -30.2985   24.6221 C   0  0  0  0  0  0
  -27.6077  -32.4279   25.7497 C   0  0  0  0  0  0
  -27.5591  -37.1782   24.8442 C   0  0  0  0  0  0
  -21.4221  -29.3052   22.3642 N   0  0  0  0  0  0
  -26.4277  -37.3787   23.9421 N   0  0  0  0  0  0
  -24.6975  -31.0538   22.0994 N   0  0  0  0  0  0
  -23.4216  -28.8155   23.2996 O   0  0  0  0  0  0
  -28.2741  -26.3294   20.1745 O   0  0  0  0  0  0
  -26.5624  -34.8916   22.4673 O   0  0  0  0  0  0
  -23.5466  -32.1404   23.7304 O   0  0  0  0  0  0
  -28.7372  -19.4219   18.6402 C   0  0  0  0  0  0
  -29.1382  -17.0065   18.8250 C   0  0  0  0  0  0
  -29.6649  -18.4879   20.6889 C   0  0  0  0  0  0
  -28.6970  -18.1244   18.0880 C   0  0  0  0  0  0
  -29.2230  -19.6707   19.9469 C   0  0  0  0  0  0
  -29.6279  -17.1306   20.1432 C   0  0  0  0  0  0
  -30.2618  -21.7439   20.9934 C   0  0  0  0  0  0
  -28.2241  -22.1597   20.0426 C   0  0  0  0  0  0
  -28.8741  -23.6094   20.1178 C   0  0  2  0  0  0
  -30.1110  -23.3006   21.0114 C   0  0  1  0  0  0
  -28.1457  -17.9323   16.6848 C   0  0  0  0  0  0
  -29.8994  -23.7561   22.4712 C   0  0  0  0  0  0
  -32.6728  -24.3496   18.4897 C   0  0  0  0  0  0
  -27.9275  -24.8858   20.4558 C   0  0  0  0  0  0
  -31.3835  -23.9861   20.4542 C   0  0  0  0  0  0
  -29.2384  -21.1013   20.3897 N   0  0  0  0  0  0
  -29.8833  -15.8567   20.8660 N   0  0  0  0  0  0
  -31.2336  -21.1822   21.5119 O   0  0  0  0  0  0
  -31.5871  -23.6553   19.0831 O   0  0  0  0  0  0
  -31.4731  -12.5461   19.2049 H   0  0  0  0  0  0
  -30.3431  -11.4627   19.9644 H   0  0  0  0  0  0
  -29.7964  -11.7649   17.5165 H   0  0  0  0  0  0
  -29.6612  -13.4875   17.7498 H   0  0  0  0  0  0
  -27.8712  -11.3039   18.8651 H   0  0  0  0  0  0
  -27.3984  -12.5913   17.7866 H   0  0  0  0  0  0
  -27.6426  -14.2665   19.4946 H   0  0  0  0  0  0
  -28.6985  -12.1562   21.4285 H   0  0  0  0  0  0
  -28.4046  -13.8345   21.8096 H   0  0  0  0  0  0
  -25.2814   -9.5681   22.4791 H   0  0  0  0  0  0
  -24.0000   -7.4652   22.7488 H   0  0  0  0  0  0
  -21.0875   -8.8817   19.8981 H   0  0  0  0  0  0
  -22.3743  -10.9709   19.6178 H   0  0  0  0  0  0
  -21.1976   -7.6162   23.9721 H   0  0  0  0  0  0
  -21.1498   -6.0541   25.9086 H   0  0  0  0  0  0
  -22.0602   -2.7611   23.2864 H   0  0  0  0  0  0
  -22.4043  -11.9836   22.4783 H   0  0  0  0  0  0
  -21.1129  -13.1293   22.2633 H   0  0  0  0  0  0
  -24.6822  -15.8630   20.5706 H   0  0  0  0  0  0
  -26.2909  -15.6285   20.1071 H   0  0  0  0  0  0
  -26.7223  -32.5415   23.1109 H   0  0  0  0  0  0
  -25.0116  -33.9714   25.0446 H   0  0  0  0  0  0
  -22.7244  -31.3048   21.3983 H   0  0  0  0  0  0
  -23.3769  -35.9603   23.3235 H   0  0  0  0  0  0
  -24.3601  -36.8967   22.2057 H   0  0  0  0  0  0
  -23.7208  -37.6463   23.6681 H   0  0  0  0  0  0
  -26.1215  -31.5286   20.6184 H   0  0  0  0  0  0
  -26.8532  -30.8127   22.0195 H   0  0  0  0  0  0
  -28.1101  -28.9008   21.2355 H   0  0  0  0  0  0
  -25.9634  -25.9861   18.8713 H   0  0  0  0  0  0
  -23.9797  -27.3559   18.9411 H   0  0  0  0  0  0
  -23.7747  -30.6009   19.4043 H   0  0  0  0  0  0
  -22.7651  -29.2574   19.8495 H   0  0  0  0  0  0
  -25.1274  -36.1938   25.0817 H   0  0  0  0  0  0
  -21.0012  -28.3280   24.1367 H   0  0  0  0  0  0
  -20.5690  -26.2316   23.3605 H   0  0  0  0  0  0
  -21.6663  -26.7423   22.1193 H   0  0  0  0  0  0
  -19.6926  -25.6281   21.1226 H   0  0  0  0  0  0
  -19.6681  -27.3180   20.6734 H   0  0  0  0  0  0
  -17.4222  -26.6665   21.4029 H   0  0  0  0  0  0
  -18.0344  -26.0044   22.9001 H   0  0  0  0  0  0
  -19.7955  -30.7268   24.2243 H   0  0  0  0  0  0
  -17.5025  -31.6242   24.5170 H   0  0  0  0  0  0
  -15.5369  -30.2965   23.7623 H   0  0  0  0  0  0
  -15.8698  -28.0786   22.7061 H   0  0  0  0  0  0
  -24.5923  -30.7034   25.7767 H   0  0  0  0  0  0
  -24.8892  -32.2880   26.4844 H   0  0  0  0  0  0
  -25.8042  -30.8910   27.0239 H   0  0  0  0  0  0
  -26.2932  -29.6721   24.1248 H   0  0  0  0  0  0
  -27.4026  -29.7248   25.4737 H   0  0  0  0  0  0
  -27.8814  -30.4251   23.9474 H   0  0  0  0  0  0
  -27.2728  -33.3595   26.2068 H   0  0  0  0  0  0
  -28.3899  -32.6796   25.0321 H   0  0  0  0  0  0
  -28.0731  -31.8394   26.5413 H   0  0  0  0  0  0
  -28.2541  -38.0147   24.7600 H   0  0  0  0  0  0
  -28.1154  -36.2690   24.6119 H   0  0  0  0  0  0
  -27.2329  -37.1248   25.8842 H   0  0  0  0  0  0
  -20.9405  -29.8799   21.6870 H   0  0  0  0  0  0
  -26.0158  -38.2848   24.1467 H   0  0  0  0  0  0
  -28.4046  -20.2380   18.0171 H   0  0  0  0  0  0
  -29.0533  -16.0252   18.3793 H   0  0  0  0  0  0
  -30.0184  -18.6271   21.7018 H   0  0  0  0  0  0
  -27.7693  -22.0066   19.0654 H   0  0  0  0  0  0
  -27.4186  -22.0833   20.7744 H   0  0  0  0  0  0
  -29.2142  -23.7991   19.0997 H   0  0  0  0  0  0
  -28.6429  -18.5956   15.9765 H   0  0  0  0  0  0
  -27.0785  -18.1543   16.6608 H   0  0  0  0  0  0
  -28.2790  -16.9079   16.3355 H   0  0  0  0  0  0
  -29.0159  -23.2948   22.9141 H   0  0  0  0  0  0
  -29.7735  -24.8378   22.5365 H   0  0  0  0  0  0
  -30.7537  -23.4998   23.0981 H   0  0  0  0  0  0
  -32.7340  -24.0842   17.4337 H   0  0  0  0  0  0
  -33.6193  -24.0817   18.9602 H   0  0  0  0  0  0
  -32.5408  -25.4310   18.5507 H   0  0  0  0  0  0
  -27.6436  -24.8418   21.5073 H   0  0  0  0  0  0
  -27.0049  -24.6229   19.9496 H   0  0  0  0  0  0
  -32.2607  -23.7005   21.0385 H   0  0  0  0  0  0
  -31.2781  -25.0677   20.5540 H   0  0  0  0  0  0
  -29.1363  -15.6072   21.4975 H   0  0  0  0  0  0
  1 25  1  0  0  0
  1 30  2  0  0  0
  1 87  1  0  0  0
  2  3  1  0  0  0
  2 25  1  0  0  0
  2 90  1  0  0  0
  2 91  1  0  0  0
  3  4  1  0  0  0
  3 92  1  0  0  0
  3 93  1  0  0  0
  4  5  1  0  0  0
  4 94  1  0  0  0
  4 95  1  0  0  0
  5  6  1  0  0  0
  5 26  1  0  0  0
  5 96  1  0  0  0
  6 25  1  0  0  0
  6 97  1  0  0  0
  6 98  1  0  0  0
  7  8  2  0  0  0
  7 26  1  0  0  0
  7 29  1  0  0  0
  8  9  1  0  0  0
  8 22  1  0  0  0
  9 10  1  0  0  0
  9 27  2  0  0  0
 10 11  2  0  0  0
 10 15  1  0  0  0
 11 12  1  0  0  0
 11 99  1  0  0  0
 12 13  2  0  0  0
 12100  1  0  0  0
 13 14  1  0  0  0
 13 31  1  0  0  0
 14 15  2  0  0  0
 14101  1  0  0  0
 15102  1  0  0  0
 16 17  2  0  0  0
 16 21  1  0  0  0
 16 31  1  0  0  0
 17 18  1  0  0  0
 17103  1  0  0  0
 18 19  2  0  0  0
 18104  1  0  0  0
 19 20  1  0  0  0
 19 24  1  0  0  0
 20 21  2  0  0  0
 20105  1  0  0  0
 21 23  1  0  0  0
 22 28  1  0  0  0
 22 32  2  0  0  0
 26 27  1  0  0  0
 28106  1  0  0  0
 28107  1  0  0  0
 29108  1  0  0  0
 29109  1  0  0  0
 33 34  1  0  0  0
 33 66  1  0  0  0
 33 70  2  0  0  0
 34 36  1  0  0  0
 34 59  1  0  0  0
 34110  1  0  0  0
 35 44  2  0  0  0
 35 45  1  0  0  0
 35 68  1  0  0  0
 36 56  1  0  0  0
 36111  1  0  0  0
 37 39  1  0  0  0
 37 47  1  0  0  0
 37 66  1  0  0  0
 37112  1  0  0  0
 38 43  2  0  0  0
 38 46  1  0  0  0
 38 47  1  0  0  0
 39 64  1  0  0  0
 39 67  2  0  0  0
 40 52  1  0  0  0
 40 53  2  0  0  0
 40 58  1  0  0  0
 41113  1  0  0  0
 41114  1  0  0  0
 41115  1  0  0  0
 41 48  1  0  0  0
 42 43  1  0  0  0
 42 66  1  0  0  0
 42116  1  0  0  0
 42117  1  0  0  0
 43 44  1  0  0  0
 44118  1  0  0  0
 45 46  2  0  0  0
 45119  1  0  0  0
 46120  1  0  0  0
 47121  1  0  0  0
 47122  1  0  0  0
 48 56  1  0  0  0
 48 65  1  0  0  0
 48123  1  0  0  0
 49 50  1  0  0  0
 49 53  1  0  0  0
 49 64  1  0  0  0
 49124  1  0  0  0
 50 51  1  0  0  0
 50125  1  0  0  0
 50126  1  0  0  0
 51 52  1  0  0  0
 51127  1  0  0  0
 51128  1  0  0  0
 52129  1  0  0  0
 52130  1  0  0  0
 53 54  1  0  0  0
 54 55  2  0  0  0
 54131  1  0  0  0
 55 57  1  0  0  0
 55132  1  0  0  0
 56 69  2  0  0  0
 57 58  2  0  0  0
 57133  1  0  0  0
 58134  1  0  0  0
 59 60  1  0  0  0
 59 61  1  0  0  0
 59 62  1  0  0  0
 60135  1  0  0  0
 60136  1  0  0  0
 60137  1  0  0  0
 61138  1  0  0  0
 61139  1  0  0  0
 61140  1  0  0  0
 62141  1  0  0  0
 62142  1  0  0  0
 62143  1  0  0  0
 63 65  1  0  0  0
 63144  1  0  0  0
 63145  1  0  0  0
 63146  1  0  0  0
 64147  1  0  0  0
 65148  1  0  0  0
 68 84  1  0  0  0
 71 74  2  0  0  0
 71 75  1  0  0  0
 71149  1  0  0  0
 72 74  1  0  0  0
 72 76  2  0  0  0
 72150  1  0  0  0
 73 75  2  0  0  0
 73 76  1  0  0  0
 73151  1  0  0  0
 74 81  1  0  0  0
 75 86  1  0  0  0
 76 87  1  0  0  0
 77 80  1  0  0  0
 77 86  1  0  0  0
 77 88  2  0  0  0
 78 79  1  0  0  0
 78 86  1  0  0  0
 78152  1  0  0  0
 78153  1  0  0  0
 79 80  1  0  0  0
 79 84  1  0  0  0
 79154  1  0  0  0
 80 82  1  0  0  0
 80 85  1  0  0  0
 81155  1  0  0  0
 81156  1  0  0  0
 81157  1  0  0  0
 82158  1  0  0  0
 82159  1  0  0  0
 82160  1  0  0  0
 83 89  1  0  0  0
 83161  1  0  0  0
 83162  1  0  0  0
 83163  1  0  0  0
 84164  1  0  0  0
 84165  1  0  0  0
 85 89  1  0  0  0
 85166  1  0  0  0
 85167  1  0  0  0
 87168  1  0  0  0
M  ISO  4   1 100  68 101  84 101  87 100
M  END
> <chiral flag>
0

> <version>
0

> <s_m_source_file>
/data/baiqing/PycharmProjects/Reinvent-master-3.2/result/LINK_invent/BTK/process_docking_weight1_custom_product_contain_oxygen_bond_distance_aromatic_linkinvent_7_9_3/rearranged_h_0062.sdf

> <i_m_source_file_index>
57

> <r_mmod_Potential_Energy-OPLS-2005>
342.266876220703

> <r_mmod_Stretch_Energy-OPLS-2005>
128.810485839844

> <r_mmod_Bend_Energy-OPLS-2005>
198.764801025391

> <r_mmod_Torsional_Energy-OPLS-2005>
334.760772705078

> <r_mmod_Improper_Torsional_Energy-OPLS-2005>
5.58131647109985

> <r_mmod_Van_der_Waal_Energy-OPLS-2005>
136.758270263672

> <r_mmod_Electrostatic_Energy-OPLS-2005>
-321.697235107422

> <r_mmod_Solvation_Energy-OPLS-2005>
-228.610549926758

> <b_mmod_Minimization_Converged-OPLS-2005>
0

> <r_mmod_RMS_Derivative-OPLS-2005>
2.90040516853333

$$$$
57
                    3D
 Structure written by MMmdl.
159168  0  0  1  0            999 V2000
  -30.5737  -14.7978   20.4408 C   0  0  0  0  0  0
  -30.4424  -12.4853   19.4700 C   0  0  0  0  0  0
  -29.5139  -12.5064   18.2354 C   0  0  0  0  0  0
  -28.0420  -12.3163   18.6538 C   0  0  0  0  0  0
  -27.6375  -13.2287   19.8419 C   0  0  2  0  0  0
  -28.6853  -13.1818   20.9748 C   0  0  0  0  0  0
  -25.2489  -13.8155   20.5681 C   0  0  0  0  0  0
  -24.1788  -13.0422   20.9215 C   0  0  0  0  0  0
  -24.6382  -11.6895   20.8754 C   0  0  0  0  0  0
  -23.9051  -10.4278   21.0415 C   0  0  0  0  0  0
  -24.3607   -9.4193   21.9193 C   0  0  0  0  0  0
  -23.6287   -8.2232   22.0754 C   0  0  0  0  0  0
  -22.4270   -8.0270   21.3548 C   0  0  0  0  0  0
  -21.9900   -9.0238   20.4646 C   0  0  0  0  0  0
  -22.7223  -10.2119   20.3058 C   0  0  0  0  0  0
  -21.6850   -6.0724   22.5279 C   0  0  0  0  0  0
  -21.4010   -6.5633   23.8210 C   0  0  0  0  0  0
  -21.3660   -5.6788   24.9177 C   0  0  0  0  0  0
  -21.6044   -4.3051   24.7231 C   0  0  0  0  0  0
  -21.8816   -3.8138   23.4352 C   0  0  0  0  0  0
  -21.9187   -4.6953   22.3401 C   0  0  0  0  0  0
  -22.7806  -13.5197   21.1883 C   0  0  0  0  0  0
  -22.1652   -4.2139   21.0979 F   0  0  0  0  0  0
  -21.5631   -3.4530   25.7743 F   0  0  0  0  0  0
  -29.9781  -13.5537   20.3848 N   0  0  0  0  0  0
  -26.2915  -12.9373   20.3241 N   0  0  0  0  0  0
  -25.9315  -11.6520   20.5739 N   0  0  0  0  0  0
  -22.0443  -12.8203   22.0437 N   0  0  0  0  0  0
  -25.4128  -15.1868   20.4055 N   0  0  0  0  0  0
  -31.7774  -14.9047   20.1843 O   0  0  0  0  0  0
  -21.6631   -6.8876   21.4248 O   0  0  0  0  0  0
  -22.3498  -14.5510   20.6720 O   0  0  0  0  0  0
  -24.6349  -31.8517   23.1957 C   0  0  0  0  0  0
  -25.9160  -32.4734   23.8310 C   0  0  1  0  0  0
  -27.2216  -27.2330   20.1339 C   0  0  0  0  0  0
  -25.5937  -33.8536   24.2230 N   0  0  0  0  0  0
  -23.4335  -30.4739   21.5373 C   0  0  2  0  0  0
  -24.8864  -28.9171   20.1093 C   0  0  0  0  0  0
  -22.7515  -29.4582   22.4871 C   0  0  0  0  0  0
  -18.0298  -28.1384   22.8491 C   0  0  0  0  0  0
  -24.1492  -36.7273   23.2639 C   0  0  0  0  0  0
  -25.9832  -30.7576   21.3799 C   0  0  0  0  0  0
  -26.0605  -29.3768   20.7215 C   0  0  0  0  0  0
  -27.2360  -28.5499   20.7191 C   0  0  0  0  0  0
  -26.0303  -26.8529   19.4845 C   0  0  0  0  0  0
  -24.8782  -27.6639   19.4774 C   0  0  0  0  0  0
  -23.6570  -29.8073   20.1542 C   0  0  0  0  0  0
  -25.4120  -36.3047   24.0317 C   0  0  1  0  0  0
  -20.5903  -28.3699   23.1250 C   0  0  2  0  0  0
  -20.6795  -26.9409   22.5404 C   0  0  0  0  0  0
  -19.5768  -26.6380   21.5213 C   0  0  0  0  0  0
  -18.1947  -26.7926   22.1630 C   0  0  0  0  0  0
  -19.1553  -28.8856   23.2874 C   0  0  0  0  0  0
  -18.9473  -30.1457   23.8891 C   0  0  0  0  0  0
  -17.6469  -30.6582   24.0557 C   0  0  0  0  0  0
  -25.9064  -34.9423   23.5076 C   0  0  0  0  0  0
  -16.5362  -29.9077   23.6327 C   0  0  0  0  0  0
  -16.7287  -28.6497   23.0350 C   0  0  0  0  0  0
  -26.4521  -31.6570   25.0708 C   0  0  0  0  0  0
  -25.3741  -31.3735   26.1420 C   0  0  0  0  0  0
  -27.0370  -30.2976   24.6232 C   0  0  0  0  0  0
  -27.6059  -32.4317   25.7497 C   0  0  0  0  0  0
  -27.5572  -37.1794   24.8465 C   0  0  0  0  0  0
  -21.4215  -29.3059   22.3640 N   0  0  0  0  0  0
  -26.4284  -37.3756   23.9406 N   0  0  0  0  0  0
  -24.7029  -31.0451   22.0943 N   0  0  0  0  0  0
  -23.4202  -28.8107   23.2963 O   0  0  0  0  0  0
  -28.2729  -26.2775   20.1556 O   0  0  0  0  0  0
  -26.5635  -34.8905   22.4645 O   0  0  0  0  0  0
  -23.5492  -32.1346   23.7244 O   0  0  0  0  0  0
  -31.2494  -19.3199   21.4237 C   0  0  0  0  0  0
  -30.2251  -20.2517   21.1243 C   0  0  0  0  0  0
  -31.0992  -17.9279   21.2128 C   0  0  0  0  0  0
  -28.9466  -18.3930   20.1994 C   0  0  0  0  0  0
  -29.0072  -19.8421   20.5413 C   0  0  0  0  0  0
  -29.9375  -17.3981   20.6131 C   0  0  0  0  0  0
  -27.7112  -22.3362   20.4859 C   0  0  0  0  0  0
  -26.6203  -20.3437   20.6953 C   0  0  0  0  0  0
  -28.5126  -23.4819   20.4765 C   0  0  0  0  0  0
  -26.2136  -22.5924   20.6184 C   0  0  0  0  0  0
  -25.5203  -21.2967   20.3263 C   0  0  0  0  0  0
  -27.8447  -17.8390   19.2994 C   0  0  0  0  0  0
  -27.9933  -24.9761   20.8787 C   0  0  0  0  0  0
  -27.8620  -20.8398   20.4463 N   0  0  0  0  0  0
  -29.7325  -15.9118   20.5116 N   0  0  0  0  0  0
  -26.3331  -19.2922   21.2763 O   0  0  0  0  0  0
  -31.4802  -12.6264   19.1647 H   0  0  0  0  0  0
  -30.4030  -11.5138   19.9655 H   0  0  0  0  0  0
  -29.8052  -11.7265   17.5309 H   0  0  0  0  0  0
  -29.6265  -13.4552   17.7082 H   0  0  0  0  0  0
  -27.9172  -11.2710   18.9397 H   0  0  0  0  0  0
  -27.3778  -12.4791   17.8040 H   0  0  0  0  0  0
  -27.6219  -14.2429   19.4429 H   0  0  0  0  0  0
  -28.7392  -12.1848   21.4152 H   0  0  0  0  0  0
  -28.4154  -13.8620   21.7852 H   0  0  0  0  0  0
  -25.2752   -9.5668   22.4772 H   0  0  0  0  0  0
  -23.9986   -7.4618   22.7471 H   0  0  0  0  0  0
  -21.0830   -8.8759   19.8951 H   0  0  0  0  0  0
  -22.3686  -10.9662   19.6163 H   0  0  0  0  0  0
  -21.2002   -7.6142   23.9718 H   0  0  0  0  0  0
  -21.1489   -6.0516   25.9082 H   0  0  0  0  0  0
  -22.0599   -2.7601   23.2850 H   0  0  0  0  0  0
  -22.4044  -11.9857   22.4827 H   0  0  0  0  0  0
  -21.1067  -13.1251   22.2638 H   0  0  0  0  0  0
  -24.6443  -15.8367   20.5253 H   0  0  0  0  0  0
  -26.2462  -15.6262   20.0459 H   0  0  0  0  0  0
  -26.7219  -32.5384   23.1044 H   0  0  0  0  0  0
  -25.0080  -33.9673   25.0372 H   0  0  0  0  0  0
  -22.7320  -31.2979   21.3883 H   0  0  0  0  0  0
  -23.3748  -35.9611   23.3305 H   0  0  0  0  0  0
  -24.3576  -36.8901   22.2052 H   0  0  0  0  0  0
  -23.7258  -37.6479   23.6672 H   0  0  0  0  0  0
  -26.1249  -31.5213   20.6130 H   0  0  0  0  0  0
  -26.8572  -30.8068   22.0172 H   0  0  0  0  0  0
  -28.1336  -28.9005   21.2110 H   0  0  0  0  0  0
  -25.9827  -25.8896   18.9955 H   0  0  0  0  0  0
  -23.9818  -27.3078   18.9877 H   0  0  0  0  0  0
  -23.7822  -30.5845   19.3986 H   0  0  0  0  0  0
  -22.7751  -29.2417   19.8480 H   0  0  0  0  0  0
  -25.1308  -36.1881   25.0808 H   0  0  0  0  0  0
  -21.0021  -28.3294   24.1360 H   0  0  0  0  0  0
  -20.5682  -26.2318   23.3624 H   0  0  0  0  0  0
  -21.6661  -26.7430   22.1194 H   0  0  0  0  0  0
  -19.6922  -25.6292   21.1241 H   0  0  0  0  0  0
  -19.6696  -27.3196   20.6743 H   0  0  0  0  0  0
  -17.4220  -26.6671   21.4032 H   0  0  0  0  0  0
  -18.0351  -26.0063   22.9023 H   0  0  0  0  0  0
  -19.7946  -30.7278   24.2260 H   0  0  0  0  0  0
  -17.5019  -31.6258   24.5166 H   0  0  0  0  0  0
  -15.5363  -30.2973   23.7654 H   0  0  0  0  0  0
  -15.8692  -28.0811   22.7061 H   0  0  0  0  0  0
  -24.5921  -30.7078   25.7749 H   0  0  0  0  0  0
  -24.8934  -32.2913   26.4814 H   0  0  0  0  0  0
  -25.8052  -30.8932   27.0214 H   0  0  0  0  0  0
  -26.2969  -29.6715   24.1237 H   0  0  0  0  0  0
  -27.4006  -29.7246   25.4771 H   0  0  0  0  0  0
  -27.8866  -30.4217   23.9514 H   0  0  0  0  0  0
  -27.2651  -33.3619   26.2055 H   0  0  0  0  0  0
  -28.3897  -32.6876   25.0354 H   0  0  0  0  0  0
  -28.0704  -31.8457   26.5442 H   0  0  0  0  0  0
  -28.2588  -38.0089   24.7491 H   0  0  0  0  0  0
  -28.1062  -36.2616   24.6312 H   0  0  0  0  0  0
  -27.2281  -37.1467   25.8865 H   0  0  0  0  0  0
  -20.9392  -29.8803   21.6870 H   0  0  0  0  0  0
  -26.0154  -38.2824   24.1404 H   0  0  0  0  0  0
  -32.1611  -19.6773   21.8812 H   0  0  0  0  0  0
  -30.3689  -21.2881   21.3929 H   0  0  0  0  0  0
  -31.8936  -17.2680   21.5297 H   0  0  0  0  0  0
  -29.5834  -23.3746   20.3864 H   0  0  0  0  0  0
  -25.8690  -23.3560   19.9202 H   0  0  0  0  0  0
  -25.9851  -22.9236   21.6340 H   0  0  0  0  0  0
  -24.6130  -21.1556   20.9154 H   0  0  0  0  0  0
  -25.2824  -21.1962   19.2666 H   0  0  0  0  0  0
  -27.4452  -18.6038   18.6346 H   0  0  0  0  0  0
  -27.0334  -17.4042   19.8792 H   0  0  0  0  0  0
  -28.2321  -17.0506   18.6547 H   0  0  0  0  0  0
  -28.4172  -25.1399   21.8703 H   0  0  0  0  0  0
  -26.9262  -24.9438   21.0825 H   0  0  0  0  0  0
  -28.7636  -15.6371   20.5153 H   0  0  0  0  0  0
  1 25  1  0  0  0
  1 30  2  0  0  0
  1 85  1  0  0  0
  2  3  1  0  0  0
  2 25  1  0  0  0
  2 87  1  0  0  0
  2 88  1  0  0  0
  3  4  1  0  0  0
  3 89  1  0  0  0
  3 90  1  0  0  0
  4  5  1  0  0  0
  4 91  1  0  0  0
  4 92  1  0  0  0
  5  6  1  0  0  0
  5 26  1  0  0  0
  5 93  1  0  0  0
  6 25  1  0  0  0
  6 94  1  0  0  0
  6 95  1  0  0  0
  7  8  2  0  0  0
  7 26  1  0  0  0
  7 29  1  0  0  0
  8  9  1  0  0  0
  8 22  1  0  0  0
  9 10  1  0  0  0
  9 27  2  0  0  0
 10 11  2  0  0  0
 10 15  1  0  0  0
 11 12  1  0  0  0
 11 96  1  0  0  0
 12 13  2  0  0  0
 12 97  1  0  0  0
 13 14  1  0  0  0
 13 31  1  0  0  0
 14 15  2  0  0  0
 14 98  1  0  0  0
 15 99  1  0  0  0
 16 17  2  0  0  0
 16 21  1  0  0  0
 16 31  1  0  0  0
 17 18  1  0  0  0
 17100  1  0  0  0
 18 19  2  0  0  0
 18101  1  0  0  0
 19 20  1  0  0  0
 19 24  1  0  0  0
 20 21  2  0  0  0
 20102  1  0  0  0
 21 23  1  0  0  0
 22 28  1  0  0  0
 22 32  2  0  0  0
 26 27  1  0  0  0
 28103  1  0  0  0
 28104  1  0  0  0
 29105  1  0  0  0
 29106  1  0  0  0
 33 34  1  0  0  0
 33 66  1  0  0  0
 33 70  2  0  0  0
 34 36  1  0  0  0
 34 59  1  0  0  0
 34107  1  0  0  0
 35 44  2  0  0  0
 35 45  1  0  0  0
 35 68  1  0  0  0
 36 56  1  0  0  0
 36108  1  0  0  0
 37 39  1  0  0  0
 37 47  1  0  0  0
 37 66  1  0  0  0
 37109  1  0  0  0
 38 43  2  0  0  0
 38 46  1  0  0  0
 38 47  1  0  0  0
 39 64  1  0  0  0
 39 67  2  0  0  0
 40 52  1  0  0  0
 40 53  2  0  0  0
 40 58  1  0  0  0
 41110  1  0  0  0
 41111  1  0  0  0
 41112  1  0  0  0
 41 48  1  0  0  0
 42 43  1  0  0  0
 42 66  1  0  0  0
 42113  1  0  0  0
 42114  1  0  0  0
 43 44  1  0  0  0
 44115  1  0  0  0
 45 46  2  0  0  0
 45116  1  0  0  0
 46117  1  0  0  0
 47118  1  0  0  0
 47119  1  0  0  0
 48 56  1  0  0  0
 48 65  1  0  0  0
 48120  1  0  0  0
 49 50  1  0  0  0
 49 53  1  0  0  0
 49 64  1  0  0  0
 49121  1  0  0  0
 50 51  1  0  0  0
 50122  1  0  0  0
 50123  1  0  0  0
 51 52  1  0  0  0
 51124  1  0  0  0
 51125  1  0  0  0
 52126  1  0  0  0
 52127  1  0  0  0
 53 54  1  0  0  0
 54 55  2  0  0  0
 54128  1  0  0  0
 55 57  1  0  0  0
 55129  1  0  0  0
 56 69  2  0  0  0
 57 58  2  0  0  0
 57130  1  0  0  0
 58131  1  0  0  0
 59 60  1  0  0  0
 59 61  1  0  0  0
 59 62  1  0  0  0
 60132  1  0  0  0
 60133  1  0  0  0
 60134  1  0  0  0
 61135  1  0  0  0
 61136  1  0  0  0
 61137  1  0  0  0
 62138  1  0  0  0
 62139  1  0  0  0
 62140  1  0  0  0
 63 65  1  0  0  0
 63141  1  0  0  0
 63142  1  0  0  0
 63143  1  0  0  0
 64144  1  0  0  0
 65145  1  0  0  0
 68 83  1  0  0  0
 71 72  2  0  0  0
 71 73  1  0  0  0
 71146  1  0  0  0
 72 75  1  0  0  0
 72147  1  0  0  0
 73 76  2  0  0  0
 73148  1  0  0  0
 74 75  2  0  0  0
 74 76  1  0  0  0
 74 82  1  0  0  0
 75 84  1  0  0  0
 76 85  1  0  0  0
 77 79  2  0  0  0
 77 80  1  0  0  0
 77 84  1  0  0  0
 78 81  1  0  0  0
 78 84  1  0  0  0
 78 86  2  0  0  0
 79 83  1  0  0  0
 79149  1  0  0  0
 80 81  1  0  0  0
 80150  1  0  0  0
 80151  1  0  0  0
 81152  1  0  0  0
 81153  1  0  0  0
 82154  1  0  0  0
 82155  1  0  0  0
 82156  1  0  0  0
 83157  1  0  0  0
 83158  1  0  0  0
 85159  1  0  0  0
M  ISO  4   1 100  68 101  83 101  85 100
M  END
> <chiral flag>
0

> <version>
0

> <s_m_source_file>
/data/baiqing/PycharmProjects/Reinvent-master-3.2/result/LINK_invent/BTK/process_docking_weight1_custom_product_contain_oxygen_bond_distance_aromatic_linkinvent_7_9_3/rearranged_h_0062.sdf

> <i_m_source_file_index>
58

> <r_mmod_Potential_Energy-OPLS-2005>
484.484313964844

> <r_mmod_Stretch_Energy-OPLS-2005>
186.201110839844

> <r_mmod_Bend_Energy-OPLS-2005>
277.84375

> <r_mmod_Torsional_Energy-OPLS-2005>
287.081939697266

> <r_mmod_Improper_Torsional_Energy-OPLS-2005>
9.37473773956299

> <r_mmod_Van_der_Waal_Energy-OPLS-2005>
147.132537841797

> <r_mmod_Electrostatic_Energy-OPLS-2005>
-323.333923339844

> <r_mmod_Solvation_Energy-OPLS-2005>
-211.921127319336

> <b_mmod_Minimization_Converged-OPLS-2005>
0

> <r_mmod_RMS_Derivative-OPLS-2005>
2.37204098701477

$$$$
58
                    3D
 Structure written by MMmdl.
153161  0  0  1  0            999 V2000
  -30.6498  -14.5208   20.4463 C   0  0  0  0  0  0
  -30.4145  -12.2897   19.4561 C   0  0  0  0  0  0
  -29.5112  -12.4695   18.2163 C   0  0  0  0  0  0
  -28.0171  -12.3848   18.5995 C   0  0  0  0  0  0
  -27.6497  -13.2214   19.8561 C   0  0  2  0  0  0
  -28.6901  -13.0389   20.9830 C   0  0  0  0  0  0
  -25.2522  -13.8179   20.5687 C   0  0  0  0  0  0
  -24.1809  -13.0437   20.9205 C   0  0  0  0  0  0
  -24.6405  -11.6921   20.8722 C   0  0  0  0  0  0
  -23.9072  -10.4286   21.0420 C   0  0  0  0  0  0
  -24.3625   -9.4201   21.9184 C   0  0  0  0  0  0
  -23.6292   -8.2246   22.0781 C   0  0  0  0  0  0
  -22.4286   -8.0283   21.3573 C   0  0  0  0  0  0
  -21.9884   -9.0275   20.4695 C   0  0  0  0  0  0
  -22.7237  -10.2144   20.3089 C   0  0  0  0  0  0
  -21.6873   -6.0731   22.5275 C   0  0  0  0  0  0
  -21.4007   -6.5619   23.8215 C   0  0  0  0  0  0
  -21.3690   -5.6796   24.9169 C   0  0  0  0  0  0
  -21.6056   -4.3044   24.7229 C   0  0  0  0  0  0
  -21.8812   -3.8137   23.4344 C   0  0  0  0  0  0
  -21.9161   -4.6956   22.3391 C   0  0  0  0  0  0
  -22.7802  -13.5232   21.1789 C   0  0  0  0  0  0
  -22.1650   -4.2124   21.0975 F   0  0  0  0  0  0
  -21.5630   -3.4523   25.7748 F   0  0  0  0  0  0
  -30.0200  -13.3176   20.4250 N   0  0  0  0  0  0
  -26.2936  -12.9373   20.3250 N   0  0  0  0  0  0
  -25.9323  -11.6506   20.5733 N   0  0  0  0  0  0
  -22.0468  -12.8324   22.0422 N   0  0  0  0  0  0
  -25.4133  -15.1925   20.4144 N   0  0  0  0  0  0
  -31.8369  -14.6466   20.1325 O   0  0  0  0  0  0
  -21.6661   -6.8895   21.4252 O   0  0  0  0  0  0
  -22.3476  -14.5527   20.6606 O   0  0  0  0  0  0
  -24.6174  -31.8636   23.2020 C   0  0  0  0  0  0
  -25.9044  -32.4799   23.8376 C   0  0  1  0  0  0
  -27.2525  -27.4136   20.1057 C   0  0  0  0  0  0
  -25.5861  -33.8597   24.2304 N   0  0  0  0  0  0
  -23.4105  -30.4830   21.5436 C   0  0  2  0  0  0
  -24.8609  -28.9299   20.1321 C   0  0  0  0  0  0
  -22.7432  -29.4658   22.4973 C   0  0  0  0  0  0
  -18.0269  -28.1445   22.8494 C   0  0  0  0  0  0
  -24.1467  -36.7319   23.2647 C   0  0  0  0  0  0
  -25.9402  -30.8222   21.3578 C   0  0  0  0  0  0
  -26.0238  -29.4506   20.7153 C   0  0  0  0  0  0
  -27.2233  -28.7031   20.6906 C   0  0  0  0  0  0
  -26.0681  -26.8961   19.5391 C   0  0  0  0  0  0
  -24.8812  -27.6517   19.5415 C   0  0  0  0  0  0
  -23.6268  -29.8013   20.1659 C   0  0  0  0  0  0
  -25.4086  -36.3100   24.0351 C   0  0  1  0  0  0
  -20.5867  -28.3715   23.1318 C   0  0  2  0  0  0
  -20.6773  -26.9444   22.5438 C   0  0  0  0  0  0
  -19.5746  -26.6413   21.5248 C   0  0  0  0  0  0
  -18.1921  -26.7971   22.1629 C   0  0  0  0  0  0
  -19.1527  -28.8890   23.2899 C   0  0  0  0  0  0
  -18.9452  -30.1491   23.8912 C   0  0  0  0  0  0
  -17.6447  -30.6629   24.0605 C   0  0  0  0  0  0
  -25.9026  -34.9456   23.5131 C   0  0  0  0  0  0
  -16.5355  -29.9138   23.6352 C   0  0  0  0  0  0
  -16.7259  -28.6566   23.0345 C   0  0  0  0  0  0
  -26.4491  -31.6590   25.0707 C   0  0  0  0  0  0
  -25.3792  -31.3671   26.1466 C   0  0  0  0  0  0
  -27.0358  -30.3043   24.6102 C   0  0  0  0  0  0
  -27.6058  -32.4337   25.7424 C   0  0  0  0  0  0
  -27.5590  -37.1805   24.8465 C   0  0  0  0  0  0
  -21.4150  -29.3055   22.3701 N   0  0  0  0  0  0
  -26.4280  -37.3777   23.9419 N   0  0  0  0  0  0
  -24.6752  -31.0718   22.0927 N   0  0  0  0  0  0
  -23.4190  -28.8218   23.3054 O   0  0  0  0  0  0
  -28.4284  -26.6934   20.0253 O   0  0  0  0  0  0
  -26.5635  -34.8904   22.4703 O   0  0  0  0  0  0
  -23.5363  -32.1370   23.7394 O   0  0  0  0  0  0
  -31.0521  -18.6558   18.7767 C   0  0  0  0  0  0
  -30.2263  -19.6473   19.3232 C   0  0  0  0  0  0
  -30.9499  -17.3243   19.2025 C   0  0  0  0  0  0
  -29.1138  -17.9485   20.6661 C   0  0  0  0  0  0
  -29.2484  -19.3302   20.3006 C   0  0  0  0  0  0
  -29.9809  -16.9421   20.1605 C   0  0  0  0  0  0
  -28.5436  -20.4626   21.0065 C   0  0  0  0  0  0
  -28.8424  -22.9021   20.8771 C   0  0  0  0  0  0
  -28.7157  -24.1511   19.9679 C   0  0  0  0  0  0
  -28.5086  -25.4688   20.7872 C   0  0  0  0  0  0
  -29.8319  -15.5843   20.6220 N   0  0  0  0  0  0
  -28.5813  -21.6713   20.3471 N   0  0  0  0  0  0
  -29.2428  -23.0719   22.0376 O   0  0  0  0  0  0
  -27.7979  -20.1918   22.4923 S   0  0  0  0  0  0
  -31.4696  -12.3432   19.1829 H   0  0  0  0  0  0
  -30.2729  -11.2995   19.8919 H   0  0  0  0  0  0
  -29.7404  -11.7079   17.4702 H   0  0  0  0  0  0
  -29.7180  -13.4297   17.7428 H   0  0  0  0  0  0
  -27.7791  -11.3365   18.7689 H   0  0  0  0  0  0
  -27.4044  -12.6989   17.7544 H   0  0  0  0  0  0
  -27.6713  -14.2660   19.5459 H   0  0  0  0  0  0
  -28.6634  -12.0206   21.3681 H   0  0  0  0  0  0
  -28.4695  -13.6855   21.8330 H   0  0  0  0  0  0
  -25.2811   -9.5620   22.4713 H   0  0  0  0  0  0
  -23.9994   -7.4624   22.7486 H   0  0  0  0  0  0
  -21.0804   -8.8817   19.9028 H   0  0  0  0  0  0
  -22.3733  -10.9667   19.6172 H   0  0  0  0  0  0
  -21.2044   -7.6146   23.9703 H   0  0  0  0  0  0
  -21.1520   -6.0532   25.9084 H   0  0  0  0  0  0
  -22.0566   -2.7586   23.2840 H   0  0  0  0  0  0
  -22.4095  -12.0077   22.4964 H   0  0  0  0  0  0
  -21.1079  -13.1358   22.2605 H   0  0  0  0  0  0
  -24.6371  -15.8318   20.5466 H   0  0  0  0  0  0
  -26.2464  -15.6475   20.0629 H   0  0  0  0  0  0
  -26.7094  -32.5534   23.1129 H   0  0  0  0  0  0
  -24.9942  -33.9719   25.0419 H   0  0  0  0  0  0
  -22.6989  -31.2990   21.3973 H   0  0  0  0  0  0
  -23.3717  -35.9675   23.3308 H   0  0  0  0  0  0
  -24.3553  -36.8929   22.2067 H   0  0  0  0  0  0
  -23.7236  -37.6519   23.6663 H   0  0  0  0  0  0
  -26.0536  -31.5808   20.5846 H   0  0  0  0  0  0
  -26.8255  -30.8824   21.9767 H   0  0  0  0  0  0
  -28.1309  -29.1070   21.1173 H   0  0  0  0  0  0
  -26.0740  -25.9160   19.0827 H   0  0  0  0  0  0
  -23.9843  -27.2438   19.0957 H   0  0  0  0  0  0
  -23.7434  -30.5680   19.3993 H   0  0  0  0  0  0
  -22.7482  -29.2227   19.8756 H   0  0  0  0  0  0
  -25.1261  -36.1942   25.0859 H   0  0  0  0  0  0
  -20.9992  -28.3327   24.1423 H   0  0  0  0  0  0
  -20.5696  -26.2340   23.3639 H   0  0  0  0  0  0
  -21.6653  -26.7513   22.1235 H   0  0  0  0  0  0
  -19.6904  -25.6312   21.1286 H   0  0  0  0  0  0
  -19.6692  -27.3234   20.6781 H   0  0  0  0  0  0
  -17.4209  -26.6749   21.4004 H   0  0  0  0  0  0
  -18.0286  -26.0124   22.9019 H   0  0  0  0  0  0
  -19.7928  -30.7326   24.2273 H   0  0  0  0  0  0
  -17.5006  -31.6288   24.5251 H   0  0  0  0  0  0
  -15.5341  -30.3052   23.7654 H   0  0  0  0  0  0
  -15.8665  -28.0903   22.7023 H   0  0  0  0  0  0
  -24.5891  -30.7123   25.7772 H   0  0  0  0  0  0
  -24.9098  -32.2828   26.5049 H   0  0  0  0  0  0
  -25.8157  -30.8687   27.0127 H   0  0  0  0  0  0
  -26.2942  -29.6696   24.1250 H   0  0  0  0  0  0
  -27.4219  -29.7327   25.4540 H   0  0  0  0  0  0
  -27.8686  -30.4326   23.9198 H   0  0  0  0  0  0
  -27.2702  -33.3582   26.2092 H   0  0  0  0  0  0
  -28.3798  -32.7006   25.0241 H   0  0  0  0  0  0
  -28.0842  -31.8457   26.5233 H   0  0  0  0  0  0
  -28.2611  -38.0104   24.7541 H   0  0  0  0  0  0
  -28.1084  -36.2647   24.6247 H   0  0  0  0  0  0
  -27.2338  -37.1427   25.8875 H   0  0  0  0  0  0
  -20.9318  -29.8733   21.6889 H   0  0  0  0  0  0
  -26.0158  -38.2836   24.1434 H   0  0  0  0  0  0
  -31.8081  -18.9422   18.0611 H   0  0  0  0  0  0
  -30.3906  -20.6616   19.0030 H   0  0  0  0  0  0
  -31.6372  -16.6135   18.7693 H   0  0  0  0  0  0
  -28.3668  -17.6604   21.3959 H   0  0  0  0  0  0
  -27.9079  -24.0265   19.2416 H   0  0  0  0  0  0
  -29.6397  -24.2414   19.3915 H   0  0  0  0  0  0
  -29.3730  -25.6058   21.4421 H   0  0  0  0  0  0
  -27.6558  -25.3614   21.4563 H   0  0  0  0  0  0
  -28.9207  -15.3473   20.9764 H   0  0  0  0  0  0
  -28.6488  -21.6124   19.3345 H   0  0  0  0  0  0
  1 25  1  0  0  0
  1 30  2  0  0  0
  1 81  1  0  0  0
  2  3  1  0  0  0
  2 25  1  0  0  0
  2 85  1  0  0  0
  2 86  1  0  0  0
  3  4  1  0  0  0
  3 87  1  0  0  0
  3 88  1  0  0  0
  4  5  1  0  0  0
  4 89  1  0  0  0
  4 90  1  0  0  0
  5  6  1  0  0  0
  5 26  1  0  0  0
  5 91  1  0  0  0
  6 25  1  0  0  0
  6 92  1  0  0  0
  6 93  1  0  0  0
  7  8  2  0  0  0
  7 26  1  0  0  0
  7 29  1  0  0  0
  8  9  1  0  0  0
  8 22  1  0  0  0
  9 10  1  0  0  0
  9 27  2  0  0  0
 10 11  2  0  0  0
 10 15  1  0  0  0
 11 12  1  0  0  0
 11 94  1  0  0  0
 12 13  2  0  0  0
 12 95  1  0  0  0
 13 14  1  0  0  0
 13 31  1  0  0  0
 14 15  2  0  0  0
 14 96  1  0  0  0
 15 97  1  0  0  0
 16 17  2  0  0  0
 16 21  1  0  0  0
 16 31  1  0  0  0
 17 18  1  0  0  0
 17 98  1  0  0  0
 18 19  2  0  0  0
 18 99  1  0  0  0
 19 20  1  0  0  0
 19 24  1  0  0  0
 20 21  2  0  0  0
 20100  1  0  0  0
 21 23  1  0  0  0
 22 28  1  0  0  0
 22 32  2  0  0  0
 26 27  1  0  0  0
 28101  1  0  0  0
 28102  1  0  0  0
 29103  1  0  0  0
 29104  1  0  0  0
 33 34  1  0  0  0
 33 66  1  0  0  0
 33 70  2  0  0  0
 34 36  1  0  0  0
 34 59  1  0  0  0
 34105  1  0  0  0
 35 44  2  0  0  0
 35 45  1  0  0  0
 35 68  1  0  0  0
 36 56  1  0  0  0
 36106  1  0  0  0
 37 39  1  0  0  0
 37 47  1  0  0  0
 37 66  1  0  0  0
 37107  1  0  0  0
 38 43  2  0  0  0
 38 46  1  0  0  0
 38 47  1  0  0  0
 39 64  1  0  0  0
 39 67  2  0  0  0
 40 52  1  0  0  0
 40 53  2  0  0  0
 40 58  1  0  0  0
 41108  1  0  0  0
 41109  1  0  0  0
 41110  1  0  0  0
 41 48  1  0  0  0
 42 43  1  0  0  0
 42 66  1  0  0  0
 42111  1  0  0  0
 42112  1  0  0  0
 43 44  1  0  0  0
 44113  1  0  0  0
 45 46  2  0  0  0
 45114  1  0  0  0
 46115  1  0  0  0
 47116  1  0  0  0
 47117  1  0  0  0
 48 56  1  0  0  0
 48 65  1  0  0  0
 48118  1  0  0  0
 49 50  1  0  0  0
 49 53  1  0  0  0
 49 64  1  0  0  0
 49119  1  0  0  0
 50 51  1  0  0  0
 50120  1  0  0  0
 50121  1  0  0  0
 51 52  1  0  0  0
 51122  1  0  0  0
 51123  1  0  0  0
 52124  1  0  0  0
 52125  1  0  0  0
 53 54  1  0  0  0
 54 55  2  0  0  0
 54126  1  0  0  0
 55 57  1  0  0  0
 55127  1  0  0  0
 56 69  2  0  0  0
 57 58  2  0  0  0
 57128  1  0  0  0
 58129  1  0  0  0
 59 60  1  0  0  0
 59 61  1  0  0  0
 59 62  1  0  0  0
 60130  1  0  0  0
 60131  1  0  0  0
 60132  1  0  0  0
 61133  1  0  0  0
 61134  1  0  0  0
 61135  1  0  0  0
 62136  1  0  0  0
 62137  1  0  0  0
 62138  1  0  0  0
 63 65  1  0  0  0
 63139  1  0  0  0
 63140  1  0  0  0
 63141  1  0  0  0
 64142  1  0  0  0
 65143  1  0  0  0
 68 80  1  0  0  0
 71 72  2  0  0  0
 71 73  1  0  0  0
 71144  1  0  0  0
 72 75  1  0  0  0
 72145  1  0  0  0
 73 76  2  0  0  0
 73146  1  0  0  0
 74 75  2  0  0  0
 74 76  1  0  0  0
 74147  1  0  0  0
 75 77  1  0  0  0
 76 81  1  0  0  0
 77 82  1  0  0  0
 77 84  2  0  0  0
 78 79  1  0  0  0
 78 82  1  0  0  0
 78 83  2  0  0  0
 79 80  1  0  0  0
 79148  1  0  0  0
 79149  1  0  0  0
 80150  1  0  0  0
 80151  1  0  0  0
 81152  1  0  0  0
 82153  1  0  0  0
M  ISO  4   1 100  68 101  80 101  81 100
M  END
> <chiral flag>
0

> <version>
0

> <s_m_source_file>
/data/baiqing/PycharmProjects/Reinvent-master-3.2/result/LINK_invent/BTK/process_docking_weight1_custom_product_contain_oxygen_bond_distance_aromatic_linkinvent_7_9_3/rearranged_h_0062.sdf

> <i_m_source_file_index>
59

> <r_mmod_Potential_Energy-OPLS-2005>
-37.6624984741211

> <r_mmod_Stretch_Energy-OPLS-2005>
49.670768737793

> <r_mmod_Bend_Energy-OPLS-2005>
103.598182678223

> <r_mmod_Torsional_Energy-OPLS-2005>
287.532318115234

> <r_mmod_Improper_Torsional_Energy-OPLS-2005>
7.53666877746582

> <r_mmod_Van_der_Waal_Energy-OPLS-2005>
178.020034790039

> <r_mmod_Electrostatic_Energy-OPLS-2005>
-420.624969482422

> <r_mmod_Solvation_Energy-OPLS-2005>
-265.695465087891

> <b_mmod_Minimization_Converged-OPLS-2005>
0

> <r_mmod_RMS_Derivative-OPLS-2005>
8.14176464080811

$$$$
59
                    3D
 Structure written by MMmdl.
152160  0  0  1  0            999 V2000
  -30.5862  -14.8057   20.4486 C   0  0  0  0  0  0
  -30.4355  -12.4980   19.4665 C   0  0  0  0  0  0
  -29.5090  -12.5061   18.2310 C   0  0  0  0  0  0
  -28.0378  -12.3181   18.6516 C   0  0  0  0  0  0
  -27.6338  -13.2328   19.8386 C   0  0  2  0  0  0
  -28.6809  -13.2012   20.9710 C   0  0  0  0  0  0
  -25.2485  -13.8189   20.5692 C   0  0  0  0  0  0
  -24.1787  -13.0431   20.9219 C   0  0  0  0  0  0
  -24.6386  -11.6911   20.8753 C   0  0  0  0  0  0
  -23.9067  -10.4287   21.0412 C   0  0  0  0  0  0
  -24.3621   -9.4201   21.9185 C   0  0  0  0  0  0
  -23.6297   -8.2236   22.0753 C   0  0  0  0  0  0
  -22.4278   -8.0276   21.3544 C   0  0  0  0  0  0
  -21.9913   -9.0249   20.4645 C   0  0  0  0  0  0
  -22.7243  -10.2129   20.3057 C   0  0  0  0  0  0
  -21.6851   -6.0736   22.5279 C   0  0  0  0  0  0
  -21.4014   -6.5640   23.8213 C   0  0  0  0  0  0
  -21.3660   -5.6793   24.9173 C   0  0  0  0  0  0
  -21.6044   -4.3055   24.7224 C   0  0  0  0  0  0
  -21.8821   -3.8148   23.4344 C   0  0  0  0  0  0
  -21.9193   -4.6964   22.3400 C   0  0  0  0  0  0
  -22.7811  -13.5209   21.1880 C   0  0  0  0  0  0
  -22.1662   -4.2152   21.0978 F   0  0  0  0  0  0
  -21.5629   -3.4538   25.7736 F   0  0  0  0  0  0
  -29.9677  -13.5737   20.3722 N   0  0  0  0  0  0
  -26.2899  -12.9397   20.3236 N   0  0  0  0  0  0
  -25.9311  -11.6542   20.5735 N   0  0  0  0  0  0
  -22.0463  -12.8193   22.0436 N   0  0  0  0  0  0
  -25.4149  -15.1917   20.4117 N   0  0  0  0  0  0
  -31.7945  -14.8807   20.2066 O   0  0  0  0  0  0
  -21.6638   -6.8878   21.4243 O   0  0  0  0  0  0
  -22.3493  -14.5515   20.6726 O   0  0  0  0  0  0
  -24.6343  -31.8521   23.1959 C   0  0  0  0  0  0
  -25.9151  -32.4744   23.8318 C   0  0  1  0  0  0
  -27.2217  -27.2289   20.1442 C   0  0  0  0  0  0
  -25.5934  -33.8547   24.2241 N   0  0  0  0  0  0
  -23.4337  -30.4719   21.5404 C   0  0  2  0  0  0
  -24.8828  -28.9045   20.1213 C   0  0  0  0  0  0
  -22.7520  -29.4584   22.4917 C   0  0  0  0  0  0
  -18.0291  -28.1398   22.8486 C   0  0  0  0  0  0
  -24.1483  -36.7272   23.2642 C   0  0  0  0  0  0
  -25.9822  -30.7534   21.3808 C   0  0  0  0  0  0
  -26.0563  -29.3687   20.7315 C   0  0  0  0  0  0
  -27.2328  -28.5445   20.7289 C   0  0  0  0  0  0
  -26.0252  -26.8323   19.5160 C   0  0  0  0  0  0
  -24.8723  -27.6439   19.5033 C   0  0  0  0  0  0
  -23.6565  -29.7988   20.1601 C   0  0  0  0  0  0
  -25.4115  -36.3063   24.0327 C   0  0  1  0  0  0
  -20.5899  -28.3706   23.1272 C   0  0  2  0  0  0
  -20.6780  -26.9421   22.5414 C   0  0  0  0  0  0
  -19.5755  -26.6389   21.5216 C   0  0  0  0  0  0
  -18.1935  -26.7943   22.1625 C   0  0  0  0  0  0
  -19.1546  -28.8874   23.2871 C   0  0  0  0  0  0
  -18.9465  -30.1478   23.8886 C   0  0  0  0  0  0
  -17.6463  -30.6598   24.0568 C   0  0  0  0  0  0
  -25.9060  -34.9435   23.5091 C   0  0  0  0  0  0
  -16.5355  -29.9093   23.6337 C   0  0  0  0  0  0
  -16.7278  -28.6513   23.0354 C   0  0  0  0  0  0
  -26.4503  -31.6586   25.0725 C   0  0  0  0  0  0
  -25.3710  -31.3752   26.1438 C   0  0  0  0  0  0
  -27.0359  -30.3003   24.6235 C   0  0  0  0  0  0
  -27.6060  -32.4326   25.7494 C   0  0  0  0  0  0
  -27.5575  -37.1795   24.8467 C   0  0  0  0  0  0
  -21.4225  -29.3044   22.3657 N   0  0  0  0  0  0
  -26.4284  -37.3769   23.9414 N   0  0  0  0  0  0
  -24.7027  -31.0456   22.0948 N   0  0  0  0  0  0
  -23.4204  -28.8130   23.3034 O   0  0  0  0  0  0
  -28.3041  -26.3159   20.0839 O   0  0  0  0  0  0
  -26.5630  -34.8913   22.4660 O   0  0  0  0  0  0
  -23.5485  -32.1351   23.7237 O   0  0  0  0  0  0
  -30.8533  -20.0906   21.5749 C   0  0  0  0  0  0
  -31.2278  -17.6606   21.6342 C   0  0  0  0  0  0
  -29.3937  -18.5944   20.3327 C   0  0  0  0  0  0
  -31.5841  -18.9694   22.0280 C   0  0  0  0  0  0
  -29.7398  -19.9719   20.7162 C   0  0  0  0  0  0
  -30.1296  -17.4009   20.7861 C   0  0  0  0  0  0
  -28.6729  -23.7769   20.4667 C   0  0  0  0  0  0
  -28.2939  -25.0892   20.8224 C   0  0  0  0  0  0
  -28.6374  -22.3243   20.9758 C   0  0  0  0  0  0
  -32.7941  -19.1679   22.9299 C   0  0  0  0  0  0
  -29.1685  -21.2750   20.2260 N   0  0  0  0  0  0
  -29.7926  -15.9614   20.5112 N   0  0  0  0  0  0
  -28.0764  -22.0057   22.0352 O   0  0  0  0  0  0
  -32.7350  -20.3292   23.5832 F   0  0  0  0  0  0
  -32.8738  -18.1900   23.8330 F   0  0  0  0  0  0
  -33.9015  -19.1540   22.1888 F   0  0  0  0  0  0
  -31.4720  -12.6418   19.1564 H   0  0  0  0  0  0
  -30.4031  -11.5312   19.9709 H   0  0  0  0  0  0
  -29.8018  -11.7197   17.5340 H   0  0  0  0  0  0
  -29.6199  -13.4495   17.6936 H   0  0  0  0  0  0
  -27.9107  -11.2724   18.9339 H   0  0  0  0  0  0
  -27.3755  -12.4853   17.8014 H   0  0  0  0  0  0
  -27.6147  -14.2459   19.4370 H   0  0  0  0  0  0
  -28.7363  -12.2116   21.4267 H   0  0  0  0  0  0
  -28.4074  -13.8952   21.7679 H   0  0  0  0  0  0
  -25.2769   -9.5674   22.4754 H   0  0  0  0  0  0
  -24.0008   -7.4625   22.7468 H   0  0  0  0  0  0
  -21.0845   -8.8769   19.8947 H   0  0  0  0  0  0
  -22.3706  -10.9667   19.6162 H   0  0  0  0  0  0
  -21.2006   -7.6148   23.9718 H   0  0  0  0  0  0
  -21.1480   -6.0521   25.9077 H   0  0  0  0  0  0
  -22.0599   -2.7611   23.2841 H   0  0  0  0  0  0
  -22.4094  -11.9858   22.4823 H   0  0  0  0  0  0
  -21.1077  -13.1204   22.2651 H   0  0  0  0  0  0
  -24.6434  -15.8401   20.5252 H   0  0  0  0  0  0
  -26.2551  -15.6379   20.0690 H   0  0  0  0  0  0
  -26.7217  -32.5389   23.1057 H   0  0  0  0  0  0
  -25.0084  -33.9678   25.0390 H   0  0  0  0  0  0
  -22.7318  -31.2948   21.3891 H   0  0  0  0  0  0
  -23.3749  -35.9599   23.3305 H   0  0  0  0  0  0
  -24.3564  -36.8893   22.2054 H   0  0  0  0  0  0
  -23.7227  -37.6473   23.6663 H   0  0  0  0  0  0
  -26.1230  -31.5070   20.6048 H   0  0  0  0  0  0
  -26.8595  -30.8090   22.0136 H   0  0  0  0  0  0
  -28.1387  -28.8999   21.1996 H   0  0  0  0  0  0
  -25.9827  -25.8640   19.0372 H   0  0  0  0  0  0
  -23.9741  -27.2828   19.0210 H   0  0  0  0  0  0
  -23.7900  -30.5715   19.4022 H   0  0  0  0  0  0
  -22.7735  -29.2360   19.8520 H   0  0  0  0  0  0
  -25.1295  -36.1903   25.0818 H   0  0  0  0  0  0
  -20.9989  -28.3282   24.1394 H   0  0  0  0  0  0
  -20.5681  -26.2313   23.3618 H   0  0  0  0  0  0
  -21.6648  -26.7441   22.1210 H   0  0  0  0  0  0
  -19.6909  -25.6295   21.1254 H   0  0  0  0  0  0
  -19.6699  -27.3193   20.6742 H   0  0  0  0  0  0
  -17.4207  -26.6694   21.4024 H   0  0  0  0  0  0
  -18.0332  -26.0088   22.9024 H   0  0  0  0  0  0
  -19.7937  -30.7306   24.2244 H   0  0  0  0  0  0
  -17.5010  -31.6272   24.5177 H   0  0  0  0  0  0
  -15.5356  -30.2991   23.7672 H   0  0  0  0  0  0
  -15.8677  -28.0833   22.7073 H   0  0  0  0  0  0
  -24.5901  -30.7082   25.7769 H   0  0  0  0  0  0
  -24.8883  -32.2928   26.4817 H   0  0  0  0  0  0
  -25.8017  -30.8967   27.0245 H   0  0  0  0  0  0
  -26.2959  -29.6745   24.1241 H   0  0  0  0  0  0
  -27.4017  -29.7276   25.4766 H   0  0  0  0  0  0
  -27.8840  -30.4281   23.9505 H   0  0  0  0  0  0
  -27.2684  -33.3643   26.2044 H   0  0  0  0  0  0
  -28.3884  -32.6860   25.0327 H   0  0  0  0  0  0
  -28.0712  -31.8465   26.5431 H   0  0  0  0  0  0
  -28.2603  -38.0082   24.7515 H   0  0  0  0  0  0
  -28.1057  -36.2620   24.6289 H   0  0  0  0  0  0
  -27.2296  -37.1439   25.8870 H   0  0  0  0  0  0
  -20.9425  -29.8750   21.6838 H   0  0  0  0  0  0
  -26.0157  -38.2837   24.1427 H   0  0  0  0  0  0
  -31.1869  -21.0730   21.8763 H   0  0  0  0  0  0
  -31.8192  -16.8431   22.0195 H   0  0  0  0  0  0
  -28.5503  -18.4523   19.6717 H   0  0  0  0  0  0
  -28.9614  -23.8291   21.5033 H   0  0  0  0  0  0
  -27.9746  -25.3354   21.8347 H   0  0  0  0  0  0
  -29.4017  -21.5172   19.2719 H   0  0  0  0  0  0
  -28.8077  -15.7736   20.4061 H   0  0  0  0  0  0
  1 25  1  0  0  0
  1 30  2  0  0  0
  1 82  1  0  0  0
  2  3  1  0  0  0
  2 25  1  0  0  0
  2 87  1  0  0  0
  2 88  1  0  0  0
  3  4  1  0  0  0
  3 89  1  0  0  0
  3 90  1  0  0  0
  4  5  1  0  0  0
  4 91  1  0  0  0
  4 92  1  0  0  0
  5  6  1  0  0  0
  5 26  1  0  0  0
  5 93  1  0  0  0
  6 25  1  0  0  0
  6 94  1  0  0  0
  6 95  1  0  0  0
  7  8  2  0  0  0
  7 26  1  0  0  0
  7 29  1  0  0  0
  8  9  1  0  0  0
  8 22  1  0  0  0
  9 10  1  0  0  0
  9 27  2  0  0  0
 10 11  2  0  0  0
 10 15  1  0  0  0
 11 12  1  0  0  0
 11 96  1  0  0  0
 12 13  2  0  0  0
 12 97  1  0  0  0
 13 14  1  0  0  0
 13 31  1  0  0  0
 14 15  2  0  0  0
 14 98  1  0  0  0
 15 99  1  0  0  0
 16 17  2  0  0  0
 16 21  1  0  0  0
 16 31  1  0  0  0
 17 18  1  0  0  0
 17100  1  0  0  0
 18 19  2  0  0  0
 18101  1  0  0  0
 19 20  1  0  0  0
 19 24  1  0  0  0
 20 21  2  0  0  0
 20102  1  0  0  0
 21 23  1  0  0  0
 22 28  1  0  0  0
 22 32  2  0  0  0
 26 27  1  0  0  0
 28103  1  0  0  0
 28104  1  0  0  0
 29105  1  0  0  0
 29106  1  0  0  0
 33 34  1  0  0  0
 33 66  1  0  0  0
 33 70  2  0  0  0
 34 36  1  0  0  0
 34 59  1  0  0  0
 34107  1  0  0  0
 35 44  2  0  0  0
 35 45  1  0  0  0
 35 68  1  0  0  0
 36 56  1  0  0  0
 36108  1  0  0  0
 37 39  1  0  0  0
 37 47  1  0  0  0
 37 66  1  0  0  0
 37109  1  0  0  0
 38 43  2  0  0  0
 38 46  1  0  0  0
 38 47  1  0  0  0
 39 64  1  0  0  0
 39 67  2  0  0  0
 40 52  1  0  0  0
 40 53  2  0  0  0
 40 58  1  0  0  0
 41110  1  0  0  0
 41111  1  0  0  0
 41112  1  0  0  0
 41 48  1  0  0  0
 42 43  1  0  0  0
 42 66  1  0  0  0
 42113  1  0  0  0
 42114  1  0  0  0
 43 44  1  0  0  0
 44115  1  0  0  0
 45 46  2  0  0  0
 45116  1  0  0  0
 46117  1  0  0  0
 47118  1  0  0  0
 47119  1  0  0  0
 48 56  1  0  0  0
 48 65  1  0  0  0
 48120  1  0  0  0
 49 50  1  0  0  0
 49 53  1  0  0  0
 49 64  1  0  0  0
 49121  1  0  0  0
 50 51  1  0  0  0
 50122  1  0  0  0
 50123  1  0  0  0
 51 52  1  0  0  0
 51124  1  0  0  0
 51125  1  0  0  0
 52126  1  0  0  0
 52127  1  0  0  0
 53 54  1  0  0  0
 54 55  2  0  0  0
 54128  1  0  0  0
 55 57  1  0  0  0
 55129  1  0  0  0
 56 69  2  0  0  0
 57 58  2  0  0  0
 57130  1  0  0  0
 58131  1  0  0  0
 59 60  1  0  0  0
 59 61  1  0  0  0
 59 62  1  0  0  0
 60132  1  0  0  0
 60133  1  0  0  0
 60134  1  0  0  0
 61135  1  0  0  0
 61136  1  0  0  0
 61137  1  0  0  0
 62138  1  0  0  0
 62139  1  0  0  0
 62140  1  0  0  0
 63 65  1  0  0  0
 63141  1  0  0  0
 63142  1  0  0  0
 63143  1  0  0  0
 64144  1  0  0  0
 65145  1  0  0  0
 68 78  1  0  0  0
 71 74  2  0  0  0
 71 75  1  0  0  0
 71146  1  0  0  0
 72 74  1  0  0  0
 72 76  2  0  0  0
 72147  1  0  0  0
 73 75  2  0  0  0
 73 76  1  0  0  0
 73148  1  0  0  0
 74 80  1  0  0  0
 75 81  1  0  0  0
 76 82  1  0  0  0
 77 78  2  0  0  0
 77 79  1  0  0  0
 77149  1  0  0  0
 78150  1  0  0  0
 79 81  1  0  0  0
 79 83  2  0  0  0
 80 84  1  0  0  0
 80 85  1  0  0  0
 80 86  1  0  0  0
 81151  1  0  0  0
 82152  1  0  0  0
M  ISO  4   1 100  68 101  78 101  82 100
M  END
> <chiral flag>
0

> <version>
0

> <s_m_source_file>
/data/baiqing/PycharmProjects/Reinvent-master-3.2/result/LINK_invent/BTK/process_docking_weight1_custom_product_contain_oxygen_bond_distance_aromatic_linkinvent_7_9_3/rearranged_h_0062.sdf

> <i_m_source_file_index>
60

> <r_mmod_Potential_Energy-OPLS-2005>
534.96142578125

> <r_mmod_Stretch_Energy-OPLS-2005>
151.827819824219

> <r_mmod_Bend_Energy-OPLS-2005>
389.999450683594

> <r_mmod_Torsional_Energy-OPLS-2005>
315.859375

> <r_mmod_Improper_Torsional_Energy-OPLS-2005>
33.1028442382812

> <r_mmod_Van_der_Waal_Energy-OPLS-2005>
148.564025878906

> <r_mmod_Electrostatic_Energy-OPLS-2005>
-389.156646728516

> <r_mmod_Solvation_Energy-OPLS-2005>
-225.672958374023

> <b_mmod_Minimization_Converged-OPLS-2005>
0

> <r_mmod_RMS_Derivative-OPLS-2005>
0.827149510383606

$$$$
60
                    3D
 Structure written by MMmdl.
165174  0  0  1  0            999 V2000
  -30.7001  -14.4641   20.4856 C   0  0  0  0  0  0
  -30.4303  -12.2738   19.4356 C   0  0  0  0  0  0
  -29.5071  -12.4551   18.2135 C   0  0  0  0  0  0
  -28.0224  -12.3506   18.6213 C   0  0  0  0  0  0
  -27.6649  -13.1970   19.8747 C   0  0  2  0  0  0
  -28.7116  -13.0075   20.9974 C   0  0  0  0  0  0
  -25.2646  -13.8140   20.5647 C   0  0  0  0  0  0
  -24.1869  -13.0441   20.9126 C   0  0  0  0  0  0
  -24.6419  -11.6902   20.8739 C   0  0  0  0  0  0
  -23.9064  -10.4306   21.0432 C   0  0  0  0  0  0
  -24.3624   -9.4226   21.9223 C   0  0  0  0  0  0
  -23.6286   -8.2267   22.0767 C   0  0  0  0  0  0
  -22.4275   -8.0308   21.3550 C   0  0  0  0  0  0
  -21.9895   -9.0293   20.4668 C   0  0  0  0  0  0
  -22.7236  -10.2175   20.3093 C   0  0  0  0  0  0
  -21.6851   -6.0747   22.5268 C   0  0  0  0  0  0
  -21.4020   -6.5634   23.8212 C   0  0  0  0  0  0
  -21.3644   -5.6782   24.9166 C   0  0  0  0  0  0
  -21.6047   -4.3048   24.7200 C   0  0  0  0  0  0
  -21.8830   -3.8145   23.4320 C   0  0  0  0  0  0
  -21.9187   -4.6969   22.3385 C   0  0  0  0  0  0
  -22.7901  -13.5265   21.1782 C   0  0  0  0  0  0
  -22.1667   -4.2162   21.0953 F   0  0  0  0  0  0
  -21.5609   -3.4520   25.7712 F   0  0  0  0  0  0
  -30.0438  -13.2791   20.4334 N   0  0  0  0  0  0
  -26.3065  -12.9267   20.3382 N   0  0  0  0  0  0
  -25.9355  -11.6454   20.5833 N   0  0  0  0  0  0
  -22.0479  -12.8323   22.0335 N   0  0  0  0  0  0
  -25.4452  -15.1849   20.4037 N   0  0  0  0  0  0
  -31.8725  -14.6147   20.1315 O   0  0  0  0  0  0
  -21.6641   -6.8909   21.4243 O   0  0  0  0  0  0
  -22.3639  -14.5603   20.6645 O   0  0  0  0  0  0
  -24.6131  -31.8688   23.2126 C   0  0  0  0  0  0
  -25.9037  -32.4830   23.8406 C   0  0  1  0  0  0
  -27.2336  -27.4468   20.0831 C   0  0  0  0  0  0
  -25.5895  -33.8624   24.2336 N   0  0  0  0  0  0
  -23.3983  -30.4927   21.5540 C   0  0  2  0  0  0
  -24.8414  -28.9601   20.1130 C   0  0  0  0  0  0
  -22.7397  -29.4653   22.5018 C   0  0  0  0  0  0
  -18.0272  -28.1381   22.8490 C   0  0  0  0  0  0
  -24.1473  -36.7327   23.2630 C   0  0  0  0  0  0
  -25.9249  -30.8341   21.3637 C   0  0  0  0  0  0
  -25.9986  -29.4685   20.7144 C   0  0  0  0  0  0
  -27.1922  -28.7144   20.7043 C   0  0  0  0  0  0
  -26.0569  -26.9557   19.4670 C   0  0  0  0  0  0
  -24.8653  -27.7028   19.4880 C   0  0  0  0  0  0
  -23.6020  -29.8234   20.1664 C   0  0  0  0  0  0
  -25.4082  -36.3114   24.0337 C   0  0  1  0  0  0
  -20.5855  -28.3653   23.1335 C   0  0  2  0  0  0
  -20.6762  -26.9398   22.5419 C   0  0  0  0  0  0
  -19.5738  -26.6382   21.5212 C   0  0  0  0  0  0
  -18.1915  -26.7930   22.1618 C   0  0  0  0  0  0
  -19.1519  -28.8836   23.2905 C   0  0  0  0  0  0
  -18.9453  -30.1445   23.8915 C   0  0  0  0  0  0
  -17.6452  -30.6585   24.0567 C   0  0  0  0  0  0
  -25.9014  -34.9475   23.5130 C   0  0  0  0  0  0
  -16.5349  -29.9083   23.6327 C   0  0  0  0  0  0
  -16.7263  -28.6503   23.0348 C   0  0  0  0  0  0
  -26.4473  -31.6614   25.0736 C   0  0  0  0  0  0
  -25.3763  -31.3752   26.1523 C   0  0  0  0  0  0
  -27.0277  -30.3045   24.6104 C   0  0  0  0  0  0
  -27.6055  -32.4337   25.7497 C   0  0  0  0  0  0
  -27.5572  -37.1813   24.8448 C   0  0  0  0  0  0
  -21.4125  -29.3015   22.3746 N   0  0  0  0  0  0
  -26.4272  -37.3792   23.9416 N   0  0  0  0  0  0
  -24.6642  -31.0791   22.1020 N   0  0  0  0  0  0
  -23.4173  -28.8188   23.3044 O   0  0  0  0  0  0
  -28.4287  -26.7574   20.0988 O   0  0  0  0  0  0
  -26.5567  -34.8927   22.4688 O   0  0  0  0  0  0
  -23.5332  -32.1438   23.7537 O   0  0  0  0  0  0
  -30.4251  -17.8766   20.1031 C   0  0  0  0  0  0
  -29.3090  -16.4261   18.4937 C   0  0  0  0  0  0
  -29.7725  -18.7471   17.8983 C   0  0  0  0  0  0
  -30.3919  -18.9397   19.1651 C   0  0  0  0  0  0
  -29.8929  -16.6120   19.7655 C   0  0  0  0  0  0
  -29.2528  -17.4798   17.5673 C   0  0  0  0  0  0
  -32.0830  -20.6421   18.8963 C   0  0  0  0  0  0
  -29.5746  -24.6389   20.4678 C   0  0  0  0  0  0
  -32.5211  -22.0949   19.0822 C   0  0  0  0  0  0
  -32.1681  -22.6420   20.4643 C   0  0  0  0  0  0
  -30.2220  -20.9661   20.5435 C   0  0  0  0  0  0
  -30.6857  -22.4208   20.7943 C   0  0  2  0  0  0
  -29.6346  -19.8727   16.8809 C   0  0  0  0  0  0
  -28.4407  -25.3718   19.7340 C   0  0  0  0  0  0
  -30.9514  -20.2051   19.5111 N   0  0  0  0  0  0
  -29.9123  -15.5301   20.6902 N   0  0  0  0  0  0
  -29.7966  -23.3641   20.1122 N   0  0  0  0  0  0
  -32.7688  -19.9248   18.1557 O   0  0  0  0  0  0
  -30.2137  -25.1961   21.3652 O   0  0  0  0  0  0
  -28.6888  -17.2688   16.3536 F   0  0  0  0  0  0
  -31.4761  -12.3630   19.1348 H   0  0  0  0  0  0
  -30.3253  -11.2748   19.8582 H   0  0  0  0  0  0
  -29.7403  -11.7024   17.4587 H   0  0  0  0  0  0
  -29.7008  -13.4201   17.7439 H   0  0  0  0  0  0
  -27.8109  -11.2984   18.8169 H   0  0  0  0  0  0
  -27.3882  -12.6360   17.7821 H   0  0  0  0  0  0
  -27.6925  -14.2385   19.5655 H   0  0  0  0  0  0
  -28.6803  -11.9875   21.3825 H   0  0  0  0  0  0
  -28.4954  -13.6551   21.8490 H   0  0  0  0  0  0
  -25.2770   -9.5668   22.4816 H   0  0  0  0  0  0
  -23.9969   -7.4644   22.7490 H   0  0  0  0  0  0
  -21.0806   -8.8839   19.8990 H   0  0  0  0  0  0
  -22.3697  -10.9735   19.6214 H   0  0  0  0  0  0
  -21.2044   -7.6151   23.9705 H   0  0  0  0  0  0
  -21.1445   -6.0522   25.9067 H   0  0  0  0  0  0
  -22.0625   -2.7604   23.2827 H   0  0  0  0  0  0
  -22.3986  -11.9954   22.4765 H   0  0  0  0  0  0
  -21.1164  -13.1526   22.2566 H   0  0  0  0  0  0
  -24.6874  -15.8518   20.5038 H   0  0  0  0  0  0
  -26.3037  -15.6120   20.0780 H   0  0  0  0  0  0
  -26.7105  -32.5545   23.1165 H   0  0  0  0  0  0
  -25.0102  -33.9778   25.0529 H   0  0  0  0  0  0
  -22.6861  -31.3088   21.4178 H   0  0  0  0  0  0
  -23.3716  -35.9680   23.3287 H   0  0  0  0  0  0
  -24.3571  -36.8941   22.2044 H   0  0  0  0  0  0
  -23.7240  -37.6536   23.6656 H   0  0  0  0  0  0
  -26.0264  -31.5968   20.5904 H   0  0  0  0  0  0
  -26.8172  -30.8966   21.9745 H   0  0  0  0  0  0
  -28.0844  -29.0987   21.1777 H   0  0  0  0  0  0
  -26.0379  -26.0083   18.9487 H   0  0  0  0  0  0
  -23.9769  -27.3158   19.0065 H   0  0  0  0  0  0
  -23.6997  -30.5950   19.4021 H   0  0  0  0  0  0
  -22.7267  -29.2383   19.8796 H   0  0  0  0  0  0
  -25.1251  -36.1973   25.0828 H   0  0  0  0  0  0
  -20.9936  -28.3220   24.1462 H   0  0  0  0  0  0
  -20.5664  -26.2262   23.3595 H   0  0  0  0  0  0
  -21.6646  -26.7449   22.1228 H   0  0  0  0  0  0
  -19.6896  -25.6297   21.1230 H   0  0  0  0  0  0
  -19.6659  -27.3194   20.6741 H   0  0  0  0  0  0
  -17.4186  -26.6685   21.4019 H   0  0  0  0  0  0
  -18.0288  -26.0068   22.9004 H   0  0  0  0  0  0
  -19.7927  -30.7259   24.2283 H   0  0  0  0  0  0
  -17.5011  -31.6270   24.5155 H   0  0  0  0  0  0
  -15.5350  -30.2989   23.7644 H   0  0  0  0  0  0
  -15.8659  -28.0823   22.7057 H   0  0  0  0  0  0
  -24.5882  -30.7134   25.7910 H   0  0  0  0  0  0
  -24.9036  -32.2941   26.5008 H   0  0  0  0  0  0
  -25.8147  -30.8910   27.0260 H   0  0  0  0  0  0
  -26.2806  -29.6828   24.1156 H   0  0  0  0  0  0
  -27.4033  -29.7253   25.4550 H   0  0  0  0  0  0
  -27.8654  -30.4348   23.9245 H   0  0  0  0  0  0
  -27.2668  -33.3616   26.2120 H   0  0  0  0  0  0
  -28.3850  -32.6933   25.0322 H   0  0  0  0  0  0
  -28.0744  -31.8446   26.5390 H   0  0  0  0  0  0
  -28.2593  -38.0110   24.7509 H   0  0  0  0  0  0
  -28.1073  -36.2651   24.6248 H   0  0  0  0  0  0
  -27.2318  -37.1428   25.8859 H   0  0  0  0  0  0
  -20.9284  -29.8757   21.6987 H   0  0  0  0  0  0
  -26.0158  -38.2872   24.1425 H   0  0  0  0  0  0
  -30.8776  -18.0264   21.0741 H   0  0  0  0  0  0
  -28.8963  -15.4739   18.2052 H   0  0  0  0  0  0
  -32.0397  -22.6965   18.3105 H   0  0  0  0  0  0
  -33.5953  -22.1725   18.9146 H   0  0  0  0  0  0
  -32.4269  -23.6996   20.5218 H   0  0  0  0  0  0
  -32.7866  -22.1439   21.2136 H   0  0  0  0  0  0
  -29.1532  -20.9308   20.3249 H   0  0  0  0  0  0
  -30.3394  -20.4159   21.4771 H   0  0  0  0  0  0
  -30.5611  -22.6060   21.8645 H   0  0  0  0  0  0
  -29.5893  -20.8559   17.3493 H   0  0  0  0  0  0
  -28.7135  -19.7614   16.3100 H   0  0  0  0  0  0
  -30.4727  -19.8548   16.1829 H   0  0  0  0  0  0
  -27.5204  -24.8601   20.0171 H   0  0  0  0  0  0
  -28.5694  -25.2761   18.6544 H   0  0  0  0  0  0
  -29.0089  -15.2794   21.0616 H   0  0  0  0  0  0
  -29.2111  -22.9967   19.3733 H   0  0  0  0  0  0
  1 25  1  0  0  0
  1 30  2  0  0  0
  1 86  1  0  0  0
  2  3  1  0  0  0
  2 25  1  0  0  0
  2 91  1  0  0  0
  2 92  1  0  0  0
  3  4  1  0  0  0
  3 93  1  0  0  0
  3 94  1  0  0  0
  4  5  1  0  0  0
  4 95  1  0  0  0
  4 96  1  0  0  0
  5  6  1  0  0  0
  5 26  1  0  0  0
  5 97  1  0  0  0
  6 25  1  0  0  0
  6 98  1  0  0  0
  6 99  1  0  0  0
  7  8  2  0  0  0
  7 26  1  0  0  0
  7 29  1  0  0  0
  8  9  1  0  0  0
  8 22  1  0  0  0
  9 10  1  0  0  0
  9 27  2  0  0  0
 10 11  2  0  0  0
 10 15  1  0  0  0
 11 12  1  0  0  0
 11100  1  0  0  0
 12 13  2  0  0  0
 12101  1  0  0  0
 13 14  1  0  0  0
 13 31  1  0  0  0
 14 15  2  0  0  0
 14102  1  0  0  0
 15103  1  0  0  0
 16 17  2  0  0  0
 16 21  1  0  0  0
 16 31  1  0  0  0
 17 18  1  0  0  0
 17104  1  0  0  0
 18 19  2  0  0  0
 18105  1  0  0  0
 19 20  1  0  0  0
 19 24  1  0  0  0
 20 21  2  0  0  0
 20106  1  0  0  0
 21 23  1  0  0  0
 22 28  1  0  0  0
 22 32  2  0  0  0
 26 27  1  0  0  0
 28107  1  0  0  0
 28108  1  0  0  0
 29109  1  0  0  0
 29110  1  0  0  0
 33 34  1  0  0  0
 33 66  1  0  0  0
 33 70  2  0  0  0
 34 36  1  0  0  0
 34 59  1  0  0  0
 34111  1  0  0  0
 35 44  2  0  0  0
 35 45  1  0  0  0
 35 68  1  0  0  0
 36 56  1  0  0  0
 36112  1  0  0  0
 37 39  1  0  0  0
 37 47  1  0  0  0
 37 66  1  0  0  0
 37113  1  0  0  0
 38 43  2  0  0  0
 38 46  1  0  0  0
 38 47  1  0  0  0
 39 64  1  0  0  0
 39 67  2  0  0  0
 40 52  1  0  0  0
 40 53  2  0  0  0
 40 58  1  0  0  0
 41114  1  0  0  0
 41115  1  0  0  0
 41116  1  0  0  0
 41 48  1  0  0  0
 42 43  1  0  0  0
 42 66  1  0  0  0
 42117  1  0  0  0
 42118  1  0  0  0
 43 44  1  0  0  0
 44119  1  0  0  0
 45 46  2  0  0  0
 45120  1  0  0  0
 46121  1  0  0  0
 47122  1  0  0  0
 47123  1  0  0  0
 48 56  1  0  0  0
 48 65  1  0  0  0
 48124  1  0  0  0
 49 50  1  0  0  0
 49 53  1  0  0  0
 49 64  1  0  0  0
 49125  1  0  0  0
 50 51  1  0  0  0
 50126  1  0  0  0
 50127  1  0  0  0
 51 52  1  0  0  0
 51128  1  0  0  0
 51129  1  0  0  0
 52130  1  0  0  0
 52131  1  0  0  0
 53 54  1  0  0  0
 54 55  2  0  0  0
 54132  1  0  0  0
 55 57  1  0  0  0
 55133  1  0  0  0
 56 69  2  0  0  0
 57 58  2  0  0  0
 57134  1  0  0  0
 58135  1  0  0  0
 59 60  1  0  0  0
 59 61  1  0  0  0
 59 62  1  0  0  0
 60136  1  0  0  0
 60137  1  0  0  0
 60138  1  0  0  0
 61139  1  0  0  0
 61140  1  0  0  0
 61141  1  0  0  0
 62142  1  0  0  0
 62143  1  0  0  0
 62144  1  0  0  0
 63 65  1  0  0  0
 63145  1  0  0  0
 63146  1  0  0  0
 63147  1  0  0  0
 64148  1  0  0  0
 65149  1  0  0  0
 68 84  1  0  0  0
 71 74  2  0  0  0
 71 75  1  0  0  0
 71150  1  0  0  0
 72 75  2  0  0  0
 72 76  1  0  0  0
 72151  1  0  0  0
 73 74  1  0  0  0
 73 76  2  0  0  0
 73 83  1  0  0  0
 74 85  1  0  0  0
 75 86  1  0  0  0
 76 90  1  0  0  0
 77 79  1  0  0  0
 77 85  1  0  0  0
 77 88  2  0  0  0
 78 84  1  0  0  0
 78 87  1  0  0  0
 78 89  2  0  0  0
 79 80  1  0  0  0
 79152  1  0  0  0
 79153  1  0  0  0
 80 82  1  0  0  0
 80154  1  0  0  0
 80155  1  0  0  0
 81 82  1  0  0  0
 81 85  1  0  0  0
 81156  1  0  0  0
 81157  1  0  0  0
 82 87  1  0  0  0
 82158  1  0  0  0
 83159  1  0  0  0
 83160  1  0  0  0
 83161  1  0  0  0
 84162  1  0  0  0
 84163  1  0  0  0
 86164  1  0  0  0
 87165  1  0  0  0
M  ISO  4   1 100  68 101  84 101  86 100
M  END
> <chiral flag>
0

> <version>
0

> <s_m_source_file>
/data/baiqing/PycharmProjects/Reinvent-master-3.2/result/LINK_invent/BTK/process_docking_weight1_custom_product_contain_oxygen_bond_distance_aromatic_linkinvent_7_9_3/rearranged_h_0062.sdf

> <i_m_source_file_index>
61

> <r_mmod_Potential_Energy-OPLS-2005>
24.5705852508545

> <r_mmod_Stretch_Energy-OPLS-2005>
37.523811340332

> <r_mmod_Bend_Energy-OPLS-2005>
104.970436096191

> <r_mmod_Torsional_Energy-OPLS-2005>
328.25830078125

> <r_mmod_Improper_Torsional_Energy-OPLS-2005>
10.1186141967773

> <r_mmod_Van_der_Waal_Energy-OPLS-2005>
163.101486206055

> <r_mmod_Electrostatic_Energy-OPLS-2005>
-365.643005371094

> <r_mmod_Solvation_Energy-OPLS-2005>
-270.329925537109

> <b_mmod_Minimization_Converged-OPLS-2005>
0

> <r_mmod_RMS_Derivative-OPLS-2005>
3.33168315887451

$$$$
61
                    3D
 Structure written by MMmdl.
163172  0  0  1  0            999 V2000
  -30.7484  -14.5383   20.5413 C   0  0  0  0  0  0
  -30.4405  -12.3464   19.4663 C   0  0  0  0  0  0
  -29.5291  -12.5135   18.2360 C   0  0  0  0  0  0
  -28.0402  -12.3971   18.6215 C   0  0  0  0  0  0
  -27.6644  -13.2472   19.8711 C   0  0  2  0  0  0
  -28.7131  -13.0794   20.9989 C   0  0  0  0  0  0
  -25.2528  -13.8242   20.5753 C   0  0  0  0  0  0
  -24.1800  -13.0410   20.9216 C   0  0  0  0  0  0
  -24.6426  -11.6940   20.8680 C   0  0  0  0  0  0
  -23.9076  -10.4298   21.0325 C   0  0  0  0  0  0
  -24.3600   -9.4224   21.9129 C   0  0  0  0  0  0
  -23.6259   -8.2263   22.0717 C   0  0  0  0  0  0
  -22.4240   -8.0268   21.3522 C   0  0  0  0  0  0
  -21.9872   -9.0243   20.4626 C   0  0  0  0  0  0
  -22.7219  -10.2120   20.3008 C   0  0  0  0  0  0
  -21.6873   -6.0721   22.5277 C   0  0  0  0  0  0
  -21.4043   -6.5618   23.8210 C   0  0  0  0  0  0
  -21.3653   -5.6765   24.9163 C   0  0  0  0  0  0
  -21.6010   -4.3031   24.7207 C   0  0  0  0  0  0
  -21.8823   -3.8118   23.4334 C   0  0  0  0  0  0
  -21.9216   -4.6950   22.3390 C   0  0  0  0  0  0
  -22.7800  -13.5188   21.1849 C   0  0  0  0  0  0
  -22.1643   -4.2115   21.0967 F   0  0  0  0  0  0
  -21.5620   -3.4511   25.7726 F   0  0  0  0  0  0
  -30.0466  -13.3695   20.4486 N   0  0  0  0  0  0
  -26.3050  -12.9523   20.3350 N   0  0  0  0  0  0
  -25.9376  -11.6642   20.5684 N   0  0  0  0  0  0
  -22.0381  -12.8239   22.0433 N   0  0  0  0  0  0
  -25.3908  -15.1975   20.4259 N   0  0  0  0  0  0
  -31.9021  -14.6320   20.1136 O   0  0  0  0  0  0
  -21.6630   -6.8848   21.4228 O   0  0  0  0  0  0
  -22.3485  -14.5459   20.6651 O   0  0  0  0  0  0
  -24.6325  -31.8527   23.1920 C   0  0  0  0  0  0
  -25.9178  -32.4708   23.8241 C   0  0  1  0  0  0
  -27.2844  -27.3845   20.1113 C   0  0  0  0  0  0
  -25.5986  -33.8492   24.2235 N   0  0  0  0  0  0
  -23.4344  -30.4740   21.5255 C   0  0  2  0  0  0
  -24.8879  -28.9100   20.1223 C   0  0  0  0  0  0
  -22.7487  -29.4657   22.4785 C   0  0  0  0  0  0
  -18.0293  -28.1416   22.8520 C   0  0  0  0  0  0
  -24.1547  -36.7274   23.2639 C   0  0  0  0  0  0
  -25.9684  -30.7925   21.3671 C   0  0  0  0  0  0
  -26.0435  -29.4204   20.7248 C   0  0  0  0  0  0
  -27.2349  -28.6614   20.7251 C   0  0  0  0  0  0
  -26.1116  -26.9038   19.4880 C   0  0  0  0  0  0
  -24.9171  -27.6490   19.5011 C   0  0  0  0  0  0
  -23.6611  -29.7885   20.1494 C   0  0  0  0  0  0
  -25.4132  -36.3021   24.0364 C   0  0  1  0  0  0
  -20.5922  -28.3758   23.1187 C   0  0  2  0  0  0
  -20.6743  -26.9460   22.5354 C   0  0  0  0  0  0
  -19.5704  -26.6488   21.5151 C   0  0  0  0  0  0
  -18.1901  -26.7967   22.1629 C   0  0  0  0  0  0
  -19.1580  -28.8873   23.2866 C   0  0  0  0  0  0
  -18.9529  -30.1447   23.8941 C   0  0  0  0  0  0
  -17.6551  -30.6606   24.0647 C   0  0  0  0  0  0
  -25.9065  -34.9398   23.5089 C   0  0  0  0  0  0
  -16.5419  -29.9159   23.6365 C   0  0  0  0  0  0
  -16.7298  -28.6583   23.0370 C   0  0  0  0  0  0
  -26.4582  -31.6434   25.0555 C   0  0  0  0  0  0
  -25.3819  -31.3562   26.1283 C   0  0  0  0  0  0
  -27.0508  -30.2861   24.5995 C   0  0  0  0  0  0
  -27.6106  -32.4192   25.7271 C   0  0  0  0  0  0
  -27.5609  -37.1775   24.8472 C   0  0  0  0  0  0
  -21.4175  -29.3158   22.3578 N   0  0  0  0  0  0
  -26.4318  -37.3706   23.9417 N   0  0  0  0  0  0
  -24.6950  -31.0593   22.0844 N   0  0  0  0  0  0
  -23.4183  -28.8105   23.2824 O   0  0  0  0  0  0
  -28.4744  -26.6748   20.1495 O   0  0  0  0  0  0
  -26.5598  -34.8906   22.4638 O   0  0  0  0  0  0
  -23.5481  -32.1277   23.7245 O   0  0  0  0  0  0
  -30.8781  -18.5529   18.7224 C   0  0  0  0  0  0
  -30.5881  -19.6640   19.5316 C   0  0  0  0  0  0
  -30.7266  -17.2503   19.2249 C   0  0  0  0  0  0
  -30.1685  -19.4890   20.8670 C   0  0  0  0  0  0
  -30.0990  -18.1546   21.4031 C   0  0  0  0  0  0
  -30.3310  -17.0126   20.5646 C   0  0  0  0  0  0
  -27.5540  -21.3554   21.2587 C   0  0  0  0  0  0
  -29.2408  -23.0266   20.8757 C   0  0  0  0  0  0
  -26.4326  -22.3839   21.1078 C   0  0  0  0  0  0
  -26.8453  -23.5271   20.1913 C   0  0  0  0  0  0
  -28.1763  -24.1538   20.6265 C   0  0  2  0  0  0
  -29.8268  -17.9473   22.8907 C   0  0  0  0  0  0
  -29.8816  -20.7626   21.7054 C   0  0  0  0  0  0
  -28.6020  -25.3159   19.6504 C   0  0  0  0  0  0
  -28.8648  -21.7456   21.2056 N   0  0  0  0  0  0
  -30.1025  -15.6421   20.9978 N   0  0  0  0  0  0
  -27.2020  -20.1890   21.4646 O   0  0  0  0  0  0
  -30.4348  -23.3490   20.8080 O   0  0  0  0  0  0
  -31.4843  -12.4321   19.1564 H   0  0  0  0  0  0
  -30.3546  -11.3535   19.9085 H   0  0  0  0  0  0
  -29.7894  -11.7771   17.4748 H   0  0  0  0  0  0
  -29.7156  -13.4916   17.7891 H   0  0  0  0  0  0
  -27.8279  -11.3426   18.8042 H   0  0  0  0  0  0
  -27.4200  -12.6863   17.7736 H   0  0  0  0  0  0
  -27.6867  -14.2933   19.5577 H   0  0  0  0  0  0
  -28.7011  -12.0573   21.3829 H   0  0  0  0  0  0
  -28.4781  -13.7200   21.8500 H   0  0  0  0  0  0
  -25.2729   -9.5702   22.4731 H   0  0  0  0  0  0
  -23.9941   -7.4662   22.7459 H   0  0  0  0  0  0
  -21.0779   -8.8750   19.8962 H   0  0  0  0  0  0
  -22.3626  -10.9627   19.6105 H   0  0  0  0  0  0
  -21.2039   -7.6119   23.9734 H   0  0  0  0  0  0
  -21.1484   -6.0456   25.9075 H   0  0  0  0  0  0
  -22.0631   -2.7574   23.2817 H   0  0  0  0  0  0
  -22.3931  -11.9964   22.4971 H   0  0  0  0  0  0
  -21.0961  -13.1264   22.2489 H   0  0  0  0  0  0
  -24.5838  -15.7963   20.5678 H   0  0  0  0  0  0
  -26.2141  -15.7077   20.1321 H   0  0  0  0  0  0
  -26.7234  -32.5481   23.0982 H   0  0  0  0  0  0
  -25.0176  -33.9520   25.0410 H   0  0  0  0  0  0
  -22.7484  -31.3016   21.3564 H   0  0  0  0  0  0
  -23.3776  -35.9639   23.3230 H   0  0  0  0  0  0
  -24.3648  -36.8910   22.2059 H   0  0  0  0  0  0
  -23.7361  -37.6508   23.6651 H   0  0  0  0  0  0
  -26.1146  -31.5321   20.5797 H   0  0  0  0  0  0
  -26.8434  -30.8316   22.0068 H   0  0  0  0  0  0
  -28.1196  -29.0520   21.2098 H   0  0  0  0  0  0
  -26.1012  -25.9542   18.9838 H   0  0  0  0  0  0
  -24.0411  -27.2403   19.0217 H   0  0  0  0  0  0
  -23.8265  -30.5505   19.3877 H   0  0  0  0  0  0
  -22.7860  -29.2177   19.8317 H   0  0  0  0  0  0
  -25.1322  -36.1827   25.0864 H   0  0  0  0  0  0
  -21.0125  -28.3426   24.1259 H   0  0  0  0  0  0
  -20.5476  -26.2442   23.3600 H   0  0  0  0  0  0
  -21.6600  -26.7330   22.1238 H   0  0  0  0  0  0
  -19.6809  -25.6427   21.1107 H   0  0  0  0  0  0
  -19.6569  -27.3382   20.6733 H   0  0  0  0  0  0
  -17.4177  -26.6812   21.4020 H   0  0  0  0  0  0
  -18.0257  -26.0009   22.8922 H   0  0  0  0  0  0
  -19.8025  -30.7210   24.2364 H   0  0  0  0  0  0
  -17.5157  -31.6263   24.5321 H   0  0  0  0  0  0
  -15.5445  -30.3134   23.7648 H   0  0  0  0  0  0
  -15.8680  -28.0963   22.7038 H   0  0  0  0  0  0
  -24.5957  -30.6968   25.7612 H   0  0  0  0  0  0
  -24.9116  -32.2763   26.4733 H   0  0  0  0  0  0
  -25.8148  -30.8686   27.0016 H   0  0  0  0  0  0
  -26.3105  -29.6386   24.1298 H   0  0  0  0  0  0
  -27.4572  -29.7276   25.4443 H   0  0  0  0  0  0
  -27.8772  -30.4136   23.8984 H   0  0  0  0  0  0
  -27.2647  -33.3444   26.1841 H   0  0  0  0  0  0
  -28.3835  -32.6795   25.0033 H   0  0  0  0  0  0
  -28.0845  -31.8337   26.5141 H   0  0  0  0  0  0
  -28.2625  -38.0080   24.7527 H   0  0  0  0  0  0
  -28.1125  -36.2619   24.6299 H   0  0  0  0  0  0
  -27.2314  -37.1395   25.8869 H   0  0  0  0  0  0
  -20.9271  -29.9118   21.7043 H   0  0  0  0  0  0
  -26.0195  -38.2809   24.1301 H   0  0  0  0  0  0
  -31.1980  -18.6911   17.6972 H   0  0  0  0  0  0
  -30.7209  -20.6562   19.1215 H   0  0  0  0  0  0
  -30.9114  -16.4252   18.5525 H   0  0  0  0  0  0
  -26.1827  -22.7665   22.0992 H   0  0  0  0  0  0
  -25.5270  -21.9037   20.7279 H   0  0  0  0  0  0
  -26.0421  -24.2561   20.1997 H   0  0  0  0  0  0
  -26.9433  -23.1685   19.1652 H   0  0  0  0  0  0
  -28.0130  -24.6041   21.6047 H   0  0  0  0  0  0
  -30.4038  -18.6483   23.4987 H   0  0  0  0  0  0
  -30.1268  -16.9608   23.2419 H   0  0  0  0  0  0
  -28.7700  -18.0864   23.1014 H   0  0  0  0  0  0
  -30.8447  -21.2500   21.8714 H   0  0  0  0  0  0
  -29.5801  -20.4960   22.7160 H   0  0  0  0  0  0
  -28.1094  -25.1999   18.6857 H   0  0  0  0  0  0
  -29.6593  -25.2327   19.3909 H   0  0  0  0  0  0
  -29.2580  -15.4732   21.5210 H   0  0  0  0  0  0
  1 25  1  0  0  0
  1 30  2  0  0  0
  1 86  1  0  0  0
  2  3  1  0  0  0
  2 25  1  0  0  0
  2 89  1  0  0  0
  2 90  1  0  0  0
  3  4  1  0  0  0
  3 91  1  0  0  0
  3 92  1  0  0  0
  4  5  1  0  0  0
  4 93  1  0  0  0
  4 94  1  0  0  0
  5  6  1  0  0  0
  5 26  1  0  0  0
  5 95  1  0  0  0
  6 25  1  0  0  0
  6 96  1  0  0  0
  6 97  1  0  0  0
  7  8  2  0  0  0
  7 26  1  0  0  0
  7 29  1  0  0  0
  8  9  1  0  0  0
  8 22  1  0  0  0
  9 10  1  0  0  0
  9 27  2  0  0  0
 10 11  2  0  0  0
 10 15  1  0  0  0
 11 12  1  0  0  0
 11 98  1  0  0  0
 12 13  2  0  0  0
 12 99  1  0  0  0
 13 14  1  0  0  0
 13 31  1  0  0  0
 14 15  2  0  0  0
 14100  1  0  0  0
 15101  1  0  0  0
 16 17  2  0  0  0
 16 21  1  0  0  0
 16 31  1  0  0  0
 17 18  1  0  0  0
 17102  1  0  0  0
 18 19  2  0  0  0
 18103  1  0  0  0
 19 20  1  0  0  0
 19 24  1  0  0  0
 20 21  2  0  0  0
 20104  1  0  0  0
 21 23  1  0  0  0
 22 28  1  0  0  0
 22 32  2  0  0  0
 26 27  1  0  0  0
 28105  1  0  0  0
 28106  1  0  0  0
 29107  1  0  0  0
 29108  1  0  0  0
 33 34  1  0  0  0
 33 66  1  0  0  0
 33 70  2  0  0  0
 34 36  1  0  0  0
 34 59  1  0  0  0
 34109  1  0  0  0
 35 44  2  0  0  0
 35 45  1  0  0  0
 35 68  1  0  0  0
 36 56  1  0  0  0
 36110  1  0  0  0
 37 39  1  0  0  0
 37 47  1  0  0  0
 37 66  1  0  0  0
 37111  1  0  0  0
 38 43  2  0  0  0
 38 46  1  0  0  0
 38 47  1  0  0  0
 39 64  1  0  0  0
 39 67  2  0  0  0
 40 52  1  0  0  0
 40 53  2  0  0  0
 40 58  1  0  0  0
 41112  1  0  0  0
 41113  1  0  0  0
 41114  1  0  0  0
 41 48  1  0  0  0
 42 43  1  0  0  0
 42 66  1  0  0  0
 42115  1  0  0  0
 42116  1  0  0  0
 43 44  1  0  0  0
 44117  1  0  0  0
 45 46  2  0  0  0
 45118  1  0  0  0
 46119  1  0  0  0
 47120  1  0  0  0
 47121  1  0  0  0
 48 56  1  0  0  0
 48 65  1  0  0  0
 48122  1  0  0  0
 49 50  1  0  0  0
 49 53  1  0  0  0
 49 64  1  0  0  0
 49123  1  0  0  0
 50 51  1  0  0  0
 50124  1  0  0  0
 50125  1  0  0  0
 51 52  1  0  0  0
 51126  1  0  0  0
 51127  1  0  0  0
 52128  1  0  0  0
 52129  1  0  0  0
 53 54  1  0  0  0
 54 55  2  0  0  0
 54130  1  0  0  0
 55 57  1  0  0  0
 55131  1  0  0  0
 56 69  2  0  0  0
 57 58  2  0  0  0
 57132  1  0  0  0
 58133  1  0  0  0
 59 60  1  0  0  0
 59 61  1  0  0  0
 59 62  1  0  0  0
 60134  1  0  0  0
 60135  1  0  0  0
 60136  1  0  0  0
 61137  1  0  0  0
 61138  1  0  0  0
 61139  1  0  0  0
 62140  1  0  0  0
 62141  1  0  0  0
 62142  1  0  0  0
 63 65  1  0  0  0
 63143  1  0  0  0
 63144  1  0  0  0
 63145  1  0  0  0
 64146  1  0  0  0
 65147  1  0  0  0
 68 84  1  0  0  0
 71 72  2  0  0  0
 71 73  1  0  0  0
 71148  1  0  0  0
 72 74  1  0  0  0
 72149  1  0  0  0
 73 76  2  0  0  0
 73150  1  0  0  0
 74 75  2  0  0  0
 74 83  1  0  0  0
 75 76  1  0  0  0
 75 82  1  0  0  0
 76 86  1  0  0  0
 77 79  1  0  0  0
 77 85  1  0  0  0
 77 87  2  0  0  0
 78 81  1  0  0  0
 78 85  1  0  0  0
 78 88  2  0  0  0
 79 80  1  0  0  0
 79151  1  0  0  0
 79152  1  0  0  0
 80 81  1  0  0  0
 80153  1  0  0  0
 80154  1  0  0  0
 81 84  1  0  0  0
 81155  1  0  0  0
 82156  1  0  0  0
 82157  1  0  0  0
 82158  1  0  0  0
 83 85  1  0  0  0
 83159  1  0  0  0
 83160  1  0  0  0
 84161  1  0  0  0
 84162  1  0  0  0
 86163  1  0  0  0
M  ISO  4   1 100  68 101  84 101  86 100
M  END
> <chiral flag>
0

> <version>
0

> <s_m_source_file>
/data/baiqing/PycharmProjects/Reinvent-master-3.2/result/LINK_invent/BTK/process_docking_weight1_custom_product_contain_oxygen_bond_distance_aromatic_linkinvent_7_9_3/rearranged_h_0062.sdf

> <i_m_source_file_index>
62

> <r_mmod_Potential_Energy-OPLS-2005>
-42.8316612243652

> <r_mmod_Stretch_Energy-OPLS-2005>
64.7730484008789

> <r_mmod_Bend_Energy-OPLS-2005>
134.595474243164

> <r_mmod_Torsional_Energy-OPLS-2005>
226.996139526367

> <r_mmod_Improper_Torsional_Energy-OPLS-2005>
4.25611305236816

> <r_mmod_Van_der_Waal_Energy-OPLS-2005>
177.076019287109

> <r_mmod_Electrostatic_Energy-OPLS-2005>
-448.877014160156

> <r_mmod_Solvation_Energy-OPLS-2005>
-230.944412231445

> <b_mmod_Minimization_Converged-OPLS-2005>
0

> <r_mmod_RMS_Derivative-OPLS-2005>
7.95614576339722

$$$$
62
                    3D
 Structure written by MMmdl.
154162  0  0  1  0            999 V2000
  -30.6235  -14.7189   20.4766 C   0  0  0  0  0  0
  -30.4340  -12.4427   19.4581 C   0  0  0  0  0  0
  -29.5107  -12.5158   18.2230 C   0  0  0  0  0  0
  -28.0302  -12.3520   18.6323 C   0  0  0  0  0  0
  -27.6420  -13.2344   19.8506 C   0  0  2  0  0  0
  -28.6906  -13.1504   20.9810 C   0  0  0  0  0  0
  -25.2502  -13.8208   20.5769 C   0  0  0  0  0  0
  -24.1772  -13.0462   20.9257 C   0  0  0  0  0  0
  -24.6349  -11.6930   20.8771 C   0  0  0  0  0  0
  -23.9014  -10.4318   21.0424 C   0  0  0  0  0  0
  -24.3572   -9.4232   21.9199 C   0  0  0  0  0  0
  -23.6277   -8.2250   22.0754 C   0  0  0  0  0  0
  -22.4271   -8.0287   21.3536 C   0  0  0  0  0  0
  -21.9898   -9.0266   20.4647 C   0  0  0  0  0  0
  -22.7194  -10.2162   20.3053 C   0  0  0  0  0  0
  -21.6844   -6.0737   22.5291 C   0  0  0  0  0  0
  -21.3994   -6.5635   23.8235 C   0  0  0  0  0  0
  -21.3673   -5.6767   24.9193 C   0  0  0  0  0  0
  -21.6047   -4.3027   24.7207 C   0  0  0  0  0  0
  -21.8823   -3.8139   23.4313 C   0  0  0  0  0  0
  -21.9188   -4.6964   22.3384 C   0  0  0  0  0  0
  -22.7805  -13.5274   21.1895 C   0  0  0  0  0  0
  -22.1660   -4.2164   21.0951 F   0  0  0  0  0  0
  -21.5656   -3.4492   25.7704 F   0  0  0  0  0  0
  -29.9903  -13.5020   20.3881 N   0  0  0  0  0  0
  -26.2927  -12.9414   20.3288 N   0  0  0  0  0  0
  -25.9283  -11.6564   20.5730 N   0  0  0  0  0  0
  -22.0347  -12.8314   22.0407 N   0  0  0  0  0  0
  -25.4216  -15.1938   20.4318 N   0  0  0  0  0  0
  -31.8228  -14.8220   20.2028 O   0  0  0  0  0  0
  -21.6626   -6.8882   21.4260 O   0  0  0  0  0  0
  -22.3530  -14.5592   20.6726 O   0  0  0  0  0  0
  -24.6322  -31.8571   23.1960 C   0  0  0  0  0  0
  -25.9134  -32.4763   23.8330 C   0  0  1  0  0  0
  -27.2117  -27.2372   20.1556 C   0  0  0  0  0  0
  -25.5920  -33.8557   24.2244 N   0  0  0  0  0  0
  -23.4286  -30.4786   21.5372 C   0  0  2  0  0  0
  -24.8754  -28.9217   20.1116 C   0  0  0  0  0  0
  -22.7550  -29.4604   22.4881 C   0  0  0  0  0  0
  -18.0308  -28.1408   22.8453 C   0  0  0  0  0  0
  -24.1483  -36.7258   23.2640 C   0  0  0  0  0  0
  -25.9786  -30.7608   21.3842 C   0  0  0  0  0  0
  -26.0486  -29.3825   20.7270 C   0  0  0  0  0  0
  -27.2173  -28.5525   20.7383 C   0  0  0  0  0  0
  -26.0208  -26.8578   19.4970 C   0  0  0  0  0  0
  -24.8690  -27.6675   19.4864 C   0  0  0  0  0  0
  -23.6484  -29.8107   20.1551 C   0  0  0  0  0  0
  -25.4114  -36.3054   24.0332 C   0  0  1  0  0  0
  -20.5912  -28.3726   23.1236 C   0  0  2  0  0  0
  -20.6763  -26.9426   22.5383 C   0  0  0  0  0  0
  -19.5731  -26.6371   21.5202 C   0  0  0  0  0  0
  -18.1927  -26.7924   22.1632 C   0  0  0  0  0  0
  -19.1558  -28.8885   23.2820 C   0  0  0  0  0  0
  -18.9487  -30.1508   23.8809 C   0  0  0  0  0  0
  -17.6467  -30.6582   24.0562 C   0  0  0  0  0  0
  -25.9072  -34.9440   23.5085 C   0  0  0  0  0  0
  -16.5369  -29.9058   23.6339 C   0  0  0  0  0  0
  -16.7299  -28.6508   23.0312 C   0  0  0  0  0  0
  -26.4481  -31.6610   25.0756 C   0  0  0  0  0  0
  -25.3690  -31.3774   26.1473 C   0  0  0  0  0  0
  -27.0368  -30.3010   24.6318 C   0  0  0  0  0  0
  -27.6018  -32.4382   25.7523 C   0  0  0  0  0  0
  -27.5592  -37.1764   24.8454 C   0  0  0  0  0  0
  -21.4254  -29.3052   22.3619 N   0  0  0  0  0  0
  -26.4261  -37.3770   23.9445 N   0  0  0  0  0  0
  -24.6972  -31.0524   22.0936 N   0  0  0  0  0  0
  -23.4250  -28.8152   23.2988 O   0  0  0  0  0  0
  -28.3012  -26.3283   20.2094 O   0  0  0  0  0  0
  -26.5663  -34.8913   22.4674 O   0  0  0  0  0  0
  -23.5459  -32.1421   23.7221 O   0  0  0  0  0  0
  -30.8214  -18.6206   23.0057 C   0  0  0  0  0  0
  -30.3915  -19.7939   22.3517 C   0  0  0  0  0  0
  -30.6674  -17.3409   22.4310 C   0  0  0  0  0  0
  -29.8145  -19.7576   21.0622 C   0  0  0  0  0  0
  -30.1138  -17.2032   21.1278 C   0  0  0  0  0  0
  -29.6998  -18.4331   20.4578 C   0  0  0  0  0  0
  -28.9566  -22.2198   20.9632 C   0  0  0  0  0  0
  -31.0582  -16.1350   23.2801 C   0  0  0  0  0  0
  -29.1546  -23.6864   20.3196 C   0  0  0  0  0  0
  -28.0374  -24.8615   20.5015 C   0  0  0  0  0  0
  -29.4850  -21.0561   20.4082 N   0  0  0  0  0  0
  -29.8287  -15.8438   20.6091 N   0  0  0  0  0  0
  -28.2960  -22.1421   22.0014 O   0  0  0  0  0  0
  -29.1659  -18.3326   19.2180 F   0  0  0  0  0  0
  -31.4796  -12.5689   19.1682 H   0  0  0  0  0  0
  -30.3740  -11.4638   19.9357 H   0  0  0  0  0  0
  -29.7929  -11.7524   17.4977 H   0  0  0  0  0  0
  -29.6495  -13.4791   17.7285 H   0  0  0  0  0  0
  -27.8642  -11.3027   18.8723 H   0  0  0  0  0  0
  -27.3783  -12.5736   17.7853 H   0  0  0  0  0  0
  -27.6366  -14.2617   19.4863 H   0  0  0  0  0  0
  -28.7140  -12.1474   21.4104 H   0  0  0  0  0  0
  -28.4312  -13.8217   21.8015 H   0  0  0  0  0  0
  -25.2703   -9.5736   22.4773 H   0  0  0  0  0  0
  -24.0017   -7.4625   22.7452 H   0  0  0  0  0  0
  -21.0853   -8.8770   19.8933 H   0  0  0  0  0  0
  -22.3659  -10.9703   19.6152 H   0  0  0  0  0  0
  -21.1964   -7.6140   23.9748 H   0  0  0  0  0  0
  -21.1509   -6.0474   25.9101 H   0  0  0  0  0  0
  -22.0585   -2.7600   23.2777 H   0  0  0  0  0  0
  -22.3862  -11.9989   22.4909 H   0  0  0  0  0  0
  -21.0969  -13.1453   22.2485 H   0  0  0  0  0  0
  -24.6615  -15.8496   20.5736 H   0  0  0  0  0  0
  -26.2686  -15.6406   20.1066 H   0  0  0  0  0  0
  -26.7231  -32.5380   23.1107 H   0  0  0  0  0  0
  -25.0084  -33.9701   25.0391 H   0  0  0  0  0  0
  -22.7213  -31.2979   21.3887 H   0  0  0  0  0  0
  -23.3769  -35.9569   23.3241 H   0  0  0  0  0  0
  -24.3577  -36.8934   22.2067 H   0  0  0  0  0  0
  -23.7217  -37.6423   23.6719 H   0  0  0  0  0  0
  -26.1333  -31.5227   20.6189 H   0  0  0  0  0  0
  -26.8460  -30.7972   22.0315 H   0  0  0  0  0  0
  -28.1087  -28.8925   21.2445 H   0  0  0  0  0  0
  -25.9467  -25.9110   18.9842 H   0  0  0  0  0  0
  -23.9706  -27.3089   18.9988 H   0  0  0  0  0  0
  -23.7702  -30.5821   19.3924 H   0  0  0  0  0  0
  -22.7643  -29.2458   19.8542 H   0  0  0  0  0  0
  -25.1287  -36.1863   25.0823 H   0  0  0  0  0  0
  -21.0023  -28.3297   24.1364 H   0  0  0  0  0  0
  -20.5626  -26.2380   23.3622 H   0  0  0  0  0  0
  -21.6631  -26.7396   22.1208 H   0  0  0  0  0  0
  -19.6870  -25.6268   21.1256 H   0  0  0  0  0  0
  -19.6631  -27.3164   20.6707 H   0  0  0  0  0  0
  -17.4192  -26.6687   21.4037 H   0  0  0  0  0  0
  -18.0299  -26.0089   22.9049 H   0  0  0  0  0  0
  -19.7967  -30.7357   24.2081 H   0  0  0  0  0  0
  -17.5028  -31.6230   24.5231 H   0  0  0  0  0  0
  -15.5356  -30.2933   23.7716 H   0  0  0  0  0  0
  -15.8712  -28.0842   22.6990 H   0  0  0  0  0  0
  -24.5802  -30.7217   25.7761 H   0  0  0  0  0  0
  -24.8982  -32.2975   26.4947 H   0  0  0  0  0  0
  -25.7973  -30.8868   27.0234 H   0  0  0  0  0  0
  -26.3008  -29.6725   24.1299 H   0  0  0  0  0  0
  -27.3954  -29.7302   25.4898 H   0  0  0  0  0  0
  -27.8919  -30.4225   23.9668 H   0  0  0  0  0  0
  -27.2583  -33.3650   26.2125 H   0  0  0  0  0  0
  -28.3807  -32.7008   25.0358 H   0  0  0  0  0  0
  -28.0757  -31.8547   26.5430 H   0  0  0  0  0  0
  -28.2529  -38.0128   24.7594 H   0  0  0  0  0  0
  -28.1153  -36.2670   24.6134 H   0  0  0  0  0  0
  -27.2339  -37.1221   25.8850 H   0  0  0  0  0  0
  -20.9469  -29.8876   21.6888 H   0  0  0  0  0  0
  -26.0120  -38.2835   24.1463 H   0  0  0  0  0  0
  -31.2607  -18.7123   23.9918 H   0  0  0  0  0  0
  -30.5302  -20.7370   22.8617 H   0  0  0  0  0  0
  -31.1112  -16.3833   24.3408 H   0  0  0  0  0  0
  -32.0308  -15.7428   22.9730 H   0  0  0  0  0  0
  -30.3201  -15.3377   23.1953 H   0  0  0  0  0  0
  -29.3911  -23.5724   19.2621 H   0  0  0  0  0  0
  -30.0678  -24.0611   20.7856 H   0  0  0  0  0  0
  -27.6971  -24.8227   21.5393 H   0  0  0  0  0  0
  -27.1851  -24.5195   19.9198 H   0  0  0  0  0  0
  -29.7982  -21.1330   19.4495 H   0  0  0  0  0  0
  -28.8457  -15.6690   20.4700 H   0  0  0  0  0  0
  1 25  1  0  0  0
  1 30  2  0  0  0
  1 82  1  0  0  0
  2  3  1  0  0  0
  2 25  1  0  0  0
  2 85  1  0  0  0
  2 86  1  0  0  0
  3  4  1  0  0  0
  3 87  1  0  0  0
  3 88  1  0  0  0
  4  5  1  0  0  0
  4 89  1  0  0  0
  4 90  1  0  0  0
  5  6  1  0  0  0
  5 26  1  0  0  0
  5 91  1  0  0  0
  6 25  1  0  0  0
  6 92  1  0  0  0
  6 93  1  0  0  0
  7  8  2  0  0  0
  7 26  1  0  0  0
  7 29  1  0  0  0
  8  9  1  0  0  0
  8 22  1  0  0  0
  9 10  1  0  0  0
  9 27  2  0  0  0
 10 11  2  0  0  0
 10 15  1  0  0  0
 11 12  1  0  0  0
 11 94  1  0  0  0
 12 13  2  0  0  0
 12 95  1  0  0  0
 13 14  1  0  0  0
 13 31  1  0  0  0
 14 15  2  0  0  0
 14 96  1  0  0  0
 15 97  1  0  0  0
 16 17  2  0  0  0
 16 21  1  0  0  0
 16 31  1  0  0  0
 17 18  1  0  0  0
 17 98  1  0  0  0
 18 19  2  0  0  0
 18 99  1  0  0  0
 19 20  1  0  0  0
 19 24  1  0  0  0
 20 21  2  0  0  0
 20100  1  0  0  0
 21 23  1  0  0  0
 22 28  1  0  0  0
 22 32  2  0  0  0
 26 27  1  0  0  0
 28101  1  0  0  0
 28102  1  0  0  0
 29103  1  0  0  0
 29104  1  0  0  0
 33 34  1  0  0  0
 33 66  1  0  0  0
 33 70  2  0  0  0
 34 36  1  0  0  0
 34 59  1  0  0  0
 34105  1  0  0  0
 35 44  2  0  0  0
 35 45  1  0  0  0
 35 68  1  0  0  0
 36 56  1  0  0  0
 36106  1  0  0  0
 37 39  1  0  0  0
 37 47  1  0  0  0
 37 66  1  0  0  0
 37107  1  0  0  0
 38 43  2  0  0  0
 38 46  1  0  0  0
 38 47  1  0  0  0
 39 64  1  0  0  0
 39 67  2  0  0  0
 40 52  1  0  0  0
 40 53  2  0  0  0
 40 58  1  0  0  0
 41108  1  0  0  0
 41109  1  0  0  0
 41110  1  0  0  0
 41 48  1  0  0  0
 42 43  1  0  0  0
 42 66  1  0  0  0
 42111  1  0  0  0
 42112  1  0  0  0
 43 44  1  0  0  0
 44113  1  0  0  0
 45 46  2  0  0  0
 45114  1  0  0  0
 46115  1  0  0  0
 47116  1  0  0  0
 47117  1  0  0  0
 48 56  1  0  0  0
 48 65  1  0  0  0
 48118  1  0  0  0
 49 50  1  0  0  0
 49 53  1  0  0  0
 49 64  1  0  0  0
 49119  1  0  0  0
 50 51  1  0  0  0
 50120  1  0  0  0
 50121  1  0  0  0
 51 52  1  0  0  0
 51122  1  0  0  0
 51123  1  0  0  0
 52124  1  0  0  0
 52125  1  0  0  0
 53 54  1  0  0  0
 54 55  2  0  0  0
 54126  1  0  0  0
 55 57  1  0  0  0
 55127  1  0  0  0
 56 69  2  0  0  0
 57 58  2  0  0  0
 57128  1  0  0  0
 58129  1  0  0  0
 59 60  1  0  0  0
 59 61  1  0  0  0
 59 62  1  0  0  0
 60130  1  0  0  0
 60131  1  0  0  0
 60132  1  0  0  0
 61133  1  0  0  0
 61134  1  0  0  0
 61135  1  0  0  0
 62136  1  0  0  0
 62137  1  0  0  0
 62138  1  0  0  0
 63 65  1  0  0  0
 63139  1  0  0  0
 63140  1  0  0  0
 63141  1  0  0  0
 64142  1  0  0  0
 65143  1  0  0  0
 68 80  1  0  0  0
 71 72  2  0  0  0
 71 73  1  0  0  0
 71144  1  0  0  0
 72 74  1  0  0  0
 72145  1  0  0  0
 73 75  2  0  0  0
 73 78  1  0  0  0
 74 76  2  0  0  0
 74 81  1  0  0  0
 75 76  1  0  0  0
 75 82  1  0  0  0
 76 84  1  0  0  0
 77 79  1  0  0  0
 77 81  1  0  0  0
 77 83  2  0  0  0
 78146  1  0  0  0
 78147  1  0  0  0
 78148  1  0  0  0
 79 80  1  0  0  0
 79149  1  0  0  0
 79150  1  0  0  0
 80151  1  0  0  0
 80152  1  0  0  0
 81153  1  0  0  0
 82154  1  0  0  0
M  ISO  4   1 100  68 101  80 101  82 100
M  END
> <chiral flag>
0

> <version>
0

> <s_m_source_file>
/data/baiqing/PycharmProjects/Reinvent-master-3.2/result/LINK_invent/BTK/process_docking_weight1_custom_product_contain_oxygen_bond_distance_aromatic_linkinvent_7_9_3/rearranged_h_0062.sdf

> <i_m_source_file_index>
63

> <r_mmod_Potential_Energy-OPLS-2005>
139.271560668945

> <r_mmod_Stretch_Energy-OPLS-2005>
132.22395324707

> <r_mmod_Bend_Energy-OPLS-2005>
159.476516723633

> <r_mmod_Torsional_Energy-OPLS-2005>
276.685150146484

> <r_mmod_Improper_Torsional_Energy-OPLS-2005>
7.53435516357422

> <r_mmod_Van_der_Waal_Energy-OPLS-2005>
139.484313964844

> <r_mmod_Electrostatic_Energy-OPLS-2005>
-439.535003662109

> <r_mmod_Solvation_Energy-OPLS-2005>
-224.981658935547

> <b_mmod_Minimization_Converged-OPLS-2005>
0

> <r_mmod_RMS_Derivative-OPLS-2005>
5.1079158782959

$$$$
63
                    3D
 Structure written by MMmdl.
158167  0  0  1  0            999 V2000
  -30.6195  -14.6268   20.5099 C   0  0  0  0  0  0
  -30.4412  -12.3857   19.4477 C   0  0  0  0  0  0
  -29.5079  -12.5091   18.2220 C   0  0  0  0  0  0
  -28.0301  -12.3476   18.6333 C   0  0  0  0  0  0
  -27.6554  -13.2125   19.8658 C   0  0  2  0  0  0
  -28.7003  -13.0520   20.9937 C   0  0  0  0  0  0
  -25.2572  -13.8161   20.5680 C   0  0  0  0  0  0
  -24.1835  -13.0436   20.9196 C   0  0  0  0  0  0
  -24.6395  -11.6905   20.8744 C   0  0  0  0  0  0
  -23.9061  -10.4291   21.0409 C   0  0  0  0  0  0
  -24.3613   -9.4206   21.9185 C   0  0  0  0  0  0
  -23.6290   -8.2241   22.0753 C   0  0  0  0  0  0
  -22.4273   -8.0279   21.3543 C   0  0  0  0  0  0
  -21.9907   -9.0253   20.4646 C   0  0  0  0  0  0
  -22.7235  -10.2133   20.3056 C   0  0  0  0  0  0
  -21.6851   -6.0734   22.5279 C   0  0  0  0  0  0
  -21.4013   -6.5639   23.8213 C   0  0  0  0  0  0
  -21.3660   -5.6792   24.9176 C   0  0  0  0  0  0
  -21.6045   -4.3054   24.7227 C   0  0  0  0  0  0
  -21.8819   -3.8146   23.4348 C   0  0  0  0  0  0
  -21.9193   -4.6962   22.3404 C   0  0  0  0  0  0
  -22.7859  -13.5234   21.1860 C   0  0  0  0  0  0
  -22.1662   -4.2148   21.0981 F   0  0  0  0  0  0
  -21.5630   -3.4538   25.7739 F   0  0  0  0  0  0
  -30.0177  -13.3981   20.4342 N   0  0  0  0  0  0
  -26.2997  -12.9333   20.3323 N   0  0  0  0  0  0
  -25.9321  -11.6493   20.5757 N   0  0  0  0  0  0
  -22.0496  -12.8224   22.0412 N   0  0  0  0  0  0
  -25.4291  -15.1879   20.4062 N   0  0  0  0  0  0
  -31.7781  -14.8012   20.1202 O   0  0  0  0  0  0
  -21.6638   -6.8877   21.4241 O   0  0  0  0  0  0
  -22.3547  -14.5542   20.6710 O   0  0  0  0  0  0
  -24.6250  -31.8608   23.2037 C   0  0  0  0  0  0
  -25.9099  -32.4789   23.8363 C   0  0  1  0  0  0
  -27.2257  -27.3323   20.1128 C   0  0  0  0  0  0
  -25.5916  -33.8588   24.2291 N   0  0  0  0  0  0
  -23.4181  -30.4852   21.5461 C   0  0  2  0  0  0
  -24.8644  -28.9439   20.1109 C   0  0  0  0  0  0
  -22.7468  -29.4631   22.4941 C   0  0  0  0  0  0
  -18.0287  -28.1384   22.8494 C   0  0  0  0  0  0
  -24.1486  -36.7297   23.2639 C   0  0  0  0  0  0
  -25.9584  -30.7967   21.3721 C   0  0  0  0  0  0
  -26.0333  -29.4254   20.7139 C   0  0  0  0  0  0
  -27.2172  -28.6314   20.7051 C   0  0  0  0  0  0
  -26.0325  -26.9026   19.4853 C   0  0  0  0  0  0
  -24.8652  -27.6874   19.4883 C   0  0  0  0  0  0
  -23.6317  -29.8218   20.1607 C   0  0  0  0  0  0
  -25.4111  -36.3091   24.0333 C   0  0  1  0  0  0
  -20.5886  -28.3685   23.1288 C   0  0  2  0  0  0
  -20.6775  -26.9409   22.5411 C   0  0  0  0  0  0
  -19.5750  -26.6387   21.5212 C   0  0  0  0  0  0
  -18.1930  -26.7931   22.1626 C   0  0  0  0  0  0
  -19.1538  -28.8850   23.2889 C   0  0  0  0  0  0
  -18.9463  -30.1454   23.8904 C   0  0  0  0  0  0
  -17.6463  -30.6589   24.0565 C   0  0  0  0  0  0
  -25.9046  -34.9459   23.5114 C   0  0  0  0  0  0
  -16.5354  -29.9090   23.6329 C   0  0  0  0  0  0
  -16.7274  -28.6505   23.0355 C   0  0  0  0  0  0
  -26.4488  -31.6590   25.0724 C   0  0  0  0  0  0
  -25.3727  -31.3721   26.1452 C   0  0  0  0  0  0
  -27.0326  -30.3020   24.6156 C   0  0  0  0  0  0
  -27.6051  -32.4318   25.7495 C   0  0  0  0  0  0
  -27.5579  -37.1806   24.8467 C   0  0  0  0  0  0
  -21.4183  -29.3044   22.3685 N   0  0  0  0  0  0
  -26.4291  -37.3781   23.9408 N   0  0  0  0  0  0
  -24.6860  -31.0634   22.0980 N   0  0  0  0  0  0
  -23.4198  -28.8167   23.3011 O   0  0  0  0  0  0
  -28.3478  -26.4913   20.1642 O   0  0  0  0  0  0
  -26.5614  -34.8923   22.4680 O   0  0  0  0  0  0
  -23.5416  -32.1399   23.7375 O   0  0  0  0  0  0
  -31.0125  -19.2874   20.4119 C   0  0  0  0  0  0
  -31.0188  -17.8596   20.4061 C   0  0  0  0  0  0
  -28.7265  -17.8794   21.1346 C   0  0  0  0  0  0
  -29.8744  -20.0530   20.8060 C   0  0  0  0  0  0
  -29.8756  -17.1126   20.7940 C   0  0  0  0  0  0
  -28.7173  -19.3052   21.1412 C   0  0  0  0  0  0
  -30.7885  -21.9591   21.9832 C   0  0  0  0  0  0
  -30.9430  -23.4633   22.2576 C   0  0  0  0  0  0
  -29.7071  -24.3019   21.9205 C   0  0  0  0  0  0
  -28.9776  -22.4722   20.3576 C   0  0  0  0  0  0
  -29.2769  -24.0367   20.4821 C   0  0  1  0  0  0
  -28.1222  -25.0346   20.0482 C   0  0  0  0  0  0
  -29.9509  -21.5108   21.0042 N   0  0  0  0  0  0
  -29.7943  -15.6536   20.8837 N   0  0  0  0  0  0
  -31.4787  -21.2021   22.6760 O   0  0  0  0  0  0
  -27.5930  -19.9493   21.5366 F   0  0  0  0  0  0
  -31.4818  -12.5158   19.1448 H   0  0  0  0  0  0
  -30.3789  -11.3864   19.8811 H   0  0  0  0  0  0
  -29.7703  -11.7622   17.4716 H   0  0  0  0  0  0
  -29.6512  -13.4815   17.7477 H   0  0  0  0  0  0
  -27.8641  -11.2936   18.8589 H   0  0  0  0  0  0
  -27.3761  -12.5842   17.7933 H   0  0  0  0  0  0
  -27.6777  -14.2500   19.5323 H   0  0  0  0  0  0
  -28.7093  -12.0251   21.3622 H   0  0  0  0  0  0
  -28.4458  -13.6706   21.8557 H   0  0  0  0  0  0
  -25.2758   -9.5683   22.4759 H   0  0  0  0  0  0
  -24.0003   -7.4630   22.7467 H   0  0  0  0  0  0
  -21.0841   -8.8771   19.8948 H   0  0  0  0  0  0
  -22.3695  -10.9672   19.6165 H   0  0  0  0  0  0
  -21.2002   -7.6147   23.9717 H   0  0  0  0  0  0
  -21.1483   -6.0521   25.9080 H   0  0  0  0  0  0
  -22.0598   -2.7608   23.2848 H   0  0  0  0  0  0
  -22.4106  -11.9881   22.4797 H   0  0  0  0  0  0
  -21.1112  -13.1250   22.2616 H   0  0  0  0  0  0
  -24.6556  -15.8377   20.4976 H   0  0  0  0  0  0
  -26.2631  -15.6182   20.0282 H   0  0  0  0  0  0
  -26.7167  -32.5464   23.1113 H   0  0  0  0  0  0
  -25.0062  -33.9736   25.0434 H   0  0  0  0  0  0
  -22.7118  -31.3058   21.4046 H   0  0  0  0  0  0
  -23.3749  -35.9628   23.3307 H   0  0  0  0  0  0
  -24.3579  -36.8909   22.2052 H   0  0  0  0  0  0
  -23.7238  -37.6502   23.6654 H   0  0  0  0  0  0
  -26.0865  -31.5610   20.6044 H   0  0  0  0  0  0
  -26.8402  -30.8466   21.9991 H   0  0  0  0  0  0
  -28.1140  -28.9968   21.1860 H   0  0  0  0  0  0
  -25.9710  -25.9443   18.9922 H   0  0  0  0  0  0
  -23.9696  -27.3132   19.0114 H   0  0  0  0  0  0
  -23.7499  -30.5988   19.4045 H   0  0  0  0  0  0
  -22.7523  -29.2499   19.8585 H   0  0  0  0  0  0
  -25.1293  -36.1948   25.0826 H   0  0  0  0  0  0
  -20.9984  -28.3254   24.1405 H   0  0  0  0  0  0
  -20.5672  -26.2292   23.3607 H   0  0  0  0  0  0
  -21.6644  -26.7440   22.1200 H   0  0  0  0  0  0
  -19.6905  -25.6298   21.1238 H   0  0  0  0  0  0
  -19.6684  -27.3203   20.6744 H   0  0  0  0  0  0
  -17.4198  -26.6681   21.4030 H   0  0  0  0  0  0
  -18.0331  -26.0075   22.9023 H   0  0  0  0  0  0
  -19.7937  -30.7271   24.2275 H   0  0  0  0  0  0
  -17.5017  -31.6270   24.5166 H   0  0  0  0  0  0
  -15.5354  -30.2994   23.7649 H   0  0  0  0  0  0
  -15.8674  -28.0825   22.7067 H   0  0  0  0  0  0
  -24.5907  -30.7061   25.7784 H   0  0  0  0  0  0
  -24.8909  -32.2882   26.4875 H   0  0  0  0  0  0
  -25.8059  -30.8905   27.0227 H   0  0  0  0  0  0
  -26.2892  -29.6778   24.1183 H   0  0  0  0  0  0
  -27.4040  -29.7264   25.4645 H   0  0  0  0  0  0
  -27.8753  -30.4318   23.9364 H   0  0  0  0  0  0
  -27.2665  -33.3618   26.2075 H   0  0  0  0  0  0
  -28.3862  -32.6875   25.0323 H   0  0  0  0  0  0
  -28.0715  -31.8437   26.5409 H   0  0  0  0  0  0
  -28.2603  -38.0096   24.7514 H   0  0  0  0  0  0
  -28.1071  -36.2632   24.6298 H   0  0  0  0  0  0
  -27.2300  -37.1461   25.8870 H   0  0  0  0  0  0
  -20.9353  -29.8777   21.6910 H   0  0  0  0  0  0
  -26.0178  -38.2859   24.1406 H   0  0  0  0  0  0
  -31.9269  -19.8030   20.1542 H   0  0  0  0  0  0
  -31.9307  -17.3512   20.1269 H   0  0  0  0  0  0
  -27.8204  -17.3723   21.4319 H   0  0  0  0  0  0
  -31.7982  -23.8182   21.6818 H   0  0  0  0  0  0
  -31.2009  -23.6071   23.3074 H   0  0  0  0  0  0
  -29.9371  -25.3592   22.0579 H   0  0  0  0  0  0
  -28.8926  -24.0695   22.6087 H   0  0  0  0  0  0
  -28.8864  -22.2086   19.3036 H   0  0  0  0  0  0
  -27.9984  -22.2810   20.7962 H   0  0  0  0  0  0
  -30.1291  -24.2560   19.8368 H   0  0  0  0  0  0
  -27.2390  -24.7745   20.6345 H   0  0  0  0  0  0
  -27.8794  -24.8149   19.0081 H   0  0  0  0  0  0
  -28.8995  -15.3095   21.1962 H   0  0  0  0  0  0
  1 25  1  0  0  0
  1 30  2  0  0  0
  1 84  1  0  0  0
  2  3  1  0  0  0
  2 25  1  0  0  0
  2 87  1  0  0  0
  2 88  1  0  0  0
  3  4  1  0  0  0
  3 89  1  0  0  0
  3 90  1  0  0  0
  4  5  1  0  0  0
  4 91  1  0  0  0
  4 92  1  0  0  0
  5  6  1  0  0  0
  5 26  1  0  0  0
  5 93  1  0  0  0
  6 25  1  0  0  0
  6 94  1  0  0  0
  6 95  1  0  0  0
  7  8  2  0  0  0
  7 26  1  0  0  0
  7 29  1  0  0  0
  8  9  1  0  0  0
  8 22  1  0  0  0
  9 10  1  0  0  0
  9 27  2  0  0  0
 10 11  2  0  0  0
 10 15  1  0  0  0
 11 12  1  0  0  0
 11 96  1  0  0  0
 12 13  2  0  0  0
 12 97  1  0  0  0
 13 14  1  0  0  0
 13 31  1  0  0  0
 14 15  2  0  0  0
 14 98  1  0  0  0
 15 99  1  0  0  0
 16 17  2  0  0  0
 16 21  1  0  0  0
 16 31  1  0  0  0
 17 18  1  0  0  0
 17100  1  0  0  0
 18 19  2  0  0  0
 18101  1  0  0  0
 19 20  1  0  0  0
 19 24  1  0  0  0
 20 21  2  0  0  0
 20102  1  0  0  0
 21 23  1  0  0  0
 22 28  1  0  0  0
 22 32  2  0  0  0
 26 27  1  0  0  0
 28103  1  0  0  0
 28104  1  0  0  0
 29105  1  0  0  0
 29106  1  0  0  0
 33 34  1  0  0  0
 33 66  1  0  0  0
 33 70  2  0  0  0
 34 36  1  0  0  0
 34 59  1  0  0  0
 34107  1  0  0  0
 35 44  2  0  0  0
 35 45  1  0  0  0
 35 68  1  0  0  0
 36 56  1  0  0  0
 36108  1  0  0  0
 37 39  1  0  0  0
 37 47  1  0  0  0
 37 66  1  0  0  0
 37109  1  0  0  0
 38 43  2  0  0  0
 38 46  1  0  0  0
 38 47  1  0  0  0
 39 64  1  0  0  0
 39 67  2  0  0  0
 40 52  1  0  0  0
 40 53  2  0  0  0
 40 58  1  0  0  0
 41110  1  0  0  0
 41111  1  0  0  0
 41112  1  0  0  0
 41 48  1  0  0  0
 42 43  1  0  0  0
 42 66  1  0  0  0
 42113  1  0  0  0
 42114  1  0  0  0
 43 44  1  0  0  0
 44115  1  0  0  0
 45 46  2  0  0  0
 45116  1  0  0  0
 46117  1  0  0  0
 47118  1  0  0  0
 47119  1  0  0  0
 48 56  1  0  0  0
 48 65  1  0  0  0
 48120  1  0  0  0
 49 50  1  0  0  0
 49 53  1  0  0  0
 49 64  1  0  0  0
 49121  1  0  0  0
 50 51  1  0  0  0
 50122  1  0  0  0
 50123  1  0  0  0
 51 52  1  0  0  0
 51124  1  0  0  0
 51125  1  0  0  0
 52126  1  0  0  0
 52127  1  0  0  0
 53 54  1  0  0  0
 54 55  2  0  0  0
 54128  1  0  0  0
 55 57  1  0  0  0
 55129  1  0  0  0
 56 69  2  0  0  0
 57 58  2  0  0  0
 57130  1  0  0  0
 58131  1  0  0  0
 59 60  1  0  0  0
 59 61  1  0  0  0
 59 62  1  0  0  0
 60132  1  0  0  0
 60133  1  0  0  0
 60134  1  0  0  0
 61135  1  0  0  0
 61136  1  0  0  0
 61137  1  0  0  0
 62138  1  0  0  0
 62139  1  0  0  0
 62140  1  0  0  0
 63 65  1  0  0  0
 63141  1  0  0  0
 63142  1  0  0  0
 63143  1  0  0  0
 64144  1  0  0  0
 65145  1  0  0  0
 68 82  1  0  0  0
 71 72  2  0  0  0
 71 74  1  0  0  0
 71146  1  0  0  0
 72 75  1  0  0  0
 72147  1  0  0  0
 73 75  2  0  0  0
 73 76  1  0  0  0
 73148  1  0  0  0
 74 76  2  0  0  0
 74 83  1  0  0  0
 75 84  1  0  0  0
 76 86  1  0  0  0
 77 78  1  0  0  0
 77 83  1  0  0  0
 77 85  2  0  0  0
 78 79  1  0  0  0
 78149  1  0  0  0
 78150  1  0  0  0
 79 81  1  0  0  0
 79151  1  0  0  0
 79152  1  0  0  0
 80 81  1  0  0  0
 80 83  1  0  0  0
 80153  1  0  0  0
 80154  1  0  0  0
 81 82  1  0  0  0
 81155  1  0  0  0
 82156  1  0  0  0
 82157  1  0  0  0
 84158  1  0  0  0
M  ISO  4   1 100  68 101  82 101  84 100
M  END
> <chiral flag>
0

> <version>
0

> <s_m_source_file>
/data/baiqing/PycharmProjects/Reinvent-master-3.2/result/LINK_invent/BTK/process_docking_weight1_custom_product_contain_oxygen_bond_distance_aromatic_linkinvent_7_9_3/rearranged_h_0062.sdf

> <i_m_source_file_index>
64

> <r_mmod_Potential_Energy-OPLS-2005>
130.146621704102

> <r_mmod_Stretch_Energy-OPLS-2005>
81.8280258178711

> <r_mmod_Bend_Energy-OPLS-2005>
136.918045043945

> <r_mmod_Torsional_Energy-OPLS-2005>
279.040435791016

> <r_mmod_Improper_Torsional_Energy-OPLS-2005>
5.18807792663574

> <r_mmod_Van_der_Waal_Energy-OPLS-2005>
156.993301391602

> <r_mmod_Electrostatic_Energy-OPLS-2005>
-356.124206542969

> <r_mmod_Solvation_Energy-OPLS-2005>
-217.458038330078

> <b_mmod_Minimization_Converged-OPLS-2005>
0

> <r_mmod_RMS_Derivative-OPLS-2005>
0.399393945932388

$$$$
64
                    3D
 Structure written by MMmdl.
168177  0  0  1  0            999 V2000
  -30.7090  -14.4896   20.6128 C   0  0  0  0  0  0
  -30.4302  -12.3381   19.4219 C   0  0  0  0  0  0
  -29.4985  -12.5172   18.2068 C   0  0  0  0  0  0
  -28.0195  -12.3704   18.6166 C   0  0  0  0  0  0
  -27.6611  -13.2115   19.8707 C   0  0  2  0  0  0
  -28.7002  -12.9998   20.9945 C   0  0  0  0  0  0
  -25.2582  -13.8164   20.5636 C   0  0  0  0  0  0
  -24.1841  -13.0423   20.9181 C   0  0  0  0  0  0
  -24.6405  -11.6897   20.8720 C   0  0  0  0  0  0
  -23.9074  -10.4277   21.0399 C   0  0  0  0  0  0
  -24.3625   -9.4199   21.9177 C   0  0  0  0  0  0
  -23.6285   -8.2238   22.0758 C   0  0  0  0  0  0
  -22.4271   -8.0282   21.3551 C   0  0  0  0  0  0
  -21.9909   -9.0251   20.4654 C   0  0  0  0  0  0
  -22.7243  -10.2121   20.3054 C   0  0  0  0  0  0
  -21.6850   -6.0730   22.5278 C   0  0  0  0  0  0
  -21.3995   -6.5629   23.8204 C   0  0  0  0  0  0
  -21.3651   -5.6785   24.9170 C   0  0  0  0  0  0
  -21.6041   -4.3047   24.7211 C   0  0  0  0  0  0
  -21.8830   -3.8135   23.4337 C   0  0  0  0  0  0
  -21.9196   -4.6956   22.3400 C   0  0  0  0  0  0
  -22.7866  -13.5230   21.1835 C   0  0  0  0  0  0
  -22.1668   -4.2137   21.0988 F   0  0  0  0  0  0
  -21.5628   -3.4538   25.7728 F   0  0  0  0  0  0
  -30.0335  -13.3157   20.4508 N   0  0  0  0  0  0
  -26.3023  -12.9328   20.3315 N   0  0  0  0  0  0
  -25.9332  -11.6482   20.5722 N   0  0  0  0  0  0
  -22.0516  -12.8202   22.0390 N   0  0  0  0  0  0
  -25.4279  -15.1859   20.4003 N   0  0  0  0  0  0
  -31.8123  -14.6849   20.0924 O   0  0  0  0  0  0
  -21.6638   -6.8874   21.4239 O   0  0  0  0  0  0
  -22.3536  -14.5540   20.6708 O   0  0  0  0  0  0
  -24.6102  -31.8663   23.2066 C   0  0  0  0  0  0
  -25.9010  -32.4800   23.8343 C   0  0  1  0  0  0
  -27.2424  -27.4370   20.0790 C   0  0  0  0  0  0
  -25.5906  -33.8599   24.2299 N   0  0  0  0  0  0
  -23.3995  -30.4949   21.5392 C   0  0  2  0  0  0
  -24.8498  -28.9554   20.1106 C   0  0  0  0  0  0
  -22.7403  -29.4649   22.4863 C   0  0  0  0  0  0
  -18.0279  -28.1375   22.8512 C   0  0  0  0  0  0
  -24.1505  -36.7272   23.2642 C   0  0  0  0  0  0
  -25.9295  -30.8288   21.3665 C   0  0  0  0  0  0
  -26.0036  -29.4615   20.7157 C   0  0  0  0  0  0
  -27.1961  -28.7036   20.7042 C   0  0  0  0  0  0
  -26.0657  -26.9392   19.4722 C   0  0  0  0  0  0
  -24.8715  -27.6910   19.4950 C   0  0  0  0  0  0
  -23.6173  -29.8310   20.1519 C   0  0  0  0  0  0
  -25.4117  -36.3049   24.0328 C   0  0  1  0  0  0
  -20.5877  -28.3651   23.1331 C   0  0  2  0  0  0
  -20.6783  -26.9386   22.5436 C   0  0  0  0  0  0
  -19.5753  -26.6374   21.5238 C   0  0  0  0  0  0
  -18.1910  -26.7932   22.1621 C   0  0  0  0  0  0
  -19.1534  -28.8816   23.2939 C   0  0  0  0  0  0
  -18.9477  -30.1427   23.8944 C   0  0  0  0  0  0
  -17.6487  -30.6592   24.0573 C   0  0  0  0  0  0
  -25.9030  -34.9441   23.5090 C   0  0  0  0  0  0
  -16.5374  -29.9107   23.6330 C   0  0  0  0  0  0
  -16.7270  -28.6520   23.0342 C   0  0  0  0  0  0
  -26.4492  -31.6553   25.0639 C   0  0  0  0  0  0
  -25.3801  -31.3647   26.1404 C   0  0  0  0  0  0
  -27.0345  -30.3019   24.5946 C   0  0  0  0  0  0
  -27.6037  -32.4274   25.7424 C   0  0  0  0  0  0
  -27.5576  -37.1774   24.8472 C   0  0  0  0  0  0
  -21.4119  -29.3046   22.3690 N   0  0  0  0  0  0
  -26.4285  -37.3752   23.9420 N   0  0  0  0  0  0
  -24.6626  -31.0773   22.0960 N   0  0  0  0  0  0
  -23.4211  -28.8175   23.2856 O   0  0  0  0  0  0
  -28.4512  -26.7697   20.1011 O   0  0  0  0  0  0
  -26.5592  -34.8914   22.4647 O   0  0  0  0  0  0
  -23.5300  -32.1405   23.7482 O   0  0  0  0  0  0
  -32.1207  -18.4931   22.0980 C   0  0  0  0  0  0
  -31.1344  -19.4863   22.2204 C   0  0  0  0  0  0
  -31.7613  -17.1757   21.7717 C   0  0  0  0  0  0
  -29.7714  -19.2040   21.9736 C   0  0  0  0  0  0
  -29.4105  -17.8553   21.6288 C   0  0  0  0  0  0
  -30.4107  -16.8304   21.5357 C   0  0  0  0  0  0
  -27.4787  -22.2504   21.2858 C   0  0  0  0  0  0
  -26.5378  -18.8982   19.7614 C   0  0  0  0  0  0
  -27.5181  -18.0069   19.9704 C   0  0  0  0  0  0
  -27.3910  -23.5117   20.4020 C   0  0  0  0  0  0
  -29.8430  -23.3494   19.9666 C   0  0  0  0  0  0
  -29.9029  -22.0433   20.7918 C   0  0  0  0  0  0
  -28.7041  -24.3056   20.3582 C   0  0  1  0  0  0
  -27.9519  -17.5096   21.3339 C   0  0  0  0  0  0
  -28.7269  -20.3325   22.2324 C   0  0  0  0  0  0
  -28.6615  -25.5358   19.4061 C   0  0  0  0  0  0
  -28.6357  -21.5307   21.3423 N   0  0  0  0  0  0
  -30.0450  -15.4573   21.2876 N   0  0  0  0  0  0
  -26.4630  -21.9323   21.9121 O   0  0  0  0  0  0
  -31.4703  -12.4563   19.1141 H   0  0  0  0  0  0
  -30.3558  -11.3247   19.8188 H   0  0  0  0  0  0
  -29.7441  -11.7879   17.4348 H   0  0  0  0  0  0
  -29.6619  -13.5009   17.7632 H   0  0  0  0  0  0
  -27.8320  -11.3126   18.8062 H   0  0  0  0  0  0
  -27.3740  -12.6468   17.7830 H   0  0  0  0  0  0
  -27.7030  -14.2599   19.5708 H   0  0  0  0  0  0
  -28.6834  -11.9635   21.3338 H   0  0  0  0  0  0
  -28.4425  -13.5933   21.8728 H   0  0  0  0  0  0
  -25.2789   -9.5645   22.4728 H   0  0  0  0  0  0
  -23.9980   -7.4633   22.7485 H   0  0  0  0  0  0
  -21.0831   -8.8792   19.8956 H   0  0  0  0  0  0
  -22.3740  -10.9660   19.6142 H   0  0  0  0  0  0
  -21.1969   -7.6133   23.9695 H   0  0  0  0  0  0
  -21.1456   -6.0514   25.9062 H   0  0  0  0  0  0
  -22.0609   -2.7595   23.2852 H   0  0  0  0  0  0
  -22.4121  -11.9846   22.4740 H   0  0  0  0  0  0
  -21.1140  -13.1212   22.2622 H   0  0  0  0  0  0
  -24.6605  -15.8401   20.5116 H   0  0  0  0  0  0
  -26.2610  -15.6215   20.0253 H   0  0  0  0  0  0
  -26.7026  -32.5538   23.1049 H   0  0  0  0  0  0
  -25.0171  -33.9785   25.0516 H   0  0  0  0  0  0
  -22.6878  -31.3103   21.3930 H   0  0  0  0  0  0
  -23.3789  -35.9588   23.3279 H   0  0  0  0  0  0
  -24.3610  -36.8900   22.2063 H   0  0  0  0  0  0
  -23.7255  -37.6458   23.6687 H   0  0  0  0  0  0
  -26.0445  -31.5967   20.6001 H   0  0  0  0  0  0
  -26.8170  -30.8819   21.9819 H   0  0  0  0  0  0
  -28.0912  -29.0880   21.1709 H   0  0  0  0  0  0
  -26.0475  -25.9837   18.9715 H   0  0  0  0  0  0
  -23.9806  -27.2981   19.0268 H   0  0  0  0  0  0
  -23.7555  -30.6121   19.4033 H   0  0  0  0  0  0
  -22.7420  -29.2664   19.8254 H   0  0  0  0  0  0
  -25.1297  -36.1865   25.0824 H   0  0  0  0  0  0
  -20.9991  -28.3220   24.1434 H   0  0  0  0  0  0
  -20.5693  -26.2249   23.3620 H   0  0  0  0  0  0
  -21.6643  -26.7429   22.1199 H   0  0  0  0  0  0
  -19.6921  -25.6290   21.1249 H   0  0  0  0  0  0
  -19.6711  -27.3222   20.6822 H   0  0  0  0  0  0
  -17.4199  -26.6749   21.3999 H   0  0  0  0  0  0
  -18.0251  -26.0042   22.8979 H   0  0  0  0  0  0
  -19.7974  -30.7246   24.2315 H   0  0  0  0  0  0
  -17.5055  -31.6281   24.5161 H   0  0  0  0  0  0
  -15.5379  -30.3044   23.7634 H   0  0  0  0  0  0
  -15.8656  -28.0886   22.7013 H   0  0  0  0  0  0
  -24.5972  -30.6975   25.7768 H   0  0  0  0  0  0
  -24.9033  -32.2829   26.4853 H   0  0  0  0  0  0
  -25.8207  -30.8829   27.0150 H   0  0  0  0  0  0
  -26.2861  -29.6697   24.1151 H   0  0  0  0  0  0
  -27.4376  -29.7267   25.4297 H   0  0  0  0  0  0
  -27.8561  -30.4381   23.8906 H   0  0  0  0  0  0
  -27.2621  -33.3577   26.1982 H   0  0  0  0  0  0
  -28.3899  -32.6819   25.0295 H   0  0  0  0  0  0
  -28.0644  -31.8407   26.5376 H   0  0  0  0  0  0
  -28.2537  -38.0127   24.7518 H   0  0  0  0  0  0
  -28.1123  -36.2637   24.6273 H   0  0  0  0  0  0
  -27.2303  -37.1347   25.8883 H   0  0  0  0  0  0
  -20.9187  -29.8850   21.7037 H   0  0  0  0  0  0
  -26.0146  -38.2799   24.1510 H   0  0  0  0  0  0
  -33.1578  -18.7386   22.2853 H   0  0  0  0  0  0
  -31.4450  -20.4723   22.5358 H   0  0  0  0  0  0
  -32.5443  -16.4325   21.7323 H   0  0  0  0  0  0
  -26.2726  -19.2107   18.7614 H   0  0  0  0  0  0
  -25.9905  -19.3310   20.5871 H   0  0  0  0  0  0
  -28.0543  -17.5975   19.1250 H   0  0  0  0  0  0
  -26.5969  -24.1609   20.7740 H   0  0  0  0  0  0
  -27.0888  -23.2022   19.3998 H   0  0  0  0  0  0
  -29.7710  -23.1087   18.9060 H   0  0  0  0  0  0
  -30.7935  -23.8736   20.0903 H   0  0  0  0  0  0
  -30.5553  -22.2314   21.6417 H   0  0  0  0  0  0
  -30.3788  -21.2669   20.1910 H   0  0  0  0  0  0
  -28.9125  -24.6658   21.3676 H   0  0  0  0  0  0
  -27.2950  -17.8837   22.1181 H   0  0  0  0  0  0
  -27.7789  -16.4368   21.3572 H   0  0  0  0  0  0
  -28.9346  -20.7130   23.2325 H   0  0  0  0  0  0
  -27.7377  -19.8974   22.3360 H   0  0  0  0  0  0
  -28.0250  -25.3857   18.5366 H   0  0  0  0  0  0
  -29.6554  -25.6498   18.9702 H   0  0  0  0  0  0
  -29.1223  -15.1871   21.5918 H   0  0  0  0  0  0
  1 25  1  0  0  0
  1 30  2  0  0  0
  1 88  1  0  0  0
  2  3  1  0  0  0
  2 25  1  0  0  0
  2 90  1  0  0  0
  2 91  1  0  0  0
  3  4  1  0  0  0
  3 92  1  0  0  0
  3 93  1  0  0  0
  4  5  1  0  0  0
  4 94  1  0  0  0
  4 95  1  0  0  0
  5  6  1  0  0  0
  5 26  1  0  0  0
  5 96  1  0  0  0
  6 25  1  0  0  0
  6 97  1  0  0  0
  6 98  1  0  0  0
  7  8  2  0  0  0
  7 26  1  0  0  0
  7 29  1  0  0  0
  8  9  1  0  0  0
  8 22  1  0  0  0
  9 10  1  0  0  0
  9 27  2  0  0  0
 10 11  2  0  0  0
 10 15  1  0  0  0
 11 12  1  0  0  0
 11 99  1  0  0  0
 12 13  2  0  0  0
 12100  1  0  0  0
 13 14  1  0  0  0
 13 31  1  0  0  0
 14 15  2  0  0  0
 14101  1  0  0  0
 15102  1  0  0  0
 16 17  2  0  0  0
 16 21  1  0  0  0
 16 31  1  0  0  0
 17 18  1  0  0  0
 17103  1  0  0  0
 18 19  2  0  0  0
 18104  1  0  0  0
 19 20  1  0  0  0
 19 24  1  0  0  0
 20 21  2  0  0  0
 20105  1  0  0  0
 21 23  1  0  0  0
 22 28  1  0  0  0
 22 32  2  0  0  0
 26 27  1  0  0  0
 28106  1  0  0  0
 28107  1  0  0  0
 29108  1  0  0  0
 29109  1  0  0  0
 33 34  1  0  0  0
 33 66  1  0  0  0
 33 70  2  0  0  0
 34 36  1  0  0  0
 34 59  1  0  0  0
 34110  1  0  0  0
 35 44  2  0  0  0
 35 45  1  0  0  0
 35 68  1  0  0  0
 36 56  1  0  0  0
 36111  1  0  0  0
 37 39  1  0  0  0
 37 47  1  0  0  0
 37 66  1  0  0  0
 37112  1  0  0  0
 38 43  2  0  0  0
 38 46  1  0  0  0
 38 47  1  0  0  0
 39 64  1  0  0  0
 39 67  2  0  0  0
 40 52  1  0  0  0
 40 53  2  0  0  0
 40 58  1  0  0  0
 41113  1  0  0  0
 41114  1  0  0  0
 41115  1  0  0  0
 41 48  1  0  0  0
 42 43  1  0  0  0
 42 66  1  0  0  0
 42116  1  0  0  0
 42117  1  0  0  0
 43 44  1  0  0  0
 44118  1  0  0  0
 45 46  2  0  0  0
 45119  1  0  0  0
 46120  1  0  0  0
 47121  1  0  0  0
 47122  1  0  0  0
 48 56  1  0  0  0
 48 65  1  0  0  0
 48123  1  0  0  0
 49 50  1  0  0  0
 49 53  1  0  0  0
 49 64  1  0  0  0
 49124  1  0  0  0
 50 51  1  0  0  0
 50125  1  0  0  0
 50126  1  0  0  0
 51 52  1  0  0  0
 51127  1  0  0  0
 51128  1  0  0  0
 52129  1  0  0  0
 52130  1  0  0  0
 53 54  1  0  0  0
 54 55  2  0  0  0
 54131  1  0  0  0
 55 57  1  0  0  0
 55132  1  0  0  0
 56 69  2  0  0  0
 57 58  2  0  0  0
 57133  1  0  0  0
 58134  1  0  0  0
 59 60  1  0  0  0
 59 61  1  0  0  0
 59 62  1  0  0  0
 60135  1  0  0  0
 60136  1  0  0  0
 60137  1  0  0  0
 61138  1  0  0  0
 61139  1  0  0  0
 61140  1  0  0  0
 62141  1  0  0  0
 62142  1  0  0  0
 62143  1  0  0  0
 63 65  1  0  0  0
 63144  1  0  0  0
 63145  1  0  0  0
 63146  1  0  0  0
 64147  1  0  0  0
 65148  1  0  0  0
 68 86  1  0  0  0
 71 72  2  0  0  0
 71 73  1  0  0  0
 71149  1  0  0  0
 72 74  1  0  0  0
 72150  1  0  0  0
 73 76  2  0  0  0
 73151  1  0  0  0
 74 75  2  0  0  0
 74 85  1  0  0  0
 75 76  1  0  0  0
 75 84  1  0  0  0
 76 88  1  0  0  0
 77 80  1  0  0  0
 77 87  1  0  0  0
 77 89  2  0  0  0
 78 79  2  0  0  0
 78152  1  0  0  0
 78153  1  0  0  0
 79 84  1  0  0  0
 79154  1  0  0  0
 80 83  1  0  0  0
 80155  1  0  0  0
 80156  1  0  0  0
 81 82  1  0  0  0
 81 83  1  0  0  0
 81157  1  0  0  0
 81158  1  0  0  0
 82 87  1  0  0  0
 82159  1  0  0  0
 82160  1  0  0  0
 83 86  1  0  0  0
 83161  1  0  0  0
 84162  1  0  0  0
 84163  1  0  0  0
 85 87  1  0  0  0
 85164  1  0  0  0
 85165  1  0  0  0
 86166  1  0  0  0
 86167  1  0  0  0
 88168  1  0  0  0
M  ISO  4   1 100  68 101  86 101  88 100
M  END
> <chiral flag>
0

> <version>
0

> <s_m_source_file>
/data/baiqing/PycharmProjects/Reinvent-master-3.2/result/LINK_invent/BTK/process_docking_weight1_custom_product_contain_oxygen_bond_distance_aromatic_linkinvent_7_9_3/rearranged_h_0062.sdf

> <i_m_source_file_index>
65

> <r_mmod_Potential_Energy-OPLS-2005>
0.109716713428497

> <r_mmod_Stretch_Energy-OPLS-2005>
51.5536727905273

> <r_mmod_Bend_Energy-OPLS-2005>
131.339141845703

> <r_mmod_Torsional_Energy-OPLS-2005>
253.802093505859

> <r_mmod_Improper_Torsional_Energy-OPLS-2005>
3.8231086730957

> <r_mmod_Van_der_Waal_Energy-OPLS-2005>
162.677352905273

> <r_mmod_Electrostatic_Energy-OPLS-2005>
-400.391723632812

> <r_mmod_Solvation_Energy-OPLS-2005>
-216.268676757812

> <b_mmod_Minimization_Converged-OPLS-2005>
0

> <r_mmod_RMS_Derivative-OPLS-2005>
4.2549090385437

$$$$
65
                    3D
 Structure written by MMmdl.
154162  0  0  1  0            999 V2000
  -30.6699  -14.7433   20.4160 C   0  0  0  0  0  0
  -30.4223  -12.4510   19.4740 C   0  0  0  0  0  0
  -29.5060  -12.4969   18.2336 C   0  0  0  0  0  0
  -28.0334  -12.3281   18.6516 C   0  0  0  0  0  0
  -27.6399  -13.2431   19.8422 C   0  0  2  0  0  0
  -28.6906  -13.2209   20.9746 C   0  0  0  0  0  0
  -25.2506  -13.8228   20.5708 C   0  0  0  0  0  0
  -24.1811  -13.0457   20.9221 C   0  0  0  0  0  0
  -24.6428  -11.6935   20.8773 C   0  0  0  0  0  0
  -23.9105  -10.4294   21.0415 C   0  0  0  0  0  0
  -24.3644   -9.4205   21.9196 C   0  0  0  0  0  0
  -23.6308   -8.2243   22.0758 C   0  0  0  0  0  0
  -22.4289   -8.0291   21.3554 C   0  0  0  0  0  0
  -21.9937   -9.0263   20.4650 C   0  0  0  0  0  0
  -22.7275  -10.2140   20.3060 C   0  0  0  0  0  0
  -21.6857   -6.0750   22.5283 C   0  0  0  0  0  0
  -21.4016   -6.5657   23.8216 C   0  0  0  0  0  0
  -21.3658   -5.6801   24.9177 C   0  0  0  0  0  0
  -21.6044   -4.3060   24.7223 C   0  0  0  0  0  0
  -21.8820   -3.8163   23.4339 C   0  0  0  0  0  0
  -21.9188   -4.6978   22.3399 C   0  0  0  0  0  0
  -22.7823  -13.5218   21.1876 C   0  0  0  0  0  0
  -22.1662   -4.2163   21.0978 F   0  0  0  0  0  0
  -21.5622   -3.4544   25.7739 F   0  0  0  0  0  0
  -29.9914  -13.5445   20.3767 N   0  0  0  0  0  0
  -26.2950  -12.9463   20.3288 N   0  0  0  0  0  0
  -25.9371  -11.6597   20.5779 N   0  0  0  0  0  0
  -22.0470  -12.8188   22.0420 N   0  0  0  0  0  0
  -25.4182  -15.1948   20.4113 N   0  0  0  0  0  0
  -31.8769  -14.7370   20.1764 O   0  0  0  0  0  0
  -21.6654   -6.8895   21.4248 O   0  0  0  0  0  0
  -22.3497  -14.5520   20.6723 O   0  0  0  0  0  0
  -24.6317  -31.8553   23.1990 C   0  0  0  0  0  0
  -25.9141  -32.4738   23.8335 C   0  0  1  0  0  0
  -27.2174  -27.2688   20.1233 C   0  0  0  0  0  0
  -25.5943  -33.8548   24.2267 N   0  0  0  0  0  0
  -23.4255  -30.4802   21.5430 C   0  0  2  0  0  0
  -24.8711  -28.9328   20.1060 C   0  0  0  0  0  0
  -22.7512  -29.4588   22.4912 C   0  0  0  0  0  0
  -18.0299  -28.1382   22.8482 C   0  0  0  0  0  0
  -24.1485  -36.7283   23.2641 C   0  0  0  0  0  0
  -25.9722  -30.7684   21.3795 C   0  0  0  0  0  0
  -26.0401  -29.3930   20.7225 C   0  0  0  0  0  0
  -27.2108  -28.5700   20.7273 C   0  0  0  0  0  0
  -26.0286  -26.8894   19.4524 C   0  0  0  0  0  0
  -24.8709  -27.6884   19.4613 C   0  0  0  0  0  0
  -23.6415  -29.8181   20.1578 C   0  0  0  0  0  0
  -25.4104  -36.3069   24.0335 C   0  0  1  0  0  0
  -20.5901  -28.3678   23.1281 C   0  0  2  0  0  0
  -20.6780  -26.9396   22.5427 C   0  0  0  0  0  0
  -19.5753  -26.6378   21.5229 C   0  0  0  0  0  0
  -18.1931  -26.7925   22.1636 C   0  0  0  0  0  0
  -19.1553  -28.8850   23.2870 C   0  0  0  0  0  0
  -18.9475  -30.1462   23.8876 C   0  0  0  0  0  0
  -17.6464  -30.6573   24.0565 C   0  0  0  0  0  0
  -25.9056  -34.9436   23.5103 C   0  0  0  0  0  0
  -16.5353  -29.9071   23.6332 C   0  0  0  0  0  0
  -16.7287  -28.6494   23.0341 C   0  0  0  0  0  0
  -26.4511  -31.6571   25.0728 C   0  0  0  0  0  0
  -25.3738  -31.3744   26.1453 C   0  0  0  0  0  0
  -27.0352  -30.2977   24.6205 C   0  0  0  0  0  0
  -27.6054  -32.4328   25.7494 C   0  0  0  0  0  0
  -27.5575  -37.1792   24.8467 C   0  0  0  0  0  0
  -21.4214  -29.3037   22.3677 N   0  0  0  0  0  0
  -26.4275  -37.3775   23.9413 N   0  0  0  0  0  0
  -24.6962  -31.0535   22.0961 N   0  0  0  0  0  0
  -23.4221  -28.8131   23.3005 O   0  0  0  0  0  0
  -28.3208  -26.3867   20.2193 O   0  0  0  0  0  0
  -26.5629  -34.8904   22.4674 O   0  0  0  0  0  0
  -23.5469  -32.1377   23.7299 O   0  0  0  0  0  0
  -32.0504  -18.8485   19.1404 C   0  0  0  0  0  0
  -31.5532  -17.5607   19.4058 C   0  0  0  0  0  0
  -29.6801  -18.5636   20.5712 C   0  0  0  0  0  0
  -31.3941  -20.0098   19.5922 C   0  0  0  0  0  0
  -30.3913  -17.3457   20.1888 C   0  0  0  0  0  0
  -30.1305  -19.9175   20.2465 C   0  0  0  0  0  0
  -29.2005  -22.3326   19.9536 C   0  0  0  0  0  0
  -32.1377  -21.3282   19.4033 C   0  0  0  0  0  0
  -28.9361  -23.7478   20.6542 C   0  0  0  0  0  0
  -28.2190  -24.9372   19.8242 C   0  0  0  0  0  0
  -29.4441  -21.1683   20.6704 N   0  0  0  0  0  0
  -29.9686  -15.9455   20.5181 N   0  0  0  0  0  0
  -29.1770  -22.2979   18.7210 O   0  0  0  0  0  0
  -31.4650  -12.5418   19.1669 H   0  0  0  0  0  0
  -30.3446  -11.4863   19.9784 H   0  0  0  0  0  0
  -29.7846  -11.7156   17.5259 H   0  0  0  0  0  0
  -29.6359  -13.4461   17.7099 H   0  0  0  0  0  0
  -27.8908  -11.2826   18.9275 H   0  0  0  0  0  0
  -27.3743  -12.5103   17.8019 H   0  0  0  0  0  0
  -27.6205  -14.2569   19.4408 H   0  0  0  0  0  0
  -28.7257  -12.2452   21.4601 H   0  0  0  0  0  0
  -28.4348  -13.9447   21.7501 H   0  0  0  0  0  0
  -25.2788   -9.5679   22.4777 H   0  0  0  0  0  0
  -24.0018   -7.4637   22.7476 H   0  0  0  0  0  0
  -21.0873   -8.8794   19.8947 H   0  0  0  0  0  0
  -22.3745  -10.9688   19.6168 H   0  0  0  0  0  0
  -21.2017   -7.6163   23.9724 H   0  0  0  0  0  0
  -21.1479   -6.0534   25.9079 H   0  0  0  0  0  0
  -22.0596   -2.7624   23.2840 H   0  0  0  0  0  0
  -22.4094  -11.9845   22.4797 H   0  0  0  0  0  0
  -21.1086  -13.1201   22.2632 H   0  0  0  0  0  0
  -24.6490  -15.8474   20.5122 H   0  0  0  0  0  0
  -26.2649  -15.6328   20.0732 H   0  0  0  0  0  0
  -26.7193  -32.5372   23.1062 H   0  0  0  0  0  0
  -25.0106  -33.9688   25.0423 H   0  0  0  0  0  0
  -22.7217  -31.3028   21.3999 H   0  0  0  0  0  0
  -23.3740  -35.9630   23.3314 H   0  0  0  0  0  0
  -24.3589  -36.8898   22.2061 H   0  0  0  0  0  0
  -23.7245  -37.6492   23.6652 H   0  0  0  0  0  0
  -26.1149  -31.5251   20.6076 H   0  0  0  0  0  0
  -26.8511  -30.8153   22.0107 H   0  0  0  0  0  0
  -28.1007  -28.9122   21.2354 H   0  0  0  0  0  0
  -25.9498  -25.9601   18.9108 H   0  0  0  0  0  0
  -23.9786  -27.3391   18.9590 H   0  0  0  0  0  0
  -23.7633  -30.5959   19.4039 H   0  0  0  0  0  0
  -22.7569  -29.2540   19.8526 H   0  0  0  0  0  0
  -25.1282  -36.1919   25.0830 H   0  0  0  0  0  0
  -20.9993  -28.3243   24.1398 H   0  0  0  0  0  0
  -20.5697  -26.2279   23.3623 H   0  0  0  0  0  0
  -21.6634  -26.7418   22.1196 H   0  0  0  0  0  0
  -19.6900  -25.6302   21.1232 H   0  0  0  0  0  0
  -19.6674  -27.3209   20.6781 H   0  0  0  0  0  0
  -17.4206  -26.6701   21.4022 H   0  0  0  0  0  0
  -18.0284  -26.0069   22.9030 H   0  0  0  0  0  0
  -19.7954  -30.7300   24.2198 H   0  0  0  0  0  0
  -17.5022  -31.6245   24.5190 H   0  0  0  0  0  0
  -15.5356  -30.2967   23.7666 H   0  0  0  0  0  0
  -15.8695  -28.0825   22.7034 H   0  0  0  0  0  0
  -24.5901  -30.7081   25.7829 H   0  0  0  0  0  0
  -24.8919  -32.2928   26.4832 H   0  0  0  0  0  0
  -25.8056  -30.8982   27.0262 H   0  0  0  0  0  0
  -26.2930  -29.6720   24.1220 H   0  0  0  0  0  0
  -27.4050  -29.7244   25.4723 H   0  0  0  0  0  0
  -27.8811  -30.4276   23.9441 H   0  0  0  0  0  0
  -27.2641  -33.3653   26.2015 H   0  0  0  0  0  0
  -28.3880  -32.6855   25.0323 H   0  0  0  0  0  0
  -28.0692  -31.8486   26.5458 H   0  0  0  0  0  0
  -28.2592  -38.0091   24.7518 H   0  0  0  0  0  0
  -28.1075  -36.2624   24.6278 H   0  0  0  0  0  0
  -27.2311  -37.1435   25.8879 H   0  0  0  0  0  0
  -20.9399  -29.8780   21.6903 H   0  0  0  0  0  0
  -26.0155  -38.2853   24.1411 H   0  0  0  0  0  0
  -32.9832  -18.9376   18.5992 H   0  0  0  0  0  0
  -32.1266  -16.7444   18.9978 H   0  0  0  0  0  0
  -28.7648  -18.4616   21.1380 H   0  0  0  0  0  0
  -33.2131  -21.1641   19.3234 H   0  0  0  0  0  0
  -31.9973  -21.9937   20.2552 H   0  0  0  0  0  0
  -31.8145  -21.8390   18.4973 H   0  0  0  0  0  0
  -29.9124  -24.1091   20.9767 H   0  0  0  0  0  0
  -28.3724  -23.5735   21.5700 H   0  0  0  0  0  0
  -27.1805  -24.6180   19.8029 H   0  0  0  0  0  0
  -28.5597  -24.8944   18.7896 H   0  0  0  0  0  0
  -29.2228  -21.2216   21.6567 H   0  0  0  0  0  0
  -29.0012  -15.8383   20.7811 H   0  0  0  0  0  0
  1 25  1  0  0  0
  1 30  2  0  0  0
  1 82  1  0  0  0
  2  3  1  0  0  0
  2 25  1  0  0  0
  2 84  1  0  0  0
  2 85  1  0  0  0
  3  4  1  0  0  0
  3 86  1  0  0  0
  3 87  1  0  0  0
  4  5  1  0  0  0
  4 88  1  0  0  0
  4 89  1  0  0  0
  5  6  1  0  0  0
  5 26  1  0  0  0
  5 90  1  0  0  0
  6 25  1  0  0  0
  6 91  1  0  0  0
  6 92  1  0  0  0
  7  8  2  0  0  0
  7 26  1  0  0  0
  7 29  1  0  0  0
  8  9  1  0  0  0
  8 22  1  0  0  0
  9 10  1  0  0  0
  9 27  2  0  0  0
 10 11  2  0  0  0
 10 15  1  0  0  0
 11 12  1  0  0  0
 11 93  1  0  0  0
 12 13  2  0  0  0
 12 94  1  0  0  0
 13 14  1  0  0  0
 13 31  1  0  0  0
 14 15  2  0  0  0
 14 95  1  0  0  0
 15 96  1  0  0  0
 16 17  2  0  0  0
 16 21  1  0  0  0
 16 31  1  0  0  0
 17 18  1  0  0  0
 17 97  1  0  0  0
 18 19  2  0  0  0
 18 98  1  0  0  0
 19 20  1  0  0  0
 19 24  1  0  0  0
 20 21  2  0  0  0
 20 99  1  0  0  0
 21 23  1  0  0  0
 22 28  1  0  0  0
 22 32  2  0  0  0
 26 27  1  0  0  0
 28100  1  0  0  0
 28101  1  0  0  0
 29102  1  0  0  0
 29103  1  0  0  0
 33 34  1  0  0  0
 33 66  1  0  0  0
 33 70  2  0  0  0
 34 36  1  0  0  0
 34 59  1  0  0  0
 34104  1  0  0  0
 35 44  2  0  0  0
 35 45  1  0  0  0
 35 68  1  0  0  0
 36 56  1  0  0  0
 36105  1  0  0  0
 37 39  1  0  0  0
 37 47  1  0  0  0
 37 66  1  0  0  0
 37106  1  0  0  0
 38 43  2  0  0  0
 38 46  1  0  0  0
 38 47  1  0  0  0
 39 64  1  0  0  0
 39 67  2  0  0  0
 40 52  1  0  0  0
 40 53  2  0  0  0
 40 58  1  0  0  0
 41107  1  0  0  0
 41108  1  0  0  0
 41109  1  0  0  0
 41 48  1  0  0  0
 42 43  1  0  0  0
 42 66  1  0  0  0
 42110  1  0  0  0
 42111  1  0  0  0
 43 44  1  0  0  0
 44112  1  0  0  0
 45 46  2  0  0  0
 45113  1  0  0  0
 46114  1  0  0  0
 47115  1  0  0  0
 47116  1  0  0  0
 48 56  1  0  0  0
 48 65  1  0  0  0
 48117  1  0  0  0
 49 50  1  0  0  0
 49 53  1  0  0  0
 49 64  1  0  0  0
 49118  1  0  0  0
 50 51  1  0  0  0
 50119  1  0  0  0
 50120  1  0  0  0
 51 52  1  0  0  0
 51121  1  0  0  0
 51122  1  0  0  0
 52123  1  0  0  0
 52124  1  0  0  0
 53 54  1  0  0  0
 54 55  2  0  0  0
 54125  1  0  0  0
 55 57  1  0  0  0
 55126  1  0  0  0
 56 69  2  0  0  0
 57 58  2  0  0  0
 57127  1  0  0  0
 58128  1  0  0  0
 59 60  1  0  0  0
 59 61  1  0  0  0
 59 62  1  0  0  0
 60129  1  0  0  0
 60130  1  0  0  0
 60131  1  0  0  0
 61132  1  0  0  0
 61133  1  0  0  0
 61134  1  0  0  0
 62135  1  0  0  0
 62136  1  0  0  0
 62137  1  0  0  0
 63 65  1  0  0  0
 63138  1  0  0  0
 63139  1  0  0  0
 63140  1  0  0  0
 64141  1  0  0  0
 65142  1  0  0  0
 68 80  1  0  0  0
 71 72  2  0  0  0
 71 74  1  0  0  0
 71143  1  0  0  0
 72 75  1  0  0  0
 72144  1  0  0  0
 73 75  2  0  0  0
 73 76  1  0  0  0
 73145  1  0  0  0
 74 76  2  0  0  0
 74 78  1  0  0  0
 75 82  1  0  0  0
 76 81  1  0  0  0
 77 79  1  0  0  0
 77 81  1  0  0  0
 77 83  2  0  0  0
 78146  1  0  0  0
 78147  1  0  0  0
 78148  1  0  0  0
 79 80  1  0  0  0
 79149  1  0  0  0
 79150  1  0  0  0
 80151  1  0  0  0
 80152  1  0  0  0
 81153  1  0  0  0
 82154  1  0  0  0
M  ISO  4   1 100  68 101  80 101  82 100
M  END
> <chiral flag>
0

> <version>
0

> <s_m_source_file>
/data/baiqing/PycharmProjects/Reinvent-master-3.2/result/LINK_invent/BTK/process_docking_weight1_custom_product_contain_oxygen_bond_distance_aromatic_linkinvent_7_9_3/rearranged_h_0062.sdf

> <i_m_source_file_index>
66

> <r_mmod_Potential_Energy-OPLS-2005>
157.177947998047

> <r_mmod_Stretch_Energy-OPLS-2005>
127.791641235352

> <r_mmod_Bend_Energy-OPLS-2005>
164.056900024414

> <r_mmod_Torsional_Energy-OPLS-2005>
252.723739624023

> <r_mmod_Improper_Torsional_Energy-OPLS-2005>
5.17714500427246

> <r_mmod_Van_der_Waal_Energy-OPLS-2005>
155.772583007812

> <r_mmod_Electrostatic_Energy-OPLS-2005>
-403.130828857422

> <r_mmod_Solvation_Energy-OPLS-2005>
-234.143692016602

> <b_mmod_Minimization_Converged-OPLS-2005>
0

> <r_mmod_RMS_Derivative-OPLS-2005>
2.58430528640747

$$$$
66
                    3D
 Structure written by MMmdl.
157165  0  0  1  0            999 V2000
  -30.6782  -14.5792   20.5322 C   0  0  0  0  0  0
  -30.4198  -12.3667   19.4407 C   0  0  0  0  0  0
  -29.4940  -12.4885   18.2123 C   0  0  0  0  0  0
  -28.0184  -12.3388   18.6307 C   0  0  0  0  0  0
  -27.6486  -13.2154   19.8562 C   0  0  2  0  0  0
  -28.6926  -13.0792   20.9865 C   0  0  0  0  0  0
  -25.2554  -13.8193   20.5690 C   0  0  0  0  0  0
  -24.1819  -13.0454   20.9204 C   0  0  0  0  0  0
  -24.6397  -11.6928   20.8763 C   0  0  0  0  0  0
  -23.9068  -10.4305   21.0423 C   0  0  0  0  0  0
  -24.3617   -9.4226   21.9203 C   0  0  0  0  0  0
  -23.6293   -8.2251   22.0762 C   0  0  0  0  0  0
  -22.4274   -8.0294   21.3556 C   0  0  0  0  0  0
  -21.9922   -9.0269   20.4645 C   0  0  0  0  0  0
  -22.7245  -10.2160   20.3071 C   0  0  0  0  0  0
  -21.6852   -6.0766   22.5281 C   0  0  0  0  0  0
  -21.4000   -6.5656   23.8215 C   0  0  0  0  0  0
  -21.3654   -5.6803   24.9175 C   0  0  0  0  0  0
  -21.6040   -4.3065   24.7217 C   0  0  0  0  0  0
  -21.8823   -3.8168   23.4333 C   0  0  0  0  0  0
  -21.9185   -4.6985   22.3395 C   0  0  0  0  0  0
  -22.7850  -13.5258   21.1859 C   0  0  0  0  0  0
  -22.1665   -4.2172   21.0972 F   0  0  0  0  0  0
  -21.5628   -3.4539   25.7733 F   0  0  0  0  0  0
  -30.0054  -13.3964   20.4131 N   0  0  0  0  0  0
  -26.2961  -12.9359   20.3291 N   0  0  0  0  0  0
  -25.9309  -11.6519   20.5753 N   0  0  0  0  0  0
  -22.0469  -12.8248   22.0399 N   0  0  0  0  0  0
  -25.4275  -15.1903   20.4076 N   0  0  0  0  0  0
  -31.8421  -14.6875   20.1352 O   0  0  0  0  0  0
  -21.6635   -6.8901   21.4245 O   0  0  0  0  0  0
  -22.3543  -14.5569   20.6707 O   0  0  0  0  0  0
  -24.6218  -31.8646   23.2081 C   0  0  0  0  0  0
  -25.9080  -32.4817   23.8395 C   0  0  1  0  0  0
  -27.2286  -27.3624   20.0932 C   0  0  0  0  0  0
  -25.5886  -33.8604   24.2329 N   0  0  0  0  0  0
  -23.4138  -30.4891   21.5452 C   0  0  2  0  0  0
  -24.8621  -28.9464   20.1124 C   0  0  0  0  0  0
  -22.7464  -29.4637   22.4922 C   0  0  0  0  0  0
  -18.0287  -28.1355   22.8454 C   0  0  0  0  0  0
  -24.1503  -36.7326   23.2633 C   0  0  0  0  0  0
  -25.9518  -30.8052   21.3751 C   0  0  0  0  0  0
  -26.0267  -29.4344   20.7168 C   0  0  0  0  0  0
  -27.2092  -28.6464   20.7089 C   0  0  0  0  0  0
  -26.0361  -26.9049   19.4883 C   0  0  0  0  0  0
  -24.8653  -27.6843   19.4960 C   0  0  0  0  0  0
  -23.6312  -29.8266   20.1586 C   0  0  0  0  0  0
  -25.4120  -36.3113   24.0332 C   0  0  1  0  0  0
  -20.5881  -28.3659   23.1288 C   0  0  2  0  0  0
  -20.6778  -26.9378   22.5395 C   0  0  0  0  0  0
  -19.5755  -26.6365   21.5173 C   0  0  0  0  0  0
  -18.1934  -26.7890   22.1593 C   0  0  0  0  0  0
  -19.1534  -28.8817   23.2877 C   0  0  0  0  0  0
  -18.9464  -30.1416   23.8905 C   0  0  0  0  0  0
  -17.6471  -30.6573   24.0530 C   0  0  0  0  0  0
  -25.9026  -34.9467   23.5141 C   0  0  0  0  0  0
  -16.5355  -29.9072   23.6294 C   0  0  0  0  0  0
  -16.7273  -28.6484   23.0319 C   0  0  0  0  0  0
  -26.4478  -31.6610   25.0752 C   0  0  0  0  0  0
  -25.3696  -31.3685   26.1469 C   0  0  0  0  0  0
  -27.0318  -30.3039   24.6171 C   0  0  0  0  0  0
  -27.6071  -32.4316   25.7512 C   0  0  0  0  0  0
  -27.5609  -37.1822   24.8459 C   0  0  0  0  0  0
  -21.4172  -29.3054   22.3708 N   0  0  0  0  0  0
  -26.4323  -37.3789   23.9398 N   0  0  0  0  0  0
  -24.6806  -31.0708   22.1000 N   0  0  0  0  0  0
  -23.4240  -28.8160   23.2947 O   0  0  0  0  0  0
  -28.3817  -26.5773   20.1342 O   0  0  0  0  0  0
  -26.5618  -34.8922   22.4724 O   0  0  0  0  0  0
  -23.5387  -32.1400   23.7435 O   0  0  0  0  0  0
  -32.2209  -18.3211   22.3502 C   0  0  0  0  0  0
  -31.7044  -17.0890   21.9255 C   0  0  0  0  0  0
  -29.7412  -18.2297   21.0233 C   0  0  0  0  0  0
  -31.5162  -19.5172   22.1234 C   0  0  0  0  0  0
  -30.4660  -17.0036   21.2504 C   0  0  0  0  0  0
  -30.2630  -19.5013   21.4528 C   0  0  0  0  0  0
  -29.1768  -21.5413   20.3495 C   0  0  0  0  0  0
  -32.1343  -20.8162   22.6279 C   0  0  0  0  0  0
  -29.0945  -23.0921   20.5994 C   0  0  0  0  0  0
  -28.0546  -23.9680   19.7997 C   0  0  0  0  0  0
  -28.5239  -25.3898   19.2944 C   0  0  0  0  0  0
  -29.5683  -20.7757   21.3990 N   0  0  0  0  0  0
  -29.9577  -15.6846   20.8982 N   0  0  0  0  0  0
  -28.8930  -21.0632   19.2483 O   0  0  0  0  0  0
  -31.4629  -12.4695   19.1354 H   0  0  0  0  0  0
  -30.3376  -11.3743   19.8862 H   0  0  0  0  0  0
  -29.7459  -11.7263   17.4745 H   0  0  0  0  0  0
  -29.6442  -13.4506   17.7227 H   0  0  0  0  0  0
  -27.8509  -11.2872   18.8667 H   0  0  0  0  0  0
  -27.3614  -12.5656   17.7905 H   0  0  0  0  0  0
  -27.6663  -14.2505   19.5100 H   0  0  0  0  0  0
  -28.6938  -12.0646   21.3852 H   0  0  0  0  0  0
  -28.4463  -13.7307   21.8264 H   0  0  0  0  0  0
  -25.2762   -9.5699   22.4790 H   0  0  0  0  0  0
  -23.9995   -7.4648   22.7494 H   0  0  0  0  0  0
  -21.0849   -8.8801   19.8941 H   0  0  0  0  0  0
  -22.3706  -10.9713   19.6187 H   0  0  0  0  0  0
  -21.1995   -7.6159   23.9726 H   0  0  0  0  0  0
  -21.1468   -6.0531   25.9083 H   0  0  0  0  0  0
  -22.0604   -2.7625   23.2824 H   0  0  0  0  0  0
  -22.4051  -11.9889   22.4771 H   0  0  0  0  0  0
  -21.1100  -13.1306   22.2604 H   0  0  0  0  0  0
  -24.6626  -15.8468   20.5210 H   0  0  0  0  0  0
  -26.2711  -15.6251   20.0575 H   0  0  0  0  0  0
  -26.7165  -32.5512   23.1161 H   0  0  0  0  0  0
  -24.9970  -33.9739   25.0434 H   0  0  0  0  0  0
  -22.7052  -31.3085   21.4055 H   0  0  0  0  0  0
  -23.3770  -35.9662   23.3281 H   0  0  0  0  0  0
  -24.3546  -36.8941   22.2043 H   0  0  0  0  0  0
  -23.7247  -37.6516   23.6666 H   0  0  0  0  0  0
  -26.0728  -31.5751   20.6125 H   0  0  0  0  0  0
  -26.8361  -30.8594   21.9982 H   0  0  0  0  0  0
  -28.1066  -29.0104   21.1900 H   0  0  0  0  0  0
  -25.9822  -25.9301   19.0269 H   0  0  0  0  0  0
  -23.9652  -27.3028   19.0336 H   0  0  0  0  0  0
  -23.7523  -30.6071   19.4050 H   0  0  0  0  0  0
  -22.7524  -29.2561   19.8524 H   0  0  0  0  0  0
  -25.1293  -36.1981   25.0820 H   0  0  0  0  0  0
  -20.9963  -28.3246   24.1406 H   0  0  0  0  0  0
  -20.5627  -26.2268   23.3595 H   0  0  0  0  0  0
  -21.6664  -26.7403   22.1207 H   0  0  0  0  0  0
  -19.6912  -25.6268   21.1211 H   0  0  0  0  0  0
  -19.6704  -27.3186   20.6708 H   0  0  0  0  0  0
  -17.4183  -26.6594   21.4019 H   0  0  0  0  0  0
  -18.0367  -26.0056   22.9023 H   0  0  0  0  0  0
  -19.7958  -30.7191   24.2336 H   0  0  0  0  0  0
  -17.5033  -31.6255   24.5141 H   0  0  0  0  0  0
  -15.5347  -30.2979   23.7623 H   0  0  0  0  0  0
  -15.8660  -28.0814   22.7021 H   0  0  0  0  0  0
  -24.5926  -30.6987   25.7762 H   0  0  0  0  0  0
  -24.8812  -32.2807   26.4916 H   0  0  0  0  0  0
  -25.8007  -30.8848   27.0247 H   0  0  0  0  0  0
  -26.2886  -29.6792   24.1207 H   0  0  0  0  0  0
  -27.4024  -29.7288   25.4675 H   0  0  0  0  0  0
  -27.8766  -30.4323   23.9390 H   0  0  0  0  0  0
  -27.2741  -33.3644   26.2090 H   0  0  0  0  0  0
  -28.3896  -32.6809   25.0323 H   0  0  0  0  0  0
  -28.0742  -31.8404   26.5399 H   0  0  0  0  0  0
  -28.2613  -38.0148   24.7527 H   0  0  0  0  0  0
  -28.1126  -36.2659   24.6288 H   0  0  0  0  0  0
  -27.2299  -37.1453   25.8856 H   0  0  0  0  0  0
  -20.9338  -29.8836   21.6975 H   0  0  0  0  0  0
  -26.0226  -38.2874   24.1380 H   0  0  0  0  0  0
  -33.1661  -18.3367   22.8743 H   0  0  0  0  0  0
  -32.2760  -16.2009   22.1502 H   0  0  0  0  0  0
  -28.7728  -18.1942   20.5440 H   0  0  0  0  0  0
  -33.1641  -20.6744   22.9607 H   0  0  0  0  0  0
  -31.5702  -21.2122   23.4727 H   0  0  0  0  0  0
  -32.1576  -21.5686   21.8389 H   0  0  0  0  0  0
  -30.0954  -23.4609   20.3745 H   0  0  0  0  0  0
  -28.9574  -23.2833   21.6632 H   0  0  0  0  0  0
  -27.1283  -24.0648   20.3642 H   0  0  0  0  0  0
  -27.7708  -23.4093   18.9070 H   0  0  0  0  0  0
  -28.0551  -25.5897   18.3301 H   0  0  0  0  0  0
  -29.5814  -25.3178   19.0420 H   0  0  0  0  0  0
  -29.7183  -21.3404   22.2232 H   0  0  0  0  0  0
  -28.9612  -15.5496   20.9751 H   0  0  0  0  0  0
  1 25  1  0  0  0
  1 30  2  0  0  0
  1 83  1  0  0  0
  2  3  1  0  0  0
  2 25  1  0  0  0
  2 85  1  0  0  0
  2 86  1  0  0  0
  3  4  1  0  0  0
  3 87  1  0  0  0
  3 88  1  0  0  0
  4  5  1  0  0  0
  4 89  1  0  0  0
  4 90  1  0  0  0
  5  6  1  0  0  0
  5 26  1  0  0  0
  5 91  1  0  0  0
  6 25  1  0  0  0
  6 92  1  0  0  0
  6 93  1  0  0  0
  7  8  2  0  0  0
  7 26  1  0  0  0
  7 29  1  0  0  0
  8  9  1  0  0  0
  8 22  1  0  0  0
  9 10  1  0  0  0
  9 27  2  0  0  0
 10 11  2  0  0  0
 10 15  1  0  0  0
 11 12  1  0  0  0
 11 94  1  0  0  0
 12 13  2  0  0  0
 12 95  1  0  0  0
 13 14  1  0  0  0
 13 31  1  0  0  0
 14 15  2  0  0  0
 14 96  1  0  0  0
 15 97  1  0  0  0
 16 17  2  0  0  0
 16 21  1  0  0  0
 16 31  1  0  0  0
 17 18  1  0  0  0
 17 98  1  0  0  0
 18 19  2  0  0  0
 18 99  1  0  0  0
 19 20  1  0  0  0
 19 24  1  0  0  0
 20 21  2  0  0  0
 20100  1  0  0  0
 21 23  1  0  0  0
 22 28  1  0  0  0
 22 32  2  0  0  0
 26 27  1  0  0  0
 28101  1  0  0  0
 28102  1  0  0  0
 29103  1  0  0  0
 29104  1  0  0  0
 33 34  1  0  0  0
 33 66  1  0  0  0
 33 70  2  0  0  0
 34 36  1  0  0  0
 34 59  1  0  0  0
 34105  1  0  0  0
 35 44  2  0  0  0
 35 45  1  0  0  0
 35 68  1  0  0  0
 36 56  1  0  0  0
 36106  1  0  0  0
 37 39  1  0  0  0
 37 47  1  0  0  0
 37 66  1  0  0  0
 37107  1  0  0  0
 38 43  2  0  0  0
 38 46  1  0  0  0
 38 47  1  0  0  0
 39 64  1  0  0  0
 39 67  2  0  0  0
 40 52  1  0  0  0
 40 53  2  0  0  0
 40 58  1  0  0  0
 41108  1  0  0  0
 41109  1  0  0  0
 41110  1  0  0  0
 41 48  1  0  0  0
 42 43  1  0  0  0
 42 66  1  0  0  0
 42111  1  0  0  0
 42112  1  0  0  0
 43 44  1  0  0  0
 44113  1  0  0  0
 45 46  2  0  0  0
 45114  1  0  0  0
 46115  1  0  0  0
 47116  1  0  0  0
 47117  1  0  0  0
 48 56  1  0  0  0
 48 65  1  0  0  0
 48118  1  0  0  0
 49 50  1  0  0  0
 49 53  1  0  0  0
 49 64  1  0  0  0
 49119  1  0  0  0
 50 51  1  0  0  0
 50120  1  0  0  0
 50121  1  0  0  0
 51 52  1  0  0  0
 51122  1  0  0  0
 51123  1  0  0  0
 52124  1  0  0  0
 52125  1  0  0  0
 53 54  1  0  0  0
 54 55  2  0  0  0
 54126  1  0  0  0
 55 57  1  0  0  0
 55127  1  0  0  0
 56 69  2  0  0  0
 57 58  2  0  0  0
 57128  1  0  0  0
 58129  1  0  0  0
 59 60  1  0  0  0
 59 61  1  0  0  0
 59 62  1  0  0  0
 60130  1  0  0  0
 60131  1  0  0  0
 60132  1  0  0  0
 61133  1  0  0  0
 61134  1  0  0  0
 61135  1  0  0  0
 62136  1  0  0  0
 62137  1  0  0  0
 62138  1  0  0  0
 63 65  1  0  0  0
 63139  1  0  0  0
 63140  1  0  0  0
 63141  1  0  0  0
 64142  1  0  0  0
 65143  1  0  0  0
 68 81  1  0  0  0
 71 72  2  0  0  0
 71 74  1  0  0  0
 71144  1  0  0  0
 72 75  1  0  0  0
 72145  1  0  0  0
 73 75  2  0  0  0
 73 76  1  0  0  0
 73146  1  0  0  0
 74 76  2  0  0  0
 74 78  1  0  0  0
 75 83  1  0  0  0
 76 82  1  0  0  0
 77 79  1  0  0  0
 77 82  1  0  0  0
 77 84  2  0  0  0
 78147  1  0  0  0
 78148  1  0  0  0
 78149  1  0  0  0
 79 80  1  0  0  0
 79150  1  0  0  0
 79151  1  0  0  0
 80 81  1  0  0  0
 80152  1  0  0  0
 80153  1  0  0  0
 81154  1  0  0  0
 81155  1  0  0  0
 82156  1  0  0  0
 83157  1  0  0  0
M  ISO  4   1 100  68 101  81 101  83 100
M  END
> <chiral flag>
0

> <version>
0

> <s_m_source_file>
/data/baiqing/PycharmProjects/Reinvent-master-3.2/result/LINK_invent/BTK/process_docking_weight1_custom_product_contain_oxygen_bond_distance_aromatic_linkinvent_7_9_3/rearranged_h_0062.sdf

> <i_m_source_file_index>
67

> <r_mmod_Potential_Energy-OPLS-2005>
-13.0477952957153

> <r_mmod_Stretch_Energy-OPLS-2005>
66.0539016723633

> <r_mmod_Bend_Energy-OPLS-2005>
141.347045898438

> <r_mmod_Torsional_Energy-OPLS-2005>
251.534240722656

> <r_mmod_Improper_Torsional_Energy-OPLS-2005>
6.97566699981689

> <r_mmod_Van_der_Waal_Energy-OPLS-2005>
149.191589355469

> <r_mmod_Electrostatic_Energy-OPLS-2005>
-428.111572265625

> <r_mmod_Solvation_Energy-OPLS-2005>
-232.091949462891

> <b_mmod_Minimization_Converged-OPLS-2005>
0

> <r_mmod_RMS_Derivative-OPLS-2005>
3.40348958969116

$$$$
67
                    3D
 Structure written by MMmdl.
163172  0  0  1  0            999 V2000
  -30.6614  -14.4945   20.5156 C   0  0  0  0  0  0
  -30.4414  -12.3159   19.3907 C   0  0  0  0  0  0
  -29.4907  -12.4650   18.1868 C   0  0  0  0  0  0
  -28.0150  -12.3266   18.6248 C   0  0  0  0  0  0
  -27.6613  -13.1902   19.8656 C   0  0  2  0  0  0
  -28.7156  -12.9676   20.9703 C   0  0  0  0  0  0
  -25.2633  -13.8122   20.5727 C   0  0  0  0  0  0
  -24.1844  -13.0437   20.9208 C   0  0  0  0  0  0
  -24.6387  -11.6884   20.8776 C   0  0  0  0  0  0
  -23.9041  -10.4274   21.0452 C   0  0  0  0  0  0
  -24.3597   -9.4189   21.9227 C   0  0  0  0  0  0
  -23.6279   -8.2219   22.0757 C   0  0  0  0  0  0
  -22.4270   -8.0263   21.3547 C   0  0  0  0  0  0
  -21.9911   -9.0247   20.4663 C   0  0  0  0  0  0
  -22.7231  -10.2125   20.3086 C   0  0  0  0  0  0
  -21.6856   -6.0717   22.5266 C   0  0  0  0  0  0
  -21.4022   -6.5628   23.8199 C   0  0  0  0  0  0
  -21.3639   -5.6792   24.9165 C   0  0  0  0  0  0
  -21.6047   -4.3056   24.7231 C   0  0  0  0  0  0
  -21.8831   -3.8128   23.4358 C   0  0  0  0  0  0
  -21.9193   -4.6940   22.3399 C   0  0  0  0  0  0
  -22.7843  -13.5238   21.1848 C   0  0  0  0  0  0
  -22.1659   -4.2108   21.0990 F   0  0  0  0  0  0
  -21.5616   -3.4548   25.7753 F   0  0  0  0  0  0
  -30.0290  -13.2970   20.4049 N   0  0  0  0  0  0
  -26.3048  -12.9250   20.3406 N   0  0  0  0  0  0
  -25.9310  -11.6437   20.5829 N   0  0  0  0  0  0
  -22.0452  -12.8241   22.0398 N   0  0  0  0  0  0
  -25.4468  -15.1819   20.4149 N   0  0  0  0  0  0
  -31.8456  -14.6528   20.2101 O   0  0  0  0  0  0
  -21.6638   -6.8859   21.4232 O   0  0  0  0  0  0
  -22.3539  -14.5545   20.6681 O   0  0  0  0  0  0
  -24.6186  -31.8674   23.2096 C   0  0  0  0  0  0
  -25.9082  -32.4813   23.8381 C   0  0  1  0  0  0
  -27.2360  -27.4424   20.0885 C   0  0  0  0  0  0
  -25.5907  -33.8611   24.2290 N   0  0  0  0  0  0
  -23.4038  -30.4936   21.5514 C   0  0  2  0  0  0
  -24.8463  -28.9542   20.1185 C   0  0  0  0  0  0
  -22.7435  -29.4692   22.5020 C   0  0  0  0  0  0
  -18.0325  -28.1392   22.8485 C   0  0  0  0  0  0
  -24.1485  -36.7328   23.2631 C   0  0  0  0  0  0
  -25.9305  -30.8375   21.3577 C   0  0  0  0  0  0
  -26.0094  -29.4721   20.7028 C   0  0  0  0  0  0
  -27.2097  -28.7254   20.6791 C   0  0  0  0  0  0
  -26.0511  -26.9316   19.5134 C   0  0  0  0  0  0
  -24.8595  -27.6819   19.5252 C   0  0  0  0  0  0
  -23.6098  -29.8230   20.1673 C   0  0  0  0  0  0
  -25.4101  -36.3096   24.0326 C   0  0  1  0  0  0
  -20.5883  -28.3733   23.1357 C   0  0  2  0  0  0
  -20.6817  -26.9489   22.5441 C   0  0  0  0  0  0
  -19.5821  -26.6419   21.5229 C   0  0  0  0  0  0
  -18.1991  -26.7948   22.1594 C   0  0  0  0  0  0
  -19.1547  -28.8879   23.2920 C   0  0  0  0  0  0
  -18.9452  -30.1494   23.8899 C   0  0  0  0  0  0
  -17.6441  -30.6594   24.0554 C   0  0  0  0  0  0
  -25.9029  -34.9461   23.5099 C   0  0  0  0  0  0
  -16.5351  -29.9074   23.6313 C   0  0  0  0  0  0
  -16.7306  -28.6479   23.0331 C   0  0  0  0  0  0
  -26.4491  -31.6619   25.0740 C   0  0  0  0  0  0
  -25.3773  -31.3746   26.1509 C   0  0  0  0  0  0
  -27.0330  -30.3054   24.6154 C   0  0  0  0  0  0
  -27.6033  -32.4370   25.7523 C   0  0  0  0  0  0
  -27.5574  -37.1816   24.8452 C   0  0  0  0  0  0
  -21.4156  -29.3084   22.3759 N   0  0  0  0  0  0
  -26.4281  -37.3785   23.9397 N   0  0  0  0  0  0
  -24.6698  -31.0804   22.0980 N   0  0  0  0  0  0
  -23.4213  -28.8245   23.3057 O   0  0  0  0  0  0
  -28.4060  -26.6944   20.0939 O   0  0  0  0  0  0
  -26.5598  -34.8907   22.4668 O   0  0  0  0  0  0
  -23.5382  -32.1417   23.7488 O   0  0  0  0  0  0
  -28.8130  -18.7376   22.9850 C   0  0  0  0  0  0
  -28.7922  -16.3562   22.4628 C   0  0  0  0  0  0
  -29.9626  -17.9139   21.0019 C   0  0  0  0  0  0
  -28.4062  -17.4261   23.2925 C   0  0  0  0  0  0
  -29.5983  -18.9942   21.8470 C   0  0  0  0  0  0
  -29.5687  -16.5857   21.3055 C   0  0  0  0  0  0
  -27.2914  -23.0205   21.0390 C   0  0  0  0  0  0
  -28.2022  -22.0181   21.7960 C   0  0  0  0  0  0
  -29.1394  -23.1171   19.2699 C   0  0  0  0  0  0
  -29.1408  -21.5935   19.5536 C   0  0  0  0  0  0
  -27.9609  -23.8829   19.9466 C   0  0  1  0  0  0
  -27.5511  -17.1658   24.5149 C   0  0  0  0  0  0
  -30.0798  -20.4185   21.5686 C   0  0  0  0  0  0
  -28.3299  -25.3056   20.5104 C   0  0  0  0  0  0
  -29.0722  -21.3386   21.0057 N   0  0  0  0  0  0
  -29.8329  -15.5455   20.3697 N   0  0  0  0  0  0
  -26.0933  -23.1564   21.3134 O   0  0  0  0  0  0
  -28.1195  -21.9017   23.0244 O   0  0  0  0  0  0
  -31.4706  -12.4586   19.0625 H   0  0  0  0  0  0
  -30.3849  -11.3053   19.7964 H   0  0  0  0  0  0
  -29.7263  -11.7134   17.4315 H   0  0  0  0  0  0
  -29.6411  -13.4336   17.7091 H   0  0  0  0  0  0
  -27.8528  -11.2736   18.8651 H   0  0  0  0  0  0
  -27.3484  -12.5569   17.7923 H   0  0  0  0  0  0
  -27.6939  -14.2328   19.5498 H   0  0  0  0  0  0
  -28.7072  -11.9259   21.2931 H   0  0  0  0  0  0
  -28.4959  -13.5463   21.8589 H   0  0  0  0  0  0
  -25.2740   -9.5632   22.4826 H   0  0  0  0  0  0
  -23.9955   -7.4601   22.7479 H   0  0  0  0  0  0
  -21.0818   -8.8806   19.8976 H   0  0  0  0  0  0
  -22.3720  -10.9684   19.6192 H   0  0  0  0  0  0
  -21.2039   -7.6144   23.9680 H   0  0  0  0  0  0
  -21.1441   -6.0537   25.9067 H   0  0  0  0  0  0
  -22.0633   -2.7588   23.2883 H   0  0  0  0  0  0
  -22.4050  -11.9912   22.4799 H   0  0  0  0  0  0
  -21.1080  -13.1267   22.2597 H   0  0  0  0  0  0
  -24.7027  -15.8587   20.5474 H   0  0  0  0  0  0
  -26.3341  -15.6101   20.1799 H   0  0  0  0  0  0
  -26.7191  -32.5548   23.1174 H   0  0  0  0  0  0
  -25.0038  -33.9744   25.0425 H   0  0  0  0  0  0
  -22.6972  -31.3134   21.4115 H   0  0  0  0  0  0
  -23.3709  -35.9706   23.3299 H   0  0  0  0  0  0
  -24.3560  -36.8944   22.2041 H   0  0  0  0  0  0
  -23.7300  -37.6548   23.6667 H   0  0  0  0  0  0
  -26.0496  -31.6055   20.5899 H   0  0  0  0  0  0
  -26.8146  -30.8875   21.9815 H   0  0  0  0  0  0
  -28.1121  -29.1164   21.1284 H   0  0  0  0  0  0
  -26.0455  -25.9516   19.0587 H   0  0  0  0  0  0
  -23.9615  -27.2708   19.0837 H   0  0  0  0  0  0
  -23.7260  -30.5953   19.4072 H   0  0  0  0  0  0
  -22.7318  -29.2481   19.8652 H   0  0  0  0  0  0
  -25.1296  -36.1910   25.0829 H   0  0  0  0  0  0
  -20.9970  -28.3309   24.1463 H   0  0  0  0  0  0
  -21.6694  -26.7605   22.1234 H   0  0  0  0  0  0
  -20.5766  -26.2326   23.3625 H   0  0  0  0  0  0
  -19.7048  -25.6346   21.1250 H   0  0  0  0  0  0
  -19.6808  -27.3221   20.6760 H   0  0  0  0  0  0
  -17.4285  -26.6651   21.3982 H   0  0  0  0  0  0
  -18.0356  -26.0080   22.8975 H   0  0  0  0  0  0
  -19.7933  -30.7361   24.2226 H   0  0  0  0  0  0
  -17.4986  -31.6264   24.5165 H   0  0  0  0  0  0
  -15.5354  -30.2975   23.7601 H   0  0  0  0  0  0
  -15.8714  -28.0814   22.7025 H   0  0  0  0  0  0
  -24.5890  -30.7142   25.7863 H   0  0  0  0  0  0
  -24.9050  -32.2931   26.5017 H   0  0  0  0  0  0
  -25.8149  -30.8863   27.0231 H   0  0  0  0  0  0
  -26.2887  -29.6803   24.1200 H   0  0  0  0  0  0
  -27.4062  -29.7310   25.4646 H   0  0  0  0  0  0
  -27.8739  -30.4327   23.9328 H   0  0  0  0  0  0
  -27.2582  -33.3613   26.2174 H   0  0  0  0  0  0
  -28.3818  -32.7050   25.0369 H   0  0  0  0  0  0
  -28.0754  -31.8486   26.5401 H   0  0  0  0  0  0
  -28.2595  -38.0107   24.7478 H   0  0  0  0  0  0
  -28.1064  -36.2633   24.6298 H   0  0  0  0  0  0
  -27.2289  -37.1505   25.8855 H   0  0  0  0  0  0
  -20.9292  -29.8811   21.7001 H   0  0  0  0  0  0
  -26.0146  -38.2855   24.1387 H   0  0  0  0  0  0
  -28.5250  -19.5498   23.6363 H   0  0  0  0  0  0
  -28.4450  -15.3741   22.7248 H   0  0  0  0  0  0
  -30.5497  -18.1124   20.1177 H   0  0  0  0  0  0
  -29.1049  -23.2829   18.1941 H   0  0  0  0  0  0
  -30.0959  -23.5337   19.5935 H   0  0  0  0  0  0
  -30.0136  -21.1274   19.0964 H   0  0  0  0  0  0
  -28.2760  -21.1268   19.0772 H   0  0  0  0  0  0
  -27.1538  -23.9548   19.2093 H   0  0  0  0  0  0
  -26.9480  -16.2635   24.3960 H   0  0  0  0  0  0
  -26.8714  -17.9991   24.7026 H   0  0  0  0  0  0
  -28.1842  -17.0427   25.3920 H   0  0  0  0  0  0
  -30.9601  -20.3793   20.9276 H   0  0  0  0  0  0
  -30.4609  -20.8281   22.5093 H   0  0  0  0  0  0
  -28.2743  -25.4259   19.4277 H   0  0  0  0  0  0
  -27.4735  -25.4376   21.1717 H   0  0  0  0  0  0
  -29.9838  -15.9230   19.4460 H   0  0  0  0  0  0
  1 25  1  0  0  0
  1 30  2  0  0  0
  1 86  1  0  0  0
  2  3  1  0  0  0
  2 25  1  0  0  0
  2 89  1  0  0  0
  2 90  1  0  0  0
  3  4  1  0  0  0
  3 91  1  0  0  0
  3 92  1  0  0  0
  4  5  1  0  0  0
  4 93  1  0  0  0
  4 94  1  0  0  0
  5  6  1  0  0  0
  5 26  1  0  0  0
  5 95  1  0  0  0
  6 25  1  0  0  0
  6 96  1  0  0  0
  6 97  1  0  0  0
  7  8  2  0  0  0
  7 26  1  0  0  0
  7 29  1  0  0  0
  8  9  1  0  0  0
  8 22  1  0  0  0
  9 10  1  0  0  0
  9 27  2  0  0  0
 10 11  2  0  0  0
 10 15  1  0  0  0
 11 12  1  0  0  0
 11 98  1  0  0  0
 12 13  2  0  0  0
 12 99  1  0  0  0
 13 14  1  0  0  0
 13 31  1  0  0  0
 14 15  2  0  0  0
 14100  1  0  0  0
 15101  1  0  0  0
 16 17  2  0  0  0
 16 21  1  0  0  0
 16 31  1  0  0  0
 17 18  1  0  0  0
 17102  1  0  0  0
 18 19  2  0  0  0
 18103  1  0  0  0
 19 20  1  0  0  0
 19 24  1  0  0  0
 20 21  2  0  0  0
 20104  1  0  0  0
 21 23  1  0  0  0
 22 28  1  0  0  0
 22 32  2  0  0  0
 26 27  1  0  0  0
 28105  1  0  0  0
 28106  1  0  0  0
 29107  1  0  0  0
 29108  1  0  0  0
 33 34  1  0  0  0
 33 66  1  0  0  0
 33 70  2  0  0  0
 34 36  1  0  0  0
 34 59  1  0  0  0
 34109  1  0  0  0
 35 44  2  0  0  0
 35 45  1  0  0  0
 35 68  1  0  0  0
 36 56  1  0  0  0
 36110  1  0  0  0
 37 39  1  0  0  0
 37 47  1  0  0  0
 37 66  1  0  0  0
 37111  1  0  0  0
 38 43  2  0  0  0
 38 46  1  0  0  0
 38 47  1  0  0  0
 39 64  1  0  0  0
 39 67  2  0  0  0
 40 52  1  0  0  0
 40 53  2  0  0  0
 40 58  1  0  0  0
 41112  1  0  0  0
 41113  1  0  0  0
 41114  1  0  0  0
 41 48  1  0  0  0
 42 43  1  0  0  0
 42 66  1  0  0  0
 42115  1  0  0  0
 42116  1  0  0  0
 43 44  1  0  0  0
 44117  1  0  0  0
 45 46  2  0  0  0
 45118  1  0  0  0
 46119  1  0  0  0
 47120  1  0  0  0
 47121  1  0  0  0
 48 56  1  0  0  0
 48 65  1  0  0  0
 48122  1  0  0  0
 49 50  1  0  0  0
 49 53  1  0  0  0
 49 64  1  0  0  0
 49123  1  0  0  0
 50 51  1  0  0  0
 50124  1  0  0  0
 50125  1  0  0  0
 51 52  1  0  0  0
 51126  1  0  0  0
 51127  1  0  0  0
 52128  1  0  0  0
 52129  1  0  0  0
 53 54  1  0  0  0
 54 55  2  0  0  0
 54130  1  0  0  0
 55 57  1  0  0  0
 55131  1  0  0  0
 56 69  2  0  0  0
 57 58  2  0  0  0
 57132  1  0  0  0
 58133  1  0  0  0
 59 60  1  0  0  0
 59 61  1  0  0  0
 59 62  1  0  0  0
 60134  1  0  0  0
 60135  1  0  0  0
 60136  1  0  0  0
 61137  1  0  0  0
 61138  1  0  0  0
 61139  1  0  0  0
 62140  1  0  0  0
 62141  1  0  0  0
 62142  1  0  0  0
 63 65  1  0  0  0
 63143  1  0  0  0
 63144  1  0  0  0
 63145  1  0  0  0
 64146  1  0  0  0
 65147  1  0  0  0
 68 84  1  0  0  0
 71 74  2  0  0  0
 71 75  1  0  0  0
 71148  1  0  0  0
 72 74  1  0  0  0
 72 76  2  0  0  0
 72149  1  0  0  0
 73 75  2  0  0  0
 73 76  1  0  0  0
 73150  1  0  0  0
 74 82  1  0  0  0
 75 83  1  0  0  0
 76 86  1  0  0  0
 77 78  1  0  0  0
 77 81  1  0  0  0
 77 87  2  0  0  0
 78 85  1  0  0  0
 78 88  2  0  0  0
 79 80  1  0  0  0
 79 81  1  0  0  0
 79151  1  0  0  0
 79152  1  0  0  0
 80 85  1  0  0  0
 80153  1  0  0  0
 80154  1  0  0  0
 81 84  1  0  0  0
 81155  1  0  0  0
 82156  1  0  0  0
 82157  1  0  0  0
 82158  1  0  0  0
 83 85  1  0  0  0
 83159  1  0  0  0
 83160  1  0  0  0
 84161  1  0  0  0
 84162  1  0  0  0
 86163  1  0  0  0
M  ISO  4   1 100  68 101  84 101  86 100
M  END
> <chiral flag>
0

> <version>
0

> <s_m_source_file>
/data/baiqing/PycharmProjects/Reinvent-master-3.2/result/LINK_invent/BTK/process_docking_weight1_custom_product_contain_oxygen_bond_distance_aromatic_linkinvent_7_9_3/rearranged_h_0062.sdf

> <i_m_source_file_index>
68

> <r_mmod_Potential_Energy-OPLS-2005>
382.036560058594

> <r_mmod_Stretch_Energy-OPLS-2005>
43.871337890625

> <r_mmod_Bend_Energy-OPLS-2005>
339.239105224609

> <r_mmod_Torsional_Energy-OPLS-2005>
317.975952148438

> <r_mmod_Improper_Torsional_Energy-OPLS-2005>
25.5433826446533

> <r_mmod_Van_der_Waal_Energy-OPLS-2005>
181.803970336914

> <r_mmod_Electrostatic_Energy-OPLS-2005>
-309.746978759766

> <r_mmod_Solvation_Energy-OPLS-2005>
-235.679870605469

> <b_mmod_Minimization_Converged-OPLS-2005>
0

> <r_mmod_RMS_Derivative-OPLS-2005>
4.73812627792358

$$$$
68
                    3D
 Structure written by MMmdl.
155163  0  0  1  0            999 V2000
  -30.7208  -14.4754   20.5837 C   0  0  0  0  0  0
  -30.4189  -12.3161   19.4229 C   0  0  0  0  0  0
  -29.4924  -12.5110   18.2061 C   0  0  0  0  0  0
  -28.0148  -12.3678   18.6192 C   0  0  0  0  0  0
  -27.6595  -13.2109   19.8730 C   0  0  2  0  0  0
  -28.7029  -13.0080   20.9955 C   0  0  0  0  0  0
  -25.2580  -13.8170   20.5678 C   0  0  0  0  0  0
  -24.1840  -13.0443   20.9183 C   0  0  0  0  0  0
  -24.6402  -11.6910   20.8740 C   0  0  0  0  0  0
  -23.9071  -10.4296   21.0408 C   0  0  0  0  0  0
  -24.3619   -9.4209   21.9185 C   0  0  0  0  0  0
  -23.6297   -8.2244   22.0757 C   0  0  0  0  0  0
  -22.4280   -8.0282   21.3546 C   0  0  0  0  0  0
  -21.9916   -9.0254   20.4645 C   0  0  0  0  0  0
  -22.7244  -10.2135   20.3056 C   0  0  0  0  0  0
  -21.6855   -6.0737   22.5280 C   0  0  0  0  0  0
  -21.4008   -6.5641   23.8213 C   0  0  0  0  0  0
  -21.3658   -5.6794   24.9176 C   0  0  0  0  0  0
  -21.6046   -4.3058   24.7227 C   0  0  0  0  0  0
  -21.8820   -3.8151   23.4347 C   0  0  0  0  0  0
  -21.9191   -4.6964   22.3400 C   0  0  0  0  0  0
  -22.7861  -13.5236   21.1844 C   0  0  0  0  0  0
  -22.1662   -4.2152   21.0978 F   0  0  0  0  0  0
  -21.5629   -3.4542   25.7741 F   0  0  0  0  0  0
  -30.0323  -13.3090   20.4390 N   0  0  0  0  0  0
  -26.3018  -12.9347   20.3364 N   0  0  0  0  0  0
  -25.9329  -11.6502   20.5770 N   0  0  0  0  0  0
  -22.0498  -12.8225   22.0392 N   0  0  0  0  0  0
  -25.4304  -15.1886   20.4066 N   0  0  0  0  0  0
  -31.8444  -14.6377   20.1002 O   0  0  0  0  0  0
  -21.6640   -6.8883   21.4245 O   0  0  0  0  0  0
  -22.3550  -14.5549   20.6700 O   0  0  0  0  0  0
  -24.6183  -31.8683   23.2115 C   0  0  0  0  0  0
  -25.9069  -32.4823   23.8412 C   0  0  1  0  0  0
  -27.2212  -27.4055   20.0947 C   0  0  0  0  0  0
  -25.5921  -33.8624   24.2342 N   0  0  0  0  0  0
  -23.4063  -30.4952   21.5534 C   0  0  2  0  0  0
  -24.8503  -28.9701   20.1090 C   0  0  0  0  0  0
  -22.7426  -29.4664   22.4982 C   0  0  0  0  0  0
  -18.0274  -28.1381   22.8495 C   0  0  0  0  0  0
  -24.1486  -36.7306   23.2639 C   0  0  0  0  0  0
  -25.9415  -30.8242   21.3721 C   0  0  0  0  0  0
  -26.0159  -29.4608   20.7115 C   0  0  0  0  0  0
  -27.2053  -28.6874   20.7010 C   0  0  0  0  0  0
  -26.0368  -26.9582   19.4579 C   0  0  0  0  0  0
  -24.8579  -27.7195   19.4765 C   0  0  0  0  0  0
  -23.6142  -29.8378   20.1654 C   0  0  0  0  0  0
  -25.4109  -36.3112   24.0337 C   0  0  1  0  0  0
  -20.5868  -28.3675   23.1309 C   0  0  2  0  0  0
  -20.6770  -26.9410   22.5414 C   0  0  0  0  0  0
  -19.5745  -26.6389   21.5216 C   0  0  0  0  0  0
  -18.1920  -26.7929   22.1623 C   0  0  0  0  0  0
  -19.1523  -28.8845   23.2901 C   0  0  0  0  0  0
  -18.9451  -30.1452   23.8911 C   0  0  0  0  0  0
  -17.6452  -30.6587   24.0566 C   0  0  0  0  0  0
  -25.9042  -34.9476   23.5134 C   0  0  0  0  0  0
  -16.5344  -29.9087   23.6335 C   0  0  0  0  0  0
  -16.7264  -28.6503   23.0359 C   0  0  0  0  0  0
  -26.4479  -31.6600   25.0746 C   0  0  0  0  0  0
  -25.3736  -31.3708   26.1487 C   0  0  0  0  0  0
  -27.0312  -30.3038   24.6142 C   0  0  0  0  0  0
  -27.6063  -32.4311   25.7502 C   0  0  0  0  0  0
  -27.5582  -37.1813   24.8468 C   0  0  0  0  0  0
  -21.4148  -29.3044   22.3716 N   0  0  0  0  0  0
  -26.4297  -37.3795   23.9409 N   0  0  0  0  0  0
  -24.6739  -31.0759   22.1036 N   0  0  0  0  0  0
  -23.4188  -28.8198   23.3027 O   0  0  0  0  0  0
  -28.3502  -26.5949   20.1575 O   0  0  0  0  0  0
  -26.5595  -34.8923   22.4689 O   0  0  0  0  0  0
  -23.5367  -32.1447   23.7490 O   0  0  0  0  0  0
  -32.2592  -18.4442   21.9669 C   0  0  0  0  0  0
  -31.3451  -19.5126   21.8766 C   0  0  0  0  0  0
  -31.8421  -17.1223   21.7223 C   0  0  0  0  0  0
  -29.5863  -17.9282   21.2760 C   0  0  0  0  0  0
  -29.9971  -19.2695   21.5325 C   0  0  0  0  0  0
  -30.5009  -16.8432   21.3648 C   0  0  0  0  0  0
  -29.0231  -20.3872   21.5312 C   0  0  0  0  0  0
  -28.5218  -22.8397   21.1829 C   0  0  0  0  0  0
  -29.1376  -24.1958   20.7341 C   0  0  0  0  0  0
  -28.0769  -25.1673   20.1292 C   0  0  0  0  0  0
  -30.0433  -15.4979   21.1523 N   0  0  0  0  0  0
  -29.3545  -21.6483   21.1242 N   0  0  0  0  0  0
  -27.7986  -20.1104   21.9945 N   0  3  0  0  0  0
  -27.3614  -22.7795   21.6099 O   0  0  0  0  0  0
  -31.4634  -12.4075   19.1193 H   0  0  0  0  0  0
  -30.3155  -11.3074   19.8260 H   0  0  0  0  0  0
  -29.7340  -11.7880   17.4257 H   0  0  0  0  0  0
  -29.6583  -13.4977   17.7706 H   0  0  0  0  0  0
  -27.8278  -11.3121   18.8167 H   0  0  0  0  0  0
  -27.3639  -12.6403   17.7873 H   0  0  0  0  0  0
  -27.6991  -14.2569   19.5680 H   0  0  0  0  0  0
  -28.6816  -11.9772   21.3520 H   0  0  0  0  0  0
  -28.4642  -13.6217   21.8652 H   0  0  0  0  0  0
  -25.2765   -9.5679   22.4760 H   0  0  0  0  0  0
  -24.0005   -7.4635   22.7480 H   0  0  0  0  0  0
  -21.0846   -8.8770   19.8951 H   0  0  0  0  0  0
  -22.3707  -10.9669   19.6162 H   0  0  0  0  0  0
  -21.1999   -7.6150   23.9717 H   0  0  0  0  0  0
  -21.1478   -6.0526   25.9079 H   0  0  0  0  0  0
  -22.0599   -2.7614   23.2850 H   0  0  0  0  0  0
  -22.4108  -11.9873   22.4760 H   0  0  0  0  0  0
  -21.1115  -13.1249   22.2601 H   0  0  0  0  0  0
  -24.6605  -15.8423   20.5009 H   0  0  0  0  0  0
  -26.2742  -15.6216   20.0536 H   0  0  0  0  0  0
  -26.7139  -32.5519   23.1174 H   0  0  0  0  0  0
  -25.0098  -33.9791   25.0506 H   0  0  0  0  0  0
  -22.6965  -31.3141   21.4185 H   0  0  0  0  0  0
  -23.3756  -35.9632   23.3304 H   0  0  0  0  0  0
  -24.3579  -36.8916   22.2053 H   0  0  0  0  0  0
  -23.7227  -37.6506   23.6647 H   0  0  0  0  0  0
  -26.0629  -31.5928   20.6074 H   0  0  0  0  0  0
  -26.8266  -30.8708   21.9949 H   0  0  0  0  0  0
  -28.0985  -29.0560   21.1860 H   0  0  0  0  0  0
  -25.9913  -26.0078   18.9471 H   0  0  0  0  0  0
  -23.9658  -27.3401   18.9971 H   0  0  0  0  0  0
  -23.7220  -30.6180   19.4111 H   0  0  0  0  0  0
  -22.7369  -29.2610   19.8667 H   0  0  0  0  0  0
  -25.1285  -36.1986   25.0831 H   0  0  0  0  0  0
  -20.9961  -28.3244   24.1430 H   0  0  0  0  0  0
  -20.5691  -26.2280   23.3601 H   0  0  0  0  0  0
  -21.6638  -26.7461   22.1195 H   0  0  0  0  0  0
  -19.6908  -25.6304   21.1240 H   0  0  0  0  0  0
  -19.6685  -27.3209   20.6753 H   0  0  0  0  0  0
  -17.4194  -26.6690   21.4021 H   0  0  0  0  0  0
  -18.0314  -26.0064   22.9011 H   0  0  0  0  0  0
  -19.7924  -30.7272   24.2284 H   0  0  0  0  0  0
  -17.5003  -31.6267   24.5169 H   0  0  0  0  0  0
  -15.5349  -30.2995   23.7651 H   0  0  0  0  0  0
  -15.8660  -28.0831   22.7074 H   0  0  0  0  0  0
  -24.5906  -30.7061   25.7813 H   0  0  0  0  0  0
  -24.8931  -32.2865   26.4945 H   0  0  0  0  0  0
  -25.8082  -30.8862   27.0241 H   0  0  0  0  0  0
  -26.2865  -29.6798   24.1187 H   0  0  0  0  0  0
  -27.4062  -29.7277   25.4612 H   0  0  0  0  0  0
  -27.8708  -30.4349   23.9313 H   0  0  0  0  0  0
  -27.2710  -33.3628   26.2069 H   0  0  0  0  0  0
  -28.3877  -32.6839   25.0323 H   0  0  0  0  0  0
  -28.0717  -31.8431   26.5423 H   0  0  0  0  0  0
  -28.2608  -38.0102   24.7512 H   0  0  0  0  0  0
  -28.1070  -36.2634   24.6303 H   0  0  0  0  0  0
  -27.2294  -37.1474   25.8869 H   0  0  0  0  0  0
  -20.9309  -29.8781   21.6949 H   0  0  0  0  0  0
  -26.0188  -38.2875   24.1405 H   0  0  0  0  0  0
  -33.2855  -18.6355   22.2480 H   0  0  0  0  0  0
  -31.6882  -20.5117   22.1078 H   0  0  0  0  0  0
  -32.5664  -16.3281   21.8326 H   0  0  0  0  0  0
  -28.5562  -17.7270   21.0168 H   0  0  0  0  0  0
  -29.9506  -24.0355   20.0266 H   0  0  0  0  0  0
  -29.5770  -24.6528   21.6206 H   0  0  0  0  0  0
  -27.1423  -25.0072   20.6691 H   0  0  0  0  0  0
  -27.8975  -24.8662   19.0960 H   0  0  0  0  0  0
  -29.0817  -15.3018   21.3825 H   0  0  0  0  0  0
  -30.2932  -21.6906   20.7582 H   0  0  0  0  0  0
  -27.5850  -19.2099   22.3918 H   0  0  0  0  0  0
  -27.1263  -20.8664   22.0503 H   0  0  0  0  0  0
  1 25  1  0  0  0
  1 30  2  0  0  0
  1 81  1  0  0  0
  2  3  1  0  0  0
  2 25  1  0  0  0
  2 85  1  0  0  0
  2 86  1  0  0  0
  3  4  1  0  0  0
  3 87  1  0  0  0
  3 88  1  0  0  0
  4  5  1  0  0  0
  4 89  1  0  0  0
  4 90  1  0  0  0
  5  6  1  0  0  0
  5 26  1  0  0  0
  5 91  1  0  0  0
  6 25  1  0  0  0
  6 92  1  0  0  0
  6 93  1  0  0  0
  7  8  2  0  0  0
  7 26  1  0  0  0
  7 29  1  0  0  0
  8  9  1  0  0  0
  8 22  1  0  0  0
  9 10  1  0  0  0
  9 27  2  0  0  0
 10 11  2  0  0  0
 10 15  1  0  0  0
 11 12  1  0  0  0
 11 94  1  0  0  0
 12 13  2  0  0  0
 12 95  1  0  0  0
 13 14  1  0  0  0
 13 31  1  0  0  0
 14 15  2  0  0  0
 14 96  1  0  0  0
 15 97  1  0  0  0
 16 17  2  0  0  0
 16 21  1  0  0  0
 16 31  1  0  0  0
 17 18  1  0  0  0
 17 98  1  0  0  0
 18 19  2  0  0  0
 18 99  1  0  0  0
 19 20  1  0  0  0
 19 24  1  0  0  0
 20 21  2  0  0  0
 20100  1  0  0  0
 21 23  1  0  0  0
 22 28  1  0  0  0
 22 32  2  0  0  0
 26 27  1  0  0  0
 28101  1  0  0  0
 28102  1  0  0  0
 29103  1  0  0  0
 29104  1  0  0  0
 33 34  1  0  0  0
 33 66  1  0  0  0
 33 70  2  0  0  0
 34 36  1  0  0  0
 34 59  1  0  0  0
 34105  1  0  0  0
 35 44  2  0  0  0
 35 45  1  0  0  0
 35 68  1  0  0  0
 36 56  1  0  0  0
 36106  1  0  0  0
 37 39  1  0  0  0
 37 47  1  0  0  0
 37 66  1  0  0  0
 37107  1  0  0  0
 38 43  2  0  0  0
 38 46  1  0  0  0
 38 47  1  0  0  0
 39 64  1  0  0  0
 39 67  2  0  0  0
 40 52  1  0  0  0
 40 53  2  0  0  0
 40 58  1  0  0  0
 41108  1  0  0  0
 41109  1  0  0  0
 41110  1  0  0  0
 41 48  1  0  0  0
 42 43  1  0  0  0
 42 66  1  0  0  0
 42111  1  0  0  0
 42112  1  0  0  0
 43 44  1  0  0  0
 44113  1  0  0  0
 45 46  2  0  0  0
 45114  1  0  0  0
 46115  1  0  0  0
 47116  1  0  0  0
 47117  1  0  0  0
 48 56  1  0  0  0
 48 65  1  0  0  0
 48118  1  0  0  0
 49 50  1  0  0  0
 49 53  1  0  0  0
 49 64  1  0  0  0
 49119  1  0  0  0
 50 51  1  0  0  0
 50120  1  0  0  0
 50121  1  0  0  0
 51 52  1  0  0  0
 51122  1  0  0  0
 51123  1  0  0  0
 52124  1  0  0  0
 52125  1  0  0  0
 53 54  1  0  0  0
 54 55  2  0  0  0
 54126  1  0  0  0
 55 57  1  0  0  0
 55127  1  0  0  0
 56 69  2  0  0  0
 57 58  2  0  0  0
 57128  1  0  0  0
 58129  1  0  0  0
 59 60  1  0  0  0
 59 61  1  0  0  0
 59 62  1  0  0  0
 60130  1  0  0  0
 60131  1  0  0  0
 60132  1  0  0  0
 61133  1  0  0  0
 61134  1  0  0  0
 61135  1  0  0  0
 62136  1  0  0  0
 62137  1  0  0  0
 62138  1  0  0  0
 63 65  1  0  0  0
 63139  1  0  0  0
 63140  1  0  0  0
 63141  1  0  0  0
 64142  1  0  0  0
 65143  1  0  0  0
 68 80  1  0  0  0
 71 72  2  0  0  0
 71 73  1  0  0  0
 71144  1  0  0  0
 72 75  1  0  0  0
 72145  1  0  0  0
 73 76  2  0  0  0
 73146  1  0  0  0
 74 75  2  0  0  0
 74 76  1  0  0  0
 74147  1  0  0  0
 75 77  1  0  0  0
 76 81  1  0  0  0
 77 82  1  0  0  0
 77 83  2  0  0  0
 78 79  1  0  0  0
 78 82  1  0  0  0
 78 84  2  0  0  0
 79 80  1  0  0  0
 79148  1  0  0  0
 79149  1  0  0  0
 80150  1  0  0  0
 80151  1  0  0  0
 81152  1  0  0  0
 82153  1  0  0  0
 83154  1  0  0  0
 83155  1  0  0  0
M  CHG  1  83   1
M  ISO  4   1 100  68 101  80 101  81 100
M  END
> <chiral flag>
0

> <version>
0

> <s_m_source_file>
/data/baiqing/PycharmProjects/Reinvent-master-3.2/result/LINK_invent/BTK/process_docking_weight1_custom_product_contain_oxygen_bond_distance_aromatic_linkinvent_7_9_3/rearranged_h_0062.sdf

> <i_m_source_file_index>
69

> <r_mmod_Potential_Energy-OPLS-2005>
-323.966033935547

> <r_mmod_Stretch_Energy-OPLS-2005>
46.6383590698242

> <r_mmod_Bend_Energy-OPLS-2005>
108.122512817383

> <r_mmod_Torsional_Energy-OPLS-2005>
213.364837646484

> <r_mmod_Improper_Torsional_Energy-OPLS-2005>
4.05836153030396

> <r_mmod_Van_der_Waal_Energy-OPLS-2005>
183.56526184082

> <r_mmod_Electrostatic_Energy-OPLS-2005>
-442.00390625

> <r_mmod_Solvation_Energy-OPLS-2005>
-456.107330322266

> <b_mmod_Minimization_Converged-OPLS-2005>
0

> <r_mmod_RMS_Derivative-OPLS-2005>
0.797936677932739

$$$$
69
                    3D
 Structure written by MMmdl.
160168  0  0  1  0            999 V2000
  -30.7294  -14.4764   20.5725 C   0  0  0  0  0  0
  -30.4131  -12.3137   19.4245 C   0  0  0  0  0  0
  -29.4894  -12.5049   18.2061 C   0  0  0  0  0  0
  -28.0124  -12.3665   18.6211 C   0  0  0  0  0  0
  -27.6581  -13.2146   19.8721 C   0  0  2  0  0  0
  -28.7026  -13.0232   20.9954 C   0  0  0  0  0  0
  -25.2569  -13.8187   20.5694 C   0  0  0  0  0  0
  -24.1835  -13.0447   20.9193 C   0  0  0  0  0  0
  -24.6403  -11.6917   20.8752 C   0  0  0  0  0  0
  -23.9075  -10.4300   21.0424 C   0  0  0  0  0  0
  -24.3621   -9.4210   21.9204 C   0  0  0  0  0  0
  -23.6292   -8.2245   22.0763 C   0  0  0  0  0  0
  -22.4278   -8.0289   21.3547 C   0  0  0  0  0  0
  -21.9926   -9.0266   20.4649 C   0  0  0  0  0  0
  -22.7255  -10.2145   20.3066 C   0  0  0  0  0  0
  -21.6847   -6.0746   22.5282 C   0  0  0  0  0  0
  -21.4007   -6.5649   23.8216 C   0  0  0  0  0  0
  -21.3659   -5.6802   24.9179 C   0  0  0  0  0  0
  -21.6046   -4.3067   24.7228 C   0  0  0  0  0  0
  -21.8817   -3.8158   23.4348 C   0  0  0  0  0  0
  -21.9188   -4.6974   22.3404 C   0  0  0  0  0  0
  -22.7856  -13.5234   21.1853 C   0  0  0  0  0  0
  -22.1658   -4.2160   21.0982 F   0  0  0  0  0  0
  -21.5636   -3.4548   25.7741 F   0  0  0  0  0  0
  -30.0291  -13.3166   20.4318 N   0  0  0  0  0  0
  -26.3012  -12.9370   20.3376 N   0  0  0  0  0  0
  -25.9331  -11.6523   20.5783 N   0  0  0  0  0  0
  -22.0495  -12.8214   22.0400 N   0  0  0  0  0  0
  -25.4284  -15.1907   20.4088 N   0  0  0  0  0  0
  -31.8636  -14.6151   20.1076 O   0  0  0  0  0  0
  -21.6633   -6.8890   21.4246 O   0  0  0  0  0  0
  -22.3546  -14.5549   20.6715 O   0  0  0  0  0  0
  -24.6177  -31.8678   23.2109 C   0  0  0  0  0  0
  -25.9066  -32.4822   23.8405 C   0  0  1  0  0  0
  -27.2237  -27.4105   20.0905 C   0  0  0  0  0  0
  -25.5917  -33.8621   24.2329 N   0  0  0  0  0  0
  -23.4045  -30.4948   21.5529 C   0  0  2  0  0  0
  -24.8476  -28.9657   20.1111 C   0  0  0  0  0  0
  -22.7419  -29.4666   22.4986 C   0  0  0  0  0  0
  -18.0276  -28.1377   22.8504 C   0  0  0  0  0  0
  -24.1484  -36.7308   23.2637 C   0  0  0  0  0  0
  -25.9379  -30.8260   21.3681 C   0  0  0  0  0  0
  -26.0124  -29.4612   20.7102 C   0  0  0  0  0  0
  -27.2030  -28.6920   20.6968 C   0  0  0  0  0  0
  -26.0377  -26.9513   19.4657 C   0  0  0  0  0  0
  -24.8569  -27.7110   19.4850 C   0  0  0  0  0  0
  -23.6112  -29.8338   20.1656 C   0  0  0  0  0  0
  -25.4108  -36.3109   24.0335 C   0  0  1  0  0  0
  -20.5870  -28.3667   23.1314 C   0  0  2  0  0  0
  -20.6764  -26.9400   22.5415 C   0  0  0  0  0  0
  -19.5735  -26.6382   21.5215 C   0  0  0  0  0  0
  -18.1915  -26.7924   22.1626 C   0  0  0  0  0  0
  -19.1525  -28.8840   23.2906 C   0  0  0  0  0  0
  -18.9451  -30.1447   23.8908 C   0  0  0  0  0  0
  -17.6453  -30.6587   24.0563 C   0  0  0  0  0  0
  -25.9043  -34.9476   23.5128 C   0  0  0  0  0  0
  -16.5344  -29.9086   23.6328 C   0  0  0  0  0  0
  -16.7262  -28.6498   23.0362 C   0  0  0  0  0  0
  -26.4483  -31.6598   25.0733 C   0  0  0  0  0  0
  -25.3740  -31.3665   26.1460 C   0  0  0  0  0  0
  -27.0345  -30.3057   24.6112 C   0  0  0  0  0  0
  -27.6048  -32.4316   25.7514 C   0  0  0  0  0  0
  -27.5580  -37.1805   24.8464 C   0  0  0  0  0  0
  -21.4144  -29.3039   22.3723 N   0  0  0  0  0  0
  -26.4290  -37.3799   23.9414 N   0  0  0  0  0  0
  -24.6719  -31.0767   22.1021 N   0  0  0  0  0  0
  -23.4185  -28.8193   23.3023 O   0  0  0  0  0  0
  -28.3732  -26.6318   20.1342 O   0  0  0  0  0  0
  -26.5599  -34.8928   22.4685 O   0  0  0  0  0  0
  -23.5362  -32.1441   23.7492 O   0  0  0  0  0  0
  -31.7194  -19.3920   21.8384 C   0  0  0  0  0  0
  -31.8507  -16.9639   22.0019 C   0  0  0  0  0  0
  -29.9095  -18.0160   20.9656 C   0  0  0  0  0  0
  -32.4121  -18.2333   22.2428 C   0  0  0  0  0  0
  -30.4589  -19.3106   21.1977 C   0  0  0  0  0  0
  -30.6076  -16.8348   21.3435 C   0  0  0  0  0  0
  -29.9749  -21.7961   20.9388 C   0  0  0  0  0  0
  -33.5932  -18.6724   24.4381 C   0  0  0  0  0  0
  -29.0189  -22.7883   20.2433 C   0  0  0  0  0  0
  -29.3167  -24.3046   20.4751 C   0  0  0  0  0  0
  -28.1989  -25.2134   19.9129 C   0  0  0  0  0  0
  -33.7570  -18.3646   22.9464 C   0  0  0  0  0  0
  -29.7365  -20.4737   20.7466 N   0  0  0  0  0  0
  -30.0611  -15.5304   21.0944 N   0  0  0  0  0  0
  -30.8846  -22.2423   21.6405 O   0  0  0  0  0  0
  -34.4610  -19.3476   22.3831 F   0  0  0  0  0  0
  -34.4627  -17.2399   22.8216 F   0  0  0  0  0  0
  -31.4584  -12.3953   19.1214 H   0  0  0  0  0  0
  -30.3019  -11.3088   19.8357 H   0  0  0  0  0  0
  -29.7289  -11.7752   17.4312 H   0  0  0  0  0  0
  -29.6587  -13.4885   17.7644 H   0  0  0  0  0  0
  -27.8226  -11.3117   18.8229 H   0  0  0  0  0  0
  -27.3615  -12.6374   17.7889 H   0  0  0  0  0  0
  -27.6949  -14.2588   19.5611 H   0  0  0  0  0  0
  -28.6812  -11.9971   21.3658 H   0  0  0  0  0  0
  -28.4693  -13.6512   21.8568 H   0  0  0  0  0  0
  -25.2765   -9.5679   22.4787 H   0  0  0  0  0  0
  -23.9998   -7.4637   22.7484 H   0  0  0  0  0  0
  -21.0865   -8.8793   19.8946 H   0  0  0  0  0  0
  -22.3730  -10.9689   19.6173 H   0  0  0  0  0  0
  -21.1995   -7.6159   23.9720 H   0  0  0  0  0  0
  -21.1487   -6.0536   25.9081 H   0  0  0  0  0  0
  -22.0598   -2.7623   23.2847 H   0  0  0  0  0  0
  -22.4102  -11.9848   22.4750 H   0  0  0  0  0  0
  -21.1116  -13.1241   22.2618 H   0  0  0  0  0  0
  -24.6617  -15.8462   20.5156 H   0  0  0  0  0  0
  -26.2790  -15.6283   20.0778 H   0  0  0  0  0  0
  -26.7131  -32.5534   23.1163 H   0  0  0  0  0  0
  -25.0080  -33.9781   25.0482 H   0  0  0  0  0  0
  -22.6937  -31.3128   21.4176 H   0  0  0  0  0  0
  -23.3764  -35.9623   23.3288 H   0  0  0  0  0  0
  -24.3572  -36.8947   22.2056 H   0  0  0  0  0  0
  -23.7215  -37.6496   23.6670 H   0  0  0  0  0  0
  -26.0543  -31.5932   20.6013 H   0  0  0  0  0  0
  -26.8245  -30.8763   21.9884 H   0  0  0  0  0  0
  -28.0988  -29.0677   21.1714 H   0  0  0  0  0  0
  -25.9926  -26.0004   18.9557 H   0  0  0  0  0  0
  -23.9643  -27.3267   19.0102 H   0  0  0  0  0  0
  -23.7185  -30.6123   19.4091 H   0  0  0  0  0  0
  -22.7333  -29.2563   19.8697 H   0  0  0  0  0  0
  -25.1279  -36.1973   25.0829 H   0  0  0  0  0  0
  -20.9965  -28.3235   24.1430 H   0  0  0  0  0  0
  -20.5678  -26.2268   23.3600 H   0  0  0  0  0  0
  -21.6629  -26.7445   22.1197 H   0  0  0  0  0  0
  -19.6891  -25.6298   21.1234 H   0  0  0  0  0  0
  -19.6670  -27.3197   20.6749 H   0  0  0  0  0  0
  -17.4188  -26.6701   21.4022 H   0  0  0  0  0  0
  -18.0295  -26.0056   22.9006 H   0  0  0  0  0  0
  -19.7929  -30.7261   24.2275 H   0  0  0  0  0  0
  -17.5012  -31.6272   24.5160 H   0  0  0  0  0  0
  -15.5343  -30.2989   23.7642 H   0  0  0  0  0  0
  -15.8668  -28.0812   22.7075 H   0  0  0  0  0  0
  -24.5934  -30.7000   25.7765 H   0  0  0  0  0  0
  -24.8904  -32.2803   26.4925 H   0  0  0  0  0  0
  -25.8096  -30.8812   27.0206 H   0  0  0  0  0  0
  -26.2902  -29.6790   24.1185 H   0  0  0  0  0  0
  -27.4153  -29.7311   25.4567 H   0  0  0  0  0  0
  -27.8713  -30.4396   23.9252 H   0  0  0  0  0  0
  -27.2669  -33.3616   26.2100 H   0  0  0  0  0  0
  -28.3867  -32.6871   25.0348 H   0  0  0  0  0  0
  -28.0706  -31.8431   26.5430 H   0  0  0  0  0  0
  -28.2575  -38.0127   24.7566 H   0  0  0  0  0  0
  -28.1104  -36.2663   24.6239 H   0  0  0  0  0  0
  -27.2299  -37.1391   25.8864 H   0  0  0  0  0  0
  -20.9290  -29.8785   21.6975 H   0  0  0  0  0  0
  -26.0182  -38.2873   24.1446 H   0  0  0  0  0  0
  -32.1944  -20.3400   22.0338 H   0  0  0  0  0  0
  -32.3869  -16.0808   22.3204 H   0  0  0  0  0  0
  -28.9535  -17.9265   20.4694 H   0  0  0  0  0  0
  -33.0432  -19.6009   24.5908 H   0  0  0  0  0  0
  -34.5630  -18.7770   24.9241 H   0  0  0  0  0  0
  -33.0501  -17.8757   24.9461 H   0  0  0  0  0  0
  -28.0099  -22.5635   20.5908 H   0  0  0  0  0  0
  -29.0282  -22.5804   19.1724 H   0  0  0  0  0  0
  -30.2700  -24.5672   20.0153 H   0  0  0  0  0  0
  -29.4232  -24.4984   21.5431 H   0  0  0  0  0  0
  -27.2754  -24.8774   20.3879 H   0  0  0  0  0  0
  -28.0964  -25.0339   18.8415 H   0  0  0  0  0  0
  -28.9186  -20.2799   20.1851 H   0  0  0  0  0  0
  -29.0765  -15.3968   21.2673 H   0  0  0  0  0  0
  1 25  1  0  0  0
  1 30  2  0  0  0
  1 84  1  0  0  0
  2  3  1  0  0  0
  2 25  1  0  0  0
  2 88  1  0  0  0
  2 89  1  0  0  0
  3  4  1  0  0  0
  3 90  1  0  0  0
  3 91  1  0  0  0
  4  5  1  0  0  0
  4 92  1  0  0  0
  4 93  1  0  0  0
  5  6  1  0  0  0
  5 26  1  0  0  0
  5 94  1  0  0  0
  6 25  1  0  0  0
  6 95  1  0  0  0
  6 96  1  0  0  0
  7  8  2  0  0  0
  7 26  1  0  0  0
  7 29  1  0  0  0
  8  9  1  0  0  0
  8 22  1  0  0  0
  9 10  1  0  0  0
  9 27  2  0  0  0
 10 11  2  0  0  0
 10 15  1  0  0  0
 11 12  1  0  0  0
 11 97  1  0  0  0
 12 13  2  0  0  0
 12 98  1  0  0  0
 13 14  1  0  0  0
 13 31  1  0  0  0
 14 15  2  0  0  0
 14 99  1  0  0  0
 15100  1  0  0  0
 16 17  2  0  0  0
 16 21  1  0  0  0
 16 31  1  0  0  0
 17 18  1  0  0  0
 17101  1  0  0  0
 18 19  2  0  0  0
 18102  1  0  0  0
 19 20  1  0  0  0
 19 24  1  0  0  0
 20 21  2  0  0  0
 20103  1  0  0  0
 21 23  1  0  0  0
 22 28  1  0  0  0
 22 32  2  0  0  0
 26 27  1  0  0  0
 28104  1  0  0  0
 28105  1  0  0  0
 29106  1  0  0  0
 29107  1  0  0  0
 33 34  1  0  0  0
 33 66  1  0  0  0
 33 70  2  0  0  0
 34 36  1  0  0  0
 34 59  1  0  0  0
 34108  1  0  0  0
 35 44  2  0  0  0
 35 45  1  0  0  0
 35 68  1  0  0  0
 36 56  1  0  0  0
 36109  1  0  0  0
 37 39  1  0  0  0
 37 47  1  0  0  0
 37 66  1  0  0  0
 37110  1  0  0  0
 38 43  2  0  0  0
 38 46  1  0  0  0
 38 47  1  0  0  0
 39 64  1  0  0  0
 39 67  2  0  0  0
 40 52  1  0  0  0
 40 53  2  0  0  0
 40 58  1  0  0  0
 41111  1  0  0  0
 41112  1  0  0  0
 41113  1  0  0  0
 41 48  1  0  0  0
 42 43  1  0  0  0
 42 66  1  0  0  0
 42114  1  0  0  0
 42115  1  0  0  0
 43 44  1  0  0  0
 44116  1  0  0  0
 45 46  2  0  0  0
 45117  1  0  0  0
 46118  1  0  0  0
 47119  1  0  0  0
 47120  1  0  0  0
 48 56  1  0  0  0
 48 65  1  0  0  0
 48121  1  0  0  0
 49 50  1  0  0  0
 49 53  1  0  0  0
 49 64  1  0  0  0
 49122  1  0  0  0
 50 51  1  0  0  0
 50123  1  0  0  0
 50124  1  0  0  0
 51 52  1  0  0  0
 51125  1  0  0  0
 51126  1  0  0  0
 52127  1  0  0  0
 52128  1  0  0  0
 53 54  1  0  0  0
 54 55  2  0  0  0
 54129  1  0  0  0
 55 57  1  0  0  0
 55130  1  0  0  0
 56 69  2  0  0  0
 57 58  2  0  0  0
 57131  1  0  0  0
 58132  1  0  0  0
 59 60  1  0  0  0
 59 61  1  0  0  0
 59 62  1  0  0  0
 60133  1  0  0  0
 60134  1  0  0  0
 60135  1  0  0  0
 61136  1  0  0  0
 61137  1  0  0  0
 61138  1  0  0  0
 62139  1  0  0  0
 62140  1  0  0  0
 62141  1  0  0  0
 63 65  1  0  0  0
 63142  1  0  0  0
 63143  1  0  0  0
 63144  1  0  0  0
 64145  1  0  0  0
 65146  1  0  0  0
 68 81  1  0  0  0
 71 74  2  0  0  0
 71 75  1  0  0  0
 71147  1  0  0  0
 72 74  1  0  0  0
 72 76  2  0  0  0
 72148  1  0  0  0
 73 75  2  0  0  0
 73 76  1  0  0  0
 73149  1  0  0  0
 74 82  1  0  0  0
 75 83  1  0  0  0
 76 84  1  0  0  0
 77 79  1  0  0  0
 77 83  1  0  0  0
 77 85  2  0  0  0
 78150  1  0  0  0
 78151  1  0  0  0
 78152  1  0  0  0
 78 82  1  0  0  0
 79 80  1  0  0  0
 79153  1  0  0  0
 79154  1  0  0  0
 80 81  1  0  0  0
 80155  1  0  0  0
 80156  1  0  0  0
 81157  1  0  0  0
 81158  1  0  0  0
 82 86  1  0  0  0
 82 87  1  0  0  0
 83159  1  0  0  0
 84160  1  0  0  0
M  ISO  4   1 100  68 101  81 101  84 100
M  END
> <chiral flag>
0

> <version>
0

> <s_m_source_file>
/data/baiqing/PycharmProjects/Reinvent-master-3.2/result/LINK_invent/BTK/process_docking_weight1_custom_product_contain_oxygen_bond_distance_aromatic_linkinvent_7_9_3/rearranged_h_0062.sdf

> <i_m_source_file_index>
70

> <r_mmod_Potential_Energy-OPLS-2005>
-109.17325592041

> <r_mmod_Stretch_Energy-OPLS-2005>
44.0894775390625

> <r_mmod_Bend_Energy-OPLS-2005>
102.922080993652

> <r_mmod_Torsional_Energy-OPLS-2005>
223.863784790039

> <r_mmod_Improper_Torsional_Energy-OPLS-2005>
3.6371853351593

> <r_mmod_Van_der_Waal_Energy-OPLS-2005>
168.532348632812

> <r_mmod_Electrostatic_Energy-OPLS-2005>
-432.165557861328

> <r_mmod_Solvation_Energy-OPLS-2005>
-237.304107666016

> <b_mmod_Minimization_Converged-OPLS-2005>
0

> <r_mmod_RMS_Derivative-OPLS-2005>
0.846710324287415

$$$$
70
                    3D
 Structure written by MMmdl.
160169  0  0  1  0            999 V2000
  -30.4933  -15.0492   20.4191 C   0  0  0  0  0  0
  -30.4489  -12.6654   19.4860 C   0  0  0  0  0  0
  -29.5252  -12.5351   18.2520 C   0  0  0  0  0  0
  -28.0637  -12.2990   18.6818 C   0  0  0  0  0  0
  -27.6219  -13.2498   19.8242 C   0  0  2  0  0  0
  -28.6672  -13.3264   20.9537 C   0  0  0  0  0  0
  -25.2444  -13.8204   20.5707 C   0  0  0  0  0  0
  -24.1764  -13.0426   20.9223 C   0  0  0  0  0  0
  -24.6392  -11.6911   20.8749 C   0  0  0  0  0  0
  -23.9078  -10.4283   21.0409 C   0  0  0  0  0  0
  -24.3621   -9.4201   21.9188 C   0  0  0  0  0  0
  -23.6290   -8.2239   22.0760 C   0  0  0  0  0  0
  -22.4270   -8.0284   21.3550 C   0  0  0  0  0  0
  -21.9907   -9.0257   20.4652 C   0  0  0  0  0  0
  -22.7247  -10.2131   20.3062 C   0  0  0  0  0  0
  -21.6849   -6.0734   22.5282 C   0  0  0  0  0  0
  -21.4016   -6.5634   23.8215 C   0  0  0  0  0  0
  -21.3658   -5.6788   24.9173 C   0  0  0  0  0  0
  -21.6044   -4.3051   24.7223 C   0  0  0  0  0  0
  -21.8819   -3.8146   23.4342 C   0  0  0  0  0  0
  -21.9187   -4.6964   22.3398 C   0  0  0  0  0  0
  -22.7787  -13.5199   21.1885 C   0  0  0  0  0  0
  -22.1659   -4.2155   21.0976 F   0  0  0  0  0  0
  -21.5631   -3.4531   25.7733 F   0  0  0  0  0  0
  -29.9184  -13.7761   20.3295 N   0  0  0  0  0  0
  -26.2853  -12.9434   20.3192 N   0  0  0  0  0  0
  -25.9321  -11.6561   20.5710 N   0  0  0  0  0  0
  -22.0425  -12.8197   22.0438 N   0  0  0  0  0  0
  -25.4093  -15.1940   20.4172 N   0  0  0  0  0  0
  -31.7220  -15.1012   20.2810 O   0  0  0  0  0  0
  -21.6636   -6.8877   21.4243 O   0  0  0  0  0  0
  -22.3469  -14.5505   20.6726 O   0  0  0  0  0  0
  -24.6482  -31.8386   23.1819 C   0  0  0  0  0  0
  -25.9226  -32.4669   23.8240 C   0  0  1  0  0  0
  -27.2215  -27.0698   20.1877 C   0  0  0  0  0  0
  -25.5945  -33.8475   24.2154 N   0  0  0  0  0  0
  -23.4554  -30.4527   21.5293 C   0  0  2  0  0  0
  -24.9054  -28.8518   20.1299 C   0  0  0  0  0  0
  -22.7586  -29.4522   22.4857 C   0  0  0  0  0  0
  -18.0309  -28.1401   22.8479 C   0  0  0  0  0  0
  -24.1492  -36.7243   23.2645 C   0  0  0  0  0  0
  -26.0142  -30.6919   21.3885 C   0  0  0  0  0  0
  -26.0846  -29.2892   20.7470 C   0  0  0  0  0  0
  -27.2457  -28.4189   20.7461 C   0  0  0  0  0  0
  -26.0118  -26.7344   19.5474 C   0  0  0  0  0  0
  -24.8832  -27.5886   19.5158 C   0  0  0  0  0  0
  -23.6881  -29.7677   20.1559 C   0  0  0  0  0  0
  -25.4125  -36.3014   24.0313 C   0  0  1  0  0  0
  -20.5919  -28.3729   23.1235 C   0  0  2  0  0  0
  -20.6790  -26.9428   22.5409 C   0  0  0  0  0  0
  -19.5763  -26.6385   21.5218 C   0  0  0  0  0  0
  -18.1946  -26.7939   22.1627 C   0  0  0  0  0  0
  -19.1564  -28.8886   23.2849 C   0  0  0  0  0  0
  -18.9478  -30.1478   23.8882 C   0  0  0  0  0  0
  -17.6472  -30.6596   24.0558 C   0  0  0  0  0  0
  -25.9080  -34.9391   23.5047 C   0  0  0  0  0  0
  -16.5365  -29.9089   23.6333 C   0  0  0  0  0  0
  -16.7293  -28.6504   23.0364 C   0  0  0  0  0  0
  -26.4526  -31.6557   25.0703 C   0  0  0  0  0  0
  -25.3692  -31.3766   26.1387 C   0  0  0  0  0  0
  -27.0394  -30.2944   24.6319 C   0  0  0  0  0  0
  -27.6049  -32.4330   25.7492 C   0  0  0  0  0  0
  -27.5576  -37.1775   24.8464 C   0  0  0  0  0  0
  -21.4272  -29.3048   22.3602 N   0  0  0  0  0  0
  -26.4283  -37.3732   23.9410 N   0  0  0  0  0  0
  -24.7264  -31.0182   22.0883 N   0  0  0  0  0  0
  -23.4201  -28.8082   23.3040 O   0  0  0  0  0  0
  -28.3204  -26.1311   20.0632 O   0  0  0  0  0  0
  -26.5677  -34.8897   22.4637 O   0  0  0  0  0  0
  -23.5582  -32.1287   23.6998 O   0  0  0  0  0  0
  -29.5530  -19.1320   22.8142 C   0  0  0  0  0  0
  -29.2895  -20.3323   22.1096 C   0  0  0  0  0  0
  -29.7596  -17.8809   22.1811 C   0  0  0  0  0  0
  -29.4196  -19.0168   20.0658 C   0  0  0  0  0  0
  -29.2447  -20.3766   20.7022 C   0  0  0  0  0  0
  -29.6840  -17.7128   20.7807 C   0  0  0  0  0  0
  -30.3991  -22.1762   19.4193 C   0  0  0  0  0  0
  -32.4725  -21.4026   18.1829 C   0  0  0  0  0  0
  -28.1915  -23.0628   20.3331 C   0  0  0  0  0  0
  -30.1067  -24.6744   20.7529 C   0  0  0  0  0  0
  -28.5814  -24.6977   20.6925 C   0  0  1  0  0  0
  -33.1370  -20.0872   17.7951 C   0  0  0  0  0  0
  -29.2510  -21.8589   20.0882 N   0  0  0  0  0  0
  -29.6817  -16.2350   20.2847 N   0  0  0  0  0  0
  -31.2504  -21.2385   18.9191 N   0  3  0  0  0  0
  -32.9609  -22.4925   17.8710 O   0  0  0  0  0  0
  -30.7892  -23.9569   19.2285 S   0  0  0  0  0  0
  -31.4729  -12.8610   19.1637 H   0  0  0  0  0  0
  -30.4839  -11.7327   20.0512 H   0  0  0  0  0  0
  -29.8620  -11.7217   17.6071 H   0  0  0  0  0  0
  -29.5868  -13.4453   17.6535 H   0  0  0  0  0  0
  -27.9852  -11.2646   19.0195 H   0  0  0  0  0  0
  -27.3959  -12.3930   17.8251 H   0  0  0  0  0  0
  -27.5660  -14.2383   19.3675 H   0  0  0  0  0  0
  -28.7891  -12.3635   21.4529 H   0  0  0  0  0  0
  -28.3524  -14.0386   21.7185 H   0  0  0  0  0  0
  -25.2766   -9.5673   22.4760 H   0  0  0  0  0  0
  -23.9998   -7.4623   22.7474 H   0  0  0  0  0  0
  -21.0841   -8.8786   19.8950 H   0  0  0  0  0  0
  -22.3716  -10.9672   19.6173 H   0  0  0  0  0  0
  -21.2014   -7.6145   23.9718 H   0  0  0  0  0  0
  -21.1480   -6.0515   25.9075 H   0  0  0  0  0  0
  -22.0596   -2.7607   23.2839 H   0  0  0  0  0  0
  -22.4028  -11.9869   22.4863 H   0  0  0  0  0  0
  -21.1047  -13.1244   22.2631 H   0  0  0  0  0  0
  -24.6397  -15.8429   20.5424 H   0  0  0  0  0  0
  -26.2556  -15.6444   20.0969 H   0  0  0  0  0  0
  -26.7293  -32.5256   23.0966 H   0  0  0  0  0  0
  -25.0037  -33.9580   25.0263 H   0  0  0  0  0  0
  -22.7609  -31.2792   21.3645 H   0  0  0  0  0  0
  -23.3757  -35.9571   23.3289 H   0  0  0  0  0  0
  -24.3578  -36.8899   22.2064 H   0  0  0  0  0  0
  -23.7247  -37.6431   23.6700 H   0  0  0  0  0  0
  -26.1710  -31.4343   20.6048 H   0  0  0  0  0  0
  -26.8844  -30.7535   22.0303 H   0  0  0  0  0  0
  -28.1596  -28.7674   21.2056 H   0  0  0  0  0  0
  -25.9370  -25.7733   19.0581 H   0  0  0  0  0  0
  -23.9840  -27.2487   19.0204 H   0  0  0  0  0  0
  -23.8375  -30.5344   19.3949 H   0  0  0  0  0  0
  -22.8007  -29.2152   19.8422 H   0  0  0  0  0  0
  -25.1315  -36.1831   25.0804 H   0  0  0  0  0  0
  -21.0011  -28.3325   24.1354 H   0  0  0  0  0  0
  -20.5686  -26.2346   23.3634 H   0  0  0  0  0  0
  -21.6658  -26.7436   22.1205 H   0  0  0  0  0  0
  -19.6924  -25.6289   21.1270 H   0  0  0  0  0  0
  -19.6697  -27.3179   20.6735 H   0  0  0  0  0  0
  -17.4212  -26.6689   21.4031 H   0  0  0  0  0  0
  -18.0337  -26.0092   22.9034 H   0  0  0  0  0  0
  -19.7953  -30.7301   24.2249 H   0  0  0  0  0  0
  -17.5024  -31.6276   24.5160 H   0  0  0  0  0  0
  -15.5365  -30.2985   23.7665 H   0  0  0  0  0  0
  -15.8693  -28.0812   22.7097 H   0  0  0  0  0  0
  -24.5871  -30.7121   25.7698 H   0  0  0  0  0  0
  -24.8879  -32.2953   26.4746 H   0  0  0  0  0  0
  -25.7949  -30.8972   27.0210 H   0  0  0  0  0  0
  -26.3019  -29.6660   24.1314 H   0  0  0  0  0  0
  -27.3973  -29.7258   25.4912 H   0  0  0  0  0  0
  -27.8941  -30.4167   23.9665 H   0  0  0  0  0  0
  -27.2640  -33.3652   26.2010 H   0  0  0  0  0  0
  -28.3889  -32.6861   25.0342 H   0  0  0  0  0  0
  -28.0688  -31.8498   26.5456 H   0  0  0  0  0  0
  -28.2575  -38.0087   24.7512 H   0  0  0  0  0  0
  -28.1087  -36.2614   24.6281 H   0  0  0  0  0  0
  -27.2295  -37.1413   25.8867 H   0  0  0  0  0  0
  -20.9502  -29.8740   21.6750 H   0  0  0  0  0  0
  -26.0142  -38.2795   24.1416 H   0  0  0  0  0  0
  -29.6054  -19.1739   23.8934 H   0  0  0  0  0  0
  -29.1884  -21.2501   22.6717 H   0  0  0  0  0  0
  -29.9274  -17.0171   22.8095 H   0  0  0  0  0  0
  -29.3481  -18.9688   18.9885 H   0  0  0  0  0  0
  -27.5810  -23.0877   19.4314 H   0  0  0  0  0  0
  -27.5096  -22.7124   21.1075 H   0  0  0  0  0  0
  -30.4461  -24.0723   21.5971 H   0  0  0  0  0  0
  -30.5121  -25.6748   20.9065 H   0  0  0  0  0  0
  -28.2308  -24.8368   21.7162 H   0  0  0  0  0  0
  -33.2712  -19.4500   18.6691 H   0  0  0  0  0  0
  -34.1178  -20.2689   17.3555 H   0  0  0  0  0  0
  -32.5276  -19.5563   17.0640 H   0  0  0  0  0  0
  -28.7674  -15.9659   19.9556 H   0  0  0  0  0  0
  -30.9340  -20.3044   19.1162 H   0  0  0  0  0  0
  1 25  1  0  0  0
  1 30  2  0  0  0
  1 84  1  0  0  0
  2  3  1  0  0  0
  2 25  1  0  0  0
  2 88  1  0  0  0
  2 89  1  0  0  0
  3  4  1  0  0  0
  3 90  1  0  0  0
  3 91  1  0  0  0
  4  5  1  0  0  0
  4 92  1  0  0  0
  4 93  1  0  0  0
  5  6  1  0  0  0
  5 26  1  0  0  0
  5 94  1  0  0  0
  6 25  1  0  0  0
  6 95  1  0  0  0
  6 96  1  0  0  0
  7  8  2  0  0  0
  7 26  1  0  0  0
  7 29  1  0  0  0
  8  9  1  0  0  0
  8 22  1  0  0  0
  9 10  1  0  0  0
  9 27  2  0  0  0
 10 11  2  0  0  0
 10 15  1  0  0  0
 11 12  1  0  0  0
 11 97  1  0  0  0
 12 13  2  0  0  0
 12 98  1  0  0  0
 13 14  1  0  0  0
 13 31  1  0  0  0
 14 15  2  0  0  0
 14 99  1  0  0  0
 15100  1  0  0  0
 16 17  2  0  0  0
 16 21  1  0  0  0
 16 31  1  0  0  0
 17 18  1  0  0  0
 17101  1  0  0  0
 18 19  2  0  0  0
 18102  1  0  0  0
 19 20  1  0  0  0
 19 24  1  0  0  0
 20 21  2  0  0  0
 20103  1  0  0  0
 21 23  1  0  0  0
 22 28  1  0  0  0
 22 32  2  0  0  0
 26 27  1  0  0  0
 28104  1  0  0  0
 28105  1  0  0  0
 29106  1  0  0  0
 29107  1  0  0  0
 33 34  1  0  0  0
 33 66  1  0  0  0
 33 70  2  0  0  0
 34 36  1  0  0  0
 34 59  1  0  0  0
 34108  1  0  0  0
 35 44  2  0  0  0
 35 45  1  0  0  0
 35 68  1  0  0  0
 36 56  1  0  0  0
 36109  1  0  0  0
 37 39  1  0  0  0
 37 47  1  0  0  0
 37 66  1  0  0  0
 37110  1  0  0  0
 38 43  2  0  0  0
 38 46  1  0  0  0
 38 47  1  0  0  0
 39 64  1  0  0  0
 39 67  2  0  0  0
 40 52  1  0  0  0
 40 53  2  0  0  0
 40 58  1  0  0  0
 41111  1  0  0  0
 41112  1  0  0  0
 41113  1  0  0  0
 41 48  1  0  0  0
 42 43  1  0  0  0
 42 66  1  0  0  0
 42114  1  0  0  0
 42115  1  0  0  0
 43 44  1  0  0  0
 44116  1  0  0  0
 45 46  2  0  0  0
 45117  1  0  0  0
 46118  1  0  0  0
 47119  1  0  0  0
 47120  1  0  0  0
 48 56  1  0  0  0
 48 65  1  0  0  0
 48121  1  0  0  0
 49 50  1  0  0  0
 49 53  1  0  0  0
 49 64  1  0  0  0
 49122  1  0  0  0
 50 51  1  0  0  0
 50123  1  0  0  0
 50124  1  0  0  0
 51 52  1  0  0  0
 51125  1  0  0  0
 51126  1  0  0  0
 52127  1  0  0  0
 52128  1  0  0  0
 53 54  1  0  0  0
 54 55  2  0  0  0
 54129  1  0  0  0
 55 57  1  0  0  0
 55130  1  0  0  0
 56 69  2  0  0  0
 57 58  2  0  0  0
 57131  1  0  0  0
 58132  1  0  0  0
 59 60  1  0  0  0
 59 61  1  0  0  0
 59 62  1  0  0  0
 60133  1  0  0  0
 60134  1  0  0  0
 60135  1  0  0  0
 61136  1  0  0  0
 61137  1  0  0  0
 61138  1  0  0  0
 62139  1  0  0  0
 62140  1  0  0  0
 62141  1  0  0  0
 63 65  1  0  0  0
 63142  1  0  0  0
 63143  1  0  0  0
 63144  1  0  0  0
 64145  1  0  0  0
 65146  1  0  0  0
 68 81  1  0  0  0
 71 72  2  0  0  0
 71 73  1  0  0  0
 71147  1  0  0  0
 72 75  1  0  0  0
 72148  1  0  0  0
 73 76  2  0  0  0
 73149  1  0  0  0
 74 75  2  0  0  0
 74 76  1  0  0  0
 74150  1  0  0  0
 75 83  1  0  0  0
 76 84  1  0  0  0
 77 83  1  0  0  0
 77 85  2  0  0  0
 77 87  1  0  0  0
 78 82  1  0  0  0
 78 85  1  0  0  0
 78 86  2  0  0  0
 79 81  1  0  0  0
 79 83  1  0  0  0
 79151  1  0  0  0
 79152  1  0  0  0
 80 81  1  0  0  0
 80 87  1  0  0  0
 80153  1  0  0  0
 80154  1  0  0  0
 81155  1  0  0  0
 82156  1  0  0  0
 82157  1  0  0  0
 82158  1  0  0  0
 84159  1  0  0  0
 85160  1  0  0  0
M  CHG  1  85   1
M  ISO  4   1 100  68 101  81 101  84 100
M  END
> <chiral flag>
0

> <version>
0

> <s_m_source_file>
/data/baiqing/PycharmProjects/Reinvent-master-3.2/result/LINK_invent/BTK/process_docking_weight1_custom_product_contain_oxygen_bond_distance_aromatic_linkinvent_7_9_3/rearranged_h_0062.sdf

> <i_m_source_file_index>
71

> <r_mmod_Potential_Energy-OPLS-2005>
696.783081054688

> <r_mmod_Stretch_Energy-OPLS-2005>
344.439117431641

> <r_mmod_Bend_Energy-OPLS-2005>
383.990753173828

> <r_mmod_Torsional_Energy-OPLS-2005>
325.306884765625

> <r_mmod_Improper_Torsional_Energy-OPLS-2005>
14.0432806015015

> <r_mmod_Van_der_Waal_Energy-OPLS-2005>
134.391571044922

> <r_mmod_Electrostatic_Energy-OPLS-2005>
-292.156982421875

> <r_mmod_Solvation_Energy-OPLS-2005>
-467.950103759766

> <b_mmod_Minimization_Converged-OPLS-2005>
0

> <r_mmod_RMS_Derivative-OPLS-2005>
1.23465132713318

$$$$
71
                    3D
 Structure written by MMmdl.
160168  0  0  1  0            999 V2000
  -30.6503  -14.6032   20.4223 C   0  0  0  0  0  0
  -30.4514  -12.3567   19.4261 C   0  0  0  0  0  0
  -29.4982  -12.4021   18.2117 C   0  0  0  0  0  0
  -28.0130  -12.3372   18.6248 C   0  0  0  0  0  0
  -27.6623  -13.2075   19.8623 C   0  0  2  0  0  0
  -28.7226  -13.0665   20.9798 C   0  0  0  0  0  0
  -25.2631  -13.8157   20.5697 C   0  0  0  0  0  0
  -24.1849  -13.0439   20.9165 C   0  0  0  0  0  0
  -24.6433  -11.6913   20.8762 C   0  0  0  0  0  0
  -23.9082  -10.4310   21.0415 C   0  0  0  0  0  0
  -24.3640   -9.4212   21.9199 C   0  0  0  0  0  0
  -23.6312   -8.2248   22.0755 C   0  0  0  0  0  0
  -22.4291   -8.0296   21.3549 C   0  0  0  0  0  0
  -21.9916   -9.0274   20.4650 C   0  0  0  0  0  0
  -22.7255  -10.2155   20.3064 C   0  0  0  0  0  0
  -21.6842   -6.0746   22.5275 C   0  0  0  0  0  0
  -21.4017   -6.5650   23.8214 C   0  0  0  0  0  0
  -21.3655   -5.6802   24.9173 C   0  0  0  0  0  0
  -21.6049   -4.3071   24.7224 C   0  0  0  0  0  0
  -21.8825   -3.8164   23.4355 C   0  0  0  0  0  0
  -21.9196   -4.6971   22.3411 C   0  0  0  0  0  0
  -22.7879  -13.5264   21.1809 C   0  0  0  0  0  0
  -22.1662   -4.2183   21.0979 F   0  0  0  0  0  0
  -21.5642   -3.4533   25.7725 F   0  0  0  0  0  0
  -30.0277  -13.3887   20.3890 N   0  0  0  0  0  0
  -26.3087  -12.9317   20.3428 N   0  0  0  0  0  0
  -25.9375  -11.6487   20.5856 N   0  0  0  0  0  0
  -22.0506  -12.8249   22.0321 N   0  0  0  0  0  0
  -25.4285  -15.1878   20.4148 N   0  0  0  0  0  0
  -31.8390  -14.7344   20.1270 O   0  0  0  0  0  0
  -21.6662   -6.8879   21.4226 O   0  0  0  0  0  0
  -22.3582  -14.5580   20.6659 O   0  0  0  0  0  0
  -24.6158  -31.8648   23.2082 C   0  0  0  0  0  0
  -25.9024  -32.4808   23.8421 C   0  0  1  0  0  0
  -27.2614  -27.4160   20.0930 C   0  0  0  0  0  0
  -25.5871  -33.8604   24.2337 N   0  0  0  0  0  0
  -23.4068  -30.4820   21.5510 C   0  0  2  0  0  0
  -24.8577  -28.9383   20.1211 C   0  0  0  0  0  0
  -22.7416  -29.4617   22.5042 C   0  0  0  0  0  0
  -18.0254  -28.1366   22.8519 C   0  0  0  0  0  0
  -24.1463  -36.7294   23.2659 C   0  0  0  0  0  0
  -25.9357  -30.8251   21.3603 C   0  0  0  0  0  0
  -26.0160  -29.4537   20.7123 C   0  0  0  0  0  0
  -27.2151  -28.7001   20.6942 C   0  0  0  0  0  0
  -26.0776  -26.9151   19.5025 C   0  0  0  0  0  0
  -24.8850  -27.6699   19.5141 C   0  0  0  0  0  0
  -23.6181  -29.8067   20.1673 C   0  0  0  0  0  0
  -25.4095  -36.3108   24.0354 C   0  0  1  0  0  0
  -20.5844  -28.3629   23.1357 C   0  0  2  0  0  0
  -20.6728  -26.9363   22.5459 C   0  0  0  0  0  0
  -19.5720  -26.6375   21.5232 C   0  0  0  0  0  0
  -18.1883  -26.7921   22.1616 C   0  0  0  0  0  0
  -19.1507  -28.8820   23.2931 C   0  0  0  0  0  0
  -18.9423  -30.1414   23.8953 C   0  0  0  0  0  0
  -17.6423  -30.6578   24.0563 C   0  0  0  0  0  0
  -25.9023  -34.9474   23.5163 C   0  0  0  0  0  0
  -16.5314  -29.9082   23.6329 C   0  0  0  0  0  0
  -16.7234  -28.6482   23.0382 C   0  0  0  0  0  0
  -26.4472  -31.6575   25.0746 C   0  0  0  0  0  0
  -25.3771  -31.3669   26.1536 C   0  0  0  0  0  0
  -27.0211  -30.3007   24.6056 C   0  0  0  0  0  0
  -27.6136  -32.4238   25.7443 C   0  0  0  0  0  0
  -27.5553  -37.1836   24.8488 C   0  0  0  0  0  0
  -21.4137  -29.2995   22.3783 N   0  0  0  0  0  0
  -26.4283  -37.3786   23.9400 N   0  0  0  0  0  0
  -24.6711  -31.0715   22.0981 N   0  0  0  0  0  0
  -23.4169  -28.8158   23.3101 O   0  0  0  0  0  0
  -28.4661  -26.7252   20.1068 O   0  0  0  0  0  0
  -26.5609  -34.8913   22.4728 O   0  0  0  0  0  0
  -23.5338  -32.1416   23.7447 O   0  0  0  0  0  0
  -30.1556  -19.5957   18.8007 C   0  0  0  0  0  0
  -29.7951  -18.1924   20.7471 C   0  0  0  0  0  0
  -30.2559  -18.4627   17.9787 C   0  0  0  0  0  0
  -30.1111  -17.1657   18.5403 C   0  0  0  0  0  0
  -29.8337  -19.5010   20.1673 C   0  0  0  0  0  0
  -29.9649  -17.0058   19.9575 C   0  0  0  0  0  0
  -29.0540  -21.8844   20.4019 C   0  0  0  0  0  0
  -30.4872  -18.7154   16.4927 C   0  0  0  0  0  0
  -30.0268  -15.9642   17.6111 C   0  0  0  0  0  0
  -29.0524  -23.1844   21.2535 C   0  0  0  0  0  0
  -28.0872  -24.3300   20.7616 C   0  0  0  0  0  0
  -28.5772  -25.3471   19.6858 C   0  0  0  0  0  0
  -29.5907  -20.7281   20.9036 N   0  0  0  0  0  0
  -29.8386  -15.6908   20.5682 N   0  0  0  0  0  0
  -28.5112  -21.9321   19.2954 O   0  0  0  0  0  0
  -31.4766  -12.5121   19.0813 H   0  0  0  0  0  0
  -30.4462  -11.3738   19.8968 H   0  0  0  0  0  0
  -29.7145  -11.5658   17.5464 H   0  0  0  0  0  0
  -29.6852  -13.2880   17.6156 H   0  0  0  0  0  0
  -27.7825  -11.2922   18.8314 H   0  0  0  0  0  0
  -27.3816  -12.6218   17.7811 H   0  0  0  0  0  0
  -27.6773  -14.2410   19.5229 H   0  0  0  0  0  0
  -28.7382  -12.0528   21.3859 H   0  0  0  0  0  0
  -28.4990  -13.7300   21.8152 H   0  0  0  0  0  0
  -25.2793   -9.5701   22.4758 H   0  0  0  0  0  0
  -24.0033   -7.4653   22.7498 H   0  0  0  0  0  0
  -21.0840   -8.8781   19.8970 H   0  0  0  0  0  0
  -22.3700  -10.9696   19.6181 H   0  0  0  0  0  0
  -21.1975   -7.6155   23.9733 H   0  0  0  0  0  0
  -21.1469   -6.0524   25.9082 H   0  0  0  0  0  0
  -22.0601   -2.7628   23.2840 H   0  0  0  0  0  0
  -22.4082  -11.9857   22.4663 H   0  0  0  0  0  0
  -21.1154  -13.1301   22.2539 H   0  0  0  0  0  0
  -24.6435  -15.8283   20.4879 H   0  0  0  0  0  0
  -26.2860  -15.6533   20.1456 H   0  0  0  0  0  0
  -26.7103  -32.5510   23.1196 H   0  0  0  0  0  0
  -24.9999  -33.9766   25.0475 H   0  0  0  0  0  0
  -22.6977  -31.2995   21.4065 H   0  0  0  0  0  0
  -23.3750  -35.9596   23.3291 H   0  0  0  0  0  0
  -24.3579  -36.8933   22.2080 H   0  0  0  0  0  0
  -23.7136  -37.6460   23.6687 H   0  0  0  0  0  0
  -26.0409  -31.5827   20.5831 H   0  0  0  0  0  0
  -26.8258  -30.8916   21.9726 H   0  0  0  0  0  0
  -28.1114  -29.1030   21.1470 H   0  0  0  0  0  0
  -26.0537  -25.9500   19.0202 H   0  0  0  0  0  0
  -23.9951  -27.2663   19.0519 H   0  0  0  0  0  0
  -23.7327  -30.5802   19.4076 H   0  0  0  0  0  0
  -22.7421  -29.2291   19.8682 H   0  0  0  0  0  0
  -25.1269  -36.2012   25.0851 H   0  0  0  0  0  0
  -20.9907  -28.3151   24.1480 H   0  0  0  0  0  0
  -20.5577  -26.2227   23.3639 H   0  0  0  0  0  0
  -21.6594  -26.7393   22.1251 H   0  0  0  0  0  0
  -19.6855  -25.6290   21.1242 H   0  0  0  0  0  0
  -19.6652  -27.3212   20.6784 H   0  0  0  0  0  0
  -17.4155  -26.6705   21.4003 H   0  0  0  0  0  0
  -18.0245  -26.0047   22.8988 H   0  0  0  0  0  0
  -19.7888  -30.7219   24.2356 H   0  0  0  0  0  0
  -17.4965  -31.6278   24.5137 H   0  0  0  0  0  0
  -15.5303  -30.2992   23.7635 H   0  0  0  0  0  0
  -15.8622  -28.0790   22.7136 H   0  0  0  0  0  0
  -24.5777  -30.7250   25.7825 H   0  0  0  0  0  0
  -24.9198  -32.2818   26.5307 H   0  0  0  0  0  0
  -25.8116  -30.8511   27.0101 H   0  0  0  0  0  0
  -26.2654  -29.6812   24.1202 H   0  0  0  0  0  0
  -27.4063  -29.7227   25.4461 H   0  0  0  0  0  0
  -27.8498  -30.4324   23.9095 H   0  0  0  0  0  0
  -27.2908  -33.3638   26.1930 H   0  0  0  0  0  0
  -28.3973  -32.6575   25.0224 H   0  0  0  0  0  0
  -28.0732  -31.8351   26.5391 H   0  0  0  0  0  0
  -28.2663  -38.0049   24.7417 H   0  0  0  0  0  0
  -28.0943  -36.2572   24.6444 H   0  0  0  0  0  0
  -27.2277  -37.1647   25.8904 H   0  0  0  0  0  0
  -20.9310  -29.8737   21.7018 H   0  0  0  0  0  0
  -26.0179  -38.2876   24.1356 H   0  0  0  0  0  0
  -30.2709  -20.5693   18.3478 H   0  0  0  0  0  0
  -29.6001  -18.0943   21.8054 H   0  0  0  0  0  0
  -30.3994  -19.7761   16.2551 H   0  0  0  0  0  0
  -29.7490  -18.2187   15.8671 H   0  0  0  0  0  0
  -31.4863  -18.4013   16.1941 H   0  0  0  0  0  0
  -29.8531  -16.2117   16.5672 H   0  0  0  0  0  0
  -29.1746  -15.3574   17.9068 H   0  0  0  0  0  0
  -30.9362  -15.3685   17.6576 H   0  0  0  0  0  0
  -30.0659  -23.5686   21.3919 H   0  0  0  0  0  0
  -28.7164  -22.8976   22.2500 H   0  0  0  0  0  0
  -27.7653  -24.8988   21.6337 H   0  0  0  0  0  0
  -27.1745  -23.8678   20.3853 H   0  0  0  0  0  0
  -28.0702  -25.1909   18.7355 H   0  0  0  0  0  0
  -29.6277  -25.1705   19.4522 H   0  0  0  0  0  0
  -29.8398  -20.7311   21.8846 H   0  0  0  0  0  0
  -28.9275  -15.4808   20.9465 H   0  0  0  0  0  0
  1 25  1  0  0  0
  1 30  2  0  0  0
  1 84  1  0  0  0
  2  3  1  0  0  0
  2 25  1  0  0  0
  2 86  1  0  0  0
  2 87  1  0  0  0
  3  4  1  0  0  0
  3 88  1  0  0  0
  3 89  1  0  0  0
  4  5  1  0  0  0
  4 90  1  0  0  0
  4 91  1  0  0  0
  5  6  1  0  0  0
  5 26  1  0  0  0
  5 92  1  0  0  0
  6 25  1  0  0  0
  6 93  1  0  0  0
  6 94  1  0  0  0
  7  8  2  0  0  0
  7 26  1  0  0  0
  7 29  1  0  0  0
  8  9  1  0  0  0
  8 22  1  0  0  0
  9 10  1  0  0  0
  9 27  2  0  0  0
 10 11  2  0  0  0
 10 15  1  0  0  0
 11 12  1  0  0  0
 11 95  1  0  0  0
 12 13  2  0  0  0
 12 96  1  0  0  0
 13 14  1  0  0  0
 13 31  1  0  0  0
 14 15  2  0  0  0
 14 97  1  0  0  0
 15 98  1  0  0  0
 16 17  2  0  0  0
 16 21  1  0  0  0
 16 31  1  0  0  0
 17 18  1  0  0  0
 17 99  1  0  0  0
 18 19  2  0  0  0
 18100  1  0  0  0
 19 20  1  0  0  0
 19 24  1  0  0  0
 20 21  2  0  0  0
 20101  1  0  0  0
 21 23  1  0  0  0
 22 28  1  0  0  0
 22 32  2  0  0  0
 26 27  1  0  0  0
 28102  1  0  0  0
 28103  1  0  0  0
 29104  1  0  0  0
 29105  1  0  0  0
 33 34  1  0  0  0
 33 66  1  0  0  0
 33 70  2  0  0  0
 34 36  1  0  0  0
 34 59  1  0  0  0
 34106  1  0  0  0
 35 44  2  0  0  0
 35 45  1  0  0  0
 35 68  1  0  0  0
 36 56  1  0  0  0
 36107  1  0  0  0
 37 39  1  0  0  0
 37 47  1  0  0  0
 37 66  1  0  0  0
 37108  1  0  0  0
 38 43  2  0  0  0
 38 46  1  0  0  0
 38 47  1  0  0  0
 39 64  1  0  0  0
 39 67  2  0  0  0
 40 52  1  0  0  0
 40 53  2  0  0  0
 40 58  1  0  0  0
 41109  1  0  0  0
 41110  1  0  0  0
 41111  1  0  0  0
 41 48  1  0  0  0
 42 43  1  0  0  0
 42 66  1  0  0  0
 42112  1  0  0  0
 42113  1  0  0  0
 43 44  1  0  0  0
 44114  1  0  0  0
 45 46  2  0  0  0
 45115  1  0  0  0
 46116  1  0  0  0
 47117  1  0  0  0
 47118  1  0  0  0
 48 56  1  0  0  0
 48 65  1  0  0  0
 48119  1  0  0  0
 49 50  1  0  0  0
 49 53  1  0  0  0
 49 64  1  0  0  0
 49120  1  0  0  0
 50 51  1  0  0  0
 50121  1  0  0  0
 50122  1  0  0  0
 51 52  1  0  0  0
 51123  1  0  0  0
 51124  1  0  0  0
 52125  1  0  0  0
 52126  1  0  0  0
 53 54  1  0  0  0
 54 55  2  0  0  0
 54127  1  0  0  0
 55 57  1  0  0  0
 55128  1  0  0  0
 56 69  2  0  0  0
 57 58  2  0  0  0
 57129  1  0  0  0
 58130  1  0  0  0
 59 60  1  0  0  0
 59 61  1  0  0  0
 59 62  1  0  0  0
 60131  1  0  0  0
 60132  1  0  0  0
 60133  1  0  0  0
 61134  1  0  0  0
 61135  1  0  0  0
 61136  1  0  0  0
 62137  1  0  0  0
 62138  1  0  0  0
 62139  1  0  0  0
 63 65  1  0  0  0
 63140  1  0  0  0
 63141  1  0  0  0
 63142  1  0  0  0
 64143  1  0  0  0
 65144  1  0  0  0
 68 82  1  0  0  0
 71 73  2  0  0  0
 71 75  1  0  0  0
 71145  1  0  0  0
 72 75  2  0  0  0
 72 76  1  0  0  0
 72146  1  0  0  0
 73 74  1  0  0  0
 73 78  1  0  0  0
 74 76  2  0  0  0
 74 79  1  0  0  0
 75 83  1  0  0  0
 76 84  1  0  0  0
 77 80  1  0  0  0
 77 83  1  0  0  0
 77 85  2  0  0  0
 78147  1  0  0  0
 78148  1  0  0  0
 78149  1  0  0  0
 79150  1  0  0  0
 79151  1  0  0  0
 79152  1  0  0  0
 80 81  1  0  0  0
 80153  1  0  0  0
 80154  1  0  0  0
 81 82  1  0  0  0
 81155  1  0  0  0
 81156  1  0  0  0
 82157  1  0  0  0
 82158  1  0  0  0
 83159  1  0  0  0
 84160  1  0  0  0
M  ISO  4   1 100  68 101  82 101  84 100
M  END
> <chiral flag>
0

> <version>
0

> <s_m_source_file>
/data/baiqing/PycharmProjects/Reinvent-master-3.2/result/LINK_invent/BTK/process_docking_weight1_custom_product_contain_oxygen_bond_distance_aromatic_linkinvent_7_9_3/rearranged_h_0062.sdf

> <i_m_source_file_index>
72

> <r_mmod_Potential_Energy-OPLS-2005>
-15.4755172729492

> <r_mmod_Stretch_Energy-OPLS-2005>
59.3359031677246

> <r_mmod_Bend_Energy-OPLS-2005>
124.258430480957

> <r_mmod_Torsional_Energy-OPLS-2005>
266.353057861328

> <r_mmod_Improper_Torsional_Energy-OPLS-2005>
6.77322101593018

> <r_mmod_Van_der_Waal_Energy-OPLS-2005>
159.59455871582

> <r_mmod_Electrostatic_Energy-OPLS-2005>
-434.390106201172

> <r_mmod_Solvation_Energy-OPLS-2005>
-229.697860717773

> <b_mmod_Minimization_Converged-OPLS-2005>
0

> <r_mmod_RMS_Derivative-OPLS-2005>
6.18088960647583

$$$$
72
                    3D
 Structure written by MMmdl.
155163  0  0  1  0            999 V2000
  -30.7127  -14.4877   20.5632 C   0  0  0  0  0  0
  -30.4176  -12.3143   19.4303 C   0  0  0  0  0  0
  -29.4934  -12.5009   18.2098 C   0  0  0  0  0  0
  -28.0156  -12.3597   18.6228 C   0  0  0  0  0  0
  -27.6583  -13.2109   19.8710 C   0  0  2  0  0  0
  -28.7010  -13.0183   20.9963 C   0  0  0  0  0  0
  -25.2574  -13.8169   20.5679 C   0  0  0  0  0  0
  -24.1833  -13.0442   20.9185 C   0  0  0  0  0  0
  -24.6393  -11.6909   20.8743 C   0  0  0  0  0  0
  -23.9063  -10.4292   21.0408 C   0  0  0  0  0  0
  -24.3615   -9.4207   21.9185 C   0  0  0  0  0  0
  -23.6290   -8.2243   22.0754 C   0  0  0  0  0  0
  -22.4273   -8.0281   21.3544 C   0  0  0  0  0  0
  -21.9910   -9.0254   20.4646 C   0  0  0  0  0  0
  -22.7238  -10.2134   20.3055 C   0  0  0  0  0  0
  -21.6852   -6.0736   22.5279 C   0  0  0  0  0  0
  -21.4013   -6.5640   23.8213 C   0  0  0  0  0  0
  -21.3657   -5.6792   24.9174 C   0  0  0  0  0  0
  -21.6045   -4.3056   24.7224 C   0  0  0  0  0  0
  -21.8819   -3.8148   23.4346 C   0  0  0  0  0  0
  -21.9193   -4.6965   22.3403 C   0  0  0  0  0  0
  -22.7855  -13.5237   21.1846 C   0  0  0  0  0  0
  -22.1661   -4.2151   21.0981 F   0  0  0  0  0  0
  -21.5629   -3.4540   25.7737 F   0  0  0  0  0  0
  -30.0299  -13.3155   20.4384 N   0  0  0  0  0  0
  -26.3009  -12.9347   20.3354 N   0  0  0  0  0  0
  -25.9322  -11.6504   20.5772 N   0  0  0  0  0  0
  -22.0494  -12.8227   22.0398 N   0  0  0  0  0  0
  -25.4293  -15.1887   20.4065 N   0  0  0  0  0  0
  -31.8439  -14.6345   20.0938 O   0  0  0  0  0  0
  -21.6638   -6.8878   21.4240 O   0  0  0  0  0  0
  -22.3545  -14.5546   20.6695 O   0  0  0  0  0  0
  -24.6162  -31.8670   23.2094 C   0  0  0  0  0  0
  -25.9049  -32.4818   23.8393 C   0  0  1  0  0  0
  -27.2289  -27.4244   20.1015 C   0  0  0  0  0  0
  -25.5901  -33.8617   24.2329 N   0  0  0  0  0  0
  -23.4052  -30.4906   21.5498 C   0  0  2  0  0  0
  -24.8527  -28.9581   20.1108 C   0  0  0  0  0  0
  -22.7422  -29.4654   22.4981 C   0  0  0  0  0  0
  -18.0274  -28.1380   22.8493 C   0  0  0  0  0  0
  -24.1483  -36.7308   23.2639 C   0  0  0  0  0  0
  -25.9350  -30.8317   21.3626 C   0  0  0  0  0  0
  -26.0143  -29.4662   20.7078 C   0  0  0  0  0  0
  -27.2101  -28.7077   20.6978 C   0  0  0  0  0  0
  -26.0554  -26.9377   19.4886 C   0  0  0  0  0  0
  -24.8691  -27.6944   19.4953 C   0  0  0  0  0  0
  -23.6138  -29.8242   20.1635 C   0  0  0  0  0  0
  -25.4105  -36.3108   24.0339 C   0  0  1  0  0  0
  -20.5867  -28.3667   23.1314 C   0  0  2  0  0  0
  -20.6765  -26.9402   22.5415 C   0  0  0  0  0  0
  -19.5741  -26.6388   21.5213 C   0  0  0  0  0  0
  -18.1921  -26.7926   22.1625 C   0  0  0  0  0  0
  -19.1524  -28.8839   23.2901 C   0  0  0  0  0  0
  -18.9452  -30.1446   23.8910 C   0  0  0  0  0  0
  -17.6455  -30.6586   24.0565 C   0  0  0  0  0  0
  -25.9034  -34.9473   23.5132 C   0  0  0  0  0  0
  -16.5345  -29.9088   23.6330 C   0  0  0  0  0  0
  -16.7263  -28.6505   23.0351 C   0  0  0  0  0  0
  -26.4476  -31.6592   25.0717 C   0  0  0  0  0  0
  -25.3742  -31.3692   26.1465 C   0  0  0  0  0  0
  -27.0306  -30.3038   24.6083 C   0  0  0  0  0  0
  -27.6055  -32.4304   25.7480 C   0  0  0  0  0  0
  -27.5577  -37.1808   24.8469 C   0  0  0  0  0  0
  -21.4147  -29.3033   22.3720 N   0  0  0  0  0  0
  -26.4292  -37.3792   23.9411 N   0  0  0  0  0  0
  -24.6706  -31.0768   22.0993 N   0  0  0  0  0  0
  -23.4189  -28.8196   23.3028 O   0  0  0  0  0  0
  -28.3502  -26.6231   20.1357 O   0  0  0  0  0  0
  -26.5595  -34.8926   22.4692 O   0  0  0  0  0  0
  -23.5351  -32.1416   23.7487 O   0  0  0  0  0  0
  -29.4559  -17.9440   21.1408 C   0  0  0  0  0  0
  -31.1872  -19.6457   21.4203 C   0  0  0  0  0  0
  -31.7893  -17.2810   21.3553 C   0  0  0  0  0  0
  -29.8250  -19.3155   21.2643 C   0  0  0  0  0  0
  -30.4321  -16.9090   21.1783 C   0  0  0  0  0  0
  -32.1612  -18.6342   21.4651 C   0  0  0  0  0  0
  -28.8202  -20.3968   21.3084 C   0  0  0  0  0  0
  -28.7800  -24.1579   20.4236 C   0  0  0  0  0  0
  -28.1725  -22.8320   20.9348 C   0  0  0  0  0  0
  -28.1616  -25.4629   20.9800 C   0  0  0  0  0  0
  -30.0211  -15.5297   21.0832 N   0  0  0  0  0  0
  -29.0510  -21.6319   20.8125 N   0  0  0  0  0  0
  -27.6526  -20.1632   21.9049 N   0  3  0  0  0  0
  -29.7321  -24.1569   19.6334 O   0  0  0  0  0  0
  -33.4644  -18.9657   21.6327 F   0  0  0  0  0  0
  -31.4631  -12.4002   19.1293 H   0  0  0  0  0  0
  -30.3112  -11.3089   19.8411 H   0  0  0  0  0  0
  -29.7363  -11.7699   17.4374 H   0  0  0  0  0  0
  -29.6600  -13.4833   17.7652 H   0  0  0  0  0  0
  -27.8307  -11.3049   18.8293 H   0  0  0  0  0  0
  -27.3640  -12.6228   17.7885 H   0  0  0  0  0  0
  -27.6947  -14.2546   19.5582 H   0  0  0  0  0  0
  -28.6796  -11.9907   21.3621 H   0  0  0  0  0  0
  -28.4632  -13.6410   21.8599 H   0  0  0  0  0  0
  -25.2762   -9.5683   22.4757 H   0  0  0  0  0  0
  -24.0000   -7.4635   22.7475 H   0  0  0  0  0  0
  -21.0841   -8.8773   19.8951 H   0  0  0  0  0  0
  -22.3699  -10.9672   19.6162 H   0  0  0  0  0  0
  -21.2003   -7.6147   23.9717 H   0  0  0  0  0  0
  -21.1478   -6.0522   25.9077 H   0  0  0  0  0  0
  -22.0600   -2.7610   23.2846 H   0  0  0  0  0  0
  -22.4100  -11.9879   22.4776 H   0  0  0  0  0  0
  -21.1112  -13.1254   22.2603 H   0  0  0  0  0  0
  -24.6573  -15.8402   20.4983 H   0  0  0  0  0  0
  -26.2703  -15.6215   20.0468 H   0  0  0  0  0  0
  -26.7120  -32.5532   23.1158 H   0  0  0  0  0  0
  -25.0064  -33.9777   25.0483 H   0  0  0  0  0  0
  -22.6942  -31.3078   21.4109 H   0  0  0  0  0  0
  -23.3744  -35.9644   23.3317 H   0  0  0  0  0  0
  -24.3577  -36.8905   22.2051 H   0  0  0  0  0  0
  -23.7238  -37.6519   23.6640 H   0  0  0  0  0  0
  -26.0468  -31.5984   20.5947 H   0  0  0  0  0  0
  -26.8231  -30.8857   21.9804 H   0  0  0  0  0  0
  -28.1050  -29.0907   21.1683 H   0  0  0  0  0  0
  -26.0543  -25.9649   19.0174 H   0  0  0  0  0  0
  -23.9769  -27.2989   19.0297 H   0  0  0  0  0  0
  -23.7205  -30.6000   19.4043 H   0  0  0  0  0  0
  -22.7379  -29.2439   19.8684 H   0  0  0  0  0  0
  -25.1283  -36.1973   25.0833 H   0  0  0  0  0  0
  -20.9959  -28.3230   24.1434 H   0  0  0  0  0  0
  -20.5674  -26.2274   23.3604 H   0  0  0  0  0  0
  -21.6634  -26.7447   22.1201 H   0  0  0  0  0  0
  -19.6905  -25.6306   21.1227 H   0  0  0  0  0  0
  -19.6682  -27.3212   20.6755 H   0  0  0  0  0  0
  -17.4192  -26.6681   21.4023 H   0  0  0  0  0  0
  -18.0315  -26.0065   22.9016 H   0  0  0  0  0  0
  -19.7929  -30.7258   24.2283 H   0  0  0  0  0  0
  -17.5010  -31.6267   24.5165 H   0  0  0  0  0  0
  -15.5346  -30.2994   23.7652 H   0  0  0  0  0  0
  -15.8660  -28.0830   22.7060 H   0  0  0  0  0  0
  -24.5917  -30.7040   25.7798 H   0  0  0  0  0  0
  -24.8931  -32.2843   26.4925 H   0  0  0  0  0  0
  -25.8095  -30.8850   27.0215 H   0  0  0  0  0  0
  -26.2844  -29.6799   24.1147 H   0  0  0  0  0  0
  -27.4098  -29.7274   25.4531 H   0  0  0  0  0  0
  -27.8669  -30.4370   23.9217 H   0  0  0  0  0  0
  -27.2685  -33.3602   26.2074 H   0  0  0  0  0  0
  -28.3857  -32.6861   25.0298 H   0  0  0  0  0  0
  -28.0727  -31.8410   26.5381 H   0  0  0  0  0  0
  -28.2605  -38.0096   24.7506 H   0  0  0  0  0  0
  -28.1063  -36.2627   24.6306 H   0  0  0  0  0  0
  -27.2292  -37.1470   25.8871 H   0  0  0  0  0  0
  -20.9309  -29.8756   21.6941 H   0  0  0  0  0  0
  -26.0182  -38.2873   24.1407 H   0  0  0  0  0  0
  -28.4131  -17.6849   21.0213 H   0  0  0  0  0  0
  -31.4974  -20.6741   21.5370 H   0  0  0  0  0  0
  -32.5721  -16.5423   21.4244 H   0  0  0  0  0  0
  -27.2453  -22.6571   20.3881 H   0  0  0  0  0  0
  -27.9000  -22.9721   21.9817 H   0  0  0  0  0  0
  -28.6199  -25.6688   21.9473 H   0  0  0  0  0  0
  -27.1055  -25.2756   21.1791 H   0  0  0  0  0  0
  -29.0671  -15.3222   21.3347 H   0  0  0  0  0  0
  -29.9055  -21.7904   20.2892 H   0  0  0  0  0  0
  -27.5044  -19.2751   22.3598 H   0  0  0  0  0  0
  -26.9109  -20.8406   21.9344 H   0  0  0  0  0  0
  1 25  1  0  0  0
  1 30  2  0  0  0
  1 81  1  0  0  0
  2  3  1  0  0  0
  2 25  1  0  0  0
  2 86  1  0  0  0
  2 87  1  0  0  0
  3  4  1  0  0  0
  3 88  1  0  0  0
  3 89  1  0  0  0
  4  5  1  0  0  0
  4 90  1  0  0  0
  4 91  1  0  0  0
  5  6  1  0  0  0
  5 26  1  0  0  0
  5 92  1  0  0  0
  6 25  1  0  0  0
  6 93  1  0  0  0
  6 94  1  0  0  0
  7  8  2  0  0  0
  7 26  1  0  0  0
  7 29  1  0  0  0
  8  9  1  0  0  0
  8 22  1  0  0  0
  9 10  1  0  0  0
  9 27  2  0  0  0
 10 11  2  0  0  0
 10 15  1  0  0  0
 11 12  1  0  0  0
 11 95  1  0  0  0
 12 13  2  0  0  0
 12 96  1  0  0  0
 13 14  1  0  0  0
 13 31  1  0  0  0
 14 15  2  0  0  0
 14 97  1  0  0  0
 15 98  1  0  0  0
 16 17  2  0  0  0
 16 21  1  0  0  0
 16 31  1  0  0  0
 17 18  1  0  0  0
 17 99  1  0  0  0
 18 19  2  0  0  0
 18100  1  0  0  0
 19 20  1  0  0  0
 19 24  1  0  0  0
 20 21  2  0  0  0
 20101  1  0  0  0
 21 23  1  0  0  0
 22 28  1  0  0  0
 22 32  2  0  0  0
 26 27  1  0  0  0
 28102  1  0  0  0
 28103  1  0  0  0
 29104  1  0  0  0
 29105  1  0  0  0
 33 34  1  0  0  0
 33 66  1  0  0  0
 33 70  2  0  0  0
 34 36  1  0  0  0
 34 59  1  0  0  0
 34106  1  0  0  0
 35 44  2  0  0  0
 35 45  1  0  0  0
 35 68  1  0  0  0
 36 56  1  0  0  0
 36107  1  0  0  0
 37 39  1  0  0  0
 37 47  1  0  0  0
 37 66  1  0  0  0
 37108  1  0  0  0
 38 43  2  0  0  0
 38 46  1  0  0  0
 38 47  1  0  0  0
 39 64  1  0  0  0
 39 67  2  0  0  0
 40 52  1  0  0  0
 40 53  2  0  0  0
 40 58  1  0  0  0
 41109  1  0  0  0
 41110  1  0  0  0
 41111  1  0  0  0
 41 48  1  0  0  0
 42 43  1  0  0  0
 42 66  1  0  0  0
 42112  1  0  0  0
 42113  1  0  0  0
 43 44  1  0  0  0
 44114  1  0  0  0
 45 46  2  0  0  0
 45115  1  0  0  0
 46116  1  0  0  0
 47117  1  0  0  0
 47118  1  0  0  0
 48 56  1  0  0  0
 48 65  1  0  0  0
 48119  1  0  0  0
 49 50  1  0  0  0
 49 53  1  0  0  0
 49 64  1  0  0  0
 49120  1  0  0  0
 50 51  1  0  0  0
 50121  1  0  0  0
 50122  1  0  0  0
 51 52  1  0  0  0
 51123  1  0  0  0
 51124  1  0  0  0
 52125  1  0  0  0
 52126  1  0  0  0
 53 54  1  0  0  0
 54 55  2  0  0  0
 54127  1  0  0  0
 55 57  1  0  0  0
 55128  1  0  0  0
 56 69  2  0  0  0
 57 58  2  0  0  0
 57129  1  0  0  0
 58130  1  0  0  0
 59 60  1  0  0  0
 59 61  1  0  0  0
 59 62  1  0  0  0
 60131  1  0  0  0
 60132  1  0  0  0
 60133  1  0  0  0
 61134  1  0  0  0
 61135  1  0  0  0
 61136  1  0  0  0
 62137  1  0  0  0
 62138  1  0  0  0
 62139  1  0  0  0
 63 65  1  0  0  0
 63140  1  0  0  0
 63141  1  0  0  0
 63142  1  0  0  0
 64143  1  0  0  0
 65144  1  0  0  0
 68 80  1  0  0  0
 71 74  2  0  0  0
 71 75  1  0  0  0
 71145  1  0  0  0
 72 74  1  0  0  0
 72 76  2  0  0  0
 72146  1  0  0  0
 73 75  2  0  0  0
 73 76  1  0  0  0
 73147  1  0  0  0
 74 77  1  0  0  0
 75 81  1  0  0  0
 76 85  1  0  0  0
 77 82  1  0  0  0
 77 83  2  0  0  0
 78 79  1  0  0  0
 78 80  1  0  0  0
 78 84  2  0  0  0
 79 82  1  0  0  0
 79148  1  0  0  0
 79149  1  0  0  0
 80150  1  0  0  0
 80151  1  0  0  0
 81152  1  0  0  0
 82153  1  0  0  0
 83154  1  0  0  0
 83155  1  0  0  0
M  CHG  1  83   1
M  ISO  4   1 100  68 101  80 101  81 100
M  END
> <chiral flag>
0

> <version>
0

> <s_m_source_file>
/data/baiqing/PycharmProjects/Reinvent-master-3.2/result/LINK_invent/BTK/process_docking_weight1_custom_product_contain_oxygen_bond_distance_aromatic_linkinvent_7_9_3/rearranged_h_0062.sdf

> <i_m_source_file_index>
73

> <r_mmod_Potential_Energy-OPLS-2005>
-357.715362548828

> <r_mmod_Stretch_Energy-OPLS-2005>
42.4576530456543

> <r_mmod_Bend_Energy-OPLS-2005>
94.5017929077148

> <r_mmod_Torsional_Energy-OPLS-2005>
233.450759887695

> <r_mmod_Improper_Torsional_Energy-OPLS-2005>
4.19759321212769

> <r_mmod_Van_der_Waal_Energy-OPLS-2005>
156.441146850586

> <r_mmod_Electrostatic_Energy-OPLS-2005>
-444.066070556641

> <r_mmod_Solvation_Energy-OPLS-2005>
-461.265960693359

> <b_mmod_Minimization_Converged-OPLS-2005>
0

> <r_mmod_RMS_Derivative-OPLS-2005>
0.367875397205353

$$$$
73
                    3D
 Structure written by MMmdl.
161170  0  0  1  0            999 V2000
  -30.6215  -14.7099   20.4480 C   0  0  0  0  0  0
  -30.4275  -12.4265   19.4780 C   0  0  0  0  0  0
  -29.5130  -12.5114   18.2349 C   0  0  0  0  0  0
  -28.0354  -12.3488   18.6415 C   0  0  0  0  0  0
  -27.6471  -13.2337   19.8565 C   0  0  2  0  0  0
  -28.6887  -13.1474   20.9947 C   0  0  0  0  0  0
  -25.2536  -13.8197   20.5694 C   0  0  0  0  0  0
  -24.1811  -13.0445   20.9186 C   0  0  0  0  0  0
  -24.6396  -11.6922   20.8728 C   0  0  0  0  0  0
  -23.9073  -10.4293   21.0399 C   0  0  0  0  0  0
  -24.3617   -9.4211   21.9183 C   0  0  0  0  0  0
  -23.6286   -8.2248   22.0767 C   0  0  0  0  0  0
  -22.4262   -8.0288   21.3562 C   0  0  0  0  0  0
  -21.9901   -9.0264   20.4667 C   0  0  0  0  0  0
  -22.7243  -10.2133   20.3065 C   0  0  0  0  0  0
  -21.6856   -6.0732   22.5276 C   0  0  0  0  0  0
  -21.4019   -6.5633   23.8207 C   0  0  0  0  0  0
  -21.3659   -5.6791   24.9171 C   0  0  0  0  0  0
  -21.6041   -4.3056   24.7222 C   0  0  0  0  0  0
  -21.8819   -3.8143   23.4343 C   0  0  0  0  0  0
  -21.9192   -4.6956   22.3402 C   0  0  0  0  0  0
  -22.7833  -13.5236   21.1832 C   0  0  0  0  0  0
  -22.1664   -4.2152   21.0980 F   0  0  0  0  0  0
  -21.5625   -3.4539   25.7730 F   0  0  0  0  0  0
  -29.9986  -13.4833   20.4242 N   0  0  0  0  0  0
  -26.2959  -12.9411   20.3280 N   0  0  0  0  0  0
  -25.9331  -11.6550   20.5724 N   0  0  0  0  0  0
  -22.0465  -12.8253   22.0388 N   0  0  0  0  0  0
  -25.4241  -15.1927   20.4148 N   0  0  0  0  0  0
  -31.7994  -14.8066   20.0922 O   0  0  0  0  0  0
  -21.6643   -6.8872   21.4241 O   0  0  0  0  0  0
  -22.3518  -14.5537   20.6677 O   0  0  0  0  0  0
  -24.6299  -31.8573   23.1996 C   0  0  0  0  0  0
  -25.9126  -32.4763   23.8333 C   0  0  1  0  0  0
  -27.2040  -27.2660   20.1222 C   0  0  0  0  0  0
  -25.5923  -33.8562   24.2256 N   0  0  0  0  0  0
  -23.4241  -30.4827   21.5449 C   0  0  2  0  0  0
  -24.8663  -28.9352   20.1077 C   0  0  0  0  0  0
  -22.7491  -29.4619   22.4927 C   0  0  0  0  0  0
  -18.0295  -28.1388   22.8492 C   0  0  0  0  0  0
  -24.1493  -36.7291   23.2634 C   0  0  0  0  0  0
  -25.9703  -30.7719   21.3773 C   0  0  0  0  0  0
  -26.0397  -29.3950   20.7202 C   0  0  0  0  0  0
  -27.2107  -28.5711   20.7207 C   0  0  0  0  0  0
  -26.0082  -26.8809   19.4730 C   0  0  0  0  0  0
  -24.8555  -27.6859   19.4743 C   0  0  0  0  0  0
  -23.6381  -29.8217   20.1591 C   0  0  0  0  0  0
  -25.4114  -36.3072   24.0324 C   0  0  1  0  0  0
  -20.5896  -28.3699   23.1285 C   0  0  2  0  0  0
  -20.6791  -26.9422   22.5415 C   0  0  0  0  0  0
  -19.5758  -26.6389   21.5225 C   0  0  0  0  0  0
  -18.1937  -26.7932   22.1634 C   0  0  0  0  0  0
  -19.1546  -28.8862   23.2886 C   0  0  0  0  0  0
  -18.9465  -30.1463   23.8906 C   0  0  0  0  0  0
  -17.6462  -30.6592   24.0562 C   0  0  0  0  0  0
  -25.9057  -34.9442   23.5098 C   0  0  0  0  0  0
  -16.5356  -29.9089   23.6326 C   0  0  0  0  0  0
  -16.7282  -28.6504   23.0356 C   0  0  0  0  0  0
  -26.4487  -31.6566   25.0708 C   0  0  0  0  0  0
  -25.3706  -31.3721   26.1423 C   0  0  0  0  0  0
  -27.0304  -30.2976   24.6166 C   0  0  0  0  0  0
  -27.6042  -32.4294   25.7490 C   0  0  0  0  0  0
  -27.5582  -37.1801   24.8459 C   0  0  0  0  0  0
  -21.4203  -29.3043   22.3670 N   0  0  0  0  0  0
  -26.4289  -37.3771   23.9411 N   0  0  0  0  0  0
  -24.6944  -31.0546   22.0972 N   0  0  0  0  0  0
  -23.4205  -28.8156   23.3014 O   0  0  0  0  0  0
  -28.2891  -26.3611   20.1899 O   0  0  0  0  0  0
  -26.5643  -34.8917   22.4677 O   0  0  0  0  0  0
  -23.5450  -32.1396   23.7295 O   0  0  0  0  0  0
  -29.6374  -18.4613   20.6887 C   0  0  0  0  0  0
  -30.3643  -17.2440   18.7203 C   0  0  0  0  0  0
  -30.2209  -19.7043   18.6639 C   0  0  0  0  0  0
  -29.7590  -19.7540   20.0138 C   0  0  0  0  0  0
  -29.9739  -17.1849   20.0743 C   0  0  0  0  0  0
  -30.4771  -18.4648   18.0343 C   0  0  0  0  0  0
  -30.2971  -21.3653   21.7868 C   0  0  0  0  0  0
  -30.4059  -22.8056   22.3281 C   0  0  0  0  0  0
  -29.2876  -23.7816   21.9309 C   0  0  0  0  0  0
  -28.6788  -22.2013   20.1019 C   0  0  0  0  0  0
  -29.0416  -23.7399   20.4264 C   0  0  1  0  0  0
  -30.5405  -20.9580   17.8586 C   0  0  0  0  0  0
  -28.0144  -24.8993   19.9780 C   0  0  0  0  0  0
  -29.5659  -21.0865   20.6698 N   0  0  0  0  0  0
  -29.8681  -15.8466   20.7075 N   0  0  0  0  0  0
  -30.9420  -20.5054   22.3964 O   0  0  0  0  0  0
  -30.8699  -18.4366   16.7374 F   0  0  0  0  0  0
  -31.4732  -12.5289   19.1822 H   0  0  0  0  0  0
  -30.3475  -11.4434   19.9455 H   0  0  0  0  0  0
  -29.7869  -11.7452   17.5086 H   0  0  0  0  0  0
  -29.6573  -13.4712   17.7339 H   0  0  0  0  0  0
  -27.8712  -11.2982   18.8821 H   0  0  0  0  0  0
  -27.3849  -12.5706   17.7948 H   0  0  0  0  0  0
  -27.6517  -14.2609   19.4917 H   0  0  0  0  0  0
  -28.7077  -12.1473   21.4302 H   0  0  0  0  0  0
  -28.4282  -13.8268   21.8073 H   0  0  0  0  0  0
  -25.2765   -9.5681   22.4754 H   0  0  0  0  0  0
  -24.0006   -7.4624   22.7476 H   0  0  0  0  0  0
  -21.0837   -8.8782   19.8958 H   0  0  0  0  0  0
  -22.3714  -10.9668   19.6167 H   0  0  0  0  0  0
  -21.2023   -7.6142   23.9712 H   0  0  0  0  0  0
  -21.1480   -6.0520   25.9073 H   0  0  0  0  0  0
  -22.0599   -2.7608   23.2844 H   0  0  0  0  0  0
  -22.4079  -11.9933   22.4816 H   0  0  0  0  0  0
  -21.1084  -13.1303   22.2554 H   0  0  0  0  0  0
  -24.6579  -15.8464   20.5274 H   0  0  0  0  0  0
  -26.2736  -15.6328   20.0848 H   0  0  0  0  0  0
  -26.7192  -32.5415   23.1074 H   0  0  0  0  0  0
  -25.0028  -33.9699   25.0374 H   0  0  0  0  0  0
  -22.7192  -31.3046   21.4035 H   0  0  0  0  0  0
  -23.3753  -35.9625   23.3278 H   0  0  0  0  0  0
  -24.3600  -36.8933   22.2055 H   0  0  0  0  0  0
  -23.7247  -37.6486   23.6674 H   0  0  0  0  0  0
  -26.1036  -31.5288   20.6027 H   0  0  0  0  0  0
  -26.8512  -30.8246   22.0060 H   0  0  0  0  0  0
  -28.1040  -28.9097   21.2261 H   0  0  0  0  0  0
  -25.9224  -25.9290   18.9710 H   0  0  0  0  0  0
  -23.9562  -27.3305   18.9888 H   0  0  0  0  0  0
  -23.7597  -30.5990   19.4036 H   0  0  0  0  0  0
  -22.7551  -29.2550   19.8573 H   0  0  0  0  0  0
  -25.1292  -36.1920   25.0814 H   0  0  0  0  0  0
  -20.9998  -28.3281   24.1402 H   0  0  0  0  0  0
  -20.5724  -26.2305   23.3616 H   0  0  0  0  0  0
  -21.6655  -26.7469   22.1187 H   0  0  0  0  0  0
  -19.6920  -25.6300   21.1253 H   0  0  0  0  0  0
  -19.6683  -27.3208   20.6760 H   0  0  0  0  0  0
  -17.4207  -26.6691   21.4032 H   0  0  0  0  0  0
  -18.0326  -26.0077   22.9033 H   0  0  0  0  0  0
  -19.7941  -30.7281   24.2277 H   0  0  0  0  0  0
  -17.5017  -31.6277   24.5155 H   0  0  0  0  0  0
  -15.5355  -30.2994   23.7640 H   0  0  0  0  0  0
  -15.8686  -28.0822   22.7068 H   0  0  0  0  0  0
  -24.5901  -30.7041   25.7764 H   0  0  0  0  0  0
  -24.8866  -32.2885   26.4805 H   0  0  0  0  0  0
  -25.8014  -30.8940   27.0227 H   0  0  0  0  0  0
  -26.2865  -29.6757   24.1169 H   0  0  0  0  0  0
  -27.3962  -29.7204   25.4667 H   0  0  0  0  0  0
  -27.8763  -30.4241   23.9406 H   0  0  0  0  0  0
  -27.2650  -33.3607   26.2039 H   0  0  0  0  0  0
  -28.3868  -32.6822   25.0325 H   0  0  0  0  0  0
  -28.0681  -31.8425   26.5429 H   0  0  0  0  0  0
  -28.2577  -38.0119   24.7519 H   0  0  0  0  0  0
  -28.1098  -36.2648   24.6256 H   0  0  0  0  0  0
  -27.2309  -37.1421   25.8865 H   0  0  0  0  0  0
  -20.9386  -29.8761   21.6873 H   0  0  0  0  0  0
  -26.0160  -38.2843   24.1414 H   0  0  0  0  0  0
  -29.3181  -18.4557   21.7220 H   0  0  0  0  0  0
  -30.5893  -16.3398   18.1736 H   0  0  0  0  0  0
  -31.3570  -23.2002   21.9690 H   0  0  0  0  0  0
  -30.4841  -22.7694   23.4152 H   0  0  0  0  0  0
  -29.5649  -24.7924   22.2334 H   0  0  0  0  0  0
  -28.3716  -23.5397   22.4724 H   0  0  0  0  0  0
  -28.5436  -22.0894   19.0309 H   0  0  0  0  0  0
  -27.6827  -22.0104   20.5041 H   0  0  0  0  0  0
  -29.9833  -23.9622   19.9227 H   0  0  0  0  0  0
  -29.6590  -21.3109   17.3251 H   0  0  0  0  0  0
  -31.3032  -20.7553   17.1067 H   0  0  0  0  0  0
  -30.9334  -21.7593   18.4848 H   0  0  0  0  0  0
  -27.0654  -24.6558   20.4585 H   0  0  0  0  0  0
  -27.8492  -24.7686   18.9080 H   0  0  0  0  0  0
  -29.0160  -15.6792   21.2218 H   0  0  0  0  0  0
  1 25  1  0  0  0
  1 30  2  0  0  0
  1 85  1  0  0  0
  2  3  1  0  0  0
  2 25  1  0  0  0
  2 88  1  0  0  0
  2 89  1  0  0  0
  3  4  1  0  0  0
  3 90  1  0  0  0
  3 91  1  0  0  0
  4  5  1  0  0  0
  4 92  1  0  0  0
  4 93  1  0  0  0
  5  6  1  0  0  0
  5 26  1  0  0  0
  5 94  1  0  0  0
  6 25  1  0  0  0
  6 95  1  0  0  0
  6 96  1  0  0  0
  7  8  2  0  0  0
  7 26  1  0  0  0
  7 29  1  0  0  0
  8  9  1  0  0  0
  8 22  1  0  0  0
  9 10  1  0  0  0
  9 27  2  0  0  0
 10 11  2  0  0  0
 10 15  1  0  0  0
 11 12  1  0  0  0
 11 97  1  0  0  0
 12 13  2  0  0  0
 12 98  1  0  0  0
 13 14  1  0  0  0
 13 31  1  0  0  0
 14 15  2  0  0  0
 14 99  1  0  0  0
 15100  1  0  0  0
 16 17  2  0  0  0
 16 21  1  0  0  0
 16 31  1  0  0  0
 17 18  1  0  0  0
 17101  1  0  0  0
 18 19  2  0  0  0
 18102  1  0  0  0
 19 20  1  0  0  0
 19 24  1  0  0  0
 20 21  2  0  0  0
 20103  1  0  0  0
 21 23  1  0  0  0
 22 28  1  0  0  0
 22 32  2  0  0  0
 26 27  1  0  0  0
 28104  1  0  0  0
 28105  1  0  0  0
 29106  1  0  0  0
 29107  1  0  0  0
 33 34  1  0  0  0
 33 66  1  0  0  0
 33 70  2  0  0  0
 34 36  1  0  0  0
 34 59  1  0  0  0
 34108  1  0  0  0
 35 44  2  0  0  0
 35 45  1  0  0  0
 35 68  1  0  0  0
 36 56  1  0  0  0
 36109  1  0  0  0
 37 39  1  0  0  0
 37 47  1  0  0  0
 37 66  1  0  0  0
 37110  1  0  0  0
 38 43  2  0  0  0
 38 46  1  0  0  0
 38 47  1  0  0  0
 39 64  1  0  0  0
 39 67  2  0  0  0
 40 52  1  0  0  0
 40 53  2  0  0  0
 40 58  1  0  0  0
 41111  1  0  0  0
 41112  1  0  0  0
 41113  1  0  0  0
 41 48  1  0  0  0
 42 43  1  0  0  0
 42 66  1  0  0  0
 42114  1  0  0  0
 42115  1  0  0  0
 43 44  1  0  0  0
 44116  1  0  0  0
 45 46  2  0  0  0
 45117  1  0  0  0
 46118  1  0  0  0
 47119  1  0  0  0
 47120  1  0  0  0
 48 56  1  0  0  0
 48 65  1  0  0  0
 48121  1  0  0  0
 49 50  1  0  0  0
 49 53  1  0  0  0
 49 64  1  0  0  0
 49122  1  0  0  0
 50 51  1  0  0  0
 50123  1  0  0  0
 50124  1  0  0  0
 51 52  1  0  0  0
 51125  1  0  0  0
 51126  1  0  0  0
 52127  1  0  0  0
 52128  1  0  0  0
 53 54  1  0  0  0
 54 55  2  0  0  0
 54129  1  0  0  0
 55 57  1  0  0  0
 55130  1  0  0  0
 56 69  2  0  0  0
 57 58  2  0  0  0
 57131  1  0  0  0
 58132  1  0  0  0
 59 60  1  0  0  0
 59 61  1  0  0  0
 59 62  1  0  0  0
 60133  1  0  0  0
 60134  1  0  0  0
 60135  1  0  0  0
 61136  1  0  0  0
 61137  1  0  0  0
 61138  1  0  0  0
 62139  1  0  0  0
 62140  1  0  0  0
 62141  1  0  0  0
 63 65  1  0  0  0
 63142  1  0  0  0
 63143  1  0  0  0
 63144  1  0  0  0
 64145  1  0  0  0
 65146  1  0  0  0
 68 83  1  0  0  0
 71 74  2  0  0  0
 71 75  1  0  0  0
 71147  1  0  0  0
 72 75  2  0  0  0
 72 76  1  0  0  0
 72148  1  0  0  0
 73 74  1  0  0  0
 73 76  2  0  0  0
 73 82  1  0  0  0
 74 84  1  0  0  0
 75 85  1  0  0  0
 76 87  1  0  0  0
 77 78  1  0  0  0
 77 84  1  0  0  0
 77 86  2  0  0  0
 78 79  1  0  0  0
 78149  1  0  0  0
 78150  1  0  0  0
 79 81  1  0  0  0
 79151  1  0  0  0
 79152  1  0  0  0
 80 81  1  0  0  0
 80 84  1  0  0  0
 80153  1  0  0  0
 80154  1  0  0  0
 81 83  1  0  0  0
 81155  1  0  0  0
 82156  1  0  0  0
 82157  1  0  0  0
 82158  1  0  0  0
 83159  1  0  0  0
 83160  1  0  0  0
 85161  1  0  0  0
M  ISO  4   1 100  68 101  83 101  85 100
M  END
> <chiral flag>
0

> <version>
0

> <s_m_source_file>
/data/baiqing/PycharmProjects/Reinvent-master-3.2/result/LINK_invent/BTK/process_docking_weight1_custom_product_contain_oxygen_bond_distance_aromatic_linkinvent_7_9_3/rearranged_h_0062.sdf

> <i_m_source_file_index>
74

> <r_mmod_Potential_Energy-OPLS-2005>
273.921752929688

> <r_mmod_Stretch_Energy-OPLS-2005>
127.068992614746

> <r_mmod_Bend_Energy-OPLS-2005>
157.981552124023

> <r_mmod_Torsional_Energy-OPLS-2005>
299.729461669922

> <r_mmod_Improper_Torsional_Energy-OPLS-2005>
5.44664430618286

> <r_mmod_Van_der_Waal_Energy-OPLS-2005>
159.294540405273

> <r_mmod_Electrostatic_Energy-OPLS-2005>
-329.938140869141

> <r_mmod_Solvation_Energy-OPLS-2005>
-223.06657409668

> <b_mmod_Minimization_Converged-OPLS-2005>
0

> <r_mmod_RMS_Derivative-OPLS-2005>
1.95203173160553

$$$$
74
                    3D
 Structure written by MMmdl.
155163  0  0  1  0            999 V2000
  -30.6144  -14.8250   20.4471 C   0  0  0  0  0  0
  -30.4285  -12.5070   19.4865 C   0  0  0  0  0  0
  -29.5117  -12.5115   18.2439 C   0  0  0  0  0  0
  -28.0419  -12.3194   18.6622 C   0  0  0  0  0  0
  -27.6346  -13.2415   19.8429 C   0  0  2  0  0  0
  -28.6805  -13.2329   20.9792 C   0  0  0  0  0  0
  -25.2477  -13.8206   20.5702 C   0  0  0  0  0  0
  -24.1792  -13.0436   20.9216 C   0  0  0  0  0  0
  -24.6397  -11.6922   20.8749 C   0  0  0  0  0  0
  -23.9084  -10.4292   21.0404 C   0  0  0  0  0  0
  -24.3628   -9.4210   21.9186 C   0  0  0  0  0  0
  -23.6298   -8.2244   22.0757 C   0  0  0  0  0  0
  -22.4283   -8.0282   21.3546 C   0  0  0  0  0  0
  -21.9923   -9.0253   20.4644 C   0  0  0  0  0  0
  -22.7254  -10.2134   20.3050 C   0  0  0  0  0  0
  -21.6856   -6.0742   22.5280 C   0  0  0  0  0  0
  -21.4019   -6.5642   23.8220 C   0  0  0  0  0  0
  -21.3663   -5.6792   24.9176 C   0  0  0  0  0  0
  -21.6041   -4.3055   24.7225 C   0  0  0  0  0  0
  -21.8816   -3.8150   23.4346 C   0  0  0  0  0  0
  -21.9191   -4.6965   22.3405 C   0  0  0  0  0  0
  -22.7808  -13.5216   21.1864 C   0  0  0  0  0  0
  -22.1658   -4.2155   21.0981 F   0  0  0  0  0  0
  -21.5629   -3.4537   25.7737 F   0  0  0  0  0  0
  -29.9705  -13.5997   20.3836 N   0  0  0  0  0  0
  -26.2911  -12.9433   20.3268 N   0  0  0  0  0  0
  -25.9335  -11.6575   20.5761 N   0  0  0  0  0  0
  -22.0459  -12.8196   22.0417 N   0  0  0  0  0  0
  -25.4137  -15.1932   20.4121 N   0  0  0  0  0  0
  -31.8112  -14.8552   20.1493 O   0  0  0  0  0  0
  -21.6641   -6.8885   21.4247 O   0  0  0  0  0  0
  -22.3498  -14.5520   20.6715 O   0  0  0  0  0  0
  -24.6366  -31.8514   23.1958 C   0  0  0  0  0  0
  -25.9167  -32.4738   23.8323 C   0  0  1  0  0  0
  -27.2205  -27.2120   20.1379 C   0  0  0  0  0  0
  -25.5947  -33.8545   24.2244 N   0  0  0  0  0  0
  -23.4404  -30.4705   21.5388 C   0  0  2  0  0  0
  -24.8948  -28.9192   20.1043 C   0  0  0  0  0  0
  -22.7547  -29.4566   22.4877 C   0  0  0  0  0  0
  -18.0298  -28.1403   22.8487 C   0  0  0  0  0  0
  -24.1477  -36.7255   23.2640 C   0  0  0  0  0  0
  -25.9917  -30.7461   21.3909 C   0  0  0  0  0  0
  -26.0680  -29.3656   20.7285 C   0  0  0  0  0  0
  -27.2357  -28.5223   20.7416 C   0  0  0  0  0  0
  -26.0328  -26.8635   19.4570 C   0  0  0  0  0  0
  -24.8842  -27.6766   19.4557 C   0  0  0  0  0  0
  -23.6660  -29.8087   20.1548 C   0  0  0  0  0  0
  -25.4114  -36.3056   24.0320 C   0  0  1  0  0  0
  -20.5904  -28.3718   23.1235 C   0  0  2  0  0  0
  -20.6775  -26.9427   22.5396 C   0  0  0  0  0  0
  -19.5750  -26.6392   21.5209 C   0  0  0  0  0  0
  -18.1935  -26.7949   22.1628 C   0  0  0  0  0  0
  -19.1555  -28.8877   23.2861 C   0  0  0  0  0  0
  -18.9483  -30.1473   23.8886 C   0  0  0  0  0  0
  -17.6479  -30.6601   24.0564 C   0  0  0  0  0  0
  -25.9057  -34.9429   23.5079 C   0  0  0  0  0  0
  -16.5367  -29.9094   23.6343 C   0  0  0  0  0  0
  -16.7285  -28.6514   23.0366 C   0  0  0  0  0  0
  -26.4534  -31.6571   25.0730 C   0  0  0  0  0  0
  -25.3748  -31.3728   26.1436 C   0  0  0  0  0  0
  -27.0383  -30.2967   24.6275 C   0  0  0  0  0  0
  -27.6076  -32.4319   25.7518 C   0  0  0  0  0  0
  -27.5572  -37.1781   24.8478 C   0  0  0  0  0  0
  -21.4247  -29.3045   22.3614 N   0  0  0  0  0  0
  -26.4293  -37.3754   23.9403 N   0  0  0  0  0  0
  -24.7085  -31.0406   22.0977 N   0  0  0  0  0  0
  -23.4207  -28.8114   23.3016 O   0  0  0  0  0  0
  -28.2081  -26.1828   20.2397 O   0  0  0  0  0  0
  -26.5638  -34.8912   22.4654 O   0  0  0  0  0  0
  -23.5493  -32.1368   23.7189 O   0  0  0  0  0  0
  -32.1006  -19.0777   21.1476 C   0  0  0  0  0  0
  -31.6404  -17.7599   20.9841 C   0  0  0  0  0  0
  -29.4372  -18.6627   20.5507 C   0  0  0  0  0  0
  -31.2620  -20.2089   21.0343 C   0  0  0  0  0  0
  -30.2930  -17.4675   20.6867 C   0  0  0  0  0  0
  -29.8839  -20.0661   20.6913 C   0  0  0  0  0  0
  -27.7227  -24.9497   20.8064 C   0  0  0  0  0  0
  -27.9860  -23.5593   20.8785 C   0  0  0  0  0  0
  -29.0801  -22.6461   20.3346 C   0  0  0  0  0  0
  -31.9055  -21.5431   21.3780 C   0  0  0  0  0  0
  -26.9413  -22.7862   21.6950 C   0  0  0  0  0  0
  -28.9687  -21.2726   20.6625 N   0  0  0  0  0  0
  -29.8743  -16.0141   20.6033 N   0  0  0  0  0  0
  -29.9878  -23.0592   19.6122 O   0  0  0  0  0  0
  -31.4702  -12.6242   19.1838 H   0  0  0  0  0  0
  -30.3773  -11.5464   20.0013 H   0  0  0  0  0  0
  -29.8101  -11.7250   17.5489 H   0  0  0  0  0  0
  -29.6208  -13.4550   17.7066 H   0  0  0  0  0  0
  -27.9187  -11.2754   18.9517 H   0  0  0  0  0  0
  -27.3809  -12.4773   17.8091 H   0  0  0  0  0  0
  -27.6106  -14.2510   19.4327 H   0  0  0  0  0  0
  -28.7379  -12.2519   21.4523 H   0  0  0  0  0  0
  -28.4049  -13.9384   21.7646 H   0  0  0  0  0  0
  -25.2776   -9.5685   22.4766 H   0  0  0  0  0  0
  -24.0005   -7.4639   22.7478 H   0  0  0  0  0  0
  -21.0861   -8.8773   19.8946 H   0  0  0  0  0  0
  -22.3717  -10.9671   19.6155 H   0  0  0  0  0  0
  -21.2016   -7.6152   23.9725 H   0  0  0  0  0  0
  -21.1489   -6.0522   25.9083 H   0  0  0  0  0  0
  -22.0593   -2.7611   23.2842 H   0  0  0  0  0  0
  -22.4083  -11.9858   22.4799 H   0  0  0  0  0  0
  -21.1072  -13.1212   22.2620 H   0  0  0  0  0  0
  -24.6387  -15.8396   20.5160 H   0  0  0  0  0  0
  -26.2538  -15.6373   20.0650 H   0  0  0  0  0  0
  -26.7237  -32.5400   23.1062 H   0  0  0  0  0  0
  -25.0106  -33.9680   25.0401 H   0  0  0  0  0  0
  -22.7403  -31.2948   21.3886 H   0  0  0  0  0  0
  -23.3761  -35.9567   23.3327 H   0  0  0  0  0  0
  -24.3566  -36.8864   22.2056 H   0  0  0  0  0  0
  -23.7211  -37.6448   23.6656 H   0  0  0  0  0  0
  -26.1379  -31.5096   20.6256 H   0  0  0  0  0  0
  -26.8637  -30.7934   22.0311 H   0  0  0  0  0  0
  -28.1216  -28.8425   21.2720 H   0  0  0  0  0  0
  -25.9706  -25.9021   18.9679 H   0  0  0  0  0  0
  -23.9888  -27.3306   18.9580 H   0  0  0  0  0  0
  -23.7949  -30.5887   19.4028 H   0  0  0  0  0  0
  -22.7846  -29.2443   19.8456 H   0  0  0  0  0  0
  -25.1287  -36.1910   25.0811 H   0  0  0  0  0  0
  -20.9997  -28.3330   24.1355 H   0  0  0  0  0  0
  -20.5662  -26.2354   23.3625 H   0  0  0  0  0  0
  -21.6643  -26.7436   22.1192 H   0  0  0  0  0  0
  -19.6917  -25.6303   21.1243 H   0  0  0  0  0  0
  -19.6680  -27.3210   20.6745 H   0  0  0  0  0  0
  -17.4193  -26.6706   21.4042 H   0  0  0  0  0  0
  -18.0341  -26.0095   22.9027 H   0  0  0  0  0  0
  -19.7956  -30.7285   24.2269 H   0  0  0  0  0  0
  -17.5031  -31.6284   24.5164 H   0  0  0  0  0  0
  -15.5364  -30.2987   23.7657 H   0  0  0  0  0  0
  -15.8701  -28.0813   22.7081 H   0  0  0  0  0  0
  -24.5957  -30.7042   25.7767 H   0  0  0  0  0  0
  -24.8913  -32.2893   26.4817 H   0  0  0  0  0  0
  -25.8064  -30.8953   27.0239 H   0  0  0  0  0  0
  -26.2976  -29.6712   24.1287 H   0  0  0  0  0  0
  -27.4008  -29.7252   25.4831 H   0  0  0  0  0  0
  -27.8881  -30.4204   23.9567 H   0  0  0  0  0  0
  -27.2675  -33.3637   26.2050 H   0  0  0  0  0  0
  -28.3918  -32.6849   25.0373 H   0  0  0  0  0  0
  -28.0705  -31.8480   26.5483 H   0  0  0  0  0  0
  -28.2585  -38.0076   24.7500 H   0  0  0  0  0  0
  -28.1057  -36.2601   24.6322 H   0  0  0  0  0  0
  -27.2284  -37.1454   25.8880 H   0  0  0  0  0  0
  -20.9464  -29.8767   21.6798 H   0  0  0  0  0  0
  -26.0178  -38.2818   24.1439 H   0  0  0  0  0  0
  -33.1400  -19.2145   21.4126 H   0  0  0  0  0  0
  -32.3626  -16.9724   21.1358 H   0  0  0  0  0  0
  -28.3901  -18.4959   20.3411 H   0  0  0  0  0  0
  -26.8449  -25.2322   21.3700 H   0  0  0  0  0  0
  -32.8013  -21.4019   21.9845 H   0  0  0  0  0  0
  -31.2400  -22.1738   21.9650 H   0  0  0  0  0  0
  -32.2060  -22.0706   20.4730 H   0  0  0  0  0  0
  -26.1182  -23.4050   22.0533 H   0  0  0  0  0  0
  -27.3957  -22.3337   22.5774 H   0  0  0  0  0  0
  -26.4839  -21.9984   21.0943 H   0  0  0  0  0  0
  -28.0578  -21.0817   21.0562 H   0  0  0  0  0  0
  -28.8802  -15.8574   20.6653 H   0  0  0  0  0  0
  1 25  1  0  0  0
  1 30  2  0  0  0
  1 83  1  0  0  0
  2  3  1  0  0  0
  2 25  1  0  0  0
  2 85  1  0  0  0
  2 86  1  0  0  0
  3  4  1  0  0  0
  3 87  1  0  0  0
  3 88  1  0  0  0
  4  5  1  0  0  0
  4 89  1  0  0  0
  4 90  1  0  0  0
  5  6  1  0  0  0
  5 26  1  0  0  0
  5 91  1  0  0  0
  6 25  1  0  0  0
  6 92  1  0  0  0
  6 93  1  0  0  0
  7  8  2  0  0  0
  7 26  1  0  0  0
  7 29  1  0  0  0
  8  9  1  0  0  0
  8 22  1  0  0  0
  9 10  1  0  0  0
  9 27  2  0  0  0
 10 11  2  0  0  0
 10 15  1  0  0  0
 11 12  1  0  0  0
 11 94  1  0  0  0
 12 13  2  0  0  0
 12 95  1  0  0  0
 13 14  1  0  0  0
 13 31  1  0  0  0
 14 15  2  0  0  0
 14 96  1  0  0  0
 15 97  1  0  0  0
 16 17  2  0  0  0
 16 21  1  0  0  0
 16 31  1  0  0  0
 17 18  1  0  0  0
 17 98  1  0  0  0
 18 19  2  0  0  0
 18 99  1  0  0  0
 19 20  1  0  0  0
 19 24  1  0  0  0
 20 21  2  0  0  0
 20100  1  0  0  0
 21 23  1  0  0  0
 22 28  1  0  0  0
 22 32  2  0  0  0
 26 27  1  0  0  0
 28101  1  0  0  0
 28102  1  0  0  0
 29103  1  0  0  0
 29104  1  0  0  0
 33 34  1  0  0  0
 33 66  1  0  0  0
 33 70  2  0  0  0
 34 36  1  0  0  0
 34 59  1  0  0  0
 34105  1  0  0  0
 35 44  2  0  0  0
 35 45  1  0  0  0
 35 68  1  0  0  0
 36 56  1  0  0  0
 36106  1  0  0  0
 37 39  1  0  0  0
 37 47  1  0  0  0
 37 66  1  0  0  0
 37107  1  0  0  0
 38 43  2  0  0  0
 38 46  1  0  0  0
 38 47  1  0  0  0
 39 64  1  0  0  0
 39 67  2  0  0  0
 40 52  1  0  0  0
 40 53  2  0  0  0
 40 58  1  0  0  0
 41108  1  0  0  0
 41109  1  0  0  0
 41110  1  0  0  0
 41 48  1  0  0  0
 42 43  1  0  0  0
 42 66  1  0  0  0
 42111  1  0  0  0
 42112  1  0  0  0
 43 44  1  0  0  0
 44113  1  0  0  0
 45 46  2  0  0  0
 45114  1  0  0  0
 46115  1  0  0  0
 47116  1  0  0  0
 47117  1  0  0  0
 48 56  1  0  0  0
 48 65  1  0  0  0
 48118  1  0  0  0
 49 50  1  0  0  0
 49 53  1  0  0  0
 49 64  1  0  0  0
 49119  1  0  0  0
 50 51  1  0  0  0
 50120  1  0  0  0
 50121  1  0  0  0
 51 52  1  0  0  0
 51122  1  0  0  0
 51123  1  0  0  0
 52124  1  0  0  0
 52125  1  0  0  0
 53 54  1  0  0  0
 54 55  2  0  0  0
 54126  1  0  0  0
 55 57  1  0  0  0
 55127  1  0  0  0
 56 69  2  0  0  0
 57 58  2  0  0  0
 57128  1  0  0  0
 58129  1  0  0  0
 59 60  1  0  0  0
 59 61  1  0  0  0
 59 62  1  0  0  0
 60130  1  0  0  0
 60131  1  0  0  0
 60132  1  0  0  0
 61133  1  0  0  0
 61134  1  0  0  0
 61135  1  0  0  0
 62136  1  0  0  0
 62137  1  0  0  0
 62138  1  0  0  0
 63 65  1  0  0  0
 63139  1  0  0  0
 63140  1  0  0  0
 63141  1  0  0  0
 64142  1  0  0  0
 65143  1  0  0  0
 68 77  1  0  0  0
 71 72  2  0  0  0
 71 74  1  0  0  0
 71144  1  0  0  0
 72 75  1  0  0  0
 72145  1  0  0  0
 73 75  2  0  0  0
 73 76  1  0  0  0
 73146  1  0  0  0
 74 76  2  0  0  0
 74 80  1  0  0  0
 75 83  1  0  0  0
 76 82  1  0  0  0
 77 78  2  0  0  0
 77147  1  0  0  0
 78 79  1  0  0  0
 78 81  1  0  0  0
 79 82  1  0  0  0
 79 84  2  0  0  0
 80148  1  0  0  0
 80149  1  0  0  0
 80150  1  0  0  0
 81151  1  0  0  0
 81152  1  0  0  0
 81153  1  0  0  0
 82154  1  0  0  0
 83155  1  0  0  0
M  ISO  4   1 100  68 101  77 101  83 100
M  END
> <chiral flag>
0

> <version>
0

> <s_m_source_file>
/data/baiqing/PycharmProjects/Reinvent-master-3.2/result/LINK_invent/BTK/process_docking_weight1_custom_product_contain_oxygen_bond_distance_aromatic_linkinvent_7_9_3/rearranged_h_0062.sdf

> <i_m_source_file_index>
75

> <r_mmod_Potential_Energy-OPLS-2005>
375.899475097656

> <r_mmod_Stretch_Energy-OPLS-2005>
176.768829345703

> <r_mmod_Bend_Energy-OPLS-2005>
260.024261474609

> <r_mmod_Torsional_Energy-OPLS-2005>
250.796783447266

> <r_mmod_Improper_Torsional_Energy-OPLS-2005>
6.87059879302979

> <r_mmod_Van_der_Waal_Energy-OPLS-2005>
162.908538818359

> <r_mmod_Electrostatic_Energy-OPLS-2005>
-388.387451171875

> <r_mmod_Solvation_Energy-OPLS-2005>
-229.472808837891

> <b_mmod_Minimization_Converged-OPLS-2005>
0

> <r_mmod_RMS_Derivative-OPLS-2005>
1.69688200950623

$$$$
75
                    3D
 Structure written by MMmdl.
160168  0  0  1  0            999 V2000
  -30.6110  -14.7380   20.4792 C   0  0  0  0  0  0
  -30.4255  -12.4517   19.4725 C   0  0  0  0  0  0
  -29.5079  -12.5131   18.2326 C   0  0  0  0  0  0
  -28.0320  -12.3400   18.6403 C   0  0  0  0  0  0
  -27.6375  -13.2322   19.8485 C   0  0  2  0  0  0
  -28.6806  -13.1601   20.9845 C   0  0  0  0  0  0
  -25.2485  -13.8196   20.5675 C   0  0  0  0  0  0
  -24.1790  -13.0433   20.9200 C   0  0  0  0  0  0
  -24.6381  -11.6913   20.8738 C   0  0  0  0  0  0
  -23.9065  -10.4290   21.0398 C   0  0  0  0  0  0
  -24.3622   -9.4208   21.9177 C   0  0  0  0  0  0
  -23.6294   -8.2245   22.0754 C   0  0  0  0  0  0
  -22.4274   -8.0284   21.3544 C   0  0  0  0  0  0
  -21.9909   -9.0257   20.4642 C   0  0  0  0  0  0
  -22.7236  -10.2135   20.3046 C   0  0  0  0  0  0
  -21.6857   -6.0737   22.5280 C   0  0  0  0  0  0
  -21.4019   -6.5638   23.8215 C   0  0  0  0  0  0
  -21.3660   -5.6789   24.9174 C   0  0  0  0  0  0
  -21.6041   -4.3053   24.7224 C   0  0  0  0  0  0
  -21.8817   -3.8147   23.4345 C   0  0  0  0  0  0
  -21.9193   -4.6965   22.3401 C   0  0  0  0  0  0
  -22.7808  -13.5212   21.1866 C   0  0  0  0  0  0
  -22.1657   -4.2151   21.0979 F   0  0  0  0  0  0
  -21.5632   -3.4536   25.7739 F   0  0  0  0  0  0
  -29.9783  -13.5175   20.4008 N   0  0  0  0  0  0
  -26.2906  -12.9401   20.3244 N   0  0  0  0  0  0
  -25.9308  -11.6540   20.5725 N   0  0  0  0  0  0
  -22.0450  -12.8206   22.0417 N   0  0  0  0  0  0
  -25.4133  -15.1925   20.4099 N   0  0  0  0  0  0
  -31.8031  -14.8135   20.1672 O   0  0  0  0  0  0
  -21.6637   -6.8883   21.4242 O   0  0  0  0  0  0
  -22.3485  -14.5509   20.6708 O   0  0  0  0  0  0
  -24.6273  -31.8559   23.1946 C   0  0  0  0  0  0
  -25.9091  -32.4769   23.8309 C   0  0  1  0  0  0
  -27.2228  -27.2639   20.1278 C   0  0  0  0  0  0
  -25.5888  -33.8577   24.2241 N   0  0  0  0  0  0
  -23.4235  -30.4770   21.5374 C   0  0  2  0  0  0
  -24.8702  -28.9156   20.1078 C   0  0  0  0  0  0
  -22.7484  -29.4607   22.4897 C   0  0  0  0  0  0
  -18.0291  -28.1406   22.8496 C   0  0  0  0  0  0
  -24.1471  -36.7302   23.2651 C   0  0  0  0  0  0
  -25.9669  -30.7695   21.3698 C   0  0  0  0  0  0
  -26.0376  -29.3895   20.7174 C   0  0  0  0  0  0
  -27.2116  -28.5739   20.7177 C   0  0  0  0  0  0
  -26.0317  -26.8478   19.4954 C   0  0  0  0  0  0
  -24.8713  -27.6543   19.4865 C   0  0  0  0  0  0
  -23.6420  -29.8075   20.1522 C   0  0  0  0  0  0
  -25.4100  -36.3101   24.0346 C   0  0  1  0  0  0
  -20.5893  -28.3709   23.1280 C   0  0  2  0  0  0
  -20.6777  -26.9433   22.5404 C   0  0  0  0  0  0
  -19.5742  -26.6388   21.5220 C   0  0  0  0  0  0
  -18.1922  -26.7953   22.1628 C   0  0  0  0  0  0
  -19.1547  -28.8874   23.2882 C   0  0  0  0  0  0
  -18.9476  -30.1473   23.8905 C   0  0  0  0  0  0
  -17.6476  -30.6613   24.0577 C   0  0  0  0  0  0
  -25.9042  -34.9468   23.5111 C   0  0  0  0  0  0
  -16.5365  -29.9119   23.6331 C   0  0  0  0  0  0
  -16.7281  -28.6533   23.0365 C   0  0  0  0  0  0
  -26.4466  -31.6585   25.0686 C   0  0  0  0  0  0
  -25.3710  -31.3730   26.1420 C   0  0  0  0  0  0
  -27.0297  -30.3008   24.6133 C   0  0  0  0  0  0
  -27.6019  -32.4321   25.7474 C   0  0  0  0  0  0
  -27.5572  -37.1810   24.8479 C   0  0  0  0  0  0
  -21.4185  -29.3071   22.3681 N   0  0  0  0  0  0
  -26.4279  -37.3796   23.9431 N   0  0  0  0  0  0
  -24.6917  -31.0543   22.0905 N   0  0  0  0  0  0
  -23.4211  -28.8142   23.2971 O   0  0  0  0  0  0
  -28.3532  -26.4216   20.2163 O   0  0  0  0  0  0
  -26.5642  -34.8954   22.4693 O   0  0  0  0  0  0
  -23.5433  -32.1381   23.7254 O   0  0  0  0  0  0
  -31.9174  -18.9021   21.6658 C   0  0  0  0  0  0
  -31.5104  -17.5908   21.3725 C   0  0  0  0  0  0
  -29.3896  -18.4886   20.6007 C   0  0  0  0  0  0
  -31.0850  -20.0229   21.4560 C   0  0  0  0  0  0
  -30.2313  -17.3151   20.8466 C   0  0  0  0  0  0
  -29.7951  -19.8739   20.8592 C   0  0  0  0  0  0
  -29.1840  -22.3704   20.2552 C   0  0  0  0  0  0
  -31.6242  -21.3477   21.9780 C   0  0  0  0  0  0
  -28.2653  -23.9854   22.0760 C   0  0  0  0  0  0
  -28.4569  -25.0129   19.6901 C   0  0  0  0  0  0
  -28.2267  -23.6434   20.5587 C   0  0  1  0  0  0
  -28.9044  -21.0661   20.6715 N   0  0  0  0  0  0
  -29.8391  -15.8859   20.6642 N   0  0  0  0  0  0
  -27.2611  -23.2643   22.8907 N   0  3  0  0  0  0
  -30.1986  -22.5809   19.5864 O   0  0  0  0  0  0
  -31.4690  -12.5674   19.1769 H   0  0  0  0  0  0
  -30.3609  -11.4733   19.9514 H   0  0  0  0  0  0
  -29.7906  -11.7474   17.5097 H   0  0  0  0  0  0
  -29.6403  -13.4715   17.7288 H   0  0  0  0  0  0
  -27.8783  -11.2897   18.8888 H   0  0  0  0  0  0
  -27.3813  -12.5478   17.7903 H   0  0  0  0  0  0
  -27.6317  -14.2552   19.4733 H   0  0  0  0  0  0
  -28.7154  -12.1578   21.4138 H   0  0  0  0  0  0
  -28.4164  -13.8346   21.8008 H   0  0  0  0  0  0
  -25.2769   -9.5691   22.4746 H   0  0  0  0  0  0
  -24.0011   -7.4634   22.7469 H   0  0  0  0  0  0
  -21.0844   -8.8766   19.8942 H   0  0  0  0  0  0
  -22.3690  -10.9673   19.6151 H   0  0  0  0  0  0
  -21.2008   -7.6147   23.9720 H   0  0  0  0  0  0
  -21.1481   -6.0518   25.9078 H   0  0  0  0  0  0
  -22.0594   -2.7610   23.2841 H   0  0  0  0  0  0
  -22.4078  -11.9884   22.4833 H   0  0  0  0  0  0
  -21.1057  -13.1212   22.2600 H   0  0  0  0  0  0
  -24.6391  -15.8382   20.5195 H   0  0  0  0  0  0
  -26.2479  -15.6371   20.0511 H   0  0  0  0  0  0
  -26.7153  -32.5434   23.1050 H   0  0  0  0  0  0
  -25.0002  -33.9709   25.0366 H   0  0  0  0  0  0
  -22.7170  -31.2975   21.3913 H   0  0  0  0  0  0
  -23.3743  -35.9622   23.3314 H   0  0  0  0  0  0
  -24.3559  -36.8916   22.2061 H   0  0  0  0  0  0
  -23.7193  -37.6499   23.6660 H   0  0  0  0  0  0
  -26.0982  -31.5226   20.5922 H   0  0  0  0  0  0
  -26.8494  -30.8259   21.9971 H   0  0  0  0  0  0
  -28.1046  -28.9334   21.2099 H   0  0  0  0  0  0
  -25.9650  -25.8778   19.0280 H   0  0  0  0  0  0
  -23.9765  -27.2876   19.0035 H   0  0  0  0  0  0
  -23.7730  -30.5853   19.3971 H   0  0  0  0  0  0
  -22.7584  -29.2472   19.8415 H   0  0  0  0  0  0
  -25.1269  -36.1963   25.0840 H   0  0  0  0  0  0
  -20.9994  -28.3293   24.1399 H   0  0  0  0  0  0
  -20.5655  -26.2341   23.3620 H   0  0  0  0  0  0
  -21.6651  -26.7459   22.1209 H   0  0  0  0  0  0
  -19.6888  -25.6285   21.1274 H   0  0  0  0  0  0
  -19.6673  -27.3194   20.6748 H   0  0  0  0  0  0
  -17.4188  -26.6732   21.4024 H   0  0  0  0  0  0
  -18.0306  -26.0090   22.9013 H   0  0  0  0  0  0
  -19.7948  -30.7295   24.2271 H   0  0  0  0  0  0
  -17.5036  -31.6297   24.5177 H   0  0  0  0  0  0
  -15.5364  -30.3042   23.7633 H   0  0  0  0  0  0
  -15.8683  -28.0848   22.7095 H   0  0  0  0  0  0
  -24.5917  -30.7023   25.7787 H   0  0  0  0  0  0
  -24.8857  -32.2896   26.4782 H   0  0  0  0  0  0
  -25.8061  -30.8978   27.0228 H   0  0  0  0  0  0
  -26.2866  -29.6778   24.1134 H   0  0  0  0  0  0
  -27.4001  -29.7240   25.4614 H   0  0  0  0  0  0
  -27.8740  -30.4327   23.9367 H   0  0  0  0  0  0
  -27.2629  -33.3647   26.1999 H   0  0  0  0  0  0
  -28.3865  -32.6819   25.0319 H   0  0  0  0  0  0
  -28.0637  -31.8449   26.5423 H   0  0  0  0  0  0
  -28.2606  -38.0092   24.7526 H   0  0  0  0  0  0
  -28.1047  -36.2624   24.6302 H   0  0  0  0  0  0
  -27.2302  -37.1474   25.8887 H   0  0  0  0  0  0
  -20.9345  -29.8856   21.6956 H   0  0  0  0  0  0
  -26.0159  -38.2880   24.1425 H   0  0  0  0  0  0
  -32.8935  -19.0400   22.1104 H   0  0  0  0  0  0
  -32.1972  -16.7918   21.6101 H   0  0  0  0  0  0
  -28.3974  -18.3234   20.2063 H   0  0  0  0  0  0
  -32.3913  -21.1850   22.7366 H   0  0  0  0  0  0
  -30.8500  -21.9452   22.4572 H   0  0  0  0  0  0
  -32.0825  -21.9257   21.1767 H   0  0  0  0  0  0
  -29.2590  -23.7991   22.4872 H   0  0  0  0  0  0
  -28.0834  -25.0482   22.2317 H   0  0  0  0  0  0
  -29.4882  -24.9828   19.3389 H   0  0  0  0  0  0
  -27.8920  -24.9307   18.7625 H   0  0  0  0  0  0
  -27.2134  -23.3236   20.3142 H   0  0  0  0  0  0
  -27.9388  -20.9006   20.9206 H   0  0  0  0  0  0
  -28.8476  -15.7053   20.6993 H   0  0  0  0  0  0
  -27.3277  -23.5673   23.8467 H   0  0  0  0  0  0
  -27.3945  -22.2691   22.8835 H   0  0  0  0  0  0
  -26.3276  -23.4715   22.5814 H   0  0  0  0  0  0
  1 25  1  0  0  0
  1 30  2  0  0  0
  1 83  1  0  0  0
  2  3  1  0  0  0
  2 25  1  0  0  0
  2 86  1  0  0  0
  2 87  1  0  0  0
  3  4  1  0  0  0
  3 88  1  0  0  0
  3 89  1  0  0  0
  4  5  1  0  0  0
  4 90  1  0  0  0
  4 91  1  0  0  0
  5  6  1  0  0  0
  5 26  1  0  0  0
  5 92  1  0  0  0
  6 25  1  0  0  0
  6 93  1  0  0  0
  6 94  1  0  0  0
  7  8  2  0  0  0
  7 26  1  0  0  0
  7 29  1  0  0  0
  8  9  1  0  0  0
  8 22  1  0  0  0
  9 10  1  0  0  0
  9 27  2  0  0  0
 10 11  2  0  0  0
 10 15  1  0  0  0
 11 12  1  0  0  0
 11 95  1  0  0  0
 12 13  2  0  0  0
 12 96  1  0  0  0
 13 14  1  0  0  0
 13 31  1  0  0  0
 14 15  2  0  0  0
 14 97  1  0  0  0
 15 98  1  0  0  0
 16 17  2  0  0  0
 16 21  1  0  0  0
 16 31  1  0  0  0
 17 18  1  0  0  0
 17 99  1  0  0  0
 18 19  2  0  0  0
 18100  1  0  0  0
 19 20  1  0  0  0
 19 24  1  0  0  0
 20 21  2  0  0  0
 20101  1  0  0  0
 21 23  1  0  0  0
 22 28  1  0  0  0
 22 32  2  0  0  0
 26 27  1  0  0  0
 28102  1  0  0  0
 28103  1  0  0  0
 29104  1  0  0  0
 29105  1  0  0  0
 33 34  1  0  0  0
 33 66  1  0  0  0
 33 70  2  0  0  0
 34 36  1  0  0  0
 34 59  1  0  0  0
 34106  1  0  0  0
 35 44  2  0  0  0
 35 45  1  0  0  0
 35 68  1  0  0  0
 36 56  1  0  0  0
 36107  1  0  0  0
 37 39  1  0  0  0
 37 47  1  0  0  0
 37 66  1  0  0  0
 37108  1  0  0  0
 38 43  2  0  0  0
 38 46  1  0  0  0
 38 47  1  0  0  0
 39 64  1  0  0  0
 39 67  2  0  0  0
 40 52  1  0  0  0
 40 53  2  0  0  0
 40 58  1  0  0  0
 41109  1  0  0  0
 41110  1  0  0  0
 41111  1  0  0  0
 41 48  1  0  0  0
 42 43  1  0  0  0
 42 66  1  0  0  0
 42112  1  0  0  0
 42113  1  0  0  0
 43 44  1  0  0  0
 44114  1  0  0  0
 45 46  2  0  0  0
 45115  1  0  0  0
 46116  1  0  0  0
 47117  1  0  0  0
 47118  1  0  0  0
 48 56  1  0  0  0
 48 65  1  0  0  0
 48119  1  0  0  0
 49 50  1  0  0  0
 49 53  1  0  0  0
 49 64  1  0  0  0
 49120  1  0  0  0
 50 51  1  0  0  0
 50121  1  0  0  0
 50122  1  0  0  0
 51 52  1  0  0  0
 51123  1  0  0  0
 51124  1  0  0  0
 52125  1  0  0  0
 52126  1  0  0  0
 53 54  1  0  0  0
 54 55  2  0  0  0
 54127  1  0  0  0
 55 57  1  0  0  0
 55128  1  0  0  0
 56 69  2  0  0  0
 57 58  2  0  0  0
 57129  1  0  0  0
 58130  1  0  0  0
 59 60  1  0  0  0
 59 61  1  0  0  0
 59 62  1  0  0  0
 60131  1  0  0  0
 60132  1  0  0  0
 60133  1  0  0  0
 61134  1  0  0  0
 61135  1  0  0  0
 61136  1  0  0  0
 62137  1  0  0  0
 62138  1  0  0  0
 62139  1  0  0  0
 63 65  1  0  0  0
 63140  1  0  0  0
 63141  1  0  0  0
 63142  1  0  0  0
 64143  1  0  0  0
 65144  1  0  0  0
 68 80  1  0  0  0
 71 72  2  0  0  0
 71 74  1  0  0  0
 71145  1  0  0  0
 72 75  1  0  0  0
 72146  1  0  0  0
 73 75  2  0  0  0
 73 76  1  0  0  0
 73147  1  0  0  0
 74 76  2  0  0  0
 74 78  1  0  0  0
 75 83  1  0  0  0
 76 82  1  0  0  0
 77 81  1  0  0  0
 77 82  1  0  0  0
 77 85  2  0  0  0
 78148  1  0  0  0
 78149  1  0  0  0
 78150  1  0  0  0
 79 84  1  0  0  0
 79151  1  0  0  0
 79152  1  0  0  0
 79 81  1  0  0  0
 80 81  1  0  0  0
 80153  1  0  0  0
 80154  1  0  0  0
 81155  1  0  0  0
 82156  1  0  0  0
 83157  1  0  0  0
 84158  1  0  0  0
 84159  1  0  0  0
 84160  1  0  0  0
M  CHG  1  84   1
M  ISO  4   1 100  68 101  80 101  83 100
M  END
> <chiral flag>
0

> <version>
0

> <s_m_source_file>
/data/baiqing/PycharmProjects/Reinvent-master-3.2/result/LINK_invent/BTK/process_docking_weight1_custom_product_contain_oxygen_bond_distance_aromatic_linkinvent_7_9_3/rearranged_h_0062.sdf

> <i_m_source_file_index>
76

> <r_mmod_Potential_Energy-OPLS-2005>
-45.0759391784668

> <r_mmod_Stretch_Energy-OPLS-2005>
143.287063598633

> <r_mmod_Bend_Energy-OPLS-2005>
187.295455932617

> <r_mmod_Torsional_Energy-OPLS-2005>
251.798965454102

> <r_mmod_Improper_Torsional_Energy-OPLS-2005>
6.50143003463745

> <r_mmod_Van_der_Waal_Energy-OPLS-2005>
145.536224365234

> <r_mmod_Electrostatic_Energy-OPLS-2005>
-304.061004638672

> <r_mmod_Solvation_Energy-OPLS-2005>
-555.533813476562

> <b_mmod_Minimization_Converged-OPLS-2005>
0

> <r_mmod_RMS_Derivative-OPLS-2005>
2.21423196792603

$$$$
76
                    3D
 Structure written by MMmdl.
157165  0  0  1  0            999 V2000
  -30.6789  -14.5059   20.5938 C   0  0  0  0  0  0
  -30.4411  -12.3328   19.4320 C   0  0  0  0  0  0
  -29.5064  -12.5011   18.2155 C   0  0  0  0  0  0
  -28.0310  -12.3360   18.6290 C   0  0  0  0  0  0
  -27.6632  -13.1950   19.8668 C   0  0  2  0  0  0
  -28.7012  -12.9922   20.9938 C   0  0  0  0  0  0
  -25.2658  -13.8113   20.5769 C   0  0  0  0  0  0
  -24.1859  -13.0413   20.9148 C   0  0  0  0  0  0
  -24.6385  -11.6873   20.8704 C   0  0  0  0  0  0
  -23.9034  -10.4285   21.0395 C   0  0  0  0  0  0
  -24.3578   -9.4201   21.9177 C   0  0  0  0  0  0
  -23.6267   -8.2240   22.0744 C   0  0  0  0  0  0
  -22.4252   -8.0283   21.3533 C   0  0  0  0  0  0
  -21.9882   -9.0263   20.4636 C   0  0  0  0  0  0
  -22.7198  -10.2143   20.3055 C   0  0  0  0  0  0
  -21.6856   -6.0722   22.5284 C   0  0  0  0  0  0
  -21.3998   -6.5626   23.8214 C   0  0  0  0  0  0
  -21.3661   -5.6775   24.9179 C   0  0  0  0  0  0
  -21.6047   -4.3042   24.7226 C   0  0  0  0  0  0
  -21.8821   -3.8125   23.4359 C   0  0  0  0  0  0
  -21.9185   -4.6946   22.3404 C   0  0  0  0  0  0
  -22.7899  -13.5270   21.1822 C   0  0  0  0  0  0
  -22.1666   -4.2133   21.0993 F   0  0  0  0  0  0
  -21.5625   -3.4528   25.7741 F   0  0  0  0  0  0
  -30.0326  -13.3140   20.4499 N   0  0  0  0  0  0
  -26.3044  -12.9256   20.3321 N   0  0  0  0  0  0
  -25.9308  -11.6430   20.5713 N   0  0  0  0  0  0
  -22.0509  -12.8297   22.0383 N   0  0  0  0  0  0
  -25.4508  -15.1841   20.4468 N   0  0  0  0  0  0
  -31.8030  -14.7178   20.1331 O   0  0  0  0  0  0
  -21.6635   -6.8874   21.4251 O   0  0  0  0  0  0
  -22.3651  -14.5607   20.6685 O   0  0  0  0  0  0
  -24.6191  -31.8650   23.2068 C   0  0  0  0  0  0
  -25.9066  -32.4803   23.8369 C   0  0  1  0  0  0
  -27.2395  -27.4004   20.1049 C   0  0  0  0  0  0
  -25.5926  -33.8599   24.2333 N   0  0  0  0  0  0
  -23.4080  -30.4870   21.5491 C   0  0  2  0  0  0
  -24.8526  -28.9441   20.1191 C   0  0  0  0  0  0
  -22.7445  -29.4628   22.5003 C   0  0  0  0  0  0
  -18.0277  -28.1393   22.8484 C   0  0  0  0  0  0
  -24.1479  -36.7312   23.2631 C   0  0  0  0  0  0
  -25.9360  -30.8251   21.3573 C   0  0  0  0  0  0
  -26.0137  -29.4519   20.7139 C   0  0  0  0  0  0
  -27.2034  -28.6845   20.7046 C   0  0  0  0  0  0
  -26.0505  -26.9083   19.5154 C   0  0  0  0  0  0
  -24.8676  -27.6730   19.5210 C   0  0  0  0  0  0
  -23.6188  -29.8190   20.1637 C   0  0  0  0  0  0
  -25.4090  -36.3114   24.0360 C   0  0  1  0  0  0
  -20.5866  -28.3678   23.1334 C   0  0  2  0  0  0
  -20.6772  -26.9414   22.5430 C   0  0  0  0  0  0
  -19.5739  -26.6403   21.5232 C   0  0  0  0  0  0
  -18.1915  -26.7940   22.1631 C   0  0  0  0  0  0
  -19.1525  -28.8849   23.2899 C   0  0  0  0  0  0
  -18.9459  -30.1452   23.8912 C   0  0  0  0  0  0
  -17.6458  -30.6583   24.0570 C   0  0  0  0  0  0
  -25.9034  -34.9475   23.5145 C   0  0  0  0  0  0
  -16.5347  -29.9094   23.6313 C   0  0  0  0  0  0
  -16.7268  -28.6517   23.0327 C   0  0  0  0  0  0
  -26.4495  -31.6579   25.0686 C   0  0  0  0  0  0
  -25.3777  -31.3707   26.1463 C   0  0  0  0  0  0
  -27.0299  -30.3011   24.6028 C   0  0  0  0  0  0
  -27.6086  -32.4274   25.7448 C   0  0  0  0  0  0
  -27.5592  -37.1804   24.8464 C   0  0  0  0  0  0
  -21.4165  -29.3039   22.3746 N   0  0  0  0  0  0
  -26.4285  -37.3795   23.9446 N   0  0  0  0  0  0
  -24.6730  -31.0738   22.0982 N   0  0  0  0  0  0
  -23.4194  -28.8182   23.3066 O   0  0  0  0  0  0
  -28.4308  -26.6889   20.1362 O   0  0  0  0  0  0
  -26.5580  -34.8929   22.4691 O   0  0  0  0  0  0
  -23.5367  -32.1426   23.7446 O   0  0  0  0  0  0
  -30.9397  -18.6121   22.9001 C   0  0  0  0  0  0
  -30.4817  -19.6084   22.0156 C   0  0  0  0  0  0
  -30.8049  -17.2502   22.5743 C   0  0  0  0  0  0
  -29.8768  -19.2625   20.7866 C   0  0  0  0  0  0
  -29.7701  -17.8752   20.4433 C   0  0  0  0  0  0
  -30.2235  -16.8659   21.3484 C   0  0  0  0  0  0
  -28.8862  -22.8226   19.6568 C   0  0  0  0  0  0
  -29.1469  -17.4668   19.1105 C   0  0  0  0  0  0
  -29.3637  -20.3714   19.8359 C   0  0  0  0  0  0
  -28.5043  -24.1524   20.3607 C   0  0  0  0  0  0
  -28.5979  -25.4237   19.4559 C   0  0  0  0  0  0
  -29.9298  -15.4782   21.1567 N   0  0  0  0  0  0
  -29.0919  -21.7131   20.4034 N   0  0  0  0  0  0
  -28.9837  -22.7912   18.4269 O   0  0  0  0  0  0
  -31.4843  -12.4583   19.1377 H   0  0  0  0  0  0
  -30.3642  -11.3233   19.8383 H   0  0  0  0  0  0
  -29.7587  -11.7767   17.4402 H   0  0  0  0  0  0
  -29.6509  -13.4864   17.7722 H   0  0  0  0  0  0
  -27.8627  -11.2811   18.8507 H   0  0  0  0  0  0
  -27.3809  -12.5750   17.7855 H   0  0  0  0  0  0
  -27.7028  -14.2367   19.5494 H   0  0  0  0  0  0
  -28.6862  -11.9577   21.3370 H   0  0  0  0  0  0
  -28.4437  -13.5868   21.8694 H   0  0  0  0  0  0
  -25.2730   -9.5689   22.4732 H   0  0  0  0  0  0
  -23.9948   -7.4638   22.7474 H   0  0  0  0  0  0
  -21.0791   -8.8811   19.8972 H   0  0  0  0  0  0
  -22.3656  -10.9690   19.6168 H   0  0  0  0  0  0
  -21.2000   -7.6136   23.9722 H   0  0  0  0  0  0
  -21.1482   -6.0507   25.9078 H   0  0  0  0  0  0
  -22.0599   -2.7592   23.2876 H   0  0  0  0  0  0
  -22.4064  -11.9919   22.4733 H   0  0  0  0  0  0
  -21.1166  -13.1428   22.2646 H   0  0  0  0  0  0
  -24.7154  -15.8541   20.6420 H   0  0  0  0  0  0
  -26.3367  -15.6217   20.2298 H   0  0  0  0  0  0
  -26.7135  -32.5523   23.1133 H   0  0  0  0  0  0
  -25.0112  -33.9749   25.0506 H   0  0  0  0  0  0
  -22.6977  -31.3034   21.4095 H   0  0  0  0  0  0
  -23.3760  -35.9625   23.3252 H   0  0  0  0  0  0
  -24.3570  -36.8948   22.2051 H   0  0  0  0  0  0
  -23.7209  -37.6501   23.6641 H   0  0  0  0  0  0
  -26.0306  -31.5842   20.5782 H   0  0  0  0  0  0
  -26.8291  -30.8961   21.9654 H   0  0  0  0  0  0
  -28.1003  -29.0742   21.1654 H   0  0  0  0  0  0
  -26.0040  -25.9309   19.0616 H   0  0  0  0  0  0
  -23.9709  -27.2727   19.0673 H   0  0  0  0  0  0
  -23.7401  -30.5943   19.4071 H   0  0  0  0  0  0
  -22.7397  -29.2503   19.8567 H   0  0  0  0  0  0
  -25.1244  -36.1975   25.0855 H   0  0  0  0  0  0
  -20.9927  -28.3251   24.1469 H   0  0  0  0  0  0
  -20.5699  -26.2282   23.3615 H   0  0  0  0  0  0
  -21.6645  -26.7471   22.1209 H   0  0  0  0  0  0
  -19.6899  -25.6329   21.1220 H   0  0  0  0  0  0
  -19.6662  -27.3256   20.6794 H   0  0  0  0  0  0
  -17.4188  -26.6698   21.4025 H   0  0  0  0  0  0
  -18.0289  -26.0083   22.9017 H   0  0  0  0  0  0
  -19.7933  -30.7268   24.2291 H   0  0  0  0  0  0
  -17.5012  -31.6257   24.5194 H   0  0  0  0  0  0
  -15.5348  -30.3007   23.7634 H   0  0  0  0  0  0
  -15.8669  -28.0860   22.7015 H   0  0  0  0  0  0
  -24.5971  -30.6994   25.7863 H   0  0  0  0  0  0
  -24.8932  -32.2866   26.4856 H   0  0  0  0  0  0
  -25.8168  -30.8953   27.0242 H   0  0  0  0  0  0
  -26.2815  -29.6782   24.1105 H   0  0  0  0  0  0
  -27.4124  -29.7221   25.4450 H   0  0  0  0  0  0
  -27.8621  -30.4326   23.9104 H   0  0  0  0  0  0
  -27.2730  -33.3584   26.2023 H   0  0  0  0  0  0
  -28.3901  -32.6818   25.0278 H   0  0  0  0  0  0
  -28.0736  -31.8371   26.5356 H   0  0  0  0  0  0
  -28.2599  -38.0116   24.7556 H   0  0  0  0  0  0
  -28.1093  -36.2662   24.6205 H   0  0  0  0  0  0
  -27.2310  -37.1358   25.8860 H   0  0  0  0  0  0
  -20.9352  -29.8769   21.6957 H   0  0  0  0  0  0
  -26.0174  -38.2856   24.1490 H   0  0  0  0  0  0
  -31.3780  -18.8967   23.8483 H   0  0  0  0  0  0
  -30.6000  -20.6444   22.3024 H   0  0  0  0  0  0
  -31.1274  -16.5024   23.2867 H   0  0  0  0  0  0
  -29.4570  -18.1376   18.3071 H   0  0  0  0  0  0
  -28.0586  -17.4846   19.1736 H   0  0  0  0  0  0
  -29.4552  -16.4678   18.8020 H   0  0  0  0  0  0
  -28.4360  -20.0342   19.3766 H   0  0  0  0  0  0
  -30.0885  -20.4678   19.0247 H   0  0  0  0  0  0
  -29.1640  -24.2739   21.2186 H   0  0  0  0  0  0
  -27.4918  -24.0572   20.7529 H   0  0  0  0  0  0
  -27.9582  -25.3334   18.5791 H   0  0  0  0  0  0
  -29.6080  -25.4593   19.0465 H   0  0  0  0  0  0
  -29.0195  -15.1798   21.4677 H   0  0  0  0  0  0
  -28.9684  -21.7792   21.4040 H   0  0  0  0  0  0
  1 25  1  0  0  0
  1 30  2  0  0  0
  1 82  1  0  0  0
  2  3  1  0  0  0
  2 25  1  0  0  0
  2 85  1  0  0  0
  2 86  1  0  0  0
  3  4  1  0  0  0
  3 87  1  0  0  0
  3 88  1  0  0  0
  4  5  1  0  0  0
  4 89  1  0  0  0
  4 90  1  0  0  0
  5  6  1  0  0  0
  5 26  1  0  0  0
  5 91  1  0  0  0
  6 25  1  0  0  0
  6 92  1  0  0  0
  6 93  1  0  0  0
  7  8  2  0  0  0
  7 26  1  0  0  0
  7 29  1  0  0  0
  8  9  1  0  0  0
  8 22  1  0  0  0
  9 10  1  0  0  0
  9 27  2  0  0  0
 10 11  2  0  0  0
 10 15  1  0  0  0
 11 12  1  0  0  0
 11 94  1  0  0  0
 12 13  2  0  0  0
 12 95  1  0  0  0
 13 14  1  0  0  0
 13 31  1  0  0  0
 14 15  2  0  0  0
 14 96  1  0  0  0
 15 97  1  0  0  0
 16 17  2  0  0  0
 16 21  1  0  0  0
 16 31  1  0  0  0
 17 18  1  0  0  0
 17 98  1  0  0  0
 18 19  2  0  0  0
 18 99  1  0  0  0
 19 20  1  0  0  0
 19 24  1  0  0  0
 20 21  2  0  0  0
 20100  1  0  0  0
 21 23  1  0  0  0
 22 28  1  0  0  0
 22 32  2  0  0  0
 26 27  1  0  0  0
 28101  1  0  0  0
 28102  1  0  0  0
 29103  1  0  0  0
 29104  1  0  0  0
 33 34  1  0  0  0
 33 66  1  0  0  0
 33 70  2  0  0  0
 34 36  1  0  0  0
 34 59  1  0  0  0
 34105  1  0  0  0
 35 44  2  0  0  0
 35 45  1  0  0  0
 35 68  1  0  0  0
 36 56  1  0  0  0
 36106  1  0  0  0
 37 39  1  0  0  0
 37 47  1  0  0  0
 37 66  1  0  0  0
 37107  1  0  0  0
 38 43  2  0  0  0
 38 46  1  0  0  0
 38 47  1  0  0  0
 39 64  1  0  0  0
 39 67  2  0  0  0
 40 52  1  0  0  0
 40 53  2  0  0  0
 40 58  1  0  0  0
 41108  1  0  0  0
 41109  1  0  0  0
 41110  1  0  0  0
 41 48  1  0  0  0
 42 43  1  0  0  0
 42 66  1  0  0  0
 42111  1  0  0  0
 42112  1  0  0  0
 43 44  1  0  0  0
 44113  1  0  0  0
 45 46  2  0  0  0
 45114  1  0  0  0
 46115  1  0  0  0
 47116  1  0  0  0
 47117  1  0  0  0
 48 56  1  0  0  0
 48 65  1  0  0  0
 48118  1  0  0  0
 49 50  1  0  0  0
 49 53  1  0  0  0
 49 64  1  0  0  0
 49119  1  0  0  0
 50 51  1  0  0  0
 50120  1  0  0  0
 50121  1  0  0  0
 51 52  1  0  0  0
 51122  1  0  0  0
 51123  1  0  0  0
 52124  1  0  0  0
 52125  1  0  0  0
 53 54  1  0  0  0
 54 55  2  0  0  0
 54126  1  0  0  0
 55 57  1  0  0  0
 55127  1  0  0  0
 56 69  2  0  0  0
 57 58  2  0  0  0
 57128  1  0  0  0
 58129  1  0  0  0
 59 60  1  0  0  0
 59 61  1  0  0  0
 59 62  1  0  0  0
 60130  1  0  0  0
 60131  1  0  0  0
 60132  1  0  0  0
 61133  1  0  0  0
 61134  1  0  0  0
 61135  1  0  0  0
 62136  1  0  0  0
 62137  1  0  0  0
 62138  1  0  0  0
 63 65  1  0  0  0
 63139  1  0  0  0
 63140  1  0  0  0
 63141  1  0  0  0
 64142  1  0  0  0
 65143  1  0  0  0
 68 81  1  0  0  0
 71 72  2  0  0  0
 71 73  1  0  0  0
 71144  1  0  0  0
 72 74  1  0  0  0
 72145  1  0  0  0
 73 76  2  0  0  0
 73146  1  0  0  0
 74 75  2  0  0  0
 74 79  1  0  0  0
 75 76  1  0  0  0
 75 78  1  0  0  0
 76 82  1  0  0  0
 77 80  1  0  0  0
 77 83  1  0  0  0
 77 84  2  0  0  0
 78147  1  0  0  0
 78148  1  0  0  0
 78149  1  0  0  0
 79 83  1  0  0  0
 79150  1  0  0  0
 79151  1  0  0  0
 80 81  1  0  0  0
 80152  1  0  0  0
 80153  1  0  0  0
 81154  1  0  0  0
 81155  1  0  0  0
 82156  1  0  0  0
 83157  1  0  0  0
M  ISO  4   1 100  68 101  81 101  82 100
M  END
> <chiral flag>
0

> <version>
0

> <s_m_source_file>
/data/baiqing/PycharmProjects/Reinvent-master-3.2/result/LINK_invent/BTK/process_docking_weight1_custom_product_contain_oxygen_bond_distance_aromatic_linkinvent_7_9_3/rearranged_h_0062.sdf

> <i_m_source_file_index>
77

> <r_mmod_Potential_Energy-OPLS-2005>
-137.917358398438

> <r_mmod_Stretch_Energy-OPLS-2005>
46.4062652587891

> <r_mmod_Bend_Energy-OPLS-2005>
111.336715698242

> <r_mmod_Torsional_Energy-OPLS-2005>
225.202850341797

> <r_mmod_Improper_Torsional_Energy-OPLS-2005>
4.04504585266113

> <r_mmod_Van_der_Waal_Energy-OPLS-2005>
152.224868774414

> <r_mmod_Electrostatic_Energy-OPLS-2005>
-457.894134521484

> <r_mmod_Solvation_Energy-OPLS-2005>
-237.312469482422

> <b_mmod_Minimization_Converged-OPLS-2005>
0

> <r_mmod_RMS_Derivative-OPLS-2005>
3.94387888908386

$$$$
77
                    3D
 Structure written by MMmdl.
155163  0  0  1  0            999 V2000
  -30.7002  -14.4733   20.5422 C   0  0  0  0  0  0
  -30.4147  -12.2988   19.4270 C   0  0  0  0  0  0
  -29.4955  -12.5183   18.2076 C   0  0  0  0  0  0
  -28.0108  -12.3957   18.6086 C   0  0  0  0  0  0
  -27.6602  -13.2171   19.8796 C   0  0  2  0  0  0
  -28.7031  -12.9937   20.9989 C   0  0  0  0  0  0
  -25.2539  -13.8179   20.5681 C   0  0  0  0  0  0
  -24.1809  -13.0429   20.9161 C   0  0  0  0  0  0
  -24.6400  -11.6907   20.8733 C   0  0  0  0  0  0
  -23.9075  -10.4286   21.0399 C   0  0  0  0  0  0
  -24.3622   -9.4207   21.9183 C   0  0  0  0  0  0
  -23.6299   -8.2243   22.0750 C   0  0  0  0  0  0
  -22.4284   -8.0279   21.3540 C   0  0  0  0  0  0
  -21.9921   -9.0252   20.4640 C   0  0  0  0  0  0
  -22.7241  -10.2132   20.3052 C   0  0  0  0  0  0
  -21.6856   -6.0741   22.5285 C   0  0  0  0  0  0
  -21.4012   -6.5642   23.8218 C   0  0  0  0  0  0
  -21.3664   -5.6791   24.9172 C   0  0  0  0  0  0
  -21.6051   -4.3055   24.7228 C   0  0  0  0  0  0
  -21.8818   -3.8151   23.4346 C   0  0  0  0  0  0
  -21.9187   -4.6969   22.3402 C   0  0  0  0  0  0
  -22.7830  -13.5217   21.1834 C   0  0  0  0  0  0
  -22.1657   -4.2153   21.0984 F   0  0  0  0  0  0
  -21.5630   -3.4547   25.7751 F   0  0  0  0  0  0
  -30.0357  -13.2897   20.4465 N   0  0  0  0  0  0
  -26.3012  -12.9378   20.3403 N   0  0  0  0  0  0
  -25.9336  -11.6521   20.5790 N   0  0  0  0  0  0
  -22.0486  -12.8229   22.0411 N   0  0  0  0  0  0
  -25.4209  -15.1900   20.4110 N   0  0  0  0  0  0
  -31.8378  -14.6289   20.0936 O   0  0  0  0  0  0
  -21.6635   -6.8885   21.4249 O   0  0  0  0  0  0
  -22.3501  -14.5515   20.6673 O   0  0  0  0  0  0
  -24.6150  -31.8680   23.2120 C   0  0  0  0  0  0
  -25.9033  -32.4834   23.8413 C   0  0  1  0  0  0
  -27.2316  -27.4313   20.0967 C   0  0  0  0  0  0
  -25.5892  -33.8639   24.2341 N   0  0  0  0  0  0
  -23.4033  -30.4898   21.5529 C   0  0  2  0  0  0
  -24.8510  -28.9536   20.1190 C   0  0  0  0  0  0
  -22.7410  -29.4645   22.5004 C   0  0  0  0  0  0
  -18.0267  -28.1374   22.8492 C   0  0  0  0  0  0
  -24.1484  -36.7314   23.2633 C   0  0  0  0  0  0
  -25.9334  -30.8285   21.3697 C   0  0  0  0  0  0
  -26.0108  -29.4623   20.7183 C   0  0  0  0  0  0
  -27.2065  -28.7082   20.7041 C   0  0  0  0  0  0
  -26.0579  -26.9354   19.4933 C   0  0  0  0  0  0
  -24.8680  -27.6874   19.5076 C   0  0  0  0  0  0
  -23.6137  -29.8209   20.1678 C   0  0  0  0  0  0
  -25.4115  -36.3135   24.0332 C   0  0  1  0  0  0
  -20.5862  -28.3656   23.1334 C   0  0  2  0  0  0
  -20.6766  -26.9394   22.5427 C   0  0  0  0  0  0
  -19.5747  -26.6376   21.5224 C   0  0  0  0  0  0
  -18.1922  -26.7920   22.1631 C   0  0  0  0  0  0
  -19.1515  -28.8833   23.2908 C   0  0  0  0  0  0
  -18.9444  -30.1440   23.8913 C   0  0  0  0  0  0
  -17.6445  -30.6582   24.0566 C   0  0  0  0  0  0
  -25.9032  -34.9491   23.5139 C   0  0  0  0  0  0
  -16.5340  -29.9084   23.6324 C   0  0  0  0  0  0
  -16.7256  -28.6503   23.0349 C   0  0  0  0  0  0
  -26.4462  -31.6610   25.0739 C   0  0  0  0  0  0
  -25.3714  -31.3725   26.1479 C   0  0  0  0  0  0
  -27.0280  -30.3047   24.6115 C   0  0  0  0  0  0
  -27.6043  -32.4321   25.7510 C   0  0  0  0  0  0
  -27.5589  -37.1822   24.8461 C   0  0  0  0  0  0
  -21.4134  -29.3019   22.3742 N   0  0  0  0  0  0
  -26.4309  -37.3813   23.9395 N   0  0  0  0  0  0
  -24.6684  -31.0772   22.1026 N   0  0  0  0  0  0
  -23.4187  -28.8175   23.3036 O   0  0  0  0  0  0
  -28.3895  -26.6882   20.0459 O   0  0  0  0  0  0
  -26.5601  -34.8931   22.4703 O   0  0  0  0  0  0
  -23.5339  -32.1435   23.7499 O   0  0  0  0  0  0
  -28.8623  -19.0310   20.4643 C   0  0  0  0  0  0
  -31.2254  -17.5356   20.1951 C   0  0  0  0  0  0
  -30.0101  -19.6669   19.9334 C   0  0  0  0  0  0
  -30.0651  -16.8914   20.6894 C   0  0  0  0  0  0
  -28.8931  -17.6666   20.8346 C   0  0  0  0  0  0
  -31.1981  -18.8962   19.8161 C   0  0  0  0  0  0
  -29.9503  -21.0744   19.4590 C   0  0  0  0  0  0
  -29.0401  -23.4201   19.7475 C   0  0  0  0  0  0
  -28.0370  -24.2234   20.5965 C   0  0  0  0  0  0
  -28.5016  -25.6443   21.0284 C   0  0  0  0  0  0
  -29.9795  -15.5013   21.0344 N   0  0  0  0  0  0
  -29.2005  -22.0176   20.0944 N   0  0  0  0  0  0
  -30.6370  -21.3946   18.3545 N   0  3  0  0  0  0
  -29.6486  -23.9395   18.8039 O   0  0  0  0  0  0
  -27.7682  -17.0767   21.3064 F   0  0  0  0  0  0
  -32.3267  -19.4416   19.2986 F   0  0  0  0  0  0
  -31.4632  -12.3741   19.1324 H   0  0  0  0  0  0
  -30.2889  -11.2887   19.8218 H   0  0  0  0  0  0
  -29.7301  -11.8015   17.4202 H   0  0  0  0  0  0
  -29.6788  -13.5072   17.7828 H   0  0  0  0  0  0
  -27.7936  -11.3407   18.7739 H   0  0  0  0  0  0
  -27.3732  -12.7056   17.7794 H   0  0  0  0  0  0
  -27.7017  -14.2695   19.5949 H   0  0  0  0  0  0
  -28.6733  -11.9590   21.3405 H   0  0  0  0  0  0
  -28.4718  -13.5961   21.8790 H   0  0  0  0  0  0
  -25.2764   -9.5691   22.4757 H   0  0  0  0  0  0
  -24.0011   -7.4640   22.7469 H   0  0  0  0  0  0
  -21.0848   -8.8756   19.8962 H   0  0  0  0  0  0
  -22.3683  -10.9664   19.6157 H   0  0  0  0  0  0
  -21.2003   -7.6150   23.9733 H   0  0  0  0  0  0
  -21.1489   -6.0514   25.9079 H   0  0  0  0  0  0
  -22.0593   -2.7617   23.2848 H   0  0  0  0  0  0
  -22.4072  -11.9872   22.4777 H   0  0  0  0  0  0
  -21.1102  -13.1257   22.2620 H   0  0  0  0  0  0
  -24.6529  -15.8410   20.5290 H   0  0  0  0  0  0
  -26.2965  -15.6528   20.1997 H   0  0  0  0  0  0
  -26.7103  -32.5543   23.1178 H   0  0  0  0  0  0
  -25.0074  -33.9833   25.0504 H   0  0  0  0  0  0
  -22.6907  -31.3057   21.4118 H   0  0  0  0  0  0
  -23.3763  -35.9633   23.3327 H   0  0  0  0  0  0
  -24.3564  -36.8897   22.2040 H   0  0  0  0  0  0
  -23.7219  -37.6518   23.6626 H   0  0  0  0  0  0
  -26.0486  -31.5948   20.6020 H   0  0  0  0  0  0
  -26.8219  -30.8837   21.9873 H   0  0  0  0  0  0
  -28.1069  -29.0992   21.1591 H   0  0  0  0  0  0
  -26.0637  -25.9740   19.0020 H   0  0  0  0  0  0
  -23.9773  -27.2907   19.0395 H   0  0  0  0  0  0
  -23.7214  -30.5953   19.4079 H   0  0  0  0  0  0
  -22.7382  -29.2401   19.8724 H   0  0  0  0  0  0
  -25.1293  -36.2025   25.0827 H   0  0  0  0  0  0
  -20.9951  -28.3213   24.1456 H   0  0  0  0  0  0
  -20.5682  -26.2251   23.3611 H   0  0  0  0  0  0
  -21.6636  -26.7440   22.1206 H   0  0  0  0  0  0
  -19.6909  -25.6286   21.1255 H   0  0  0  0  0  0
  -19.6708  -27.3193   20.6764 H   0  0  0  0  0  0
  -17.4200  -26.6682   21.4023 H   0  0  0  0  0  0
  -18.0298  -26.0062   22.9017 H   0  0  0  0  0  0
  -19.7916  -30.7256   24.2296 H   0  0  0  0  0  0
  -17.4999  -31.6272   24.5146 H   0  0  0  0  0  0
  -15.5342  -30.2999   23.7637 H   0  0  0  0  0  0
  -15.8655  -28.0836   22.7054 H   0  0  0  0  0  0
  -24.5867  -30.7101   25.7804 H   0  0  0  0  0  0
  -24.8933  -32.2892   26.4944 H   0  0  0  0  0  0
  -25.8042  -30.8867   27.0229 H   0  0  0  0  0  0
  -26.2829  -29.6850   24.1111 H   0  0  0  0  0  0
  -27.3977  -29.7248   25.4578 H   0  0  0  0  0  0
  -27.8702  -30.4367   23.9317 H   0  0  0  0  0  0
  -27.2660  -33.3605   26.2133 H   0  0  0  0  0  0
  -28.3842  -32.6909   25.0329 H   0  0  0  0  0  0
  -28.0721  -31.8414   26.5396 H   0  0  0  0  0  0
  -28.2622  -38.0109   24.7518 H   0  0  0  0  0  0
  -28.1078  -36.2640   24.6295 H   0  0  0  0  0  0
  -27.2296  -37.1479   25.8863 H   0  0  0  0  0  0
  -20.9289  -29.8748   21.6971 H   0  0  0  0  0  0
  -26.0210  -38.2891   24.1419 H   0  0  0  0  0  0
  -27.9292  -19.5662   20.5640 H   0  0  0  0  0  0
  -32.1549  -17.0029   20.0752 H   0  0  0  0  0  0
  -27.8437  -23.6517   21.5023 H   0  0  0  0  0  0
  -27.0864  -24.2662   20.0680 H   0  0  0  0  0  0
  -29.5474  -25.6002   21.3385 H   0  0  0  0  0  0
  -27.9568  -25.9313   21.9301 H   0  0  0  0  0  0
  -29.0916  -15.2372   21.4313 H   0  0  0  0  0  0
  -28.7222  -21.6352   20.8946 H   0  0  0  0  0  0
  -31.3087  -20.7392   17.9800 H   0  0  0  0  0  0
  -30.5993  -22.3454   18.0051 H   0  0  0  0  0  0
  1 25  1  0  0  0
  1 30  2  0  0  0
  1 81  1  0  0  0
  2  3  1  0  0  0
  2 25  1  0  0  0
  2 87  1  0  0  0
  2 88  1  0  0  0
  3  4  1  0  0  0
  3 89  1  0  0  0
  3 90  1  0  0  0
  4  5  1  0  0  0
  4 91  1  0  0  0
  4 92  1  0  0  0
  5  6  1  0  0  0
  5 26  1  0  0  0
  5 93  1  0  0  0
  6 25  1  0  0  0
  6 94  1  0  0  0
  6 95  1  0  0  0
  7  8  2  0  0  0
  7 26  1  0  0  0
  7 29  1  0  0  0
  8  9  1  0  0  0
  8 22  1  0  0  0
  9 10  1  0  0  0
  9 27  2  0  0  0
 10 11  2  0  0  0
 10 15  1  0  0  0
 11 12  1  0  0  0
 11 96  1  0  0  0
 12 13  2  0  0  0
 12 97  1  0  0  0
 13 14  1  0  0  0
 13 31  1  0  0  0
 14 15  2  0  0  0
 14 98  1  0  0  0
 15 99  1  0  0  0
 16 17  2  0  0  0
 16 21  1  0  0  0
 16 31  1  0  0  0
 17 18  1  0  0  0
 17100  1  0  0  0
 18 19  2  0  0  0
 18101  1  0  0  0
 19 20  1  0  0  0
 19 24  1  0  0  0
 20 21  2  0  0  0
 20102  1  0  0  0
 21 23  1  0  0  0
 22 28  1  0  0  0
 22 32  2  0  0  0
 26 27  1  0  0  0
 28103  1  0  0  0
 28104  1  0  0  0
 29105  1  0  0  0
 29106  1  0  0  0
 33 34  1  0  0  0
 33 66  1  0  0  0
 33 70  2  0  0  0
 34 36  1  0  0  0
 34 59  1  0  0  0
 34107  1  0  0  0
 35 44  2  0  0  0
 35 45  1  0  0  0
 35 68  1  0  0  0
 36 56  1  0  0  0
 36108  1  0  0  0
 37 39  1  0  0  0
 37 47  1  0  0  0
 37 66  1  0  0  0
 37109  1  0  0  0
 38 43  2  0  0  0
 38 46  1  0  0  0
 38 47  1  0  0  0
 39 64  1  0  0  0
 39 67  2  0  0  0
 40 52  1  0  0  0
 40 53  2  0  0  0
 40 58  1  0  0  0
 41110  1  0  0  0
 41111  1  0  0  0
 41112  1  0  0  0
 41 48  1  0  0  0
 42 43  1  0  0  0
 42 66  1  0  0  0
 42113  1  0  0  0
 42114  1  0  0  0
 43 44  1  0  0  0
 44115  1  0  0  0
 45 46  2  0  0  0
 45116  1  0  0  0
 46117  1  0  0  0
 47118  1  0  0  0
 47119  1  0  0  0
 48 56  1  0  0  0
 48 65  1  0  0  0
 48120  1  0  0  0
 49 50  1  0  0  0
 49 53  1  0  0  0
 49 64  1  0  0  0
 49121  1  0  0  0
 50 51  1  0  0  0
 50122  1  0  0  0
 50123  1  0  0  0
 51 52  1  0  0  0
 51124  1  0  0  0
 51125  1  0  0  0
 52126  1  0  0  0
 52127  1  0  0  0
 53 54  1  0  0  0
 54 55  2  0  0  0
 54128  1  0  0  0
 55 57  1  0  0  0
 55129  1  0  0  0
 56 69  2  0  0  0
 57 58  2  0  0  0
 57130  1  0  0  0
 58131  1  0  0  0
 59 60  1  0  0  0
 59 61  1  0  0  0
 59 62  1  0  0  0
 60132  1  0  0  0
 60133  1  0  0  0
 60134  1  0  0  0
 61135  1  0  0  0
 61136  1  0  0  0
 61137  1  0  0  0
 62138  1  0  0  0
 62139  1  0  0  0
 62140  1  0  0  0
 63 65  1  0  0  0
 63141  1  0  0  0
 63142  1  0  0  0
 63143  1  0  0  0
 64144  1  0  0  0
 65145  1  0  0  0
 68 80  1  0  0  0
 71 73  2  0  0  0
 71 75  1  0  0  0
 71146  1  0  0  0
 72 74  1  0  0  0
 72 76  2  0  0  0
 72147  1  0  0  0
 73 76  1  0  0  0
 73 77  1  0  0  0
 74 75  2  0  0  0
 74 81  1  0  0  0
 75 85  1  0  0  0
 76 86  1  0  0  0
 77 82  1  0  0  0
 77 83  2  0  0  0
 78 79  1  0  0  0
 78 82  1  0  0  0
 78 84  2  0  0  0
 79 80  1  0  0  0
 79148  1  0  0  0
 79149  1  0  0  0
 80150  1  0  0  0
 80151  1  0  0  0
 81152  1  0  0  0
 82153  1  0  0  0
 83154  1  0  0  0
 83155  1  0  0  0
M  CHG  1  83   1
M  ISO  4   1 100  68 101  80 101  81 100
M  END
> <chiral flag>
0

> <version>
0

> <s_m_source_file>
/data/baiqing/PycharmProjects/Reinvent-master-3.2/result/LINK_invent/BTK/process_docking_weight1_custom_product_contain_oxygen_bond_distance_aromatic_linkinvent_7_9_3/rearranged_h_0062.sdf

> <i_m_source_file_index>
78

> <r_mmod_Potential_Energy-OPLS-2005>
-369.780853271484

> <r_mmod_Stretch_Energy-OPLS-2005>
40.8210945129395

> <r_mmod_Bend_Energy-OPLS-2005>
112.705230712891

> <r_mmod_Torsional_Energy-OPLS-2005>
228.6142578125

> <r_mmod_Improper_Torsional_Energy-OPLS-2005>
5.03838872909546

> <r_mmod_Van_der_Waal_Energy-OPLS-2005>
165.154830932617

> <r_mmod_Electrostatic_Energy-OPLS-2005>
-472.699554443359

> <r_mmod_Solvation_Energy-OPLS-2005>
-462.096984863281

> <b_mmod_Minimization_Converged-OPLS-2005>
0

> <r_mmod_RMS_Derivative-OPLS-2005>
2.33692955970764

$$$$
78
                    3D
 Structure written by MMmdl.
155163  0  0  1  0            999 V2000
  -30.6580  -14.5939   20.5083 C   0  0  0  0  0  0
  -30.4303  -12.3660   19.4441 C   0  0  0  0  0  0
  -29.5020  -12.5048   18.2181 C   0  0  0  0  0  0
  -28.0244  -12.3522   18.6301 C   0  0  0  0  0  0
  -27.6545  -13.2165   19.8652 C   0  0  2  0  0  0
  -28.7011  -13.0635   20.9927 C   0  0  0  0  0  0
  -25.2563  -13.8174   20.5683 C   0  0  0  0  0  0
  -24.1832  -13.0439   20.9193 C   0  0  0  0  0  0
  -24.6400  -11.6909   20.8745 C   0  0  0  0  0  0
  -23.9070  -10.4290   21.0408 C   0  0  0  0  0  0
  -24.3620   -9.4207   21.9188 C   0  0  0  0  0  0
  -23.6294   -8.2243   22.0756 C   0  0  0  0  0  0
  -22.4276   -8.0282   21.3544 C   0  0  0  0  0  0
  -21.9914   -9.0255   20.4648 C   0  0  0  0  0  0
  -22.7242  -10.2134   20.3057 C   0  0  0  0  0  0
  -21.6853   -6.0738   22.5279 C   0  0  0  0  0  0
  -21.4012   -6.5640   23.8213 C   0  0  0  0  0  0
  -21.3657   -5.6792   24.9174 C   0  0  0  0  0  0
  -21.6044   -4.3057   24.7222 C   0  0  0  0  0  0
  -21.8820   -3.8149   23.4346 C   0  0  0  0  0  0
  -21.9192   -4.6965   22.3402 C   0  0  0  0  0  0
  -22.7853  -13.5232   21.1851 C   0  0  0  0  0  0
  -22.1661   -4.2150   21.0982 F   0  0  0  0  0  0
  -21.5627   -3.4542   25.7737 F   0  0  0  0  0  0
  -30.0196  -13.3868   20.4262 N   0  0  0  0  0  0
  -26.3000  -12.9355   20.3338 N   0  0  0  0  0  0
  -25.9331  -11.6510   20.5775 N   0  0  0  0  0  0
  -22.0490  -12.8219   22.0401 N   0  0  0  0  0  0
  -25.4271  -15.1893   20.4062 N   0  0  0  0  0  0
  -31.8238  -14.7279   20.1274 O   0  0  0  0  0  0
  -21.6639   -6.8880   21.4242 O   0  0  0  0  0  0
  -22.3539  -14.5543   20.6705 O   0  0  0  0  0  0
  -24.6229  -31.8624   23.2046 C   0  0  0  0  0  0
  -25.9090  -32.4796   23.8361 C   0  0  1  0  0  0
  -27.2299  -27.3540   20.1048 C   0  0  0  0  0  0
  -25.5912  -33.8595   24.2293 N   0  0  0  0  0  0
  -23.4142  -30.4862   21.5479 C   0  0  2  0  0  0
  -24.8594  -28.9449   20.1135 C   0  0  0  0  0  0
  -22.7457  -29.4634   22.4964 C   0  0  0  0  0  0
  -18.0282  -28.1377   22.8490 C   0  0  0  0  0  0
  -24.1482  -36.7292   23.2641 C   0  0  0  0  0  0
  -25.9521  -30.8044   21.3678 C   0  0  0  0  0  0
  -26.0278  -29.4341   20.7109 C   0  0  0  0  0  0
  -27.2159  -28.6509   20.6950 C   0  0  0  0  0  0
  -26.0331  -26.9040   19.4975 C   0  0  0  0  0  0
  -24.8626  -27.6836   19.5002 C   0  0  0  0  0  0
  -23.6254  -29.8199   20.1632 C   0  0  0  0  0  0
  -25.4105  -36.3093   24.0336 C   0  0  1  0  0  0
  -20.5881  -28.3668   23.1300 C   0  0  2  0  0  0
  -20.6772  -26.9397   22.5411 C   0  0  0  0  0  0
  -19.5749  -26.6379   21.5212 C   0  0  0  0  0  0
  -18.1925  -26.7920   22.1621 C   0  0  0  0  0  0
  -19.1535  -28.8838   23.2891 C   0  0  0  0  0  0
  -18.9461  -30.1443   23.8902 C   0  0  0  0  0  0
  -17.6463  -30.6582   24.0563 C   0  0  0  0  0  0
  -25.9041  -34.9464   23.5114 C   0  0  0  0  0  0
  -16.5354  -29.9079   23.6334 C   0  0  0  0  0  0
  -16.7270  -28.6497   23.0355 C   0  0  0  0  0  0
  -26.4482  -31.6593   25.0719 C   0  0  0  0  0  0
  -25.3725  -31.3718   26.1454 C   0  0  0  0  0  0
  -27.0319  -30.3031   24.6128 C   0  0  0  0  0  0
  -27.6050  -32.4316   25.7487 C   0  0  0  0  0  0
  -27.5574  -37.1802   24.8469 C   0  0  0  0  0  0
  -21.4174  -29.3033   22.3705 N   0  0  0  0  0  0
  -26.4286  -37.3783   23.9413 N   0  0  0  0  0  0
  -24.6823  -31.0662   22.0980 N   0  0  0  0  0  0
  -23.4200  -28.8175   23.3028 O   0  0  0  0  0  0
  -28.3718  -26.5478   20.1342 O   0  0  0  0  0  0
  -26.5613  -34.8931   22.4681 O   0  0  0  0  0  0
  -23.5401  -32.1402   23.7399 O   0  0  0  0  0  0
  -29.0188  -18.0039   20.7163 C   0  0  0  0  0  0
  -29.1984  -19.4201   20.6925 C   0  0  0  0  0  0
  -31.4051  -17.6791   20.7950 C   0  0  0  0  0  0
  -31.5993  -19.0886   20.7893 C   0  0  0  0  0  0
  -30.1150  -17.0976   20.7678 C   0  0  0  0  0  0
  -30.4917  -19.9921   20.7381 C   0  0  0  0  0  0
  -29.5010  -24.2587   20.1806 C   0  0  0  0  0  0
  -33.0343  -19.5886   20.8736 C   0  0  0  0  0  0
  -28.1899  -25.0915   20.0049 C   0  0  0  0  0  0
  -30.8659  -22.1935   22.3925 N   0  0  0  0  0  0
  -29.8726  -15.6620   20.8400 N   0  0  0  0  0  0
  -29.4189  -22.8460   20.4095 N   0  0  0  0  0  0
  -30.5923  -24.8357   20.1349 O   0  0  0  0  0  0
  -31.8865  -22.1710   19.9495 O   0  0  0  0  0  0
  -30.7927  -21.8298   20.8736 S   0  0  2  0  0  0
  -31.4735  -12.4745   19.1423 H   0  0  0  0  0  0
  -30.3489  -11.3686   19.8792 H   0  0  0  0  0  0
  -29.7578  -11.7596   17.4638 H   0  0  0  0  0  0
  -29.6525  -13.4786   17.7488 H   0  0  0  0  0  0
  -27.8514  -11.2982   18.8508 H   0  0  0  0  0  0
  -27.3716  -12.5966   17.7912 H   0  0  0  0  0  0
  -27.6756  -14.2537   19.5303 H   0  0  0  0  0  0
  -28.7025  -12.0433   21.3787 H   0  0  0  0  0  0
  -28.4577  -13.7018   21.8435 H   0  0  0  0  0  0
  -25.2765   -9.5679   22.4764 H   0  0  0  0  0  0
  -24.0000   -7.4636   22.7475 H   0  0  0  0  0  0
  -21.0846   -8.8776   19.8950 H   0  0  0  0  0  0
  -22.3707  -10.9675   19.6165 H   0  0  0  0  0  0
  -21.2004   -7.6148   23.9716 H   0  0  0  0  0  0
  -21.1476   -6.0523   25.9077 H   0  0  0  0  0  0
  -22.0600   -2.7611   23.2848 H   0  0  0  0  0  0
  -22.4099  -11.9872   22.4782 H   0  0  0  0  0  0
  -21.1109  -13.1246   22.2609 H   0  0  0  0  0  0
  -24.6552  -15.8405   20.5017 H   0  0  0  0  0  0
  -26.2651  -15.6225   20.0407 H   0  0  0  0  0  0
  -26.7160  -32.5477   23.1113 H   0  0  0  0  0  0
  -25.0066  -33.9739   25.0443 H   0  0  0  0  0  0
  -22.7058  -31.3052   21.4064 H   0  0  0  0  0  0
  -23.3751  -35.9619   23.3313 H   0  0  0  0  0  0
  -24.3570  -36.8896   22.2053 H   0  0  0  0  0  0
  -23.7229  -37.6496   23.6651 H   0  0  0  0  0  0
  -26.0732  -31.5677   20.5979 H   0  0  0  0  0  0
  -26.8374  -30.8560   21.9904 H   0  0  0  0  0  0
  -28.1155  -29.0258   21.1628 H   0  0  0  0  0  0
  -25.9687  -25.9403   19.0166 H   0  0  0  0  0  0
  -23.9656  -27.3013   19.0324 H   0  0  0  0  0  0
  -23.7368  -30.5955   19.4045 H   0  0  0  0  0  0
  -22.7468  -29.2442   19.8663 H   0  0  0  0  0  0
  -25.1283  -36.1947   25.0830 H   0  0  0  0  0  0
  -20.9968  -28.3228   24.1422 H   0  0  0  0  0  0
  -20.5667  -26.2273   23.3600 H   0  0  0  0  0  0
  -21.6641  -26.7422   22.1206 H   0  0  0  0  0  0
  -19.6910  -25.6293   21.1229 H   0  0  0  0  0  0
  -19.6694  -27.3201   20.6754 H   0  0  0  0  0  0
  -17.4198  -26.6679   21.4021 H   0  0  0  0  0  0
  -18.0319  -26.0051   22.9003 H   0  0  0  0  0  0
  -19.7942  -30.7258   24.2273 H   0  0  0  0  0  0
  -17.5022  -31.6269   24.5153 H   0  0  0  0  0  0
  -15.5356  -30.2985   23.7660 H   0  0  0  0  0  0
  -15.8668  -28.0819   22.7071 H   0  0  0  0  0  0
  -24.5917  -30.7038   25.7795 H   0  0  0  0  0  0
  -24.8892  -32.2879   26.4867 H   0  0  0  0  0  0
  -25.8061  -30.8921   27.0238 H   0  0  0  0  0  0
  -26.2880  -29.6791   24.1164 H   0  0  0  0  0  0
  -27.4065  -29.7268   25.4596 H   0  0  0  0  0  0
  -27.8720  -30.4346   23.9304 H   0  0  0  0  0  0
  -27.2682  -33.3635   26.2040 H   0  0  0  0  0  0
  -28.3879  -32.6839   25.0323 H   0  0  0  0  0  0
  -28.0692  -31.8448   26.5424 H   0  0  0  0  0  0
  -28.2601  -38.0092   24.7508 H   0  0  0  0  0  0
  -28.1061  -36.2623   24.6304 H   0  0  0  0  0  0
  -27.2295  -37.1460   25.8876 H   0  0  0  0  0  0
  -20.9344  -29.8754   21.6921 H   0  0  0  0  0  0
  -26.0172  -38.2859   24.1419 H   0  0  0  0  0  0
  -28.0096  -17.6175   20.7047 H   0  0  0  0  0  0
  -28.3358  -20.0690   20.6738 H   0  0  0  0  0  0
  -32.2749  -17.0418   20.8541 H   0  0  0  0  0  0
  -33.7316  -18.7819   21.1016 H   0  0  0  0  0  0
  -33.1480  -20.3404   21.6543 H   0  0  0  0  0  0
  -33.3427  -20.0238   19.9230 H   0  0  0  0  0  0
  -27.4507  -24.7423   20.7271 H   0  0  0  0  0  0
  -27.8227  -24.8542   19.0066 H   0  0  0  0  0  0
  -31.6249  -21.7019   22.8793 H   0  0  0  0  0  0
  -28.9263  -15.3979   21.0668 H   0  0  0  0  0  0
  -28.5252  -22.4597   20.7163 H   0  0  0  0  0  0
  1 25  1  0  0  0
  1 30  2  0  0  0
  1 81  1  0  0  0
  2  3  1  0  0  0
  2 25  1  0  0  0
  2 86  1  0  0  0
  2 87  1  0  0  0
  3  4  1  0  0  0
  3 88  1  0  0  0
  3 89  1  0  0  0
  4  5  1  0  0  0
  4 90  1  0  0  0
  4 91  1  0  0  0
  5  6  1  0  0  0
  5 26  1  0  0  0
  5 92  1  0  0  0
  6 25  1  0  0  0
  6 93  1  0  0  0
  6 94  1  0  0  0
  7  8  2  0  0  0
  7 26  1  0  0  0
  7 29  1  0  0  0
  8  9  1  0  0  0
  8 22  1  0  0  0
  9 10  1  0  0  0
  9 27  2  0  0  0
 10 11  2  0  0  0
 10 15  1  0  0  0
 11 12  1  0  0  0
 11 95  1  0  0  0
 12 13  2  0  0  0
 12 96  1  0  0  0
 13 14  1  0  0  0
 13 31  1  0  0  0
 14 15  2  0  0  0
 14 97  1  0  0  0
 15 98  1  0  0  0
 16 17  2  0  0  0
 16 21  1  0  0  0
 16 31  1  0  0  0
 17 18  1  0  0  0
 17 99  1  0  0  0
 18 19  2  0  0  0
 18100  1  0  0  0
 19 20  1  0  0  0
 19 24  1  0  0  0
 20 21  2  0  0  0
 20101  1  0  0  0
 21 23  1  0  0  0
 22 28  1  0  0  0
 22 32  2  0  0  0
 26 27  1  0  0  0
 28102  1  0  0  0
 28103  1  0  0  0
 29104  1  0  0  0
 29105  1  0  0  0
 33 34  1  0  0  0
 33 66  1  0  0  0
 33 70  2  0  0  0
 34 36  1  0  0  0
 34 59  1  0  0  0
 34106  1  0  0  0
 35 44  2  0  0  0
 35 45  1  0  0  0
 35 68  1  0  0  0
 36 56  1  0  0  0
 36107  1  0  0  0
 37 39  1  0  0  0
 37 47  1  0  0  0
 37 66  1  0  0  0
 37108  1  0  0  0
 38 43  2  0  0  0
 38 46  1  0  0  0
 38 47  1  0  0  0
 39 64  1  0  0  0
 39 67  2  0  0  0
 40 52  1  0  0  0
 40 53  2  0  0  0
 40 58  1  0  0  0
 41109  1  0  0  0
 41110  1  0  0  0
 41111  1  0  0  0
 41 48  1  0  0  0
 42 43  1  0  0  0
 42 66  1  0  0  0
 42112  1  0  0  0
 42113  1  0  0  0
 43 44  1  0  0  0
 44114  1  0  0  0
 45 46  2  0  0  0
 45115  1  0  0  0
 46116  1  0  0  0
 47117  1  0  0  0
 47118  1  0  0  0
 48 56  1  0  0  0
 48 65  1  0  0  0
 48119  1  0  0  0
 49 50  1  0  0  0
 49 53  1  0  0  0
 49 64  1  0  0  0
 49120  1  0  0  0
 50 51  1  0  0  0
 50121  1  0  0  0
 50122  1  0  0  0
 51 52  1  0  0  0
 51123  1  0  0  0
 51124  1  0  0  0
 52125  1  0  0  0
 52126  1  0  0  0
 53 54  1  0  0  0
 54 55  2  0  0  0
 54127  1  0  0  0
 55 57  1  0  0  0
 55128  1  0  0  0
 56 69  2  0  0  0
 57 58  2  0  0  0
 57129  1  0  0  0
 58130  1  0  0  0
 59 60  1  0  0  0
 59 61  1  0  0  0
 59 62  1  0  0  0
 60131  1  0  0  0
 60132  1  0  0  0
 60133  1  0  0  0
 61134  1  0  0  0
 61135  1  0  0  0
 61136  1  0  0  0
 62137  1  0  0  0
 62138  1  0  0  0
 62139  1  0  0  0
 63 65  1  0  0  0
 63140  1  0  0  0
 63141  1  0  0  0
 63142  1  0  0  0
 64143  1  0  0  0
 65144  1  0  0  0
 68 79  1  0  0  0
 71 72  2  0  0  0
 71 75  1  0  0  0
 71145  1  0  0  0
 72 76  1  0  0  0
 72146  1  0  0  0
 73 74  1  0  0  0
 73 75  2  0  0  0
 73147  1  0  0  0
 74 76  2  0  0  0
 74 78  1  0  0  0
 75 81  1  0  0  0
 76 85  1  0  0  0
 77 79  1  0  0  0
 77 82  1  0  0  0
 77 83  2  0  0  0
 78148  1  0  0  0
 78149  1  0  0  0
 78150  1  0  0  0
 79151  1  0  0  0
 79152  1  0  0  0
 80 85  2  0  0  0
 80153  1  0  0  0
 81154  1  0  0  0
 82155  1  0  0  0
 82 85  1  0  0  0
 84 85  2  0  0  0
M  ISO  4   1 100  68 101  79 101  81 100
M  END
> <chiral flag>
0

> <version>
0

> <s_m_source_file>
/data/baiqing/PycharmProjects/Reinvent-master-3.2/result/LINK_invent/BTK/process_docking_weight1_custom_product_contain_oxygen_bond_distance_aromatic_linkinvent_7_9_3/rearranged_h_0062.sdf

> <i_m_source_file_index>
79

> <r_mmod_Potential_Energy-OPLS-2005>
-107.532890319824

> <r_mmod_Stretch_Energy-OPLS-2005>
68.210075378418

> <r_mmod_Bend_Energy-OPLS-2005>
134.565231323242

> <r_mmod_Torsional_Energy-OPLS-2005>
221.569213867188

> <r_mmod_Improper_Torsional_Energy-OPLS-2005>
6.68936967849731

> <r_mmod_Van_der_Waal_Energy-OPLS-2005>
146.038375854492

> <r_mmod_Electrostatic_Energy-OPLS-2005>
-425.002807617188

> <r_mmod_Solvation_Energy-OPLS-2005>
-293.530487060547

> <b_mmod_Minimization_Converged-OPLS-2005>
0

> <r_mmod_RMS_Derivative-OPLS-2005>
0.831391096115112

$$$$
79
                    3D
 Structure written by MMmdl.
152160  0  0  1  0            999 V2000
  -30.6035  -14.8426   20.4381 C   0  0  0  0  0  0
  -30.4267  -12.5196   19.4855 C   0  0  0  0  0  0
  -29.5101  -12.5125   18.2428 C   0  0  0  0  0  0
  -28.0397  -12.3234   18.6592 C   0  0  0  0  0  0
  -27.6311  -13.2447   19.8387 C   0  0  2  0  0  0
  -28.6744  -13.2423   20.9745 C   0  0  0  0  0  0
  -25.2474  -13.8226   20.5721 C   0  0  0  0  0  0
  -24.1775  -13.0448   20.9207 C   0  0  0  0  0  0
  -24.6385  -11.6929   20.8740 C   0  0  0  0  0  0
  -23.9070  -10.4298   21.0402 C   0  0  0  0  0  0
  -24.3621   -9.4220   21.9185 C   0  0  0  0  0  0
  -23.6292   -8.2257   22.0757 C   0  0  0  0  0  0
  -22.4280   -8.0284   21.3544 C   0  0  0  0  0  0
  -21.9914   -9.0258   20.4648 C   0  0  0  0  0  0
  -22.7240  -10.2138   20.3053 C   0  0  0  0  0  0
  -21.6853   -6.0731   22.5274 C   0  0  0  0  0  0
  -21.4013   -6.5642   23.8206 C   0  0  0  0  0  0
  -21.3661   -5.6801   24.9172 C   0  0  0  0  0  0
  -21.6043   -4.3058   24.7229 C   0  0  0  0  0  0
  -21.8814   -3.8141   23.4355 C   0  0  0  0  0  0
  -21.9192   -4.6957   22.3405 C   0  0  0  0  0  0
  -22.7798  -13.5212   21.1873 C   0  0  0  0  0  0
  -22.1659   -4.2138   21.0983 F   0  0  0  0  0  0
  -21.5632   -3.4544   25.7746 F   0  0  0  0  0  0
  -29.9606  -13.6158   20.3761 N   0  0  0  0  0  0
  -26.2891  -12.9450   20.3251 N   0  0  0  0  0  0
  -25.9317  -11.6582   20.5731 N   0  0  0  0  0  0
  -22.0456  -12.8188   22.0427 N   0  0  0  0  0  0
  -25.4185  -15.1955   20.4198 N   0  0  0  0  0  0
  -31.8025  -14.8808   20.1501 O   0  0  0  0  0  0
  -21.6646   -6.8877   21.4237 O   0  0  0  0  0  0
  -22.3471  -14.5510   20.6716 O   0  0  0  0  0  0
  -24.6395  -31.8497   23.1946 C   0  0  0  0  0  0
  -25.9193  -32.4722   23.8313 C   0  0  1  0  0  0
  -27.2103  -27.1832   20.1361 C   0  0  0  0  0  0
  -25.5963  -33.8524   24.2231 N   0  0  0  0  0  0
  -23.4396  -30.4722   21.5398 C   0  0  2  0  0  0
  -24.8868  -28.9119   20.1081 C   0  0  0  0  0  0
  -22.7545  -29.4570   22.4883 C   0  0  0  0  0  0
  -18.0302  -28.1388   22.8480 C   0  0  0  0  0  0
  -24.1487  -36.7256   23.2640 C   0  0  0  0  0  0
  -25.9936  -30.7364   21.3886 C   0  0  0  0  0  0
  -26.0633  -29.3536   20.7267 C   0  0  0  0  0  0
  -27.2270  -28.5032   20.7292 C   0  0  0  0  0  0
  -26.0111  -26.8412   19.4694 C   0  0  0  0  0  0
  -24.8705  -27.6668   19.4663 C   0  0  0  0  0  0
  -23.6628  -29.8094   20.1554 C   0  0  0  0  0  0
  -25.4118  -36.3043   24.0321 C   0  0  1  0  0  0
  -20.5910  -28.3710   23.1245 C   0  0  2  0  0  0
  -20.6778  -26.9418   22.5405 C   0  0  0  0  0  0
  -19.5755  -26.6381   21.5208 C   0  0  0  0  0  0
  -18.1938  -26.7930   22.1624 C   0  0  0  0  0  0
  -19.1559  -28.8868   23.2858 C   0  0  0  0  0  0
  -18.9476  -30.1464   23.8885 C   0  0  0  0  0  0
  -17.6471  -30.6589   24.0554 C   0  0  0  0  0  0
  -25.9070  -34.9416   23.5082 C   0  0  0  0  0  0
  -16.5361  -29.9078   23.6330 C   0  0  0  0  0  0
  -16.7287  -28.6494   23.0355 C   0  0  0  0  0  0
  -26.4527  -31.6572   25.0734 C   0  0  0  0  0  0
  -25.3722  -31.3752   26.1438 C   0  0  0  0  0  0
  -27.0380  -30.2969   24.6281 C   0  0  0  0  0  0
  -27.6068  -32.4322   25.7512 C   0  0  0  0  0  0
  -27.5578  -37.1785   24.8471 C   0  0  0  0  0  0
  -21.4244  -29.3046   22.3626 N   0  0  0  0  0  0
  -26.4289  -37.3751   23.9415 N   0  0  0  0  0  0
  -24.7105  -31.0390   22.0966 N   0  0  0  0  0  0
  -23.4212  -28.8102   23.3005 O   0  0  0  0  0  0
  -28.2592  -26.2089   20.2203 O   0  0  0  0  0  0
  -26.5641  -34.8899   22.4649 O   0  0  0  0  0  0
  -23.5525  -32.1358   23.7196 O   0  0  0  0  0  0
  -29.3039  -18.2830   24.1496 C   0  0  0  0  0  0
  -29.5643  -16.9195   24.0833 C   0  0  0  0  0  0
  -29.2349  -19.0307   22.9693 C   0  0  0  0  0  0
  -29.7420  -16.3165   22.8358 C   0  0  0  0  0  0
  -29.4334  -18.5027   21.6572 C   0  0  0  0  0  0
  -29.6908  -17.0154   21.5942 C   0  0  0  0  0  0
  -28.6793  -22.0977   20.2271 C   0  0  0  0  0  0
  -28.8453  -23.4814   20.4551 C   0  0  0  0  0  0
  -29.5414  -20.9742   20.8001 C   0  0  0  0  0  0
  -27.9409  -24.7287   19.9580 C   0  0  0  0  0  0
  -29.2218  -19.6025   20.6396 N   0  0  0  0  0  0
  -29.8807  -16.0552   20.4690 N   0  0  0  0  0  0
  -30.5665  -21.2587   21.4245 O   0  0  0  0  0  0
  -31.4659  -12.6446   19.1772 H   0  0  0  0  0  0
  -30.3850  -11.5602   20.0040 H   0  0  0  0  0  0
  -29.8076  -11.7202   17.5551 H   0  0  0  0  0  0
  -29.6201  -13.4507   17.6968 H   0  0  0  0  0  0
  -27.9132  -11.2791   18.9463 H   0  0  0  0  0  0
  -27.3802  -12.4851   17.8062 H   0  0  0  0  0  0
  -27.6053  -14.2552   19.4299 H   0  0  0  0  0  0
  -28.7352  -12.2647   21.4539 H   0  0  0  0  0  0
  -28.3852  -13.9529   21.7488 H   0  0  0  0  0  0
  -25.2764   -9.5702   22.4762 H   0  0  0  0  0  0
  -23.9992   -7.4655   22.7487 H   0  0  0  0  0  0
  -21.0839   -8.8780   19.8959 H   0  0  0  0  0  0
  -22.3688  -10.9679   19.6161 H   0  0  0  0  0  0
  -21.2002   -7.6150   23.9701 H   0  0  0  0  0  0
  -21.1488   -6.0539   25.9075 H   0  0  0  0  0  0
  -22.0591   -2.7601   23.2863 H   0  0  0  0  0  0
  -22.4087  -11.9852   22.4810 H   0  0  0  0  0  0
  -21.1067  -13.1190   22.2632 H   0  0  0  0  0  0
  -24.6621  -15.8578   20.5533 H   0  0  0  0  0  0
  -26.2888  -15.6358   20.1469 H   0  0  0  0  0  0
  -26.7251  -32.5341   23.1039 H   0  0  0  0  0  0
  -25.0107  -33.9645   25.0376 H   0  0  0  0  0  0
  -22.7406  -31.2979   21.3919 H   0  0  0  0  0  0
  -23.3755  -35.9585   23.3299 H   0  0  0  0  0  0
  -24.3573  -36.8885   22.2057 H   0  0  0  0  0  0
  -23.7228  -37.6448   23.6667 H   0  0  0  0  0  0
  -26.1452  -31.4956   20.6202 H   0  0  0  0  0  0
  -26.8662  -30.7833   22.0284 H   0  0  0  0  0  0
  -28.1212  -28.8320   21.2401 H   0  0  0  0  0  0
  -25.9107  -25.8951   18.9590 H   0  0  0  0  0  0
  -23.9733  -27.3261   18.9684 H   0  0  0  0  0  0
  -23.7983  -30.5894   19.4052 H   0  0  0  0  0  0
  -22.7774  -29.2526   19.8431 H   0  0  0  0  0  0
  -25.1295  -36.1883   25.0812 H   0  0  0  0  0  0
  -21.0006  -28.3299   24.1366 H   0  0  0  0  0  0
  -20.5662  -26.2327   23.3621 H   0  0  0  0  0  0
  -21.6644  -26.7420   22.1209 H   0  0  0  0  0  0
  -19.6916  -25.6287   21.1250 H   0  0  0  0  0  0
  -19.6690  -27.3184   20.6730 H   0  0  0  0  0  0
  -17.4203  -26.6679   21.4030 H   0  0  0  0  0  0
  -18.0338  -26.0076   22.9026 H   0  0  0  0  0  0
  -19.7950  -30.7283   24.2252 H   0  0  0  0  0  0
  -17.5021  -31.6269   24.5158 H   0  0  0  0  0  0
  -15.5358  -30.2971   23.7662 H   0  0  0  0  0  0
  -15.8687  -28.0801   22.7081 H   0  0  0  0  0  0
  -24.5918  -30.7070   25.7776 H   0  0  0  0  0  0
  -24.8888  -32.2925   26.4803 H   0  0  0  0  0  0
  -25.8028  -30.8983   27.0252 H   0  0  0  0  0  0
  -26.2987  -29.6705   24.1273 H   0  0  0  0  0  0
  -27.3992  -29.7245   25.4838 H   0  0  0  0  0  0
  -27.8897  -30.4214   23.9588 H   0  0  0  0  0  0
  -27.2676  -33.3639   26.2048 H   0  0  0  0  0  0
  -28.3906  -32.6854   25.0361 H   0  0  0  0  0  0
  -28.0698  -31.8467   26.5465 H   0  0  0  0  0  0
  -28.2589  -38.0085   24.7503 H   0  0  0  0  0  0
  -28.1073  -36.2611   24.6308 H   0  0  0  0  0  0
  -27.2292  -37.1446   25.8873 H   0  0  0  0  0  0
  -20.9452  -29.8770   21.6816 H   0  0  0  0  0  0
  -26.0159  -38.2821   24.1418 H   0  0  0  0  0  0
  -29.1400  -18.7607   25.1059 H   0  0  0  0  0  0
  -29.6113  -16.3272   24.9870 H   0  0  0  0  0  0
  -28.9889  -20.0702   23.1265 H   0  0  0  0  0  0
  -29.9125  -15.2520   22.8819 H   0  0  0  0  0  0
  -27.8482  -21.7995   19.6050 H   0  0  0  0  0  0
  -29.6797  -23.7791   21.0744 H   0  0  0  0  0  0
  -26.9669  -24.5265   20.4039 H   0  0  0  0  0  0
  -27.8076  -24.6051   18.8826 H   0  0  0  0  0  0
  -28.5712  -19.3809   19.8980 H   0  0  0  0  0  0
  -29.9552  -16.5361   19.5842 H   0  0  0  0  0  0
  1 25  1  0  0  0
  1 30  2  0  0  0
  1 82  1  0  0  0
  2  3  1  0  0  0
  2 25  1  0  0  0
  2 84  1  0  0  0
  2 85  1  0  0  0
  3  4  1  0  0  0
  3 86  1  0  0  0
  3 87  1  0  0  0
  4  5  1  0  0  0
  4 88  1  0  0  0
  4 89  1  0  0  0
  5  6  1  0  0  0
  5 26  1  0  0  0
  5 90  1  0  0  0
  6 25  1  0  0  0
  6 91  1  0  0  0
  6 92  1  0  0  0
  7  8  2  0  0  0
  7 26  1  0  0  0
  7 29  1  0  0  0
  8  9  1  0  0  0
  8 22  1  0  0  0
  9 10  1  0  0  0
  9 27  2  0  0  0
 10 11  2  0  0  0
 10 15  1  0  0  0
 11 12  1  0  0  0
 11 93  1  0  0  0
 12 13  2  0  0  0
 12 94  1  0  0  0
 13 14  1  0  0  0
 13 31  1  0  0  0
 14 15  2  0  0  0
 14 95  1  0  0  0
 15 96  1  0  0  0
 16 17  2  0  0  0
 16 21  1  0  0  0
 16 31  1  0  0  0
 17 18  1  0  0  0
 17 97  1  0  0  0
 18 19  2  0  0  0
 18 98  1  0  0  0
 19 20  1  0  0  0
 19 24  1  0  0  0
 20 21  2  0  0  0
 20 99  1  0  0  0
 21 23  1  0  0  0
 22 28  1  0  0  0
 22 32  2  0  0  0
 26 27  1  0  0  0
 28100  1  0  0  0
 28101  1  0  0  0
 29102  1  0  0  0
 29103  1  0  0  0
 33 34  1  0  0  0
 33 66  1  0  0  0
 33 70  2  0  0  0
 34 36  1  0  0  0
 34 59  1  0  0  0
 34104  1  0  0  0
 35 44  2  0  0  0
 35 45  1  0  0  0
 35 68  1  0  0  0
 36 56  1  0  0  0
 36105  1  0  0  0
 37 39  1  0  0  0
 37 47  1  0  0  0
 37 66  1  0  0  0
 37106  1  0  0  0
 38 43  2  0  0  0
 38 46  1  0  0  0
 38 47  1  0  0  0
 39 64  1  0  0  0
 39 67  2  0  0  0
 40 52  1  0  0  0
 40 53  2  0  0  0
 40 58  1  0  0  0
 41107  1  0  0  0
 41108  1  0  0  0
 41109  1  0  0  0
 41 48  1  0  0  0
 42 43  1  0  0  0
 42 66  1  0  0  0
 42110  1  0  0  0
 42111  1  0  0  0
 43 44  1  0  0  0
 44112  1  0  0  0
 45 46  2  0  0  0
 45113  1  0  0  0
 46114  1  0  0  0
 47115  1  0  0  0
 47116  1  0  0  0
 48 56  1  0  0  0
 48 65  1  0  0  0
 48117  1  0  0  0
 49 50  1  0  0  0
 49 53  1  0  0  0
 49 64  1  0  0  0
 49118  1  0  0  0
 50 51  1  0  0  0
 50119  1  0  0  0
 50120  1  0  0  0
 51 52  1  0  0  0
 51121  1  0  0  0
 51122  1  0  0  0
 52123  1  0  0  0
 52124  1  0  0  0
 53 54  1  0  0  0
 54 55  2  0  0  0
 54125  1  0  0  0
 55 57  1  0  0  0
 55126  1  0  0  0
 56 69  2  0  0  0
 57 58  2  0  0  0
 57127  1  0  0  0
 58128  1  0  0  0
 59 60  1  0  0  0
 59 61  1  0  0  0
 59 62  1  0  0  0
 60129  1  0  0  0
 60130  1  0  0  0
 60131  1  0  0  0
 61132  1  0  0  0
 61133  1  0  0  0
 61134  1  0  0  0
 62135  1  0  0  0
 62136  1  0  0  0
 62137  1  0  0  0
 63 65  1  0  0  0
 63138  1  0  0  0
 63139  1  0  0  0
 63140  1  0  0  0
 64141  1  0  0  0
 65142  1  0  0  0
 68 80  1  0  0  0
 71 72  2  0  0  0
 71 73  1  0  0  0
 71143  1  0  0  0
 72 74  1  0  0  0
 72144  1  0  0  0
 73 75  2  0  0  0
 73145  1  0  0  0
 74 76  2  0  0  0
 74146  1  0  0  0
 75 76  1  0  0  0
 75 81  1  0  0  0
 76 82  1  0  0  0
 77 78  2  0  0  0
 77 79  1  0  0  0
 77147  1  0  0  0
 78 80  1  0  0  0
 78148  1  0  0  0
 79 81  1  0  0  0
 79 83  2  0  0  0
 80149  1  0  0  0
 80150  1  0  0  0
 81151  1  0  0  0
 82152  1  0  0  0
M  ISO  4   1 100  68 101  80 101  82 100
M  END
> <chiral flag>
0

> <version>
0

> <s_m_source_file>
/data/baiqing/PycharmProjects/Reinvent-master-3.2/result/LINK_invent/BTK/process_docking_weight1_custom_product_contain_oxygen_bond_distance_aromatic_linkinvent_7_9_3/rearranged_h_0062.sdf

> <i_m_source_file_index>
80

> <r_mmod_Potential_Energy-OPLS-2005>
350.235443115234

> <r_mmod_Stretch_Energy-OPLS-2005>
197.495101928711

> <r_mmod_Bend_Energy-OPLS-2005>
244.636306762695

> <r_mmod_Torsional_Energy-OPLS-2005>
304.203186035156

> <r_mmod_Improper_Torsional_Energy-OPLS-2005>
13.0404367446899

> <r_mmod_Van_der_Waal_Energy-OPLS-2005>
155.948501586914

> <r_mmod_Electrostatic_Energy-OPLS-2005>
-470.217590332031

> <r_mmod_Solvation_Energy-OPLS-2005>
-236.251647949219

> <b_mmod_Minimization_Converged-OPLS-2005>
0

> <r_mmod_RMS_Derivative-OPLS-2005>
1.1034414768219

$$$$
80
                    3D
 Structure written by MMmdl.
179188  0  0  1  0            999 V2000
  -30.6814  -14.5324   20.5774 C   0  0  0  0  0  0
  -30.4239  -12.3513   19.4281 C   0  0  0  0  0  0
  -29.4879  -12.4966   18.2099 C   0  0  0  0  0  0
  -28.0119  -12.3406   18.6301 C   0  0  0  0  0  0
  -27.6538  -13.2041   19.8694 C   0  0  2  0  0  0
  -28.6981  -13.0215   20.9921 C   0  0  0  0  0  0
  -25.2561  -13.8164   20.5701 C   0  0  0  0  0  0
  -24.1804  -13.0448   20.9208 C   0  0  0  0  0  0
  -24.6344  -11.6916   20.8735 C   0  0  0  0  0  0
  -23.9015  -10.4303   21.0401 C   0  0  0  0  0  0
  -24.3586   -9.4243   21.9171 C   0  0  0  0  0  0
  -23.6294   -8.2255   22.0747 C   0  0  0  0  0  0
  -22.4266   -8.0280   21.3554 C   0  0  0  0  0  0
  -21.9899   -9.0230   20.4633 C   0  0  0  0  0  0
  -22.7191  -10.2122   20.3041 C   0  0  0  0  0  0
  -21.6838   -6.0738   22.5299 C   0  0  0  0  0  0
  -21.3998   -6.5618   23.8229 C   0  0  0  0  0  0
  -21.3667   -5.6775   24.9190 C   0  0  0  0  0  0
  -21.6054   -4.3048   24.7249 C   0  0  0  0  0  0
  -21.8810   -3.8147   23.4358 C   0  0  0  0  0  0
  -21.9194   -4.6968   22.3420 C   0  0  0  0  0  0
  -22.7823  -13.5233   21.1861 C   0  0  0  0  0  0
  -22.1646   -4.2131   21.1003 F   0  0  0  0  0  0
  -21.5652   -3.4534   25.7770 F   0  0  0  0  0  0
  -30.0164  -13.3495   20.4300 N   0  0  0  0  0  0
  -26.2980  -12.9320   20.3387 N   0  0  0  0  0  0
  -25.9285  -11.6484   20.5831 N   0  0  0  0  0  0
  -22.0417  -12.8243   22.0405 N   0  0  0  0  0  0
  -25.4321  -15.1871   20.4066 N   0  0  0  0  0  0
  -31.8103  -14.7091   20.1127 O   0  0  0  0  0  0
  -21.6658   -6.8865   21.4244 O   0  0  0  0  0  0
  -22.3532  -14.5555   20.6717 O   0  0  0  0  0  0
  -24.6181  -31.8684   23.2083 C   0  0  0  0  0  0
  -25.9068  -32.4812   23.8381 C   0  0  1  0  0  0
  -27.2203  -27.3912   20.0896 C   0  0  0  0  0  0
  -25.5918  -33.8614   24.2313 N   0  0  0  0  0  0
  -23.4056  -30.4952   21.5482 C   0  0  2  0  0  0
  -24.8488  -28.9583   20.1104 C   0  0  0  0  0  0
  -22.7422  -29.4690   22.4961 C   0  0  0  0  0  0
  -18.0266  -28.1388   22.8468 C   0  0  0  0  0  0
  -24.1476  -36.7285   23.2631 C   0  0  0  0  0  0
  -25.9418  -30.8130   21.3742 C   0  0  0  0  0  0
  -26.0113  -29.4445   20.7223 C   0  0  0  0  0  0
  -27.1934  -28.6611   20.7266 C   0  0  0  0  0  0
  -26.0416  -26.9469   19.4594 C   0  0  0  0  0  0
  -24.8603  -27.7069   19.4796 C   0  0  0  0  0  0
  -23.6142  -29.8299   20.1615 C   0  0  0  0  0  0
  -25.4102  -36.3103   24.0336 C   0  0  1  0  0  0
  -20.5865  -28.3687   23.1290 C   0  0  2  0  0  0
  -20.6754  -26.9419   22.5416 C   0  0  0  0  0  0
  -19.5747  -26.6393   21.5206 C   0  0  0  0  0  0
  -18.1914  -26.7938   22.1595 C   0  0  0  0  0  0
  -19.1521  -28.8850   23.2880 C   0  0  0  0  0  0
  -18.9453  -30.1446   23.8908 C   0  0  0  0  0  0
  -17.6461  -30.6586   24.0571 C   0  0  0  0  0  0
  -25.9041  -34.9476   23.5123 C   0  0  0  0  0  0
  -16.5349  -29.9095   23.6338 C   0  0  0  0  0  0
  -16.7257  -28.6519   23.0341 C   0  0  0  0  0  0
  -26.4477  -31.6606   25.0732 C   0  0  0  0  0  0
  -25.3703  -31.3731   26.1450 C   0  0  0  0  0  0
  -27.0314  -30.3023   24.6185 C   0  0  0  0  0  0
  -27.6062  -32.4318   25.7488 C   0  0  0  0  0  0
  -27.5584  -37.1801   24.8450 C   0  0  0  0  0  0
  -21.4152  -29.3050   22.3688 N   0  0  0  0  0  0
  -26.4275  -37.3804   23.9423 N   0  0  0  0  0  0
  -24.6733  -31.0754   22.0995 N   0  0  0  0  0  0
  -23.4185  -28.8223   23.3010 O   0  0  0  0  0  0
  -28.3642  -26.6049   20.1383 O   0  0  0  0  0  0
  -26.5614  -34.8939   22.4686 O   0  0  0  0  0  0
  -23.5369  -32.1463   23.7442 O   0  0  0  0  0  0
  -31.8730  -18.3670   22.7751 C   0  0  0  0  0  0
  -29.6725  -18.0280   21.1067 C   0  0  0  0  0  0
  -31.1408  -19.5044   22.3796 C   0  0  0  0  0  0
  -31.5188  -17.0657   22.3780 C   0  0  0  0  0  0
  -30.0174  -19.3555   21.5152 C   0  0  0  0  0  0
  -30.4144  -16.8717   21.5077 C   0  0  0  0  0  0
  -29.4601  -23.1779   18.7237 C   0  0  0  0  0  0
  -30.1251  -22.2160   19.4261 C   0  0  0  0  0  0
  -28.0235  -23.6512   20.7909 C   0  0  0  0  0  0
  -29.2201  -23.0455   21.5531 C   0  0  0  0  0  0
  -28.3093  -24.0508   19.3104 C   0  0  2  0  0  0
  -31.6006  -20.8378   22.9479 C   0  0  0  0  0  0
  -32.3321  -15.9175   22.9628 C   0  0  0  0  0  0
  -31.3037  -21.3696   18.9615 C   0  0  0  0  0  0
  -27.0426  -23.6745   18.5029 C   0  0  0  0  0  0
  -29.2859  -22.3430   16.3118 C   0  0  0  0  0  0
  -29.1155  -20.5601   21.0910 C   0  0  0  0  0  0
  -29.8048  -23.4432   17.2549 C   0  0  0  0  0  0
  -28.6370  -25.6046   19.1227 C   0  0  0  0  0  0
  -29.9697  -15.5520   21.1283 N   0  0  0  0  0  0
  -29.8030  -21.8746   20.8448 N   0  3  1  0  0  0
  -31.4643  -12.4654   19.1213 H   0  0  0  0  0  0
  -30.3492  -11.3497   19.8497 H   0  0  0  0  0  0
  -29.7474  -11.7526   17.4548 H   0  0  0  0  0  0
  -29.6343  -13.4695   17.7401 H   0  0  0  0  0  0
  -27.8433  -11.2888   18.8562 H   0  0  0  0  0  0
  -27.3492  -12.5744   17.7971 H   0  0  0  0  0  0
  -27.6888  -14.2442   19.5478 H   0  0  0  0  0  0
  -28.7014  -11.9906   21.3490 H   0  0  0  0  0  0
  -28.4528  -13.6296   21.8629 H   0  0  0  0  0  0
  -25.2699   -9.5757   22.4775 H   0  0  0  0  0  0
  -24.0014   -7.4648   22.7470 H   0  0  0  0  0  0
  -21.0831   -8.8712   19.8924 H   0  0  0  0  0  0
  -22.3613  -10.9659   19.6171 H   0  0  0  0  0  0
  -21.1963   -7.6124   23.9735 H   0  0  0  0  0  0
  -21.1492   -6.0499   25.9089 H   0  0  0  0  0  0
  -22.0592   -2.7609   23.2871 H   0  0  0  0  0  0
  -22.3929  -11.9850   22.4761 H   0  0  0  0  0  0
  -21.1022  -13.1295   22.2567 H   0  0  0  0  0  0
  -24.6685  -15.8456   20.5203 H   0  0  0  0  0  0
  -26.2879  -15.6250   20.0876 H   0  0  0  0  0  0
  -26.7146  -32.5505   23.1144 H   0  0  0  0  0  0
  -25.0088  -33.9787   25.0471 H   0  0  0  0  0  0
  -22.6955  -31.3133   21.4069 H   0  0  0  0  0  0
  -23.3781  -35.9572   23.3255 H   0  0  0  0  0  0
  -24.3588  -36.8938   22.2057 H   0  0  0  0  0  0
  -23.7167  -37.6449   23.6672 H   0  0  0  0  0  0
  -26.0701  -31.5784   20.6060 H   0  0  0  0  0  0
  -26.8244  -30.8594   22.0019 H   0  0  0  0  0  0
  -28.0803  -29.0238   21.2265 H   0  0  0  0  0  0
  -26.0045  -26.0065   18.9480 H   0  0  0  0  0  0
  -23.9704  -27.3267   18.9979 H   0  0  0  0  0  0
  -23.7168  -30.6030   19.3980 H   0  0  0  0  0  0
  -22.7377  -29.2467   19.8715 H   0  0  0  0  0  0
  -25.1281  -36.1958   25.0829 H   0  0  0  0  0  0
  -20.9968  -28.3261   24.1409 H   0  0  0  0  0  0
  -20.5611  -26.2330   23.3622 H   0  0  0  0  0  0
  -21.6628  -26.7426   22.1242 H   0  0  0  0  0  0
  -19.6915  -25.6300   21.1239 H   0  0  0  0  0  0
  -19.6704  -27.3205   20.6738 H   0  0  0  0  0  0
  -17.4210  -26.6703   21.3970 H   0  0  0  0  0  0
  -18.0284  -26.0061   22.8969 H   0  0  0  0  0  0
  -19.7939  -30.7240   24.2287 H   0  0  0  0  0  0
  -17.5029  -31.6274   24.5163 H   0  0  0  0  0  0
  -15.5348  -30.3011   23.7659 H   0  0  0  0  0  0
  -15.8650  -28.0848   22.7057 H   0  0  0  0  0  0
  -24.5948  -30.6999   25.7788 H   0  0  0  0  0  0
  -24.8802  -32.2878   26.4797 H   0  0  0  0  0  0
  -25.8021  -30.8996   27.0271 H   0  0  0  0  0  0
  -26.2898  -29.6779   24.1193 H   0  0  0  0  0  0
  -27.3988  -29.7286   25.4704 H   0  0  0  0  0  0
  -27.8781  -30.4311   23.9433 H   0  0  0  0  0  0
  -27.2728  -33.3662   26.2023 H   0  0  0  0  0  0
  -28.3895  -32.6792   25.0305 H   0  0  0  0  0  0
  -28.0702  -31.8448   26.5427 H   0  0  0  0  0  0
  -28.2579  -38.0127   24.7558 H   0  0  0  0  0  0
  -28.1107  -36.2668   24.6183 H   0  0  0  0  0  0
  -27.2329  -37.1327   25.8859 H   0  0  0  0  0  0
  -20.9311  -29.8809   21.6939 H   0  0  0  0  0  0
  -26.0160  -38.2876   24.1456 H   0  0  0  0  0  0
  -32.7240  -18.4927   23.4329 H   0  0  0  0  0  0
  -28.8017  -17.8837   20.4821 H   0  0  0  0  0  0
  -27.6221  -24.4990   21.3457 H   0  0  0  0  0  0
  -27.2235  -22.9102   20.8244 H   0  0  0  0  0  0
  -28.9347  -22.7924   22.5750 H   0  0  0  0  0  0
  -30.0036  -23.8007   21.6377 H   0  0  0  0  0  0
  -32.2873  -20.6946   23.7856 H   0  0  0  0  0  0
  -30.7646  -21.4139   23.3412 H   0  0  0  0  0  0
  -32.1375  -21.4186   22.1972 H   0  0  0  0  0  0
  -33.1791  -15.6932   22.3149 H   0  0  0  0  0  0
  -31.7384  -15.0132   23.0991 H   0  0  0  0  0  0
  -32.7273  -16.1836   23.9448 H   0  0  0  0  0  0
  -31.6022  -21.5852   17.9369 H   0  0  0  0  0  0
  -31.0623  -20.3083   19.0099 H   0  0  0  0  0  0
  -32.1795  -21.5499   19.5869 H   0  0  0  0  0  0
  -26.9611  -22.5939   18.3822 H   0  0  0  0  0  0
  -27.0511  -24.1064   17.5018 H   0  0  0  0  0  0
  -26.1209  -23.9739   18.9959 H   0  0  0  0  0  0
  -29.5511  -22.5668   15.2788 H   0  0  0  0  0  0
  -28.2014  -22.2454   16.3560 H   0  0  0  0  0  0
  -29.7107  -21.3694   16.5545 H   0  0  0  0  0  0
  -28.3600  -20.6796   21.8676 H   0  0  0  0  0  0
  -28.5544  -20.2981   20.1946 H   0  0  0  0  0  0
  -30.8859  -23.5448   17.1437 H   0  0  0  0  0  0
  -29.4042  -24.4000   16.9250 H   0  0  0  0  0  0
  -28.2448  -25.9627   18.1701 H   0  0  0  0  0  0
  -29.7153  -25.6959   18.9954 H   0  0  0  0  0  0
  -28.9931  -15.3521   21.2885 H   0  0  0  0  0  0
  -30.6785  -21.7281   21.3263 H   0  0  0  0  0  0
  1 25  1  0  0  0
  1 30  2  0  0  0
  1 90  1  0  0  0
  2  3  1  0  0  0
  2 25  1  0  0  0
  2 92  1  0  0  0
  2 93  1  0  0  0
  3  4  1  0  0  0
  3 94  1  0  0  0
  3 95  1  0  0  0
  4  5  1  0  0  0
  4 96  1  0  0  0
  4 97  1  0  0  0
  5  6  1  0  0  0
  5 26  1  0  0  0
  5 98  1  0  0  0
  6 25  1  0  0  0
  6 99  1  0  0  0
  6100  1  0  0  0
  7  8  2  0  0  0
  7 26  1  0  0  0
  7 29  1  0  0  0
  8  9  1  0  0  0
  8 22  1  0  0  0
  9 10  1  0  0  0
  9 27  2  0  0  0
 10 11  2  0  0  0
 10 15  1  0  0  0
 11 12  1  0  0  0
 11101  1  0  0  0
 12 13  2  0  0  0
 12102  1  0  0  0
 13 14  1  0  0  0
 13 31  1  0  0  0
 14 15  2  0  0  0
 14103  1  0  0  0
 15104  1  0  0  0
 16 17  2  0  0  0
 16 21  1  0  0  0
 16 31  1  0  0  0
 17 18  1  0  0  0
 17105  1  0  0  0
 18 19  2  0  0  0
 18106  1  0  0  0
 19 20  1  0  0  0
 19 24  1  0  0  0
 20 21  2  0  0  0
 20107  1  0  0  0
 21 23  1  0  0  0
 22 28  1  0  0  0
 22 32  2  0  0  0
 26 27  1  0  0  0
 28108  1  0  0  0
 28109  1  0  0  0
 29110  1  0  0  0
 29111  1  0  0  0
 33 34  1  0  0  0
 33 66  1  0  0  0
 33 70  2  0  0  0
 34 36  1  0  0  0
 34 59  1  0  0  0
 34112  1  0  0  0
 35 44  2  0  0  0
 35 45  1  0  0  0
 35 68  1  0  0  0
 36 56  1  0  0  0
 36113  1  0  0  0
 37 39  1  0  0  0
 37 47  1  0  0  0
 37 66  1  0  0  0
 37114  1  0  0  0
 38 43  2  0  0  0
 38 46  1  0  0  0
 38 47  1  0  0  0
 39 64  1  0  0  0
 39 67  2  0  0  0
 40 52  1  0  0  0
 40 53  2  0  0  0
 40 58  1  0  0  0
 41115  1  0  0  0
 41116  1  0  0  0
 41117  1  0  0  0
 41 48  1  0  0  0
 42 43  1  0  0  0
 42 66  1  0  0  0
 42118  1  0  0  0
 42119  1  0  0  0
 43 44  1  0  0  0
 44120  1  0  0  0
 45 46  2  0  0  0
 45121  1  0  0  0
 46122  1  0  0  0
 47123  1  0  0  0
 47124  1  0  0  0
 48 56  1  0  0  0
 48 65  1  0  0  0
 48125  1  0  0  0
 49 50  1  0  0  0
 49 53  1  0  0  0
 49 64  1  0  0  0
 49126  1  0  0  0
 50 51  1  0  0  0
 50127  1  0  0  0
 50128  1  0  0  0
 51 52  1  0  0  0
 51129  1  0  0  0
 51130  1  0  0  0
 52131  1  0  0  0
 52132  1  0  0  0
 53 54  1  0  0  0
 54 55  2  0  0  0
 54133  1  0  0  0
 55 57  1  0  0  0
 55134  1  0  0  0
 56 69  2  0  0  0
 57 58  2  0  0  0
 57135  1  0  0  0
 58136  1  0  0  0
 59 60  1  0  0  0
 59 61  1  0  0  0
 59 62  1  0  0  0
 60137  1  0  0  0
 60138  1  0  0  0
 60139  1  0  0  0
 61140  1  0  0  0
 61141  1  0  0  0
 61142  1  0  0  0
 62143  1  0  0  0
 62144  1  0  0  0
 62145  1  0  0  0
 63 65  1  0  0  0
 63146  1  0  0  0
 63147  1  0  0  0
 63148  1  0  0  0
 64149  1  0  0  0
 65150  1  0  0  0
 68 89  1  0  0  0
 71 73  2  0  0  0
 71 74  1  0  0  0
 71151  1  0  0  0
 72 75  2  0  0  0
 72 76  1  0  0  0
 72152  1  0  0  0
 73 75  1  0  0  0
 73 82  1  0  0  0
 74 76  2  0  0  0
 74 83  1  0  0  0
 75 87  1  0  0  0
 76 90  1  0  0  0
 77 78  2  0  0  0
 77 81  1  0  0  0
 77 88  1  0  0  0
 78 84  1  0  0  0
 78 91  1  0  0  0
 79 80  1  0  0  0
 79 81  1  0  0  0
 79153  1  0  0  0
 79154  1  0  0  0
 80 91  1  0  0  0
 80155  1  0  0  0
 80156  1  0  0  0
 81 85  1  0  0  0
 81 89  1  0  0  0
 82157  1  0  0  0
 82158  1  0  0  0
 82159  1  0  0  0
 83160  1  0  0  0
 83161  1  0  0  0
 83162  1  0  0  0
 84163  1  0  0  0
 84164  1  0  0  0
 84165  1  0  0  0
 85166  1  0  0  0
 85167  1  0  0  0
 85168  1  0  0  0
 86 88  1  0  0  0
 86169  1  0  0  0
 86170  1  0  0  0
 86171  1  0  0  0
 87172  1  0  0  0
 87173  1  0  0  0
 87 91  1  0  0  0
 88174  1  0  0  0
 88175  1  0  0  0
 89176  1  0  0  0
 89177  1  0  0  0
 90178  1  0  0  0
 91179  1  0  0  0
M  CHG  1  91   1
M  ISO  4   1 100  68 101  89 101  90 100
M  END
> <chiral flag>
0

> <version>
0

> <s_m_source_file>
/data/baiqing/PycharmProjects/Reinvent-master-3.2/result/LINK_invent/BTK/process_docking_weight1_custom_product_contain_oxygen_bond_distance_aromatic_linkinvent_7_9_3/rearranged_h_0062.sdf

> <i_m_source_file_index>
81

> <r_mmod_Potential_Energy-OPLS-2005>
-41.5292549133301

> <r_mmod_Stretch_Energy-OPLS-2005>
62.9051704406738

> <r_mmod_Bend_Energy-OPLS-2005>
149.844299316406

> <r_mmod_Torsional_Energy-OPLS-2005>
275.109497070312

> <r_mmod_Improper_Torsional_Energy-OPLS-2005>
3.77484130859375

> <r_mmod_Van_der_Waal_Energy-OPLS-2005>
168.575149536133

> <r_mmod_Electrostatic_Energy-OPLS-2005>
-306.777465820312

> <r_mmod_Solvation_Energy-OPLS-2005>
-417.894287109375

> <b_mmod_Minimization_Converged-OPLS-2005>
0

> <r_mmod_RMS_Derivative-OPLS-2005>
4.16898822784424

$$$$
81
                    3D
 Structure written by MMmdl.
177185  0  0  1  0            999 V2000
  -30.7394  -14.4904   20.5024 C   0  0  0  0  0  0
  -30.4020  -12.3062   19.4427 C   0  0  0  0  0  0
  -29.4939  -12.4858   18.2116 C   0  0  0  0  0  0
  -28.0139  -12.3517   18.6159 C   0  0  0  0  0  0
  -27.6439  -13.2233   19.8465 C   0  0  2  0  0  0
  -28.6841  -13.0853   20.9807 C   0  0  0  0  0  0
  -25.2507  -13.8190   20.5691 C   0  0  0  0  0  0
  -24.1770  -13.0442   20.9159 C   0  0  0  0  0  0
  -24.6343  -11.6920   20.8682 C   0  0  0  0  0  0
  -23.9028  -10.4292   21.0361 C   0  0  0  0  0  0
  -24.3580   -9.4216   21.9153 C   0  0  0  0  0  0
  -23.6267   -8.2243   22.0734 C   0  0  0  0  0  0
  -22.4246   -8.0259   21.3531 C   0  0  0  0  0  0
  -21.9867   -9.0225   20.4635 C   0  0  0  0  0  0
  -22.7186  -10.2115   20.3037 C   0  0  0  0  0  0
  -21.6851   -6.0719   22.5277 C   0  0  0  0  0  0
  -21.4008   -6.5615   23.8205 C   0  0  0  0  0  0
  -21.3669   -5.6774   24.9167 C   0  0  0  0  0  0
  -21.6039   -4.3032   24.7218 C   0  0  0  0  0  0
  -21.8816   -3.8129   23.4331 C   0  0  0  0  0  0
  -21.9199   -4.6953   22.3394 C   0  0  0  0  0  0
  -22.7814  -13.5239   21.1830 C   0  0  0  0  0  0
  -22.1666   -4.2153   21.0970 F   0  0  0  0  0  0
  -21.5628   -3.4505   25.7717 F   0  0  0  0  0  0
  -30.0166  -13.3415   20.4181 N   0  0  0  0  0  0
  -26.2917  -12.9391   20.3210 N   0  0  0  0  0  0
  -25.9253  -11.6539   20.5656 N   0  0  0  0  0  0
  -22.0428  -12.8273   22.0400 N   0  0  0  0  0  0
  -25.4192  -15.1915   20.4161 N   0  0  0  0  0  0
  -31.9357  -14.5067   20.2203 O   0  0  0  0  0  0
  -21.6614   -6.8851   21.4239 O   0  0  0  0  0  0
  -22.3523  -14.5560   20.6683 O   0  0  0  0  0  0
  -24.6142  -31.8687   23.2110 C   0  0  0  0  0  0
  -25.9052  -32.4812   23.8399 C   0  0  1  0  0  0
  -27.2304  -27.4182   20.1156 C   0  0  0  0  0  0
  -25.5990  -33.8609   24.2376 N   0  0  0  0  0  0
  -23.4021  -30.4919   21.5482 C   0  0  2  0  0  0
  -24.8523  -28.9563   20.1170 C   0  0  0  0  0  0
  -22.7415  -29.4632   22.4954 C   0  0  0  0  0  0
  -18.0279  -28.1337   22.8467 C   0  0  0  0  0  0
  -24.1497  -36.7271   23.2623 C   0  0  0  0  0  0
  -25.9322  -30.8239   21.3720 C   0  0  0  0  0  0
  -26.0104  -29.4545   20.7273 C   0  0  0  0  0  0
  -27.2017  -28.6908   20.7299 C   0  0  0  0  0  0
  -26.0656  -26.9469   19.4788 C   0  0  0  0  0  0
  -24.8776  -27.6991   19.4886 C   0  0  0  0  0  0
  -23.6144  -29.8233   20.1624 C   0  0  0  0  0  0
  -25.4120  -36.3090   24.0338 C   0  0  1  0  0  0
  -20.5874  -28.3618   23.1296 C   0  0  2  0  0  0
  -20.6757  -26.9348   22.5403 C   0  0  0  0  0  0
  -19.5747  -26.6343   21.5181 C   0  0  0  0  0  0
  -18.1927  -26.7887   22.1590 C   0  0  0  0  0  0
  -19.1528  -28.8799   23.2875 C   0  0  0  0  0  0
  -18.9457  -30.1415   23.8870 C   0  0  0  0  0  0
  -17.6457  -30.6544   24.0539 C   0  0  0  0  0  0
  -25.9044  -34.9462   23.5146 C   0  0  0  0  0  0
  -16.5349  -29.9045   23.6317 C   0  0  0  0  0  0
  -16.7269  -28.6473   23.0322 C   0  0  0  0  0  0
  -26.4524  -31.6557   25.0707 C   0  0  0  0  0  0
  -25.3795  -31.3692   26.1477 C   0  0  0  0  0  0
  -27.0326  -30.2988   24.6053 C   0  0  0  0  0  0
  -27.6114  -32.4253   25.7470 C   0  0  0  0  0  0
  -27.5590  -37.1794   24.8465 C   0  0  0  0  0  0
  -21.4140  -29.3003   22.3708 N   0  0  0  0  0  0
  -26.4294  -37.3792   23.9420 N   0  0  0  0  0  0
  -24.6666  -31.0775   22.1001 N   0  0  0  0  0  0
  -23.4200  -28.8140   23.2944 O   0  0  0  0  0  0
  -28.3757  -26.6539   20.0970 O   0  0  0  0  0  0
  -26.5541  -34.8901   22.4660 O   0  0  0  0  0  0
  -23.5338  -32.1451   23.7507 O   0  0  0  0  0  0
  -29.8931  -18.1341   20.9154 C   0  0  0  0  0  0
  -31.5167  -17.2005   19.3861 C   0  0  0  0  0  0
  -30.3071  -19.4519   20.5668 C   0  0  0  0  0  0
  -31.3957  -19.6342   19.6564 C   0  0  0  0  0  0
  -30.4887  -16.9822   20.3362 C   0  0  0  0  0  0
  -32.0168  -18.4851   19.0932 C   0  0  0  0  0  0
  -32.3738  -16.9964   15.2108 C   0  0  0  0  0  0
  -32.2557  -17.7075   16.3497 C   0  0  0  0  0  0
  -29.6944  -20.6271   21.2977 C   0  0  0  0  0  0
  -33.4448  -18.1393   17.0794 C   0  0  0  0  0  0
  -31.9275  -21.0355   19.3191 C   0  0  0  0  0  0
  -28.6368  -23.0598   17.7455 C   0  0  0  0  0  0
  -26.8682  -23.5124   20.1602 C   0  0  0  0  0  0
  -34.4167  -19.0124   19.1251 C   0  0  0  0  0  0
  -28.8746  -24.2121   18.7377 C   0  0  0  0  0  0
  -29.1751  -23.0453   21.0313 C   0  0  0  0  0  0
  -28.3666  -25.4571   20.9093 C   0  0  0  0  0  0
  -28.3199  -24.0499   20.1855 C   0  0  2  0  0  0
  -30.0569  -15.6499   20.7049 N   0  0  0  0  0  0
  -29.2528  -21.6554   20.5506 N   0  0  0  0  0  0
  -33.2432  -18.5654   18.3588 N   0  0  0  0  0  0
  -29.6828  -20.6447   22.5303 O   0  0  0  0  0  0
  -34.5758  -18.1129   16.5788 O   0  0  0  0  0  0
  -31.4502  -12.3640   19.1460 H   0  0  0  0  0  0
  -30.2700  -11.3144   19.8768 H   0  0  0  0  0  0
  -29.7397  -11.7502   17.4441 H   0  0  0  0  0  0
  -29.6671  -13.4656   17.7645 H   0  0  0  0  0  0
  -27.8225  -11.3008   18.8390 H   0  0  0  0  0  0
  -27.3767  -12.6053   17.7679 H   0  0  0  0  0  0
  -27.6635  -14.2556   19.4982 H   0  0  0  0  0  0
  -28.6480  -12.0816   21.4072 H   0  0  0  0  0  0
  -28.4520  -13.7730   21.7957 H   0  0  0  0  0  0
  -25.2703   -9.5714   22.4752 H   0  0  0  0  0  0
  -23.9969   -7.4641   22.7449 H   0  0  0  0  0  0
  -21.0798   -8.8726   19.8952 H   0  0  0  0  0  0
  -22.3594  -10.9647   19.6167 H   0  0  0  0  0  0
  -21.1995   -7.6118   23.9721 H   0  0  0  0  0  0
  -21.1501   -6.0482   25.9075 H   0  0  0  0  0  0
  -22.0600   -2.7595   23.2825 H   0  0  0  0  0  0
  -22.3977  -11.9942   22.4871 H   0  0  0  0  0  0
  -21.1071  -13.1385   22.2557 H   0  0  0  0  0  0
  -24.6494  -15.8433   20.5141 H   0  0  0  0  0  0
  -26.2699  -15.6348   20.0963 H   0  0  0  0  0  0
  -26.7103  -32.5548   23.1132 H   0  0  0  0  0  0
  -25.0378  -33.9785   25.0694 H   0  0  0  0  0  0
  -22.6874  -31.3065   21.4078 H   0  0  0  0  0  0
  -23.3777  -35.9581   23.3281 H   0  0  0  0  0  0
  -24.3592  -36.8879   22.2032 H   0  0  0  0  0  0
  -23.7213  -37.6471   23.6618 H   0  0  0  0  0  0
  -26.0505  -31.5775   20.5918 H   0  0  0  0  0  0
  -26.8198  -30.8817   21.9909 H   0  0  0  0  0  0
  -28.0950  -29.0691   21.2132 H   0  0  0  0  0  0
  -26.0842  -26.0138   18.9467 H   0  0  0  0  0  0
  -23.9956  -27.3164   18.9951 H   0  0  0  0  0  0
  -23.7271  -30.5961   19.4015 H   0  0  0  0  0  0
  -22.7397  -29.2449   19.8628 H   0  0  0  0  0  0
  -25.1269  -36.1974   25.0826 H   0  0  0  0  0  0
  -20.9977  -28.3189   24.1409 H   0  0  0  0  0  0
  -20.5607  -26.2224   23.3586 H   0  0  0  0  0  0
  -21.6632  -26.7336   22.1225 H   0  0  0  0  0  0
  -19.6891  -25.6259   21.1195 H   0  0  0  0  0  0
  -19.6691  -27.3153   20.6719 H   0  0  0  0  0  0
  -17.4189  -26.6622   21.4001 H   0  0  0  0  0  0
  -18.0320  -26.0017   22.8977 H   0  0  0  0  0  0
  -19.7938  -30.7237   24.2220 H   0  0  0  0  0  0
  -17.5017  -31.6231   24.5123 H   0  0  0  0  0  0
  -15.5353  -30.2927   23.7666 H   0  0  0  0  0  0
  -15.8670  -28.0799   22.7020 H   0  0  0  0  0  0
  -24.6034  -30.6931   25.7899 H   0  0  0  0  0  0
  -24.8907  -32.2844   26.4819 H   0  0  0  0  0  0
  -25.8198  -30.9022   27.0293 H   0  0  0  0  0  0
  -26.2861  -29.6766   24.1107 H   0  0  0  0  0  0
  -27.4116  -29.7208   25.4490 H   0  0  0  0  0  0
  -27.8691  -30.4298   23.9179 H   0  0  0  0  0  0
  -27.2780  -33.3581   26.2028 H   0  0  0  0  0  0
  -28.3962  -32.6756   25.0316 H   0  0  0  0  0  0
  -28.0723  -31.8362   26.5408 H   0  0  0  0  0  0
  -28.2604  -38.0100   24.7543 H   0  0  0  0  0  0
  -28.1100  -36.2635   24.6262 H   0  0  0  0  0  0
  -27.2303  -37.1403   25.8867 H   0  0  0  0  0  0
  -20.9285  -29.8827   21.7030 H   0  0  0  0  0  0
  -26.0184  -38.2867   24.1453 H   0  0  0  0  0  0
  -29.1191  -18.0096   21.6603 H   0  0  0  0  0  0
  -31.9949  -16.3736   18.8853 H   0  0  0  0  0  0
  -31.5020  -16.6869   14.6506 H   0  0  0  0  0  0
  -33.3388  -16.7105   14.8129 H   0  0  0  0  0  0
  -31.2665  -17.9603   16.6999 H   0  0  0  0  0  0
  -31.2240  -21.5717   18.6867 H   0  0  0  0  0  0
  -32.8665  -21.0518   18.7760 H   0  0  0  0  0  0
  -32.0903  -21.6210   20.2241 H   0  0  0  0  0  0
  -28.8781  -23.3831   16.7338 H   0  0  0  0  0  0
  -27.5946  -22.7480   17.7195 H   0  0  0  0  0  0
  -29.2442  -22.1854   17.9534 H   0  0  0  0  0  0
  -26.8312  -22.4668   19.8589 H   0  0  0  0  0  0
  -26.2260  -24.0438   19.4693 H   0  0  0  0  0  0
  -26.4039  -23.5671   21.1440 H   0  0  0  0  0  0
  -34.1474  -19.3136   20.1391 H   0  0  0  0  0  0
  -34.8957  -19.8672   18.6468 H   0  0  0  0  0  0
  -35.1543  -18.2142   19.2188 H   0  0  0  0  0  0
  -28.3948  -25.0771   18.2810 H   0  0  0  0  0  0
  -29.9382  -24.4538   18.7789 H   0  0  0  0  0  0
  -28.7998  -23.0416   22.0555 H   0  0  0  0  0  0
  -30.2048  -23.4053   21.0881 H   0  0  0  0  0  0
  -29.2915  -25.5223   21.4846 H   0  0  0  0  0  0
  -27.5833  -25.5129   21.6670 H   0  0  0  0  0  0
  -29.1172  -15.5570   21.0603 H   0  0  0  0  0  0
  -29.2110  -21.5057   19.5533 H   0  0  0  0  0  0
  1 25  1  0  0  0
  1 30  2  0  0  0
  1 89  1  0  0  0
  2  3  1  0  0  0
  2 25  1  0  0  0
  2 94  1  0  0  0
  2 95  1  0  0  0
  3  4  1  0  0  0
  3 96  1  0  0  0
  3 97  1  0  0  0
  4  5  1  0  0  0
  4 98  1  0  0  0
  4 99  1  0  0  0
  5  6  1  0  0  0
  5 26  1  0  0  0
  5100  1  0  0  0
  6 25  1  0  0  0
  6101  1  0  0  0
  6102  1  0  0  0
  7  8  2  0  0  0
  7 26  1  0  0  0
  7 29  1  0  0  0
  8  9  1  0  0  0
  8 22  1  0  0  0
  9 10  1  0  0  0
  9 27  2  0  0  0
 10 11  2  0  0  0
 10 15  1  0  0  0
 11 12  1  0  0  0
 11103  1  0  0  0
 12 13  2  0  0  0
 12104  1  0  0  0
 13 14  1  0  0  0
 13 31  1  0  0  0
 14 15  2  0  0  0
 14105  1  0  0  0
 15106  1  0  0  0
 16 17  2  0  0  0
 16 21  1  0  0  0
 16 31  1  0  0  0
 17 18  1  0  0  0
 17107  1  0  0  0
 18 19  2  0  0  0
 18108  1  0  0  0
 19 20  1  0  0  0
 19 24  1  0  0  0
 20 21  2  0  0  0
 20109  1  0  0  0
 21 23  1  0  0  0
 22 28  1  0  0  0
 22 32  2  0  0  0
 26 27  1  0  0  0
 28110  1  0  0  0
 28111  1  0  0  0
 29112  1  0  0  0
 29113  1  0  0  0
 33 34  1  0  0  0
 33 66  1  0  0  0
 33 70  2  0  0  0
 34 36  1  0  0  0
 34 59  1  0  0  0
 34114  1  0  0  0
 35 44  2  0  0  0
 35 45  1  0  0  0
 35 68  1  0  0  0
 36 56  1  0  0  0
 36115  1  0  0  0
 37 39  1  0  0  0
 37 47  1  0  0  0
 37 66  1  0  0  0
 37116  1  0  0  0
 38 43  2  0  0  0
 38 46  1  0  0  0
 38 47  1  0  0  0
 39 64  1  0  0  0
 39 67  2  0  0  0
 40 52  1  0  0  0
 40 53  2  0  0  0
 40 58  1  0  0  0
 41117  1  0  0  0
 41118  1  0  0  0
 41119  1  0  0  0
 41 48  1  0  0  0
 42 43  1  0  0  0
 42 66  1  0  0  0
 42120  1  0  0  0
 42121  1  0  0  0
 43 44  1  0  0  0
 44122  1  0  0  0
 45 46  2  0  0  0
 45123  1  0  0  0
 46124  1  0  0  0
 47125  1  0  0  0
 47126  1  0  0  0
 48 56  1  0  0  0
 48 65  1  0  0  0
 48127  1  0  0  0
 49 50  1  0  0  0
 49 53  1  0  0  0
 49 64  1  0  0  0
 49128  1  0  0  0
 50 51  1  0  0  0
 50129  1  0  0  0
 50130  1  0  0  0
 51 52  1  0  0  0
 51131  1  0  0  0
 51132  1  0  0  0
 52133  1  0  0  0
 52134  1  0  0  0
 53 54  1  0  0  0
 54 55  2  0  0  0
 54135  1  0  0  0
 55 57  1  0  0  0
 55136  1  0  0  0
 56 69  2  0  0  0
 57 58  2  0  0  0
 57137  1  0  0  0
 58138  1  0  0  0
 59 60  1  0  0  0
 59 61  1  0  0  0
 59 62  1  0  0  0
 60139  1  0  0  0
 60140  1  0  0  0
 60141  1  0  0  0
 61142  1  0  0  0
 61143  1  0  0  0
 61144  1  0  0  0
 62145  1  0  0  0
 62146  1  0  0  0
 62147  1  0  0  0
 63 65  1  0  0  0
 63148  1  0  0  0
 63149  1  0  0  0
 63150  1  0  0  0
 64151  1  0  0  0
 65152  1  0  0  0
 68 87  1  0  0  0
 71 73  2  0  0  0
 71 75  1  0  0  0
 71153  1  0  0  0
 72 75  2  0  0  0
 72 76  1  0  0  0
 72154  1  0  0  0
 73 74  1  0  0  0
 73 79  1  0  0  0
 74 76  2  0  0  0
 74 81  1  0  0  0
 75 89  1  0  0  0
 76 91  1  0  0  0
 77 78  2  0  0  0
 77155  1  0  0  0
 77156  1  0  0  0
 78 80  1  0  0  0
 78157  1  0  0  0
 79 90  1  0  0  0
 79 92  2  0  0  0
 80 91  1  0  0  0
 80 93  2  0  0  0
 81158  1  0  0  0
 81159  1  0  0  0
 81160  1  0  0  0
 82 85  1  0  0  0
 82161  1  0  0  0
 82162  1  0  0  0
 82163  1  0  0  0
 83164  1  0  0  0
 83165  1  0  0  0
 83166  1  0  0  0
 83 88  1  0  0  0
 84 91  1  0  0  0
 84167  1  0  0  0
 84168  1  0  0  0
 84169  1  0  0  0
 85 88  1  0  0  0
 85170  1  0  0  0
 85171  1  0  0  0
 86 88  1  0  0  0
 86 90  1  0  0  0
 86172  1  0  0  0
 86173  1  0  0  0
 87 88  1  0  0  0
 87174  1  0  0  0
 87175  1  0  0  0
 89176  1  0  0  0
 90177  1  0  0  0
M  ISO  4   1 100  68 101  87 101  89 100
M  END
> <chiral flag>
0

> <version>
0

> <s_m_source_file>
/data/baiqing/PycharmProjects/Reinvent-master-3.2/result/LINK_invent/BTK/process_docking_weight1_custom_product_contain_oxygen_bond_distance_aromatic_linkinvent_7_9_3/rearranged_h_0062.sdf

> <i_m_source_file_index>
82

> <r_mmod_Potential_Energy-OPLS-2005>
102.847007751465

> <r_mmod_Stretch_Energy-OPLS-2005>
54.8554916381836

> <r_mmod_Bend_Energy-OPLS-2005>
127.47095489502

> <r_mmod_Torsional_Energy-OPLS-2005>
364.668884277344

> <r_mmod_Improper_Torsional_Energy-OPLS-2005>
7.08308362960815

> <r_mmod_Van_der_Waal_Energy-OPLS-2005>
189.280258178711

> <r_mmod_Electrostatic_Energy-OPLS-2005>
-436.903686523438

> <r_mmod_Solvation_Energy-OPLS-2005>
-230.216522216797

> <b_mmod_Minimization_Converged-OPLS-2005>
0

> <r_mmod_RMS_Derivative-OPLS-2005>
4.77597999572754

$$$$
82
                    3D
 Structure written by MMmdl.
152160  0  0  1  0            999 V2000
  -30.6089  -14.8208   20.4248 C   0  0  0  0  0  0
  -30.4283  -12.5000   19.4896 C   0  0  0  0  0  0
  -29.5131  -12.5112   18.2457 C   0  0  0  0  0  0
  -28.0418  -12.3252   18.6598 C   0  0  0  0  0  0
  -27.6354  -13.2434   19.8435 C   0  0  2  0  0  0
  -28.6794  -13.2307   20.9813 C   0  0  0  0  0  0
  -25.2484  -13.8221   20.5708 C   0  0  0  0  0  0
  -24.1792  -13.0449   20.9224 C   0  0  0  0  0  0
  -24.6399  -11.6932   20.8756 C   0  0  0  0  0  0
  -23.9080  -10.4300   21.0408 C   0  0  0  0  0  0
  -24.3628   -9.4213   21.9186 C   0  0  0  0  0  0
  -23.6300   -8.2248   22.0754 C   0  0  0  0  0  0
  -22.4282   -8.0286   21.3545 C   0  0  0  0  0  0
  -21.9921   -9.0261   20.4647 C   0  0  0  0  0  0
  -22.7252  -10.2140   20.3057 C   0  0  0  0  0  0
  -21.6857   -6.0738   22.5279 C   0  0  0  0  0  0
  -21.4016   -6.5642   23.8213 C   0  0  0  0  0  0
  -21.3660   -5.6795   24.9176 C   0  0  0  0  0  0
  -21.6044   -4.3057   24.7226 C   0  0  0  0  0  0
  -21.8819   -3.8149   23.4348 C   0  0  0  0  0  0
  -21.9194   -4.6966   22.3404 C   0  0  0  0  0  0
  -22.7812  -13.5221   21.1877 C   0  0  0  0  0  0
  -22.1663   -4.2150   21.0982 F   0  0  0  0  0  0
  -21.5627   -3.4541   25.7739 F   0  0  0  0  0  0
  -29.9727  -13.5917   20.3895 N   0  0  0  0  0  0
  -26.2913  -12.9448   20.3266 N   0  0  0  0  0  0
  -25.9332  -11.6580   20.5752 N   0  0  0  0  0  0
  -22.0460  -12.8205   22.0429 N   0  0  0  0  0  0
  -25.4156  -15.1947   20.4118 N   0  0  0  0  0  0
  -31.8130  -14.8441   20.1579 O   0  0  0  0  0  0
  -21.6646   -6.8882   21.4241 O   0  0  0  0  0  0
  -22.3495  -14.5527   20.6723 O   0  0  0  0  0  0
  -24.6363  -31.8514   23.1952 C   0  0  0  0  0  0
  -25.9167  -32.4736   23.8315 C   0  0  1  0  0  0
  -27.2155  -27.2191   20.1394 C   0  0  0  0  0  0
  -25.5944  -33.8540   24.2234 N   0  0  0  0  0  0
  -23.4370  -30.4728   21.5387 C   0  0  2  0  0  0
  -24.8883  -28.9174   20.1064 C   0  0  0  0  0  0
  -22.7536  -29.4578   22.4882 C   0  0  0  0  0  0
  -18.0299  -28.1390   22.8482 C   0  0  0  0  0  0
  -24.1490  -36.7274   23.2640 C   0  0  0  0  0  0
  -25.9875  -30.7505   21.3844 C   0  0  0  0  0  0
  -26.0626  -29.3702   20.7245 C   0  0  0  0  0  0
  -27.2329  -28.5330   20.7323 C   0  0  0  0  0  0
  -26.0245  -26.8522   19.4790 C   0  0  0  0  0  0
  -24.8766  -27.6678   19.4697 C   0  0  0  0  0  0
  -23.6599  -29.8084   20.1549 C   0  0  0  0  0  0
  -25.4119  -36.3058   24.0321 C   0  0  1  0  0  0
  -20.5907  -28.3710   23.1248 C   0  0  2  0  0  0
  -20.6782  -26.9420   22.5402 C   0  0  0  0  0  0
  -19.5756  -26.6382   21.5208 C   0  0  0  0  0  0
  -18.1939  -26.7931   22.1624 C   0  0  0  0  0  0
  -19.1554  -28.8868   23.2859 C   0  0  0  0  0  0
  -18.9473  -30.1467   23.8882 C   0  0  0  0  0  0
  -17.6468  -30.6589   24.0560 C   0  0  0  0  0  0
  -25.9062  -34.9430   23.5080 C   0  0  0  0  0  0
  -16.5360  -29.9082   23.6333 C   0  0  0  0  0  0
  -16.7284  -28.6500   23.0355 C   0  0  0  0  0  0
  -26.4514  -31.6577   25.0725 C   0  0  0  0  0  0
  -25.3718  -31.3743   26.1432 C   0  0  0  0  0  0
  -27.0370  -30.2984   24.6258 C   0  0  0  0  0  0
  -27.6057  -32.4330   25.7504 C   0  0  0  0  0  0
  -27.5577  -37.1793   24.8467 C   0  0  0  0  0  0
  -21.4236  -29.3047   22.3628 N   0  0  0  0  0  0
  -26.4291  -37.3761   23.9407 N   0  0  0  0  0  0
  -24.7060  -31.0435   22.0954 N   0  0  0  0  0  0
  -23.4210  -28.8120   23.3003 O   0  0  0  0  0  0
  -28.2254  -26.2168   20.2108 O   0  0  0  0  0  0
  -26.5642  -34.8915   22.4655 O   0  0  0  0  0  0
  -23.5499  -32.1355   23.7215 O   0  0  0  0  0  0
  -31.7002  -19.0524   19.1322 C   0  0  0  0  0  0
  -30.9157  -20.1658   19.4789 C   0  0  0  0  0  0
  -31.3430  -17.7430   19.4998 C   0  0  0  0  0  0
  -29.3690  -18.6472   20.5956 C   0  0  0  0  0  0
  -29.7149  -20.0370   20.2113 C   0  0  0  0  0  0
  -30.1795  -17.4574   20.2525 C   0  0  0  0  0  0
  -28.1373  -23.6196   20.8737 C   0  0  0  0  0  0
  -27.8376  -24.9966   20.8638 C   0  0  0  0  0  0
  -29.0638  -22.6539   20.1748 C   0  0  0  0  0  0
  -28.0948  -18.4141   21.3885 C   0  0  0  0  0  0
  -28.9466  -21.2961   20.5502 N   0  0  0  0  0  0
  -29.8649  -16.0084   20.5771 N   0  0  0  0  0  0
  -29.8624  -23.0300   19.3157 O   0  0  0  0  0  0
  -31.4695  -12.6173   19.1846 H   0  0  0  0  0  0
  -30.3765  -11.5374   20.0007 H   0  0  0  0  0  0
  -29.8089  -11.7245   17.5504 H   0  0  0  0  0  0
  -29.6286  -13.4547   17.7097 H   0  0  0  0  0  0
  -27.9128  -11.2799   18.9427 H   0  0  0  0  0  0
  -27.3832  -12.4923   17.8067 H   0  0  0  0  0  0
  -27.6135  -14.2551   19.4375 H   0  0  0  0  0  0
  -28.7315  -12.2496   21.4556 H   0  0  0  0  0  0
  -28.4035  -13.9381   21.7648 H   0  0  0  0  0  0
  -25.2770   -9.5691   22.4764 H   0  0  0  0  0  0
  -24.0009   -7.4640   22.7474 H   0  0  0  0  0  0
  -21.0852   -8.8784   19.8952 H   0  0  0  0  0  0
  -22.3710  -10.9682   19.6170 H   0  0  0  0  0  0
  -21.2010   -7.6151   23.9717 H   0  0  0  0  0  0
  -21.1481   -6.0526   25.9079 H   0  0  0  0  0  0
  -22.0597   -2.7610   23.2850 H   0  0  0  0  0  0
  -22.4085  -11.9872   22.4819 H   0  0  0  0  0  0
  -21.1073  -13.1220   22.2630 H   0  0  0  0  0  0
  -24.6421  -15.8427   20.5132 H   0  0  0  0  0  0
  -26.2519  -15.6314   20.0471 H   0  0  0  0  0  0
  -26.7233  -32.5376   23.1054 H   0  0  0  0  0  0
  -25.0081  -33.9667   25.0373 H   0  0  0  0  0  0
  -22.7359  -31.2966   21.3897 H   0  0  0  0  0  0
  -23.3758  -35.9601   23.3301 H   0  0  0  0  0  0
  -24.3576  -36.8903   22.2055 H   0  0  0  0  0  0
  -23.7241  -37.6471   23.6671 H   0  0  0  0  0  0
  -26.1333  -31.5104   20.6154 H   0  0  0  0  0  0
  -26.8614  -30.7992   22.0222 H   0  0  0  0  0  0
  -28.1253  -28.8651   21.2440 H   0  0  0  0  0  0
  -25.9661  -25.8837   19.0021 H   0  0  0  0  0  0
  -23.9795  -27.3155   18.9794 H   0  0  0  0  0  0
  -23.7881  -30.5860   19.4010 H   0  0  0  0  0  0
  -22.7772  -29.2451   19.8466 H   0  0  0  0  0  0
  -25.1302  -36.1897   25.0813 H   0  0  0  0  0  0
  -21.0000  -28.3298   24.1368 H   0  0  0  0  0  0
  -20.5675  -26.2326   23.3617 H   0  0  0  0  0  0
  -21.6649  -26.7431   22.1199 H   0  0  0  0  0  0
  -19.6919  -25.6289   21.1248 H   0  0  0  0  0  0
  -19.6690  -27.3184   20.6731 H   0  0  0  0  0  0
  -17.4203  -26.6677   21.4032 H   0  0  0  0  0  0
  -18.0345  -26.0075   22.9023 H   0  0  0  0  0  0
  -19.7947  -30.7289   24.2246 H   0  0  0  0  0  0
  -17.5019  -31.6266   24.5167 H   0  0  0  0  0  0
  -15.5358  -30.2977   23.7664 H   0  0  0  0  0  0
  -15.8686  -28.0812   22.7077 H   0  0  0  0  0  0
  -24.5900  -30.7087   25.7754 H   0  0  0  0  0  0
  -24.8903  -32.2917   26.4827 H   0  0  0  0  0  0
  -25.8017  -30.8937   27.0229 H   0  0  0  0  0  0
  -26.2971  -29.6720   24.1262 H   0  0  0  0  0  0
  -27.4005  -29.7264   25.4806 H   0  0  0  0  0  0
  -27.8871  -30.4240   23.9548 H   0  0  0  0  0  0
  -27.2656  -33.3643   26.2046 H   0  0  0  0  0  0
  -28.3884  -32.6871   25.0344 H   0  0  0  0  0  0
  -28.0705  -31.8479   26.5450 H   0  0  0  0  0  0
  -28.2592  -38.0092   24.7508 H   0  0  0  0  0  0
  -28.1074  -36.2622   24.6298 H   0  0  0  0  0  0
  -27.2294  -37.1446   25.8869 H   0  0  0  0  0  0
  -20.9434  -29.8768   21.6824 H   0  0  0  0  0  0
  -26.0168  -38.2833   24.1409 H   0  0  0  0  0  0
  -32.6058  -19.2081   18.5630 H   0  0  0  0  0  0
  -31.2803  -21.1303   19.1630 H   0  0  0  0  0  0
  -32.0042  -16.9613   19.1622 H   0  0  0  0  0  0
  -27.5197  -23.1091   21.5983 H   0  0  0  0  0  0
  -27.0650  -25.2592   21.5753 H   0  0  0  0  0  0
  -27.7614  -19.3148   21.9021 H   0  0  0  0  0  0
  -28.2459  -17.6484   22.1493 H   0  0  0  0  0  0
  -27.2947  -18.0844   20.7257 H   0  0  0  0  0  0
  -28.1953  -21.1443   21.2075 H   0  0  0  0  0  0
  -28.9162  -15.8423   20.8747 H   0  0  0  0  0  0
  1 25  1  0  0  0
  1 30  2  0  0  0
  1 82  1  0  0  0
  2  3  1  0  0  0
  2 25  1  0  0  0
  2 84  1  0  0  0
  2 85  1  0  0  0
  3  4  1  0  0  0
  3 86  1  0  0  0
  3 87  1  0  0  0
  4  5  1  0  0  0
  4 88  1  0  0  0
  4 89  1  0  0  0
  5  6  1  0  0  0
  5 26  1  0  0  0
  5 90  1  0  0  0
  6 25  1  0  0  0
  6 91  1  0  0  0
  6 92  1  0  0  0
  7  8  2  0  0  0
  7 26  1  0  0  0
  7 29  1  0  0  0
  8  9  1  0  0  0
  8 22  1  0  0  0
  9 10  1  0  0  0
  9 27  2  0  0  0
 10 11  2  0  0  0
 10 15  1  0  0  0
 11 12  1  0  0  0
 11 93  1  0  0  0
 12 13  2  0  0  0
 12 94  1  0  0  0
 13 14  1  0  0  0
 13 31  1  0  0  0
 14 15  2  0  0  0
 14 95  1  0  0  0
 15 96  1  0  0  0
 16 17  2  0  0  0
 16 21  1  0  0  0
 16 31  1  0  0  0
 17 18  1  0  0  0
 17 97  1  0  0  0
 18 19  2  0  0  0
 18 98  1  0  0  0
 19 20  1  0  0  0
 19 24  1  0  0  0
 20 21  2  0  0  0
 20 99  1  0  0  0
 21 23  1  0  0  0
 22 28  1  0  0  0
 22 32  2  0  0  0
 26 27  1  0  0  0
 28100  1  0  0  0
 28101  1  0  0  0
 29102  1  0  0  0
 29103  1  0  0  0
 33 34  1  0  0  0
 33 66  1  0  0  0
 33 70  2  0  0  0
 34 36  1  0  0  0
 34 59  1  0  0  0
 34104  1  0  0  0
 35 44  2  0  0  0
 35 45  1  0  0  0
 35 68  1  0  0  0
 36 56  1  0  0  0
 36105  1  0  0  0
 37 39  1  0  0  0
 37 47  1  0  0  0
 37 66  1  0  0  0
 37106  1  0  0  0
 38 43  2  0  0  0
 38 46  1  0  0  0
 38 47  1  0  0  0
 39 64  1  0  0  0
 39 67  2  0  0  0
 40 52  1  0  0  0
 40 53  2  0  0  0
 40 58  1  0  0  0
 41107  1  0  0  0
 41108  1  0  0  0
 41109  1  0  0  0
 41 48  1  0  0  0
 42 43  1  0  0  0
 42 66  1  0  0  0
 42110  1  0  0  0
 42111  1  0  0  0
 43 44  1  0  0  0
 44112  1  0  0  0
 45 46  2  0  0  0
 45113  1  0  0  0
 46114  1  0  0  0
 47115  1  0  0  0
 47116  1  0  0  0
 48 56  1  0  0  0
 48 65  1  0  0  0
 48117  1  0  0  0
 49 50  1  0  0  0
 49 53  1  0  0  0
 49 64  1  0  0  0
 49118  1  0  0  0
 50 51  1  0  0  0
 50119  1  0  0  0
 50120  1  0  0  0
 51 52  1  0  0  0
 51121  1  0  0  0
 51122  1  0  0  0
 52123  1  0  0  0
 52124  1  0  0  0
 53 54  1  0  0  0
 54 55  2  0  0  0
 54125  1  0  0  0
 55 57  1  0  0  0
 55126  1  0  0  0
 56 69  2  0  0  0
 57 58  2  0  0  0
 57127  1  0  0  0
 58128  1  0  0  0
 59 60  1  0  0  0
 59 61  1  0  0  0
 59 62  1  0  0  0
 60129  1  0  0  0
 60130  1  0  0  0
 60131  1  0  0  0
 61132  1  0  0  0
 61133  1  0  0  0
 61134  1  0  0  0
 62135  1  0  0  0
 62136  1  0  0  0
 62137  1  0  0  0
 63 65  1  0  0  0
 63138  1  0  0  0
 63139  1  0  0  0
 63140  1  0  0  0
 64141  1  0  0  0
 65142  1  0  0  0
 68 78  1  0  0  0
 71 72  2  0  0  0
 71 73  1  0  0  0
 71143  1  0  0  0
 72 75  1  0  0  0
 72144  1  0  0  0
 73 76  2  0  0  0
 73145  1  0  0  0
 74 75  2  0  0  0
 74 76  1  0  0  0
 74 80  1  0  0  0
 75 81  1  0  0  0
 76 82  1  0  0  0
 77 78  2  0  0  0
 77 79  1  0  0  0
 77146  1  0  0  0
 78147  1  0  0  0
 79 81  1  0  0  0
 79 83  2  0  0  0
 80148  1  0  0  0
 80149  1  0  0  0
 80150  1  0  0  0
 81151  1  0  0  0
 82152  1  0  0  0
M  ISO  4   1 100  68 101  78 101  82 100
M  END
> <chiral flag>
0

> <version>
0

> <s_m_source_file>
/data/baiqing/PycharmProjects/Reinvent-master-3.2/result/LINK_invent/BTK/process_docking_weight1_custom_product_contain_oxygen_bond_distance_aromatic_linkinvent_7_9_3/rearranged_h_0062.sdf

> <i_m_source_file_index>
83

> <r_mmod_Potential_Energy-OPLS-2005>
280.398742675781

> <r_mmod_Stretch_Energy-OPLS-2005>
166.947708129883

> <r_mmod_Bend_Energy-OPLS-2005>
243.980072021484

> <r_mmod_Torsional_Energy-OPLS-2005>
229.598403930664

> <r_mmod_Improper_Torsional_Energy-OPLS-2005>
4.32781505584717

> <r_mmod_Van_der_Waal_Energy-OPLS-2005>
145.167297363281

> <r_mmod_Electrostatic_Energy-OPLS-2005>
-401.815032958984

> <r_mmod_Solvation_Energy-OPLS-2005>
-236.535888671875

> <b_mmod_Minimization_Converged-OPLS-2005>
0

> <r_mmod_RMS_Derivative-OPLS-2005>
0.368142127990723

$$$$
83
                    3D
 Structure written by MMmdl.
157165  0  0  1  0            999 V2000
  -30.6888  -14.5703   20.5306 C   0  0  0  0  0  0
  -30.4206  -12.3607   19.4360 C   0  0  0  0  0  0
  -29.4915  -12.4768   18.2121 C   0  0  0  0  0  0
  -28.0174  -12.3298   18.6329 C   0  0  0  0  0  0
  -27.6480  -13.2161   19.8533 C   0  0  2  0  0  0
  -28.6915  -13.0845   20.9828 C   0  0  0  0  0  0
  -25.2562  -13.8189   20.5677 C   0  0  0  0  0  0
  -24.1816  -13.0455   20.9207 C   0  0  0  0  0  0
  -24.6377  -11.6929   20.8763 C   0  0  0  0  0  0
  -23.9061  -10.4308   21.0422 C   0  0  0  0  0  0
  -24.3607   -9.4232   21.9200 C   0  0  0  0  0  0
  -23.6288   -8.2259   22.0766 C   0  0  0  0  0  0
  -22.4273   -8.0299   21.3544 C   0  0  0  0  0  0
  -21.9908   -9.0273   20.4639 C   0  0  0  0  0  0
  -22.7229  -10.2159   20.3064 C   0  0  0  0  0  0
  -21.6854   -6.0744   22.5288 C   0  0  0  0  0  0
  -21.4001   -6.5643   23.8216 C   0  0  0  0  0  0
  -21.3654   -5.6797   24.9177 C   0  0  0  0  0  0
  -21.6040   -4.3061   24.7218 C   0  0  0  0  0  0
  -21.8824   -3.8155   23.4337 C   0  0  0  0  0  0
  -21.9187   -4.6977   22.3394 C   0  0  0  0  0  0
  -22.7833  -13.5263   21.1854 C   0  0  0  0  0  0
  -22.1664   -4.2163   21.0979 F   0  0  0  0  0  0
  -21.5628   -3.4547   25.7725 F   0  0  0  0  0  0
  -30.0087  -13.3932   20.4059 N   0  0  0  0  0  0
  -26.2965  -12.9359   20.3263 N   0  0  0  0  0  0
  -25.9305  -11.6519   20.5749 N   0  0  0  0  0  0
  -22.0463  -12.8248   22.0403 N   0  0  0  0  0  0
  -25.4276  -15.1897   20.4067 N   0  0  0  0  0  0
  -31.8605  -14.6747   20.1567 O   0  0  0  0  0  0
  -21.6634   -6.8886   21.4238 O   0  0  0  0  0  0
  -22.3540  -14.5564   20.6712 O   0  0  0  0  0  0
  -24.6218  -31.8640   23.2086 C   0  0  0  0  0  0
  -25.9099  -32.4808   23.8411 C   0  0  1  0  0  0
  -27.2265  -27.3573   20.0886 C   0  0  0  0  0  0
  -25.5886  -33.8608   24.2325 N   0  0  0  0  0  0
  -23.4151  -30.4899   21.5468 C   0  0  2  0  0  0
  -24.8590  -28.9441   20.1150 C   0  0  0  0  0  0
  -22.7467  -29.4644   22.4919 C   0  0  0  0  0  0
  -18.0293  -28.1364   22.8458 C   0  0  0  0  0  0
  -24.1497  -36.7318   23.2634 C   0  0  0  0  0  0
  -25.9528  -30.8026   21.3753 C   0  0  0  0  0  0
  -26.0247  -29.4327   20.7161 C   0  0  0  0  0  0
  -27.2072  -28.6439   20.7025 C   0  0  0  0  0  0
  -26.0278  -26.8966   19.4984 C   0  0  0  0  0  0
  -24.8568  -27.6796   19.5066 C   0  0  0  0  0  0
  -23.6313  -29.8270   20.1606 C   0  0  0  0  0  0
  -25.4123  -36.3105   24.0326 C   0  0  1  0  0  0
  -20.5897  -28.3679   23.1277 C   0  0  2  0  0  0
  -20.6797  -26.9392   22.5385 C   0  0  0  0  0  0
  -19.5764  -26.6358   21.5175 C   0  0  0  0  0  0
  -18.1937  -26.7896   22.1607 C   0  0  0  0  0  0
  -19.1539  -28.8823   23.2884 C   0  0  0  0  0  0
  -18.9467  -30.1410   23.8911 C   0  0  0  0  0  0
  -17.6477  -30.6572   24.0520 C   0  0  0  0  0  0
  -25.9047  -34.9465   23.5145 C   0  0  0  0  0  0
  -16.5369  -29.9070   23.6286 C   0  0  0  0  0  0
  -16.7285  -28.6478   23.0314 C   0  0  0  0  0  0
  -26.4491  -31.6610   25.0755 C   0  0  0  0  0  0
  -25.3722  -31.3688   26.1472 C   0  0  0  0  0  0
  -27.0329  -30.3030   24.6183 C   0  0  0  0  0  0
  -27.6067  -32.4318   25.7523 C   0  0  0  0  0  0
  -27.5618  -37.1834   24.8463 C   0  0  0  0  0  0
  -21.4174  -29.3064   22.3699 N   0  0  0  0  0  0
  -26.4335  -37.3780   23.9392 N   0  0  0  0  0  0
  -24.6810  -31.0689   22.1003 N   0  0  0  0  0  0
  -23.4240  -28.8155   23.2942 O   0  0  0  0  0  0
  -28.3832  -26.5811   20.1195 O   0  0  0  0  0  0
  -26.5610  -34.8904   22.4712 O   0  0  0  0  0  0
  -23.5384  -32.1414   23.7428 O   0  0  0  0  0  0
  -30.0398  -18.2331   20.7252 C   0  0  0  0  0  0
  -31.5891  -17.0081   22.1587 C   0  0  0  0  0  0
  -31.7584  -19.4464   21.9922 C   0  0  0  0  0  0
  -30.5257  -16.9770   21.2307 C   0  0  0  0  0  0
  -30.6644  -19.4775   21.0803 C   0  0  0  0  0  0
  -32.1925  -18.2177   22.5375 C   0  0  0  0  0  0
  -29.2693  -21.5510   20.5869 C   0  0  0  0  0  0
  -32.5107  -20.7168   22.3844 C   0  0  0  0  0  0
  -29.4670  -23.0787   20.2908 C   0  0  0  0  0  0
  -28.2119  -23.9571   19.9128 C   0  0  0  0  0  0
  -28.5135  -25.3787   19.2999 C   0  0  0  0  0  0
  -30.3661  -20.7567   20.4674 N   0  0  0  0  0  0
  -29.9776  -15.6834   20.8678 N   0  0  0  0  0  0
  -28.1569  -21.1151   20.8980 O   0  0  0  0  0  0
  -33.2206  -18.1876   23.4222 F   0  0  0  0  0  0
  -31.4618  -12.4674   19.1277 H   0  0  0  0  0  0
  -30.3440  -11.3711   19.8883 H   0  0  0  0  0  0
  -29.7430  -11.7115   17.4776 H   0  0  0  0  0  0
  -29.6445  -13.4367   17.7165 H   0  0  0  0  0  0
  -27.8518  -11.2799   18.8749 H   0  0  0  0  0  0
  -27.3588  -12.5499   17.7911 H   0  0  0  0  0  0
  -27.6647  -14.2452   19.4994 H   0  0  0  0  0  0
  -28.6907  -12.0733   21.3932 H   0  0  0  0  0  0
  -28.4474  -13.7478   21.8150 H   0  0  0  0  0  0
  -25.2745   -9.5708   22.4791 H   0  0  0  0  0  0
  -23.9992   -7.4647   22.7505 H   0  0  0  0  0  0
  -21.0840   -8.8787   19.8942 H   0  0  0  0  0  0
  -22.3684  -10.9702   19.6187 H   0  0  0  0  0  0
  -21.1995   -7.6160   23.9715 H   0  0  0  0  0  0
  -21.1466   -6.0531   25.9076 H   0  0  0  0  0  0
  -22.0603   -2.7625   23.2834 H   0  0  0  0  0  0
  -22.4045  -11.9894   22.4768 H   0  0  0  0  0  0
  -21.1100  -13.1307   22.2604 H   0  0  0  0  0  0
  -24.6646  -15.8482   20.5211 H   0  0  0  0  0  0
  -26.2704  -15.6238   20.0509 H   0  0  0  0  0  0
  -26.7179  -32.5480   23.1155 H   0  0  0  0  0  0
  -24.9969  -33.9743   25.0436 H   0  0  0  0  0  0
  -22.7067  -31.3092   21.4089 H   0  0  0  0  0  0
  -23.3753  -35.9665   23.3282 H   0  0  0  0  0  0
  -24.3547  -36.8925   22.2042 H   0  0  0  0  0  0
  -23.7266  -37.6526   23.6666 H   0  0  0  0  0  0
  -26.0823  -31.5705   20.6151 H   0  0  0  0  0  0
  -26.8349  -30.8484   22.0018 H   0  0  0  0  0  0
  -28.1081  -29.0114   21.1724 H   0  0  0  0  0  0
  -25.9581  -25.9162   19.0492 H   0  0  0  0  0  0
  -23.9519  -27.2932   19.0565 H   0  0  0  0  0  0
  -23.7645  -30.6086   19.4104 H   0  0  0  0  0  0
  -22.7520  -29.2608   19.8495 H   0  0  0  0  0  0
  -25.1313  -36.1974   25.0811 H   0  0  0  0  0  0
  -20.9977  -28.3233   24.1395 H   0  0  0  0  0  0
  -20.5632  -26.2270   23.3588 H   0  0  0  0  0  0
  -21.6690  -26.7410   22.1214 H   0  0  0  0  0  0
  -19.6916  -25.6263   21.1208 H   0  0  0  0  0  0
  -19.6703  -27.3179   20.6699 H   0  0  0  0  0  0
  -17.4208  -26.6578   21.4010 H   0  0  0  0  0  0
  -18.0385  -26.0051   22.9013 H   0  0  0  0  0  0
  -19.7954  -30.7185   24.2329 H   0  0  0  0  0  0
  -17.5044  -31.6246   24.5145 H   0  0  0  0  0  0
  -15.5356  -30.2979   23.7617 H   0  0  0  0  0  0
  -15.8664  -28.0805   22.7025 H   0  0  0  0  0  0
  -24.5942  -30.6979   25.7777 H   0  0  0  0  0  0
  -24.8838  -32.2802   26.4934 H   0  0  0  0  0  0
  -25.8042  -30.8852   27.0236 H   0  0  0  0  0  0
  -26.2894  -29.6783   24.1209 H   0  0  0  0  0  0
  -27.4016  -29.7286   25.4700 H   0  0  0  0  0  0
  -27.8772  -30.4309   23.9401 H   0  0  0  0  0  0
  -27.2738  -33.3637   26.2113 H   0  0  0  0  0  0
  -28.3901  -32.6824   25.0354 H   0  0  0  0  0  0
  -28.0729  -31.8404   26.5423 H   0  0  0  0  0  0
  -28.2630  -38.0144   24.7522 H   0  0  0  0  0  0
  -28.1120  -36.2666   24.6307 H   0  0  0  0  0  0
  -27.2294  -37.1472   25.8851 H   0  0  0  0  0  0
  -20.9335  -29.8844   21.6964 H   0  0  0  0  0  0
  -26.0214  -38.2845   24.1366 H   0  0  0  0  0  0
  -29.2235  -18.2424   20.0124 H   0  0  0  0  0  0
  -31.9673  -16.0898   22.5823 H   0  0  0  0  0  0
  -31.8448  -21.5692   22.5141 H   0  0  0  0  0  0
  -33.2482  -20.9659   21.6207 H   0  0  0  0  0  0
  -33.0452  -20.5922   23.3259 H   0  0  0  0  0  0
  -30.1958  -23.1586   19.4824 H   0  0  0  0  0  0
  -29.9478  -23.5316   21.1608 H   0  0  0  0  0  0
  -27.5123  -24.0392   20.7440 H   0  0  0  0  0  0
  -27.6700  -23.3946   19.1496 H   0  0  0  0  0  0
  -27.9461  -25.4898   18.3750 H   0  0  0  0  0  0
  -29.5457  -25.3709   18.9464 H   0  0  0  0  0  0
  -31.1891  -21.2632   20.1606 H   0  0  0  0  0  0
  -28.9741  -15.5777   20.9171 H   0  0  0  0  0  0
  1 25  1  0  0  0
  1 30  2  0  0  0
  1 83  1  0  0  0
  2  3  1  0  0  0
  2 25  1  0  0  0
  2 86  1  0  0  0
  2 87  1  0  0  0
  3  4  1  0  0  0
  3 88  1  0  0  0
  3 89  1  0  0  0
  4  5  1  0  0  0
  4 90  1  0  0  0
  4 91  1  0  0  0
  5  6  1  0  0  0
  5 26  1  0  0  0
  5 92  1  0  0  0
  6 25  1  0  0  0
  6 93  1  0  0  0
  6 94  1  0  0  0
  7  8  2  0  0  0
  7 26  1  0  0  0
  7 29  1  0  0  0
  8  9  1  0  0  0
  8 22  1  0  0  0
  9 10  1  0  0  0
  9 27  2  0  0  0
 10 11  2  0  0  0
 10 15  1  0  0  0
 11 12  1  0  0  0
 11 95  1  0  0  0
 12 13  2  0  0  0
 12 96  1  0  0  0
 13 14  1  0  0  0
 13 31  1  0  0  0
 14 15  2  0  0  0
 14 97  1  0  0  0
 15 98  1  0  0  0
 16 17  2  0  0  0
 16 21  1  0  0  0
 16 31  1  0  0  0
 17 18  1  0  0  0
 17 99  1  0  0  0
 18 19  2  0  0  0
 18100  1  0  0  0
 19 20  1  0  0  0
 19 24  1  0  0  0
 20 21  2  0  0  0
 20101  1  0  0  0
 21 23  1  0  0  0
 22 28  1  0  0  0
 22 32  2  0  0  0
 26 27  1  0  0  0
 28102  1  0  0  0
 28103  1  0  0  0
 29104  1  0  0  0
 29105  1  0  0  0
 33 34  1  0  0  0
 33 66  1  0  0  0
 33 70  2  0  0  0
 34 36  1  0  0  0
 34 59  1  0  0  0
 34106  1  0  0  0
 35 44  2  0  0  0
 35 45  1  0  0  0
 35 68  1  0  0  0
 36 56  1  0  0  0
 36107  1  0  0  0
 37 39  1  0  0  0
 37 47  1  0  0  0
 37 66  1  0  0  0
 37108  1  0  0  0
 38 43  2  0  0  0
 38 46  1  0  0  0
 38 47  1  0  0  0
 39 64  1  0  0  0
 39 67  2  0  0  0
 40 52  1  0  0  0
 40 53  2  0  0  0
 40 58  1  0  0  0
 41109  1  0  0  0
 41110  1  0  0  0
 41111  1  0  0  0
 41 48  1  0  0  0
 42 43  1  0  0  0
 42 66  1  0  0  0
 42112  1  0  0  0
 42113  1  0  0  0
 43 44  1  0  0  0
 44114  1  0  0  0
 45 46  2  0  0  0
 45115  1  0  0  0
 46116  1  0  0  0
 47117  1  0  0  0
 47118  1  0  0  0
 48 56  1  0  0  0
 48 65  1  0  0  0
 48119  1  0  0  0
 49 50  1  0  0  0
 49 53  1  0  0  0
 49 64  1  0  0  0
 49120  1  0  0  0
 50 51  1  0  0  0
 50121  1  0  0  0
 50122  1  0  0  0
 51 52  1  0  0  0
 51123  1  0  0  0
 51124  1  0  0  0
 52125  1  0  0  0
 52126  1  0  0  0
 53 54  1  0  0  0
 54 55  2  0  0  0
 54127  1  0  0  0
 55 57  1  0  0  0
 55128  1  0  0  0
 56 69  2  0  0  0
 57 58  2  0  0  0
 57129  1  0  0  0
 58130  1  0  0  0
 59 60  1  0  0  0
 59 61  1  0  0  0
 59 62  1  0  0  0
 60131  1  0  0  0
 60132  1  0  0  0
 60133  1  0  0  0
 61134  1  0  0  0
 61135  1  0  0  0
 61136  1  0  0  0
 62137  1  0  0  0
 62138  1  0  0  0
 62139  1  0  0  0
 63 65  1  0  0  0
 63140  1  0  0  0
 63141  1  0  0  0
 63142  1  0  0  0
 64143  1  0  0  0
 65144  1  0  0  0
 68 81  1  0  0  0
 71 74  2  0  0  0
 71 75  1  0  0  0
 71145  1  0  0  0
 72 74  1  0  0  0
 72 76  2  0  0  0
 72146  1  0  0  0
 73 75  2  0  0  0
 73 76  1  0  0  0
 73 78  1  0  0  0
 74 83  1  0  0  0
 75 82  1  0  0  0
 76 85  1  0  0  0
 77 79  1  0  0  0
 77 82  1  0  0  0
 77 84  2  0  0  0
 78147  1  0  0  0
 78148  1  0  0  0
 78149  1  0  0  0
 79 80  1  0  0  0
 79150  1  0  0  0
 79151  1  0  0  0
 80 81  1  0  0  0
 80152  1  0  0  0
 80153  1  0  0  0
 81154  1  0  0  0
 81155  1  0  0  0
 82156  1  0  0  0
 83157  1  0  0  0
M  ISO  4   1 100  68 101  81 101  83 100
M  END
> <chiral flag>
0

> <version>
0

> <s_m_source_file>
/data/baiqing/PycharmProjects/Reinvent-master-3.2/result/LINK_invent/BTK/process_docking_weight1_custom_product_contain_oxygen_bond_distance_aromatic_linkinvent_7_9_3/rearranged_h_0062.sdf

> <i_m_source_file_index>
84

> <r_mmod_Potential_Energy-OPLS-2005>
9.05043506622314

> <r_mmod_Stretch_Energy-OPLS-2005>
62.8039703369141

> <r_mmod_Bend_Energy-OPLS-2005>
131.006454467773

> <r_mmod_Torsional_Energy-OPLS-2005>
262.756042480469

> <r_mmod_Improper_Torsional_Energy-OPLS-2005>
6.60676527023315

> <r_mmod_Van_der_Waal_Energy-OPLS-2005>
148.134582519531

> <r_mmod_Electrostatic_Energy-OPLS-2005>
-403.952056884766

> <r_mmod_Solvation_Energy-OPLS-2005>
-230.674926757812

> <b_mmod_Minimization_Converged-OPLS-2005>
0

> <r_mmod_RMS_Derivative-OPLS-2005>
4.88745355606079

$$$$
84
                    3D
 Structure written by MMmdl.
161170  0  0  1  0            999 V2000
  -30.6241  -14.6321   20.4989 C   0  0  0  0  0  0
  -30.4360  -12.3869   19.4524 C   0  0  0  0  0  0
  -29.5077  -12.5127   18.2241 C   0  0  0  0  0  0
  -28.0301  -12.3522   18.6342 C   0  0  0  0  0  0
  -27.6550  -13.2182   19.8665 C   0  0  2  0  0  0
  -28.6985  -13.0643   20.9957 C   0  0  0  0  0  0
  -25.2567  -13.8176   20.5698 C   0  0  0  0  0  0
  -24.1828  -13.0443   20.9187 C   0  0  0  0  0  0
  -24.6395  -11.6912   20.8734 C   0  0  0  0  0  0
  -23.9064  -10.4296   21.0401 C   0  0  0  0  0  0
  -24.3614   -9.4212   21.9179 C   0  0  0  0  0  0
  -23.6290   -8.2246   22.0752 C   0  0  0  0  0  0
  -22.4271   -8.0285   21.3548 C   0  0  0  0  0  0
  -21.9906   -9.0257   20.4650 C   0  0  0  0  0  0
  -22.7235  -10.2135   20.3053 C   0  0  0  0  0  0
  -21.6853   -6.0737   22.5280 C   0  0  0  0  0  0
  -21.4015   -6.5638   23.8212 C   0  0  0  0  0  0
  -21.3658   -5.6793   24.9175 C   0  0  0  0  0  0
  -21.6042   -4.3056   24.7224 C   0  0  0  0  0  0
  -21.8819   -3.8148   23.4346 C   0  0  0  0  0  0
  -21.9194   -4.6967   22.3404 C   0  0  0  0  0  0
  -22.7849  -13.5238   21.1851 C   0  0  0  0  0  0
  -22.1662   -4.2155   21.0982 F   0  0  0  0  0  0
  -21.5627   -3.4539   25.7734 F   0  0  0  0  0  0
  -30.0162  -13.4052   20.4361 N   0  0  0  0  0  0
  -26.2995  -12.9360   20.3331 N   0  0  0  0  0  0
  -25.9325  -11.6512   20.5746 N   0  0  0  0  0  0
  -22.0484  -12.8233   22.0407 N   0  0  0  0  0  0
  -25.4286  -15.1898   20.4145 N   0  0  0  0  0  0
  -31.7793  -14.7954   20.0966 O   0  0  0  0  0  0
  -21.6638   -6.8877   21.4240 O   0  0  0  0  0  0
  -22.3539  -14.5547   20.6701 O   0  0  0  0  0  0
  -24.6252  -31.8596   23.2027 C   0  0  0  0  0  0
  -25.9110  -32.4772   23.8349 C   0  0  1  0  0  0
  -27.2271  -27.3279   20.1247 C   0  0  0  0  0  0
  -25.5936  -33.8572   24.2286 N   0  0  0  0  0  0
  -23.4182  -30.4818   21.5447 C   0  0  2  0  0  0
  -24.8663  -28.9343   20.1143 C   0  0  0  0  0  0
  -22.7467  -29.4619   22.4945 C   0  0  0  0  0  0
  -18.0284  -28.1378   22.8482 C   0  0  0  0  0  0
  -24.1488  -36.7284   23.2634 C   0  0  0  0  0  0
  -25.9575  -30.7936   21.3722 C   0  0  0  0  0  0
  -26.0333  -29.4202   20.7181 C   0  0  0  0  0  0
  -27.2186  -28.6289   20.7116 C   0  0  0  0  0  0
  -26.0423  -26.8916   19.4935 C   0  0  0  0  0  0
  -24.8717  -27.6745   19.4935 C   0  0  0  0  0  0
  -23.6330  -29.8130   20.1611 C   0  0  0  0  0  0
  -25.4110  -36.3076   24.0329 C   0  0  1  0  0  0
  -20.5883  -28.3681   23.1285 C   0  0  2  0  0  0
  -20.6770  -26.9403   22.5413 C   0  0  0  0  0  0
  -19.5754  -26.6381   21.5206 C   0  0  0  0  0  0
  -18.1930  -26.7927   22.1611 C   0  0  0  0  0  0
  -19.1537  -28.8848   23.2878 C   0  0  0  0  0  0
  -18.9462  -30.1453   23.8890 C   0  0  0  0  0  0
  -17.6461  -30.6584   24.0558 C   0  0  0  0  0  0
  -25.9047  -34.9446   23.5105 C   0  0  0  0  0  0
  -16.5352  -29.9078   23.6328 C   0  0  0  0  0  0
  -16.7274  -28.6496   23.0351 C   0  0  0  0  0  0
  -26.4502  -31.6572   25.0713 C   0  0  0  0  0  0
  -25.3743  -31.3723   26.1449 C   0  0  0  0  0  0
  -27.0325  -30.2990   24.6156 C   0  0  0  0  0  0
  -27.6073  -32.4291   25.7481 C   0  0  0  0  0  0
  -27.5582  -37.1791   24.8459 C   0  0  0  0  0  0
  -21.4183  -29.3036   22.3684 N   0  0  0  0  0  0
  -26.4289  -37.3771   23.9410 N   0  0  0  0  0  0
  -24.6855  -31.0617   22.0971 N   0  0  0  0  0  0
  -23.4193  -28.8156   23.3020 O   0  0  0  0  0  0
  -28.3521  -26.4962   20.1314 O   0  0  0  0  0  0
  -26.5604  -34.8912   22.4663 O   0  0  0  0  0  0
  -23.5421  -32.1392   23.7365 O   0  0  0  0  0  0
  -29.4787  -19.4549   21.4458 C   0  0  0  0  0  0
  -30.2840  -19.0705   19.2161 C   0  0  0  0  0  0
  -29.4836  -18.0417   21.6808 C   0  0  0  0  0  0
  -29.9109  -20.0181   20.2163 C   0  0  0  0  0  0
  -29.9190  -17.1101   20.6893 C   0  0  0  0  0  0
  -30.2922  -17.6637   19.4361 C   0  0  0  0  0  0
  -31.2509  -21.9434   19.5433 C   0  0  0  0  0  0
  -31.4301  -23.4234   19.1736 C   0  0  0  0  0  0
  -30.5802  -24.3883   20.0011 C   0  0  0  0  0  0
  -29.0107  -22.4761   20.4690 C   0  0  0  0  0  0
  -29.1138  -23.9790   19.9234 C   0  0  1  0  0  0
  -29.0259  -17.5296   23.0359 C   0  0  0  0  0  0
  -28.1868  -25.0940   20.5796 C   0  0  0  0  0  0
  -30.0491  -21.4763   19.9983 N   0  0  0  0  0  0
  -29.8463  -15.6688   20.9384 N   0  0  0  0  0  0
  -32.2409  -21.2199   19.3832 O   0  0  0  0  0  0
  -30.6267  -16.8482   18.4071 F   0  0  0  0  0  0
  -31.4784  -12.5070   19.1520 H   0  0  0  0  0  0
  -30.3643  -11.3894   19.8878 H   0  0  0  0  0  0
  -29.7704  -11.7667   17.4729 H   0  0  0  0  0  0
  -29.6541  -13.4859   17.7523 H   0  0  0  0  0  0
  -27.8628  -11.2985   18.8599 H   0  0  0  0  0  0
  -27.3776  -12.5902   17.7934 H   0  0  0  0  0  0
  -27.6768  -14.2555   19.5319 H   0  0  0  0  0  0
  -28.7063  -12.0402   21.3719 H   0  0  0  0  0  0
  -28.4428  -13.6906   21.8514 H   0  0  0  0  0  0
  -25.2756   -9.5691   22.4756 H   0  0  0  0  0  0
  -24.0006   -7.4637   22.7469 H   0  0  0  0  0  0
  -21.0838   -8.8774   19.8954 H   0  0  0  0  0  0
  -22.3690  -10.9674   19.6163 H   0  0  0  0  0  0
  -21.2006   -7.6144   23.9717 H   0  0  0  0  0  0
  -21.1478   -6.0521   25.9079 H   0  0  0  0  0  0
  -22.0597   -2.7612   23.2844 H   0  0  0  0  0  0
  -22.4085  -11.9891   22.4800 H   0  0  0  0  0  0
  -21.1104  -13.1273   22.2605 H   0  0  0  0  0  0
  -24.6627  -15.8450   20.5272 H   0  0  0  0  0  0
  -26.2816  -15.6311   20.0948 H   0  0  0  0  0  0
  -26.7172  -32.5452   23.1093 H   0  0  0  0  0  0
  -25.0118  -33.9716   25.0458 H   0  0  0  0  0  0
  -22.7114  -31.3016   21.4004 H   0  0  0  0  0  0
  -23.3751  -35.9615   23.3295 H   0  0  0  0  0  0
  -24.3585  -36.8904   22.2049 H   0  0  0  0  0  0
  -23.7239  -37.6487   23.6653 H   0  0  0  0  0  0
  -26.0870  -31.5566   20.6031 H   0  0  0  0  0  0
  -26.8386  -30.8439   22.0002 H   0  0  0  0  0  0
  -28.1167  -28.9988   21.1862 H   0  0  0  0  0  0
  -26.0146  -25.9328   18.9956 H   0  0  0  0  0  0
  -23.9790  -27.2987   19.0125 H   0  0  0  0  0  0
  -23.7496  -30.5868   19.4012 H   0  0  0  0  0  0
  -22.7544  -29.2386   19.8620 H   0  0  0  0  0  0
  -25.1287  -36.1925   25.0821 H   0  0  0  0  0  0
  -20.9975  -28.3253   24.1406 H   0  0  0  0  0  0
  -20.5659  -26.2287   23.3608 H   0  0  0  0  0  0
  -21.6642  -26.7427   22.1216 H   0  0  0  0  0  0
  -19.6912  -25.6290   21.1240 H   0  0  0  0  0  0
  -19.6699  -27.3185   20.6730 H   0  0  0  0  0  0
  -17.4205  -26.6683   21.4006 H   0  0  0  0  0  0
  -18.0322  -26.0063   22.8999 H   0  0  0  0  0  0
  -19.7939  -30.7269   24.2253 H   0  0  0  0  0  0
  -17.5018  -31.6264   24.5157 H   0  0  0  0  0  0
  -15.5351  -30.2976   23.7656 H   0  0  0  0  0  0
  -15.8674  -28.0809   22.7071 H   0  0  0  0  0  0
  -24.5934  -30.7040   25.7803 H   0  0  0  0  0  0
  -24.8913  -32.2891   26.4835 H   0  0  0  0  0  0
  -25.8082  -30.8948   27.0243 H   0  0  0  0  0  0
  -26.2883  -29.6753   24.1191 H   0  0  0  0  0  0
  -27.4032  -29.7234   25.4648 H   0  0  0  0  0  0
  -27.8754  -30.4265   23.9360 H   0  0  0  0  0  0
  -27.2704  -33.3596   26.2058 H   0  0  0  0  0  0
  -28.3890  -32.6834   25.0312 H   0  0  0  0  0  0
  -28.0730  -31.8409   26.5398 H   0  0  0  0  0  0
  -28.2592  -38.0094   24.7514 H   0  0  0  0  0  0
  -28.1083  -36.2626   24.6266 H   0  0  0  0  0  0
  -27.2306  -37.1425   25.8864 H   0  0  0  0  0  0
  -20.9355  -29.8758   21.6897 H   0  0  0  0  0  0
  -26.0171  -38.2845   24.1417 H   0  0  0  0  0  0
  -29.1764  -20.1198   22.2429 H   0  0  0  0  0  0
  -30.5984  -19.4227   18.2445 H   0  0  0  0  0  0
  -31.1876  -23.5307   18.1160 H   0  0  0  0  0  0
  -32.4823  -23.6911   19.2737 H   0  0  0  0  0  0
  -30.7127  -25.4020   19.6210 H   0  0  0  0  0  0
  -30.9184  -24.3989   21.0386 H   0  0  0  0  0  0
  -28.0227  -22.0784   20.2360 H   0  0  0  0  0  0
  -29.0704  -22.5032   21.5574 H   0  0  0  0  0  0
  -28.8388  -23.9514   18.8677 H   0  0  0  0  0  0
  -28.8240  -18.3465   23.7293 H   0  0  0  0  0  0
  -29.7932  -16.8980   23.4849 H   0  0  0  0  0  0
  -28.1132  -16.9422   22.9331 H   0  0  0  0  0  0
  -28.3723  -25.0965   21.6544 H   0  0  0  0  0  0
  -27.1542  -24.7608   20.4825 H   0  0  0  0  0  0
  -29.0131  -15.3688   21.4184 H   0  0  0  0  0  0
  1 25  1  0  0  0
  1 30  2  0  0  0
  1 85  1  0  0  0
  2  3  1  0  0  0
  2 25  1  0  0  0
  2 88  1  0  0  0
  2 89  1  0  0  0
  3  4  1  0  0  0
  3 90  1  0  0  0
  3 91  1  0  0  0
  4  5  1  0  0  0
  4 92  1  0  0  0
  4 93  1  0  0  0
  5  6  1  0  0  0
  5 26  1  0  0  0
  5 94  1  0  0  0
  6 25  1  0  0  0
  6 95  1  0  0  0
  6 96  1  0  0  0
  7  8  2  0  0  0
  7 26  1  0  0  0
  7 29  1  0  0  0
  8  9  1  0  0  0
  8 22  1  0  0  0
  9 10  1  0  0  0
  9 27  2  0  0  0
 10 11  2  0  0  0
 10 15  1  0  0  0
 11 12  1  0  0  0
 11 97  1  0  0  0
 12 13  2  0  0  0
 12 98  1  0  0  0
 13 14  1  0  0  0
 13 31  1  0  0  0
 14 15  2  0  0  0
 14 99  1  0  0  0
 15100  1  0  0  0
 16 17  2  0  0  0
 16 21  1  0  0  0
 16 31  1  0  0  0
 17 18  1  0  0  0
 17101  1  0  0  0
 18 19  2  0  0  0
 18102  1  0  0  0
 19 20  1  0  0  0
 19 24  1  0  0  0
 20 21  2  0  0  0
 20103  1  0  0  0
 21 23  1  0  0  0
 22 28  1  0  0  0
 22 32  2  0  0  0
 26 27  1  0  0  0
 28104  1  0  0  0
 28105  1  0  0  0
 29106  1  0  0  0
 29107  1  0  0  0
 33 34  1  0  0  0
 33 66  1  0  0  0
 33 70  2  0  0  0
 34 36  1  0  0  0
 34 59  1  0  0  0
 34108  1  0  0  0
 35 44  2  0  0  0
 35 45  1  0  0  0
 35 68  1  0  0  0
 36 56  1  0  0  0
 36109  1  0  0  0
 37 39  1  0  0  0
 37 47  1  0  0  0
 37 66  1  0  0  0
 37110  1  0  0  0
 38 43  2  0  0  0
 38 46  1  0  0  0
 38 47  1  0  0  0
 39 64  1  0  0  0
 39 67  2  0  0  0
 40 52  1  0  0  0
 40 53  2  0  0  0
 40 58  1  0  0  0
 41111  1  0  0  0
 41112  1  0  0  0
 41113  1  0  0  0
 41 48  1  0  0  0
 42 43  1  0  0  0
 42 66  1  0  0  0
 42114  1  0  0  0
 42115  1  0  0  0
 43 44  1  0  0  0
 44116  1  0  0  0
 45 46  2  0  0  0
 45117  1  0  0  0
 46118  1  0  0  0
 47119  1  0  0  0
 47120  1  0  0  0
 48 56  1  0  0  0
 48 65  1  0  0  0
 48121  1  0  0  0
 49 50  1  0  0  0
 49 53  1  0  0  0
 49 64  1  0  0  0
 49122  1  0  0  0
 50 51  1  0  0  0
 50123  1  0  0  0
 50124  1  0  0  0
 51 52  1  0  0  0
 51125  1  0  0  0
 51126  1  0  0  0
 52127  1  0  0  0
 52128  1  0  0  0
 53 54  1  0  0  0
 54 55  2  0  0  0
 54129  1  0  0  0
 55 57  1  0  0  0
 55130  1  0  0  0
 56 69  2  0  0  0
 57 58  2  0  0  0
 57131  1  0  0  0
 58132  1  0  0  0
 59 60  1  0  0  0
 59 61  1  0  0  0
 59 62  1  0  0  0
 60133  1  0  0  0
 60134  1  0  0  0
 60135  1  0  0  0
 61136  1  0  0  0
 61137  1  0  0  0
 61138  1  0  0  0
 62139  1  0  0  0
 62140  1  0  0  0
 62141  1  0  0  0
 63 65  1  0  0  0
 63142  1  0  0  0
 63143  1  0  0  0
 63144  1  0  0  0
 64145  1  0  0  0
 65146  1  0  0  0
 68 83  1  0  0  0
 71 73  2  0  0  0
 71 74  1  0  0  0
 71147  1  0  0  0
 72 74  2  0  0  0
 72 76  1  0  0  0
 72148  1  0  0  0
 73 75  1  0  0  0
 73 82  1  0  0  0
 74 84  1  0  0  0
 75 76  2  0  0  0
 75 85  1  0  0  0
 76 87  1  0  0  0
 77 78  1  0  0  0
 77 84  1  0  0  0
 77 86  2  0  0  0
 78 79  1  0  0  0
 78149  1  0  0  0
 78150  1  0  0  0
 79 81  1  0  0  0
 79151  1  0  0  0
 79152  1  0  0  0
 80 81  1  0  0  0
 80 84  1  0  0  0
 80153  1  0  0  0
 80154  1  0  0  0
 81 83  1  0  0  0
 81155  1  0  0  0
 82156  1  0  0  0
 82157  1  0  0  0
 82158  1  0  0  0
 83159  1  0  0  0
 83160  1  0  0  0
 85161  1  0  0  0
M  ISO  4   1 100  68 101  83 101  85 100
M  END
> <chiral flag>
0

> <version>
0

> <s_m_source_file>
/data/baiqing/PycharmProjects/Reinvent-master-3.2/result/LINK_invent/BTK/process_docking_weight1_custom_product_contain_oxygen_bond_distance_aromatic_linkinvent_7_9_3/rearranged_h_0062.sdf

> <i_m_source_file_index>
85

> <r_mmod_Potential_Energy-OPLS-2005>
119.301200866699

> <r_mmod_Stretch_Energy-OPLS-2005>
87.0117263793945

> <r_mmod_Bend_Energy-OPLS-2005>
132.386535644531

> <r_mmod_Torsional_Energy-OPLS-2005>
300.284332275391

> <r_mmod_Improper_Torsional_Energy-OPLS-2005>
3.71174669265747

> <r_mmod_Van_der_Waal_Energy-OPLS-2005>
155.269409179688

> <r_mmod_Electrostatic_Energy-OPLS-2005>
-375.887634277344

> <r_mmod_Solvation_Energy-OPLS-2005>
-227.099044799805

> <b_mmod_Minimization_Converged-OPLS-2005>
0

> <r_mmod_RMS_Derivative-OPLS-2005>
0.695763826370239

$$$$
85
                    3D
 Structure written by MMmdl.
154162  0  0  1  0            999 V2000
  -30.7034  -14.4774   20.5794 C   0  0  0  0  0  0
  -30.4215  -12.3095   19.4173 C   0  0  0  0  0  0
  -29.5020  -12.5132   18.1973 C   0  0  0  0  0  0
  -28.0197  -12.3746   18.6029 C   0  0  0  0  0  0
  -27.6602  -13.2108   19.8630 C   0  0  2  0  0  0
  -28.7002  -12.9932   20.9835 C   0  0  0  0  0  0
  -25.2613  -13.8180   20.5629 C   0  0  0  0  0  0
  -24.1885  -13.0456   20.9169 C   0  0  0  0  0  0
  -24.6441  -11.6922   20.8722 C   0  0  0  0  0  0
  -23.9090  -10.4311   21.0384 C   0  0  0  0  0  0
  -24.3632   -9.4235   21.9167 C   0  0  0  0  0  0
  -23.6311   -8.2274   22.0762 C   0  0  0  0  0  0
  -22.4285   -8.0307   21.3566 C   0  0  0  0  0  0
  -21.9913   -9.0277   20.4664 C   0  0  0  0  0  0
  -22.7249  -10.2151   20.3044 C   0  0  0  0  0  0
  -21.6877   -6.0751   22.5282 C   0  0  0  0  0  0
  -21.4034   -6.5651   23.8218 C   0  0  0  0  0  0
  -21.3649   -5.6791   24.9179 C   0  0  0  0  0  0
  -21.6036   -4.3052   24.7215 C   0  0  0  0  0  0
  -21.8827   -3.8155   23.4336 C   0  0  0  0  0  0
  -21.9209   -4.6980   22.3401 C   0  0  0  0  0  0
  -22.7892  -13.5240   21.1804 C   0  0  0  0  0  0
  -22.1670   -4.2160   21.0979 F   0  0  0  0  0  0
  -21.5607   -3.4538   25.7734 F   0  0  0  0  0  0
  -30.0294  -13.3025   20.4314 N   0  0  0  0  0  0
  -26.3036  -12.9344   20.3264 N   0  0  0  0  0  0
  -25.9353  -11.6507   20.5723 N   0  0  0  0  0  0
  -22.0529  -12.8260   22.0367 N   0  0  0  0  0  0
  -25.4343  -15.1893   20.3992 N   0  0  0  0  0  0
  -31.8409  -14.6553   20.1347 O   0  0  0  0  0  0
  -21.6662   -6.8893   21.4250 O   0  0  0  0  0  0
  -22.3563  -14.5513   20.6621 O   0  0  0  0  0  0
  -24.6171  -31.8669   23.2116 C   0  0  0  0  0  0
  -25.9051  -32.4815   23.8417 C   0  0  1  0  0  0
  -27.2247  -27.4017   20.0995 C   0  0  0  0  0  0
  -25.5903  -33.8622   24.2328 N   0  0  0  0  0  0
  -23.4070  -30.4918   21.5524 C   0  0  2  0  0  0
  -24.8507  -28.9633   20.1117 C   0  0  0  0  0  0
  -22.7434  -29.4638   22.4973 C   0  0  0  0  0  0
  -18.0274  -28.1377   22.8481 C   0  0  0  0  0  0
  -24.1475  -36.7312   23.2637 C   0  0  0  0  0  0
  -25.9412  -30.8192   21.3759 C   0  0  0  0  0  0
  -26.0141  -29.4552   20.7157 C   0  0  0  0  0  0
  -27.2027  -28.6829   20.7080 C   0  0  0  0  0  0
  -26.0405  -26.9440   19.4695 C   0  0  0  0  0  0
  -24.8614  -27.7092   19.4845 C   0  0  0  0  0  0
  -23.6158  -29.8349   20.1651 C   0  0  0  0  0  0
  -25.4105  -36.3120   24.0334 C   0  0  1  0  0  0
  -20.5869  -28.3670   23.1295 C   0  0  2  0  0  0
  -20.6764  -26.9403   22.5401 C   0  0  0  0  0  0
  -19.5741  -26.6383   21.5197 C   0  0  0  0  0  0
  -18.1924  -26.7917   22.1617 C   0  0  0  0  0  0
  -19.1526  -28.8841   23.2882 C   0  0  0  0  0  0
  -18.9457  -30.1446   23.8890 C   0  0  0  0  0  0
  -17.6459  -30.6578   24.0560 C   0  0  0  0  0  0
  -25.9042  -34.9478   23.5132 C   0  0  0  0  0  0
  -16.5346  -29.9078   23.6329 C   0  0  0  0  0  0
  -16.7263  -28.6500   23.0339 C   0  0  0  0  0  0
  -26.4478  -31.6618   25.0762 C   0  0  0  0  0  0
  -25.3736  -31.3731   26.1508 C   0  0  0  0  0  0
  -27.0330  -30.3058   24.6177 C   0  0  0  0  0  0
  -27.6057  -32.4360   25.7517 C   0  0  0  0  0  0
  -27.5583  -37.1809   24.8464 C   0  0  0  0  0  0
  -21.4160  -29.3039   22.3716 N   0  0  0  0  0  0
  -26.4288  -37.3810   23.9412 N   0  0  0  0  0  0
  -24.6729  -31.0745   22.1039 N   0  0  0  0  0  0
  -23.4193  -28.8173   23.3023 O   0  0  0  0  0  0
  -28.3762  -26.6247   20.1513 O   0  0  0  0  0  0
  -26.5612  -34.8934   22.4701 O   0  0  0  0  0  0
  -23.5358  -32.1439   23.7483 O   0  0  0  0  0  0
  -31.4865  -17.0371   22.2820 C   0  0  0  0  0  0
  -31.8951  -18.3429   22.6124 C   0  0  0  0  0  0
  -29.8118  -17.9779   20.7829 C   0  0  0  0  0  0
  -30.2543  -19.3096   21.0567 C   0  0  0  0  0  0
  -30.4361  -16.8371   21.3621 C   0  0  0  0  0  0
  -31.2983  -19.4705   22.0086 C   0  0  0  0  0  0
  -29.1891  -22.8238   20.1140 C   0  0  0  0  0  0
  -29.6591  -20.4945   20.3128 C   0  0  0  0  0  0
  -29.3469  -24.3038   20.4983 C   0  0  0  0  0  0
  -28.2295  -25.2039   19.9026 C   0  0  0  0  0  0
  -29.6920  -21.8119   20.7427 N   0  0  0  0  0  0
  -29.9793  -15.5054   21.0781 N   0  0  0  0  0  0
  -29.1443  -20.2065   19.1480 N   0  3  0  0  0  0
  -31.7702  -20.6987   22.3466 F   0  0  0  0  0  0
  -31.4683  -12.4022   19.1244 H   0  0  0  0  0  0
  -30.3066  -11.2953   19.8092 H   0  0  0  0  0  0
  -29.7447  -11.7946   17.4137 H   0  0  0  0  0  0
  -29.6765  -13.5009   17.7671 H   0  0  0  0  0  0
  -27.8260  -11.3180   18.7901 H   0  0  0  0  0  0
  -27.3768  -12.6578   17.7672 H   0  0  0  0  0  0
  -27.6994  -14.2581   19.5644 H   0  0  0  0  0  0
  -28.6783  -11.9559   21.3196 H   0  0  0  0  0  0
  -28.4585  -13.5928   21.8618 H   0  0  0  0  0  0
  -25.2795   -9.5716   22.4723 H   0  0  0  0  0  0
  -24.0046   -7.4665   22.7469 H   0  0  0  0  0  0
  -21.0837   -8.8780   19.8965 H   0  0  0  0  0  0
  -22.3710  -10.9678   19.6129 H   0  0  0  0  0  0
  -21.2062   -7.6167   23.9723 H   0  0  0  0  0  0
  -21.1434   -6.0527   25.9073 H   0  0  0  0  0  0
  -22.0620   -2.7618   23.2840 H   0  0  0  0  0  0
  -22.4095  -11.9941   22.4823 H   0  0  0  0  0  0
  -21.1137  -13.1285   22.2483 H   0  0  0  0  0  0
  -24.6708  -15.8476   20.5099 H   0  0  0  0  0  0
  -26.2797  -15.6245   20.0543 H   0  0  0  0  0  0
  -26.7125  -32.5504   23.1176 H   0  0  0  0  0  0
  -25.0047  -33.9811   25.0471 H   0  0  0  0  0  0
  -22.6960  -31.3107   21.4167 H   0  0  0  0  0  0
  -23.3750  -35.9632   23.3293 H   0  0  0  0  0  0
  -24.3573  -36.8939   22.2059 H   0  0  0  0  0  0
  -23.7217  -37.6503   23.6663 H   0  0  0  0  0  0
  -26.0697  -31.5874   20.6119 H   0  0  0  0  0  0
  -26.8221  -30.8621   22.0038 H   0  0  0  0  0  0
  -28.0974  -29.0534   21.1899 H   0  0  0  0  0  0
  -25.9960  -25.9942   18.9581 H   0  0  0  0  0  0
  -23.9712  -27.3282   19.0032 H   0  0  0  0  0  0
  -23.7328  -30.6144   19.4116 H   0  0  0  0  0  0
  -22.7359  -29.2633   19.8627 H   0  0  0  0  0  0
  -25.1281  -36.1986   25.0828 H   0  0  0  0  0  0
  -20.9959  -28.3223   24.1417 H   0  0  0  0  0  0
  -20.5667  -26.2282   23.3591 H   0  0  0  0  0  0
  -21.6635  -26.7442   22.1191 H   0  0  0  0  0  0
  -19.6914  -25.6293   21.1228 H   0  0  0  0  0  0
  -19.6678  -27.3194   20.6723 H   0  0  0  0  0  0
  -17.4191  -26.6653   21.4017 H   0  0  0  0  0  0
  -18.0333  -26.0047   22.9017 H   0  0  0  0  0  0
  -19.7936  -30.7262   24.2251 H   0  0  0  0  0  0
  -17.5014  -31.6262   24.5159 H   0  0  0  0  0  0
  -15.5349  -30.2985   23.7647 H   0  0  0  0  0  0
  -15.8659  -28.0823   22.7049 H   0  0  0  0  0  0
  -24.5841  -30.7174   25.7811 H   0  0  0  0  0  0
  -24.9017  -32.2903   26.5051 H   0  0  0  0  0  0
  -25.8065  -30.8791   27.0217 H   0  0  0  0  0  0
  -26.2897  -29.6803   24.1208 H   0  0  0  0  0  0
  -27.4061  -29.7321   25.4674 H   0  0  0  0  0  0
  -27.8755  -30.4378   23.9381 H   0  0  0  0  0  0
  -27.2649  -33.3617   26.2175 H   0  0  0  0  0  0
  -28.3804  -32.7001   25.0301 H   0  0  0  0  0  0
  -28.0793  -31.8447   26.5361 H   0  0  0  0  0  0
  -28.2592  -38.0116   24.7534 H   0  0  0  0  0  0
  -28.1086  -36.2651   24.6250 H   0  0  0  0  0  0
  -27.2306  -37.1410   25.8868 H   0  0  0  0  0  0
  -20.9322  -29.8788   21.6955 H   0  0  0  0  0  0
  -26.0170  -38.2881   24.1437 H   0  0  0  0  0  0
  -31.9729  -16.1917   22.7523 H   0  0  0  0  0  0
  -32.6919  -18.4865   23.3285 H   0  0  0  0  0  0
  -28.9918  -17.8252   20.1019 H   0  0  0  0  0  0
  -28.5957  -22.6951   19.2045 H   0  0  0  0  0  0
  -30.3178  -24.6445   20.1393 H   0  0  0  0  0  0
  -29.3597  -24.4009   21.5827 H   0  0  0  0  0  0
  -27.2881  -24.8409   20.3218 H   0  0  0  0  0  0
  -28.1795  -25.0548   18.8228 H   0  0  0  0  0  0
  -29.0043  -15.3076   21.2447 H   0  0  0  0  0  0
  -29.1775  -19.2671   18.7619 H   0  0  0  0  0  0
  -28.7431  -20.8938   18.5191 H   0  0  0  0  0  0
  1 25  1  0  0  0
  1 30  2  0  0  0
  1 82  1  0  0  0
  2  3  1  0  0  0
  2 25  1  0  0  0
  2 85  1  0  0  0
  2 86  1  0  0  0
  3  4  1  0  0  0
  3 87  1  0  0  0
  3 88  1  0  0  0
  4  5  1  0  0  0
  4 89  1  0  0  0
  4 90  1  0  0  0
  5  6  1  0  0  0
  5 26  1  0  0  0
  5 91  1  0  0  0
  6 25  1  0  0  0
  6 92  1  0  0  0
  6 93  1  0  0  0
  7  8  2  0  0  0
  7 26  1  0  0  0
  7 29  1  0  0  0
  8  9  1  0  0  0
  8 22  1  0  0  0
  9 10  1  0  0  0
  9 27  2  0  0  0
 10 11  2  0  0  0
 10 15  1  0  0  0
 11 12  1  0  0  0
 11 94  1  0  0  0
 12 13  2  0  0  0
 12 95  1  0  0  0
 13 14  1  0  0  0
 13 31  1  0  0  0
 14 15  2  0  0  0
 14 96  1  0  0  0
 15 97  1  0  0  0
 16 17  2  0  0  0
 16 21  1  0  0  0
 16 31  1  0  0  0
 17 18  1  0  0  0
 17 98  1  0  0  0
 18 19  2  0  0  0
 18 99  1  0  0  0
 19 20  1  0  0  0
 19 24  1  0  0  0
 20 21  2  0  0  0
 20100  1  0  0  0
 21 23  1  0  0  0
 22 28  1  0  0  0
 22 32  2  0  0  0
 26 27  1  0  0  0
 28101  1  0  0  0
 28102  1  0  0  0
 29103  1  0  0  0
 29104  1  0  0  0
 33 34  1  0  0  0
 33 66  1  0  0  0
 33 70  2  0  0  0
 34 36  1  0  0  0
 34 59  1  0  0  0
 34105  1  0  0  0
 35 44  2  0  0  0
 35 45  1  0  0  0
 35 68  1  0  0  0
 36 56  1  0  0  0
 36106  1  0  0  0
 37 39  1  0  0  0
 37 47  1  0  0  0
 37 66  1  0  0  0
 37107  1  0  0  0
 38 43  2  0  0  0
 38 46  1  0  0  0
 38 47  1  0  0  0
 39 64  1  0  0  0
 39 67  2  0  0  0
 40 52  1  0  0  0
 40 53  2  0  0  0
 40 58  1  0  0  0
 41108  1  0  0  0
 41109  1  0  0  0
 41110  1  0  0  0
 41 48  1  0  0  0
 42 43  1  0  0  0
 42 66  1  0  0  0
 42111  1  0  0  0
 42112  1  0  0  0
 43 44  1  0  0  0
 44113  1  0  0  0
 45 46  2  0  0  0
 45114  1  0  0  0
 46115  1  0  0  0
 47116  1  0  0  0
 47117  1  0  0  0
 48 56  1  0  0  0
 48 65  1  0  0  0
 48118  1  0  0  0
 49 50  1  0  0  0
 49 53  1  0  0  0
 49 64  1  0  0  0
 49119  1  0  0  0
 50 51  1  0  0  0
 50120  1  0  0  0
 50121  1  0  0  0
 51 52  1  0  0  0
 51122  1  0  0  0
 51123  1  0  0  0
 52124  1  0  0  0
 52125  1  0  0  0
 53 54  1  0  0  0
 54 55  2  0  0  0
 54126  1  0  0  0
 55 57  1  0  0  0
 55127  1  0  0  0
 56 69  2  0  0  0
 57 58  2  0  0  0
 57128  1  0  0  0
 58129  1  0  0  0
 59 60  1  0  0  0
 59 61  1  0  0  0
 59 62  1  0  0  0
 60130  1  0  0  0
 60131  1  0  0  0
 60132  1  0  0  0
 61133  1  0  0  0
 61134  1  0  0  0
 61135  1  0  0  0
 62136  1  0  0  0
 62137  1  0  0  0
 62138  1  0  0  0
 63 65  1  0  0  0
 63139  1  0  0  0
 63140  1  0  0  0
 63141  1  0  0  0
 64142  1  0  0  0
 65143  1  0  0  0
 68 80  1  0  0  0
 71 72  2  0  0  0
 71 75  1  0  0  0
 71144  1  0  0  0
 72 76  1  0  0  0
 72145  1  0  0  0
 73 74  1  0  0  0
 73 75  2  0  0  0
 73146  1  0  0  0
 74 76  2  0  0  0
 74 78  1  0  0  0
 75 82  1  0  0  0
 76 84  1  0  0  0
 77 79  1  0  0  0
 77 81  2  0  0  0
 77147  1  0  0  0
 78 81  1  0  0  0
 78 83  2  0  0  0
 79 80  1  0  0  0
 79148  1  0  0  0
 79149  1  0  0  0
 80150  1  0  0  0
 80151  1  0  0  0
 82152  1  0  0  0
 83153  1  0  0  0
 83154  1  0  0  0
M  CHG  1  83   1
M  ISO  4   1 100  68 101  80 101  82 100
M  END
> <chiral flag>
0

> <version>
0

> <s_m_source_file>
/data/baiqing/PycharmProjects/Reinvent-master-3.2/result/LINK_invent/BTK/process_docking_weight1_custom_product_contain_oxygen_bond_distance_aromatic_linkinvent_7_9_3/rearranged_h_0062.sdf

> <i_m_source_file_index>
86

> <r_mmod_Potential_Energy-OPLS-2005>
68.7812576293945

> <r_mmod_Stretch_Energy-OPLS-2005>
55.9717903137207

> <r_mmod_Bend_Energy-OPLS-2005>
107.001358032227

> <r_mmod_Torsional_Energy-OPLS-2005>
227.491500854492

> <r_mmod_Improper_Torsional_Energy-OPLS-2005>
4.56215715408325

> <r_mmod_Van_der_Waal_Energy-OPLS-2005>
172.558258056641

> <r_mmod_Electrostatic_Energy-OPLS-2005>
-20.4555530548096

> <r_mmod_Solvation_Energy-OPLS-2005>
-495.973419189453

> <b_mmod_Minimization_Converged-OPLS-2005>
0

> <r_mmod_RMS_Derivative-OPLS-2005>
2.9994170665741

$$$$
86
                    3D
 Structure written by MMmdl.
163172  0  0  1  0            999 V2000
  -30.6778  -14.5792   20.5646 C   0  0  0  0  0  0
  -30.4408  -12.3711   19.4538 C   0  0  0  0  0  0
  -29.5171  -12.5207   18.2264 C   0  0  0  0  0  0
  -28.0383  -12.3626   18.6282 C   0  0  0  0  0  0
  -27.6600  -13.2160   19.8676 C   0  0  2  0  0  0
  -28.7028  -13.0419   20.9985 C   0  0  0  0  0  0
  -25.2422  -13.8071   20.5414 C   0  0  0  0  0  0
  -24.1775  -13.0366   20.9146 C   0  0  0  0  0  0
  -24.6404  -11.6873   20.8738 C   0  0  0  0  0  0
  -23.9073  -10.4279   21.0419 C   0  0  0  0  0  0
  -24.3615   -9.4206   21.9214 C   0  0  0  0  0  0
  -23.6286   -8.2241   22.0793 C   0  0  0  0  0  0
  -22.4279   -8.0274   21.3556 C   0  0  0  0  0  0
  -21.9903   -9.0254   20.4667 C   0  0  0  0  0  0
  -22.7238  -10.2131   20.3075 C   0  0  0  0  0  0
  -21.6861   -6.0721   22.5259 C   0  0  0  0  0  0
  -21.4012   -6.5617   23.8188 C   0  0  0  0  0  0
  -21.3658   -5.6767   24.9149 C   0  0  0  0  0  0
  -21.6045   -4.3033   24.7201 C   0  0  0  0  0  0
  -21.8835   -3.8138   23.4325 C   0  0  0  0  0  0
  -21.9213   -4.6956   22.3389 C   0  0  0  0  0  0
  -22.7813  -13.5201   21.1805 C   0  0  0  0  0  0
  -22.1687   -4.2145   21.0968 F   0  0  0  0  0  0
  -21.5647   -3.4525   25.7721 F   0  0  0  0  0  0
  -30.0373  -13.3714   20.4625 N   0  0  0  0  0  0
  -26.2994  -12.9342   20.3268 N   0  0  0  0  0  0
  -25.9350  -11.6499   20.5769 N   0  0  0  0  0  0
  -22.0417  -12.8268   22.0380 N   0  0  0  0  0  0
  -25.3729  -15.1723   20.3345 N   0  0  0  0  0  0
  -31.7541  -14.7997   20.0041 O   0  0  0  0  0  0
  -21.6656   -6.8866   21.4225 O   0  0  0  0  0  0
  -22.3523  -14.5514   20.6637 O   0  0  0  0  0  0
  -24.6210  -31.8642   23.2055 C   0  0  0  0  0  0
  -25.9072  -32.4791   23.8370 C   0  0  1  0  0  0
  -27.2382  -27.3768   20.1103 C   0  0  0  0  0  0
  -25.5912  -33.8593   24.2304 N   0  0  0  0  0  0
  -23.4116  -30.4866   21.5482 C   0  0  2  0  0  0
  -24.8592  -28.9470   20.1122 C   0  0  0  0  0  0
  -22.7445  -29.4647   22.4978 C   0  0  0  0  0  0
  -18.0276  -28.1414   22.8507 C   0  0  0  0  0  0
  -24.1480  -36.7294   23.2638 C   0  0  0  0  0  0
  -25.9458  -30.8126   21.3673 C   0  0  0  0  0  0
  -26.0227  -29.4443   20.7124 C   0  0  0  0  0  0
  -27.2125  -28.6692   20.7036 C   0  0  0  0  0  0
  -26.0528  -26.9133   19.4926 C   0  0  0  0  0  0
  -24.8739  -27.6848   19.4967 C   0  0  0  0  0  0
  -23.6231  -29.8205   20.1640 C   0  0  0  0  0  0
  -25.4102  -36.3088   24.0341 C   0  0  1  0  0  0
  -20.5873  -28.3695   23.1323 C   0  0  2  0  0  0
  -20.6764  -26.9423   22.5438 C   0  0  0  0  0  0
  -19.5735  -26.6408   21.5239 C   0  0  0  0  0  0
  -18.1910  -26.7964   22.1636 C   0  0  0  0  0  0
  -19.1531  -28.8873   23.2907 C   0  0  0  0  0  0
  -18.9452  -30.1486   23.8907 C   0  0  0  0  0  0
  -17.6450  -30.6602   24.0597 C   0  0  0  0  0  0
  -25.9047  -34.9454   23.5117 C   0  0  0  0  0  0
  -16.5341  -29.9110   23.6346 C   0  0  0  0  0  0
  -16.7267  -28.6542   23.0336 C   0  0  0  0  0  0
  -26.4479  -31.6589   25.0720 C   0  0  0  0  0  0
  -25.3740  -31.3723   26.1477 C   0  0  0  0  0  0
  -27.0312  -30.3014   24.6143 C   0  0  0  0  0  0
  -27.6069  -32.4315   25.7457 C   0  0  0  0  0  0
  -27.5584  -37.1789   24.8459 C   0  0  0  0  0  0
  -21.4160  -29.3045   22.3712 N   0  0  0  0  0  0
  -26.4275  -37.3788   23.9429 N   0  0  0  0  0  0
  -24.6780  -31.0702   22.0980 N   0  0  0  0  0  0
  -23.4187  -28.8177   23.3039 O   0  0  0  0  0  0
  -28.3963  -26.6019   20.1627 O   0  0  0  0  0  0
  -26.5606  -34.8913   22.4680 O   0  0  0  0  0  0
  -23.5384  -32.1430   23.7405 O   0  0  0  0  0  0
  -27.3257  -17.8676   20.4975 C   0  0  0  0  0  0
  -28.0697  -16.7700   20.9481 C   0  0  0  0  0  0
  -30.1245  -17.9847   20.5186 C   0  0  0  0  0  0
  -27.9572  -19.0366   20.0406 C   0  0  0  0  0  0
  -29.3784  -19.1615   20.1267 C   0  0  0  0  0  0
  -29.4708  -16.7605   20.8871 C   0  0  0  0  0  0
  -30.9518  -20.4417   18.7692 C   0  0  0  0  0  0
  -29.6011  -21.6302   20.3401 C   0  0  0  0  0  0
  -31.6163  -21.7471   18.2895 C   0  0  0  0  0  0
  -31.3614  -22.9589   19.1937 C   0  0  0  0  0  0
  -29.8933  -22.9985   19.6324 C   0  0  2  0  0  0
  -27.0545  -20.1104   19.4404 C   0  0  0  0  0  0
  -29.5623  -24.3527   20.3933 C   0  0  0  0  0  0
  -28.3006  -25.1639   19.9319 C   0  0  0  0  0  0
  -30.0111  -20.4406   19.7623 N   0  0  0  0  0  0
  -30.0777  -15.5253   21.3308 N   0  0  0  0  0  0
  -31.3140  -19.4087   18.1928 O   0  0  0  0  0  0
  -29.0057  -21.6592   21.4235 O   0  0  0  0  0  0
  -31.4855  -12.4764   19.1581 H   0  0  0  0  0  0
  -30.3558  -11.3686   19.8750 H   0  0  0  0  0  0
  -29.7796  -11.7815   17.4679 H   0  0  0  0  0  0
  -29.6703  -13.4996   17.7652 H   0  0  0  0  0  0
  -27.8653  -11.3078   18.8436 H   0  0  0  0  0  0
  -27.3949  -12.6115   17.7842 H   0  0  0  0  0  0
  -27.6861  -14.2555   19.5422 H   0  0  0  0  0  0
  -28.6994  -12.0116   21.3564 H   0  0  0  0  0  0
  -28.4313  -13.6459   21.8639 H   0  0  0  0  0  0
  -25.2752   -9.5710   22.4777 H   0  0  0  0  0  0
  -24.0008   -7.4666   22.7547 H   0  0  0  0  0  0
  -21.0827   -8.8786   19.8959 H   0  0  0  0  0  0
  -22.3705  -10.9681   19.6185 H   0  0  0  0  0  0
  -21.1971   -7.6111   23.9677 H   0  0  0  0  0  0
  -21.1466   -6.0497   25.9046 H   0  0  0  0  0  0
  -22.0608   -2.7592   23.2828 H   0  0  0  0  0  0
  -22.3986  -11.9951   22.4847 H   0  0  0  0  0  0
  -21.1045  -13.1359   22.2499 H   0  0  0  0  0  0
  -24.5647  -15.7831   20.3818 H   0  0  0  0  0  0
  -26.1686  -15.6008   19.8799 H   0  0  0  0  0  0
  -26.7148  -32.5478   23.1133 H   0  0  0  0  0  0
  -25.0061  -33.9750   25.0442 H   0  0  0  0  0  0
  -22.7019  -31.3042   21.4082 H   0  0  0  0  0  0
  -23.3740  -35.9630   23.3297 H   0  0  0  0  0  0
  -24.3584  -36.8913   22.2057 H   0  0  0  0  0  0
  -23.7231  -37.6494   23.6658 H   0  0  0  0  0  0
  -26.0699  -31.5764   20.5990 H   0  0  0  0  0  0
  -26.8285  -30.8621   21.9930 H   0  0  0  0  0  0
  -28.1064  -29.0488   21.1764 H   0  0  0  0  0  0
  -26.0163  -25.9487   19.0075 H   0  0  0  0  0  0
  -23.9809  -27.2982   19.0239 H   0  0  0  0  0  0
  -23.7343  -30.5961   19.4059 H   0  0  0  0  0  0
  -22.7439  -29.2461   19.8675 H   0  0  0  0  0  0
  -25.1272  -36.1953   25.0836 H   0  0  0  0  0  0
  -20.9974  -28.3273   24.1440 H   0  0  0  0  0  0
  -20.5676  -26.2291   23.3623 H   0  0  0  0  0  0
  -21.6628  -26.7473   22.1222 H   0  0  0  0  0  0
  -19.6870  -25.6322   21.1254 H   0  0  0  0  0  0
  -19.6666  -27.3233   20.6781 H   0  0  0  0  0  0
  -17.4186  -26.6756   21.4024 H   0  0  0  0  0  0
  -18.0263  -26.0110   22.9023 H   0  0  0  0  0  0
  -19.7918  -30.7327   24.2249 H   0  0  0  0  0  0
  -17.4994  -31.6272   24.5210 H   0  0  0  0  0  0
  -15.5339  -30.2997   23.7679 H   0  0  0  0  0  0
  -15.8671  -28.0880   22.7008 H   0  0  0  0  0  0
  -24.5908  -30.7059   25.7838 H   0  0  0  0  0  0
  -24.8926  -32.2880   26.4924 H   0  0  0  0  0  0
  -25.8093  -30.8907   27.0242 H   0  0  0  0  0  0
  -26.2866  -29.6751   24.1209 H   0  0  0  0  0  0
  -27.4072  -29.7289   25.4635 H   0  0  0  0  0  0
  -27.8711  -30.4304   23.9310 H   0  0  0  0  0  0
  -27.2715  -33.3614   26.2065 H   0  0  0  0  0  0
  -28.3843  -32.6882   25.0244 H   0  0  0  0  0  0
  -28.0780  -31.8422   26.5339 H   0  0  0  0  0  0
  -28.2597  -38.0091   24.7541 H   0  0  0  0  0  0
  -28.1077  -36.2633   24.6218 H   0  0  0  0  0  0
  -27.2322  -37.1394   25.8864 H   0  0  0  0  0  0
  -20.9315  -29.8745   21.6919 H   0  0  0  0  0  0
  -26.0153  -38.2856   24.1448 H   0  0  0  0  0  0
  -26.2472  -17.8036   20.4914 H   0  0  0  0  0  0
  -27.5487  -15.9028   21.3215 H   0  0  0  0  0  0
  -31.2055  -18.0207   20.5422 H   0  0  0  0  0  0
  -31.2269  -21.9546   17.2921 H   0  0  0  0  0  0
  -32.6887  -21.5883   18.1730 H   0  0  0  0  0  0
  -31.6288  -23.8691   18.6538 H   0  0  0  0  0  0
  -32.0185  -22.9206   20.0661 H   0  0  0  0  0  0
  -29.2885  -22.9941   18.7248 H   0  0  0  0  0  0
  -26.1280  -19.6780   19.0595 H   0  0  0  0  0  0
  -27.5301  -20.6127   18.5981 H   0  0  0  0  0  0
  -26.7788  -20.8561   20.1859 H   0  0  0  0  0  0
  -30.4158  -25.0202   20.2716 H   0  0  0  0  0  0
  -29.5083  -24.1904   21.4708 H   0  0  0  0  0  0
  -27.4316  -24.7542   20.4506 H   0  0  0  0  0  0
  -28.1362  -25.0088   18.8655 H   0  0  0  0  0  0
  -29.4755  -15.0489   21.9832 H   0  0  0  0  0  0
  1 25  1  0  0  0
  1 30  2  0  0  0
  1 86  1  0  0  0
  2  3  1  0  0  0
  2 25  1  0  0  0
  2 89  1  0  0  0
  2 90  1  0  0  0
  3  4  1  0  0  0
  3 91  1  0  0  0
  3 92  1  0  0  0
  4  5  1  0  0  0
  4 93  1  0  0  0
  4 94  1  0  0  0
  5  6  1  0  0  0
  5 26  1  0  0  0
  5 95  1  0  0  0
  6 25  1  0  0  0
  6 96  1  0  0  0
  6 97  1  0  0  0
  7  8  2  0  0  0
  7 26  1  0  0  0
  7 29  1  0  0  0
  8  9  1  0  0  0
  8 22  1  0  0  0
  9 10  1  0  0  0
  9 27  2  0  0  0
 10 11  2  0  0  0
 10 15  1  0  0  0
 11 12  1  0  0  0
 11 98  1  0  0  0
 12 13  2  0  0  0
 12 99  1  0  0  0
 13 14  1  0  0  0
 13 31  1  0  0  0
 14 15  2  0  0  0
 14100  1  0  0  0
 15101  1  0  0  0
 16 17  2  0  0  0
 16 21  1  0  0  0
 16 31  1  0  0  0
 17 18  1  0  0  0
 17102  1  0  0  0
 18 19  2  0  0  0
 18103  1  0  0  0
 19 20  1  0  0  0
 19 24  1  0  0  0
 20 21  2  0  0  0
 20104  1  0  0  0
 21 23  1  0  0  0
 22 28  1  0  0  0
 22 32  2  0  0  0
 26 27  1  0  0  0
 28105  1  0  0  0
 28106  1  0  0  0
 29107  1  0  0  0
 29108  1  0  0  0
 33 34  1  0  0  0
 33 66  1  0  0  0
 33 70  2  0  0  0
 34 36  1  0  0  0
 34 59  1  0  0  0
 34109  1  0  0  0
 35 44  2  0  0  0
 35 45  1  0  0  0
 35 68  1  0  0  0
 36 56  1  0  0  0
 36110  1  0  0  0
 37 39  1  0  0  0
 37 47  1  0  0  0
 37 66  1  0  0  0
 37111  1  0  0  0
 38 43  2  0  0  0
 38 46  1  0  0  0
 38 47  1  0  0  0
 39 64  1  0  0  0
 39 67  2  0  0  0
 40 52  1  0  0  0
 40 53  2  0  0  0
 40 58  1  0  0  0
 41112  1  0  0  0
 41113  1  0  0  0
 41114  1  0  0  0
 41 48  1  0  0  0
 42 43  1  0  0  0
 42 66  1  0  0  0
 42115  1  0  0  0
 42116  1  0  0  0
 43 44  1  0  0  0
 44117  1  0  0  0
 45 46  2  0  0  0
 45118  1  0  0  0
 46119  1  0  0  0
 47120  1  0  0  0
 47121  1  0  0  0
 48 56  1  0  0  0
 48 65  1  0  0  0
 48122  1  0  0  0
 49 50  1  0  0  0
 49 53  1  0  0  0
 49 64  1  0  0  0
 49123  1  0  0  0
 50 51  1  0  0  0
 50124  1  0  0  0
 50125  1  0  0  0
 51 52  1  0  0  0
 51126  1  0  0  0
 51127  1  0  0  0
 52128  1  0  0  0
 52129  1  0  0  0
 53 54  1  0  0  0
 54 55  2  0  0  0
 54130  1  0  0  0
 55 57  1  0  0  0
 55131  1  0  0  0
 56 69  2  0  0  0
 57 58  2  0  0  0
 57132  1  0  0  0
 58133  1  0  0  0
 59 60  1  0  0  0
 59 61  1  0  0  0
 59 62  1  0  0  0
 60134  1  0  0  0
 60135  1  0  0  0
 60136  1  0  0  0
 61137  1  0  0  0
 61138  1  0  0  0
 61139  1  0  0  0
 62140  1  0  0  0
 62141  1  0  0  0
 62142  1  0  0  0
 63 65  1  0  0  0
 63143  1  0  0  0
 63144  1  0  0  0
 63145  1  0  0  0
 64146  1  0  0  0
 65147  1  0  0  0
 68 84  1  0  0  0
 71 72  2  0  0  0
 71 74  1  0  0  0
 71148  1  0  0  0
 72 76  1  0  0  0
 72149  1  0  0  0
 73 75  1  0  0  0
 73 76  2  0  0  0
 73150  1  0  0  0
 74 75  2  0  0  0
 74 82  1  0  0  0
 75 85  1  0  0  0
 76 86  1  0  0  0
 77 79  1  0  0  0
 77 85  1  0  0  0
 77 87  2  0  0  0
 78 81  1  0  0  0
 78 85  1  0  0  0
 78 88  2  0  0  0
 79 80  1  0  0  0
 79151  1  0  0  0
 79152  1  0  0  0
 80 81  1  0  0  0
 80153  1  0  0  0
 80154  1  0  0  0
 81 83  1  0  0  0
 81155  1  0  0  0
 82156  1  0  0  0
 82157  1  0  0  0
 82158  1  0  0  0
 83 84  1  0  0  0
 83159  1  0  0  0
 83160  1  0  0  0
 84161  1  0  0  0
 84162  1  0  0  0
 86163  1  0  0  0
M  ISO  4   1 100  68 101  84 101  86 100
M  END
> <chiral flag>
0

> <version>
0

> <s_m_source_file>
/data/baiqing/PycharmProjects/Reinvent-master-3.2/result/LINK_invent/BTK/process_docking_weight1_custom_product_contain_oxygen_bond_distance_aromatic_linkinvent_7_9_3/rearranged_h_0062.sdf

> <i_m_source_file_index>
87

> <r_mmod_Potential_Energy-OPLS-2005>
108.229301452637

> <r_mmod_Stretch_Energy-OPLS-2005>
74.2099380493164

> <r_mmod_Bend_Energy-OPLS-2005>
138.396179199219

> <r_mmod_Torsional_Energy-OPLS-2005>
299.412353515625

> <r_mmod_Improper_Torsional_Energy-OPLS-2005>
7.73771715164185

> <r_mmod_Van_der_Waal_Energy-OPLS-2005>
172.272537231445

> <r_mmod_Electrostatic_Energy-OPLS-2005>
-374.091247558594

> <r_mmod_Solvation_Energy-OPLS-2005>
-239.590087890625

> <b_mmod_Minimization_Converged-OPLS-2005>
0

> <r_mmod_RMS_Derivative-OPLS-2005>
3.126136302948

$$$$
87
                    3D
 Structure written by MMmdl.
174183  0  0  1  0            999 V2000
  -30.6141  -14.7691   20.4301 C   0  0  0  0  0  0
  -30.4238  -12.4674   19.4795 C   0  0  0  0  0  0
  -29.5060  -12.5026   18.2383 C   0  0  0  0  0  0
  -28.0355  -12.3208   18.6556 C   0  0  0  0  0  0
  -27.6357  -13.2358   19.8437 C   0  0  2  0  0  0
  -28.6784  -13.2009   20.9815 C   0  0  0  0  0  0
  -25.2491  -13.8209   20.5698 C   0  0  0  0  0  0
  -24.1797  -13.0446   20.9217 C   0  0  0  0  0  0
  -24.6394  -11.6922   20.8755 C   0  0  0  0  0  0
  -23.9077  -10.4295   21.0419 C   0  0  0  0  0  0
  -24.3626   -9.4206   21.9194 C   0  0  0  0  0  0
  -23.6295   -8.2244   22.0762 C   0  0  0  0  0  0
  -22.4281   -8.0286   21.3546 C   0  0  0  0  0  0
  -21.9919   -9.0263   20.4649 C   0  0  0  0  0  0
  -22.7254  -10.2140   20.3060 C   0  0  0  0  0  0
  -21.6854   -6.0741   22.5281 C   0  0  0  0  0  0
  -21.4014   -6.5642   23.8217 C   0  0  0  0  0  0
  -21.3656   -5.6796   24.9176 C   0  0  0  0  0  0
  -21.6041   -4.3058   24.7228 C   0  0  0  0  0  0
  -21.8819   -3.8150   23.4348 C   0  0  0  0  0  0
  -21.9193   -4.6965   22.3406 C   0  0  0  0  0  0
  -22.7814  -13.5216   21.1870 C   0  0  0  0  0  0
  -22.1664   -4.2152   21.0981 F   0  0  0  0  0  0
  -21.5625   -3.4540   25.7737 F   0  0  0  0  0  0
  -29.9749  -13.5478   20.3918 N   0  0  0  0  0  0
  -26.2908  -12.9423   20.3258 N   0  0  0  0  0  0
  -25.9321  -11.6561   20.5751 N   0  0  0  0  0  0
  -22.0463  -12.8200   22.0421 N   0  0  0  0  0  0
  -25.4172  -15.1937   20.4130 N   0  0  0  0  0  0
  -31.8221  -14.7960   20.1805 O   0  0  0  0  0  0
  -21.6644   -6.8883   21.4246 O   0  0  0  0  0  0
  -22.3501  -14.5529   20.6724 O   0  0  0  0  0  0
  -24.6308  -31.8534   23.1938 C   0  0  0  0  0  0
  -25.9126  -32.4755   23.8283 C   0  0  1  0  0  0
  -27.2211  -27.2432   20.1334 C   0  0  0  0  0  0
  -25.5911  -33.8552   24.2218 N   0  0  0  0  0  0
  -23.4277  -30.4730   21.5387 C   0  0  2  0  0  0
  -24.8755  -28.9139   20.1063 C   0  0  0  0  0  0
  -22.7502  -29.4573   22.4902 C   0  0  0  0  0  0
  -18.0291  -28.1390   22.8481 C   0  0  0  0  0  0
  -24.1484  -36.7285   23.2639 C   0  0  0  0  0  0
  -25.9709  -30.7653   21.3680 C   0  0  0  0  0  0
  -26.0451  -29.3822   20.7164 C   0  0  0  0  0  0
  -27.2161  -28.5571   20.7202 C   0  0  0  0  0  0
  -26.0235  -26.8378   19.5041 C   0  0  0  0  0  0
  -24.8706  -27.6510   19.4904 C   0  0  0  0  0  0
  -23.6449  -29.8017   20.1553 C   0  0  0  0  0  0
  -25.4115  -36.3066   24.0312 C   0  0  1  0  0  0
  -20.5895  -28.3688   23.1291 C   0  0  2  0  0  0
  -20.6781  -26.9407   22.5419 C   0  0  0  0  0  0
  -19.5752  -26.6387   21.5218 C   0  0  0  0  0  0
  -18.1933  -26.7934   22.1627 C   0  0  0  0  0  0
  -19.1543  -28.8856   23.2881 C   0  0  0  0  0  0
  -18.9464  -30.1461   23.8896 C   0  0  0  0  0  0
  -17.6467  -30.6595   24.0561 C   0  0  0  0  0  0
  -25.9058  -34.9440   23.5078 C   0  0  0  0  0  0
  -16.5358  -29.9091   23.6334 C   0  0  0  0  0  0
  -16.7278  -28.6511   23.0342 C   0  0  0  0  0  0
  -26.4495  -31.6583   25.0672 C   0  0  0  0  0  0
  -25.3710  -31.3707   26.1386 C   0  0  0  0  0  0
  -27.0345  -30.3020   24.6110 C   0  0  0  0  0  0
  -27.6051  -32.4315   25.7463 C   0  0  0  0  0  0
  -27.5575  -37.1798   24.8463 C   0  0  0  0  0  0
  -21.4206  -29.3033   22.3676 N   0  0  0  0  0  0
  -26.4285  -37.3766   23.9405 N   0  0  0  0  0  0
  -24.6965  -31.0479   22.0921 N   0  0  0  0  0  0
  -23.4209  -28.8114   23.2995 O   0  0  0  0  0  0
  -28.3372  -26.3756   20.2269 O   0  0  0  0  0  0
  -26.5645  -34.8921   22.4658 O   0  0  0  0  0  0
  -23.5462  -32.1353   23.7242 O   0  0  0  0  0  0
  -31.2905  -17.5999   19.3366 C   0  0  0  0  0  0
  -29.4362  -18.5745   20.5370 C   0  0  0  0  0  0
  -31.6966  -18.8796   18.9152 C   0  0  0  0  0  0
  -30.9613  -20.0437   19.2822 C   0  0  0  0  0  0
  -29.7908  -19.9287   20.0940 C   0  0  0  0  0  0
  -30.1819  -17.3660   20.1752 C   0  0  0  0  0  0
  -28.5031  -22.1863   19.7575 C   0  0  0  0  0  0
  -30.4556  -19.1730   15.7645 C   0  0  0  0  0  0
  -29.2750  -23.3575   21.6445 C   0  0  0  0  0  0
  -29.4120  -21.8137   21.8133 C   0  0  0  0  0  0
  -28.2890  -23.5814   20.4888 C   0  0  1  0  0  0
  -31.4229  -21.4292   18.8175 C   0  0  0  0  0  0
  -29.4858  -20.1782   15.1458 C   0  0  0  0  0  0
  -32.2872  -20.8098   15.4564 C   0  0  0  0  0  0
  -32.9681  -18.9093   18.0628 C   0  0  0  0  0  0
  -28.4231  -24.9795   19.6533 C   0  0  0  0  0  0
  -32.7425  -18.6446   16.5589 C   0  0  0  0  0  0
  -29.1157  -21.2025   20.5166 N   0  0  0  0  0  0
  -29.8644  -15.9474   20.5633 N   0  0  0  0  0  0
  -31.7471  -19.5393   15.9501 N   0  0  0  0  0  0
  -28.1073  -22.0147   18.6013 O   0  0  0  0  0  0
  -30.0208  -18.0610   16.0757 O   0  0  0  0  0  0
  -31.4654  -12.5805   19.1735 H   0  0  0  0  0  0
  -30.3641  -11.4986   19.9768 H   0  0  0  0  0  0
  -29.7930  -11.7231   17.5311 H   0  0  0  0  0  0
  -29.6269  -13.4522   17.7140 H   0  0  0  0  0  0
  -27.9034  -11.2756   18.9364 H   0  0  0  0  0  0
  -27.3744  -12.4913   17.8052 H   0  0  0  0  0  0
  -27.6214  -14.2510   19.4461 H   0  0  0  0  0  0
  -28.7181  -12.2150   21.4470 H   0  0  0  0  0  0
  -28.4107  -13.9048   21.7715 H   0  0  0  0  0  0
  -25.2771   -9.5684   22.4773 H   0  0  0  0  0  0
  -24.0002   -7.4639   22.7486 H   0  0  0  0  0  0
  -21.0847   -8.8786   19.8957 H   0  0  0  0  0  0
  -22.3713  -10.9682   19.6170 H   0  0  0  0  0  0
  -21.2010   -7.6150   23.9717 H   0  0  0  0  0  0
  -21.1475   -6.0526   25.9078 H   0  0  0  0  0  0
  -22.0600   -2.7610   23.2849 H   0  0  0  0  0  0
  -22.4081  -11.9850   22.4787 H   0  0  0  0  0  0
  -21.1084  -13.1227   22.2642 H   0  0  0  0  0  0
  -24.6451  -15.8425   20.5198 H   0  0  0  0  0  0
  -26.2585  -15.6352   20.0658 H   0  0  0  0  0  0
  -26.7185  -32.5417   23.1015 H   0  0  0  0  0  0
  -25.0007  -33.9665   25.0333 H   0  0  0  0  0  0
  -22.7236  -31.2951   21.3915 H   0  0  0  0  0  0
  -23.3744  -35.9622   23.3290 H   0  0  0  0  0  0
  -24.3570  -36.8929   22.2055 H   0  0  0  0  0  0
  -23.7236  -37.6474   23.6691 H   0  0  0  0  0  0
  -26.0900  -31.5207   20.5899 H   0  0  0  0  0  0
  -26.8564  -30.8344   21.9874 H   0  0  0  0  0  0
  -28.1115  -28.9071   21.2146 H   0  0  0  0  0  0
  -25.9369  -25.8625   19.0502 H   0  0  0  0  0  0
  -23.9702  -27.2809   19.0181 H   0  0  0  0  0  0
  -23.7646  -30.5773   19.3981 H   0  0  0  0  0  0
  -22.7643  -29.2316   19.8542 H   0  0  0  0  0  0
  -25.1300  -36.1905   25.0800 H   0  0  0  0  0  0
  -20.9982  -28.3268   24.1410 H   0  0  0  0  0  0
  -20.5687  -26.2281   23.3606 H   0  0  0  0  0  0
  -21.6648  -26.7439   22.1205 H   0  0  0  0  0  0
  -19.6909  -25.6294   21.1246 H   0  0  0  0  0  0
  -19.6709  -27.3198   20.6748 H   0  0  0  0  0  0
  -17.4202  -26.6673   21.4031 H   0  0  0  0  0  0
  -18.0330  -26.0082   22.9029 H   0  0  0  0  0  0
  -19.7943  -30.7274   24.2259 H   0  0  0  0  0  0
  -17.5024  -31.6271   24.5167 H   0  0  0  0  0  0
  -15.5355  -30.2991   23.7664 H   0  0  0  0  0  0
  -15.8674  -28.0845   22.7038 H   0  0  0  0  0  0
  -24.5915  -30.7031   25.7697 H   0  0  0  0  0  0
  -24.8853  -32.2855   26.4793 H   0  0  0  0  0  0
  -25.8023  -30.8899   27.0174 H   0  0  0  0  0  0
  -26.2906  -29.6756   24.1171 H   0  0  0  0  0  0
  -27.4105  -29.7294   25.4595 H   0  0  0  0  0  0
  -27.8745  -30.4319   23.9281 H   0  0  0  0  0  0
  -27.2682  -33.3650   26.1981 H   0  0  0  0  0  0
  -28.3908  -32.6803   25.0318 H   0  0  0  0  0  0
  -28.0654  -31.8449   26.5420 H   0  0  0  0  0  0
  -28.2581  -38.0105   24.7526 H   0  0  0  0  0  0
  -28.1077  -36.2636   24.6284 H   0  0  0  0  0  0
  -27.2287  -37.1438   25.8860 H   0  0  0  0  0  0
  -20.9379  -29.8756   21.6890 H   0  0  0  0  0  0
  -26.0160  -38.2830   24.1436 H   0  0  0  0  0  0
  -31.8812  -16.7762   18.9711 H   0  0  0  0  0  0
  -28.5717  -18.4659   21.1759 H   0  0  0  0  0  0
  -30.2452  -23.7866   21.3898 H   0  0  0  0  0  0
  -28.9445  -23.8393   22.5661 H   0  0  0  0  0  0
  -28.6890  -21.4435   22.5416 H   0  0  0  0  0  0
  -30.4068  -21.5389   22.1667 H   0  0  0  0  0  0
  -27.2772  -23.5401   20.8917 H   0  0  0  0  0  0
  -32.3980  -21.4705   18.3470 H   0  0  0  0  0  0
  -31.4735  -22.1237   19.6560 H   0  0  0  0  0  0
  -30.7243  -21.8243   18.0802 H   0  0  0  0  0  0
  -29.3677  -21.0436   15.7978 H   0  0  0  0  0  0
  -28.5030  -19.7287   15.0058 H   0  0  0  0  0  0
  -29.8410  -20.5135   14.1715 H   0  0  0  0  0  0
  -31.6673  -21.6549   15.7552 H   0  0  0  0  0  0
  -32.3536  -20.7995   14.3678 H   0  0  0  0  0  0
  -33.2867  -21.0050   15.8475 H   0  0  0  0  0  0
  -33.6370  -18.1334   18.4387 H   0  0  0  0  0  0
  -33.5527  -19.8118   18.2154 H   0  0  0  0  0  0
  -27.7929  -24.9098   18.7698 H   0  0  0  0  0  0
  -29.4258  -24.9504   19.2273 H   0  0  0  0  0  0
  -32.4505  -17.6015   16.4224 H   0  0  0  0  0  0
  -33.6926  -18.7345   16.0309 H   0  0  0  0  0  0
  -28.9158  -15.7915   20.8703 H   0  0  0  0  0  0
  1 25  1  0  0  0
  1 30  2  0  0  0
  1 89  1  0  0  0
  2  3  1  0  0  0
  2 25  1  0  0  0
  2 93  1  0  0  0
  2 94  1  0  0  0
  3  4  1  0  0  0
  3 95  1  0  0  0
  3 96  1  0  0  0
  4  5  1  0  0  0
  4 97  1  0  0  0
  4 98  1  0  0  0
  5  6  1  0  0  0
  5 26  1  0  0  0
  5 99  1  0  0  0
  6 25  1  0  0  0
  6100  1  0  0  0
  6101  1  0  0  0
  7  8  2  0  0  0
  7 26  1  0  0  0
  7 29  1  0  0  0
  8  9  1  0  0  0
  8 22  1  0  0  0
  9 10  1  0  0  0
  9 27  2  0  0  0
 10 11  2  0  0  0
 10 15  1  0  0  0
 11 12  1  0  0  0
 11102  1  0  0  0
 12 13  2  0  0  0
 12103  1  0  0  0
 13 14  1  0  0  0
 13 31  1  0  0  0
 14 15  2  0  0  0
 14104  1  0  0  0
 15105  1  0  0  0
 16 17  2  0  0  0
 16 21  1  0  0  0
 16 31  1  0  0  0
 17 18  1  0  0  0
 17106  1  0  0  0
 18 19  2  0  0  0
 18107  1  0  0  0
 19 20  1  0  0  0
 19 24  1  0  0  0
 20 21  2  0  0  0
 20108  1  0  0  0
 21 23  1  0  0  0
 22 28  1  0  0  0
 22 32  2  0  0  0
 26 27  1  0  0  0
 28109  1  0  0  0
 28110  1  0  0  0
 29111  1  0  0  0
 29112  1  0  0  0
 33 34  1  0  0  0
 33 66  1  0  0  0
 33 70  2  0  0  0
 34 36  1  0  0  0
 34 59  1  0  0  0
 34113  1  0  0  0
 35 44  2  0  0  0
 35 45  1  0  0  0
 35 68  1  0  0  0
 36 56  1  0  0  0
 36114  1  0  0  0
 37 39  1  0  0  0
 37 47  1  0  0  0
 37 66  1  0  0  0
 37115  1  0  0  0
 38 43  2  0  0  0
 38 46  1  0  0  0
 38 47  1  0  0  0
 39 64  1  0  0  0
 39 67  2  0  0  0
 40 52  1  0  0  0
 40 53  2  0  0  0
 40 58  1  0  0  0
 41116  1  0  0  0
 41117  1  0  0  0
 41118  1  0  0  0
 41 48  1  0  0  0
 42 43  1  0  0  0
 42 66  1  0  0  0
 42119  1  0  0  0
 42120  1  0  0  0
 43 44  1  0  0  0
 44121  1  0  0  0
 45 46  2  0  0  0
 45122  1  0  0  0
 46123  1  0  0  0
 47124  1  0  0  0
 47125  1  0  0  0
 48 56  1  0  0  0
 48 65  1  0  0  0
 48126  1  0  0  0
 49 50  1  0  0  0
 49 53  1  0  0  0
 49 64  1  0  0  0
 49127  1  0  0  0
 50 51  1  0  0  0
 50128  1  0  0  0
 50129  1  0  0  0
 51 52  1  0  0  0
 51130  1  0  0  0
 51131  1  0  0  0
 52132  1  0  0  0
 52133  1  0  0  0
 53 54  1  0  0  0
 54 55  2  0  0  0
 54134  1  0  0  0
 55 57  1  0  0  0
 55135  1  0  0  0
 56 69  2  0  0  0
 57 58  2  0  0  0
 57136  1  0  0  0
 58137  1  0  0  0
 59 60  1  0  0  0
 59 61  1  0  0  0
 59 62  1  0  0  0
 60138  1  0  0  0
 60139  1  0  0  0
 60140  1  0  0  0
 61141  1  0  0  0
 61142  1  0  0  0
 61143  1  0  0  0
 62144  1  0  0  0
 62145  1  0  0  0
 62146  1  0  0  0
 63 65  1  0  0  0
 63147  1  0  0  0
 63148  1  0  0  0
 63149  1  0  0  0
 64150  1  0  0  0
 65151  1  0  0  0
 68 86  1  0  0  0
 71 73  2  0  0  0
 71 76  1  0  0  0
 71152  1  0  0  0
 72 75  1  0  0  0
 72 76  2  0  0  0
 72153  1  0  0  0
 73 74  1  0  0  0
 73 85  1  0  0  0
 74 75  2  0  0  0
 74 82  1  0  0  0
 75 88  1  0  0  0
 76 89  1  0  0  0
 77 81  1  0  0  0
 77 88  1  0  0  0
 77 91  2  0  0  0
 78 83  1  0  0  0
 78 90  1  0  0  0
 78 92  2  0  0  0
 79 80  1  0  0  0
 79 81  1  0  0  0
 79154  1  0  0  0
 79155  1  0  0  0
 80 88  1  0  0  0
 80156  1  0  0  0
 80157  1  0  0  0
 81 86  1  0  0  0
 81158  1  0  0  0
 82159  1  0  0  0
 82160  1  0  0  0
 82161  1  0  0  0
 83162  1  0  0  0
 83163  1  0  0  0
 83164  1  0  0  0
 84 90  1  0  0  0
 84165  1  0  0  0
 84166  1  0  0  0
 84167  1  0  0  0
 85 87  1  0  0  0
 85168  1  0  0  0
 85169  1  0  0  0
 86170  1  0  0  0
 86171  1  0  0  0
 87 90  1  0  0  0
 87172  1  0  0  0
 87173  1  0  0  0
 89174  1  0  0  0
M  ISO  4   1 100  68 101  86 101  89 100
M  END
> <chiral flag>
0

> <version>
0

> <s_m_source_file>
/data/baiqing/PycharmProjects/Reinvent-master-3.2/result/LINK_invent/BTK/process_docking_weight1_custom_product_contain_oxygen_bond_distance_aromatic_linkinvent_7_9_3/rearranged_h_0062.sdf

> <i_m_source_file_index>
88

> <r_mmod_Potential_Energy-OPLS-2005>
307.252044677734

> <r_mmod_Stretch_Energy-OPLS-2005>
146.848541259766

> <r_mmod_Bend_Energy-OPLS-2005>
225.821487426758

> <r_mmod_Torsional_Energy-OPLS-2005>
323.113433837891

> <r_mmod_Improper_Torsional_Energy-OPLS-2005>
5.68078899383545

> <r_mmod_Van_der_Waal_Energy-OPLS-2005>
144.463806152344

> <r_mmod_Electrostatic_Energy-OPLS-2005>
-388.188568115234

> <r_mmod_Solvation_Energy-OPLS-2005>
-246.637329101562

> <b_mmod_Minimization_Converged-OPLS-2005>
0

> <r_mmod_RMS_Derivative-OPLS-2005>
1.54824137687683

$$$$
88
                    3D
 Structure written by MMmdl.
157165  0  0  1  0            999 V2000
  -30.7320  -14.4734   20.5715 C   0  0  0  0  0  0
  -30.4115  -12.3082   19.4293 C   0  0  0  0  0  0
  -29.4915  -12.4988   18.2081 C   0  0  0  0  0  0
  -28.0137  -12.3636   18.6211 C   0  0  0  0  0  0
  -27.6578  -13.2136   19.8706 C   0  0  2  0  0  0
  -28.7009  -13.0258   20.9959 C   0  0  0  0  0  0
  -25.2569  -13.8178   20.5683 C   0  0  0  0  0  0
  -24.1832  -13.0446   20.9185 C   0  0  0  0  0  0
  -24.6395  -11.6913   20.8740 C   0  0  0  0  0  0
  -23.9065  -10.4296   21.0408 C   0  0  0  0  0  0
  -24.3615   -9.4210   21.9189 C   0  0  0  0  0  0
  -23.6289   -8.2247   22.0757 C   0  0  0  0  0  0
  -22.4272   -8.0286   21.3546 C   0  0  0  0  0  0
  -21.9914   -9.0258   20.4644 C   0  0  0  0  0  0
  -22.7241  -10.2138   20.3053 C   0  0  0  0  0  0
  -21.6852   -6.0737   22.5278 C   0  0  0  0  0  0
  -21.4010   -6.5639   23.8212 C   0  0  0  0  0  0
  -21.3657   -5.6794   24.9174 C   0  0  0  0  0  0
  -21.6049   -4.3058   24.7225 C   0  0  0  0  0  0
  -21.8819   -3.8149   23.4347 C   0  0  0  0  0  0
  -21.9191   -4.6965   22.3402 C   0  0  0  0  0  0
  -22.7858  -13.5239   21.1854 C   0  0  0  0  0  0
  -22.1661   -4.2150   21.0980 F   0  0  0  0  0  0
  -21.5632   -3.4543   25.7739 F   0  0  0  0  0  0
  -30.0291  -13.3152   20.4331 N   0  0  0  0  0  0
  -26.3008  -12.9359   20.3356 N   0  0  0  0  0  0
  -25.9323  -11.6513   20.5767 N   0  0  0  0  0  0
  -22.0505  -12.8216   22.0404 N   0  0  0  0  0  0
  -25.4284  -15.1898   20.4076 N   0  0  0  0  0  0
  -31.8633  -14.6102   20.0980 O   0  0  0  0  0  0
  -21.6637   -6.8881   21.4241 O   0  0  0  0  0  0
  -22.3541  -14.5551   20.6714 O   0  0  0  0  0  0
  -24.6175  -31.8680   23.2114 C   0  0  0  0  0  0
  -25.9067  -32.4819   23.8407 C   0  0  1  0  0  0
  -27.2220  -27.4099   20.0939 C   0  0  0  0  0  0
  -25.5917  -33.8619   24.2333 N   0  0  0  0  0  0
  -23.4048  -30.4949   21.5536 C   0  0  2  0  0  0
  -24.8476  -28.9668   20.1109 C   0  0  0  0  0  0
  -22.7424  -29.4660   22.4987 C   0  0  0  0  0  0
  -18.0274  -28.1379   22.8499 C   0  0  0  0  0  0
  -24.1485  -36.7305   23.2641 C   0  0  0  0  0  0
  -25.9386  -30.8252   21.3703 C   0  0  0  0  0  0
  -26.0125  -29.4617   20.7107 C   0  0  0  0  0  0
  -27.2024  -28.6917   20.6991 C   0  0  0  0  0  0
  -26.0369  -26.9521   19.4665 C   0  0  0  0  0  0
  -24.8566  -27.7124   19.4843 C   0  0  0  0  0  0
  -23.6118  -29.8356   20.1661 C   0  0  0  0  0  0
  -25.4112  -36.3111   24.0337 C   0  0  1  0  0  0
  -20.5868  -28.3670   23.1314 C   0  0  2  0  0  0
  -20.6764  -26.9406   22.5415 C   0  0  0  0  0  0
  -19.5735  -26.6382   21.5216 C   0  0  0  0  0  0
  -18.1917  -26.7926   22.1629 C   0  0  0  0  0  0
  -19.1526  -28.8844   23.2897 C   0  0  0  0  0  0
  -18.9453  -30.1452   23.8899 C   0  0  0  0  0  0
  -17.6456  -30.6589   24.0564 C   0  0  0  0  0  0
  -25.9040  -34.9476   23.5130 C   0  0  0  0  0  0
  -16.5345  -29.9087   23.6334 C   0  0  0  0  0  0
  -16.7262  -28.6504   23.0353 C   0  0  0  0  0  0
  -26.4485  -31.6599   25.0739 C   0  0  0  0  0  0
  -25.3741  -31.3672   26.1467 C   0  0  0  0  0  0
  -27.0351  -30.3056   24.6128 C   0  0  0  0  0  0
  -27.6048  -32.4328   25.7514 C   0  0  0  0  0  0
  -27.5579  -37.1808   24.8470 C   0  0  0  0  0  0
  -21.4150  -29.3037   22.3722 N   0  0  0  0  0  0
  -26.4297  -37.3797   23.9410 N   0  0  0  0  0  0
  -24.6721  -31.0766   22.1030 N   0  0  0  0  0  0
  -23.4190  -28.8191   23.3025 O   0  0  0  0  0  0
  -28.3669  -26.6258   20.1435 O   0  0  0  0  0  0
  -26.5594  -34.8926   22.4688 O   0  0  0  0  0  0
  -23.5361  -32.1443   23.7496 O   0  0  0  0  0  0
  -31.7376  -19.3947   21.8193 C   0  0  0  0  0  0
  -31.8960  -16.9648   21.9476 C   0  0  0  0  0  0
  -29.8960  -18.0103   21.0234 C   0  0  0  0  0  0
  -32.4526  -18.2358   22.1772 C   0  0  0  0  0  0
  -30.4456  -19.3069   21.2428 C   0  0  0  0  0  0
  -30.6221  -16.8310   21.3501 C   0  0  0  0  0  0
  -29.9210  -21.7880   21.0438 C   0  0  0  0  0  0
  -33.8320  -18.3508   22.7966 C   0  0  0  0  0  0
  -28.9226  -22.7782   20.4100 C   0  0  0  0  0  0
  -29.2767  -24.2930   20.5529 C   0  0  0  0  0  0
  -28.1698  -25.2032   19.9732 C   0  0  0  0  0  0
  -29.6894  -20.4662   20.8413 N   0  0  0  0  0  0
  -30.0730  -15.5264   21.1066 N   0  0  0  0  0  0
  -30.8559  -22.2341   21.7115 O   0  0  0  0  0  0
  -31.4580  -12.3828   19.1297 H   0  0  0  0  0  0
  -30.2945  -11.3054   19.8433 H   0  0  0  0  0  0
  -29.7312  -11.7647   17.4376 H   0  0  0  0  0  0
  -29.6640  -13.4800   17.7627 H   0  0  0  0  0  0
  -27.8234  -11.3090   18.8247 H   0  0  0  0  0  0
  -27.3640  -12.6321   17.7873 H   0  0  0  0  0  0
  -27.6936  -14.2572   19.5571 H   0  0  0  0  0  0
  -28.6776  -12.0020   21.3723 H   0  0  0  0  0  0
  -28.4672  -13.6590   21.8532 H   0  0  0  0  0  0
  -25.2757   -9.5692   22.4767 H   0  0  0  0  0  0
  -23.9999   -7.4641   22.7478 H   0  0  0  0  0  0
  -21.0851   -8.8777   19.8942 H   0  0  0  0  0  0
  -22.3703  -10.9678   19.6160 H   0  0  0  0  0  0
  -21.1998   -7.6148   23.9714 H   0  0  0  0  0  0
  -21.1482   -6.0525   25.9078 H   0  0  0  0  0  0
  -22.0600   -2.7613   23.2848 H   0  0  0  0  0  0
  -22.4117  -11.9853   22.4756 H   0  0  0  0  0  0
  -21.1127  -13.1240   22.2632 H   0  0  0  0  0  0
  -24.6622  -15.8461   20.5118 H   0  0  0  0  0  0
  -26.2794  -15.6262   20.0764 H   0  0  0  0  0  0
  -26.7133  -32.5526   23.1163 H   0  0  0  0  0  0
  -25.0083  -33.9780   25.0488 H   0  0  0  0  0  0
  -22.6940  -31.3131   21.4190 H   0  0  0  0  0  0
  -23.3761  -35.9624   23.3306 H   0  0  0  0  0  0
  -24.3567  -36.8927   22.2055 H   0  0  0  0  0  0
  -23.7226  -37.6503   23.6662 H   0  0  0  0  0  0
  -26.0596  -31.5945   20.6061 H   0  0  0  0  0  0
  -26.8235  -30.8708   21.9935 H   0  0  0  0  0  0
  -28.0973  -29.0659   21.1765 H   0  0  0  0  0  0
  -25.9931  -26.0004   18.9578 H   0  0  0  0  0  0
  -23.9643  -27.3285   19.0087 H   0  0  0  0  0  0
  -23.7200  -30.6146   19.4107 H   0  0  0  0  0  0
  -22.7332  -29.2593   19.8695 H   0  0  0  0  0  0
  -25.1285  -36.1977   25.0830 H   0  0  0  0  0  0
  -20.9956  -28.3241   24.1435 H   0  0  0  0  0  0
  -20.5692  -26.2270   23.3601 H   0  0  0  0  0  0
  -21.6632  -26.7462   22.1192 H   0  0  0  0  0  0
  -19.6897  -25.6299   21.1233 H   0  0  0  0  0  0
  -19.6672  -27.3198   20.6756 H   0  0  0  0  0  0
  -17.4191  -26.6699   21.4022 H   0  0  0  0  0  0
  -18.0297  -26.0064   22.9016 H   0  0  0  0  0  0
  -19.7931  -30.7272   24.2256 H   0  0  0  0  0  0
  -17.5015  -31.6267   24.5170 H   0  0  0  0  0  0
  -15.5345  -30.2988   23.7662 H   0  0  0  0  0  0
  -15.8664  -28.0825   22.7063 H   0  0  0  0  0  0
  -24.5927  -30.7019   25.7776 H   0  0  0  0  0  0
  -24.8914  -32.2809   26.4942 H   0  0  0  0  0  0
  -25.8091  -30.8811   27.0210 H   0  0  0  0  0  0
  -26.2916  -29.6782   24.1199 H   0  0  0  0  0  0
  -27.4157  -29.7319   25.4590 H   0  0  0  0  0  0
  -27.8726  -30.4396   23.9276 H   0  0  0  0  0  0
  -27.2660  -33.3618   26.2113 H   0  0  0  0  0  0
  -28.3850  -32.6906   25.0339 H   0  0  0  0  0  0
  -28.0727  -31.8443   26.5415 H   0  0  0  0  0  0
  -28.2597  -38.0107   24.7541 H   0  0  0  0  0  0
  -28.1079  -36.2639   24.6287 H   0  0  0  0  0  0
  -27.2285  -37.1450   25.8869 H   0  0  0  0  0  0
  -20.9305  -29.8765   21.6952 H   0  0  0  0  0  0
  -26.0188  -38.2875   24.1420 H   0  0  0  0  0  0
  -32.2161  -20.3455   21.9922 H   0  0  0  0  0  0
  -32.4641  -16.0874   22.2255 H   0  0  0  0  0  0
  -28.9164  -17.9178   20.5750 H   0  0  0  0  0  0
  -34.0383  -19.3678   23.1322 H   0  0  0  0  0  0
  -34.5969  -18.0718   22.0711 H   0  0  0  0  0  0
  -33.9224  -17.6899   23.6594 H   0  0  0  0  0  0
  -27.9484  -22.5928   20.8639 H   0  0  0  0  0  0
  -28.8220  -22.5306   19.3526 H   0  0  0  0  0  0
  -30.2238  -24.5024   20.0547 H   0  0  0  0  0  0
  -29.4192  -24.5370   21.6064 H   0  0  0  0  0  0
  -27.2446  -24.8989   20.4667 H   0  0  0  0  0  0
  -28.0543  -24.9893   18.9092 H   0  0  0  0  0  0
  -28.8474  -20.2697   20.3172 H   0  0  0  0  0  0
  -29.0893  -15.3938   21.2878 H   0  0  0  0  0  0
  1 25  1  0  0  0
  1 30  2  0  0  0
  1 83  1  0  0  0
  2  3  1  0  0  0
  2 25  1  0  0  0
  2 85  1  0  0  0
  2 86  1  0  0  0
  3  4  1  0  0  0
  3 87  1  0  0  0
  3 88  1  0  0  0
  4  5  1  0  0  0
  4 89  1  0  0  0
  4 90  1  0  0  0
  5  6  1  0  0  0
  5 26  1  0  0  0
  5 91  1  0  0  0
  6 25  1  0  0  0
  6 92  1  0  0  0
  6 93  1  0  0  0
  7  8  2  0  0  0
  7 26  1  0  0  0
  7 29  1  0  0  0
  8  9  1  0  0  0
  8 22  1  0  0  0
  9 10  1  0  0  0
  9 27  2  0  0  0
 10 11  2  0  0  0
 10 15  1  0  0  0
 11 12  1  0  0  0
 11 94  1  0  0  0
 12 13  2  0  0  0
 12 95  1  0  0  0
 13 14  1  0  0  0
 13 31  1  0  0  0
 14 15  2  0  0  0
 14 96  1  0  0  0
 15 97  1  0  0  0
 16 17  2  0  0  0
 16 21  1  0  0  0
 16 31  1  0  0  0
 17 18  1  0  0  0
 17 98  1  0  0  0
 18 19  2  0  0  0
 18 99  1  0  0  0
 19 20  1  0  0  0
 19 24  1  0  0  0
 20 21  2  0  0  0
 20100  1  0  0  0
 21 23  1  0  0  0
 22 28  1  0  0  0
 22 32  2  0  0  0
 26 27  1  0  0  0
 28101  1  0  0  0
 28102  1  0  0  0
 29103  1  0  0  0
 29104  1  0  0  0
 33 34  1  0  0  0
 33 66  1  0  0  0
 33 70  2  0  0  0
 34 36  1  0  0  0
 34 59  1  0  0  0
 34105  1  0  0  0
 35 44  2  0  0  0
 35 45  1  0  0  0
 35 68  1  0  0  0
 36 56  1  0  0  0
 36106  1  0  0  0
 37 39  1  0  0  0
 37 47  1  0  0  0
 37 66  1  0  0  0
 37107  1  0  0  0
 38 43  2  0  0  0
 38 46  1  0  0  0
 38 47  1  0  0  0
 39 64  1  0  0  0
 39 67  2  0  0  0
 40 52  1  0  0  0
 40 53  2  0  0  0
 40 58  1  0  0  0
 41108  1  0  0  0
 41109  1  0  0  0
 41110  1  0  0  0
 41 48  1  0  0  0
 42 43  1  0  0  0
 42 66  1  0  0  0
 42111  1  0  0  0
 42112  1  0  0  0
 43 44  1  0  0  0
 44113  1  0  0  0
 45 46  2  0  0  0
 45114  1  0  0  0
 46115  1  0  0  0
 47116  1  0  0  0
 47117  1  0  0  0
 48 56  1  0  0  0
 48 65  1  0  0  0
 48118  1  0  0  0
 49 50  1  0  0  0
 49 53  1  0  0  0
 49 64  1  0  0  0
 49119  1  0  0  0
 50 51  1  0  0  0
 50120  1  0  0  0
 50121  1  0  0  0
 51 52  1  0  0  0
 51122  1  0  0  0
 51123  1  0  0  0
 52124  1  0  0  0
 52125  1  0  0  0
 53 54  1  0  0  0
 54 55  2  0  0  0
 54126  1  0  0  0
 55 57  1  0  0  0
 55127  1  0  0  0
 56 69  2  0  0  0
 57 58  2  0  0  0
 57128  1  0  0  0
 58129  1  0  0  0
 59 60  1  0  0  0
 59 61  1  0  0  0
 59 62  1  0  0  0
 60130  1  0  0  0
 60131  1  0  0  0
 60132  1  0  0  0
 61133  1  0  0  0
 61134  1  0  0  0
 61135  1  0  0  0
 62136  1  0  0  0
 62137  1  0  0  0
 62138  1  0  0  0
 63 65  1  0  0  0
 63139  1  0  0  0
 63140  1  0  0  0
 63141  1  0  0  0
 64142  1  0  0  0
 65143  1  0  0  0
 68 81  1  0  0  0
 71 74  2  0  0  0
 71 75  1  0  0  0
 71144  1  0  0  0
 72 74  1  0  0  0
 72 76  2  0  0  0
 72145  1  0  0  0
 73 75  2  0  0  0
 73 76  1  0  0  0
 73146  1  0  0  0
 74 78  1  0  0  0
 75 82  1  0  0  0
 76 83  1  0  0  0
 77 79  1  0  0  0
 77 82  1  0  0  0
 77 84  2  0  0  0
 78147  1  0  0  0
 78148  1  0  0  0
 78149  1  0  0  0
 79 80  1  0  0  0
 79150  1  0  0  0
 79151  1  0  0  0
 80 81  1  0  0  0
 80152  1  0  0  0
 80153  1  0  0  0
 81154  1  0  0  0
 81155  1  0  0  0
 82156  1  0  0  0
 83157  1  0  0  0
M  ISO  4   1 100  68 101  81 101  83 100
M  END
> <chiral flag>
0

> <version>
0

> <s_m_source_file>
/data/baiqing/PycharmProjects/Reinvent-master-3.2/result/LINK_invent/BTK/process_docking_weight1_custom_product_contain_oxygen_bond_distance_aromatic_linkinvent_7_9_3/rearranged_h_0062.sdf

> <i_m_source_file_index>
89

> <r_mmod_Potential_Energy-OPLS-2005>
-75.9528503417969

> <r_mmod_Stretch_Energy-OPLS-2005>
43.5529899597168

> <r_mmod_Bend_Energy-OPLS-2005>
102.220924377441

> <r_mmod_Torsional_Energy-OPLS-2005>
222.655029296875

> <r_mmod_Improper_Torsional_Energy-OPLS-2005>
3.52967357635498

> <r_mmod_Van_der_Waal_Energy-OPLS-2005>
167.605407714844

> <r_mmod_Electrostatic_Energy-OPLS-2005>
-396.611022949219

> <r_mmod_Solvation_Energy-OPLS-2005>
-236.575576782227

> <b_mmod_Minimization_Converged-OPLS-2005>
0

> <r_mmod_RMS_Derivative-OPLS-2005>
0.693717777729034

$$$$
89
                    3D
 Structure written by MMmdl.
166175  0  0  1  0            999 V2000
  -30.6502  -14.5661   20.4548 C   0  0  0  0  0  0
  -30.4346  -12.3308   19.4481 C   0  0  0  0  0  0
  -29.4992  -12.4471   18.2269 C   0  0  0  0  0  0
  -28.0235  -12.3082   18.6540 C   0  0  0  0  0  0
  -27.6577  -13.1985   19.8697 C   0  0  2  0  0  0
  -28.7070  -13.0670   20.9995 C   0  0  0  0  0  0
  -25.2588  -13.8125   20.5793 C   0  0  0  0  0  0
  -24.1828  -13.0461   20.9234 C   0  0  0  0  0  0
  -24.6378  -11.6907   20.8803 C   0  0  0  0  0  0
  -23.9040  -10.4295   21.0438 C   0  0  0  0  0  0
  -24.3581   -9.4169   21.9194 C   0  0  0  0  0  0
  -23.6260   -8.2198   22.0754 C   0  0  0  0  0  0
  -22.4232   -8.0251   21.3575 C   0  0  0  0  0  0
  -21.9892   -9.0199   20.4666 C   0  0  0  0  0  0
  -22.7212  -10.2095   20.3082 C   0  0  0  0  0  0
  -21.6837   -6.0702   22.5281 C   0  0  0  0  0  0
  -21.3984   -6.5629   23.8198 C   0  0  0  0  0  0
  -21.3666   -5.6799   24.9179 C   0  0  0  0  0  0
  -21.6043   -4.3062   24.7216 C   0  0  0  0  0  0
  -21.8807   -3.8133   23.4350 C   0  0  0  0  0  0
  -21.9174   -4.6941   22.3389 C   0  0  0  0  0  0
  -22.7834  -13.5251   21.1918 C   0  0  0  0  0  0
  -22.1664   -4.2123   21.0969 F   0  0  0  0  0  0
  -21.5635   -3.4555   25.7739 F   0  0  0  0  0  0
  -30.0295  -13.3536   20.4242 N   0  0  0  0  0  0
  -26.3027  -12.9300   20.3432 N   0  0  0  0  0  0
  -25.9294  -11.6487   20.5850 N   0  0  0  0  0  0
  -22.0477  -12.8225   22.0451 N   0  0  0  0  0  0
  -25.4339  -15.1846   20.4241 N   0  0  0  0  0  0
  -31.8206  -14.7313   20.1037 O   0  0  0  0  0  0
  -21.6620   -6.8844   21.4257 O   0  0  0  0  0  0
  -22.3504  -14.5576   20.6807 O   0  0  0  0  0  0
  -24.6209  -31.8679   23.2111 C   0  0  0  0  0  0
  -25.9053  -32.4844   23.8460 C   0  0  1  0  0  0
  -27.2246  -27.4143   20.0864 C   0  0  0  0  0  0
  -25.5859  -33.8651   24.2395 N   0  0  0  0  0  0
  -23.4085  -30.4949   21.5552 C   0  0  2  0  0  0
  -24.8464  -28.9540   20.1219 C   0  0  0  0  0  0
  -22.7501  -29.4674   22.5009 C   0  0  0  0  0  0
  -18.0309  -28.1401   22.8563 C   0  0  0  0  0  0
  -24.1471  -36.7339   23.2635 C   0  0  0  0  0  0
  -25.9422  -30.8242   21.3621 C   0  0  0  0  0  0
  -26.0117  -29.4598   20.7064 C   0  0  0  0  0  0
  -27.2062  -28.7066   20.6665 C   0  0  0  0  0  0
  -26.0356  -26.9177   19.4989 C   0  0  0  0  0  0
  -24.8555  -27.6911   19.5083 C   0  0  0  0  0  0
  -23.6121  -29.8254   20.1738 C   0  0  0  0  0  0
  -25.4104  -36.3163   24.0358 C   0  0  1  0  0  0
  -20.5920  -28.3758   23.1386 C   0  0  2  0  0  0
  -20.6853  -26.9511   22.5433 C   0  0  0  0  0  0
  -19.5819  -26.6602   21.5161 C   0  0  0  0  0  0
  -18.1993  -26.7939   22.1711 C   0  0  0  0  0  0
  -19.1555  -28.8872   23.2975 C   0  0  0  0  0  0
  -18.9454  -30.1434   23.9100 C   0  0  0  0  0  0
  -17.6468  -30.6627   24.0703 C   0  0  0  0  0  0
  -25.9048  -34.9497   23.5195 C   0  0  0  0  0  0
  -16.5396  -29.9133   23.6335 C   0  0  0  0  0  0
  -16.7269  -28.6512   23.0374 C   0  0  0  0  0  0
  -26.4471  -31.6613   25.0770 C   0  0  0  0  0  0
  -25.3718  -31.3630   26.1476 C   0  0  0  0  0  0
  -27.0288  -30.3081   24.6092 C   0  0  0  0  0  0
  -27.6102  -32.4332   25.7453 C   0  0  0  0  0  0
  -27.5604  -37.1805   24.8480 C   0  0  0  0  0  0
  -21.4194  -29.3213   22.3876 N   0  0  0  0  0  0
  -26.4320  -37.3835   23.9413 N   0  0  0  0  0  0
  -24.6777  -31.0775   22.1016 N   0  0  0  0  0  0
  -23.4321  -28.8108   23.2930 O   0  0  0  0  0  0
  -28.4063  -26.7031   20.1057 O   0  0  0  0  0  0
  -26.5623  -34.8920   22.4771 O   0  0  0  0  0  0
  -23.5396  -32.1405   23.7503 O   0  0  0  0  0  0
  -28.7714  -18.0548   18.0161 C   0  0  0  0  0  0
  -29.1014  -17.9068   20.7823 C   0  0  0  0  0  0
  -29.4553  -16.9370   18.5617 C   0  0  0  0  0  0
  -28.2938  -19.1082   18.8161 C   0  0  0  0  0  0
  -28.5225  -19.0708   20.2131 C   0  0  0  0  0  0
  -29.5267  -16.8086   19.9928 C   0  0  0  0  0  0
  -26.9245  -22.1765   21.3318 C   0  0  0  0  0  0
  -27.9787  -23.0127   21.2001 C   0  0  0  0  0  0
  -27.0185  -20.7164   21.2221 C   0  0  0  0  0  0
  -29.8933  -15.9259   16.2652 C   0  0  0  0  0  0
  -30.0634  -15.9817   17.6019 C   0  0  0  0  0  0
  -29.3904  -22.4537   21.0802 C   0  0  0  0  0  0
  -29.4262  -20.9769   21.5183 C   0  0  0  0  0  0
  -27.5953  -20.2861   18.1370 C   0  0  0  0  0  0
  -27.8033  -24.5380   21.1973 C   0  0  0  0  0  0
  -28.3887  -25.2724   19.9608 C   0  0  0  0  0  0
  -28.2696  -20.2348   21.0063 N   0  0  0  0  0  0
  -29.8388  -15.6058   20.7370 N   0  0  0  0  0  0
  -26.0290  -19.9803   21.2671 O   0  0  0  0  0  0
  -31.4799  -12.4401   19.1519 H   0  0  0  0  0  0
  -30.3500  -11.3453   19.9063 H   0  0  0  0  0  0
  -29.7510  -11.6836   17.4881 H   0  0  0  0  0  0
  -29.6337  -13.3985   17.7240 H   0  0  0  0  0  0
  -27.8668  -11.2606   18.9075 H   0  0  0  0  0  0
  -27.3638  -12.5220   17.8115 H   0  0  0  0  0  0
  -27.6782  -14.2278   19.5094 H   0  0  0  0  0  0
  -28.7050  -12.0693   21.4346 H   0  0  0  0  0  0
  -28.4765  -13.7492   21.8197 H   0  0  0  0  0  0
  -25.2707   -9.5629   22.4801 H   0  0  0  0  0  0
  -23.9957   -7.4581   22.7492 H   0  0  0  0  0  0
  -21.0802   -8.8664   19.8986 H   0  0  0  0  0  0
  -22.3616  -10.9607   19.6179 H   0  0  0  0  0  0
  -21.1971   -7.6128   23.9683 H   0  0  0  0  0  0
  -21.1540   -6.0547   25.9083 H   0  0  0  0  0  0
  -22.0598   -2.7594   23.2841 H   0  0  0  0  0  0
  -22.4077  -11.9880   22.4856 H   0  0  0  0  0  0
  -21.1109  -13.1215   22.2634 H   0  0  0  0  0  0
  -24.6724  -15.8412   20.5647 H   0  0  0  0  0  0
  -26.2831  -15.6283   20.0954 H   0  0  0  0  0  0
  -26.7129  -32.5479   23.1203 H   0  0  0  0  0  0
  -24.9963  -33.9864   25.0519 H   0  0  0  0  0  0
  -22.6881  -31.3062   21.4180 H   0  0  0  0  0  0
  -23.3764  -35.9651   23.3348 H   0  0  0  0  0  0
  -24.3576  -36.8890   22.2042 H   0  0  0  0  0  0
  -23.7143  -37.6524   23.6636 H   0  0  0  0  0  0
  -26.0656  -31.5857   20.5916 H   0  0  0  0  0  0
  -26.8342  -30.8742   21.9783 H   0  0  0  0  0  0
  -28.1193  -29.1163   21.0756 H   0  0  0  0  0  0
  -25.9993  -25.9503   19.0180 H   0  0  0  0  0  0
  -23.9544  -27.3248   19.0375 H   0  0  0  0  0  0
  -23.7118  -30.5996   19.4093 H   0  0  0  0  0  0
  -22.7343  -29.2446   19.8844 H   0  0  0  0  0  0
  -25.1253  -36.2095   25.0860 H   0  0  0  0  0  0
  -20.9996  -28.3271   24.1501 H   0  0  0  0  0  0
  -20.5694  -26.2294   23.3516 H   0  0  0  0  0  0
  -21.6807  -26.7568   22.1323 H   0  0  0  0  0  0
  -19.7042  -25.6684   21.0818 H   0  0  0  0  0  0
  -19.6678  -27.3749   20.6950 H   0  0  0  0  0  0
  -17.4156  -26.6564   21.4222 H   0  0  0  0  0  0
  -18.0610  -26.0177   22.9319 H   0  0  0  0  0  0
  -19.7983  -30.7165   24.2562 H   0  0  0  0  0  0
  -17.5065  -31.6328   24.5333 H   0  0  0  0  0  0
  -15.5380  -30.3146   23.7517 H   0  0  0  0  0  0
  -15.8650  -28.0862   22.7053 H   0  0  0  0  0  0
  -24.5922  -30.6984   25.7704 H   0  0  0  0  0  0
  -24.8850  -32.2725   26.5033 H   0  0  0  0  0  0
  -25.8017  -30.8653   27.0182 H   0  0  0  0  0  0
  -26.2792  -29.6806   24.1250 H   0  0  0  0  0  0
  -27.4200  -29.7329   25.4498 H   0  0  0  0  0  0
  -27.8593  -30.4447   23.9161 H   0  0  0  0  0  0
  -27.2835  -33.3659   26.2089 H   0  0  0  0  0  0
  -28.3825  -32.6863   25.0166 H   0  0  0  0  0  0
  -28.0919  -31.8417   26.5240 H   0  0  0  0  0  0
  -28.2646  -38.0081   24.7560 H   0  0  0  0  0  0
  -28.1077  -36.2617   24.6314 H   0  0  0  0  0  0
  -27.2339  -37.1456   25.8885 H   0  0  0  0  0  0
  -20.9317  -29.9179   21.7340 H   0  0  0  0  0  0
  -26.0246  -38.2953   24.1361 H   0  0  0  0  0  0
  -28.6248  -18.1495   16.9480 H   0  0  0  0  0  0
  -29.2027  -17.8501   21.8576 H   0  0  0  0  0  0
  -25.9413  -22.6033   21.4480 H   0  0  0  0  0  0
  -30.4304  -15.1858   15.6880 H   0  0  0  0  0  0
  -29.2423  -16.5856   15.7105 H   0  0  0  0  0  0
  -30.7623  -15.2720   17.9960 H   0  0  0  0  0  0
  -30.0994  -23.0316   21.6689 H   0  0  0  0  0  0
  -29.7102  -22.5406   20.0425 H   0  0  0  0  0  0
  -29.3833  -20.9246   22.6066 H   0  0  0  0  0  0
  -30.3641  -20.5050   21.2275 H   0  0  0  0  0  0
  -27.6122  -20.1996   17.0509 H   0  0  0  0  0  0
  -28.0625  -21.2344   18.3997 H   0  0  0  0  0  0
  -26.5467  -20.3373   18.4302 H   0  0  0  0  0  0
  -28.2525  -24.9450   22.1031 H   0  0  0  0  0  0
  -26.7366  -24.7555   21.2760 H   0  0  0  0  0  0
  -27.9172  -24.9726   19.0231 H   0  0  0  0  0  0
  -29.4357  -24.9860   19.8568 H   0  0  0  0  0  0
  -29.0938  -15.3390   21.3615 H   0  0  0  0  0  0
  1 25  1  0  0  0
  1 30  2  0  0  0
  1 88  1  0  0  0
  2  3  1  0  0  0
  2 25  1  0  0  0
  2 90  1  0  0  0
  2 91  1  0  0  0
  3  4  1  0  0  0
  3 92  1  0  0  0
  3 93  1  0  0  0
  4  5  1  0  0  0
  4 94  1  0  0  0
  4 95  1  0  0  0
  5  6  1  0  0  0
  5 26  1  0  0  0
  5 96  1  0  0  0
  6 25  1  0  0  0
  6 97  1  0  0  0
  6 98  1  0  0  0
  7  8  2  0  0  0
  7 26  1  0  0  0
  7 29  1  0  0  0
  8  9  1  0  0  0
  8 22  1  0  0  0
  9 10  1  0  0  0
  9 27  2  0  0  0
 10 11  2  0  0  0
 10 15  1  0  0  0
 11 12  1  0  0  0
 11 99  1  0  0  0
 12 13  2  0  0  0
 12100  1  0  0  0
 13 14  1  0  0  0
 13 31  1  0  0  0
 14 15  2  0  0  0
 14101  1  0  0  0
 15102  1  0  0  0
 16 17  2  0  0  0
 16 21  1  0  0  0
 16 31  1  0  0  0
 17 18  1  0  0  0
 17103  1  0  0  0
 18 19  2  0  0  0
 18104  1  0  0  0
 19 20  1  0  0  0
 19 24  1  0  0  0
 20 21  2  0  0  0
 20105  1  0  0  0
 21 23  1  0  0  0
 22 28  1  0  0  0
 22 32  2  0  0  0
 26 27  1  0  0  0
 28106  1  0  0  0
 28107  1  0  0  0
 29108  1  0  0  0
 29109  1  0  0  0
 33 34  1  0  0  0
 33 66  1  0  0  0
 33 70  2  0  0  0
 34 36  1  0  0  0
 34 59  1  0  0  0
 34110  1  0  0  0
 35 44  2  0  0  0
 35 45  1  0  0  0
 35 68  1  0  0  0
 36 56  1  0  0  0
 36111  1  0  0  0
 37 39  1  0  0  0
 37 47  1  0  0  0
 37 66  1  0  0  0
 37112  1  0  0  0
 38 43  2  0  0  0
 38 46  1  0  0  0
 38 47  1  0  0  0
 39 64  1  0  0  0
 39 67  2  0  0  0
 40 52  1  0  0  0
 40 53  2  0  0  0
 40 58  1  0  0  0
 41113  1  0  0  0
 41114  1  0  0  0
 41115  1  0  0  0
 41 48  1  0  0  0
 42 43  1  0  0  0
 42 66  1  0  0  0
 42116  1  0  0  0
 42117  1  0  0  0
 43 44  1  0  0  0
 44118  1  0  0  0
 45 46  2  0  0  0
 45119  1  0  0  0
 46120  1  0  0  0
 47121  1  0  0  0
 47122  1  0  0  0
 48 56  1  0  0  0
 48 65  1  0  0  0
 48123  1  0  0  0
 49 50  1  0  0  0
 49 53  1  0  0  0
 49 64  1  0  0  0
 49124  1  0  0  0
 50 51  1  0  0  0
 50125  1  0  0  0
 50126  1  0  0  0
 51 52  1  0  0  0
 51127  1  0  0  0
 51128  1  0  0  0
 52129  1  0  0  0
 52130  1  0  0  0
 53 54  1  0  0  0
 54 55  2  0  0  0
 54131  1  0  0  0
 55 57  1  0  0  0
 55132  1  0  0  0
 56 69  2  0  0  0
 57 58  2  0  0  0
 57133  1  0  0  0
 58134  1  0  0  0
 59 60  1  0  0  0
 59 61  1  0  0  0
 59 62  1  0  0  0
 60135  1  0  0  0
 60136  1  0  0  0
 60137  1  0  0  0
 61138  1  0  0  0
 61139  1  0  0  0
 61140  1  0  0  0
 62141  1  0  0  0
 62142  1  0  0  0
 62143  1  0  0  0
 63 65  1  0  0  0
 63144  1  0  0  0
 63145  1  0  0  0
 63146  1  0  0  0
 64147  1  0  0  0
 65148  1  0  0  0
 68 86  1  0  0  0
 71 73  2  0  0  0
 71 74  1  0  0  0
 71149  1  0  0  0
 72 75  1  0  0  0
 72 76  2  0  0  0
 72150  1  0  0  0
 73 76  1  0  0  0
 73 81  1  0  0  0
 74 75  2  0  0  0
 74 84  1  0  0  0
 75 87  1  0  0  0
 76 88  1  0  0  0
 77 78  2  0  0  0
 77 79  1  0  0  0
 77151  1  0  0  0
 78 82  1  0  0  0
 78 85  1  0  0  0
 79 87  1  0  0  0
 79 89  2  0  0  0
 80 81  2  0  0  0
 80152  1  0  0  0
 80153  1  0  0  0
 81154  1  0  0  0
 82 83  1  0  0  0
 82155  1  0  0  0
 82156  1  0  0  0
 83 87  1  0  0  0
 83157  1  0  0  0
 83158  1  0  0  0
 84159  1  0  0  0
 84160  1  0  0  0
 84161  1  0  0  0
 85 86  1  0  0  0
 85162  1  0  0  0
 85163  1  0  0  0
 86164  1  0  0  0
 86165  1  0  0  0
 88166  1  0  0  0
M  ISO  4   1 100  68 101  86 101  88 100
M  END
> <chiral flag>
0

> <version>
0

> <s_m_source_file>
/data/baiqing/PycharmProjects/Reinvent-master-3.2/result/LINK_invent/BTK/process_docking_weight1_custom_product_contain_oxygen_bond_distance_aromatic_linkinvent_7_9_3/rearranged_h_0062.sdf

> <i_m_source_file_index>
90

> <r_mmod_Potential_Energy-OPLS-2005>
151.863464355469

> <r_mmod_Stretch_Energy-OPLS-2005>
48.3822746276855

> <r_mmod_Bend_Energy-OPLS-2005>
126.584320068359

> <r_mmod_Torsional_Energy-OPLS-2005>
346.125305175781

> <r_mmod_Improper_Torsional_Energy-OPLS-2005>
7.02315092086792

> <r_mmod_Van_der_Waal_Energy-OPLS-2005>
170.80534362793

> <r_mmod_Electrostatic_Energy-OPLS-2005>
-361.188781738281

> <r_mmod_Solvation_Energy-OPLS-2005>
-213.190460205078

> <b_mmod_Minimization_Converged-OPLS-2005>
0

> <r_mmod_RMS_Derivative-OPLS-2005>
8.67856216430664

$$$$
90
                    3D
 Structure written by MMmdl.
160168  0  0  1  0            999 V2000
  -30.5569  -14.7865   20.4372 C   0  0  0  0  0  0
  -30.4448  -12.4776   19.4563 C   0  0  0  0  0  0
  -29.5039  -12.4865   18.2291 C   0  0  0  0  0  0
  -28.0330  -12.3089   18.6605 C   0  0  0  0  0  0
  -27.6382  -13.2204   19.8522 C   0  0  2  0  0  0
  -28.6927  -13.1675   20.9772 C   0  0  0  0  0  0
  -25.2527  -13.8150   20.5711 C   0  0  0  0  0  0
  -24.1785  -13.0417   20.9204 C   0  0  0  0  0  0
  -24.6362  -11.6890   20.8780 C   0  0  0  0  0  0
  -23.9032  -10.4280   21.0432 C   0  0  0  0  0  0
  -24.3597   -9.4194   21.9201 C   0  0  0  0  0  0
  -23.6272   -8.2226   22.0764 C   0  0  0  0  0  0
  -22.4264   -8.0276   21.3534 C   0  0  0  0  0  0
  -21.9891   -9.0248   20.4643 C   0  0  0  0  0  0
  -22.7213  -10.2131   20.3063 C   0  0  0  0  0  0
  -21.6838   -6.0705   22.5261 C   0  0  0  0  0  0
  -21.4010   -6.5616   23.8190 C   0  0  0  0  0  0
  -21.3658   -5.6790   24.9170 C   0  0  0  0  0  0
  -21.6031   -4.3051   24.7238 C   0  0  0  0  0  0
  -21.8810   -3.8132   23.4358 C   0  0  0  0  0  0
  -21.9185   -4.6938   22.3402 C   0  0  0  0  0  0
  -22.7821  -13.5232   21.1846 C   0  0  0  0  0  0
  -22.1663   -4.2103   21.0993 F   0  0  0  0  0  0
  -21.5620   -3.4553   25.7753 F   0  0  0  0  0  0
  -29.9734  -13.5429   20.3674 N   0  0  0  0  0  0
  -26.2929  -12.9319   20.3342 N   0  0  0  0  0  0
  -25.9309  -11.6484   20.5835 N   0  0  0  0  0  0
  -22.0471  -12.8237   22.0423 N   0  0  0  0  0  0
  -25.4255  -15.1866   20.4083 N   0  0  0  0  0  0
  -31.7703  -14.9099   20.2382 O   0  0  0  0  0  0
  -21.6630   -6.8867   21.4230 O   0  0  0  0  0  0
  -22.3518  -14.5545   20.6731 O   0  0  0  0  0  0
  -24.6307  -31.8517   23.2020 C   0  0  0  0  0  0
  -25.9143  -32.4723   23.8325 C   0  0  1  0  0  0
  -27.2218  -27.2777   20.1180 C   0  0  0  0  0  0
  -25.5946  -33.8521   24.2257 N   0  0  0  0  0  0
  -23.4259  -30.4744   21.5428 C   0  0  2  0  0  0
  -24.8735  -28.9225   20.1147 C   0  0  0  0  0  0
  -22.7488  -29.4567   22.4917 C   0  0  0  0  0  0
  -18.0283  -28.1375   22.8515 C   0  0  0  0  0  0
  -24.1489  -36.7225   23.2647 C   0  0  0  0  0  0
  -25.9712  -30.7746   21.3759 C   0  0  0  0  0  0
  -26.0475  -29.3991   20.7117 C   0  0  0  0  0  0
  -27.2305  -28.5946   20.6890 C   0  0  0  0  0  0
  -26.0212  -26.8555   19.5078 C   0  0  0  0  0  0
  -24.8648  -27.6595   19.5026 C   0  0  0  0  0  0
  -23.6428  -29.8038   20.1600 C   0  0  0  0  0  0
  -25.4120  -36.3044   24.0337 C   0  0  1  0  0  0
  -20.5905  -28.3696   23.1278 C   0  0  2  0  0  0
  -20.6748  -26.9399   22.5404 C   0  0  0  0  0  0
  -19.5720  -26.6379   21.5207 C   0  0  0  0  0  0
  -18.1917  -26.7917   22.1636 C   0  0  0  0  0  0
  -19.1543  -28.8865   23.2906 C   0  0  0  0  0  0
  -18.9441  -30.1465   23.8935 C   0  0  0  0  0  0
  -17.6433  -30.6598   24.0558 C   0  0  0  0  0  0
  -25.9046  -34.9416   23.5098 C   0  0  0  0  0  0
  -16.5334  -29.9076   23.6334 C   0  0  0  0  0  0
  -16.7265  -28.6477   23.0404 C   0  0  0  0  0  0
  -26.4534  -31.6543   25.0704 C   0  0  0  0  0  0
  -25.3744  -31.3693   26.1418 C   0  0  0  0  0  0
  -27.0357  -30.2949   24.6180 C   0  0  0  0  0  0
  -27.6084  -32.4300   25.7471 C   0  0  0  0  0  0
  -27.5597  -37.1767   24.8492 C   0  0  0  0  0  0
  -21.4197  -29.3033   22.3664 N   0  0  0  0  0  0
  -26.4304  -37.3733   23.9420 N   0  0  0  0  0  0
  -24.6948  -31.0502   22.0981 N   0  0  0  0  0  0
  -23.4188  -28.8140   23.3045 O   0  0  0  0  0  0
  -28.3298  -26.4068   20.1077 O   0  0  0  0  0  0
  -26.5628  -34.8888   22.4666 O   0  0  0  0  0  0
  -23.5481  -32.1342   23.7357 O   0  0  0  0  0  0
  -29.2906  -18.4832   20.2594 C   0  0  0  0  0  0
  -30.1444  -17.3918   22.2613 C   0  0  0  0  0  0
  -29.3498  -19.7284   22.3388 C   0  0  0  0  0  0
  -29.7613  -17.2618   20.9128 C   0  0  0  0  0  0
  -29.1524  -19.7796   20.9282 C   0  0  0  0  0  0
  -29.9089  -18.5877   22.9633 C   0  0  0  0  0  0
  -29.1318  -22.3733   20.4503 C   0  0  0  0  0  0
  -28.8732  -20.8359   23.2674 C   0  0  0  0  0  0
  -29.5855  -23.1508   17.3606 C   0  0  0  0  0  0
  -29.5519  -24.0811   18.5893 C   0  0  0  0  0  0
  -28.1774  -24.9861   20.5829 C   0  0  0  0  0  0
  -28.5331  -23.6681   19.6848 C   0  0  2  0  0  0
  -28.7146  -21.0527   20.2537 N   0  0  0  0  0  0
  -29.7032  -15.8843   20.3568 N   0  0  0  0  0  0
  -30.0807  -22.5977   21.2041 O   0  0  0  0  0  0
  -30.1665  -18.6141   24.2932 F   0  0  0  0  0  0
  -31.4775  -12.6372   19.1432 H   0  0  0  0  0  0
  -30.4309  -11.5067   19.9569 H   0  0  0  0  0  0
  -29.7883  -11.7052   17.5224 H   0  0  0  0  0  0
  -29.6132  -13.4291   17.6960 H   0  0  0  0  0  0
  -27.9028  -11.2644   18.9479 H   0  0  0  0  0  0
  -27.3623  -12.4783   17.8178 H   0  0  0  0  0  0
  -27.6202  -14.2332   19.4538 H   0  0  0  0  0  0
  -28.7561  -12.1672   21.4068 H   0  0  0  0  0  0
  -28.4359  -13.8404   21.7983 H   0  0  0  0  0  0
  -25.2752   -9.5656   22.4773 H   0  0  0  0  0  0
  -23.9950   -7.4604   22.7501 H   0  0  0  0  0  0
  -21.0802   -8.8752   19.8977 H   0  0  0  0  0  0
  -22.3652  -10.9661   19.6171 H   0  0  0  0  0  0
  -21.2010   -7.6135   23.9675 H   0  0  0  0  0  0
  -21.1502   -6.0538   25.9060 H   0  0  0  0  0  0
  -22.0607   -2.7587   23.2865 H   0  0  0  0  0  0
  -22.4086  -11.9890   22.4768 H   0  0  0  0  0  0
  -21.1107  -13.1249   22.2707 H   0  0  0  0  0  0
  -24.6626  -15.8490   20.5075 H   0  0  0  0  0  0
  -26.2756  -15.6236   20.0781 H   0  0  0  0  0  0
  -26.7192  -32.5390   23.1063 H   0  0  0  0  0  0
  -25.0071  -33.9594   25.0405 H   0  0  0  0  0  0
  -22.7238  -31.2983   21.3955 H   0  0  0  0  0  0
  -23.3758  -35.9545   23.3327 H   0  0  0  0  0  0
  -24.3593  -36.8823   22.2058 H   0  0  0  0  0  0
  -23.7188  -37.6416   23.6643 H   0  0  0  0  0  0
  -26.1170  -31.5472   20.6207 H   0  0  0  0  0  0
  -26.8467  -30.8118   22.0115 H   0  0  0  0  0  0
  -28.1423  -28.9684   21.1369 H   0  0  0  0  0  0
  -25.9749  -25.8855   19.0346 H   0  0  0  0  0  0
  -23.9586  -27.2916   19.0402 H   0  0  0  0  0  0
  -23.7693  -30.5782   19.4030 H   0  0  0  0  0  0
  -22.7593  -29.2320   19.8618 H   0  0  0  0  0  0
  -25.1287  -36.1889   25.0818 H   0  0  0  0  0  0
  -21.0030  -28.3277   24.1388 H   0  0  0  0  0  0
  -20.5623  -26.2288   23.3607 H   0  0  0  0  0  0
  -21.6604  -26.7370   22.1205 H   0  0  0  0  0  0
  -19.6852  -25.6295   21.1234 H   0  0  0  0  0  0
  -19.6668  -27.3207   20.6756 H   0  0  0  0  0  0
  -17.4162  -26.6754   21.4049 H   0  0  0  0  0  0
  -18.0325  -26.0031   22.9003 H   0  0  0  0  0  0
  -19.7893  -30.7286   24.2341 H   0  0  0  0  0  0
  -17.4947  -31.6277   24.5138 H   0  0  0  0  0  0
  -15.5331  -30.2962   23.7605 H   0  0  0  0  0  0
  -15.8681  -28.0747   22.7153 H   0  0  0  0  0  0
  -24.5964  -30.6998   25.7757 H   0  0  0  0  0  0
  -24.8888  -32.2852   26.4797 H   0  0  0  0  0  0
  -25.8071  -30.8911   27.0211 H   0  0  0  0  0  0
  -26.2933  -29.6712   24.1194 H   0  0  0  0  0  0
  -27.4042  -29.7226   25.4700 H   0  0  0  0  0  0
  -27.8820  -30.4223   23.9424 H   0  0  0  0  0  0
  -27.2695  -33.3624   26.2000 H   0  0  0  0  0  0
  -28.3904  -32.6823   25.0296 H   0  0  0  0  0  0
  -28.0714  -31.8425   26.5417 H   0  0  0  0  0  0
  -28.2614  -38.0069   24.7516 H   0  0  0  0  0  0
  -28.1099  -36.2589   24.6347 H   0  0  0  0  0  0
  -27.2317  -37.1439   25.8903 H   0  0  0  0  0  0
  -20.9422  -29.8670   21.6788 H   0  0  0  0  0  0
  -26.0195  -38.2818   24.1399 H   0  0  0  0  0  0
  -29.0176  -18.4247   19.2168 H   0  0  0  0  0  0
  -30.5258  -16.5407   22.8058 H   0  0  0  0  0  0
  -28.1108  -21.4653   22.8146 H   0  0  0  0  0  0
  -29.7079  -21.4538   23.5951 H   0  0  0  0  0  0
  -28.3968  -20.4022   24.1478 H   0  0  0  0  0  0
  -30.3778  -23.4490   16.6759 H   0  0  0  0  0  0
  -28.6442  -23.1806   16.8093 H   0  0  0  0  0  0
  -29.7858  -22.1110   17.6178 H   0  0  0  0  0  0
  -29.3568  -25.0993   18.2424 H   0  0  0  0  0  0
  -30.5482  -24.1258   19.0320 H   0  0  0  0  0  0
  -27.1622  -24.8621   20.9643 H   0  0  0  0  0  0
  -28.7912  -24.9353   21.4820 H   0  0  0  0  0  0
  -27.6151  -23.3717   19.1735 H   0  0  0  0  0  0
  -28.0342  -20.9384   19.5156 H   0  0  0  0  0  0
  -28.7759  -15.6223   20.0618 H   0  0  0  0  0  0
  1 25  1  0  0  0
  1 30  2  0  0  0
  1 84  1  0  0  0
  2  3  1  0  0  0
  2 25  1  0  0  0
  2 87  1  0  0  0
  2 88  1  0  0  0
  3  4  1  0  0  0
  3 89  1  0  0  0
  3 90  1  0  0  0
  4  5  1  0  0  0
  4 91  1  0  0  0
  4 92  1  0  0  0
  5  6  1  0  0  0
  5 26  1  0  0  0
  5 93  1  0  0  0
  6 25  1  0  0  0
  6 94  1  0  0  0
  6 95  1  0  0  0
  7  8  2  0  0  0
  7 26  1  0  0  0
  7 29  1  0  0  0
  8  9  1  0  0  0
  8 22  1  0  0  0
  9 10  1  0  0  0
  9 27  2  0  0  0
 10 11  2  0  0  0
 10 15  1  0  0  0
 11 12  1  0  0  0
 11 96  1  0  0  0
 12 13  2  0  0  0
 12 97  1  0  0  0
 13 14  1  0  0  0
 13 31  1  0  0  0
 14 15  2  0  0  0
 14 98  1  0  0  0
 15 99  1  0  0  0
 16 17  2  0  0  0
 16 21  1  0  0  0
 16 31  1  0  0  0
 17 18  1  0  0  0
 17100  1  0  0  0
 18 19  2  0  0  0
 18101  1  0  0  0
 19 20  1  0  0  0
 19 24  1  0  0  0
 20 21  2  0  0  0
 20102  1  0  0  0
 21 23  1  0  0  0
 22 28  1  0  0  0
 22 32  2  0  0  0
 26 27  1  0  0  0
 28103  1  0  0  0
 28104  1  0  0  0
 29105  1  0  0  0
 29106  1  0  0  0
 33 34  1  0  0  0
 33 66  1  0  0  0
 33 70  2  0  0  0
 34 36  1  0  0  0
 34 59  1  0  0  0
 34107  1  0  0  0
 35 44  2  0  0  0
 35 45  1  0  0  0
 35 68  1  0  0  0
 36 56  1  0  0  0
 36108  1  0  0  0
 37 39  1  0  0  0
 37 47  1  0  0  0
 37 66  1  0  0  0
 37109  1  0  0  0
 38 43  2  0  0  0
 38 46  1  0  0  0
 38 47  1  0  0  0
 39 64  1  0  0  0
 39 67  2  0  0  0
 40 52  1  0  0  0
 40 53  2  0  0  0
 40 58  1  0  0  0
 41110  1  0  0  0
 41111  1  0  0  0
 41112  1  0  0  0
 41 48  1  0  0  0
 42 43  1  0  0  0
 42 66  1  0  0  0
 42113  1  0  0  0
 42114  1  0  0  0
 43 44  1  0  0  0
 44115  1  0  0  0
 45 46  2  0  0  0
 45116  1  0  0  0
 46117  1  0  0  0
 47118  1  0  0  0
 47119  1  0  0  0
 48 56  1  0  0  0
 48 65  1  0  0  0
 48120  1  0  0  0
 49 50  1  0  0  0
 49 53  1  0  0  0
 49 64  1  0  0  0
 49121  1  0  0  0
 50 51  1  0  0  0
 50122  1  0  0  0
 50123  1  0  0  0
 51 52  1  0  0  0
 51124  1  0  0  0
 51125  1  0  0  0
 52126  1  0  0  0
 52127  1  0  0  0
 53 54  1  0  0  0
 54 55  2  0  0  0
 54128  1  0  0  0
 55 57  1  0  0  0
 55129  1  0  0  0
 56 69  2  0  0  0
 57 58  2  0  0  0
 57130  1  0  0  0
 58131  1  0  0  0
 59 60  1  0  0  0
 59 61  1  0  0  0
 59 62  1  0  0  0
 60132  1  0  0  0
 60133  1  0  0  0
 60134  1  0  0  0
 61135  1  0  0  0
 61136  1  0  0  0
 61137  1  0  0  0
 62138  1  0  0  0
 62139  1  0  0  0
 62140  1  0  0  0
 63 65  1  0  0  0
 63141  1  0  0  0
 63142  1  0  0  0
 63143  1  0  0  0
 64144  1  0  0  0
 65145  1  0  0  0
 68 81  1  0  0  0
 71 74  2  0  0  0
 71 75  1  0  0  0
 71146  1  0  0  0
 72 74  1  0  0  0
 72 76  2  0  0  0
 72147  1  0  0  0
 73 75  2  0  0  0
 73 76  1  0  0  0
 73 78  1  0  0  0
 74 84  1  0  0  0
 75 83  1  0  0  0
 76 86  1  0  0  0
 77 82  1  0  0  0
 77 83  1  0  0  0
 77 85  2  0  0  0
 78148  1  0  0  0
 78149  1  0  0  0
 78150  1  0  0  0
 79 80  1  0  0  0
 79151  1  0  0  0
 79152  1  0  0  0
 79153  1  0  0  0
 80154  1  0  0  0
 80155  1  0  0  0
 80 82  1  0  0  0
 81 82  1  0  0  0
 81156  1  0  0  0
 81157  1  0  0  0
 82158  1  0  0  0
 83159  1  0  0  0
 84160  1  0  0  0
M  ISO  4   1 100  68 101  81 101  84 100
M  END
> <chiral flag>
0

> <version>
0

> <s_m_source_file>
/data/baiqing/PycharmProjects/Reinvent-master-3.2/result/LINK_invent/BTK/process_docking_weight1_custom_product_contain_oxygen_bond_distance_aromatic_linkinvent_7_9_3/rearranged_h_0062.sdf

> <i_m_source_file_index>
91

> <r_mmod_Potential_Energy-OPLS-2005>
285.311859130859

> <r_mmod_Stretch_Energy-OPLS-2005>
138.642883300781

> <r_mmod_Bend_Energy-OPLS-2005>
169.586059570312

> <r_mmod_Torsional_Energy-OPLS-2005>
301.874481201172

> <r_mmod_Improper_Torsional_Energy-OPLS-2005>
12.7295722961426

> <r_mmod_Van_der_Waal_Energy-OPLS-2005>
140.317779541016

> <r_mmod_Electrostatic_Energy-OPLS-2005>
-339.514404296875

> <r_mmod_Solvation_Energy-OPLS-2005>
-232.208923339844

> <b_mmod_Minimization_Converged-OPLS-2005>
0

> <r_mmod_RMS_Derivative-OPLS-2005>
5.66436862945557

$$$$
91
                    3D
 Structure written by MMmdl.
160168  0  0  1  0            999 V2000
  -30.6655  -14.5046   20.5304 C   0  0  0  0  0  0
  -30.4238  -12.3085   19.4436 C   0  0  0  0  0  0
  -29.5025  -12.4966   18.2185 C   0  0  0  0  0  0
  -28.0202  -12.3702   18.6240 C   0  0  0  0  0  0
  -27.6614  -13.2081   19.8810 C   0  0  2  0  0  0
  -28.7003  -12.9989   21.0062 C   0  0  0  0  0  0
  -25.2577  -13.8154   20.5675 C   0  0  0  0  0  0
  -24.1825  -13.0434   20.9146 C   0  0  0  0  0  0
  -24.6377  -11.6903   20.8709 C   0  0  0  0  0  0
  -23.9041  -10.4294   21.0388 C   0  0  0  0  0  0
  -24.3609   -9.4215   21.9160 C   0  0  0  0  0  0
  -23.6294   -8.2248   22.0746 C   0  0  0  0  0  0
  -22.4273   -8.0275   21.3540 C   0  0  0  0  0  0
  -21.9894   -9.0239   20.4635 C   0  0  0  0  0  0
  -22.7211  -10.2119   20.3041 C   0  0  0  0  0  0
  -21.6845   -6.0734   22.5278 C   0  0  0  0  0  0
  -21.4017   -6.5645   23.8211 C   0  0  0  0  0  0
  -21.3676   -5.6801   24.9174 C   0  0  0  0  0  0
  -21.6054   -4.3062   24.7222 C   0  0  0  0  0  0
  -21.8816   -3.8148   23.4341 C   0  0  0  0  0  0
  -21.9187   -4.6964   22.3398 C   0  0  0  0  0  0
  -22.7853  -13.5223   21.1826 C   0  0  0  0  0  0
  -22.1648   -4.2150   21.0973 F   0  0  0  0  0  0
  -21.5639   -3.4555   25.7738 F   0  0  0  0  0  0
  -30.0310  -13.3023   20.4563 N   0  0  0  0  0  0
  -26.3019  -12.9325   20.3382 N   0  0  0  0  0  0
  -25.9314  -11.6484   20.5768 N   0  0  0  0  0  0
  -22.0524  -12.8211   22.0397 N   0  0  0  0  0  0
  -25.4307  -15.1879   20.4111 N   0  0  0  0  0  0
  -31.8039  -14.6877   20.0892 O   0  0  0  0  0  0
  -21.6640   -6.8873   21.4237 O   0  0  0  0  0  0
  -22.3545  -14.5547   20.6700 O   0  0  0  0  0  0
  -24.6159  -31.8676   23.2085 C   0  0  0  0  0  0
  -25.9045  -32.4823   23.8393 C   0  0  1  0  0  0
  -27.2328  -27.4203   20.1105 C   0  0  0  0  0  0
  -25.5897  -33.8619   24.2321 N   0  0  0  0  0  0
  -23.4054  -30.4890   21.5493 C   0  0  2  0  0  0
  -24.8549  -28.9524   20.1139 C   0  0  0  0  0  0
  -22.7418  -29.4657   22.4995 C   0  0  0  0  0  0
  -18.0272  -28.1376   22.8489 C   0  0  0  0  0  0
  -24.1494  -36.7325   23.2637 C   0  0  0  0  0  0
  -25.9349  -30.8302   21.3629 C   0  0  0  0  0  0
  -26.0153  -29.4632   20.7105 C   0  0  0  0  0  0
  -27.2111  -28.7062   20.7013 C   0  0  0  0  0  0
  -26.0605  -26.9282   19.5009 C   0  0  0  0  0  0
  -24.8734  -27.6861   19.5019 C   0  0  0  0  0  0
  -23.6159  -29.8192   20.1647 C   0  0  0  0  0  0
  -25.4114  -36.3116   24.0332 C   0  0  1  0  0  0
  -20.5863  -28.3671   23.1312 C   0  0  2  0  0  0
  -20.6768  -26.9407   22.5417 C   0  0  0  0  0  0
  -19.5750  -26.6384   21.5212 C   0  0  0  0  0  0
  -18.1924  -26.7920   22.1619 C   0  0  0  0  0  0
  -19.1521  -28.8840   23.2896 C   0  0  0  0  0  0
  -18.9447  -30.1443   23.8914 C   0  0  0  0  0  0
  -17.6448  -30.6584   24.0561 C   0  0  0  0  0  0
  -25.9041  -34.9476   23.5128 C   0  0  0  0  0  0
  -16.5340  -29.9087   23.6317 C   0  0  0  0  0  0
  -16.7262  -28.6500   23.0347 C   0  0  0  0  0  0
  -26.4466  -31.6603   25.0723 C   0  0  0  0  0  0
  -25.3719  -31.3698   26.1462 C   0  0  0  0  0  0
  -27.0299  -30.3050   24.6093 C   0  0  0  0  0  0
  -27.6050  -32.4318   25.7479 C   0  0  0  0  0  0
  -27.5589  -37.1816   24.8458 C   0  0  0  0  0  0
  -21.4146  -29.3035   22.3726 N   0  0  0  0  0  0
  -26.4303  -37.3798   23.9401 N   0  0  0  0  0  0
  -24.6704  -31.0765   22.0989 N   0  0  0  0  0  0
  -23.4178  -28.8204   23.3049 O   0  0  0  0  0  0
  -28.3753  -26.6470   20.1180 O   0  0  0  0  0  0
  -26.5602  -34.8924   22.4689 O   0  0  0  0  0  0
  -23.5346  -32.1436   23.7465 O   0  0  0  0  0  0
  -29.4634  -16.5867   18.7466 C   0  0  0  0  0  0
  -29.4071  -17.9923   20.7235 C   0  0  0  0  0  0
  -29.0387  -17.6638   17.9423 C   0  0  0  0  0  0
  -28.7667  -18.9249   18.5424 C   0  0  0  0  0  0
  -29.6257  -16.7148   20.1408 C   0  0  0  0  0  0
  -29.0255  -19.1153   19.9328 C   0  0  0  0  0  0
  -29.3091  -21.5953   20.2234 C   0  0  0  0  0  0
  -28.1386  -20.0412   17.7070 C   0  0  0  0  0  0
  -28.7695  -22.8495   20.9505 C   0  0  0  0  0  0
  -28.7778  -24.1645   20.1040 C   0  0  0  0  0  0
  -28.2763  -25.4179   20.8708 C   0  0  0  0  0  0
  -28.8425  -17.4110   16.4449 C   0  0  0  0  0  0
  -28.8069  -20.3862   20.5753 N   0  0  0  0  0  0
  -29.9046  -15.5476   20.9358 N   0  0  0  0  0  0
  -30.1875  -21.7259   19.3675 O   0  0  0  0  0  0
  -29.4124  -16.2685   16.0577 F   0  0  0  0  0  0
  -27.5419  -17.3273   16.1639 F   0  0  0  0  0  0
  -29.3867  -18.3865   15.7166 F   0  0  0  0  0  0
  -31.4712  -12.4040   19.1513 H   0  0  0  0  0  0
  -30.3167  -11.3010   19.8494 H   0  0  0  0  0  0
  -29.7403  -11.7575   17.4525 H   0  0  0  0  0  0
  -29.6816  -13.4684   17.7592 H   0  0  0  0  0  0
  -27.8206  -11.3162   18.8179 H   0  0  0  0  0  0
  -27.3764  -12.6510   17.7898 H   0  0  0  0  0  0
  -27.6980  -14.2554   19.5837 H   0  0  0  0  0  0
  -28.6774  -11.9667   21.3589 H   0  0  0  0  0  0
  -28.4650  -13.6092   21.8798 H   0  0  0  0  0  0
  -25.2759   -9.5723   22.4715 H   0  0  0  0  0  0
  -24.0014   -7.4656   22.7483 H   0  0  0  0  0  0
  -21.0817   -8.8763   19.8937 H   0  0  0  0  0  0
  -22.3663  -10.9665   19.6162 H   0  0  0  0  0  0
  -21.2016   -7.6155   23.9721 H   0  0  0  0  0  0
  -21.1498   -6.0525   25.9077 H   0  0  0  0  0  0
  -22.0577   -2.7608   23.2840 H   0  0  0  0  0  0
  -22.4157  -11.9843   22.4716 H   0  0  0  0  0  0
  -21.1167  -13.1246   22.2685 H   0  0  0  0  0  0
  -24.6658  -15.8432   20.5267 H   0  0  0  0  0  0
  -26.2875  -15.6305   20.1056 H   0  0  0  0  0  0
  -26.7116  -32.5539   23.1162 H   0  0  0  0  0  0
  -25.0055  -33.9785   25.0467 H   0  0  0  0  0  0
  -22.6942  -31.3057   21.4072 H   0  0  0  0  0  0
  -23.3754  -35.9662   23.3305 H   0  0  0  0  0  0
  -24.3585  -36.8942   22.2050 H   0  0  0  0  0  0
  -23.7256  -37.6529   23.6655 H   0  0  0  0  0  0
  -26.0456  -31.5959   20.5940 H   0  0  0  0  0  0
  -26.8222  -30.8860   21.9823 H   0  0  0  0  0  0
  -28.1075  -29.0949   21.1635 H   0  0  0  0  0  0
  -26.0674  -25.9555   19.0283 H   0  0  0  0  0  0
  -23.9837  -27.2882   19.0332 H   0  0  0  0  0  0
  -23.7225  -30.5920   19.4032 H   0  0  0  0  0  0
  -22.7407  -29.2374   19.8698 H   0  0  0  0  0  0
  -25.1296  -36.1986   25.0825 H   0  0  0  0  0  0
  -20.9940  -28.3237   24.1441 H   0  0  0  0  0  0
  -20.5680  -26.2278   23.3607 H   0  0  0  0  0  0
  -21.6641  -26.7460   22.1212 H   0  0  0  0  0  0
  -19.6919  -25.6295   21.1244 H   0  0  0  0  0  0
  -19.6689  -27.3190   20.6737 H   0  0  0  0  0  0
  -17.4199  -26.6667   21.4016 H   0  0  0  0  0  0
  -18.0323  -26.0055   22.9008 H   0  0  0  0  0  0
  -19.7925  -30.7246   24.2306 H   0  0  0  0  0  0
  -17.5008  -31.6269   24.5158 H   0  0  0  0  0  0
  -15.5346  -30.3000   23.7629 H   0  0  0  0  0  0
  -15.8660  -28.0827   22.7058 H   0  0  0  0  0  0
  -24.5894  -30.7051   25.7783 H   0  0  0  0  0  0
  -24.8899  -32.2841   26.4929 H   0  0  0  0  0  0
  -25.8059  -30.8846   27.0214 H   0  0  0  0  0  0
  -26.2840  -29.6814   24.1146 H   0  0  0  0  0  0
  -27.4075  -29.7286   25.4550 H   0  0  0  0  0  0
  -27.8674  -30.4385   23.9241 H   0  0  0  0  0  0
  -27.2687  -33.3617   26.2079 H   0  0  0  0  0  0
  -28.3836  -32.6882   25.0282 H   0  0  0  0  0  0
  -28.0741  -31.8424   26.5368 H   0  0  0  0  0  0
  -28.2604  -38.0116   24.7518 H   0  0  0  0  0  0
  -28.1091  -36.2650   24.6280 H   0  0  0  0  0  0
  -27.2303  -37.1463   25.8858 H   0  0  0  0  0  0
  -20.9322  -29.8760   21.6942 H   0  0  0  0  0  0
  -26.0200  -38.2882   24.1385 H   0  0  0  0  0  0
  -29.6168  -15.6292   18.2764 H   0  0  0  0  0  0
  -29.5338  -18.1141   21.7902 H   0  0  0  0  0  0
  -27.5388  -19.6597   16.8833 H   0  0  0  0  0  0
  -28.9054  -20.6924   17.2887 H   0  0  0  0  0  0
  -27.4544  -20.6431   18.3034 H   0  0  0  0  0  0
  -29.3701  -22.9916   21.8497 H   0  0  0  0  0  0
  -27.7529  -22.6477   21.2902 H   0  0  0  0  0  0
  -28.1602  -24.0211   19.2170 H   0  0  0  0  0  0
  -29.7887  -24.3561   19.7423 H   0  0  0  0  0  0
  -28.8811  -25.5514   21.7679 H   0  0  0  0  0  0
  -27.2618  -25.2373   21.2312 H   0  0  0  0  0  0
  -28.2273  -20.3749   21.4046 H   0  0  0  0  0  0
  -29.1589  -15.2909   21.5660 H   0  0  0  0  0  0
  1 25  1  0  0  0
  1 30  2  0  0  0
  1 84  1  0  0  0
  2  3  1  0  0  0
  2 25  1  0  0  0
  2 89  1  0  0  0
  2 90  1  0  0  0
  3  4  1  0  0  0
  3 91  1  0  0  0
  3 92  1  0  0  0
  4  5  1  0  0  0
  4 93  1  0  0  0
  4 94  1  0  0  0
  5  6  1  0  0  0
  5 26  1  0  0  0
  5 95  1  0  0  0
  6 25  1  0  0  0
  6 96  1  0  0  0
  6 97  1  0  0  0
  7  8  2  0  0  0
  7 26  1  0  0  0
  7 29  1  0  0  0
  8  9  1  0  0  0
  8 22  1  0  0  0
  9 10  1  0  0  0
  9 27  2  0  0  0
 10 11  2  0  0  0
 10 15  1  0  0  0
 11 12  1  0  0  0
 11 98  1  0  0  0
 12 13  2  0  0  0
 12 99  1  0  0  0
 13 14  1  0  0  0
 13 31  1  0  0  0
 14 15  2  0  0  0
 14100  1  0  0  0
 15101  1  0  0  0
 16 17  2  0  0  0
 16 21  1  0  0  0
 16 31  1  0  0  0
 17 18  1  0  0  0
 17102  1  0  0  0
 18 19  2  0  0  0
 18103  1  0  0  0
 19 20  1  0  0  0
 19 24  1  0  0  0
 20 21  2  0  0  0
 20104  1  0  0  0
 21 23  1  0  0  0
 22 28  1  0  0  0
 22 32  2  0  0  0
 26 27  1  0  0  0
 28105  1  0  0  0
 28106  1  0  0  0
 29107  1  0  0  0
 29108  1  0  0  0
 33 34  1  0  0  0
 33 66  1  0  0  0
 33 70  2  0  0  0
 34 36  1  0  0  0
 34 59  1  0  0  0
 34109  1  0  0  0
 35 44  2  0  0  0
 35 45  1  0  0  0
 35 68  1  0  0  0
 36 56  1  0  0  0
 36110  1  0  0  0
 37 39  1  0  0  0
 37 47  1  0  0  0
 37 66  1  0  0  0
 37111  1  0  0  0
 38 43  2  0  0  0
 38 46  1  0  0  0
 38 47  1  0  0  0
 39 64  1  0  0  0
 39 67  2  0  0  0
 40 52  1  0  0  0
 40 53  2  0  0  0
 40 58  1  0  0  0
 41112  1  0  0  0
 41113  1  0  0  0
 41114  1  0  0  0
 41 48  1  0  0  0
 42 43  1  0  0  0
 42 66  1  0  0  0
 42115  1  0  0  0
 42116  1  0  0  0
 43 44  1  0  0  0
 44117  1  0  0  0
 45 46  2  0  0  0
 45118  1  0  0  0
 46119  1  0  0  0
 47120  1  0  0  0
 47121  1  0  0  0
 48 56  1  0  0  0
 48 65  1  0  0  0
 48122  1  0  0  0
 49 50  1  0  0  0
 49 53  1  0  0  0
 49 64  1  0  0  0
 49123  1  0  0  0
 50 51  1  0  0  0
 50124  1  0  0  0
 50125  1  0  0  0
 51 52  1  0  0  0
 51126  1  0  0  0
 51127  1  0  0  0
 52128  1  0  0  0
 52129  1  0  0  0
 53 54  1  0  0  0
 54 55  2  0  0  0
 54130  1  0  0  0
 55 57  1  0  0  0
 55131  1  0  0  0
 56 69  2  0  0  0
 57 58  2  0  0  0
 57132  1  0  0  0
 58133  1  0  0  0
 59 60  1  0  0  0
 59 61  1  0  0  0
 59 62  1  0  0  0
 60134  1  0  0  0
 60135  1  0  0  0
 60136  1  0  0  0
 61137  1  0  0  0
 61138  1  0  0  0
 61139  1  0  0  0
 62140  1  0  0  0
 62141  1  0  0  0
 62142  1  0  0  0
 63 65  1  0  0  0
 63143  1  0  0  0
 63144  1  0  0  0
 63145  1  0  0  0
 64146  1  0  0  0
 65147  1  0  0  0
 68 81  1  0  0  0
 71 73  2  0  0  0
 71 75  1  0  0  0
 71148  1  0  0  0
 72 75  2  0  0  0
 72 76  1  0  0  0
 72149  1  0  0  0
 73 74  1  0  0  0
 73 82  1  0  0  0
 74 76  2  0  0  0
 74 78  1  0  0  0
 75 84  1  0  0  0
 76 83  1  0  0  0
 77 79  1  0  0  0
 77 83  1  0  0  0
 77 85  2  0  0  0
 78150  1  0  0  0
 78151  1  0  0  0
 78152  1  0  0  0
 79 80  1  0  0  0
 79153  1  0  0  0
 79154  1  0  0  0
 80 81  1  0  0  0
 80155  1  0  0  0
 80156  1  0  0  0
 81157  1  0  0  0
 81158  1  0  0  0
 82 86  1  0  0  0
 82 87  1  0  0  0
 82 88  1  0  0  0
 83159  1  0  0  0
 84160  1  0  0  0
M  ISO  4   1 100  68 101  81 101  84 100
M  END
> <chiral flag>
0

> <version>
0

> <s_m_source_file>
/data/baiqing/PycharmProjects/Reinvent-master-3.2/result/LINK_invent/BTK/process_docking_weight1_custom_product_contain_oxygen_bond_distance_aromatic_linkinvent_7_9_3/rearranged_h_0062.sdf

> <i_m_source_file_index>
92

> <r_mmod_Potential_Energy-OPLS-2005>
-11.3948602676392

> <r_mmod_Stretch_Energy-OPLS-2005>
46.0453987121582

> <r_mmod_Bend_Energy-OPLS-2005>
96.0040512084961

> <r_mmod_Torsional_Energy-OPLS-2005>
296.921356201172

> <r_mmod_Improper_Torsional_Energy-OPLS-2005>
7.46790075302124

> <r_mmod_Van_der_Waal_Energy-OPLS-2005>
155.282241821289

> <r_mmod_Electrostatic_Energy-OPLS-2005>
-393.342834472656

> <r_mmod_Solvation_Energy-OPLS-2005>
-236.345489501953

> <b_mmod_Minimization_Converged-OPLS-2005>
0

> <r_mmod_RMS_Derivative-OPLS-2005>
1.63675796985626

$$$$
92
                    3D
 Structure written by MMmdl.
158166  0  0  1  0            999 V2000
  -30.6507  -14.6719   20.5205 C   0  0  0  0  0  0
  -30.4384  -12.4266   19.4486 C   0  0  0  0  0  0
  -29.5051  -12.5156   18.2213 C   0  0  0  0  0  0
  -28.0357  -12.3265   18.6462 C   0  0  0  0  0  0
  -27.6488  -13.2197   19.8559 C   0  0  2  0  0  0
  -28.6958  -13.1312   20.9901 C   0  0  0  0  0  0
  -25.2554  -13.8157   20.5664 C   0  0  0  0  0  0
  -24.1836  -13.0425   20.9199 C   0  0  0  0  0  0
  -24.6427  -11.6903   20.8783 C   0  0  0  0  0  0
  -23.9088  -10.4294   21.0449 C   0  0  0  0  0  0
  -24.3631   -9.4191   21.9210 C   0  0  0  0  0  0
  -23.6305   -8.2223   22.0759 C   0  0  0  0  0  0
  -22.4285   -8.0289   21.3544 C   0  0  0  0  0  0
  -21.9927   -9.0278   20.4647 C   0  0  0  0  0  0
  -22.7270  -10.2150   20.3093 C   0  0  0  0  0  0
  -21.6846   -6.0762   22.5289 C   0  0  0  0  0  0
  -21.4002   -6.5659   23.8227 C   0  0  0  0  0  0
  -21.3661   -5.6812   24.9188 C   0  0  0  0  0  0
  -21.6047   -4.3079   24.7232 C   0  0  0  0  0  0
  -21.8802   -3.8162   23.4353 C   0  0  0  0  0  0
  -21.9177   -4.6985   22.3408 C   0  0  0  0  0  0
  -22.7856  -13.5227   21.1885 C   0  0  0  0  0  0
  -22.1649   -4.2167   21.0987 F   0  0  0  0  0  0
  -21.5637   -3.4560   25.7733 F   0  0  0  0  0  0
  -30.0047  -13.4654   20.4079 N   0  0  0  0  0  0
  -26.2978  -12.9338   20.3279 N   0  0  0  0  0  0
  -25.9356  -11.6498   20.5785 N   0  0  0  0  0  0
  -22.0500  -12.8221   22.0431 N   0  0  0  0  0  0
  -25.4264  -15.1880   20.4115 N   0  0  0  0  0  0
  -31.8374  -14.7809   20.2024 O   0  0  0  0  0  0
  -21.6629   -6.8906   21.4256 O   0  0  0  0  0  0
  -22.3541  -14.5569   20.6789 O   0  0  0  0  0  0
  -24.6246  -31.8594   23.2014 C   0  0  0  0  0  0
  -25.9088  -32.4772   23.8358 C   0  0  1  0  0  0
  -27.2319  -27.3063   20.1621 C   0  0  0  0  0  0
  -25.5905  -33.8572   24.2276 N   0  0  0  0  0  0
  -23.4226  -30.4768   21.5419 C   0  0  2  0  0  0
  -24.8764  -28.9248   20.1168 C   0  0  0  0  0  0
  -22.7474  -29.4597   22.4933 C   0  0  0  0  0  0
  -18.0312  -28.1327   22.8456 C   0  0  0  0  0  0
  -24.1491  -36.7288   23.2632 C   0  0  0  0  0  0
  -25.9612  -30.7793   21.3850 C   0  0  0  0  0  0
  -26.0356  -29.4027   20.7410 C   0  0  0  0  0  0
  -27.2155  -28.6007   20.7607 C   0  0  0  0  0  0
  -26.0683  -26.8924   19.4844 C   0  0  0  0  0  0
  -24.8936  -27.6741   19.4754 C   0  0  0  0  0  0
  -23.6431  -29.8050   20.1601 C   0  0  0  0  0  0
  -25.4115  -36.3079   24.0323 C   0  0  1  0  0  0
  -20.5892  -28.3702   23.1310 C   0  0  2  0  0  0
  -20.6847  -26.9382   22.5611 C   0  0  0  0  0  0
  -19.5871  -26.6157   21.5409 C   0  0  0  0  0  0
  -18.1992  -26.7822   22.1679 C   0  0  0  0  0  0
  -19.1541  -28.8844   23.2821 C   0  0  0  0  0  0
  -18.9440  -30.1461   23.8797 C   0  0  0  0  0  0
  -17.6431  -30.6578   24.0409 C   0  0  0  0  0  0
  -25.9048  -34.9447   23.5106 C   0  0  0  0  0  0
  -16.5346  -29.9013   23.6249 C   0  0  0  0  0  0
  -16.7285  -28.6404   23.0328 C   0  0  0  0  0  0
  -26.4467  -31.6587   25.0746 C   0  0  0  0  0  0
  -25.3696  -31.3796   26.1487 C   0  0  0  0  0  0
  -27.0321  -30.2988   24.6248 C   0  0  0  0  0  0
  -27.6032  -32.4341   25.7488 C   0  0  0  0  0  0
  -27.5573  -37.1795   24.8461 C   0  0  0  0  0  0
  -21.4186  -29.3009   22.3655 N   0  0  0  0  0  0
  -26.4301  -37.3767   23.9394 N   0  0  0  0  0  0
  -24.6864  -31.0568   22.1002 N   0  0  0  0  0  0
  -23.4192  -28.8175   23.3048 O   0  0  0  0  0  0
  -28.3682  -26.4905   20.1224 O   0  0  0  0  0  0
  -26.5623  -34.8914   22.4685 O   0  0  0  0  0  0
  -23.5391  -32.1420   23.7300 O   0  0  0  0  0  0
  -31.4531  -18.6905   22.5838 C   0  0  0  0  0  0
  -31.1513  -17.3844   22.1334 C   0  0  0  0  0  0
  -29.6180  -18.3405   20.5157 C   0  0  0  0  0  0
  -30.8682  -19.8422   21.9979 C   0  0  0  0  0  0
  -30.2302  -17.1649   21.0863 C   0  0  0  0  0  0
  -29.9272  -19.6868   20.9442 C   0  0  0  0  0  0
  -31.3151  -21.2037   22.5051 C   0  0  0  0  0  0
  -26.6353  -23.5203   20.5985 C   0  0  0  0  0  0
  -28.4847  -25.2705   20.9596 C   0  0  0  0  0  0
  -28.1350  -23.8085   20.3898 C   0  0  1  0  0  0
  -29.8663  -15.7862   20.7259 N   0  0  0  0  0  0
  -28.9095  -22.6227   20.9815 N   0  0  0  0  0  0
  -30.1598  -21.5462   18.9924 O   0  0  0  0  0  0
  -27.8479  -20.7134   19.5446 O   0  0  0  0  0  0
  -29.1748  -21.1403   20.0101 S   0  0  0  0  0  0
  -31.4777  -12.5531   19.1391 H   0  0  0  0  0  0
  -30.3844  -11.4350   19.9002 H   0  0  0  0  0  0
  -29.7816  -11.7642   17.4772 H   0  0  0  0  0  0
  -29.6252  -13.4850   17.7344 H   0  0  0  0  0  0
  -27.9001  -11.2756   18.9083 H   0  0  0  0  0  0
  -27.3708  -12.5162   17.8037 H   0  0  0  0  0  0
  -27.6489  -14.2429   19.4817 H   0  0  0  0  0  0
  -28.7199  -12.1334   21.4300 H   0  0  0  0  0  0
  -28.4410  -13.8148   21.8041 H   0  0  0  0  0  0
  -25.2794   -9.5643   22.4777 H   0  0  0  0  0  0
  -24.0009   -7.4610   22.7479 H   0  0  0  0  0  0
  -21.0852   -8.8851   19.8950 H   0  0  0  0  0  0
  -22.3780  -10.9715   19.6212 H   0  0  0  0  0  0
  -21.1993   -7.6163   23.9751 H   0  0  0  0  0  0
  -21.1499   -6.0531   25.9097 H   0  0  0  0  0  0
  -22.0571   -2.7614   23.2862 H   0  0  0  0  0  0
  -22.4121  -11.9869   22.4789 H   0  0  0  0  0  0
  -21.1150  -13.1301   22.2695 H   0  0  0  0  0  0
  -24.6614  -15.8403   20.5409 H   0  0  0  0  0  0
  -26.2798  -15.6390   20.1062 H   0  0  0  0  0  0
  -26.7151  -32.5447   23.1104 H   0  0  0  0  0  0
  -25.0050  -33.9733   25.0406 H   0  0  0  0  0  0
  -22.7200  -31.2985   21.3943 H   0  0  0  0  0  0
  -23.3741  -35.9628   23.3308 H   0  0  0  0  0  0
  -24.3590  -36.8901   22.2045 H   0  0  0  0  0  0
  -23.7257  -37.6507   23.6645 H   0  0  0  0  0  0
  -26.1076  -31.5378   20.6166 H   0  0  0  0  0  0
  -26.8347  -30.8262   22.0218 H   0  0  0  0  0  0
  -28.1076  -28.9629   21.2526 H   0  0  0  0  0  0
  -26.0754  -25.9659   18.9299 H   0  0  0  0  0  0
  -24.0152  -27.3188   18.9559 H   0  0  0  0  0  0
  -23.7673  -30.5810   19.4039 H   0  0  0  0  0  0
  -22.7667  -29.2320   19.8526 H   0  0  0  0  0  0
  -25.1285  -36.1932   25.0808 H   0  0  0  0  0  0
  -20.9952  -28.3431   24.1458 H   0  0  0  0  0  0
  -20.5749  -26.2382   23.3915 H   0  0  0  0  0  0
  -21.6742  -26.7409   22.1484 H   0  0  0  0  0  0
  -19.7095  -25.5958   21.1734 H   0  0  0  0  0  0
  -19.6901  -27.2777   20.6801 H   0  0  0  0  0  0
  -17.4319  -26.6530   21.4044 H   0  0  0  0  0  0
  -18.0325  -26.0000   22.9114 H   0  0  0  0  0  0
  -19.7891  -30.7329   24.2149 H   0  0  0  0  0  0
  -17.4980  -31.6293   24.4922 H   0  0  0  0  0  0
  -15.5344  -30.2911   23.7529 H   0  0  0  0  0  0
  -15.8697  -28.0645   22.7136 H   0  0  0  0  0  0
  -24.5821  -30.7188   25.7840 H   0  0  0  0  0  0
  -24.8943  -32.3004   26.4867 H   0  0  0  0  0  0
  -25.8003  -30.9005   27.0279 H   0  0  0  0  0  0
  -26.2921  -29.6739   24.1235 H   0  0  0  0  0  0
  -27.3955  -29.7248   25.4780 H   0  0  0  0  0  0
  -27.8811  -30.4252   23.9536 H   0  0  0  0  0  0
  -27.2617  -33.3604   26.2092 H   0  0  0  0  0  0
  -28.3785  -32.6954   25.0285 H   0  0  0  0  0  0
  -28.0748  -31.8475   26.5372 H   0  0  0  0  0  0
  -28.2603  -38.0071   24.7464 H   0  0  0  0  0  0
  -28.1054  -36.2610   24.6325 H   0  0  0  0  0  0
  -27.2306  -37.1490   25.8871 H   0  0  0  0  0  0
  -20.9388  -29.8721   21.6840 H   0  0  0  0  0  0
  -26.0182  -38.2844   24.1390 H   0  0  0  0  0  0
  -32.1673  -18.8032   23.3910 H   0  0  0  0  0  0
  -31.6255  -16.5431   22.6185 H   0  0  0  0  0  0
  -28.9155  -18.2212   19.7014 H   0  0  0  0  0  0
  -31.5490  -21.8813   21.6820 H   0  0  0  0  0  0
  -32.2178  -21.1150   23.1138 H   0  0  0  0  0  0
  -30.5502  -21.6607   23.1303 H   0  0  0  0  0  0
  -26.3304  -22.5845   20.1386 H   0  0  0  0  0  0
  -25.9974  -24.2883   20.1762 H   0  0  0  0  0  0
  -26.3855  -23.4618   21.6587 H   0  0  0  0  0  0
  -29.5363  -25.2495   21.2499 H   0  0  0  0  0  0
  -27.9505  -25.4308   21.8975 H   0  0  0  0  0  0
  -28.3484  -23.8270   19.3200 H   0  0  0  0  0  0
  -28.8767  -15.5987   20.6904 H   0  0  0  0  0  0
  -28.4969  -22.3462   21.8736 H   0  0  0  0  0  0
  1 25  1  0  0  0
  1 30  2  0  0  0
  1 81  1  0  0  0
  2  3  1  0  0  0
  2 25  1  0  0  0
  2 86  1  0  0  0
  2 87  1  0  0  0
  3  4  1  0  0  0
  3 88  1  0  0  0
  3 89  1  0  0  0
  4  5  1  0  0  0
  4 90  1  0  0  0
  4 91  1  0  0  0
  5  6  1  0  0  0
  5 26  1  0  0  0
  5 92  1  0  0  0
  6 25  1  0  0  0
  6 93  1  0  0  0
  6 94  1  0  0  0
  7  8  2  0  0  0
  7 26  1  0  0  0
  7 29  1  0  0  0
  8  9  1  0  0  0
  8 22  1  0  0  0
  9 10  1  0  0  0
  9 27  2  0  0  0
 10 11  2  0  0  0
 10 15  1  0  0  0
 11 12  1  0  0  0
 11 95  1  0  0  0
 12 13  2  0  0  0
 12 96  1  0  0  0
 13 14  1  0  0  0
 13 31  1  0  0  0
 14 15  2  0  0  0
 14 97  1  0  0  0
 15 98  1  0  0  0
 16 17  2  0  0  0
 16 21  1  0  0  0
 16 31  1  0  0  0
 17 18  1  0  0  0
 17 99  1  0  0  0
 18 19  2  0  0  0
 18100  1  0  0  0
 19 20  1  0  0  0
 19 24  1  0  0  0
 20 21  2  0  0  0
 20101  1  0  0  0
 21 23  1  0  0  0
 22 28  1  0  0  0
 22 32  2  0  0  0
 26 27  1  0  0  0
 28102  1  0  0  0
 28103  1  0  0  0
 29104  1  0  0  0
 29105  1  0  0  0
 33 34  1  0  0  0
 33 66  1  0  0  0
 33 70  2  0  0  0
 34 36  1  0  0  0
 34 59  1  0  0  0
 34106  1  0  0  0
 35 44  2  0  0  0
 35 45  1  0  0  0
 35 68  1  0  0  0
 36 56  1  0  0  0
 36107  1  0  0  0
 37 39  1  0  0  0
 37 47  1  0  0  0
 37 66  1  0  0  0
 37108  1  0  0  0
 38 43  2  0  0  0
 38 46  1  0  0  0
 38 47  1  0  0  0
 39 64  1  0  0  0
 39 67  2  0  0  0
 40 52  1  0  0  0
 40 53  2  0  0  0
 40 58  1  0  0  0
 41109  1  0  0  0
 41110  1  0  0  0
 41111  1  0  0  0
 41 48  1  0  0  0
 42 43  1  0  0  0
 42 66  1  0  0  0
 42112  1  0  0  0
 42113  1  0  0  0
 43 44  1  0  0  0
 44114  1  0  0  0
 45 46  2  0  0  0
 45115  1  0  0  0
 46116  1  0  0  0
 47117  1  0  0  0
 47118  1  0  0  0
 48 56  1  0  0  0
 48 65  1  0  0  0
 48119  1  0  0  0
 49 50  1  0  0  0
 49 53  1  0  0  0
 49 64  1  0  0  0
 49120  1  0  0  0
 50 51  1  0  0  0
 50121  1  0  0  0
 50122  1  0  0  0
 51 52  1  0  0  0
 51123  1  0  0  0
 51124  1  0  0  0
 52125  1  0  0  0
 52126  1  0  0  0
 53 54  1  0  0  0
 54 55  2  0  0  0
 54127  1  0  0  0
 55 57  1  0  0  0
 55128  1  0  0  0
 56 69  2  0  0  0
 57 58  2  0  0  0
 57129  1  0  0  0
 58130  1  0  0  0
 59 60  1  0  0  0
 59 61  1  0  0  0
 59 62  1  0  0  0
 60131  1  0  0  0
 60132  1  0  0  0
 60133  1  0  0  0
 61134  1  0  0  0
 61135  1  0  0  0
 61136  1  0  0  0
 62137  1  0  0  0
 62138  1  0  0  0
 62139  1  0  0  0
 63 65  1  0  0  0
 63140  1  0  0  0
 63141  1  0  0  0
 63142  1  0  0  0
 64143  1  0  0  0
 65144  1  0  0  0
 68 79  1  0  0  0
 71 72  2  0  0  0
 71 74  1  0  0  0
 71145  1  0  0  0
 72 75  1  0  0  0
 72146  1  0  0  0
 73 75  2  0  0  0
 73 76  1  0  0  0
 73147  1  0  0  0
 74 76  2  0  0  0
 74 77  1  0  0  0
 75 81  1  0  0  0
 76 85  1  0  0  0
 77148  1  0  0  0
 77149  1  0  0  0
 77150  1  0  0  0
 78151  1  0  0  0
 78152  1  0  0  0
 78153  1  0  0  0
 78 80  1  0  0  0
 79 80  1  0  0  0
 79154  1  0  0  0
 79155  1  0  0  0
 80 82  1  0  0  0
 80156  1  0  0  0
 81157  1  0  0  0
 82158  1  0  0  0
 82 85  1  0  0  0
 83 85  2  0  0  0
 84 85  2  0  0  0
M  ISO  4   1 100  68 101  79 101  81 100
M  END
> <chiral flag>
0

> <version>
0

> <s_m_source_file>
/data/baiqing/PycharmProjects/Reinvent-master-3.2/result/LINK_invent/BTK/process_docking_weight1_custom_product_contain_oxygen_bond_distance_aromatic_linkinvent_7_9_3/rearranged_h_0062.sdf

> <i_m_source_file_index>
93

> <r_mmod_Potential_Energy-OPLS-2005>
46.779167175293

> <r_mmod_Stretch_Energy-OPLS-2005>
94.8052520751953

> <r_mmod_Bend_Energy-OPLS-2005>
159.809020996094

> <r_mmod_Torsional_Energy-OPLS-2005>
264.938568115234

> <r_mmod_Improper_Torsional_Energy-OPLS-2005>
12.423677444458

> <r_mmod_Van_der_Waal_Energy-OPLS-2005>
128.028945922852

> <r_mmod_Electrostatic_Energy-OPLS-2005>
-422.390441894531

> <r_mmod_Solvation_Energy-OPLS-2005>
-247.194122314453

> <b_mmod_Minimization_Converged-OPLS-2005>
0

> <r_mmod_RMS_Derivative-OPLS-2005>
4.43543815612793

$$$$
93
                    3D
 Structure written by MMmdl.
161170  0  0  1  0            999 V2000
  -30.6191  -14.7564   20.4577 C   0  0  0  0  0  0
  -30.4290  -12.4636   19.4702 C   0  0  0  0  0  0
  -29.5086  -12.5061   18.2315 C   0  0  0  0  0  0
  -28.0352  -12.3295   18.6463 C   0  0  0  0  0  0
  -27.6381  -13.2335   19.8446 C   0  0  2  0  0  0
  -28.6839  -13.1804   20.9792 C   0  0  0  0  0  0
  -25.2492  -13.8185   20.5685 C   0  0  0  0  0  0
  -24.1794  -13.0432   20.9220 C   0  0  0  0  0  0
  -24.6391  -11.6912   20.8748 C   0  0  0  0  0  0
  -23.9068  -10.4288   21.0404 C   0  0  0  0  0  0
  -24.3619   -9.4203   21.9181 C   0  0  0  0  0  0
  -23.6291   -8.2240   22.0753 C   0  0  0  0  0  0
  -22.4269   -8.0281   21.3547 C   0  0  0  0  0  0
  -21.9911   -9.0256   20.4650 C   0  0  0  0  0  0
  -22.7243  -10.2134   20.3056 C   0  0  0  0  0  0
  -21.6858   -6.0732   22.5277 C   0  0  0  0  0  0
  -21.4016   -6.5634   23.8210 C   0  0  0  0  0  0
  -21.3658   -5.6789   24.9176 C   0  0  0  0  0  0
  -21.6041   -4.3050   24.7223 C   0  0  0  0  0  0
  -21.8821   -3.8144   23.4344 C   0  0  0  0  0  0
  -21.9195   -4.6961   22.3402 C   0  0  0  0  0  0
  -22.7813  -13.5218   21.1867 C   0  0  0  0  0  0
  -22.1662   -4.2147   21.0979 F   0  0  0  0  0  0
  -21.5630   -3.4538   25.7737 F   0  0  0  0  0  0
  -29.9809  -13.5353   20.3912 N   0  0  0  0  0  0
  -26.2917  -12.9402   20.3253 N   0  0  0  0  0  0
  -25.9319  -11.6540   20.5733 N   0  0  0  0  0  0
  -22.0452  -12.8217   22.0425 N   0  0  0  0  0  0
  -25.4151  -15.1905   20.4053 N   0  0  0  0  0  0
  -31.8131  -14.8169   20.1517 O   0  0  0  0  0  0
  -21.6640   -6.8875   21.4237 O   0  0  0  0  0  0
  -22.3497  -14.5519   20.6706 O   0  0  0  0  0  0
  -24.6330  -31.8540   23.1967 C   0  0  0  0  0  0
  -25.9153  -32.4740   23.8315 C   0  0  1  0  0  0
  -27.2162  -27.2560   20.1371 C   0  0  0  0  0  0
  -25.5943  -33.8539   24.2243 N   0  0  0  0  0  0
  -23.4302  -30.4765   21.5397 C   0  0  2  0  0  0
  -24.8779  -28.9182   20.1133 C   0  0  0  0  0  0
  -22.7510  -29.4605   22.4904 C   0  0  0  0  0  0
  -18.0299  -28.1398   22.8482 C   0  0  0  0  0  0
  -24.1492  -36.7277   23.2640 C   0  0  0  0  0  0
  -25.9764  -30.7657   21.3769 C   0  0  0  0  0  0
  -26.0505  -29.3859   20.7232 C   0  0  0  0  0  0
  -27.2270  -28.5669   20.7244 C   0  0  0  0  0  0
  -26.0288  -26.8585   19.4952 C   0  0  0  0  0  0
  -24.8720  -27.6617   19.4871 C   0  0  0  0  0  0
  -23.6493  -29.8072   20.1575 C   0  0  0  0  0  0
  -25.4116  -36.3056   24.0328 C   0  0  1  0  0  0
  -20.5905  -28.3708   23.1266 C   0  0  2  0  0  0
  -20.6781  -26.9420   22.5412 C   0  0  0  0  0  0
  -19.5753  -26.6392   21.5214 C   0  0  0  0  0  0
  -18.1935  -26.7939   22.1627 C   0  0  0  0  0  0
  -19.1553  -28.8868   23.2869 C   0  0  0  0  0  0
  -18.9471  -30.1471   23.8883 C   0  0  0  0  0  0
  -17.6468  -30.6589   24.0573 C   0  0  0  0  0  0
  -25.9054  -34.9430   23.5084 C   0  0  0  0  0  0
  -16.5359  -29.9089   23.6339 C   0  0  0  0  0  0
  -16.7288  -28.6517   23.0343 C   0  0  0  0  0  0
  -26.4506  -31.6568   25.0715 C   0  0  0  0  0  0
  -25.3727  -31.3733   26.1441 C   0  0  0  0  0  0
  -27.0351  -30.2977   24.6217 C   0  0  0  0  0  0
  -27.6057  -32.4314   25.7491 C   0  0  0  0  0  0
  -27.5576  -37.1797   24.8464 C   0  0  0  0  0  0
  -21.4220  -29.3052   22.3647 N   0  0  0  0  0  0
  -26.4286  -37.3761   23.9410 N   0  0  0  0  0  0
  -24.6990  -31.0509   22.0938 N   0  0  0  0  0  0
  -23.4202  -28.8150   23.3013 O   0  0  0  0  0  0
  -28.2765  -26.3218   20.1553 O   0  0  0  0  0  0
  -26.5633  -34.8910   22.4656 O   0  0  0  0  0  0
  -23.5483  -32.1361   23.7264 O   0  0  0  0  0  0
  -31.9969  -18.9930   21.2711 C   0  0  0  0  0  0
  -31.1475  -20.0831   21.0176 C   0  0  0  0  0  0
  -31.5567  -17.6683   21.1235 C   0  0  0  0  0  0
  -29.3623  -18.5189   20.4685 C   0  0  0  0  0  0
  -29.8063  -19.9211   20.6022 C   0  0  0  0  0  0
  -30.2404  -17.3610   20.7126 C   0  0  0  0  0  0
  -27.8910  -21.4282   19.6694 C   0  0  0  0  0  0
  -27.3852  -22.6792   19.8066 C   0  0  0  0  0  0
  -25.7875  -22.8285   17.9347 C   0  0  0  0  0  0
  -26.1585  -23.1378   19.1871 C   0  0  0  0  0  0
  -29.4896  -22.5278   20.8843 C   0  0  0  0  0  0
  -28.2256  -23.4847   20.7766 C   0  0  1  0  0  0
  -27.9205  -18.2346   20.0803 C   0  0  0  0  0  0
  -28.0936  -25.1105   21.0256 C   0  0  0  0  0  0
  -29.0647  -21.1690   20.3771 N   0  0  0  0  0  0
  -29.8541  -15.9136   20.6262 N   0  0  0  0  0  0
  -31.4697  -12.5826   19.1649 H   0  0  0  0  0  0
  -30.3708  -11.4909   19.9607 H   0  0  0  0  0  0
  -29.7930  -11.7287   17.5212 H   0  0  0  0  0  0
  -29.6338  -13.4568   17.7107 H   0  0  0  0  0  0
  -27.8939  -11.2816   18.9128 H   0  0  0  0  0  0
  -27.3788  -12.5167   17.7959 H   0  0  0  0  0  0
  -27.6288  -14.2521   19.4566 H   0  0  0  0  0  0
  -28.7240  -12.1850   21.4245 H   0  0  0  0  0  0
  -28.4173  -13.8673   21.7836 H   0  0  0  0  0  0
  -25.2766   -9.5684   22.4753 H   0  0  0  0  0  0
  -24.0008   -7.4631   22.7471 H   0  0  0  0  0  0
  -21.0844   -8.8775   19.8954 H   0  0  0  0  0  0
  -22.3698  -10.9671   19.6164 H   0  0  0  0  0  0
  -21.2007   -7.6141   23.9712 H   0  0  0  0  0  0
  -21.1477   -6.0519   25.9079 H   0  0  0  0  0  0
  -22.0600   -2.7607   23.2847 H   0  0  0  0  0  0
  -22.4068  -11.9893   22.4839 H   0  0  0  0  0  0
  -21.1062  -13.1240   22.2604 H   0  0  0  0  0  0
  -24.6384  -15.8353   20.5022 H   0  0  0  0  0  0
  -26.2376  -15.6201   20.0056 H   0  0  0  0  0  0
  -26.7222  -32.5388   23.1059 H   0  0  0  0  0  0
  -25.0087  -33.9660   25.0387 H   0  0  0  0  0  0
  -22.7283  -31.2999   21.3917 H   0  0  0  0  0  0
  -23.3744  -35.9618   23.3303 H   0  0  0  0  0  0
  -24.3585  -36.8898   22.2055 H   0  0  0  0  0  0
  -23.7255  -37.6483   23.6664 H   0  0  0  0  0  0
  -26.1174  -31.5238   20.6047 H   0  0  0  0  0  0
  -26.8533  -30.8158   22.0105 H   0  0  0  0  0  0
  -28.1252  -28.9186   21.2125 H   0  0  0  0  0  0
  -25.9904  -25.8939   19.0110 H   0  0  0  0  0  0
  -23.9770  -27.2978   19.0019 H   0  0  0  0  0  0
  -23.7769  -30.5811   19.3995 H   0  0  0  0  0  0
  -22.7666  -29.2422   19.8526 H   0  0  0  0  0  0
  -25.1298  -36.1897   25.0821 H   0  0  0  0  0  0
  -21.0004  -28.3291   24.1385 H   0  0  0  0  0  0
  -20.5672  -26.2317   23.3618 H   0  0  0  0  0  0
  -21.6649  -26.7438   22.1211 H   0  0  0  0  0  0
  -19.6906  -25.6301   21.1249 H   0  0  0  0  0  0
  -19.6683  -27.3195   20.6737 H   0  0  0  0  0  0
  -17.4203  -26.6697   21.4032 H   0  0  0  0  0  0
  -18.0327  -26.0087   22.9027 H   0  0  0  0  0  0
  -19.7943  -30.7305   24.2231 H   0  0  0  0  0  0
  -17.5019  -31.6263   24.5185 H   0  0  0  0  0  0
  -15.5357  -30.2982   23.7669 H   0  0  0  0  0  0
  -15.8693  -28.0840   22.7041 H   0  0  0  0  0  0
  -24.5907  -30.7068   25.7786 H   0  0  0  0  0  0
  -24.8912  -32.2906   26.4841 H   0  0  0  0  0  0
  -25.8054  -30.8941   27.0233 H   0  0  0  0  0  0
  -26.2938  -29.6723   24.1231 H   0  0  0  0  0  0
  -27.4004  -29.7250   25.4749 H   0  0  0  0  0  0
  -27.8829  -30.4233   23.9478 H   0  0  0  0  0  0
  -27.2658  -33.3620   26.2049 H   0  0  0  0  0  0
  -28.3876  -32.6865   25.0327 H   0  0  0  0  0  0
  -28.0710  -31.8452   26.5426 H   0  0  0  0  0  0
  -28.2595  -38.0091   24.7503 H   0  0  0  0  0  0
  -28.1072  -36.2624   24.6293 H   0  0  0  0  0  0
  -27.2305  -37.1457   25.8871 H   0  0  0  0  0  0
  -20.9405  -29.8769   21.6846 H   0  0  0  0  0  0
  -26.0158  -38.2837   24.1398 H   0  0  0  0  0  0
  -33.0125  -19.1805   21.5899 H   0  0  0  0  0  0
  -31.5711  -21.0677   21.1444 H   0  0  0  0  0  0
  -32.2656  -16.8882   21.3582 H   0  0  0  0  0  0
  -27.4851  -20.6438   19.0481 H   0  0  0  0  0  0
  -24.8536  -23.1923   17.5285 H   0  0  0  0  0  0
  -26.4026  -22.2119   17.2944 H   0  0  0  0  0  0
  -25.4950  -23.7540   19.7781 H   0  0  0  0  0  0
  -29.8541  -22.4756   21.9109 H   0  0  0  0  0  0
  -30.3001  -22.9074   20.2609 H   0  0  0  0  0  0
  -27.7206  -23.1780   21.6955 H   0  0  0  0  0  0
  -27.2404  -18.9144   20.5931 H   0  0  0  0  0  0
  -27.6130  -17.2274   20.3523 H   0  0  0  0  0  0
  -27.7883  -18.3482   19.0044 H   0  0  0  0  0  0
  -28.7557  -25.3140   21.8679 H   0  0  0  0  0  0
  -27.1019  -25.2260   21.4683 H   0  0  0  0  0  0
  -28.8651  -15.7313   20.6892 H   0  0  0  0  0  0
  1 25  1  0  0  0
  1 30  2  0  0  0
  1 86  1  0  0  0
  2  3  1  0  0  0
  2 25  1  0  0  0
  2 87  1  0  0  0
  2 88  1  0  0  0
  3  4  1  0  0  0
  3 89  1  0  0  0
  3 90  1  0  0  0
  4  5  1  0  0  0
  4 91  1  0  0  0
  4 92  1  0  0  0
  5  6  1  0  0  0
  5 26  1  0  0  0
  5 93  1  0  0  0
  6 25  1  0  0  0
  6 94  1  0  0  0
  6 95  1  0  0  0
  7  8  2  0  0  0
  7 26  1  0  0  0
  7 29  1  0  0  0
  8  9  1  0  0  0
  8 22  1  0  0  0
  9 10  1  0  0  0
  9 27  2  0  0  0
 10 11  2  0  0  0
 10 15  1  0  0  0
 11 12  1  0  0  0
 11 96  1  0  0  0
 12 13  2  0  0  0
 12 97  1  0  0  0
 13 14  1  0  0  0
 13 31  1  0  0  0
 14 15  2  0  0  0
 14 98  1  0  0  0
 15 99  1  0  0  0
 16 17  2  0  0  0
 16 21  1  0  0  0
 16 31  1  0  0  0
 17 18  1  0  0  0
 17100  1  0  0  0
 18 19  2  0  0  0
 18101  1  0  0  0
 19 20  1  0  0  0
 19 24  1  0  0  0
 20 21  2  0  0  0
 20102  1  0  0  0
 21 23  1  0  0  0
 22 28  1  0  0  0
 22 32  2  0  0  0
 26 27  1  0  0  0
 28103  1  0  0  0
 28104  1  0  0  0
 29105  1  0  0  0
 29106  1  0  0  0
 33 34  1  0  0  0
 33 66  1  0  0  0
 33 70  2  0  0  0
 34 36  1  0  0  0
 34 59  1  0  0  0
 34107  1  0  0  0
 35 44  2  0  0  0
 35 45  1  0  0  0
 35 68  1  0  0  0
 36 56  1  0  0  0
 36108  1  0  0  0
 37 39  1  0  0  0
 37 47  1  0  0  0
 37 66  1  0  0  0
 37109  1  0  0  0
 38 43  2  0  0  0
 38 46  1  0  0  0
 38 47  1  0  0  0
 39 64  1  0  0  0
 39 67  2  0  0  0
 40 52  1  0  0  0
 40 53  2  0  0  0
 40 58  1  0  0  0
 41110  1  0  0  0
 41111  1  0  0  0
 41112  1  0  0  0
 41 48  1  0  0  0
 42 43  1  0  0  0
 42 66  1  0  0  0
 42113  1  0  0  0
 42114  1  0  0  0
 43 44  1  0  0  0
 44115  1  0  0  0
 45 46  2  0  0  0
 45116  1  0  0  0
 46117  1  0  0  0
 47118  1  0  0  0
 47119  1  0  0  0
 48 56  1  0  0  0
 48 65  1  0  0  0
 48120  1  0  0  0
 49 50  1  0  0  0
 49 53  1  0  0  0
 49 64  1  0  0  0
 49121  1  0  0  0
 50 51  1  0  0  0
 50122  1  0  0  0
 50123  1  0  0  0
 51 52  1  0  0  0
 51124  1  0  0  0
 51125  1  0  0  0
 52126  1  0  0  0
 52127  1  0  0  0
 53 54  1  0  0  0
 54 55  2  0  0  0
 54128  1  0  0  0
 55 57  1  0  0  0
 55129  1  0  0  0
 56 69  2  0  0  0
 57 58  2  0  0  0
 57130  1  0  0  0
 58131  1  0  0  0
 59 60  1  0  0  0
 59 61  1  0  0  0
 59 62  1  0  0  0
 60132  1  0  0  0
 60133  1  0  0  0
 60134  1  0  0  0
 61135  1  0  0  0
 61136  1  0  0  0
 61137  1  0  0  0
 62138  1  0  0  0
 62139  1  0  0  0
 62140  1  0  0  0
 63 65  1  0  0  0
 63141  1  0  0  0
 63142  1  0  0  0
 63143  1  0  0  0
 64144  1  0  0  0
 65145  1  0  0  0
 68 84  1  0  0  0
 71 72  2  0  0  0
 71 73  1  0  0  0
 71146  1  0  0  0
 72 75  1  0  0  0
 72147  1  0  0  0
 73 76  2  0  0  0
 73148  1  0  0  0
 74 75  2  0  0  0
 74 76  1  0  0  0
 74 83  1  0  0  0
 75 85  1  0  0  0
 76 86  1  0  0  0
 77 78  2  0  0  0
 77 85  1  0  0  0
 77149  1  0  0  0
 78 80  1  0  0  0
 78 82  1  0  0  0
 79 80  2  0  0  0
 79150  1  0  0  0
 79151  1  0  0  0
 80152  1  0  0  0
 81 82  1  0  0  0
 81 85  1  0  0  0
 81153  1  0  0  0
 81154  1  0  0  0
 82 84  1  0  0  0
 82155  1  0  0  0
 83156  1  0  0  0
 83157  1  0  0  0
 83158  1  0  0  0
 84159  1  0  0  0
 84160  1  0  0  0
 86161  1  0  0  0
M  ISO  4   1 100  68 101  84 101  86 100
M  END
> <chiral flag>
0

> <version>
0

> <s_m_source_file>
/data/baiqing/PycharmProjects/Reinvent-master-3.2/result/LINK_invent/BTK/process_docking_weight1_custom_product_contain_oxygen_bond_distance_aromatic_linkinvent_7_9_3/rearranged_h_0062.sdf

> <i_m_source_file_index>
94

> <r_mmod_Potential_Energy-OPLS-2005>
383.677673339844

> <r_mmod_Stretch_Energy-OPLS-2005>
139.259750366211

> <r_mmod_Bend_Energy-OPLS-2005>
321.545166015625

> <r_mmod_Torsional_Energy-OPLS-2005>
260.905120849609

> <r_mmod_Improper_Torsional_Energy-OPLS-2005>
5.92298746109009

> <r_mmod_Van_der_Waal_Energy-OPLS-2005>
138.594314575195

> <r_mmod_Electrostatic_Energy-OPLS-2005>
-368.401763916016

> <r_mmod_Solvation_Energy-OPLS-2005>
-206.552291870117

> <b_mmod_Minimization_Converged-OPLS-2005>
0

> <r_mmod_RMS_Derivative-OPLS-2005>
1.10696375370026

$$$$
94
                    3D
 Structure written by MMmdl.
160168  0  0  1  0            999 V2000
  -30.6988  -14.4430   20.5333 C   0  0  0  0  0  0
  -30.4153  -12.2750   19.4264 C   0  0  0  0  0  0
  -29.4932  -12.4945   18.2089 C   0  0  0  0  0  0
  -28.0126  -12.3662   18.6180 C   0  0  0  0  0  0
  -27.6616  -13.2047   19.8765 C   0  0  2  0  0  0
  -28.7006  -12.9821   20.9996 C   0  0  0  0  0  0
  -25.2592  -13.8168   20.5686 C   0  0  0  0  0  0
  -24.1839  -13.0446   20.9179 C   0  0  0  0  0  0
  -24.6385  -11.6910   20.8736 C   0  0  0  0  0  0
  -23.9053  -10.4297   21.0408 C   0  0  0  0  0  0
  -24.3607   -9.4214   21.9186 C   0  0  0  0  0  0
  -23.6288   -8.2246   22.0756 C   0  0  0  0  0  0
  -22.4272   -8.0282   21.3544 C   0  0  0  0  0  0
  -21.9906   -9.0254   20.4644 C   0  0  0  0  0  0
  -22.7228  -10.2138   20.3055 C   0  0  0  0  0  0
  -21.6852   -6.0738   22.5278 C   0  0  0  0  0  0
  -21.4013   -6.5640   23.8212 C   0  0  0  0  0  0
  -21.3660   -5.6792   24.9173 C   0  0  0  0  0  0
  -21.6045   -4.3055   24.7223 C   0  0  0  0  0  0
  -21.8819   -3.8148   23.4342 C   0  0  0  0  0  0
  -21.9193   -4.6966   22.3399 C   0  0  0  0  0  0
  -22.7864  -13.5249   21.1845 C   0  0  0  0  0  0
  -22.1662   -4.2151   21.0977 F   0  0  0  0  0  0
  -21.5630   -3.4538   25.7737 F   0  0  0  0  0  0
  -30.0368  -13.2610   20.4485 N   0  0  0  0  0  0
  -26.3021  -12.9329   20.3368 N   0  0  0  0  0  0
  -25.9310  -11.6491   20.5767 N   0  0  0  0  0  0
  -22.0500  -12.8239   22.0396 N   0  0  0  0  0  0
  -25.4335  -15.1884   20.4106 N   0  0  0  0  0  0
  -31.8572  -14.5933   20.1331 O   0  0  0  0  0  0
  -21.6637   -6.8880   21.4241 O   0  0  0  0  0  0
  -22.3554  -14.5559   20.6698 O   0  0  0  0  0  0
  -24.6099  -31.8703   23.2132 C   0  0  0  0  0  0
  -25.9006  -32.4834   23.8419 C   0  0  1  0  0  0
  -27.2414  -27.4686   20.1039 C   0  0  0  0  0  0
  -25.5880  -33.8633   24.2349 N   0  0  0  0  0  0
  -23.3967  -30.4920   21.5518 C   0  0  2  0  0  0
  -24.8465  -28.9587   20.1188 C   0  0  0  0  0  0
  -22.7385  -29.4660   22.5010 C   0  0  0  0  0  0
  -18.0261  -28.1369   22.8494 C   0  0  0  0  0  0
  -24.1482  -36.7327   23.2639 C   0  0  0  0  0  0
  -25.9197  -30.8470   21.3608 C   0  0  0  0  0  0
  -26.0000  -29.4802   20.7181 C   0  0  0  0  0  0
  -27.2004  -28.7414   20.7140 C   0  0  0  0  0  0
  -26.0799  -26.9574   19.4926 C   0  0  0  0  0  0
  -24.8783  -27.6928   19.5055 C   0  0  0  0  0  0
  -23.6050  -29.8202   20.1670 C   0  0  0  0  0  0
  -25.4099  -36.3122   24.0344 C   0  0  1  0  0  0
  -20.5847  -28.3645   23.1332 C   0  0  2  0  0  0
  -20.6745  -26.9386   22.5419 C   0  0  0  0  0  0
  -19.5725  -26.6379   21.5209 C   0  0  0  0  0  0
  -18.1904  -26.7917   22.1623 C   0  0  0  0  0  0
  -19.1510  -28.8827   23.2909 C   0  0  0  0  0  0
  -18.9441  -30.1438   23.8913 C   0  0  0  0  0  0
  -17.6444  -30.6579   24.0567 C   0  0  0  0  0  0
  -25.9026  -34.9483   23.5144 C   0  0  0  0  0  0
  -16.5335  -29.9082   23.6328 C   0  0  0  0  0  0
  -16.7253  -28.6500   23.0347 C   0  0  0  0  0  0
  -26.4459  -31.6597   25.0726 C   0  0  0  0  0  0
  -25.3749  -31.3671   26.1487 C   0  0  0  0  0  0
  -27.0287  -30.3049   24.6063 C   0  0  0  0  0  0
  -27.6037  -32.4310   25.7494 C   0  0  0  0  0  0
  -27.5581  -37.1813   24.8464 C   0  0  0  0  0  0
  -21.4118  -29.3021   22.3749 N   0  0  0  0  0  0
  -26.4288  -37.3803   23.9418 N   0  0  0  0  0  0
  -24.6598  -31.0838   22.1011 N   0  0  0  0  0  0
  -23.4171  -28.8205   23.3040 O   0  0  0  0  0  0
  -28.3913  -26.7205   20.0458 O   0  0  0  0  0  0
  -26.5591  -34.8928   22.4708 O   0  0  0  0  0  0
  -23.5302  -32.1435   23.7552 O   0  0  0  0  0  0
  -30.6222  -18.3899   18.6221 C   0  0  0  0  0  0
  -30.0431  -19.4441   19.3404 C   0  0  0  0  0  0
  -30.5936  -17.0897   19.1456 C   0  0  0  0  0  0
  -29.3969  -17.8920   21.1259 C   0  0  0  0  0  0
  -29.4105  -19.2106   20.5834 C   0  0  0  0  0  0
  -30.0023  -16.8230   20.4062 C   0  0  0  0  0  0
  -28.2156  -21.3728   20.7806 C   0  0  0  0  0  0
  -28.7324  -17.5991   22.4674 C   0  0  0  0  0  0
  -27.9851  -22.5858   21.6894 C   0  0  0  0  0  0
  -28.5285  -23.8813   21.0460 C   0  0  0  0  0  0
  -28.3341  -25.1409   21.9104 C   0  0  0  0  0  0
  -28.9896  -26.3953   21.2998 C   0  0  0  0  0  0
  -28.8649  -20.3152   21.3020 N   0  0  0  0  0  0
  -29.9477  -15.4888   20.9254 N   0  0  0  0  0  0
  -27.7838  -21.3990   19.6246 O   0  0  0  0  0  0
  -31.4620  -12.3573   19.1285 H   0  0  0  0  0  0
  -30.2969  -11.2645   19.8204 H   0  0  0  0  0  0
  -29.7258  -11.7730   17.4246 H   0  0  0  0  0  0
  -29.6719  -13.4818   17.7799 H   0  0  0  0  0  0
  -27.8138  -11.3108   18.8092 H   0  0  0  0  0  0
  -27.3662  -12.6496   17.7864 H   0  0  0  0  0  0
  -27.7075  -14.2524   19.5798 H   0  0  0  0  0  0
  -28.6620  -11.9512   21.3547 H   0  0  0  0  0  0
  -28.4743  -13.5995   21.8700 H   0  0  0  0  0  0
  -25.2754   -9.5692   22.4760 H   0  0  0  0  0  0
  -24.0001   -7.4640   22.7475 H   0  0  0  0  0  0
  -21.0842   -8.8770   19.8946 H   0  0  0  0  0  0
  -22.3689  -10.9677   19.6163 H   0  0  0  0  0  0
  -21.2003   -7.6148   23.9715 H   0  0  0  0  0  0
  -21.1483   -6.0522   25.9076 H   0  0  0  0  0  0
  -22.0599   -2.7610   23.2842 H   0  0  0  0  0  0
  -22.4110  -11.9893   22.4772 H   0  0  0  0  0  0
  -21.1123  -13.1276   22.2606 H   0  0  0  0  0  0
  -24.6687  -15.8455   20.5181 H   0  0  0  0  0  0
  -26.2862  -15.6250   20.0833 H   0  0  0  0  0  0
  -26.7084  -32.5574   23.1198 H   0  0  0  0  0  0
  -25.0030  -33.9801   25.0494 H   0  0  0  0  0  0
  -22.6829  -31.3065   21.4122 H   0  0  0  0  0  0
  -23.3740  -35.9664   23.3299 H   0  0  0  0  0  0
  -24.3579  -36.8944   22.2055 H   0  0  0  0  0  0
  -23.7236  -37.6533   23.6654 H   0  0  0  0  0  0
  -26.0214  -31.6090   20.5867 H   0  0  0  0  0  0
  -26.8119  -30.9094   21.9721 H   0  0  0  0  0  0
  -28.0921  -29.1567   21.1621 H   0  0  0  0  0  0
  -26.1082  -25.9878   19.0153 H   0  0  0  0  0  0
  -23.9925  -27.2847   19.0384 H   0  0  0  0  0  0
  -23.7090  -30.5930   19.4045 H   0  0  0  0  0  0
  -22.7314  -29.2345   19.8748 H   0  0  0  0  0  0
  -25.1269  -36.1994   25.0835 H   0  0  0  0  0  0
  -20.9935  -28.3202   24.1453 H   0  0  0  0  0  0
  -20.5633  -26.2253   23.3598 H   0  0  0  0  0  0
  -21.6620  -26.7418   22.1224 H   0  0  0  0  0  0
  -19.6882  -25.6295   21.1224 H   0  0  0  0  0  0
  -19.6665  -27.3204   20.6749 H   0  0  0  0  0  0
  -17.4171  -26.6671   21.4027 H   0  0  0  0  0  0
  -18.0303  -26.0054   22.9015 H   0  0  0  0  0  0
  -19.7915  -30.7251   24.2288 H   0  0  0  0  0  0
  -17.4997  -31.6260   24.5166 H   0  0  0  0  0  0
  -15.5337  -30.2990   23.7641 H   0  0  0  0  0  0
  -15.8650  -28.0830   22.7047 H   0  0  0  0  0  0
  -24.5921  -30.7014   25.7831 H   0  0  0  0  0  0
  -24.8939  -32.2813   26.4978 H   0  0  0  0  0  0
  -25.8131  -30.8820   27.0219 H   0  0  0  0  0  0
  -26.2818  -29.6818   24.1127 H   0  0  0  0  0  0
  -27.4088  -29.7268   25.4497 H   0  0  0  0  0  0
  -27.8639  -30.4384   23.9179 H   0  0  0  0  0  0
  -27.2649  -33.3590   26.2114 H   0  0  0  0  0  0
  -28.3832  -32.6901   25.0318 H   0  0  0  0  0  0
  -28.0720  -31.8409   26.5382 H   0  0  0  0  0  0
  -28.2590  -38.0121   24.7531 H   0  0  0  0  0  0
  -28.1087  -36.2653   24.6262 H   0  0  0  0  0  0
  -27.2306  -37.1436   25.8869 H   0  0  0  0  0  0
  -20.9268  -29.8761   21.6994 H   0  0  0  0  0  0
  -26.0180  -38.2879   24.1431 H   0  0  0  0  0  0
  -31.0894  -18.5788   17.6660 H   0  0  0  0  0  0
  -30.0945  -20.4394   18.9215 H   0  0  0  0  0  0
  -31.0323  -16.3051   18.5463 H   0  0  0  0  0  0
  -28.2806  -18.4736   22.9320 H   0  0  0  0  0  0
  -29.4646  -17.1978   23.1685 H   0  0  0  0  0  0
  -27.9406  -16.8603   22.3417 H   0  0  0  0  0  0
  -28.4581  -22.4223   22.6587 H   0  0  0  0  0  0
  -26.9142  -22.6784   21.8748 H   0  0  0  0  0  0
  -28.0472  -24.0401   20.0796 H   0  0  0  0  0  0
  -29.5913  -23.7533   20.8343 H   0  0  0  0  0  0
  -28.7676  -24.9692   22.8965 H   0  0  0  0  0  0
  -27.2710  -25.3215   22.0738 H   0  0  0  0  0  0
  -30.0507  -26.2096   21.1312 H   0  0  0  0  0  0
  -28.9424  -27.2228   22.0085 H   0  0  0  0  0  0
  -29.0147  -20.3230   22.3015 H   0  0  0  0  0  0
  -29.1116  -15.2494   21.4347 H   0  0  0  0  0  0
  1 25  1  0  0  0
  1 30  2  0  0  0
  1 84  1  0  0  0
  2  3  1  0  0  0
  2 25  1  0  0  0
  2 86  1  0  0  0
  2 87  1  0  0  0
  3  4  1  0  0  0
  3 88  1  0  0  0
  3 89  1  0  0  0
  4  5  1  0  0  0
  4 90  1  0  0  0
  4 91  1  0  0  0
  5  6  1  0  0  0
  5 26  1  0  0  0
  5 92  1  0  0  0
  6 25  1  0  0  0
  6 93  1  0  0  0
  6 94  1  0  0  0
  7  8  2  0  0  0
  7 26  1  0  0  0
  7 29  1  0  0  0
  8  9  1  0  0  0
  8 22  1  0  0  0
  9 10  1  0  0  0
  9 27  2  0  0  0
 10 11  2  0  0  0
 10 15  1  0  0  0
 11 12  1  0  0  0
 11 95  1  0  0  0
 12 13  2  0  0  0
 12 96  1  0  0  0
 13 14  1  0  0  0
 13 31  1  0  0  0
 14 15  2  0  0  0
 14 97  1  0  0  0
 15 98  1  0  0  0
 16 17  2  0  0  0
 16 21  1  0  0  0
 16 31  1  0  0  0
 17 18  1  0  0  0
 17 99  1  0  0  0
 18 19  2  0  0  0
 18100  1  0  0  0
 19 20  1  0  0  0
 19 24  1  0  0  0
 20 21  2  0  0  0
 20101  1  0  0  0
 21 23  1  0  0  0
 22 28  1  0  0  0
 22 32  2  0  0  0
 26 27  1  0  0  0
 28102  1  0  0  0
 28103  1  0  0  0
 29104  1  0  0  0
 29105  1  0  0  0
 33 34  1  0  0  0
 33 66  1  0  0  0
 33 70  2  0  0  0
 34 36  1  0  0  0
 34 59  1  0  0  0
 34106  1  0  0  0
 35 44  2  0  0  0
 35 45  1  0  0  0
 35 68  1  0  0  0
 36 56  1  0  0  0
 36107  1  0  0  0
 37 39  1  0  0  0
 37 47  1  0  0  0
 37 66  1  0  0  0
 37108  1  0  0  0
 38 43  2  0  0  0
 38 46  1  0  0  0
 38 47  1  0  0  0
 39 64  1  0  0  0
 39 67  2  0  0  0
 40 52  1  0  0  0
 40 53  2  0  0  0
 40 58  1  0  0  0
 41109  1  0  0  0
 41110  1  0  0  0
 41111  1  0  0  0
 41 48  1  0  0  0
 42 43  1  0  0  0
 42 66  1  0  0  0
 42112  1  0  0  0
 42113  1  0  0  0
 43 44  1  0  0  0
 44114  1  0  0  0
 45 46  2  0  0  0
 45115  1  0  0  0
 46116  1  0  0  0
 47117  1  0  0  0
 47118  1  0  0  0
 48 56  1  0  0  0
 48 65  1  0  0  0
 48119  1  0  0  0
 49 50  1  0  0  0
 49 53  1  0  0  0
 49 64  1  0  0  0
 49120  1  0  0  0
 50 51  1  0  0  0
 50121  1  0  0  0
 50122  1  0  0  0
 51 52  1  0  0  0
 51123  1  0  0  0
 51124  1  0  0  0
 52125  1  0  0  0
 52126  1  0  0  0
 53 54  1  0  0  0
 54 55  2  0  0  0
 54127  1  0  0  0
 55 57  1  0  0  0
 55128  1  0  0  0
 56 69  2  0  0  0
 57 58  2  0  0  0
 57129  1  0  0  0
 58130  1  0  0  0
 59 60  1  0  0  0
 59 61  1  0  0  0
 59 62  1  0  0  0
 60131  1  0  0  0
 60132  1  0  0  0
 60133  1  0  0  0
 61134  1  0  0  0
 61135  1  0  0  0
 61136  1  0  0  0
 62137  1  0  0  0
 62138  1  0  0  0
 62139  1  0  0  0
 63 65  1  0  0  0
 63140  1  0  0  0
 63141  1  0  0  0
 63142  1  0  0  0
 64143  1  0  0  0
 65144  1  0  0  0
 68 82  1  0  0  0
 71 72  2  0  0  0
 71 73  1  0  0  0
 71145  1  0  0  0
 72 75  1  0  0  0
 72146  1  0  0  0
 73 76  2  0  0  0
 73147  1  0  0  0
 74 75  2  0  0  0
 74 76  1  0  0  0
 74 78  1  0  0  0
 75 83  1  0  0  0
 76 84  1  0  0  0
 77 79  1  0  0  0
 77 83  1  0  0  0
 77 85  2  0  0  0
 78148  1  0  0  0
 78149  1  0  0  0
 78150  1  0  0  0
 79 80  1  0  0  0
 79151  1  0  0  0
 79152  1  0  0  0
 80 81  1  0  0  0
 80153  1  0  0  0
 80154  1  0  0  0
 81 82  1  0  0  0
 81155  1  0  0  0
 81156  1  0  0  0
 82157  1  0  0  0
 82158  1  0  0  0
 83159  1  0  0  0
 84160  1  0  0  0
M  ISO  4   1 100  68 101  82 101  84 100
M  END
> <chiral flag>
0

> <version>
0

> <s_m_source_file>
/data/baiqing/PycharmProjects/Reinvent-master-3.2/result/LINK_invent/BTK/process_docking_weight1_custom_product_contain_oxygen_bond_distance_aromatic_linkinvent_7_9_3/rearranged_h_0062.sdf

> <i_m_source_file_index>
95

> <r_mmod_Potential_Energy-OPLS-2005>
-75.2187957763672

> <r_mmod_Stretch_Energy-OPLS-2005>
35.6188507080078

> <r_mmod_Bend_Energy-OPLS-2005>
89.3514709472656

> <r_mmod_Torsional_Energy-OPLS-2005>
263.262420654297

> <r_mmod_Improper_Torsional_Energy-OPLS-2005>
5.07934141159058

> <r_mmod_Van_der_Waal_Energy-OPLS-2005>
161.542129516602

> <r_mmod_Electrostatic_Energy-OPLS-2005>
-412.75341796875

> <r_mmod_Solvation_Energy-OPLS-2005>
-228.344055175781

> <b_mmod_Minimization_Converged-OPLS-2005>
0

> <r_mmod_RMS_Derivative-OPLS-2005>
0.543301522731781

$$$$
