0
                    3D
 Structure written by MMmdl.
170179  0  0  1  0            999 V2000
  -30.7097  -14.4545   20.6528 C   0  0  0  0  0  0
  -30.4230  -12.3286   19.4132 C   0  0  0  0  0  0
  -29.4797  -12.5437   18.2102 C   0  0  0  0  0  0
  -28.0063  -12.3752   18.6242 C   0  0  0  0  0  0
  -27.6597  -13.2043   19.8881 C   0  0  2  0  0  0
  -28.7007  -12.9610   21.0063 C   0  0  0  0  0  0
  -25.2575  -13.8152   20.5712 C   0  0  0  0  0  0
  -24.1797  -13.0417   20.9186 C   0  0  0  0  0  0
  -24.6374  -11.6908   20.8771 C   0  0  0  0  0  0
  -23.9053  -10.4305   21.0424 C   0  0  0  0  0  0
  -24.3616   -9.4211   21.9181 C   0  0  0  0  0  0
  -23.6293   -8.2249   22.0763 C   0  0  0  0  0  0
  -22.4260   -8.0300   21.3572 C   0  0  0  0  0  0
  -21.9906   -9.0259   20.4656 C   0  0  0  0  0  0
  -22.7238  -10.2140   20.3057 C   0  0  0  0  0  0
  -21.6839   -6.0717   22.5290 C   0  0  0  0  0  0
  -21.4009   -6.5632   23.8219 C   0  0  0  0  0  0
  -21.3663   -5.6795   24.9190 C   0  0  0  0  0  0
  -21.6052   -4.3056   24.7240 C   0  0  0  0  0  0
  -21.8817   -3.8127   23.4359 C   0  0  0  0  0  0
  -21.9200   -4.6949   22.3415 C   0  0  0  0  0  0
  -22.7839  -13.5236   21.1863 C   0  0  0  0  0  0
  -22.1660   -4.2116   21.0995 F   0  0  0  0  0  0
  -21.5646   -3.4562   25.7764 F   0  0  0  0  0  0
  -30.0344  -13.2852   20.4647 N   0  0  0  0  0  0
  -26.2999  -12.9315   20.3406 N   0  0  0  0  0  0
  -25.9305  -11.6475   20.5815 N   0  0  0  0  0  0
  -22.0500  -12.8190   22.0429 N   0  0  0  0  0  0
  -25.4332  -15.1859   20.4139 N   0  0  0  0  0  0
  -31.7943  -14.6830   20.1013 O   0  0  0  0  0  0
  -21.6653   -6.8873   21.4252 O   0  0  0  0  0  0
  -22.3527  -14.5531   20.6737 O   0  0  0  0  0  0
  -24.6070  -31.8727   23.2133 C   0  0  0  0  0  0
  -25.8974  -32.4836   23.8453 C   0  0  1  0  0  0
  -27.2320  -27.4867   20.0989 C   0  0  0  0  0  0
  -25.5827  -33.8622   24.2377 N   0  0  0  0  0  0
  -23.3896  -30.5005   21.5528 C   0  0  2  0  0  0
  -24.8403  -28.9728   20.1099 C   0  0  0  0  0  0
  -22.7363  -29.4693   22.4985 C   0  0  0  0  0  0
  -18.0269  -28.1387   22.8516 C   0  0  0  0  0  0
  -24.1476  -36.7339   23.2645 C   0  0  0  0  0  0
  -25.9087  -30.8695   21.3430 C   0  0  0  0  0  0
  -25.9950  -29.4981   20.7058 C   0  0  0  0  0  0
  -27.1969  -28.7592   20.7008 C   0  0  0  0  0  0
  -26.0720  -26.9695   19.4850 C   0  0  0  0  0  0
  -24.8718  -27.7101   19.4908 C   0  0  0  0  0  0
  -23.5956  -29.8307   20.1655 C   0  0  0  0  0  0
  -25.4072  -36.3114   24.0369 C   0  0  1  0  0  0
  -20.5868  -28.3661   23.1340 C   0  0  2  0  0  0
  -20.6758  -26.9409   22.5416 C   0  0  0  0  0  0
  -19.5699  -26.6391   21.5227 C   0  0  0  0  0  0
  -18.1895  -26.7950   22.1653 C   0  0  0  0  0  0
  -19.1524  -28.8830   23.2915 C   0  0  0  0  0  0
  -18.9453  -30.1445   23.8905 C   0  0  0  0  0  0
  -17.6463  -30.6598   24.0577 C   0  0  0  0  0  0
  -25.8979  -34.9469   23.5182 C   0  0  0  0  0  0
  -16.5356  -29.9106   23.6324 C   0  0  0  0  0  0
  -16.7257  -28.6534   23.0334 C   0  0  0  0  0  0
  -26.4413  -31.6565   25.0738 C   0  0  0  0  0  0
  -25.3704  -31.3675   26.1498 C   0  0  0  0  0  0
  -27.0132  -30.3025   24.5974 C   0  0  0  0  0  0
  -27.6011  -32.4179   25.7512 C   0  0  0  0  0  0
  -27.5576  -37.1798   24.8474 C   0  0  0  0  0  0
  -21.4088  -29.3093   22.3794 N   0  0  0  0  0  0
  -26.4294  -37.3758   23.9417 N   0  0  0  0  0  0
  -24.6553  -31.0881   22.1002 N   0  0  0  0  0  0
  -23.4201  -28.8218   23.2962 O   0  0  0  0  0  0
  -28.3873  -26.7490   20.1345 O   0  0  0  0  0  0
  -26.5538  -34.8934   22.4732 O   0  0  0  0  0  0
  -23.5258  -32.1473   23.7543 O   0  0  0  0  0  0
  -31.4182  -18.5695   21.6442 C   0  0  0  0  0  0
  -29.7053  -17.4832   22.5301 C   0  0  0  0  0  0
  -30.3513  -18.7621   22.4875 C   0  0  0  0  0  0
  -30.4100  -16.6473   21.7023 C   0  0  0  0  0  0
  -27.3583  -23.2289   20.8251 C   0  0  0  0  0  0
  -27.8119  -22.4522   21.8307 C   0  0  0  0  0  0
  -28.1293  -24.3240   20.2129 C   0  0  0  0  0  0
  -28.2016  -17.5702   24.7364 C   0  0  0  0  0  0
  -28.5799  -16.1308   24.4716 C   0  0  0  0  0  0
  -28.4626  -17.1071   23.3188 C   0  0  0  0  0  0
  -30.8945  -20.2402   24.4279 C   0  0  0  0  0  0
  -28.9955  -22.9489   24.0097 C   0  0  0  0  0  0
  -28.2846  -25.6250   21.0142 C   0  0  0  0  0  0
  -30.0593  -21.2814   22.2478 C   0  0  0  0  0  0
  -29.9764  -20.0558   23.2026 C   0  0  1  0  0  0
  -29.1632  -22.5265   22.5380 C   0  0  1  0  0  0
  -30.0790  -15.3530   21.4376 N   0  0  0  0  0  0
  -28.6313  -24.2219   19.0889 O   0  0  0  0  0  0
  -31.4694  -17.2954   21.1527 O   0  0  0  0  0  0
  -27.0617  -21.4604   22.3403 O   0  0  0  0  0  0
  -31.4601  -12.4583   19.0996 H   0  0  0  0  0  0
  -30.3512  -11.3071   19.7898 H   0  0  0  0  0  0
  -29.7286  -11.8508   17.4057 H   0  0  0  0  0  0
  -29.6209  -13.5447   17.8013 H   0  0  0  0  0  0
  -27.8369  -11.3166   18.8218 H   0  0  0  0  0  0
  -27.3455  -12.6516   17.7999 H   0  0  0  0  0  0
  -27.7067  -14.2569   19.6092 H   0  0  0  0  0  0
  -28.6834  -11.9148   21.3167 H   0  0  0  0  0  0
  -28.4388  -13.5311   21.9010 H   0  0  0  0  0  0
  -25.2764   -9.5651   22.4752 H   0  0  0  0  0  0
  -24.0007   -7.4619   22.7445 H   0  0  0  0  0  0
  -21.0852   -8.8742   19.8950 H   0  0  0  0  0  0
  -22.3679  -10.9671   19.6155 H   0  0  0  0  0  0
  -21.1979   -7.6138   23.9694 H   0  0  0  0  0  0
  -21.1496   -6.0540   25.9083 H   0  0  0  0  0  0
  -22.0595   -2.7596   23.2871 H   0  0  0  0  0  0
  -22.4180  -11.9821   22.4685 H   0  0  0  0  0  0
  -21.1134  -13.1171   22.2741 H   0  0  0  0  0  0
  -24.6683  -15.8434   20.5175 H   0  0  0  0  0  0
  -26.2950  -15.6233   20.1114 H   0  0  0  0  0  0
  -26.7078  -32.5628   23.1261 H   0  0  0  0  0  0
  -24.9944  -33.9815   25.0510 H   0  0  0  0  0  0
  -22.6775  -31.3171   21.4121 H   0  0  0  0  0  0
  -23.3700  -35.9703   23.3279 H   0  0  0  0  0  0
  -24.3610  -36.8957   22.2068 H   0  0  0  0  0  0
  -23.7273  -37.6585   23.6655 H   0  0  0  0  0  0
  -25.9661  -31.6269   20.5585 H   0  0  0  0  0  0
  -26.8205  -30.9656   21.9239 H   0  0  0  0  0  0
  -28.0891  -29.1572   21.1670 H   0  0  0  0  0  0
  -26.0951  -26.0076   18.9955 H   0  0  0  0  0  0
  -23.9885  -27.3087   19.0143 H   0  0  0  0  0  0
  -23.6920  -30.5978   19.3962 H   0  0  0  0  0  0
  -22.7228  -29.2454   19.8715 H   0  0  0  0  0  0
  -25.1213  -36.2009   25.0867 H   0  0  0  0  0  0
  -20.9960  -28.3195   24.1445 H   0  0  0  0  0  0
  -20.5656  -26.2277   23.3602 H   0  0  0  0  0  0
  -21.6626  -26.7462   22.1182 H   0  0  0  0  0  0
  -19.6829  -25.6299   21.1247 H   0  0  0  0  0  0
  -19.6605  -27.3188   20.6736 H   0  0  0  0  0  0
  -17.4147  -26.6722   21.4069 H   0  0  0  0  0  0
  -18.0269  -26.0079   22.9031 H   0  0  0  0  0  0
  -19.7920  -30.7258   24.2285 H   0  0  0  0  0  0
  -17.5031  -31.6283   24.5150 H   0  0  0  0  0  0
  -15.5370  -30.3017   23.7626 H   0  0  0  0  0  0
  -15.8655  -28.0860   22.7026 H   0  0  0  0  0  0
  -24.5901  -30.6995   25.7893 H   0  0  0  0  0  0
  -24.8892  -32.2845   26.4895 H   0  0  0  0  0  0
  -25.8075  -30.8898   27.0270 H   0  0  0  0  0  0
  -26.2519  -29.6905   24.1140 H   0  0  0  0  0  0
  -27.4044  -29.7194   25.4323 H   0  0  0  0  0  0
  -27.8388  -30.4274   23.8981 H   0  0  0  0  0  0
  -27.2720  -33.3489   26.2152 H   0  0  0  0  0  0
  -28.3897  -32.6634   25.0381 H   0  0  0  0  0  0
  -28.0550  -31.8182   26.5417 H   0  0  0  0  0  0
  -28.2562  -38.0112   24.7464 H   0  0  0  0  0  0
  -28.1082  -36.2644   24.6304 H   0  0  0  0  0  0
  -27.2293  -37.1435   25.8876 H   0  0  0  0  0  0
  -20.9180  -29.8895   21.7162 H   0  0  0  0  0  0
  -26.0183  -38.2862   24.1372 H   0  0  0  0  0  0
  -32.2073  -19.2195   21.2947 H   0  0  0  0  0  0
  -26.3722  -23.0611   20.4206 H   0  0  0  0  0  0
  -28.9385  -18.2037   25.2229 H   0  0  0  0  0  0
  -27.1682  -17.7790   25.0075 H   0  0  0  0  0  0
  -27.8079  -15.3687   24.5686 H   0  0  0  0  0  0
  -29.5752  -15.8195   24.7848 H   0  0  0  0  0  0
  -27.6006  -17.0056   22.6625 H   0  0  0  0  0  0
  -30.9181  -19.3619   25.0729 H   0  0  0  0  0  0
  -30.5766  -21.0661   25.0587 H   0  0  0  0  0  0
  -31.9241  -20.4349   24.1218 H   0  0  0  0  0  0
  -28.3498  -23.8251   24.0840 H   0  0  0  0  0  0
  -29.9505  -23.2250   24.4616 H   0  0  0  0  0  0
  -28.5395  -22.1668   24.6155 H   0  0  0  0  0  0
  -29.1761  -25.5724   21.6413 H   0  0  0  0  0  0
  -27.4322  -25.7298   21.6882 H   0  0  0  0  0  0
  -29.8106  -20.9618   21.2348 H   0  0  0  0  0  0
  -31.1020  -21.5995   22.1784 H   0  0  0  0  0  0
  -28.9487  -19.9347   23.5356 H   0  0  0  0  0  0
  -29.7111  -23.3492   22.0813 H   0  0  0  0  0  0
  -29.2043  -15.0421   21.8268 H   0  0  0  0  0  0
  -27.5961  -20.9833   22.9603 H   0  0  0  0  0  0
  1 25  1  0  0  0
  1 30  2  0  0  0
  1 87  1  0  0  0
  2  3  1  0  0  0
  2 25  1  0  0  0
  2 91  1  0  0  0
  2 92  1  0  0  0
  3  4  1  0  0  0
  3 93  1  0  0  0
  3 94  1  0  0  0
  4  5  1  0  0  0
  4 95  1  0  0  0
  4 96  1  0  0  0
  5  6  1  0  0  0
  5 26  1  0  0  0
  5 97  1  0  0  0
  6 25  1  0  0  0
  6 98  1  0  0  0
  6 99  1  0  0  0
  7  8  2  0  0  0
  7 26  1  0  0  0
  7 29  1  0  0  0
  8  9  1  0  0  0
  8 22  1  0  0  0
  9 10  1  0  0  0
  9 27  2  0  0  0
 10 11  2  0  0  0
 10 15  1  0  0  0
 11 12  1  0  0  0
 11100  1  0  0  0
 12 13  2  0  0  0
 12101  1  0  0  0
 13 14  1  0  0  0
 13 31  1  0  0  0
 14 15  2  0  0  0
 14102  1  0  0  0
 15103  1  0  0  0
 16 17  2  0  0  0
 16 21  1  0  0  0
 16 31  1  0  0  0
 17 18  1  0  0  0
 17104  1  0  0  0
 18 19  2  0  0  0
 18105  1  0  0  0
 19 20  1  0  0  0
 19 24  1  0  0  0
 20 21  2  0  0  0
 20106  1  0  0  0
 21 23  1  0  0  0
 22 28  1  0  0  0
 22 32  2  0  0  0
 26 27  1  0  0  0
 28107  1  0  0  0
 28108  1  0  0  0
 29109  1  0  0  0
 29110  1  0  0  0
 33 34  1  0  0  0
 33 66  1  0  0  0
 33 70  2  0  0  0
 34 36  1  0  0  0
 34 59  1  0  0  0
 34111  1  0  0  0
 35 44  2  0  0  0
 35 45  1  0  0  0
 35 68  1  0  0  0
 36 56  1  0  0  0
 36112  1  0  0  0
 37 39  1  0  0  0
 37 47  1  0  0  0
 37 66  1  0  0  0
 37113  1  0  0  0
 38 43  2  0  0  0
 38 46  1  0  0  0
 38 47  1  0  0  0
 39 64  1  0  0  0
 39 67  2  0  0  0
 40 52  1  0  0  0
 40 53  2  0  0  0
 40 58  1  0  0  0
 41114  1  0  0  0
 41115  1  0  0  0
 41116  1  0  0  0
 41 48  1  0  0  0
 42 43  1  0  0  0
 42 66  1  0  0  0
 42117  1  0  0  0
 42118  1  0  0  0
 43 44  1  0  0  0
 44119  1  0  0  0
 45 46  2  0  0  0
 45120  1  0  0  0
 46121  1  0  0  0
 47122  1  0  0  0
 47123  1  0  0  0
 48 56  1  0  0  0
 48 65  1  0  0  0
 48124  1  0  0  0
 49 50  1  0  0  0
 49 53  1  0  0  0
 49 64  1  0  0  0
 49125  1  0  0  0
 50 51  1  0  0  0
 50126  1  0  0  0
 50127  1  0  0  0
 51 52  1  0  0  0
 51128  1  0  0  0
 51129  1  0  0  0
 52130  1  0  0  0
 52131  1  0  0  0
 53 54  1  0  0  0
 54 55  2  0  0  0
 54132  1  0  0  0
 55 57  1  0  0  0
 55133  1  0  0  0
 56 69  2  0  0  0
 57 58  2  0  0  0
 57134  1  0  0  0
 58135  1  0  0  0
 59 60  1  0  0  0
 59 61  1  0  0  0
 59 62  1  0  0  0
 60136  1  0  0  0
 60137  1  0  0  0
 60138  1  0  0  0
 61139  1  0  0  0
 61140  1  0  0  0
 61141  1  0  0  0
 62142  1  0  0  0
 62143  1  0  0  0
 62144  1  0  0  0
 63 65  1  0  0  0
 63145  1  0  0  0
 63146  1  0  0  0
 63147  1  0  0  0
 64148  1  0  0  0
 65149  1  0  0  0
 68 83  1  0  0  0
 71 73  2  0  0  0
 71 89  1  0  0  0
 71150  1  0  0  0
 72 73  1  0  0  0
 72 74  2  0  0  0
 72 80  1  0  0  0
 73 85  1  0  0  0
 74 87  1  0  0  0
 74 89  1  0  0  0
 75 76  2  0  0  0
 75 77  1  0  0  0
 75151  1  0  0  0
 76 86  1  0  0  0
 76 90  1  0  0  0
 77 83  1  0  0  0
 77 88  2  0  0  0
 78 79  1  0  0  0
 78 80  1  0  0  0
 78152  1  0  0  0
 78153  1  0  0  0
 79 80  1  0  0  0
 79154  1  0  0  0
 79155  1  0  0  0
 80156  1  0  0  0
 81157  1  0  0  0
 81158  1  0  0  0
 81159  1  0  0  0
 81 85  1  0  0  0
 82160  1  0  0  0
 82161  1  0  0  0
 82162  1  0  0  0
 82 86  1  0  0  0
 83163  1  0  0  0
 83164  1  0  0  0
 84 85  1  0  0  0
 84 86  1  0  0  0
 84165  1  0  0  0
 84166  1  0  0  0
 85167  1  0  0  0
 86168  1  0  0  0
 87169  1  0  0  0
 90170  1  0  0  0
M  ISO  4   1 100  68 101  83 101  87 100
M  END
> <chiral flag>
0

> <version>
0

> <s_m_source_file>
/data/baiqing/PycharmProjects/Reinvent-master-3.2/result/LINK_invent/BTK/process_docking_weight1_custom_product_contain_oxygen_bond_distance_aromatic_linkinvent_7_9_3/rearranged_h_0143.sdf

> <i_m_source_file_index>
1

> <r_mmod_Potential_Energy-OPLS-2005>
-56.1332740783691

> <r_mmod_Stretch_Energy-OPLS-2005>
35.2066307067871

> <r_mmod_Bend_Energy-OPLS-2005>
115.619644165039

> <r_mmod_Torsional_Energy-OPLS-2005>
273.485443115234

> <r_mmod_Improper_Torsional_Energy-OPLS-2005>
2.02960991859436

> <r_mmod_Van_der_Waal_Energy-OPLS-2005>
122.855987548828

> <r_mmod_Electrostatic_Energy-OPLS-2005>
-382.943969726562

> <r_mmod_Solvation_Energy-OPLS-2005>
-232.47721862793

> <b_mmod_Minimization_Converged-OPLS-2005>
0

> <r_mmod_RMS_Derivative-OPLS-2005>
6.61506795883179

$$$$
1
                    3D
 Structure written by MMmdl.
171180  0  0  1  0            999 V2000
  -30.6839  -14.4858   20.5010 C   0  0  0  0  0  0
  -30.4217  -12.3095   19.4085 C   0  0  0  0  0  0
  -29.4870  -12.5060   18.1987 C   0  0  0  0  0  0
  -28.0090  -12.3631   18.6144 C   0  0  0  0  0  0
  -27.6528  -13.2039   19.8710 C   0  0  2  0  0  0
  -28.7002  -12.9932   20.9855 C   0  0  0  0  0  0
  -25.2580  -13.8162   20.5749 C   0  0  0  0  0  0
  -24.1826  -13.0442   20.9197 C   0  0  0  0  0  0
  -24.6380  -11.6901   20.8759 C   0  0  0  0  0  0
  -23.9066  -10.4293   21.0414 C   0  0  0  0  0  0
  -24.3628   -9.4203   21.9175 C   0  0  0  0  0  0
  -23.6303   -8.2242   22.0753 C   0  0  0  0  0  0
  -22.4283   -8.0302   21.3547 C   0  0  0  0  0  0
  -21.9931   -9.0261   20.4625 C   0  0  0  0  0  0
  -22.7262  -10.2133   20.3037 C   0  0  0  0  0  0
  -21.6846   -6.0756   22.5293 C   0  0  0  0  0  0
  -21.4015   -6.5639   23.8233 C   0  0  0  0  0  0
  -21.3660   -5.6774   24.9183 C   0  0  0  0  0  0
  -21.6051   -4.3045   24.7206 C   0  0  0  0  0  0
  -21.8828   -3.8153   23.4327 C   0  0  0  0  0  0
  -21.9186   -4.6984   22.3391 C   0  0  0  0  0  0
  -22.7847  -13.5256   21.1823 C   0  0  0  0  0  0
  -22.1648   -4.2178   21.0963 F   0  0  0  0  0  0
  -21.5631   -3.4519   25.7713 F   0  0  0  0  0  0
  -30.0237  -13.2975   20.4245 N   0  0  0  0  0  0
  -26.2991  -12.9304   20.3397 N   0  0  0  0  0  0
  -25.9304  -11.6469   20.5804 N   0  0  0  0  0  0
  -22.0482  -12.8251   22.0368 N   0  0  0  0  0  0
  -25.4315  -15.1892   20.4290 N   0  0  0  0  0  0
  -31.8638  -14.6221   20.1758 O   0  0  0  0  0  0
  -21.6625   -6.8913   21.4271 O   0  0  0  0  0  0
  -22.3523  -14.5535   20.6643 O   0  0  0  0  0  0
  -24.6159  -31.8671   23.2094 C   0  0  0  0  0  0
  -25.9050  -32.4829   23.8384 C   0  0  1  0  0  0
  -27.2393  -27.4287   20.0834 C   0  0  0  0  0  0
  -25.5897  -33.8627   24.2319 N   0  0  0  0  0  0
  -23.4051  -30.4923   21.5438 C   0  0  2  0  0  0
  -24.8508  -28.9593   20.0996 C   0  0  0  0  0  0
  -22.7389  -29.4696   22.4907 C   0  0  0  0  0  0
  -18.0210  -28.1368   22.8435 C   0  0  0  0  0  0
  -24.1482  -36.7308   23.2641 C   0  0  0  0  0  0
  -25.9305  -30.8304   21.3616 C   0  0  0  0  0  0
  -26.0036  -29.4627   20.7090 C   0  0  0  0  0  0
  -27.1922  -28.6976   20.7129 C   0  0  0  0  0  0
  -26.0678  -26.9458   19.4594 C   0  0  0  0  0  0
  -24.8771  -27.7001   19.4755 C   0  0  0  0  0  0
  -23.6097  -29.8224   20.1563 C   0  0  0  0  0  0
  -25.4098  -36.3110   24.0338 C   0  0  1  0  0  0
  -20.5791  -28.3735   23.1133 C   0  0  2  0  0  0
  -20.6832  -26.9484   22.5119 C   0  0  0  0  0  0
  -19.5557  -26.5952   21.5298 C   0  0  0  0  0  0
  -18.1802  -26.7795   22.1792 C   0  0  0  0  0  0
  -19.1458  -28.8859   23.2790 C   0  0  0  0  0  0
  -18.9376  -30.1501   23.8779 C   0  0  0  0  0  0
  -17.6377  -30.6584   24.0532 C   0  0  0  0  0  0
  -25.9029  -34.9496   23.5114 C   0  0  0  0  0  0
  -16.5272  -29.9075   23.6339 C   0  0  0  0  0  0
  -16.7203  -28.6527   23.0303 C   0  0  0  0  0  0
  -26.4488  -31.6624   25.0716 C   0  0  0  0  0  0
  -25.3774  -31.3709   26.1478 C   0  0  0  0  0  0
  -27.0326  -30.3081   24.6077 C   0  0  0  0  0  0
  -27.6066  -32.4331   25.7493 C   0  0  0  0  0  0
  -27.5570  -37.1811   24.8474 C   0  0  0  0  0  0
  -21.4095  -29.3213   22.3700 N   0  0  0  0  0  0
  -26.4289  -37.3801   23.9414 N   0  0  0  0  0  0
  -24.6691  -31.0790   22.0970 N   0  0  0  0  0  0
  -23.4161  -28.8118   23.2877 O   0  0  0  0  0  0
  -28.4238  -26.7155   20.1712 O   0  0  0  0  0  0
  -26.5613  -34.8959   22.4690 O   0  0  0  0  0  0
  -23.5362  -32.1420   23.7499 O   0  0  0  0  0  0
  -29.3523  -15.8436   22.9036 C   0  0  0  0  0  0
  -28.8057  -16.7599   23.7594 C   0  0  0  0  0  0
  -29.3966  -16.3258   21.5606 C   0  0  0  0  0  0
  -28.9253  -17.6144   21.4026 C   0  0  0  0  0  0
  -28.3097  -21.0070   19.3540 C   0  0  0  0  0  0
  -28.5069  -23.3791   20.3509 C   0  0  0  0  0  0
  -27.6728  -18.4035   19.2316 C   0  0  0  0  0  0
  -28.8581  -18.4689   20.1575 C   0  0  2  0  0  0
  -27.9213  -19.6748   20.0240 C   0  0  2  0  0  0
  -30.5350  -22.2165   19.3190 C   0  0  0  0  0  0
  -29.6531  -21.4301   21.4952 C   0  0  0  0  0  0
  -30.4008  -25.6752   19.6067 C   0  0  0  0  0  0
  -28.8647  -26.4039   17.7956 C   0  0  0  0  0  0
  -28.2615  -24.3389   19.1625 C   0  0  0  0  0  0
  -29.2264  -22.0038   20.1205 C   0  0  0  0  0  0
  -28.9151  -25.7680   19.1993 C   0  0  0  0  0  0
  -27.8815  -21.2628   18.1872 N   0  0  0  0  0  0
  -29.9006  -15.5797   20.4666 N   0  0  0  0  0  0
  -28.1191  -23.7110   21.4775 O   0  0  0  0  0  0
  -28.3622  -18.2319   22.9381 S   0  0  0  0  0  0
  -31.4610  -12.4330   19.0977 H   0  0  0  0  0  0
  -30.3381  -11.2931   19.8006 H   0  0  0  0  0  0
  -29.7223  -11.7851   17.4163 H   0  0  0  0  0  0
  -29.6598  -13.4922   17.7635 H   0  0  0  0  0  0
  -27.8252  -11.3073   18.8130 H   0  0  0  0  0  0
  -27.3527  -12.6339   17.7834 H   0  0  0  0  0  0
  -27.6896  -14.2490   19.5681 H   0  0  0  0  0  0
  -28.6739  -11.9628   21.3438 H   0  0  0  0  0  0
  -28.4592  -13.6094   21.8482 H   0  0  0  0  0  0
  -25.2817   -9.5665   22.4695 H   0  0  0  0  0  0
  -24.0016   -7.4641   22.7490 H   0  0  0  0  0  0
  -21.0855   -8.8796   19.8921 H   0  0  0  0  0  0
  -22.3778  -10.9660   19.6101 H   0  0  0  0  0  0
  -21.2017   -7.6147   23.9745 H   0  0  0  0  0  0
  -21.1462   -6.0490   25.9080 H   0  0  0  0  0  0
  -22.0600   -2.7625   23.2801 H   0  0  0  0  0  0
  -22.4138  -11.9953   22.4789 H   0  0  0  0  0  0
  -21.1074  -13.1227   22.2520 H   0  0  0  0  0  0
  -24.6772  -15.8484   20.5819 H   0  0  0  0  0  0
  -26.3147  -15.6340   20.2156 H   0  0  0  0  0  0
  -26.7106  -32.5550   23.1139 H   0  0  0  0  0  0
  -25.0068  -33.9799   25.0474 H   0  0  0  0  0  0
  -22.6965  -31.3107   21.4045 H   0  0  0  0  0  0
  -23.3753  -35.9638   23.3323 H   0  0  0  0  0  0
  -24.3568  -36.8907   22.2054 H   0  0  0  0  0  0
  -23.7253  -37.6518   23.6648 H   0  0  0  0  0  0
  -26.0413  -31.5936   20.5904 H   0  0  0  0  0  0
  -26.8215  -30.8856   21.9738 H   0  0  0  0  0  0
  -28.0759  -29.0816   21.2026 H   0  0  0  0  0  0
  -26.0384  -25.9904   18.9653 H   0  0  0  0  0  0
  -23.9884  -27.3083   18.9991 H   0  0  0  0  0  0
  -23.7091  -30.5978   19.3958 H   0  0  0  0  0  0
  -22.7348  -29.2362   19.8681 H   0  0  0  0  0  0
  -25.1279  -36.1958   25.0835 H   0  0  0  0  0  0
  -20.9871  -28.3202   24.1254 H   0  0  0  0  0  0
  -20.6268  -26.2350   23.3345 H   0  0  0  0  0  0
  -21.6627  -26.7782   22.0606 H   0  0  0  0  0  0
  -19.6620  -25.5608   21.1965 H   0  0  0  0  0  0
  -19.6298  -27.2116   20.6345 H   0  0  0  0  0  0
  -17.3975  -26.6409   21.4312 H   0  0  0  0  0  0
  -18.0226  -26.0076   22.9358 H   0  0  0  0  0  0
  -19.7834  -30.7395   24.2100 H   0  0  0  0  0  0
  -17.4856  -31.6243   24.5161 H   0  0  0  0  0  0
  -15.5269  -30.2967   23.7765 H   0  0  0  0  0  0
  -15.8551  -28.0880   22.7042 H   0  0  0  0  0  0
  -24.5914  -30.7095   25.7813 H   0  0  0  0  0  0
  -24.9024  -32.2869   26.5011 H   0  0  0  0  0  0
  -25.8167  -30.8817   27.0181 H   0  0  0  0  0  0
  -26.2862  -29.6825   24.1171 H   0  0  0  0  0  0
  -27.4151  -29.7329   25.4517 H   0  0  0  0  0  0
  -27.8671  -30.4420   23.9185 H   0  0  0  0  0  0
  -27.2674  -33.3582   26.2167 H   0  0  0  0  0  0
  -28.3860  -32.6968   25.0327 H   0  0  0  0  0  0
  -28.0763  -31.8398   26.5348 H   0  0  0  0  0  0
  -28.2603  -38.0093   24.7494 H   0  0  0  0  0  0
  -28.1040  -36.2622   24.6312 H   0  0  0  0  0  0
  -27.2286  -37.1485   25.8880 H   0  0  0  0  0  0
  -20.9259  -29.9195   21.7136 H   0  0  0  0  0  0
  -26.0160  -38.2867   24.1440 H   0  0  0  0  0  0
  -29.7093  -14.8690   23.2018 H   0  0  0  0  0  0
  -28.6416  -16.6609   24.8266 H   0  0  0  0  0  0
  -26.8383  -17.7710   19.5354 H   0  0  0  0  0  0
  -27.8947  -18.3947   18.1660 H   0  0  0  0  0  0
  -29.8394  -18.5505   19.6952 H   0  0  0  0  0  0
  -27.2133  -19.8736   20.8239 H   0  0  0  0  0  0
  -31.1988  -22.9203   19.8196 H   0  0  0  0  0  0
  -30.3573  -22.5844   18.3090 H   0  0  0  0  0  0
  -31.0911  -21.2856   19.2135 H   0  0  0  0  0  0
  -28.7997  -21.2492   22.1492 H   0  0  0  0  0  0
  -30.1954  -20.4898   21.3933 H   0  0  0  0  0  0
  -30.3236  -22.1123   22.0165 H   0  0  0  0  0  0
  -30.9666  -25.0409   18.9268 H   0  0  0  0  0  0
  -30.5158  -25.2726   20.6138 H   0  0  0  0  0  0
  -30.8788  -26.6551   19.6034 H   0  0  0  0  0  0
  -27.8538  -26.4196   17.3923 H   0  0  0  0  0  0
  -29.4833  -25.8443   17.0927 H   0  0  0  0  0  0
  -29.2344  -27.4302   17.8014 H   0  0  0  0  0  0
  -27.1897  -24.3946   19.0217 H   0  0  0  0  0  0
  -28.6181  -23.8357   18.2669 H   0  0  0  0  0  0
  -27.2877  -20.5238   17.8259 H   0  0  0  0  0  0
  -30.1953  -16.1887   19.7196 H   0  0  0  0  0  0
  1 25  1  0  0  0
  1 30  2  0  0  0
  1 88  1  0  0  0
  2  3  1  0  0  0
  2 25  1  0  0  0
  2 91  1  0  0  0
  2 92  1  0  0  0
  3  4  1  0  0  0
  3 93  1  0  0  0
  3 94  1  0  0  0
  4  5  1  0  0  0
  4 95  1  0  0  0
  4 96  1  0  0  0
  5  6  1  0  0  0
  5 26  1  0  0  0
  5 97  1  0  0  0
  6 25  1  0  0  0
  6 98  1  0  0  0
  6 99  1  0  0  0
  7  8  2  0  0  0
  7 26  1  0  0  0
  7 29  1  0  0  0
  8  9  1  0  0  0
  8 22  1  0  0  0
  9 10  1  0  0  0
  9 27  2  0  0  0
 10 11  2  0  0  0
 10 15  1  0  0  0
 11 12  1  0  0  0
 11100  1  0  0  0
 12 13  2  0  0  0
 12101  1  0  0  0
 13 14  1  0  0  0
 13 31  1  0  0  0
 14 15  2  0  0  0
 14102  1  0  0  0
 15103  1  0  0  0
 16 17  2  0  0  0
 16 21  1  0  0  0
 16 31  1  0  0  0
 17 18  1  0  0  0
 17104  1  0  0  0
 18 19  2  0  0  0
 18105  1  0  0  0
 19 20  1  0  0  0
 19 24  1  0  0  0
 20 21  2  0  0  0
 20106  1  0  0  0
 21 23  1  0  0  0
 22 28  1  0  0  0
 22 32  2  0  0  0
 26 27  1  0  0  0
 28107  1  0  0  0
 28108  1  0  0  0
 29109  1  0  0  0
 29110  1  0  0  0
 33 34  1  0  0  0
 33 66  1  0  0  0
 33 70  2  0  0  0
 34 36  1  0  0  0
 34 59  1  0  0  0
 34111  1  0  0  0
 35 44  2  0  0  0
 35 45  1  0  0  0
 35 68  1  0  0  0
 36 56  1  0  0  0
 36112  1  0  0  0
 37 39  1  0  0  0
 37 47  1  0  0  0
 37 66  1  0  0  0
 37113  1  0  0  0
 38 43  2  0  0  0
 38 46  1  0  0  0
 38 47  1  0  0  0
 39 64  1  0  0  0
 39 67  2  0  0  0
 40 52  1  0  0  0
 40 53  2  0  0  0
 40 58  1  0  0  0
 41114  1  0  0  0
 41115  1  0  0  0
 41116  1  0  0  0
 41 48  1  0  0  0
 42 43  1  0  0  0
 42 66  1  0  0  0
 42117  1  0  0  0
 42118  1  0  0  0
 43 44  1  0  0  0
 44119  1  0  0  0
 45 46  2  0  0  0
 45120  1  0  0  0
 46121  1  0  0  0
 47122  1  0  0  0
 47123  1  0  0  0
 48 56  1  0  0  0
 48 65  1  0  0  0
 48124  1  0  0  0
 49 50  1  0  0  0
 49 53  1  0  0  0
 49 64  1  0  0  0
 49125  1  0  0  0
 50 51  1  0  0  0
 50126  1  0  0  0
 50127  1  0  0  0
 51 52  1  0  0  0
 51128  1  0  0  0
 51129  1  0  0  0
 52130  1  0  0  0
 52131  1  0  0  0
 53 54  1  0  0  0
 54 55  2  0  0  0
 54132  1  0  0  0
 55 57  1  0  0  0
 55133  1  0  0  0
 56 69  2  0  0  0
 57 58  2  0  0  0
 57134  1  0  0  0
 58135  1  0  0  0
 59 60  1  0  0  0
 59 61  1  0  0  0
 59 62  1  0  0  0
 60136  1  0  0  0
 60137  1  0  0  0
 60138  1  0  0  0
 61139  1  0  0  0
 61140  1  0  0  0
 61141  1  0  0  0
 62142  1  0  0  0
 62143  1  0  0  0
 62144  1  0  0  0
 63 65  1  0  0  0
 63145  1  0  0  0
 63146  1  0  0  0
 63147  1  0  0  0
 64148  1  0  0  0
 65149  1  0  0  0
 68 86  1  0  0  0
 71 72  2  0  0  0
 71 73  1  0  0  0
 71150  1  0  0  0
 72 90  1  0  0  0
 72151  1  0  0  0
 73 74  2  0  0  0
 73 88  1  0  0  0
 74 90  1  0  0  0
 74 78  1  0  0  0
 75 85  1  0  0  0
 75 87  2  0  0  0
 75 79  1  0  0  0
 76 84  1  0  0  0
 76 85  1  0  0  0
 76 89  2  0  0  0
 77 78  1  0  0  0
 77 79  1  0  0  0
 77152  1  0  0  0
 77153  1  0  0  0
 78 79  1  0  0  0
 78154  1  0  0  0
 79155  1  0  0  0
 80156  1  0  0  0
 80157  1  0  0  0
 80158  1  0  0  0
 80 85  1  0  0  0
 81 85  1  0  0  0
 81159  1  0  0  0
 81160  1  0  0  0
 81161  1  0  0  0
 82162  1  0  0  0
 82163  1  0  0  0
 82164  1  0  0  0
 82 86  1  0  0  0
 83 86  1  0  0  0
 83165  1  0  0  0
 83166  1  0  0  0
 83167  1  0  0  0
 84 86  1  0  0  0
 84168  1  0  0  0
 84169  1  0  0  0
 87170  1  0  0  0
 88171  1  0  0  0
M  ISO  4   1 100  68 101  86 101  88 100
M  END
> <chiral flag>
0

> <version>
0

> <s_m_source_file>
/data/baiqing/PycharmProjects/Reinvent-master-3.2/result/LINK_invent/BTK/process_docking_weight1_custom_product_contain_oxygen_bond_distance_aromatic_linkinvent_7_9_3/rearranged_h_0143.sdf

> <i_m_source_file_index>
2

> <r_mmod_Potential_Energy-OPLS-2005>
21.9152565002441

> <r_mmod_Stretch_Energy-OPLS-2005>
45.4733238220215

> <r_mmod_Bend_Energy-OPLS-2005>
152.257171630859

> <r_mmod_Torsional_Energy-OPLS-2005>
257.178009033203

> <r_mmod_Improper_Torsional_Energy-OPLS-2005>
18.2346115112305

> <r_mmod_Van_der_Waal_Energy-OPLS-2005>
124.130348205566

> <r_mmod_Electrostatic_Energy-OPLS-2005>
-382.883575439453

> <r_mmod_Solvation_Energy-OPLS-2005>
-211.887954711914

> <b_mmod_Minimization_Converged-OPLS-2005>
0

> <r_mmod_RMS_Derivative-OPLS-2005>
4.72122144699097

$$$$
2
                    3D
 Structure written by MMmdl.
157166  0  0  1  0            999 V2000
  -30.6586  -14.6152   20.5408 C   0  0  0  0  0  0
  -30.4288  -12.3824   19.4655 C   0  0  0  0  0  0
  -29.5069  -12.5066   18.2318 C   0  0  0  0  0  0
  -28.0284  -12.3472   18.6351 C   0  0  0  0  0  0
  -27.6516  -13.2203   19.8623 C   0  0  2  0  0  0
  -28.6916  -13.0801   20.9994 C   0  0  0  0  0  0
  -25.2571  -13.8206   20.5718 C   0  0  0  0  0  0
  -24.1819  -13.0472   20.9178 C   0  0  0  0  0  0
  -24.6363  -11.6925   20.8713 C   0  0  0  0  0  0
  -23.9016  -10.4312   21.0383 C   0  0  0  0  0  0
  -24.3584   -9.4228   21.9163 C   0  0  0  0  0  0
  -23.6273   -8.2261   22.0775 C   0  0  0  0  0  0
  -22.4266   -8.0273   21.3552 C   0  0  0  0  0  0
  -21.9862   -9.0242   20.4661 C   0  0  0  0  0  0
  -22.7175  -10.2131   20.3057 C   0  0  0  0  0  0
  -21.6874   -6.0700   22.5244 C   0  0  0  0  0  0
  -21.4026   -6.5611   23.8173 C   0  0  0  0  0  0
  -21.3675   -5.6781   24.9146 C   0  0  0  0  0  0
  -21.6043   -4.3041   24.7213 C   0  0  0  0  0  0
  -21.8835   -3.8100   23.4342 C   0  0  0  0  0  0
  -21.9221   -4.6917   22.3378 C   0  0  0  0  0  0
  -22.7839  -13.5272   21.1790 C   0  0  0  0  0  0
  -22.1727   -4.2089   21.0969 F   0  0  0  0  0  0
  -21.5595   -3.4542   25.7742 F   0  0  0  0  0  0
  -30.0167  -13.4063   20.4506 N   0  0  0  0  0  0
  -26.2961  -12.9370   20.3298 N   0  0  0  0  0  0
  -25.9288  -11.6510   20.5722 N   0  0  0  0  0  0
  -22.0464  -12.8323   22.0364 N   0  0  0  0  0  0
  -25.4368  -15.1944   20.4241 N   0  0  0  0  0  0
  -31.7926  -14.7665   20.0778 O   0  0  0  0  0  0
  -21.6666   -6.8845   21.4222 O   0  0  0  0  0  0
  -22.3558  -14.5575   20.6597 O   0  0  0  0  0  0
  -24.6275  -31.8649   23.2090 C   0  0  0  0  0  0
  -25.9131  -32.4808   23.8406 C   0  0  1  0  0  0
  -27.2037  -27.3068   20.1100 C   0  0  0  0  0  0
  -25.5982  -33.8601   24.2337 N   0  0  0  0  0  0
  -23.4199  -30.4926   21.5522 C   0  0  2  0  0  0
  -24.8641  -28.9669   20.1042 C   0  0  0  0  0  0
  -22.7486  -29.4632   22.4932 C   0  0  0  0  0  0
  -18.0316  -28.1357   22.8502 C   0  0  0  0  0  0
  -24.1508  -36.7281   23.2611 C   0  0  0  0  0  0
  -25.9662  -30.7827   21.3939 C   0  0  0  0  0  0
  -26.0312  -29.4136   20.7319 C   0  0  0  0  0  0
  -27.1978  -28.5905   20.7430 C   0  0  0  0  0  0
  -26.0231  -26.9582   19.4021 C   0  0  0  0  0  0
  -24.8636  -27.7441   19.4296 C   0  0  0  0  0  0
  -23.6335  -29.8445   20.1627 C   0  0  0  0  0  0
  -25.4115  -36.3082   24.0333 C   0  0  1  0  0  0
  -20.5913  -28.3662   23.1291 C   0  0  2  0  0  0
  -20.6786  -26.9370   22.5416 C   0  0  0  0  0  0
  -19.5766  -26.6357   21.5208 C   0  0  0  0  0  0
  -18.1951  -26.7918   22.1619 C   0  0  0  0  0  0
  -19.1558  -28.8823   23.2903 C   0  0  0  0  0  0
  -18.9477  -30.1435   23.8904 C   0  0  0  0  0  0
  -17.6466  -30.6557   24.0558 C   0  0  0  0  0  0
  -25.9059  -34.9459   23.5110 C   0  0  0  0  0  0
  -16.5365  -29.9056   23.6314 C   0  0  0  0  0  0
  -16.7298  -28.6467   23.0357 C   0  0  0  0  0  0
  -26.4512  -31.6598   25.0762 C   0  0  0  0  0  0
  -25.3748  -31.3797   26.1511 C   0  0  0  0  0  0
  -27.0274  -30.2984   24.6200 C   0  0  0  0  0  0
  -27.6105  -32.4319   25.7513 C   0  0  0  0  0  0
  -27.5607  -37.1772   24.8441 C   0  0  0  0  0  0
  -21.4190  -29.3033   22.3676 N   0  0  0  0  0  0
  -26.4294  -37.3779   23.9425 N   0  0  0  0  0  0
  -24.6889  -31.0653   22.1067 N   0  0  0  0  0  0
  -23.4219  -28.8150   23.2979 O   0  0  0  0  0  0
  -28.2938  -26.4150   20.2156 O   0  0  0  0  0  0
  -26.5583  -34.8911   22.4657 O   0  0  0  0  0  0
  -23.5434  -32.1468   23.7400 O   0  0  0  0  0  0
  -29.5482  -18.1925   21.5697 C   0  0  0  0  0  0
  -30.8072  -17.6898   19.7907 C   0  0  0  0  0  0
  -30.1250  -17.0995   20.8214 C   0  0  0  0  0  0
  -29.9129  -19.3785   20.9454 C   0  0  0  0  0  0
  -28.1687  -21.3095   21.0364 C   0  0  0  0  0  0
  -30.5582  -21.8597   20.3522 C   0  0  0  0  0  0
  -27.8965  -22.8465   21.1519 C   0  0  0  0  0  0
  -30.2247  -23.3967   20.4347 C   0  0  0  0  0  0
  -29.6574  -20.8890   21.1965 C   0  0  2  0  0  0
  -28.7334  -23.6558   20.1253 C   0  0  2  0  0  0
  -28.1725  -25.0635   19.6167 C   0  0  0  0  0  0
  -29.9562  -15.6676   21.0639 N   0  0  0  0  0  0
  -30.6684  -19.0543   19.8460 O   0  0  0  0  0  0
  -31.4742  -12.4851   19.1641 H   0  0  0  0  0  0
  -30.3486  -11.3883   19.9061 H   0  0  0  0  0  0
  -29.7733  -11.7514   17.4915 H   0  0  0  0  0  0
  -29.6560  -13.4760   17.7533 H   0  0  0  0  0  0
  -27.8543  -11.2939   18.8598 H   0  0  0  0  0  0
  -27.3808  -12.5810   17.7889 H   0  0  0  0  0  0
  -27.6701  -14.2536   19.5173 H   0  0  0  0  0  0
  -28.6968  -12.0622   21.3902 H   0  0  0  0  0  0
  -28.4322  -13.7213   21.8425 H   0  0  0  0  0  0
  -25.2743   -9.5675   22.4739 H   0  0  0  0  0  0
  -23.9959   -7.4673   22.7532 H   0  0  0  0  0  0
  -21.0769   -8.8722   19.9020 H   0  0  0  0  0  0
  -22.3592  -10.9655   19.6165 H   0  0  0  0  0  0
  -21.2044   -7.6136   23.9657 H   0  0  0  0  0  0
  -21.1492   -6.0521   25.9044 H   0  0  0  0  0  0
  -22.0618   -2.7556   23.2858 H   0  0  0  0  0  0
  -22.4087  -11.9996   22.4756 H   0  0  0  0  0  0
  -21.1082  -13.1386   22.2593 H   0  0  0  0  0  0
  -24.6846  -15.8658   20.5350 H   0  0  0  0  0  0
  -26.3020  -15.6237   20.1184 H   0  0  0  0  0  0
  -26.7188  -32.5464   23.1140 H   0  0  0  0  0  0
  -25.0182  -33.9771   25.0513 H   0  0  0  0  0  0
  -22.7135  -31.3144   21.4180 H   0  0  0  0  0  0
  -23.3789  -35.9597   23.3238 H   0  0  0  0  0  0
  -24.3596  -36.8918   22.2028 H   0  0  0  0  0  0
  -23.7237  -37.6460   23.6654 H   0  0  0  0  0  0
  -26.1052  -31.5422   20.6245 H   0  0  0  0  0  0
  -26.8462  -30.8280   22.0223 H   0  0  0  0  0  0
  -28.0810  -28.9165   21.2751 H   0  0  0  0  0  0
  -25.9206  -26.0741   18.7974 H   0  0  0  0  0  0
  -23.9813  -27.4126   18.8994 H   0  0  0  0  0  0
  -23.7467  -30.6318   19.4176 H   0  0  0  0  0  0
  -22.7557  -29.2743   19.8574 H   0  0  0  0  0  0
  -25.1270  -36.1932   25.0822 H   0  0  0  0  0  0
  -21.0024  -28.3240   24.1406 H   0  0  0  0  0  0
  -20.5667  -26.2251   23.3608 H   0  0  0  0  0  0
  -21.6659  -26.7382   22.1215 H   0  0  0  0  0  0
  -19.6918  -25.6270   21.1224 H   0  0  0  0  0  0
  -19.6721  -27.3173   20.6750 H   0  0  0  0  0  0
  -17.4219  -26.6704   21.4025 H   0  0  0  0  0  0
  -18.0329  -26.0036   22.8978 H   0  0  0  0  0  0
  -19.7937  -30.7268   24.2276 H   0  0  0  0  0  0
  -17.4997  -31.6244   24.5151 H   0  0  0  0  0  0
  -15.5357  -30.2946   23.7602 H   0  0  0  0  0  0
  -15.8714  -28.0769   22.7067 H   0  0  0  0  0  0
  -24.5947  -30.7088   25.7905 H   0  0  0  0  0  0
  -24.8906  -32.2979   26.4859 H   0  0  0  0  0  0
  -25.8080  -30.9077   27.0336 H   0  0  0  0  0  0
  -26.2800  -29.6817   24.1185 H   0  0  0  0  0  0
  -27.3877  -29.7181   25.4704 H   0  0  0  0  0  0
  -27.8760  -30.4213   23.9458 H   0  0  0  0  0  0
  -27.2732  -33.3612   26.2126 H   0  0  0  0  0  0
  -28.3894  -32.6887   25.0319 H   0  0  0  0  0  0
  -28.0799  -31.8413   26.5390 H   0  0  0  0  0  0
  -28.2572  -38.0122   24.7554 H   0  0  0  0  0  0
  -28.1161  -36.2652   24.6174 H   0  0  0  0  0  0
  -27.2338  -37.1294   25.8844 H   0  0  0  0  0  0
  -20.9342  -29.8757   21.6895 H   0  0  0  0  0  0
  -26.0176  -38.2853   24.1462 H   0  0  0  0  0  0
  -28.9361  -18.1366   22.4628 H   0  0  0  0  0  0
  -31.3942  -17.3244   18.9559 H   0  0  0  0  0  0
  -27.8037  -20.9589   20.0682 H   0  0  0  0  0  0
  -27.5692  -20.7856   21.7829 H   0  0  0  0  0  0
  -31.6018  -21.7014   20.6241 H   0  0  0  0  0  0
  -30.4808  -21.5683   19.3041 H   0  0  0  0  0  0
  -28.1118  -23.1904   22.1648 H   0  0  0  0  0  0
  -26.8302  -23.0214   20.9972 H   0  0  0  0  0  0
  -30.8473  -23.9412   19.7203 H   0  0  0  0  0  0
  -30.4770  -23.7858   21.4235 H   0  0  0  0  0  0
  -29.9113  -21.0746   22.2422 H   0  0  0  0  0  0
  -28.5790  -23.0821   19.2088 H   0  0  0  0  0  0
  -27.1313  -24.7737   19.5733 H   0  0  0  0  0  0
  -28.4827  -25.1865   18.5782 H   0  0  0  0  0  0
  -29.1242  -15.4040   21.5681 H   0  0  0  0  0  0
  1 25  1  0  0  0
  1 30  2  0  0  0
  1 82  1  0  0  0
  2  3  1  0  0  0
  2 25  1  0  0  0
  2 84  1  0  0  0
  2 85  1  0  0  0
  3  4  1  0  0  0
  3 86  1  0  0  0
  3 87  1  0  0  0
  4  5  1  0  0  0
  4 88  1  0  0  0
  4 89  1  0  0  0
  5  6  1  0  0  0
  5 26  1  0  0  0
  5 90  1  0  0  0
  6 25  1  0  0  0
  6 91  1  0  0  0
  6 92  1  0  0  0
  7  8  2  0  0  0
  7 26  1  0  0  0
  7 29  1  0  0  0
  8  9  1  0  0  0
  8 22  1  0  0  0
  9 10  1  0  0  0
  9 27  2  0  0  0
 10 11  2  0  0  0
 10 15  1  0  0  0
 11 12  1  0  0  0
 11 93  1  0  0  0
 12 13  2  0  0  0
 12 94  1  0  0  0
 13 14  1  0  0  0
 13 31  1  0  0  0
 14 15  2  0  0  0
 14 95  1  0  0  0
 15 96  1  0  0  0
 16 17  2  0  0  0
 16 21  1  0  0  0
 16 31  1  0  0  0
 17 18  1  0  0  0
 17 97  1  0  0  0
 18 19  2  0  0  0
 18 98  1  0  0  0
 19 20  1  0  0  0
 19 24  1  0  0  0
 20 21  2  0  0  0
 20 99  1  0  0  0
 21 23  1  0  0  0
 22 28  1  0  0  0
 22 32  2  0  0  0
 26 27  1  0  0  0
 28100  1  0  0  0
 28101  1  0  0  0
 29102  1  0  0  0
 29103  1  0  0  0
 33 34  1  0  0  0
 33 66  1  0  0  0
 33 70  2  0  0  0
 34 36  1  0  0  0
 34 59  1  0  0  0
 34104  1  0  0  0
 35 44  2  0  0  0
 35 45  1  0  0  0
 35 68  1  0  0  0
 36 56  1  0  0  0
 36105  1  0  0  0
 37 39  1  0  0  0
 37 47  1  0  0  0
 37 66  1  0  0  0
 37106  1  0  0  0
 38 43  2  0  0  0
 38 46  1  0  0  0
 38 47  1  0  0  0
 39 64  1  0  0  0
 39 67  2  0  0  0
 40 52  1  0  0  0
 40 53  2  0  0  0
 40 58  1  0  0  0
 41107  1  0  0  0
 41108  1  0  0  0
 41109  1  0  0  0
 41 48  1  0  0  0
 42 43  1  0  0  0
 42 66  1  0  0  0
 42110  1  0  0  0
 42111  1  0  0  0
 43 44  1  0  0  0
 44112  1  0  0  0
 45 46  2  0  0  0
 45113  1  0  0  0
 46114  1  0  0  0
 47115  1  0  0  0
 47116  1  0  0  0
 48 56  1  0  0  0
 48 65  1  0  0  0
 48117  1  0  0  0
 49 50  1  0  0  0
 49 53  1  0  0  0
 49 64  1  0  0  0
 49118  1  0  0  0
 50 51  1  0  0  0
 50119  1  0  0  0
 50120  1  0  0  0
 51 52  1  0  0  0
 51121  1  0  0  0
 51122  1  0  0  0
 52123  1  0  0  0
 52124  1  0  0  0
 53 54  1  0  0  0
 54 55  2  0  0  0
 54125  1  0  0  0
 55 57  1  0  0  0
 55126  1  0  0  0
 56 69  2  0  0  0
 57 58  2  0  0  0
 57127  1  0  0  0
 58128  1  0  0  0
 59 60  1  0  0  0
 59 61  1  0  0  0
 59 62  1  0  0  0
 60129  1  0  0  0
 60130  1  0  0  0
 60131  1  0  0  0
 61132  1  0  0  0
 61133  1  0  0  0
 61134  1  0  0  0
 62135  1  0  0  0
 62136  1  0  0  0
 62137  1  0  0  0
 63 65  1  0  0  0
 63138  1  0  0  0
 63139  1  0  0  0
 63140  1  0  0  0
 64141  1  0  0  0
 65142  1  0  0  0
 68 81  1  0  0  0
 71 73  1  0  0  0
 71 74  2  0  0  0
 71143  1  0  0  0
 72 73  2  0  0  0
 72 83  1  0  0  0
 72144  1  0  0  0
 73 82  1  0  0  0
 74 83  1  0  0  0
 74 79  1  0  0  0
 75 77  1  0  0  0
 75 79  1  0  0  0
 75145  1  0  0  0
 75146  1  0  0  0
 76 78  1  0  0  0
 76 79  1  0  0  0
 76147  1  0  0  0
 76148  1  0  0  0
 77 80  1  0  0  0
 77149  1  0  0  0
 77150  1  0  0  0
 78 80  1  0  0  0
 78151  1  0  0  0
 78152  1  0  0  0
 79153  1  0  0  0
 80 81  1  0  0  0
 80154  1  0  0  0
 81155  1  0  0  0
 81156  1  0  0  0
 82157  1  0  0  0
M  ISO  4   1 100  68 101  81 101  82 100
M  END
> <chiral flag>
0

> <version>
0

> <s_m_source_file>
/data/baiqing/PycharmProjects/Reinvent-master-3.2/result/LINK_invent/BTK/process_docking_weight1_custom_product_contain_oxygen_bond_distance_aromatic_linkinvent_7_9_3/rearranged_h_0143.sdf

> <i_m_source_file_index>
3

> <r_mmod_Potential_Energy-OPLS-2005>
159.294509887695

> <r_mmod_Stretch_Energy-OPLS-2005>
74.9105529785156

> <r_mmod_Bend_Energy-OPLS-2005>
185.775482177734

> <r_mmod_Torsional_Energy-OPLS-2005>
255.613418579102

> <r_mmod_Improper_Torsional_Energy-OPLS-2005>
3.11863255500793

> <r_mmod_Van_der_Waal_Energy-OPLS-2005>
140.336227416992

> <r_mmod_Electrostatic_Energy-OPLS-2005>
-350.885437011719

> <r_mmod_Solvation_Energy-OPLS-2005>
-203.305633544922

> <b_mmod_Minimization_Converged-OPLS-2005>
0

> <r_mmod_RMS_Derivative-OPLS-2005>
4.19039964675903

$$$$
3
                    3D
 Structure written by MMmdl.
166175  0  0  1  0            999 V2000
  -30.6685  -14.5807   20.5143 C   0  0  0  0  0  0
  -30.4391  -12.3588   19.4435 C   0  0  0  0  0  0
  -29.5101  -12.4940   18.2181 C   0  0  0  0  0  0
  -28.0313  -12.3489   18.6299 C   0  0  0  0  0  0
  -27.6592  -13.2150   19.8624 C   0  0  2  0  0  0
  -28.7059  -13.0557   20.9915 C   0  0  0  0  0  0
  -25.2506  -13.8088   20.5536 C   0  0  0  0  0  0
  -24.1801  -13.0399   20.9190 C   0  0  0  0  0  0
  -24.6399  -11.6899   20.8762 C   0  0  0  0  0  0
  -23.9068  -10.4284   21.0417 C   0  0  0  0  0  0
  -24.3616   -9.4195   21.9187 C   0  0  0  0  0  0
  -23.6289   -8.2241   22.0756 C   0  0  0  0  0  0
  -22.4259   -8.0290   21.3570 C   0  0  0  0  0  0
  -21.9918   -9.0265   20.4658 C   0  0  0  0  0  0
  -22.7256  -10.2135   20.3061 C   0  0  0  0  0  0
  -21.6855   -6.0734   22.5268 C   0  0  0  0  0  0
  -21.4011   -6.5621   23.8204 C   0  0  0  0  0  0
  -21.3652   -5.6780   24.9170 C   0  0  0  0  0  0
  -21.6038   -4.3052   24.7221 C   0  0  0  0  0  0
  -21.8825   -3.8144   23.4341 C   0  0  0  0  0  0
  -21.9197   -4.6960   22.3392 C   0  0  0  0  0  0
  -22.7817  -13.5216   21.1830 C   0  0  0  0  0  0
  -22.1664   -4.2147   21.0980 F   0  0  0  0  0  0
  -21.5618   -3.4537   25.7737 F   0  0  0  0  0  0
  -30.0312  -13.3737   20.4309 N   0  0  0  0  0  0
  -26.3007  -12.9328   20.3299 N   0  0  0  0  0  0
  -25.9340  -11.6493   20.5770 N   0  0  0  0  0  0
  -22.0447  -12.8263   22.0417 N   0  0  0  0  0  0
  -25.4040  -15.1755   20.3583 N   0  0  0  0  0  0
  -31.8231  -14.7326   20.1088 O   0  0  0  0  0  0
  -21.6638   -6.8879   21.4243 O   0  0  0  0  0  0
  -22.3520  -14.5518   20.6650 O   0  0  0  0  0  0
  -24.6190  -31.8622   23.2033 C   0  0  0  0  0  0
  -25.9049  -32.4784   23.8368 C   0  0  1  0  0  0
  -27.2487  -27.3914   20.1145 C   0  0  0  0  0  0
  -25.5882  -33.8578   24.2297 N   0  0  0  0  0  0
  -23.4095  -30.4814   21.5448 C   0  0  2  0  0  0
  -24.8596  -28.9338   20.1198 C   0  0  0  0  0  0
  -22.7432  -29.4625   22.4975 C   0  0  0  0  0  0
  -18.0273  -28.1415   22.8492 C   0  0  0  0  0  0
  -24.1489  -36.7306   23.2644 C   0  0  0  0  0  0
  -25.9381  -30.8197   21.3566 C   0  0  0  0  0  0
  -26.0192  -29.4459   20.7130 C   0  0  0  0  0  0
  -27.2139  -28.6847   20.6988 C   0  0  0  0  0  0
  -26.0675  -26.8961   19.5203 C   0  0  0  0  0  0
  -24.8823  -27.6633   19.5158 C   0  0  0  0  0  0
  -23.6215  -29.8042   20.1632 C   0  0  0  0  0  0
  -25.4097  -36.3085   24.0344 C   0  0  1  0  0  0
  -20.5870  -28.3685   23.1334 C   0  0  2  0  0  0
  -20.6749  -26.9416   22.5449 C   0  0  0  0  0  0
  -19.5728  -26.6416   21.5229 C   0  0  0  0  0  0
  -18.1899  -26.7964   22.1621 C   0  0  0  0  0  0
  -19.1527  -28.8864   23.2906 C   0  0  0  0  0  0
  -18.9451  -30.1474   23.8908 C   0  0  0  0  0  0
  -17.6448  -30.6599   24.0593 C   0  0  0  0  0  0
  -25.9014  -34.9457   23.5115 C   0  0  0  0  0  0
  -16.5334  -29.9107   23.6351 C   0  0  0  0  0  0
  -16.7268  -28.6542   23.0338 C   0  0  0  0  0  0
  -26.4478  -31.6573   25.0705 C   0  0  0  0  0  0
  -25.3732  -31.3715   26.1460 C   0  0  0  0  0  0
  -27.0317  -30.3014   24.6091 C   0  0  0  0  0  0
  -27.6083  -32.4275   25.7433 C   0  0  0  0  0  0
  -27.5583  -37.1792   24.8453 C   0  0  0  0  0  0
  -21.4144  -29.3031   22.3725 N   0  0  0  0  0  0
  -26.4290  -37.3777   23.9427 N   0  0  0  0  0  0
  -24.6743  -31.0706   22.0933 N   0  0  0  0  0  0
  -23.4169  -28.8152   23.3037 O   0  0  0  0  0  0
  -28.4372  -26.6742   20.1268 O   0  0  0  0  0  0
  -26.5604  -34.8901   22.4686 O   0  0  0  0  0  0
  -23.5358  -32.1396   23.7382 O   0  0  0  0  0  0
  -31.3153  -19.1486   20.4272 C   0  0  0  0  0  0
  -31.2380  -17.7305   20.4782 C   0  0  0  0  0  0
  -28.9846  -19.3071   21.0137 C   0  0  0  0  0  0
  -30.1933  -19.9665   20.7082 C   0  0  0  0  0  0
  -28.8985  -17.8948   21.0820 C   0  0  0  0  0  0
  -30.0288  -17.0627   20.8187 C   0  0  0  0  0  0
  -30.1172  -22.2054   19.3683 C   0  0  0  0  0  0
  -29.3871  -22.2490   21.7266 C   0  0  0  0  0  0
  -30.4945  -23.7151   19.4296 C   0  0  0  0  0  0
  -29.7554  -23.7510   21.8744 C   0  0  0  0  0  0
  -30.3175  -21.5145   20.7321 C   0  0  1  0  0  0
  -29.8327  -24.5898   20.5544 C   0  0  1  0  0  0
  -27.5351  -17.3290   21.4369 C   0  0  0  0  0  0
  -30.8134  -25.7602   20.8334 C   0  0  0  0  0  0
  -28.4382  -25.2189   20.1262 C   0  0  0  0  0  0
  -29.8873  -15.6194   20.9218 N   0  0  0  0  0  0
  -31.4809  -12.4717   19.1358 H   0  0  0  0  0  0
  -30.3608  -11.3602   19.8764 H   0  0  0  0  0  0
  -29.7645  -11.7417   17.4710 H   0  0  0  0  0  0
  -29.6717  -13.4615   17.7382 H   0  0  0  0  0  0
  -27.8500  -11.2955   18.8526 H   0  0  0  0  0  0
  -27.3843  -12.5940   17.7869 H   0  0  0  0  0  0
  -27.6853  -14.2525   19.5285 H   0  0  0  0  0  0
  -28.7012  -12.0354   21.3762 H   0  0  0  0  0  0
  -28.4556  -13.6921   21.8414 H   0  0  0  0  0  0
  -25.2763   -9.5669   22.4757 H   0  0  0  0  0  0
  -24.0001   -7.4627   22.7467 H   0  0  0  0  0  0
  -21.0858   -8.8795   19.8954 H   0  0  0  0  0  0
  -22.3725  -10.9678   19.6155 H   0  0  0  0  0  0
  -21.2001   -7.6119   23.9704 H   0  0  0  0  0  0
  -21.1458   -6.0508   25.9074 H   0  0  0  0  0  0
  -22.0614   -2.7614   23.2842 H   0  0  0  0  0  0
  -22.4036  -11.9957   22.4883 H   0  0  0  0  0  0
  -21.1053  -13.1303   22.2546 H   0  0  0  0  0  0
  -24.6151  -15.8088   20.4134 H   0  0  0  0  0  0
  -26.2102  -15.5864   19.9091 H   0  0  0  0  0  0
  -26.7105  -32.5509   23.1122 H   0  0  0  0  0  0
  -25.0026  -33.9737   25.0441 H   0  0  0  0  0  0
  -22.7004  -31.2989   21.3995 H   0  0  0  0  0  0
  -23.3735  -35.9658   23.3278 H   0  0  0  0  0  0
  -24.3588  -36.8941   22.2065 H   0  0  0  0  0  0
  -23.7246  -37.6499   23.6676 H   0  0  0  0  0  0
  -26.0439  -31.5777   20.5779 H   0  0  0  0  0  0
  -26.8282  -30.8864   21.9715 H   0  0  0  0  0  0
  -28.1124  -29.0799   21.1518 H   0  0  0  0  0  0
  -26.0532  -25.9236   19.0488 H   0  0  0  0  0  0
  -23.9922  -27.2679   19.0478 H   0  0  0  0  0  0
  -23.7270  -30.5724   19.3951 H   0  0  0  0  0  0
  -22.7455  -29.2187   19.8767 H   0  0  0  0  0  0
  -25.1260  -36.1949   25.0840 H   0  0  0  0  0  0
  -20.9969  -28.3251   24.1454 H   0  0  0  0  0  0
  -20.5643  -26.2275   23.3628 H   0  0  0  0  0  0
  -21.6623  -26.7446   22.1252 H   0  0  0  0  0  0
  -19.6861  -25.6323   21.1265 H   0  0  0  0  0  0
  -19.6679  -27.3222   20.6749 H   0  0  0  0  0  0
  -17.4192  -26.6776   21.3999 H   0  0  0  0  0  0
  -18.0232  -26.0100   22.8997 H   0  0  0  0  0  0
  -19.7916  -30.7324   24.2253 H   0  0  0  0  0  0
  -17.4998  -31.6280   24.5197 H   0  0  0  0  0  0
  -15.5328  -30.3011   23.7673 H   0  0  0  0  0  0
  -15.8669  -28.0884   22.7015 H   0  0  0  0  0  0
  -24.5878  -30.7081   25.7818 H   0  0  0  0  0  0
  -24.8948  -32.2882   26.4922 H   0  0  0  0  0  0
  -25.8074  -30.8880   27.0221 H   0  0  0  0  0  0
  -26.2865  -29.6725   24.1198 H   0  0  0  0  0  0
  -27.4142  -29.7302   25.4563 H   0  0  0  0  0  0
  -27.8675  -30.4336   23.9208 H   0  0  0  0  0  0
  -27.2773  -33.3599   26.2026 H   0  0  0  0  0  0
  -28.3878  -32.6777   25.0223 H   0  0  0  0  0  0
  -28.0768  -31.8371   26.5317 H   0  0  0  0  0  0
  -28.2593  -38.0100   24.7505 H   0  0  0  0  0  0
  -28.1074  -36.2618   24.6237 H   0  0  0  0  0  0
  -27.2319  -37.1425   25.8866 H   0  0  0  0  0  0
  -20.9293  -29.8793   21.6991 H   0  0  0  0  0  0
  -26.0144  -38.2852   24.1420 H   0  0  0  0  0  0
  -32.2592  -19.6153   20.1804 H   0  0  0  0  0  0
  -32.1374  -17.1735   20.2668 H   0  0  0  0  0  0
  -28.0971  -19.8904   21.2143 H   0  0  0  0  0  0
  -30.7525  -21.7221   18.6245 H   0  0  0  0  0  0
  -29.0900  -22.0761   19.0269 H   0  0  0  0  0  0
  -28.3461  -22.1568   21.4203 H   0  0  0  0  0  0
  -29.4611  -21.7752   22.7062 H   0  0  0  0  0  0
  -30.3390  -24.1732   18.4520 H   0  0  0  0  0  0
  -31.5764  -23.7365   19.5713 H   0  0  0  0  0  0
  -30.7269  -23.7796   22.3691 H   0  0  0  0  0  0
  -29.0765  -24.2274   22.5842 H   0  0  0  0  0  0
  -31.3413  -21.7078   21.0574 H   0  0  0  0  0  0
  -27.1035  -17.8825   22.2736 H   0  0  0  0  0  0
  -27.5574  -16.2790   21.7246 H   0  0  0  0  0  0
  -26.8610  -17.4516   20.5862 H   0  0  0  0  0  0
  -31.7908  -25.4149   21.1726 H   0  0  0  0  0  0
  -30.4311  -26.4234   21.6118 H   0  0  0  0  0  0
  -30.9862  -26.3619   19.9389 H   0  0  0  0  0  0
  -27.6553  -24.8605   20.7977 H   0  0  0  0  0  0
  -28.1600  -24.8652   19.1328 H   0  0  0  0  0  0
  -28.9789  -15.3139   21.2333 H   0  0  0  0  0  0
  1 25  1  0  0  0
  1 30  2  0  0  0
  1 86  1  0  0  0
  2  3  1  0  0  0
  2 25  1  0  0  0
  2 87  1  0  0  0
  2 88  1  0  0  0
  3  4  1  0  0  0
  3 89  1  0  0  0
  3 90  1  0  0  0
  4  5  1  0  0  0
  4 91  1  0  0  0
  4 92  1  0  0  0
  5  6  1  0  0  0
  5 26  1  0  0  0
  5 93  1  0  0  0
  6 25  1  0  0  0
  6 94  1  0  0  0
  6 95  1  0  0  0
  7  8  2  0  0  0
  7 26  1  0  0  0
  7 29  1  0  0  0
  8  9  1  0  0  0
  8 22  1  0  0  0
  9 10  1  0  0  0
  9 27  2  0  0  0
 10 11  2  0  0  0
 10 15  1  0  0  0
 11 12  1  0  0  0
 11 96  1  0  0  0
 12 13  2  0  0  0
 12 97  1  0  0  0
 13 14  1  0  0  0
 13 31  1  0  0  0
 14 15  2  0  0  0
 14 98  1  0  0  0
 15 99  1  0  0  0
 16 17  2  0  0  0
 16 21  1  0  0  0
 16 31  1  0  0  0
 17 18  1  0  0  0
 17100  1  0  0  0
 18 19  2  0  0  0
 18101  1  0  0  0
 19 20  1  0  0  0
 19 24  1  0  0  0
 20 21  2  0  0  0
 20102  1  0  0  0
 21 23  1  0  0  0
 22 28  1  0  0  0
 22 32  2  0  0  0
 26 27  1  0  0  0
 28103  1  0  0  0
 28104  1  0  0  0
 29105  1  0  0  0
 29106  1  0  0  0
 33 34  1  0  0  0
 33 66  1  0  0  0
 33 70  2  0  0  0
 34 36  1  0  0  0
 34 59  1  0  0  0
 34107  1  0  0  0
 35 44  2  0  0  0
 35 45  1  0  0  0
 35 68  1  0  0  0
 36 56  1  0  0  0
 36108  1  0  0  0
 37 39  1  0  0  0
 37 47  1  0  0  0
 37 66  1  0  0  0
 37109  1  0  0  0
 38 43  2  0  0  0
 38 46  1  0  0  0
 38 47  1  0  0  0
 39 64  1  0  0  0
 39 67  2  0  0  0
 40 52  1  0  0  0
 40 53  2  0  0  0
 40 58  1  0  0  0
 41110  1  0  0  0
 41111  1  0  0  0
 41112  1  0  0  0
 41 48  1  0  0  0
 42 43  1  0  0  0
 42 66  1  0  0  0
 42113  1  0  0  0
 42114  1  0  0  0
 43 44  1  0  0  0
 44115  1  0  0  0
 45 46  2  0  0  0
 45116  1  0  0  0
 46117  1  0  0  0
 47118  1  0  0  0
 47119  1  0  0  0
 48 56  1  0  0  0
 48 65  1  0  0  0
 48120  1  0  0  0
 49 50  1  0  0  0
 49 53  1  0  0  0
 49 64  1  0  0  0
 49121  1  0  0  0
 50 51  1  0  0  0
 50122  1  0  0  0
 50123  1  0  0  0
 51 52  1  0  0  0
 51124  1  0  0  0
 51125  1  0  0  0
 52126  1  0  0  0
 52127  1  0  0  0
 53 54  1  0  0  0
 54 55  2  0  0  0
 54128  1  0  0  0
 55 57  1  0  0  0
 55129  1  0  0  0
 56 69  2  0  0  0
 57 58  2  0  0  0
 57130  1  0  0  0
 58131  1  0  0  0
 59 60  1  0  0  0
 59 61  1  0  0  0
 59 62  1  0  0  0
 60132  1  0  0  0
 60133  1  0  0  0
 60134  1  0  0  0
 61135  1  0  0  0
 61136  1  0  0  0
 61137  1  0  0  0
 62138  1  0  0  0
 62139  1  0  0  0
 62140  1  0  0  0
 63 65  1  0  0  0
 63141  1  0  0  0
 63142  1  0  0  0
 63143  1  0  0  0
 64144  1  0  0  0
 65145  1  0  0  0
 68 85  1  0  0  0
 71 72  2  0  0  0
 71 74  1  0  0  0
 71146  1  0  0  0
 72 76  1  0  0  0
 72147  1  0  0  0
 73 74  2  0  0  0
 73 75  1  0  0  0
 73148  1  0  0  0
 74 81  1  0  0  0
 75 76  2  0  0  0
 75 83  1  0  0  0
 76 86  1  0  0  0
 77 79  1  0  0  0
 77 81  1  0  0  0
 77149  1  0  0  0
 77150  1  0  0  0
 78 80  1  0  0  0
 78 81  1  0  0  0
 78151  1  0  0  0
 78152  1  0  0  0
 79 82  1  0  0  0
 79153  1  0  0  0
 79154  1  0  0  0
 80 82  1  0  0  0
 80155  1  0  0  0
 80156  1  0  0  0
 81157  1  0  0  0
 82 84  1  0  0  0
 82 85  1  0  0  0
 83158  1  0  0  0
 83159  1  0  0  0
 83160  1  0  0  0
 84161  1  0  0  0
 84162  1  0  0  0
 84163  1  0  0  0
 85164  1  0  0  0
 85165  1  0  0  0
 86166  1  0  0  0
M  ISO  4   1 100  68 101  85 101  86 100
M  END
> <chiral flag>
0

> <version>
0

> <s_m_source_file>
/data/baiqing/PycharmProjects/Reinvent-master-3.2/result/LINK_invent/BTK/process_docking_weight1_custom_product_contain_oxygen_bond_distance_aromatic_linkinvent_7_9_3/rearranged_h_0143.sdf

> <i_m_source_file_index>
4

> <r_mmod_Potential_Energy-OPLS-2005>
51.9353866577148

> <r_mmod_Stretch_Energy-OPLS-2005>
58.0912742614746

> <r_mmod_Bend_Energy-OPLS-2005>
134.060287475586

> <r_mmod_Torsional_Energy-OPLS-2005>
261.819366455078

> <r_mmod_Improper_Torsional_Energy-OPLS-2005>
4.74042701721191

> <r_mmod_Van_der_Waal_Energy-OPLS-2005>
156.87760925293

> <r_mmod_Electrostatic_Energy-OPLS-2005>
-399.968780517578

> <r_mmod_Solvation_Energy-OPLS-2005>
-190.306427001953

> <b_mmod_Minimization_Converged-OPLS-2005>
0

> <r_mmod_RMS_Derivative-OPLS-2005>
3.83423829078674

$$$$
4
                    3D
 Structure written by MMmdl.
162171  0  0  1  0            999 V2000
  -30.6035  -14.5260   20.5079 C   0  0  0  0  0  0
  -30.4512  -12.3376   19.4214 C   0  0  0  0  0  0
  -29.5113  -12.4810   18.2053 C   0  0  0  0  0  0
  -28.0325  -12.3159   18.6304 C   0  0  0  0  0  0
  -27.6442  -13.1717   19.8665 C   0  0  2  0  0  0
  -28.6913  -12.9940   20.9895 C   0  0  0  0  0  0
  -25.2588  -13.8040   20.5834 C   0  0  0  0  0  0
  -24.1726  -13.0491   20.9218 C   0  0  0  0  0  0
  -24.6228  -11.6875   20.8904 C   0  0  0  0  0  0
  -23.8869  -10.4289   21.0737 C   0  0  0  0  0  0
  -24.3483   -9.4128   21.9376 C   0  0  0  0  0  0
  -23.6283   -8.2096   22.0815 C   0  0  0  0  0  0
  -22.4226   -8.0226   21.3619 C   0  0  0  0  0  0
  -21.9772   -9.0222   20.4813 C   0  0  0  0  0  0
  -22.7096  -10.2127   20.3312 C   0  0  0  0  0  0
  -21.6766   -6.0737   22.5256 C   0  0  0  0  0  0
  -21.3961   -6.5693   23.8184 C   0  0  0  0  0  0
  -21.3722   -5.6893   24.9158 C   0  0  0  0  0  0
  -21.6152   -4.3131   24.7221 C   0  0  0  0  0  0
  -21.8843   -3.8220   23.4356 C   0  0  0  0  0  0
  -21.9172   -4.6997   22.3390 C   0  0  0  0  0  0
  -22.7742  -13.5452   21.1657 C   0  0  0  0  0  0
  -22.1674   -4.2216   21.0973 F   0  0  0  0  0  0
  -21.5739   -3.4638   25.7734 F   0  0  0  0  0  0
  -30.0137  -13.3123   20.4177 N   0  0  0  0  0  0
  -26.2857  -12.9084   20.3353 N   0  0  0  0  0  0
  -25.9081  -11.6299   20.5741 N   0  0  0  0  0  0
  -22.0172  -12.8826   22.0253 N   0  0  0  0  0  0
  -25.4829  -15.1677   20.4471 N   0  0  0  0  0  0
  -31.7939  -14.7488   20.2504 O   0  0  0  0  0  0
  -21.6598   -6.8788   21.4209 O   0  0  0  0  0  0
  -22.3576  -14.5567   20.6094 O   0  0  0  0  0  0
  -24.6129  -31.8662   23.2131 C   0  0  0  0  0  0
  -25.9014  -32.4838   23.8441 C   0  0  1  0  0  0
  -27.2724  -27.4264   20.1211 C   0  0  0  0  0  0
  -25.5865  -33.8629   24.2358 N   0  0  0  0  0  0
  -23.4149  -30.4786   21.5401 C   0  0  2  0  0  0
  -24.8827  -28.9527   20.1106 C   0  0  0  0  0  0
  -22.7481  -29.4592   22.4935 C   0  0  0  0  0  0
  -18.0296  -28.1384   22.8495 C   0  0  0  0  0  0
  -24.1480  -36.7277   23.2632 C   0  0  0  0  0  0
  -25.9453  -30.8323   21.3769 C   0  0  0  0  0  0
  -26.0301  -29.4630   20.7283 C   0  0  0  0  0  0
  -27.2150  -28.6907   20.7567 C   0  0  0  0  0  0
  -26.1298  -26.9842   19.4323 C   0  0  0  0  0  0
  -24.9201  -27.7053   19.4644 C   0  0  0  0  0  0
  -23.6375  -29.8004   20.1588 C   0  0  0  0  0  0
  -25.4103  -36.3080   24.0323 C   0  0  1  0  0  0
  -20.5894  -28.3669   23.1301 C   0  0  2  0  0  0
  -20.6767  -26.9377   22.5429 C   0  0  0  0  0  0
  -19.5735  -26.6368   21.5239 C   0  0  0  0  0  0
  -18.1925  -26.7928   22.1652 C   0  0  0  0  0  0
  -19.1549  -28.8847   23.2887 C   0  0  0  0  0  0
  -18.9462  -30.1455   23.8891 C   0  0  0  0  0  0
  -17.6452  -30.6561   24.0578 C   0  0  0  0  0  0
  -25.9019  -34.9462   23.5102 C   0  0  0  0  0  0
  -16.5345  -29.9068   23.6322 C   0  0  0  0  0  0
  -16.7288  -28.6502   23.0332 C   0  0  0  0  0  0
  -26.4452  -31.6622   25.0759 C   0  0  0  0  0  0
  -25.3708  -31.3761   26.1508 C   0  0  0  0  0  0
  -27.0290  -30.3068   24.6128 C   0  0  0  0  0  0
  -27.6007  -32.4346   25.7508 C   0  0  0  0  0  0
  -27.5565  -37.1798   24.8455 C   0  0  0  0  0  0
  -21.4205  -29.3011   22.3698 N   0  0  0  0  0  0
  -26.4280  -37.3769   23.9395 N   0  0  0  0  0  0
  -24.6738  -31.0765   22.0998 N   0  0  0  0  0  0
  -23.4257  -28.8113   23.2969 O   0  0  0  0  0  0
  -28.4371  -26.6830   20.2431 O   0  0  0  0  0  0
  -26.5551  -34.8894   22.4661 O   0  0  0  0  0  0
  -23.5306  -32.1367   23.7510 O   0  0  0  0  0  0
  -28.8164  -19.1338   22.3975 C   0  0  0  0  0  0
  -29.4308  -17.9510   20.3717 C   0  0  0  0  0  0
  -29.4453  -16.7627   22.5018 C   0  0  0  0  0  0
  -29.0244  -19.1743   20.9865 C   0  0  0  0  0  0
  -29.0349  -17.9450   23.1413 C   0  0  0  0  0  0
  -29.6180  -16.7544   21.1056 C   0  0  0  0  0  0
  -28.6492  -22.7711   19.6518 C   0  0  0  0  0  0
  -28.7164  -20.3790   20.0843 C   0  0  0  0  0  0
  -28.4989  -23.7264   21.7946 C   0  0  0  0  0  0
  -28.6476  -22.1950   21.8703 C   0  0  0  0  0  0
  -28.0892  -24.0324   20.3408 C   0  0  2  0  0  0
  -26.5634  -23.8773   20.1357 C   0  0  0  0  0  0
  -28.6565  -25.3668   19.6690 C   0  0  0  0  0  0
  -28.7516  -21.6947   20.4894 N   0  0  0  0  0  0
  -28.7937  -17.9121   24.5142 N   0  0  0  0  0  0
  -29.7005  -15.5233   20.4102 N   0  0  0  0  0  0
  -28.9058  -22.8055   18.4458 O   0  0  0  0  0  0
  -28.4641  -20.0787   18.9069 O   0  0  0  0  0  0
  -31.4821  -12.5115   19.1072 H   0  0  0  0  0  0
  -30.4136  -11.3302   19.8356 H   0  0  0  0  0  0
  -29.7653  -11.7326   17.4578 H   0  0  0  0  0  0
  -29.6774  -13.4435   17.7175 H   0  0  0  0  0  0
  -27.8787  -11.2626   18.8743 H   0  0  0  0  0  0
  -27.3657  -12.5458   17.8027 H   0  0  0  0  0  0
  -27.6626  -14.1994   19.5173 H   0  0  0  0  0  0
  -28.6786  -11.9719   21.3694 H   0  0  0  0  0  0
  -28.4452  -13.6346   21.8387 H   0  0  0  0  0  0
  -25.2636   -9.5642   22.4971 H   0  0  0  0  0  0
  -24.0120   -7.4377   22.7391 H   0  0  0  0  0  0
  -21.0784   -8.8780   19.8999 H   0  0  0  0  0  0
  -22.3709  -10.9780   19.6485 H   0  0  0  0  0  0
  -21.1972   -7.6240   23.9630 H   0  0  0  0  0  0
  -21.1537   -6.0743   25.9099 H   0  0  0  0  0  0
  -22.0592   -2.7694   23.2870 H   0  0  0  0  0  0
  -22.3652  -12.0938   22.5416 H   0  0  0  0  0  0
  -21.0562  -13.1658   22.1523 H   0  0  0  0  0  0
  -24.7971  -15.8909   20.6092 H   0  0  0  0  0  0
  -26.4088  -15.5303   20.2753 H   0  0  0  0  0  0
  -26.7094  -32.5691   23.1227 H   0  0  0  0  0  0
  -25.0069  -33.9833   25.0538 H   0  0  0  0  0  0
  -22.6957  -31.2817   21.3753 H   0  0  0  0  0  0
  -23.3730  -35.9624   23.3335 H   0  0  0  0  0  0
  -24.3547  -36.8858   22.2031 H   0  0  0  0  0  0
  -23.7259  -37.6491   23.6651 H   0  0  0  0  0  0
  -26.0537  -31.5983   20.6068 H   0  0  0  0  0  0
  -26.8344  -30.9041   21.9935 H   0  0  0  0  0  0
  -28.0891  -29.0455   21.2859 H   0  0  0  0  0  0
  -26.1942  -26.0633   18.8871 H   0  0  0  0  0  0
  -24.0327  -27.3155   18.9831 H   0  0  0  0  0  0
  -23.7685  -30.5604   19.3870 H   0  0  0  0  0  0
  -22.7800  -29.1833   19.8771 H   0  0  0  0  0  0
  -25.1304  -36.1880   25.0814 H   0  0  0  0  0  0
  -21.0013  -28.3251   24.1412 H   0  0  0  0  0  0
  -20.5692  -26.2254   23.3636 H   0  0  0  0  0  0
  -21.6620  -26.7382   22.1188 H   0  0  0  0  0  0
  -19.6858  -25.6291   21.1230 H   0  0  0  0  0  0
  -19.6675  -27.3221   20.6818 H   0  0  0  0  0  0
  -17.4195  -26.6723   21.4047 H   0  0  0  0  0  0
  -18.0262  -26.0081   22.9052 H   0  0  0  0  0  0
  -19.7927  -30.7288   24.2249 H   0  0  0  0  0  0
  -17.4994  -31.6245   24.5174 H   0  0  0  0  0  0
  -15.5343  -30.2957   23.7631 H   0  0  0  0  0  0
  -15.8714  -28.0828   22.7006 H   0  0  0  0  0  0
  -24.5883  -30.7062   25.7921 H   0  0  0  0  0  0
  -24.8883  -32.2933   26.4903 H   0  0  0  0  0  0
  -25.8096  -30.9016   27.0284 H   0  0  0  0  0  0
  -26.2876  -29.6821   24.1125 H   0  0  0  0  0  0
  -27.4004  -29.7292   25.4597 H   0  0  0  0  0  0
  -27.8718  -30.4396   23.9334 H   0  0  0  0  0  0
  -27.2608  -33.3635   26.2086 H   0  0  0  0  0  0
  -28.3830  -32.6907   25.0357 H   0  0  0  0  0  0
  -28.0626  -31.8443   26.5421 H   0  0  0  0  0  0
  -28.2570  -38.0106   24.7489 H   0  0  0  0  0  0
  -28.1069  -36.2619   24.6308 H   0  0  0  0  0  0
  -27.2268  -37.1469   25.8858 H   0  0  0  0  0  0
  -20.9394  -29.8772   21.6916 H   0  0  0  0  0  0
  -26.0129  -38.2816   24.1452 H   0  0  0  0  0  0
  -28.4379  -19.9772   22.9400 H   0  0  0  0  0  0
  -29.5715  -17.8959   19.2971 H   0  0  0  0  0  0
  -29.5174  -15.8456   23.0738 H   0  0  0  0  0  0
  -29.4336  -24.2142   22.0630 H   0  0  0  0  0  0
  -27.7524  -24.0331   22.5322 H   0  0  0  0  0  0
  -27.7290  -21.8194   22.3179 H   0  0  0  0  0  0
  -29.4878  -21.8861   22.5012 H   0  0  0  0  0  0
  -26.2040  -22.9223   20.5202 H   0  0  0  0  0  0
  -26.3247  -23.8755   19.0655 H   0  0  0  0  0  0
  -25.9885  -24.6557   20.6375 H   0  0  0  0  0  0
  -28.3936  -25.3944   18.6078 H   0  0  0  0  0  0
  -29.7525  -25.3091   19.6847 H   0  0  0  0  0  0
  -28.6126  -17.0193   24.9774 H   0  0  0  0  0  0
  -28.4465  -18.7178   25.0200 H   0  0  0  0  0  0
  -28.8372  -15.2625   19.9539 H   0  0  0  0  0  0
  1 25  1  0  0  0
  1 30  2  0  0  0
  1 86  1  0  0  0
  2  3  1  0  0  0
  2 25  1  0  0  0
  2 89  1  0  0  0
  2 90  1  0  0  0
  3  4  1  0  0  0
  3 91  1  0  0  0
  3 92  1  0  0  0
  4  5  1  0  0  0
  4 93  1  0  0  0
  4 94  1  0  0  0
  5  6  1  0  0  0
  5 26  1  0  0  0
  5 95  1  0  0  0
  6 25  1  0  0  0
  6 96  1  0  0  0
  6 97  1  0  0  0
  7  8  2  0  0  0
  7 26  1  0  0  0
  7 29  1  0  0  0
  8  9  1  0  0  0
  8 22  1  0  0  0
  9 10  1  0  0  0
  9 27  2  0  0  0
 10 11  2  0  0  0
 10 15  1  0  0  0
 11 12  1  0  0  0
 11 98  1  0  0  0
 12 13  2  0  0  0
 12 99  1  0  0  0
 13 14  1  0  0  0
 13 31  1  0  0  0
 14 15  2  0  0  0
 14100  1  0  0  0
 15101  1  0  0  0
 16 17  2  0  0  0
 16 21  1  0  0  0
 16 31  1  0  0  0
 17 18  1  0  0  0
 17102  1  0  0  0
 18 19  2  0  0  0
 18103  1  0  0  0
 19 20  1  0  0  0
 19 24  1  0  0  0
 20 21  2  0  0  0
 20104  1  0  0  0
 21 23  1  0  0  0
 22 28  1  0  0  0
 22 32  2  0  0  0
 26 27  1  0  0  0
 28105  1  0  0  0
 28106  1  0  0  0
 29107  1  0  0  0
 29108  1  0  0  0
 33 34  1  0  0  0
 33 66  1  0  0  0
 33 70  2  0  0  0
 34 36  1  0  0  0
 34 59  1  0  0  0
 34109  1  0  0  0
 35 44  2  0  0  0
 35 45  1  0  0  0
 35 68  1  0  0  0
 36 56  1  0  0  0
 36110  1  0  0  0
 37 39  1  0  0  0
 37 47  1  0  0  0
 37 66  1  0  0  0
 37111  1  0  0  0
 38 43  2  0  0  0
 38 46  1  0  0  0
 38 47  1  0  0  0
 39 64  1  0  0  0
 39 67  2  0  0  0
 40 52  1  0  0  0
 40 53  2  0  0  0
 40 58  1  0  0  0
 41112  1  0  0  0
 41113  1  0  0  0
 41114  1  0  0  0
 41 48  1  0  0  0
 42 43  1  0  0  0
 42 66  1  0  0  0
 42115  1  0  0  0
 42116  1  0  0  0
 43 44  1  0  0  0
 44117  1  0  0  0
 45 46  2  0  0  0
 45118  1  0  0  0
 46119  1  0  0  0
 47120  1  0  0  0
 47121  1  0  0  0
 48 56  1  0  0  0
 48 65  1  0  0  0
 48122  1  0  0  0
 49 50  1  0  0  0
 49 53  1  0  0  0
 49 64  1  0  0  0
 49123  1  0  0  0
 50 51  1  0  0  0
 50124  1  0  0  0
 50125  1  0  0  0
 51 52  1  0  0  0
 51126  1  0  0  0
 51127  1  0  0  0
 52128  1  0  0  0
 52129  1  0  0  0
 53 54  1  0  0  0
 54 55  2  0  0  0
 54130  1  0  0  0
 55 57  1  0  0  0
 55131  1  0  0  0
 56 69  2  0  0  0
 57 58  2  0  0  0
 57132  1  0  0  0
 58133  1  0  0  0
 59 60  1  0  0  0
 59 61  1  0  0  0
 59 62  1  0  0  0
 60134  1  0  0  0
 60135  1  0  0  0
 60136  1  0  0  0
 61137  1  0  0  0
 61138  1  0  0  0
 61139  1  0  0  0
 62140  1  0  0  0
 62141  1  0  0  0
 62142  1  0  0  0
 63 65  1  0  0  0
 63143  1  0  0  0
 63144  1  0  0  0
 63145  1  0  0  0
 64146  1  0  0  0
 65147  1  0  0  0
 68 83  1  0  0  0
 71 74  2  0  0  0
 71 75  1  0  0  0
 71148  1  0  0  0
 72 74  1  0  0  0
 72 76  2  0  0  0
 72149  1  0  0  0
 73 75  2  0  0  0
 73 76  1  0  0  0
 73150  1  0  0  0
 74 78  1  0  0  0
 75 85  1  0  0  0
 76 86  1  0  0  0
 77 81  1  0  0  0
 77 84  1  0  0  0
 77 87  2  0  0  0
 78 84  1  0  0  0
 78 88  2  0  0  0
 79 80  1  0  0  0
 79 81  1  0  0  0
 79151  1  0  0  0
 79152  1  0  0  0
 80 84  1  0  0  0
 80153  1  0  0  0
 80154  1  0  0  0
 81 82  1  0  0  0
 81 83  1  0  0  0
 82155  1  0  0  0
 82156  1  0  0  0
 82157  1  0  0  0
 83158  1  0  0  0
 83159  1  0  0  0
 85160  1  0  0  0
 85161  1  0  0  0
 86162  1  0  0  0
M  ISO  4   1 100  68 101  83 101  86 100
M  END
> <chiral flag>
0

> <version>
0

> <s_m_source_file>
/data/baiqing/PycharmProjects/Reinvent-master-3.2/result/LINK_invent/BTK/process_docking_weight1_custom_product_contain_oxygen_bond_distance_aromatic_linkinvent_7_9_3/rearranged_h_0143.sdf

> <i_m_source_file_index>
5

> <r_mmod_Potential_Energy-OPLS-2005>
161.358413696289

> <r_mmod_Stretch_Energy-OPLS-2005>
56.138973236084

> <r_mmod_Bend_Energy-OPLS-2005>
194.778259277344

> <r_mmod_Torsional_Energy-OPLS-2005>
337.493347167969

> <r_mmod_Improper_Torsional_Energy-OPLS-2005>
19.5641479492188

> <r_mmod_Van_der_Waal_Energy-OPLS-2005>
166.78125

> <r_mmod_Electrostatic_Energy-OPLS-2005>
-400.976531982422

> <r_mmod_Solvation_Energy-OPLS-2005>
-245.703506469727

> <b_mmod_Minimization_Converged-OPLS-2005>
0

> <r_mmod_RMS_Derivative-OPLS-2005>
13.8558044433594

$$$$
5
                    3D
 Structure written by MMmdl.
157166  0  0  1  0            999 V2000
  -30.6481  -14.5537   20.6192 C   0  0  0  0  0  0
  -30.4536  -12.3733   19.4316 C   0  0  0  0  0  0
  -29.5128  -12.5353   18.2181 C   0  0  0  0  0  0
  -28.0336  -12.3648   18.6246 C   0  0  0  0  0  0
  -27.6682  -13.2038   19.8740 C   0  0  2  0  0  0
  -28.7063  -12.9810   20.9964 C   0  0  0  0  0  0
  -25.2640  -13.8160   20.5664 C   0  0  0  0  0  0
  -24.1871  -13.0441   20.9156 C   0  0  0  0  0  0
  -24.6397  -11.6893   20.8688 C   0  0  0  0  0  0
  -23.9054  -10.4284   21.0362 C   0  0  0  0  0  0
  -24.3595   -9.4206   21.9155 C   0  0  0  0  0  0
  -23.6275   -8.2246   22.0747 C   0  0  0  0  0  0
  -22.4272   -8.0269   21.3526 C   0  0  0  0  0  0
  -21.9898   -9.0249   20.4651 C   0  0  0  0  0  0
  -22.7219  -10.2118   20.3037 C   0  0  0  0  0  0
  -21.6852   -6.0718   22.5258 C   0  0  0  0  0  0
  -21.4019   -6.5610   23.8196 C   0  0  0  0  0  0
  -21.3669   -5.6766   24.9151 C   0  0  0  0  0  0
  -21.6043   -4.3031   24.7216 C   0  0  0  0  0  0
  -21.8826   -3.8129   23.4337 C   0  0  0  0  0  0
  -21.9187   -4.6938   22.3377 C   0  0  0  0  0  0
  -22.7878  -13.5246   21.1780 C   0  0  0  0  0  0
  -22.1659   -4.2116   21.0966 F   0  0  0  0  0  0
  -21.5627   -3.4515   25.7736 F   0  0  0  0  0  0
  -30.0401  -13.3363   20.4668 N   0  0  0  0  0  0
  -26.3067  -12.9314   20.3332 N   0  0  0  0  0  0
  -25.9336  -11.6466   20.5727 N   0  0  0  0  0  0
  -22.0483  -12.8284   22.0344 N   0  0  0  0  0  0
  -25.4377  -15.1888   20.4075 N   0  0  0  0  0  0
  -31.7183  -14.8382   20.0720 O   0  0  0  0  0  0
  -21.6626   -6.8876   21.4245 O   0  0  0  0  0  0
  -22.3548  -14.5513   20.6568 O   0  0  0  0  0  0
  -24.6168  -31.8634   23.2055 C   0  0  0  0  0  0
  -25.9034  -32.4801   23.8358 C   0  0  1  0  0  0
  -27.2395  -27.3791   20.0897 C   0  0  0  0  0  0
  -25.5869  -33.8598   24.2285 N   0  0  0  0  0  0
  -23.4076  -30.4854   21.5481 C   0  0  2  0  0  0
  -24.8555  -28.9438   20.1122 C   0  0  0  0  0  0
  -22.7415  -29.4626   22.4977 C   0  0  0  0  0  0
  -18.0259  -28.1366   22.8496 C   0  0  0  0  0  0
  -24.1487  -36.7303   23.2642 C   0  0  0  0  0  0
  -25.9415  -30.8110   21.3678 C   0  0  0  0  0  0
  -26.0179  -29.4421   20.7094 C   0  0  0  0  0  0
  -27.2075  -28.6672   20.6942 C   0  0  0  0  0  0
  -26.0460  -26.9037   19.4993 C   0  0  0  0  0  0
  -24.8671  -27.6763   19.5058 C   0  0  0  0  0  0
  -23.6182  -29.8154   20.1635 C   0  0  0  0  0  0
  -25.4109  -36.3100   24.0335 C   0  0  1  0  0  0
  -20.5859  -28.3656   23.1322 C   0  0  2  0  0  0
  -20.6747  -26.9388   22.5417 C   0  0  0  0  0  0
  -19.5721  -26.6375   21.5220 C   0  0  0  0  0  0
  -18.1909  -26.7904   22.1642 C   0  0  0  0  0  0
  -19.1513  -28.8823   23.2902 C   0  0  0  0  0  0
  -18.9447  -30.1432   23.8911 C   0  0  0  0  0  0
  -17.6455  -30.6587   24.0559 C   0  0  0  0  0  0
  -25.9040  -34.9469   23.5118 C   0  0  0  0  0  0
  -16.5339  -29.9095   23.6319 C   0  0  0  0  0  0
  -16.7252  -28.6498   23.0357 C   0  0  0  0  0  0
  -26.4446  -31.6599   25.0707 C   0  0  0  0  0  0
  -25.3697  -31.3736   26.1456 C   0  0  0  0  0  0
  -27.0254  -30.3019   24.6116 C   0  0  0  0  0  0
  -27.6010  -32.4337   25.7464 C   0  0  0  0  0  0
  -27.5582  -37.1801   24.8458 C   0  0  0  0  0  0
  -21.4141  -29.3020   22.3723 N   0  0  0  0  0  0
  -26.4291  -37.3795   23.9412 N   0  0  0  0  0  0
  -24.6735  -31.0689   22.0980 N   0  0  0  0  0  0
  -23.4181  -28.8165   23.3032 O   0  0  0  0  0  0
  -28.4235  -26.6417   20.1259 O   0  0  0  0  0  0
  -26.5623  -34.8934   22.4694 O   0  0  0  0  0  0
  -23.5352  -32.1393   23.7437 O   0  0  0  0  0  0
  -29.4203  -18.5723   23.2867 C   0  0  0  0  0  0
  -29.5006  -19.5720   22.3004 C   0  0  0  0  0  0
  -29.6402  -17.2259   22.9517 C   0  0  0  0  0  0
  -30.0377  -17.8591   20.6286 C   0  0  0  0  0  0
  -29.8007  -19.2395   20.9629 C   0  0  0  0  0  0
  -29.9506  -16.8360   21.6298 C   0  0  0  0  0  0
  -29.8546  -20.3503   19.9648 C   0  0  0  0  0  0
  -28.3990  -21.9594   18.7859 C   0  0  0  0  0  0
  -29.3157  -22.8565   19.5192 C   0  0  1  0  0  0
  -28.7385  -24.0786   20.2893 C   0  0  0  0  0  0
  -28.5984  -25.3794   19.4152 C   0  0  0  0  0  0
  -29.0391  -21.4597   20.0330 N   0  0  0  0  0  0
  -29.9639  -15.4083   21.4154 N   0  0  0  0  0  0
  -30.7474  -20.2610   18.9762 N   0  3  0  0  0  0
  -31.4918  -12.5203   19.1300 H   0  0  0  0  0  0
  -30.4006  -11.3563   19.8229 H   0  0  0  0  0  0
  -29.7703  -11.8125   17.4439 H   0  0  0  0  0  0
  -29.6572  -13.5223   17.7760 H   0  0  0  0  0  0
  -27.8630  -11.3084   18.8309 H   0  0  0  0  0  0
  -27.3796  -12.6247   17.7919 H   0  0  0  0  0  0
  -27.7117  -14.2501   19.5706 H   0  0  0  0  0  0
  -28.7053  -11.9400   21.3211 H   0  0  0  0  0  0
  -28.4281  -13.5441   21.8873 H   0  0  0  0  0  0
  -25.2743   -9.5678   22.4719 H   0  0  0  0  0  0
  -23.9953   -7.4656   22.7480 H   0  0  0  0  0  0
  -21.0806   -8.8794   19.8988 H   0  0  0  0  0  0
  -22.3683  -10.9650   19.6138 H   0  0  0  0  0  0
  -21.2037   -7.6126   23.9697 H   0  0  0  0  0  0
  -21.1473   -6.0482   25.9046 H   0  0  0  0  0  0
  -22.0608   -2.7591   23.2826 H   0  0  0  0  0  0
  -22.4046  -11.9986   22.4852 H   0  0  0  0  0  0
  -21.1110  -13.1383   22.2497 H   0  0  0  0  0  0
  -24.6727  -15.8486   20.5079 H   0  0  0  0  0  0
  -26.2960  -15.6237   20.0939 H   0  0  0  0  0  0
  -26.7081  -32.5499   23.1102 H   0  0  0  0  0  0
  -24.9955  -33.9743   25.0383 H   0  0  0  0  0  0
  -22.6963  -31.3022   21.4095 H   0  0  0  0  0  0
  -23.3759  -35.9626   23.3295 H   0  0  0  0  0  0
  -24.3580  -36.8927   22.2055 H   0  0  0  0  0  0
  -23.7228  -37.6499   23.6667 H   0  0  0  0  0  0
  -26.0636  -31.5811   20.6045 H   0  0  0  0  0  0
  -26.8235  -30.8590   21.9932 H   0  0  0  0  0  0
  -28.1033  -29.0529   21.1594 H   0  0  0  0  0  0
  -25.9836  -25.9272   19.0436 H   0  0  0  0  0  0
  -23.9680  -27.2852   19.0503 H   0  0  0  0  0  0
  -23.7242  -30.5893   19.4021 H   0  0  0  0  0  0
  -22.7392  -29.2375   19.8717 H   0  0  0  0  0  0
  -25.1295  -36.1954   25.0829 H   0  0  0  0  0  0
  -20.9952  -28.3216   24.1445 H   0  0  0  0  0  0
  -20.5668  -26.2255   23.3597 H   0  0  0  0  0  0
  -21.6619  -26.7432   22.1208 H   0  0  0  0  0  0
  -19.6884  -25.6297   21.1220 H   0  0  0  0  0  0
  -19.6653  -27.3208   20.6764 H   0  0  0  0  0  0
  -17.4169  -26.6641   21.4047 H   0  0  0  0  0  0
  -18.0317  -26.0050   22.9042 H   0  0  0  0  0  0
  -19.7935  -30.7229   24.2299 H   0  0  0  0  0  0
  -17.5024  -31.6277   24.5145 H   0  0  0  0  0  0
  -15.5348  -30.3017   23.7629 H   0  0  0  0  0  0
  -15.8641  -28.0830   22.7079 H   0  0  0  0  0  0
  -24.5877  -30.7064   25.7808 H   0  0  0  0  0  0
  -24.8873  -32.2899   26.4869 H   0  0  0  0  0  0
  -25.8049  -30.8938   27.0230 H   0  0  0  0  0  0
  -26.2785  -29.6817   24.1142 H   0  0  0  0  0  0
  -27.3939  -29.7243   25.4602 H   0  0  0  0  0  0
  -27.8674  -30.4297   23.9308 H   0  0  0  0  0  0
  -27.2607  -33.3643   26.2028 H   0  0  0  0  0  0
  -28.3819  -32.6897   25.0288 H   0  0  0  0  0  0
  -28.0670  -31.8465   26.5388 H   0  0  0  0  0  0
  -28.2603  -38.0100   24.7533 H   0  0  0  0  0  0
  -28.1076  -36.2631   24.6264 H   0  0  0  0  0  0
  -27.2297  -37.1434   25.8860 H   0  0  0  0  0  0
  -20.9293  -29.8742   21.6950 H   0  0  0  0  0  0
  -26.0175  -38.2868   24.1440 H   0  0  0  0  0  0
  -29.1646  -18.8368   24.3040 H   0  0  0  0  0  0
  -29.3233  -20.6027   22.5813 H   0  0  0  0  0  0
  -29.5380  -16.4816   23.7298 H   0  0  0  0  0  0
  -30.2261  -17.5866   19.5992 H   0  0  0  0  0  0
  -28.7405  -21.4657   17.8767 H   0  0  0  0  0  0
  -27.3254  -22.0734   18.9132 H   0  0  0  0  0  0
  -30.3378  -22.9588   19.1611 H   0  0  0  0  0  0
  -29.4249  -24.2931   21.1090 H   0  0  0  0  0  0
  -27.7865  -23.8161   20.7511 H   0  0  0  0  0  0
  -27.8787  -25.2226   18.6156 H   0  0  0  0  0  0
  -29.5420  -25.5043   18.8830 H   0  0  0  0  0  0
  -29.2772  -14.9122   21.9629 H   0  0  0  0  0  0
  -31.4152  -19.5082   18.9783 H   0  0  0  0  0  0
  -30.8452  -20.9993   18.3017 H   0  0  0  0  0  0
  1 25  1  0  0  0
  1 30  2  0  0  0
  1 83  1  0  0  0
  2  3  1  0  0  0
  2 25  1  0  0  0
  2 85  1  0  0  0
  2 86  1  0  0  0
  3  4  1  0  0  0
  3 87  1  0  0  0
  3 88  1  0  0  0
  4  5  1  0  0  0
  4 89  1  0  0  0
  4 90  1  0  0  0
  5  6  1  0  0  0
  5 26  1  0  0  0
  5 91  1  0  0  0
  6 25  1  0  0  0
  6 92  1  0  0  0
  6 93  1  0  0  0
  7  8  2  0  0  0
  7 26  1  0  0  0
  7 29  1  0  0  0
  8  9  1  0  0  0
  8 22  1  0  0  0
  9 10  1  0  0  0
  9 27  2  0  0  0
 10 11  2  0  0  0
 10 15  1  0  0  0
 11 12  1  0  0  0
 11 94  1  0  0  0
 12 13  2  0  0  0
 12 95  1  0  0  0
 13 14  1  0  0  0
 13 31  1  0  0  0
 14 15  2  0  0  0
 14 96  1  0  0  0
 15 97  1  0  0  0
 16 17  2  0  0  0
 16 21  1  0  0  0
 16 31  1  0  0  0
 17 18  1  0  0  0
 17 98  1  0  0  0
 18 19  2  0  0  0
 18 99  1  0  0  0
 19 20  1  0  0  0
 19 24  1  0  0  0
 20 21  2  0  0  0
 20100  1  0  0  0
 21 23  1  0  0  0
 22 28  1  0  0  0
 22 32  2  0  0  0
 26 27  1  0  0  0
 28101  1  0  0  0
 28102  1  0  0  0
 29103  1  0  0  0
 29104  1  0  0  0
 33 34  1  0  0  0
 33 66  1  0  0  0
 33 70  2  0  0  0
 34 36  1  0  0  0
 34 59  1  0  0  0
 34105  1  0  0  0
 35 44  2  0  0  0
 35 45  1  0  0  0
 35 68  1  0  0  0
 36 56  1  0  0  0
 36106  1  0  0  0
 37 39  1  0  0  0
 37 47  1  0  0  0
 37 66  1  0  0  0
 37107  1  0  0  0
 38 43  2  0  0  0
 38 46  1  0  0  0
 38 47  1  0  0  0
 39 64  1  0  0  0
 39 67  2  0  0  0
 40 52  1  0  0  0
 40 53  2  0  0  0
 40 58  1  0  0  0
 41108  1  0  0  0
 41109  1  0  0  0
 41110  1  0  0  0
 41 48  1  0  0  0
 42 43  1  0  0  0
 42 66  1  0  0  0
 42111  1  0  0  0
 42112  1  0  0  0
 43 44  1  0  0  0
 44113  1  0  0  0
 45 46  2  0  0  0
 45114  1  0  0  0
 46115  1  0  0  0
 47116  1  0  0  0
 47117  1  0  0  0
 48 56  1  0  0  0
 48 65  1  0  0  0
 48118  1  0  0  0
 49 50  1  0  0  0
 49 53  1  0  0  0
 49 64  1  0  0  0
 49119  1  0  0  0
 50 51  1  0  0  0
 50120  1  0  0  0
 50121  1  0  0  0
 51 52  1  0  0  0
 51122  1  0  0  0
 51123  1  0  0  0
 52124  1  0  0  0
 52125  1  0  0  0
 53 54  1  0  0  0
 54 55  2  0  0  0
 54126  1  0  0  0
 55 57  1  0  0  0
 55127  1  0  0  0
 56 69  2  0  0  0
 57 58  2  0  0  0
 57128  1  0  0  0
 58129  1  0  0  0
 59 60  1  0  0  0
 59 61  1  0  0  0
 59 62  1  0  0  0
 60130  1  0  0  0
 60131  1  0  0  0
 60132  1  0  0  0
 61133  1  0  0  0
 61134  1  0  0  0
 61135  1  0  0  0
 62136  1  0  0  0
 62137  1  0  0  0
 62138  1  0  0  0
 63 65  1  0  0  0
 63139  1  0  0  0
 63140  1  0  0  0
 63141  1  0  0  0
 64142  1  0  0  0
 65143  1  0  0  0
 68 81  1  0  0  0
 71 72  2  0  0  0
 71 73  1  0  0  0
 71144  1  0  0  0
 72 75  1  0  0  0
 72145  1  0  0  0
 73 76  2  0  0  0
 73146  1  0  0  0
 74 75  2  0  0  0
 74 76  1  0  0  0
 74147  1  0  0  0
 75 77  1  0  0  0
 76 83  1  0  0  0
 77 82  1  0  0  0
 77 84  2  0  0  0
 78 79  1  0  0  0
 78 82  1  0  0  0
 78148  1  0  0  0
 78149  1  0  0  0
 79 80  1  0  0  0
 79 82  1  0  0  0
 79150  1  0  0  0
 80 81  1  0  0  0
 80151  1  0  0  0
 80152  1  0  0  0
 81153  1  0  0  0
 81154  1  0  0  0
 83155  1  0  0  0
 84156  1  0  0  0
 84157  1  0  0  0
M  CHG  1  84   1
M  ISO  4   1 100  68 101  81 101  83 100
M  END
> <chiral flag>
0

> <version>
0

> <s_m_source_file>
/data/baiqing/PycharmProjects/Reinvent-master-3.2/result/LINK_invent/BTK/process_docking_weight1_custom_product_contain_oxygen_bond_distance_aromatic_linkinvent_7_9_3/rearranged_h_0143.sdf

> <i_m_source_file_index>
6

> <r_mmod_Potential_Energy-OPLS-2005>
-87.6564559936523

> <r_mmod_Stretch_Energy-OPLS-2005>
62.7231101989746

> <r_mmod_Bend_Energy-OPLS-2005>
144.274597167969

> <r_mmod_Torsional_Energy-OPLS-2005>
281.368774414062

> <r_mmod_Improper_Torsional_Energy-OPLS-2005>
10.6658315658569

> <r_mmod_Van_der_Waal_Energy-OPLS-2005>
151.331298828125

> <r_mmod_Electrostatic_Energy-OPLS-2005>
-331.352233886719

> <r_mmod_Solvation_Energy-OPLS-2005>
-431.81298828125

> <b_mmod_Minimization_Converged-OPLS-2005>
0

> <r_mmod_RMS_Derivative-OPLS-2005>
3.65003108978271

$$$$
6
                    3D
 Structure written by MMmdl.
169178  0  0  1  0            999 V2000
  -30.7163  -14.5104   20.5594 C   0  0  0  0  0  0
  -30.4153  -12.3260   19.4377 C   0  0  0  0  0  0
  -29.4936  -12.4994   18.2135 C   0  0  0  0  0  0
  -28.0162  -12.3588   18.6261 C   0  0  0  0  0  0
  -27.6567  -13.2155   19.8706 C   0  0  2  0  0  0
  -28.7006  -13.0396   20.9979 C   0  0  0  0  0  0
  -25.2562  -13.8178   20.5687 C   0  0  0  0  0  0
  -24.1826  -13.0442   20.9186 C   0  0  0  0  0  0
  -24.6389  -11.6911   20.8735 C   0  0  0  0  0  0
  -23.9057  -10.4294   21.0399 C   0  0  0  0  0  0
  -24.3609   -9.4212   21.9177 C   0  0  0  0  0  0
  -23.6285   -8.2247   22.0752 C   0  0  0  0  0  0
  -22.4270   -8.0278   21.3541 C   0  0  0  0  0  0
  -21.9903   -9.0251   20.4641 C   0  0  0  0  0  0
  -22.7231  -10.2131   20.3049 C   0  0  0  0  0  0
  -21.6851   -6.0726   22.5273 C   0  0  0  0  0  0
  -21.4015   -6.5632   23.8204 C   0  0  0  0  0  0
  -21.3658   -5.6789   24.9168 C   0  0  0  0  0  0
  -21.6047   -4.3051   24.7223 C   0  0  0  0  0  0
  -21.8821   -3.8140   23.4345 C   0  0  0  0  0  0
  -21.9195   -4.6955   22.3400 C   0  0  0  0  0  0
  -22.7849  -13.5233   21.1847 C   0  0  0  0  0  0
  -22.1663   -4.2141   21.0977 F   0  0  0  0  0  0
  -21.5631   -3.4536   25.7737 F   0  0  0  0  0  0
  -30.0263  -13.3393   20.4359 N   0  0  0  0  0  0
  -26.3001  -12.9362   20.3357 N   0  0  0  0  0  0
  -25.9320  -11.6515   20.5772 N   0  0  0  0  0  0
  -22.0492  -12.8219   22.0399 N   0  0  0  0  0  0
  -25.4275  -15.1896   20.4085 N   0  0  0  0  0  0
  -31.8477  -14.6374   20.0856 O   0  0  0  0  0  0
  -21.6638   -6.8871   21.4235 O   0  0  0  0  0  0
  -22.3538  -14.5542   20.6699 O   0  0  0  0  0  0
  -24.6172  -31.8660   23.2075 C   0  0  0  0  0  0
  -25.9061  -32.4808   23.8378 C   0  0  1  0  0  0
  -27.2262  -27.4048   20.1001 C   0  0  0  0  0  0
  -25.5915  -33.8605   24.2314 N   0  0  0  0  0  0
  -23.4074  -30.4902   21.5482 C   0  0  2  0  0  0
  -24.8550  -28.9546   20.1126 C   0  0  0  0  0  0
  -22.7429  -29.4655   22.4970 C   0  0  0  0  0  0
  -18.0279  -28.1385   22.8496 C   0  0  0  0  0  0
  -24.1483  -36.7297   23.2643 C   0  0  0  0  0  0
  -25.9397  -30.8219   21.3671 C   0  0  0  0  0  0
  -26.0182  -29.4547   20.7131 C   0  0  0  0  0  0
  -27.2106  -28.6868   20.7057 C   0  0  0  0  0  0
  -26.0499  -26.9321   19.4847 C   0  0  0  0  0  0
  -24.8667  -27.6926   19.4947 C   0  0  0  0  0  0
  -23.6179  -29.8245   20.1625 C   0  0  0  0  0  0
  -25.4111  -36.3098   24.0334 C   0  0  1  0  0  0
  -20.5871  -28.3674   23.1307 C   0  0  2  0  0  0
  -20.6772  -26.9410   22.5412 C   0  0  0  0  0  0
  -19.5748  -26.6387   21.5215 C   0  0  0  0  0  0
  -18.1923  -26.7931   22.1625 C   0  0  0  0  0  0
  -19.1531  -28.8847   23.2893 C   0  0  0  0  0  0
  -18.9463  -30.1453   23.8906 C   0  0  0  0  0  0
  -17.6467  -30.6590   24.0571 C   0  0  0  0  0  0
  -25.9046  -34.9466   23.5124 C   0  0  0  0  0  0
  -16.5356  -29.9094   23.6336 C   0  0  0  0  0  0
  -16.7268  -28.6509   23.0356 C   0  0  0  0  0  0
  -26.4479  -31.6595   25.0715 C   0  0  0  0  0  0
  -25.3738  -31.3696   26.1455 C   0  0  0  0  0  0
  -27.0331  -30.3042   24.6106 C   0  0  0  0  0  0
  -27.6038  -32.4329   25.7486 C   0  0  0  0  0  0
  -27.5574  -37.1799   24.8473 C   0  0  0  0  0  0
  -21.4155  -29.3034   22.3708 N   0  0  0  0  0  0
  -26.4293  -37.3785   23.9410 N   0  0  0  0  0  0
  -24.6727  -31.0743   22.0989 N   0  0  0  0  0  0
  -23.4184  -28.8202   23.3030 O   0  0  0  0  0  0
  -28.3461  -26.5932   20.1095 O   0  0  0  0  0  0
  -26.5605  -34.8924   22.4682 O   0  0  0  0  0  0
  -23.5361  -32.1431   23.7455 O   0  0  0  0  0  0
  -32.3084  -18.5539   21.6577 C   0  0  0  0  0  0
  -31.3774  -19.6040   21.7445 C   0  0  0  0  0  0
  -31.8798  -17.2354   21.4225 C   0  0  0  0  0  0
  -29.5754  -18.0152   21.3211 C   0  0  0  0  0  0
  -29.9996  -19.3600   21.5631 C   0  0  0  0  0  0
  -30.5046  -16.9331   21.2504 C   0  0  0  0  0  0
  -29.0266  -20.4582   21.8204 C   0  0  0  0  0  0
  -29.9468  -23.7208   20.1936 C   0  0  0  0  0  0
  -30.0907  -22.1893   20.3272 C   0  0  0  0  0  0
  -28.5081  -24.0361   20.6330 C   0  0  2  0  0  0
  -28.3325  -22.9711   21.7944 C   0  0  0  0  0  0
  -27.5646  -23.7312   19.4420 C   0  0  0  0  0  0
  -26.8262  -22.7104   22.0689 C   0  0  0  0  0  0
  -28.9811  -23.4537   23.1158 C   0  0  0  0  0  0
  -28.3023  -25.5355   21.1006 C   0  0  0  0  0  0
  -29.0862  -21.7483   21.3278 N   0  0  0  0  0  0
  -30.0414  -15.5712   21.0746 N   0  0  0  0  0  0
  -28.0536  -20.1432   22.6688 N   0  3  0  0  0  0
  -31.4615  -12.4049   19.1372 H   0  0  0  0  0  0
  -30.3063  -11.3248   19.8588 H   0  0  0  0  0  0
  -29.7382  -11.7601   17.4494 H   0  0  0  0  0  0
  -29.6595  -13.4774   17.7582 H   0  0  0  0  0  0
  -27.8330  -11.3046   18.8375 H   0  0  0  0  0  0
  -27.3644  -12.6165   17.7904 H   0  0  0  0  0  0
  -27.6877  -14.2571   19.5502 H   0  0  0  0  0  0
  -28.6846  -12.0157   21.3743 H   0  0  0  0  0  0
  -28.4617  -13.6719   21.8537 H   0  0  0  0  0  0
  -25.2750   -9.5690   22.4751 H   0  0  0  0  0  0
  -23.9993   -7.4642   22.7475 H   0  0  0  0  0  0
  -21.0834   -8.8761   19.8948 H   0  0  0  0  0  0
  -22.3680  -10.9665   19.6155 H   0  0  0  0  0  0
  -21.2003   -7.6140   23.9703 H   0  0  0  0  0  0
  -21.1480   -6.0518   25.9070 H   0  0  0  0  0  0
  -22.0602   -2.7603   23.2846 H   0  0  0  0  0  0
  -22.4110  -11.9874   22.4775 H   0  0  0  0  0  0
  -21.1108  -13.1237   22.2607 H   0  0  0  0  0  0
  -24.6569  -15.8416   20.5073 H   0  0  0  0  0  0
  -26.2710  -15.6257   20.0585 H   0  0  0  0  0  0
  -26.7130  -32.5515   23.1135 H   0  0  0  0  0  0
  -25.0056  -33.9755   25.0457 H   0  0  0  0  0  0
  -22.6974  -31.3079   21.4084 H   0  0  0  0  0  0
  -23.3743  -35.9631   23.3324 H   0  0  0  0  0  0
  -24.3576  -36.8901   22.2055 H   0  0  0  0  0  0
  -23.7232  -37.6503   23.6657 H   0  0  0  0  0  0
  -26.0578  -31.5879   20.5992 H   0  0  0  0  0  0
  -26.8244  -30.8727   21.9900 H   0  0  0  0  0  0
  -28.1065  -29.0622   21.1796 H   0  0  0  0  0  0
  -26.0403  -25.9700   18.9968 H   0  0  0  0  0  0
  -23.9745  -27.3033   19.0237 H   0  0  0  0  0  0
  -23.7284  -30.6005   19.4040 H   0  0  0  0  0  0
  -22.7408  -29.2467   19.8661 H   0  0  0  0  0  0
  -25.1281  -36.1957   25.0823 H   0  0  0  0  0  0
  -20.9963  -28.3253   24.1430 H   0  0  0  0  0  0
  -20.5706  -26.2281   23.3600 H   0  0  0  0  0  0
  -21.6637  -26.7470   22.1188 H   0  0  0  0  0  0
  -19.6916  -25.6302   21.1237 H   0  0  0  0  0  0
  -19.6690  -27.3208   20.6752 H   0  0  0  0  0  0
  -17.4195  -26.6692   21.4022 H   0  0  0  0  0  0
  -18.0317  -26.0068   22.9018 H   0  0  0  0  0  0
  -19.7944  -30.7258   24.2283 H   0  0  0  0  0  0
  -17.5029  -31.6276   24.5163 H   0  0  0  0  0  0
  -15.5359  -30.2997   23.7665 H   0  0  0  0  0  0
  -15.8666  -28.0834   22.7069 H   0  0  0  0  0  0
  -24.5912  -30.7053   25.7777 H   0  0  0  0  0  0
  -24.8927  -32.2849   26.4918 H   0  0  0  0  0  0
  -25.8075  -30.8847   27.0210 H   0  0  0  0  0  0
  -26.2884  -29.6773   24.1192 H   0  0  0  0  0  0
  -27.4143  -29.7307   25.4564 H   0  0  0  0  0  0
  -27.8693  -30.4367   23.9235 H   0  0  0  0  0  0
  -27.2654  -33.3631   26.2063 H   0  0  0  0  0  0
  -28.3846  -32.6894   25.0314 H   0  0  0  0  0  0
  -28.0710  -31.8463   26.5408 H   0  0  0  0  0  0
  -28.2590  -38.0095   24.7518 H   0  0  0  0  0  0
  -28.1062  -36.2624   24.6300 H   0  0  0  0  0  0
  -27.2287  -37.1448   25.8874 H   0  0  0  0  0  0
  -20.9330  -29.8744   21.6911 H   0  0  0  0  0  0
  -26.0178  -38.2857   24.1423 H   0  0  0  0  0  0
  -33.3597  -18.7519   21.8128 H   0  0  0  0  0  0
  -31.7343  -20.5864   22.0173 H   0  0  0  0  0  0
  -32.6365  -16.4660   21.4148 H   0  0  0  0  0  0
  -28.5181  -17.8107   21.2210 H   0  0  0  0  0  0
  -30.1447  -24.0566   19.1753 H   0  0  0  0  0  0
  -30.6774  -24.2175   20.8321 H   0  0  0  0  0  0
  -31.1183  -21.9485   20.5882 H   0  0  0  0  0  0
  -29.8768  -21.7041   19.3734 H   0  0  0  0  0  0
  -27.6418  -22.6961   19.1082 H   0  0  0  0  0  0
  -27.7933  -24.3640   18.5845 H   0  0  0  0  0  0
  -26.5194  -23.9024   19.6951 H   0  0  0  0  0  0
  -26.2416  -23.6273   21.9982 H   0  0  0  0  0  0
  -26.6456  -22.3298   23.0737 H   0  0  0  0  0  0
  -26.3955  -22.0060   21.3564 H   0  0  0  0  0  0
  -28.4559  -24.3122   23.5348 H   0  0  0  0  0  0
  -30.0261  -23.7367   22.9917 H   0  0  0  0  0  0
  -28.9543  -22.6777   23.8806 H   0  0  0  0  0  0
  -29.0747  -25.7969   21.8239 H   0  0  0  0  0  0
  -27.3676  -25.5936   21.6618 H   0  0  0  0  0  0
  -29.0792  -15.3879   21.3119 H   0  0  0  0  0  0
  -28.0519  -19.2366   23.1097 H   0  0  0  0  0  0
  -27.3277  -20.8013   22.8901 H   0  0  0  0  0  0
  1 25  1  0  0  0
  1 30  2  0  0  0
  1 87  1  0  0  0
  2  3  1  0  0  0
  2 25  1  0  0  0
  2 89  1  0  0  0
  2 90  1  0  0  0
  3  4  1  0  0  0
  3 91  1  0  0  0
  3 92  1  0  0  0
  4  5  1  0  0  0
  4 93  1  0  0  0
  4 94  1  0  0  0
  5  6  1  0  0  0
  5 26  1  0  0  0
  5 95  1  0  0  0
  6 25  1  0  0  0
  6 96  1  0  0  0
  6 97  1  0  0  0
  7  8  2  0  0  0
  7 26  1  0  0  0
  7 29  1  0  0  0
  8  9  1  0  0  0
  8 22  1  0  0  0
  9 10  1  0  0  0
  9 27  2  0  0  0
 10 11  2  0  0  0
 10 15  1  0  0  0
 11 12  1  0  0  0
 11 98  1  0  0  0
 12 13  2  0  0  0
 12 99  1  0  0  0
 13 14  1  0  0  0
 13 31  1  0  0  0
 14 15  2  0  0  0
 14100  1  0  0  0
 15101  1  0  0  0
 16 17  2  0  0  0
 16 21  1  0  0  0
 16 31  1  0  0  0
 17 18  1  0  0  0
 17102  1  0  0  0
 18 19  2  0  0  0
 18103  1  0  0  0
 19 20  1  0  0  0
 19 24  1  0  0  0
 20 21  2  0  0  0
 20104  1  0  0  0
 21 23  1  0  0  0
 22 28  1  0  0  0
 22 32  2  0  0  0
 26 27  1  0  0  0
 28105  1  0  0  0
 28106  1  0  0  0
 29107  1  0  0  0
 29108  1  0  0  0
 33 34  1  0  0  0
 33 66  1  0  0  0
 33 70  2  0  0  0
 34 36  1  0  0  0
 34 59  1  0  0  0
 34109  1  0  0  0
 35 44  2  0  0  0
 35 45  1  0  0  0
 35 68  1  0  0  0
 36 56  1  0  0  0
 36110  1  0  0  0
 37 39  1  0  0  0
 37 47  1  0  0  0
 37 66  1  0  0  0
 37111  1  0  0  0
 38 43  2  0  0  0
 38 46  1  0  0  0
 38 47  1  0  0  0
 39 64  1  0  0  0
 39 67  2  0  0  0
 40 52  1  0  0  0
 40 53  2  0  0  0
 40 58  1  0  0  0
 41112  1  0  0  0
 41113  1  0  0  0
 41114  1  0  0  0
 41 48  1  0  0  0
 42 43  1  0  0  0
 42 66  1  0  0  0
 42115  1  0  0  0
 42116  1  0  0  0
 43 44  1  0  0  0
 44117  1  0  0  0
 45 46  2  0  0  0
 45118  1  0  0  0
 46119  1  0  0  0
 47120  1  0  0  0
 47121  1  0  0  0
 48 56  1  0  0  0
 48 65  1  0  0  0
 48122  1  0  0  0
 49 50  1  0  0  0
 49 53  1  0  0  0
 49 64  1  0  0  0
 49123  1  0  0  0
 50 51  1  0  0  0
 50124  1  0  0  0
 50125  1  0  0  0
 51 52  1  0  0  0
 51126  1  0  0  0
 51127  1  0  0  0
 52128  1  0  0  0
 52129  1  0  0  0
 53 54  1  0  0  0
 54 55  2  0  0  0
 54130  1  0  0  0
 55 57  1  0  0  0
 55131  1  0  0  0
 56 69  2  0  0  0
 57 58  2  0  0  0
 57132  1  0  0  0
 58133  1  0  0  0
 59 60  1  0  0  0
 59 61  1  0  0  0
 59 62  1  0  0  0
 60134  1  0  0  0
 60135  1  0  0  0
 60136  1  0  0  0
 61137  1  0  0  0
 61138  1  0  0  0
 61139  1  0  0  0
 62140  1  0  0  0
 62141  1  0  0  0
 62142  1  0  0  0
 63 65  1  0  0  0
 63143  1  0  0  0
 63144  1  0  0  0
 63145  1  0  0  0
 64146  1  0  0  0
 65147  1  0  0  0
 68 85  1  0  0  0
 71 72  2  0  0  0
 71 73  1  0  0  0
 71148  1  0  0  0
 72 75  1  0  0  0
 72149  1  0  0  0
 73 76  2  0  0  0
 73150  1  0  0  0
 74 75  2  0  0  0
 74 76  1  0  0  0
 74151  1  0  0  0
 75 77  1  0  0  0
 76 87  1  0  0  0
 77 86  1  0  0  0
 77 88  2  0  0  0
 78 79  1  0  0  0
 78 80  1  0  0  0
 78152  1  0  0  0
 78153  1  0  0  0
 79 86  1  0  0  0
 79154  1  0  0  0
 79155  1  0  0  0
 80 81  1  0  0  0
 80 82  1  0  0  0
 80 85  1  0  0  0
 81 83  1  0  0  0
 81 84  1  0  0  0
 81 86  1  0  0  0
 82156  1  0  0  0
 82157  1  0  0  0
 82158  1  0  0  0
 83159  1  0  0  0
 83160  1  0  0  0
 83161  1  0  0  0
 84162  1  0  0  0
 84163  1  0  0  0
 84164  1  0  0  0
 85165  1  0  0  0
 85166  1  0  0  0
 87167  1  0  0  0
 88168  1  0  0  0
 88169  1  0  0  0
M  CHG  1  88   1
M  ISO  4   1 100  68 101  85 101  87 100
M  END
> <chiral flag>
0

> <version>
0

> <s_m_source_file>
/data/baiqing/PycharmProjects/Reinvent-master-3.2/result/LINK_invent/BTK/process_docking_weight1_custom_product_contain_oxygen_bond_distance_aromatic_linkinvent_7_9_3/rearranged_h_0143.sdf

> <i_m_source_file_index>
7

> <r_mmod_Potential_Energy-OPLS-2005>
-40.9075355529785

> <r_mmod_Stretch_Energy-OPLS-2005>
60.3880729675293

> <r_mmod_Bend_Energy-OPLS-2005>
149.470779418945

> <r_mmod_Torsional_Energy-OPLS-2005>
344.723815917969

> <r_mmod_Improper_Torsional_Energy-OPLS-2005>
5.13742399215698

> <r_mmod_Van_der_Waal_Energy-OPLS-2005>
172.452423095703

> <r_mmod_Electrostatic_Energy-OPLS-2005>
-408.117034912109

> <r_mmod_Solvation_Energy-OPLS-2005>
-384.743865966797

> <b_mmod_Minimization_Converged-OPLS-2005>
0

> <r_mmod_RMS_Derivative-OPLS-2005>
0.996918261051178

$$$$
7
                    3D
 Structure written by MMmdl.
157166  0  0  1  0            999 V2000
  -30.6482  -14.6105   20.5570 C   0  0  0  0  0  0
  -30.4320  -12.3890   19.4432 C   0  0  0  0  0  0
  -29.5028  -12.5072   18.2156 C   0  0  0  0  0  0
  -28.0265  -12.3453   18.6308 C   0  0  0  0  0  0
  -27.6498  -13.2152   19.8598 C   0  0  2  0  0  0
  -28.6929  -13.0667   20.9884 C   0  0  0  0  0  0
  -25.2544  -13.8165   20.5669 C   0  0  0  0  0  0
  -24.1815  -13.0437   20.9196 C   0  0  0  0  0  0
  -24.6388  -11.6914   20.8743 C   0  0  0  0  0  0
  -23.9065  -10.4291   21.0405 C   0  0  0  0  0  0
  -24.3618   -9.4205   21.9177 C   0  0  0  0  0  0
  -23.6287   -8.2245   22.0753 C   0  0  0  0  0  0
  -22.4273   -8.0283   21.3540 C   0  0  0  0  0  0
  -21.9912   -9.0261   20.4646 C   0  0  0  0  0  0
  -22.7249  -10.2130   20.3054 C   0  0  0  0  0  0
  -21.6847   -6.0737   22.5283 C   0  0  0  0  0  0
  -21.4010   -6.5631   23.8221 C   0  0  0  0  0  0
  -21.3661   -5.6784   24.9174 C   0  0  0  0  0  0
  -21.6043   -4.3051   24.7222 C   0  0  0  0  0  0
  -21.8824   -3.8143   23.4345 C   0  0  0  0  0  0
  -21.9186   -4.6960   22.3400 C   0  0  0  0  0  0
  -22.7843  -13.5233   21.1862 C   0  0  0  0  0  0
  -22.1661   -4.2154   21.0978 F   0  0  0  0  0  0
  -21.5622   -3.4537   25.7726 F   0  0  0  0  0  0
  -30.0066  -13.4073   20.4242 N   0  0  0  0  0  0
  -26.2965  -12.9344   20.3298 N   0  0  0  0  0  0
  -25.9310  -11.6496   20.5748 N   0  0  0  0  0  0
  -22.0478  -12.8226   22.0408 N   0  0  0  0  0  0
  -25.4233  -15.1900   20.4074 N   0  0  0  0  0  0
  -31.8180  -14.7511   20.1831 O   0  0  0  0  0  0
  -21.6639   -6.8887   21.4247 O   0  0  0  0  0  0
  -22.3524  -14.5531   20.6696 O   0  0  0  0  0  0
  -24.6226  -31.8623   23.2019 C   0  0  0  0  0  0
  -25.9071  -32.4801   23.8347 C   0  0  1  0  0  0
  -27.2066  -27.3234   20.1582 C   0  0  0  0  0  0
  -25.5894  -33.8602   24.2278 N   0  0  0  0  0  0
  -23.4185  -30.4858   21.5436 C   0  0  2  0  0  0
  -24.8664  -28.9468   20.1076 C   0  0  0  0  0  0
  -22.7466  -29.4628   22.4912 C   0  0  0  0  0  0
  -18.0283  -28.1421   22.8500 C   0  0  0  0  0  0
  -24.1468  -36.7277   23.2632 C   0  0  0  0  0  0
  -25.9571  -30.8003   21.3719 C   0  0  0  0  0  0
  -26.0310  -29.4271   20.7180 C   0  0  0  0  0  0
  -27.2085  -28.6275   20.7353 C   0  0  0  0  0  0
  -26.0320  -26.8965   19.5084 C   0  0  0  0  0  0
  -24.8675  -27.6860   19.4886 C   0  0  0  0  0  0
  -23.6349  -29.8266   20.1559 C   0  0  0  0  0  0
  -25.4104  -36.3105   24.0330 C   0  0  1  0  0  0
  -20.5894  -28.3699   23.1290 C   0  0  2  0  0  0
  -20.6786  -26.9428   22.5433 C   0  0  0  0  0  0
  -19.5759  -26.6405   21.5245 C   0  0  0  0  0  0
  -18.1932  -26.7968   22.1642 C   0  0  0  0  0  0
  -19.1549  -28.8878   23.2898 C   0  0  0  0  0  0
  -18.9476  -30.1483   23.8917 C   0  0  0  0  0  0
  -17.6487  -30.6624   24.0577 C   0  0  0  0  0  0
  -25.9051  -34.9467   23.5111 C   0  0  0  0  0  0
  -16.5361  -29.9141   23.6350 C   0  0  0  0  0  0
  -16.7278  -28.6556   23.0362 C   0  0  0  0  0  0
  -26.4462  -31.6615   25.0711 C   0  0  0  0  0  0
  -25.3691  -31.3817   26.1445 C   0  0  0  0  0  0
  -27.0281  -30.3023   24.6175 C   0  0  0  0  0  0
  -27.6000  -32.4366   25.7516 C   0  0  0  0  0  0
  -27.5592  -37.1798   24.8469 C   0  0  0  0  0  0
  -21.4179  -29.3050   22.3671 N   0  0  0  0  0  0
  -26.4285  -37.3805   23.9441 N   0  0  0  0  0  0
  -24.6848  -31.0641   22.0966 N   0  0  0  0  0  0
  -23.4202  -28.8160   23.2978 O   0  0  0  0  0  0
  -28.2885  -26.4437   20.2143 O   0  0  0  0  0  0
  -26.5609  -34.8940   22.4677 O   0  0  0  0  0  0
  -23.5389  -32.1407   23.7346 O   0  0  0  0  0  0
  -31.2545  -18.7289   22.2233 C   0  0  0  0  0  0
  -31.3608  -17.3319   21.9262 C   0  0  0  0  0  0
  -30.0633  -19.1621   21.6955 C   0  0  0  0  0  0
  -30.2217  -16.9793   21.2497 C   0  0  0  0  0  0
  -28.8015  -22.7595   21.2377 C   0  0  0  0  0  0
  -28.2016  -23.8327   20.6119 C   0  0  0  0  0  0
  -29.5757  -22.8123   22.5405 C   0  0  0  0  0  0
  -28.8124  -21.2700   20.8006 C   0  0  0  0  0  0
  -29.8177  -21.3505   22.9767 C   0  0  0  0  0  0
  -27.3939  -23.6247   19.3437 C   0  0  0  0  0  0
  -28.1541  -25.3086   21.1570 C   0  0  0  0  0  0
  -29.5483  -20.4960   21.8189 N   0  0  0  0  0  0
  -29.8665  -15.6847   20.9008 N   0  0  0  0  0  0
  -29.4003  -18.1008   21.0890 O   0  0  0  0  0  0
  -31.4734  -12.5124   19.1404 H   0  0  0  0  0  0
  -30.3645  -11.3889   19.8779 H   0  0  0  0  0  0
  -29.7671  -11.7568   17.4692 H   0  0  0  0  0  0
  -29.6491  -13.4763   17.7384 H   0  0  0  0  0  0
  -27.8643  -11.2918   18.8611 H   0  0  0  0  0  0
  -27.3715  -12.5759   17.7909 H   0  0  0  0  0  0
  -27.6720  -14.2514   19.5221 H   0  0  0  0  0  0
  -28.7026  -12.0446   21.3685 H   0  0  0  0  0  0
  -28.4401  -13.6975   21.8417 H   0  0  0  0  0  0
  -25.2770   -9.5662   22.4752 H   0  0  0  0  0  0
  -23.9990   -7.4628   22.7468 H   0  0  0  0  0  0
  -21.0847   -8.8786   19.8954 H   0  0  0  0  0  0
  -22.3722  -10.9664   19.6155 H   0  0  0  0  0  0
  -21.2018   -7.6146   23.9723 H   0  0  0  0  0  0
  -21.1474   -6.0512   25.9076 H   0  0  0  0  0  0
  -22.0601   -2.7615   23.2839 H   0  0  0  0  0  0
  -22.4080  -11.9887   22.4813 H   0  0  0  0  0  0
  -21.1090  -13.1244   22.2608 H   0  0  0  0  0  0
  -24.6504  -15.8388   20.5145 H   0  0  0  0  0  0
  -26.2628  -15.6351   20.0582 H   0  0  0  0  0  0
  -26.7153  -32.5476   23.1114 H   0  0  0  0  0  0
  -25.0079  -33.9760   25.0445 H   0  0  0  0  0  0
  -22.7109  -31.3041   21.4029 H   0  0  0  0  0  0
  -23.3753  -35.9592   23.3320 H   0  0  0  0  0  0
  -24.3559  -36.8855   22.2046 H   0  0  0  0  0  0
  -23.7206  -37.6478   23.6622 H   0  0  0  0  0  0
  -26.0877  -31.5658   20.6059 H   0  0  0  0  0  0
  -26.8370  -30.8460   22.0029 H   0  0  0  0  0  0
  -28.1000  -28.9865   21.2282 H   0  0  0  0  0  0
  -25.9993  -25.9325   19.0284 H   0  0  0  0  0  0
  -23.9750  -27.3155   19.0043 H   0  0  0  0  0  0
  -23.7551  -30.6069   19.4042 H   0  0  0  0  0  0
  -22.7553  -29.2591   19.8488 H   0  0  0  0  0  0
  -25.1293  -36.1947   25.0820 H   0  0  0  0  0  0
  -21.0001  -28.3274   24.1404 H   0  0  0  0  0  0
  -20.5737  -26.2295   23.3635 H   0  0  0  0  0  0
  -21.6647  -26.7511   22.1193 H   0  0  0  0  0  0
  -19.6942  -25.6325   21.1263 H   0  0  0  0  0  0
  -19.6701  -27.3219   20.6787 H   0  0  0  0  0  0
  -17.4220  -26.6708   21.4027 H   0  0  0  0  0  0
  -18.0307  -26.0143   22.9062 H   0  0  0  0  0  0
  -19.7950  -30.7296   24.2265 H   0  0  0  0  0  0
  -17.5052  -31.6311   24.5183 H   0  0  0  0  0  0
  -15.5367  -30.3067   23.7693 H   0  0  0  0  0  0
  -15.8660  -28.0906   22.7068 H   0  0  0  0  0  0
  -24.5861  -30.7154   25.7818 H   0  0  0  0  0  0
  -24.8891  -32.3019   26.4792 H   0  0  0  0  0  0
  -25.8009  -30.9088   27.0272 H   0  0  0  0  0  0
  -26.2877  -29.6851   24.1086 H   0  0  0  0  0  0
  -27.3824  -29.7210   25.4685 H   0  0  0  0  0  0
  -27.8798  -30.4280   23.9501 H   0  0  0  0  0  0
  -27.2552  -33.3650   26.2087 H   0  0  0  0  0  0
  -28.3827  -32.6955   25.0377 H   0  0  0  0  0  0
  -28.0634  -31.8502   26.5461 H   0  0  0  0  0  0
  -28.2594  -38.0116   24.7564 H   0  0  0  0  0  0
  -28.1086  -36.2641   24.6212 H   0  0  0  0  0  0
  -27.2305  -37.1365   25.8868 H   0  0  0  0  0  0
  -20.9334  -29.8756   21.6876 H   0  0  0  0  0  0
  -26.0151  -38.2861   24.1500 H   0  0  0  0  0  0
  -31.9728  -19.3283   22.7648 H   0  0  0  0  0  0
  -32.1650  -16.6694   22.2132 H   0  0  0  0  0  0
  -29.0467  -23.3812   23.3066 H   0  0  0  0  0  0
  -30.5298  -23.3098   22.3588 H   0  0  0  0  0  0
  -29.2902  -21.1634   19.8283 H   0  0  0  0  0  0
  -27.7927  -20.8895   20.7298 H   0  0  0  0  0  0
  -29.1183  -21.0927   23.7748 H   0  0  0  0  0  0
  -30.8225  -21.2254   23.3807 H   0  0  0  0  0  0
  -27.4354  -22.5995   18.9745 H   0  0  0  0  0  0
  -27.7561  -24.2780   18.5511 H   0  0  0  0  0  0
  -26.3458  -23.8484   19.5412 H   0  0  0  0  0  0
  -28.9238  -25.4266   21.9172 H   0  0  0  0  0  0
  -27.2121  -25.4032   21.7025 H   0  0  0  0  0  0
  -28.8790  -15.4839   20.9330 H   0  0  0  0  0  0
  1 25  1  0  0  0
  1 30  2  0  0  0
  1 83  1  0  0  0
  2  3  1  0  0  0
  2 25  1  0  0  0
  2 85  1  0  0  0
  2 86  1  0  0  0
  3  4  1  0  0  0
  3 87  1  0  0  0
  3 88  1  0  0  0
  4  5  1  0  0  0
  4 89  1  0  0  0
  4 90  1  0  0  0
  5  6  1  0  0  0
  5 26  1  0  0  0
  5 91  1  0  0  0
  6 25  1  0  0  0
  6 92  1  0  0  0
  6 93  1  0  0  0
  7  8  2  0  0  0
  7 26  1  0  0  0
  7 29  1  0  0  0
  8  9  1  0  0  0
  8 22  1  0  0  0
  9 10  1  0  0  0
  9 27  2  0  0  0
 10 11  2  0  0  0
 10 15  1  0  0  0
 11 12  1  0  0  0
 11 94  1  0  0  0
 12 13  2  0  0  0
 12 95  1  0  0  0
 13 14  1  0  0  0
 13 31  1  0  0  0
 14 15  2  0  0  0
 14 96  1  0  0  0
 15 97  1  0  0  0
 16 17  2  0  0  0
 16 21  1  0  0  0
 16 31  1  0  0  0
 17 18  1  0  0  0
 17 98  1  0  0  0
 18 19  2  0  0  0
 18 99  1  0  0  0
 19 20  1  0  0  0
 19 24  1  0  0  0
 20 21  2  0  0  0
 20100  1  0  0  0
 21 23  1  0  0  0
 22 28  1  0  0  0
 22 32  2  0  0  0
 26 27  1  0  0  0
 28101  1  0  0  0
 28102  1  0  0  0
 29103  1  0  0  0
 29104  1  0  0  0
 33 34  1  0  0  0
 33 66  1  0  0  0
 33 70  2  0  0  0
 34 36  1  0  0  0
 34 59  1  0  0  0
 34105  1  0  0  0
 35 44  2  0  0  0
 35 45  1  0  0  0
 35 68  1  0  0  0
 36 56  1  0  0  0
 36106  1  0  0  0
 37 39  1  0  0  0
 37 47  1  0  0  0
 37 66  1  0  0  0
 37107  1  0  0  0
 38 43  2  0  0  0
 38 46  1  0  0  0
 38 47  1  0  0  0
 39 64  1  0  0  0
 39 67  2  0  0  0
 40 52  1  0  0  0
 40 53  2  0  0  0
 40 58  1  0  0  0
 41108  1  0  0  0
 41109  1  0  0  0
 41110  1  0  0  0
 41 48  1  0  0  0
 42 43  1  0  0  0
 42 66  1  0  0  0
 42111  1  0  0  0
 42112  1  0  0  0
 43 44  1  0  0  0
 44113  1  0  0  0
 45 46  2  0  0  0
 45114  1  0  0  0
 46115  1  0  0  0
 47116  1  0  0  0
 47117  1  0  0  0
 48 56  1  0  0  0
 48 65  1  0  0  0
 48118  1  0  0  0
 49 50  1  0  0  0
 49 53  1  0  0  0
 49 64  1  0  0  0
 49119  1  0  0  0
 50 51  1  0  0  0
 50120  1  0  0  0
 50121  1  0  0  0
 51 52  1  0  0  0
 51122  1  0  0  0
 51123  1  0  0  0
 52124  1  0  0  0
 52125  1  0  0  0
 53 54  1  0  0  0
 54 55  2  0  0  0
 54126  1  0  0  0
 55 57  1  0  0  0
 55127  1  0  0  0
 56 69  2  0  0  0
 57 58  2  0  0  0
 57128  1  0  0  0
 58129  1  0  0  0
 59 60  1  0  0  0
 59 61  1  0  0  0
 59 62  1  0  0  0
 60130  1  0  0  0
 60131  1  0  0  0
 60132  1  0  0  0
 61133  1  0  0  0
 61134  1  0  0  0
 61135  1  0  0  0
 62136  1  0  0  0
 62137  1  0  0  0
 62138  1  0  0  0
 63 65  1  0  0  0
 63139  1  0  0  0
 63140  1  0  0  0
 63141  1  0  0  0
 64142  1  0  0  0
 65143  1  0  0  0
 68 81  1  0  0  0
 71 72  1  0  0  0
 71 73  2  0  0  0
 71144  1  0  0  0
 72 74  2  0  0  0
 72145  1  0  0  0
 73 82  1  0  0  0
 73 84  1  0  0  0
 74 83  1  0  0  0
 74 84  1  0  0  0
 75 76  2  0  0  0
 75 77  1  0  0  0
 75 78  1  0  0  0
 76 80  1  0  0  0
 76 81  1  0  0  0
 77 79  1  0  0  0
 77146  1  0  0  0
 77147  1  0  0  0
 78 82  1  0  0  0
 78148  1  0  0  0
 78149  1  0  0  0
 79 82  1  0  0  0
 79150  1  0  0  0
 79151  1  0  0  0
 80152  1  0  0  0
 80153  1  0  0  0
 80154  1  0  0  0
 81155  1  0  0  0
 81156  1  0  0  0
 83157  1  0  0  0
M  ISO  4   1 100  68 101  81 101  83 100
M  END
> <chiral flag>
0

> <version>
0

> <s_m_source_file>
/data/baiqing/PycharmProjects/Reinvent-master-3.2/result/LINK_invent/BTK/process_docking_weight1_custom_product_contain_oxygen_bond_distance_aromatic_linkinvent_7_9_3/rearranged_h_0143.sdf

> <i_m_source_file_index>
8

> <r_mmod_Potential_Energy-OPLS-2005>
85.7094116210938

> <r_mmod_Stretch_Energy-OPLS-2005>
69.3252563476562

> <r_mmod_Bend_Energy-OPLS-2005>
165.266036987305

> <r_mmod_Torsional_Energy-OPLS-2005>
276.09130859375

> <r_mmod_Improper_Torsional_Energy-OPLS-2005>
5.69196128845215

> <r_mmod_Van_der_Waal_Energy-OPLS-2005>
119.991989135742

> <r_mmod_Electrostatic_Energy-OPLS-2005>
-375.535186767578

> <r_mmod_Solvation_Energy-OPLS-2005>
-223.179107666016

> <b_mmod_Minimization_Converged-OPLS-2005>
0

> <r_mmod_RMS_Derivative-OPLS-2005>
4.14611291885376

$$$$
8
                    3D
 Structure written by MMmdl.
158166  0  0  1  0            999 V2000
  -30.6973  -14.4816   20.5568 C   0  0  0  0  0  0
  -30.4220  -12.3074   19.4273 C   0  0  0  0  0  0
  -29.4947  -12.4993   18.2092 C   0  0  0  0  0  0
  -28.0159  -12.3601   18.6217 C   0  0  0  0  0  0
  -27.6599  -13.2070   19.8730 C   0  0  2  0  0  0
  -28.7016  -12.9992   20.9961 C   0  0  0  0  0  0
  -25.2584  -13.8166   20.5682 C   0  0  0  0  0  0
  -24.1834  -13.0443   20.9180 C   0  0  0  0  0  0
  -24.6387  -11.6908   20.8737 C   0  0  0  0  0  0
  -23.9055  -10.4294   21.0406 C   0  0  0  0  0  0
  -24.3609   -9.4210   21.9184 C   0  0  0  0  0  0
  -23.6287   -8.2243   22.0754 C   0  0  0  0  0  0
  -22.4270   -8.0280   21.3544 C   0  0  0  0  0  0
  -21.9904   -9.0253   20.4646 C   0  0  0  0  0  0
  -22.7229  -10.2134   20.3055 C   0  0  0  0  0  0
  -21.6852   -6.0734   22.5278 C   0  0  0  0  0  0
  -21.4013   -6.5638   23.8211 C   0  0  0  0  0  0
  -21.3660   -5.6791   24.9174 C   0  0  0  0  0  0
  -21.6045   -4.3054   24.7225 C   0  0  0  0  0  0
  -21.8819   -3.8145   23.4346 C   0  0  0  0  0  0
  -21.9192   -4.6962   22.3402 C   0  0  0  0  0  0
  -22.7858  -13.5242   21.1846 C   0  0  0  0  0  0
  -22.1660   -4.2148   21.0980 F   0  0  0  0  0  0
  -21.5631   -3.4539   25.7739 F   0  0  0  0  0  0
  -30.0321  -13.2996   20.4415 N   0  0  0  0  0  0
  -26.3014  -12.9331   20.3358 N   0  0  0  0  0  0
  -25.9314  -11.6493   20.5769 N   0  0  0  0  0  0
  -22.0496  -12.8232   22.0398 N   0  0  0  0  0  0
  -25.4321  -15.1882   20.4090 N   0  0  0  0  0  0
  -31.8381  -14.6410   20.1122 O   0  0  0  0  0  0
  -21.6638   -6.8875   21.4239 O   0  0  0  0  0  0
  -22.3546  -14.5553   20.6700 O   0  0  0  0  0  0
  -24.6149  -31.8675   23.2097 C   0  0  0  0  0  0
  -25.9040  -32.4822   23.8396 C   0  0  1  0  0  0
  -27.2333  -27.4337   20.1031 C   0  0  0  0  0  0
  -25.5891  -33.8620   24.2328 N   0  0  0  0  0  0
  -23.4036  -30.4905   21.5499 C   0  0  2  0  0  0
  -24.8517  -28.9556   20.1150 C   0  0  0  0  0  0
  -22.7413  -29.4657   22.4990 C   0  0  0  0  0  0
  -18.0272  -28.1375   22.8495 C   0  0  0  0  0  0
  -24.1486  -36.7317   23.2639 C   0  0  0  0  0  0
  -25.9321  -30.8344   21.3618 C   0  0  0  0  0  0
  -26.0120  -29.4681   20.7106 C   0  0  0  0  0  0
  -27.2096  -28.7153   20.6997 C   0  0  0  0  0  0
  -26.0607  -26.9359   19.4992 C   0  0  0  0  0  0
  -24.8709  -27.6887   19.5053 C   0  0  0  0  0  0
  -23.6127  -29.8214   20.1649 C   0  0  0  0  0  0
  -25.4105  -36.3113   24.0340 C   0  0  1  0  0  0
  -20.5863  -28.3661   23.1322 C   0  0  2  0  0  0
  -20.6763  -26.9398   22.5420 C   0  0  0  0  0  0
  -19.5742  -26.6386   21.5216 C   0  0  0  0  0  0
  -18.1919  -26.7922   22.1625 C   0  0  0  0  0  0
  -19.1521  -28.8834   23.2907 C   0  0  0  0  0  0
  -18.9451  -30.1440   23.8917 C   0  0  0  0  0  0
  -17.6453  -30.6583   24.0567 C   0  0  0  0  0  0
  -25.9032  -34.9476   23.5133 C   0  0  0  0  0  0
  -16.5344  -29.9086   23.6327 C   0  0  0  0  0  0
  -16.7261  -28.6502   23.0348 C   0  0  0  0  0  0
  -26.4471  -31.6597   25.0721 C   0  0  0  0  0  0
  -25.3740  -31.3695   26.1471 C   0  0  0  0  0  0
  -27.0300  -30.3044   24.6083 C   0  0  0  0  0  0
  -27.6052  -32.4311   25.7478 C   0  0  0  0  0  0
  -27.5580  -37.1811   24.8463 C   0  0  0  0  0  0
  -21.4141  -29.3030   22.3729 N   0  0  0  0  0  0
  -26.4292  -37.3796   23.9409 N   0  0  0  0  0  0
  -24.6685  -31.0780   22.0993 N   0  0  0  0  0  0
  -23.4183  -28.8204   23.3037 O   0  0  0  0  0  0
  -28.3759  -26.6652   20.0962 O   0  0  0  0  0  0
  -26.5598  -34.8926   22.4698 O   0  0  0  0  0  0
  -23.5342  -32.1419   23.7494 O   0  0  0  0  0  0
  -31.3440  -18.9200   20.7684 C   0  0  0  0  0  0
  -31.4449  -17.4975   20.8484 C   0  0  0  0  0  0
  -30.0549  -19.3880   20.8442 C   0  0  0  0  0  0
  -30.2363  -16.8476   20.9655 C   0  0  0  0  0  0
  -29.5016  -20.7646   20.7755 C   0  0  0  0  0  0
  -30.9608  -21.6280   22.6648 C   0  0  0  0  0  0
  -31.4194  -22.3792   20.3074 C   0  0  0  0  0  0
  -29.1769  -24.3294   20.4818 C   0  0  0  0  0  0
  -29.3879  -23.2569   21.5934 C   0  0  0  0  0  0
  -28.3154  -25.5231   20.9676 C   0  0  0  0  0  0
  -30.3054  -22.0010   21.3107 C   0  0  0  0  0  0
  -29.9669  -15.5091   21.0446 N   0  0  0  0  0  0
  -28.3717  -20.9467   20.3130 O   0  0  0  0  0  0
  -28.9439  -18.0383   21.0106 S   0  0  0  0  0  0
  -31.4667  -12.4023   19.1259 H   0  0  0  0  0  0
  -30.3212  -11.2994   19.8323 H   0  0  0  0  0  0
  -29.7354  -11.7701   17.4344 H   0  0  0  0  0  0
  -29.6625  -13.4827   17.7669 H   0  0  0  0  0  0
  -27.8287  -11.3050   18.8250 H   0  0  0  0  0  0
  -27.3650  -12.6275   17.7885 H   0  0  0  0  0  0
  -27.7005  -14.2525   19.5668 H   0  0  0  0  0  0
  -28.6778  -11.9673   21.3491 H   0  0  0  0  0  0
  -28.4645  -13.6100   21.8683 H   0  0  0  0  0  0
  -25.2755   -9.5688   22.4757 H   0  0  0  0  0  0
  -23.9999   -7.4635   22.7471 H   0  0  0  0  0  0
  -21.0837   -8.8770   19.8949 H   0  0  0  0  0  0
  -22.3689  -10.9673   19.6163 H   0  0  0  0  0  0
  -21.2003   -7.6146   23.9714 H   0  0  0  0  0  0
  -21.1483   -6.0522   25.9077 H   0  0  0  0  0  0
  -22.0598   -2.7608   23.2847 H   0  0  0  0  0  0
  -22.4103  -11.9885   22.4779 H   0  0  0  0  0  0
  -21.1116  -13.1261   22.2606 H   0  0  0  0  0  0
  -24.6668  -15.8454   20.5150 H   0  0  0  0  0  0
  -26.2836  -15.6249   20.0791 H   0  0  0  0  0  0
  -26.7114  -32.5539   23.1166 H   0  0  0  0  0  0
  -25.0039  -33.9782   25.0471 H   0  0  0  0  0  0
  -22.6926  -31.3074   21.4100 H   0  0  0  0  0  0
  -23.3744  -35.9655   23.3311 H   0  0  0  0  0  0
  -24.3583  -36.8924   22.2052 H   0  0  0  0  0  0
  -23.7244  -37.6527   23.6646 H   0  0  0  0  0  0
  -26.0418  -31.5997   20.5921 H   0  0  0  0  0  0
  -26.8210  -30.8908   21.9785 H   0  0  0  0  0  0
  -28.1068  -29.1052   21.1603 H   0  0  0  0  0  0
  -26.0686  -25.9620   19.0297 H   0  0  0  0  0  0
  -23.9794  -27.2885   19.0422 H   0  0  0  0  0  0
  -23.7190  -30.5955   19.4041 H   0  0  0  0  0  0
  -22.7372  -29.2398   19.8707 H   0  0  0  0  0  0
  -25.1282  -36.1982   25.0834 H   0  0  0  0  0  0
  -20.9956  -28.3224   24.1443 H   0  0  0  0  0  0
  -20.5677  -26.2265   23.3604 H   0  0  0  0  0  0
  -21.6633  -26.7447   22.1205 H   0  0  0  0  0  0
  -19.6907  -25.6306   21.1225 H   0  0  0  0  0  0
  -19.6683  -27.3215   20.6763 H   0  0  0  0  0  0
  -17.4193  -26.6680   21.4023 H   0  0  0  0  0  0
  -18.0316  -26.0057   22.9014 H   0  0  0  0  0  0
  -19.7927  -30.7249   24.2294 H   0  0  0  0  0  0
  -17.5009  -31.6265   24.5164 H   0  0  0  0  0  0
  -15.5345  -30.2995   23.7638 H   0  0  0  0  0  0
  -15.8661  -28.0828   22.7053 H   0  0  0  0  0  0
  -24.5909  -30.7050   25.7806 H   0  0  0  0  0  0
  -24.8935  -32.2846   26.4941 H   0  0  0  0  0  0
  -25.8092  -30.8845   27.0216 H   0  0  0  0  0  0
  -26.2837  -29.6808   24.1144 H   0  0  0  0  0  0
  -27.4093  -29.7276   25.4529 H   0  0  0  0  0  0
  -27.8662  -30.4376   23.9213 H   0  0  0  0  0  0
  -27.2680  -33.3605   26.2080 H   0  0  0  0  0  0
  -28.3843  -32.6882   25.0290 H   0  0  0  0  0  0
  -28.0737  -31.8418   26.5372 H   0  0  0  0  0  0
  -28.2601  -38.0105   24.7509 H   0  0  0  0  0  0
  -28.1071  -36.2637   24.6285 H   0  0  0  0  0  0
  -27.2296  -37.1459   25.8866 H   0  0  0  0  0  0
  -20.9299  -29.8753   21.6953 H   0  0  0  0  0  0
  -26.0184  -38.2877   24.1406 H   0  0  0  0  0  0
  -32.2293  -19.5261   20.6593 H   0  0  0  0  0  0
  -32.4098  -17.0115   20.8071 H   0  0  0  0  0  0
  -31.6942  -20.8283   22.5791 H   0  0  0  0  0  0
  -30.2139  -21.3098   23.3937 H   0  0  0  0  0  0
  -31.4956  -22.4745   23.0965 H   0  0  0  0  0  0
  -32.1714  -21.6023   20.1958 H   0  0  0  0  0  0
  -31.9504  -23.2756   20.6285 H   0  0  0  0  0  0
  -31.0143  -22.5722   19.3131 H   0  0  0  0  0  0
  -28.7212  -23.8788   19.5995 H   0  0  0  0  0  0
  -30.1417  -24.7254   20.1657 H   0  0  0  0  0  0
  -28.4096  -22.9227   21.9438 H   0  0  0  0  0  0
  -29.7971  -23.7975   22.4475 H   0  0  0  0  0  0
  -28.6713  -25.8545   21.9440 H   0  0  0  0  0  0
  -27.2923  -25.1759   21.1236 H   0  0  0  0  0  0
  -29.0323  -15.2601   21.3314 H   0  0  0  0  0  0
  1 25  1  0  0  0
  1 30  2  0  0  0
  1 82  1  0  0  0
  2  3  1  0  0  0
  2 25  1  0  0  0
  2 85  1  0  0  0
  2 86  1  0  0  0
  3  4  1  0  0  0
  3 87  1  0  0  0
  3 88  1  0  0  0
  4  5  1  0  0  0
  4 89  1  0  0  0
  4 90  1  0  0  0
  5  6  1  0  0  0
  5 26  1  0  0  0
  5 91  1  0  0  0
  6 25  1  0  0  0
  6 92  1  0  0  0
  6 93  1  0  0  0
  7  8  2  0  0  0
  7 26  1  0  0  0
  7 29  1  0  0  0
  8  9  1  0  0  0
  8 22  1  0  0  0
  9 10  1  0  0  0
  9 27  2  0  0  0
 10 11  2  0  0  0
 10 15  1  0  0  0
 11 12  1  0  0  0
 11 94  1  0  0  0
 12 13  2  0  0  0
 12 95  1  0  0  0
 13 14  1  0  0  0
 13 31  1  0  0  0
 14 15  2  0  0  0
 14 96  1  0  0  0
 15 97  1  0  0  0
 16 17  2  0  0  0
 16 21  1  0  0  0
 16 31  1  0  0  0
 17 18  1  0  0  0
 17 98  1  0  0  0
 18 19  2  0  0  0
 18 99  1  0  0  0
 19 20  1  0  0  0
 19 24  1  0  0  0
 20 21  2  0  0  0
 20100  1  0  0  0
 21 23  1  0  0  0
 22 28  1  0  0  0
 22 32  2  0  0  0
 26 27  1  0  0  0
 28101  1  0  0  0
 28102  1  0  0  0
 29103  1  0  0  0
 29104  1  0  0  0
 33 34  1  0  0  0
 33 66  1  0  0  0
 33 70  2  0  0  0
 34 36  1  0  0  0
 34 59  1  0  0  0
 34105  1  0  0  0
 35 44  2  0  0  0
 35 45  1  0  0  0
 35 68  1  0  0  0
 36 56  1  0  0  0
 36106  1  0  0  0
 37 39  1  0  0  0
 37 47  1  0  0  0
 37 66  1  0  0  0
 37107  1  0  0  0
 38 43  2  0  0  0
 38 46  1  0  0  0
 38 47  1  0  0  0
 39 64  1  0  0  0
 39 67  2  0  0  0
 40 52  1  0  0  0
 40 53  2  0  0  0
 40 58  1  0  0  0
 41108  1  0  0  0
 41109  1  0  0  0
 41110  1  0  0  0
 41 48  1  0  0  0
 42 43  1  0  0  0
 42 66  1  0  0  0
 42111  1  0  0  0
 42112  1  0  0  0
 43 44  1  0  0  0
 44113  1  0  0  0
 45 46  2  0  0  0
 45114  1  0  0  0
 46115  1  0  0  0
 47116  1  0  0  0
 47117  1  0  0  0
 48 56  1  0  0  0
 48 65  1  0  0  0
 48118  1  0  0  0
 49 50  1  0  0  0
 49 53  1  0  0  0
 49 64  1  0  0  0
 49119  1  0  0  0
 50 51  1  0  0  0
 50120  1  0  0  0
 50121  1  0  0  0
 51 52  1  0  0  0
 51122  1  0  0  0
 51123  1  0  0  0
 52124  1  0  0  0
 52125  1  0  0  0
 53 54  1  0  0  0
 54 55  2  0  0  0
 54126  1  0  0  0
 55 57  1  0  0  0
 55127  1  0  0  0
 56 69  2  0  0  0
 57 58  2  0  0  0
 57128  1  0  0  0
 58129  1  0  0  0
 59 60  1  0  0  0
 59 61  1  0  0  0
 59 62  1  0  0  0
 60130  1  0  0  0
 60131  1  0  0  0
 60132  1  0  0  0
 61133  1  0  0  0
 61134  1  0  0  0
 61135  1  0  0  0
 62136  1  0  0  0
 62137  1  0  0  0
 62138  1  0  0  0
 63 65  1  0  0  0
 63139  1  0  0  0
 63140  1  0  0  0
 63141  1  0  0  0
 64142  1  0  0  0
 65143  1  0  0  0
 68 80  1  0  0  0
 71 72  1  0  0  0
 71 73  2  0  0  0
 71144  1  0  0  0
 72 74  2  0  0  0
 72145  1  0  0  0
 73 75  1  0  0  0
 73 84  1  0  0  0
 74 82  1  0  0  0
 74 84  1  0  0  0
 75 81  1  0  0  0
 75 83  2  0  0  0
 76146  1  0  0  0
 76147  1  0  0  0
 76148  1  0  0  0
 76 81  1  0  0  0
 77 81  1  0  0  0
 77149  1  0  0  0
 77150  1  0  0  0
 77151  1  0  0  0
 78 79  1  0  0  0
 78 80  1  0  0  0
 78152  1  0  0  0
 78153  1  0  0  0
 79 81  1  0  0  0
 79154  1  0  0  0
 79155  1  0  0  0
 80156  1  0  0  0
 80157  1  0  0  0
 82158  1  0  0  0
M  ISO  4   1 100  68 101  80 101  82 100
M  END
> <chiral flag>
0

> <version>
0

> <s_m_source_file>
/data/baiqing/PycharmProjects/Reinvent-master-3.2/result/LINK_invent/BTK/process_docking_weight1_custom_product_contain_oxygen_bond_distance_aromatic_linkinvent_7_9_3/rearranged_h_0143.sdf

> <i_m_source_file_index>
9

> <r_mmod_Potential_Energy-OPLS-2005>
14.1113481521606

> <r_mmod_Stretch_Energy-OPLS-2005>
42.6592864990234

> <r_mmod_Bend_Energy-OPLS-2005>
106.068450927734

> <r_mmod_Torsional_Energy-OPLS-2005>
265.894927978516

> <r_mmod_Improper_Torsional_Energy-OPLS-2005>
4.00351428985596

> <r_mmod_Van_der_Waal_Energy-OPLS-2005>
140.461395263672

> <r_mmod_Electrostatic_Energy-OPLS-2005>
-354.918518066406

> <r_mmod_Solvation_Energy-OPLS-2005>
-203.904037475586

> <b_mmod_Minimization_Converged-OPLS-2005>
0

> <r_mmod_RMS_Derivative-OPLS-2005>
0.335783362388611

$$$$
9
                    3D
 Structure written by MMmdl.
169177  0  0  1  0            999 V2000
  -30.7390  -14.4269   20.6202 C   0  0  0  0  0  0
  -30.4146  -12.3011   19.4088 C   0  0  0  0  0  0
  -29.4860  -12.5095   18.1972 C   0  0  0  0  0  0
  -28.0091  -12.3694   18.6137 C   0  0  0  0  0  0
  -27.6603  -13.2064   19.8738 C   0  0  2  0  0  0
  -28.7019  -12.9813   20.9924 C   0  0  0  0  0  0
  -25.2583  -13.8164   20.5678 C   0  0  0  0  0  0
  -24.1834  -13.0438   20.9175 C   0  0  0  0  0  0
  -24.6389  -11.6907   20.8735 C   0  0  0  0  0  0
  -23.9057  -10.4293   21.0407 C   0  0  0  0  0  0
  -24.3611   -9.4209   21.9184 C   0  0  0  0  0  0
  -23.6288   -8.2243   22.0754 C   0  0  0  0  0  0
  -22.4270   -8.0282   21.3545 C   0  0  0  0  0  0
  -21.9905   -9.0254   20.4646 C   0  0  0  0  0  0
  -22.7231  -10.2135   20.3056 C   0  0  0  0  0  0
  -21.6852   -6.0736   22.5280 C   0  0  0  0  0  0
  -21.4013   -6.5639   23.8213 C   0  0  0  0  0  0
  -21.3659   -5.6792   24.9176 C   0  0  0  0  0  0
  -21.6044   -4.3055   24.7226 C   0  0  0  0  0  0
  -21.8819   -3.8147   23.4347 C   0  0  0  0  0  0
  -21.9193   -4.6964   22.3403 C   0  0  0  0  0  0
  -22.7859  -13.5240   21.1840 C   0  0  0  0  0  0
  -22.1661   -4.2149   21.0981 F   0  0  0  0  0  0
  -21.5629   -3.4540   25.7740 F   0  0  0  0  0  0
  -30.0322  -13.2803   20.4374 N   0  0  0  0  0  0
  -26.3016  -12.9332   20.3366 N   0  0  0  0  0  0
  -25.9313  -11.6490   20.5763 N   0  0  0  0  0  0
  -22.0497  -12.8234   22.0398 N   0  0  0  0  0  0
  -25.4307  -15.1879   20.4083 N   0  0  0  0  0  0
  -31.8420  -14.6204   20.0996 O   0  0  0  0  0  0
  -21.6638   -6.8878   21.4241 O   0  0  0  0  0  0
  -22.3548  -14.5548   20.6690 O   0  0  0  0  0  0
  -24.6141  -31.8680   23.2110 C   0  0  0  0  0  0
  -25.9040  -32.4817   23.8393 C   0  0  1  0  0  0
  -27.2295  -27.4349   20.0952 C   0  0  0  0  0  0
  -25.5900  -33.8614   24.2324 N   0  0  0  0  0  0
  -23.4005  -30.4927   21.5515 C   0  0  2  0  0  0
  -24.8446  -28.9599   20.1140 C   0  0  0  0  0  0
  -22.7403  -29.4656   22.4995 C   0  0  0  0  0  0
  -18.0269  -28.1370   22.8481 C   0  0  0  0  0  0
  -24.1490  -36.7313   23.2639 C   0  0  0  0  0  0
  -25.9292  -30.8346   21.3631 C   0  0  0  0  0  0
  -26.0054  -29.4711   20.7063 C   0  0  0  0  0  0
  -27.2008  -28.7181   20.6882 C   0  0  0  0  0  0
  -26.0512  -26.9429   19.4876 C   0  0  0  0  0  0
  -24.8627  -27.6960   19.5011 C   0  0  0  0  0  0
  -23.6071  -29.8267   20.1653 C   0  0  0  0  0  0
  -25.4111  -36.3107   24.0335 C   0  0  1  0  0  0
  -20.5857  -28.3652   23.1318 C   0  0  2  0  0  0
  -20.6757  -26.9388   22.5418 C   0  0  0  0  0  0
  -19.5740  -26.6379   21.5204 C   0  0  0  0  0  0
  -18.1918  -26.7913   22.1618 C   0  0  0  0  0  0
  -19.1518  -28.8829   23.2895 C   0  0  0  0  0  0
  -18.9448  -30.1438   23.8903 C   0  0  0  0  0  0
  -17.6453  -30.6578   24.0563 C   0  0  0  0  0  0
  -25.9038  -34.9470   23.5127 C   0  0  0  0  0  0
  -16.5343  -29.9076   23.6327 C   0  0  0  0  0  0
  -16.7260  -28.6497   23.0338 C   0  0  0  0  0  0
  -26.4470  -31.6595   25.0720 C   0  0  0  0  0  0
  -25.3746  -31.3705   26.1483 C   0  0  0  0  0  0
  -27.0303  -30.3036   24.6088 C   0  0  0  0  0  0
  -27.6039  -32.4320   25.7488 C   0  0  0  0  0  0
  -27.5584  -37.1810   24.8464 C   0  0  0  0  0  0
  -21.4131  -29.3026   22.3732 N   0  0  0  0  0  0
  -26.4299  -37.3790   23.9404 N   0  0  0  0  0  0
  -24.6661  -31.0790   22.1006 N   0  0  0  0  0  0
  -23.4182  -28.8193   23.3030 O   0  0  0  0  0  0
  -28.4083  -26.7148   20.1235 O   0  0  0  0  0  0
  -26.5599  -34.8919   22.4688 O   0  0  0  0  0  0
  -23.5337  -32.1432   23.7517 O   0  0  0  0  0  0
  -30.2555  -17.8711   21.4743 C   0  0  0  0  0  0
  -32.0657  -18.8893   22.7598 C   0  0  0  0  0  0
  -31.8842  -16.4659   22.6416 C   0  0  0  0  0  0
  -30.9249  -19.0366   21.9416 C   0  0  0  0  0  0
  -30.7529  -16.5820   21.8022 C   0  0  0  0  0  0
  -32.5359  -17.6147   23.1194 C   0  0  0  0  0  0
  -29.3830  -20.9107   21.2673 C   0  0  0  0  0  0
  -29.7910  -25.3623   22.3680 C   0  0  0  0  0  0
  -27.3197  -25.5484   22.6135 C   0  0  0  0  0  0
  -28.6111  -22.8289   23.4734 C   0  0  0  0  0  0
  -29.3421  -22.4470   21.0798 C   0  0  0  0  0  0
  -28.3646  -25.2834   20.3149 C   0  0  0  0  0  0
  -28.4443  -24.8284   21.8159 C   0  0  0  0  0  0
  -28.3307  -23.2374   21.9932 C   0  0  2  0  0  0
  -30.5720  -20.3773   21.5996 N   0  0  0  0  0  0
  -30.1205  -15.4018   21.3131 N   0  0  0  0  0  0
  -26.9487  -22.8031   21.6663 N   0  3  0  0  0  0
  -28.3457  -20.2564   21.1341 O   0  0  0  0  0  0
  -33.6225  -17.4937   23.9191 F   0  0  0  0  0  0
  -31.4588  -12.3931   19.1044 H   0  0  0  0  0  0
  -30.3104  -11.2883   19.8009 H   0  0  0  0  0  0
  -29.7218  -11.7897   17.4122 H   0  0  0  0  0  0
  -29.6550  -13.4981   17.7673 H   0  0  0  0  0  0
  -27.8182  -11.3129   18.8064 H   0  0  0  0  0  0
  -27.3562  -12.6479   17.7857 H   0  0  0  0  0  0
  -27.7073  -14.2555   19.5808 H   0  0  0  0  0  0
  -28.6754  -11.9444   21.3308 H   0  0  0  0  0  0
  -28.4626  -13.5788   21.8729 H   0  0  0  0  0  0
  -25.2759   -9.5686   22.4754 H   0  0  0  0  0  0
  -24.0001   -7.4636   22.7474 H   0  0  0  0  0  0
  -21.0837   -8.8770   19.8952 H   0  0  0  0  0  0
  -22.3689  -10.9672   19.6164 H   0  0  0  0  0  0
  -21.2004   -7.6148   23.9717 H   0  0  0  0  0  0
  -21.1481   -6.0523   25.9079 H   0  0  0  0  0  0
  -22.0599   -2.7609   23.2848 H   0  0  0  0  0  0
  -22.4108  -11.9892   22.4782 H   0  0  0  0  0  0
  -21.1116  -13.1264   22.2601 H   0  0  0  0  0  0
  -24.6642  -15.8439   20.5134 H   0  0  0  0  0  0
  -26.2852  -15.6268   20.0881 H   0  0  0  0  0  0
  -26.7113  -32.5529   23.1159 H   0  0  0  0  0  0
  -25.0055  -33.9773   25.0474 H   0  0  0  0  0  0
  -22.6895  -31.3099   21.4144 H   0  0  0  0  0  0
  -23.3746  -35.9656   23.3313 H   0  0  0  0  0  0
  -24.3588  -36.8918   22.2053 H   0  0  0  0  0  0
  -23.7247  -37.6521   23.6650 H   0  0  0  0  0  0
  -26.0434  -31.6037   20.5978 H   0  0  0  0  0  0
  -26.8163  -30.8841   21.9827 H   0  0  0  0  0  0
  -28.0979  -29.1074   21.1487 H   0  0  0  0  0  0
  -26.0287  -25.9910   18.9809 H   0  0  0  0  0  0
  -23.9718  -27.3012   19.0319 H   0  0  0  0  0  0
  -23.7149  -30.6023   19.4058 H   0  0  0  0  0  0
  -22.7311  -29.2458   19.8713 H   0  0  0  0  0  0
  -25.1289  -36.1978   25.0829 H   0  0  0  0  0  0
  -20.9945  -28.3212   24.1439 H   0  0  0  0  0  0
  -20.5650  -26.2253   23.3600 H   0  0  0  0  0  0
  -21.6626  -26.7426   22.1217 H   0  0  0  0  0  0
  -19.6901  -25.6292   21.1221 H   0  0  0  0  0  0
  -19.6685  -27.3198   20.6739 H   0  0  0  0  0  0
  -17.4186  -26.6655   21.4023 H   0  0  0  0  0  0
  -18.0324  -26.0052   22.9013 H   0  0  0  0  0  0
  -19.7935  -30.7242   24.2267 H   0  0  0  0  0  0
  -17.5019  -31.6259   24.5166 H   0  0  0  0  0  0
  -15.5346  -30.2984   23.7653 H   0  0  0  0  0  0
  -15.8658  -28.0833   22.7033 H   0  0  0  0  0  0
  -24.5906  -30.7060   25.7834 H   0  0  0  0  0  0
  -24.8957  -32.2865   26.4952 H   0  0  0  0  0  0
  -25.8111  -30.8866   27.0230 H   0  0  0  0  0  0
  -26.2846  -29.6798   24.1145 H   0  0  0  0  0  0
  -27.4081  -29.7267   25.4539 H   0  0  0  0  0  0
  -27.8676  -30.4358   23.9231 H   0  0  0  0  0  0
  -27.2641  -33.3602   26.2096 H   0  0  0  0  0  0
  -28.3831  -32.6913   25.0308 H   0  0  0  0  0  0
  -28.0725  -31.8430   26.5383 H   0  0  0  0  0  0
  -28.2601  -38.0108   24.7510 H   0  0  0  0  0  0
  -28.1074  -36.2635   24.6290 H   0  0  0  0  0  0
  -27.2299  -37.1459   25.8867 H   0  0  0  0  0  0
  -20.9284  -29.8776   21.6984 H   0  0  0  0  0  0
  -26.0189  -38.2869   24.1406 H   0  0  0  0  0  0
  -29.3920  -17.9575   20.8302 H   0  0  0  0  0  0
  -32.5942  -19.7572   23.1274 H   0  0  0  0  0  0
  -32.2677  -15.4948   22.9193 H   0  0  0  0  0  0
  -29.8734  -26.4407   22.2274 H   0  0  0  0  0  0
  -30.6525  -24.9224   21.8673 H   0  0  0  0  0  0
  -29.9023  -25.1931   23.4385 H   0  0  0  0  0  0
  -27.4749  -26.6264   22.6286 H   0  0  0  0  0  0
  -27.2758  -25.2634   23.6615 H   0  0  0  0  0  0
  -26.3320  -25.3843   22.1824 H   0  0  0  0  0  0
  -29.6545  -22.9858   23.7471 H   0  0  0  0  0  0
  -28.4084  -21.7738   23.6582 H   0  0  0  0  0  0
  -28.0036  -23.3647   24.1986 H   0  0  0  0  0  0
  -29.1195  -22.6216   20.0274 H   0  0  0  0  0  0
  -30.3508  -22.8285   21.2297 H   0  0  0  0  0  0
  -27.5185  -24.8142   19.8207 H   0  0  0  0  0  0
  -29.2339  -24.9008   19.7801 H   0  0  0  0  0  0
  -31.3129  -21.0551   21.7196 H   0  0  0  0  0  0
  -29.1476  -15.2600   21.5412 H   0  0  0  0  0  0
  -26.8870  -21.7967   21.7064 H   0  0  0  0  0  0
  -26.6730  -23.0807   20.7406 H   0  0  0  0  0  0
  -26.2863  -23.1850   22.3202 H   0  0  0  0  0  0
  1 25  1  0  0  0
  1 30  2  0  0  0
  1 86  1  0  0  0
  2  3  1  0  0  0
  2 25  1  0  0  0
  2 90  1  0  0  0
  2 91  1  0  0  0
  3  4  1  0  0  0
  3 92  1  0  0  0
  3 93  1  0  0  0
  4  5  1  0  0  0
  4 94  1  0  0  0
  4 95  1  0  0  0
  5  6  1  0  0  0
  5 26  1  0  0  0
  5 96  1  0  0  0
  6 25  1  0  0  0
  6 97  1  0  0  0
  6 98  1  0  0  0
  7  8  2  0  0  0
  7 26  1  0  0  0
  7 29  1  0  0  0
  8  9  1  0  0  0
  8 22  1  0  0  0
  9 10  1  0  0  0
  9 27  2  0  0  0
 10 11  2  0  0  0
 10 15  1  0  0  0
 11 12  1  0  0  0
 11 99  1  0  0  0
 12 13  2  0  0  0
 12100  1  0  0  0
 13 14  1  0  0  0
 13 31  1  0  0  0
 14 15  2  0  0  0
 14101  1  0  0  0
 15102  1  0  0  0
 16 17  2  0  0  0
 16 21  1  0  0  0
 16 31  1  0  0  0
 17 18  1  0  0  0
 17103  1  0  0  0
 18 19  2  0  0  0
 18104  1  0  0  0
 19 20  1  0  0  0
 19 24  1  0  0  0
 20 21  2  0  0  0
 20105  1  0  0  0
 21 23  1  0  0  0
 22 28  1  0  0  0
 22 32  2  0  0  0
 26 27  1  0  0  0
 28106  1  0  0  0
 28107  1  0  0  0
 29108  1  0  0  0
 29109  1  0  0  0
 33 34  1  0  0  0
 33 66  1  0  0  0
 33 70  2  0  0  0
 34 36  1  0  0  0
 34 59  1  0  0  0
 34110  1  0  0  0
 35 44  2  0  0  0
 35 45  1  0  0  0
 35 68  1  0  0  0
 36 56  1  0  0  0
 36111  1  0  0  0
 37 39  1  0  0  0
 37 47  1  0  0  0
 37 66  1  0  0  0
 37112  1  0  0  0
 38 43  2  0  0  0
 38 46  1  0  0  0
 38 47  1  0  0  0
 39 64  1  0  0  0
 39 67  2  0  0  0
 40 52  1  0  0  0
 40 53  2  0  0  0
 40 58  1  0  0  0
 41113  1  0  0  0
 41114  1  0  0  0
 41115  1  0  0  0
 41 48  1  0  0  0
 42 43  1  0  0  0
 42 66  1  0  0  0
 42116  1  0  0  0
 42117  1  0  0  0
 43 44  1  0  0  0
 44118  1  0  0  0
 45 46  2  0  0  0
 45119  1  0  0  0
 46120  1  0  0  0
 47121  1  0  0  0
 47122  1  0  0  0
 48 56  1  0  0  0
 48 65  1  0  0  0
 48123  1  0  0  0
 49 50  1  0  0  0
 49 53  1  0  0  0
 49 64  1  0  0  0
 49124  1  0  0  0
 50 51  1  0  0  0
 50125  1  0  0  0
 50126  1  0  0  0
 51 52  1  0  0  0
 51127  1  0  0  0
 51128  1  0  0  0
 52129  1  0  0  0
 52130  1  0  0  0
 53 54  1  0  0  0
 54 55  2  0  0  0
 54131  1  0  0  0
 55 57  1  0  0  0
 55132  1  0  0  0
 56 69  2  0  0  0
 57 58  2  0  0  0
 57133  1  0  0  0
 58134  1  0  0  0
 59 60  1  0  0  0
 59 61  1  0  0  0
 59 62  1  0  0  0
 60135  1  0  0  0
 60136  1  0  0  0
 60137  1  0  0  0
 61138  1  0  0  0
 61139  1  0  0  0
 61140  1  0  0  0
 62141  1  0  0  0
 62142  1  0  0  0
 62143  1  0  0  0
 63 65  1  0  0  0
 63144  1  0  0  0
 63145  1  0  0  0
 63146  1  0  0  0
 64147  1  0  0  0
 65148  1  0  0  0
 68 82  1  0  0  0
 71 74  2  0  0  0
 71 75  1  0  0  0
 71149  1  0  0  0
 72 74  1  0  0  0
 72 76  2  0  0  0
 72150  1  0  0  0
 73 75  2  0  0  0
 73 76  1  0  0  0
 73151  1  0  0  0
 74 85  1  0  0  0
 75 86  1  0  0  0
 76 89  1  0  0  0
 77 81  1  0  0  0
 77 85  1  0  0  0
 77 88  2  0  0  0
 78152  1  0  0  0
 78153  1  0  0  0
 78154  1  0  0  0
 78 83  1  0  0  0
 79 83  1  0  0  0
 79155  1  0  0  0
 79156  1  0  0  0
 79157  1  0  0  0
 80158  1  0  0  0
 80159  1  0  0  0
 80160  1  0  0  0
 80 84  1  0  0  0
 81 84  1  0  0  0
 81161  1  0  0  0
 81162  1  0  0  0
 82 83  1  0  0  0
 82163  1  0  0  0
 82164  1  0  0  0
 83 84  1  0  0  0
 84 87  1  0  0  0
 85165  1  0  0  0
 86166  1  0  0  0
 87167  1  0  0  0
 87168  1  0  0  0
 87169  1  0  0  0
M  CHG  1  87   1
M  ISO  4   1 100  68 101  82 101  86 100
M  END
> <chiral flag>
0

> <version>
0

> <s_m_source_file>
/data/baiqing/PycharmProjects/Reinvent-master-3.2/result/LINK_invent/BTK/process_docking_weight1_custom_product_contain_oxygen_bond_distance_aromatic_linkinvent_7_9_3/rearranged_h_0143.sdf

> <i_m_source_file_index>
10

> <r_mmod_Potential_Energy-OPLS-2005>
-198.256652832031

> <r_mmod_Stretch_Energy-OPLS-2005>
50.1774635314941

> <r_mmod_Bend_Energy-OPLS-2005>
121.573822021484

> <r_mmod_Torsional_Energy-OPLS-2005>
257.376800537109

> <r_mmod_Improper_Torsional_Energy-OPLS-2005>
2.76019144058228

> <r_mmod_Van_der_Waal_Energy-OPLS-2005>
171.658294677734

> <r_mmod_Electrostatic_Energy-OPLS-2005>
-336.926483154297

> <r_mmod_Solvation_Energy-OPLS-2005>
-475.839904785156

> <b_mmod_Minimization_Converged-OPLS-2005>
0

> <r_mmod_RMS_Derivative-OPLS-2005>
0.803159475326538

$$$$
10
                    3D
 Structure written by MMmdl.
162171  0  0  1  0            999 V2000
  -30.6742  -14.5974   20.5059 C   0  0  0  0  0  0
  -30.4217  -12.3686   19.4490 C   0  0  0  0  0  0
  -29.4967  -12.4954   18.2208 C   0  0  0  0  0  0
  -28.0207  -12.3490   18.6325 C   0  0  0  0  0  0
  -27.6500  -13.2229   19.8606 C   0  0  2  0  0  0
  -28.6953  -13.0901   20.9925 C   0  0  0  0  0  0
  -25.2546  -13.8221   20.5701 C   0  0  0  0  0  0
  -24.1816  -13.0475   20.9187 C   0  0  0  0  0  0
  -24.6384  -11.6941   20.8734 C   0  0  0  0  0  0
  -23.9050  -10.4319   21.0392 C   0  0  0  0  0  0
  -24.3600   -9.4241   21.9180 C   0  0  0  0  0  0
  -23.6284   -8.2275   22.0748 C   0  0  0  0  0  0
  -22.4276   -8.0294   21.3539 C   0  0  0  0  0  0
  -21.9899   -9.0263   20.4646 C   0  0  0  0  0  0
  -22.7219  -10.2154   20.3041 C   0  0  0  0  0  0
  -21.6855   -6.0734   22.5277 C   0  0  0  0  0  0
  -21.4020   -6.5624   23.8212 C   0  0  0  0  0  0
  -21.3662   -5.6775   24.9167 C   0  0  0  0  0  0
  -21.6035   -4.3037   24.7217 C   0  0  0  0  0  0
  -21.8825   -3.8134   23.4339 C   0  0  0  0  0  0
  -21.9209   -4.6961   22.3397 C   0  0  0  0  0  0
  -22.7836  -13.5272   21.1818 C   0  0  0  0  0  0
  -22.1668   -4.2150   21.0971 F   0  0  0  0  0  0
  -21.5624   -3.4517   25.7726 F   0  0  0  0  0  0
  -30.0156  -13.4011   20.4248 N   0  0  0  0  0  0
  -26.2967  -12.9412   20.3314 N   0  0  0  0  0  0
  -25.9309  -11.6552   20.5720 N   0  0  0  0  0  0
  -22.0459  -12.8282   22.0372 N   0  0  0  0  0  0
  -25.4241  -15.1948   20.4125 N   0  0  0  0  0  0
  -31.8403  -14.7027   20.1185 O   0  0  0  0  0  0
  -21.6643   -6.8890   21.4244 O   0  0  0  0  0  0
  -22.3536  -14.5583   20.6659 O   0  0  0  0  0  0
  -24.6196  -31.8620   23.2060 C   0  0  0  0  0  0
  -25.9080  -32.4783   23.8353 C   0  0  1  0  0  0
  -27.2305  -27.3577   20.1068 C   0  0  0  0  0  0
  -25.5935  -33.8582   24.2307 N   0  0  0  0  0  0
  -23.4103  -30.4902   21.5450 C   0  0  2  0  0  0
  -24.8563  -28.9434   20.1117 C   0  0  0  0  0  0
  -22.7440  -29.4651   22.4916 C   0  0  0  0  0  0
  -18.0289  -28.1375   22.8495 C   0  0  0  0  0  0
  -24.1497  -36.7297   23.2637 C   0  0  0  0  0  0
  -25.9453  -30.8069   21.3685 C   0  0  0  0  0  0
  -26.0200  -29.4354   20.7118 C   0  0  0  0  0  0
  -27.2055  -28.6523   20.7026 C   0  0  0  0  0  0
  -26.0381  -26.8970   19.5016 C   0  0  0  0  0  0
  -24.8645  -27.6754   19.5048 C   0  0  0  0  0  0
  -23.6248  -29.8250   20.1582 C   0  0  0  0  0  0
  -25.4120  -36.3082   24.0328 C   0  0  1  0  0  0
  -20.5879  -28.3699   23.1301 C   0  0  2  0  0  0
  -20.6810  -26.9408   22.5432 C   0  0  0  0  0  0
  -19.5781  -26.6335   21.5241 C   0  0  0  0  0  0
  -18.1940  -26.7930   22.1618 C   0  0  0  0  0  0
  -19.1540  -28.8852   23.2898 C   0  0  0  0  0  0
  -18.9466  -30.1451   23.8913 C   0  0  0  0  0  0
  -17.6478  -30.6598   24.0558 C   0  0  0  0  0  0
  -25.9043  -34.9447   23.5104 C   0  0  0  0  0  0
  -16.5372  -29.9101   23.6313 C   0  0  0  0  0  0
  -16.7288  -28.6509   23.0343 C   0  0  0  0  0  0
  -26.4512  -31.6579   25.0705 C   0  0  0  0  0  0
  -25.3781  -31.3709   26.1465 C   0  0  0  0  0  0
  -27.0346  -30.3008   24.6110 C   0  0  0  0  0  0
  -27.6069  -32.4304   25.7480 C   0  0  0  0  0  0
  -27.5587  -37.1809   24.8463 C   0  0  0  0  0  0
  -21.4151  -29.3082   22.3700 N   0  0  0  0  0  0
  -26.4305  -37.3776   23.9409 N   0  0  0  0  0  0
  -24.6771  -31.0691   22.0977 N   0  0  0  0  0  0
  -23.4205  -28.8158   23.2934 O   0  0  0  0  0  0
  -28.3954  -26.5894   20.1537 O   0  0  0  0  0  0
  -26.5572  -34.8907   22.4646 O   0  0  0  0  0  0
  -23.5382  -32.1400   23.7430 O   0  0  0  0  0  0
  -31.5693  -19.0539   20.0487 C   0  0  0  0  0  0
  -30.5826  -19.9721   20.4658 C   0  0  0  0  0  0
  -31.3831  -17.6588   20.1792 C   0  0  0  0  0  0
  -29.1993  -18.0703   21.1270 C   0  0  0  0  0  0
  -29.3826  -19.4933   21.0229 C   0  0  0  0  0  0
  -30.1867  -17.1204   20.7215 C   0  0  0  0  0  0
  -28.3507  -20.4109   21.5925 C   0  0  0  0  0  0
  -28.3543  -24.0438   20.5542 C   0  0  0  0  0  0
  -25.8104  -22.4120   20.0041 C   0  0  0  0  0  0
  -27.0201  -22.4391   19.0564 C   0  0  0  0  0  0
  -26.3502  -21.8085   21.3157 C   0  0  0  0  0  0
  -28.2197  -22.5425   20.0082 C   0  0  2  0  0  0
  -28.4847  -25.2507   19.5538 C   0  0  0  0  0  0
  -27.7952  -21.5603   21.0678 N   0  0  0  0  0  0
  -29.9296  -15.6854   20.8711 N   0  0  0  0  0  0
  -27.8785  -20.0256   22.7807 N   0  3  0  0  0  0
  -28.3566  -24.2779   21.7676 O   0  0  0  0  0  0
  -31.4647  -12.4625   19.1414 H   0  0  0  0  0  0
  -30.3294  -11.3792   19.8985 H   0  0  0  0  0  0
  -29.7464  -11.7313   17.4836 H   0  0  0  0  0  0
  -29.6512  -13.4564   17.7288 H   0  0  0  0  0  0
  -27.8491  -11.2968   18.8579 H   0  0  0  0  0  0
  -27.3645  -12.5834   17.7933 H   0  0  0  0  0  0
  -27.6690  -14.2561   19.5133 H   0  0  0  0  0  0
  -28.6983  -12.0801   21.4053 H   0  0  0  0  0  0
  -28.4461  -13.7537   21.8208 H   0  0  0  0  0  0
  -25.2748   -9.5732   22.4759 H   0  0  0  0  0  0
  -24.0000   -7.4676   22.7470 H   0  0  0  0  0  0
  -21.0820   -8.8772   19.8968 H   0  0  0  0  0  0
  -22.3657  -10.9681   19.6139 H   0  0  0  0  0  0
  -21.1999   -7.6135   23.9709 H   0  0  0  0  0  0
  -21.1474   -6.0501   25.9071 H   0  0  0  0  0  0
  -22.0603   -2.7599   23.2830 H   0  0  0  0  0  0
  -22.4058  -11.9972   22.4813 H   0  0  0  0  0  0
  -21.1063  -13.1321   22.2518 H   0  0  0  0  0  0
  -24.6532  -15.8430   20.5331 H   0  0  0  0  0  0
  -26.2519  -15.6355   20.0302 H   0  0  0  0  0  0
  -26.7136  -32.5482   23.1097 H   0  0  0  0  0  0
  -25.0220  -33.9734   25.0542 H   0  0  0  0  0  0
  -22.7014  -31.3082   21.4054 H   0  0  0  0  0  0
  -23.3746  -35.9639   23.3291 H   0  0  0  0  0  0
  -24.3600  -36.8911   22.2051 H   0  0  0  0  0  0
  -23.7249  -37.6506   23.6647 H   0  0  0  0  0  0
  -26.0681  -31.5748   20.6032 H   0  0  0  0  0  0
  -26.8280  -30.8566   21.9933 H   0  0  0  0  0  0
  -28.1018  -29.0335   21.1742 H   0  0  0  0  0  0
  -25.9748  -25.9267   19.0359 H   0  0  0  0  0  0
  -23.9658  -27.2858   19.0454 H   0  0  0  0  0  0
  -23.7490  -30.6019   19.4025 H   0  0  0  0  0  0
  -22.7424  -29.2605   19.8530 H   0  0  0  0  0  0
  -25.1297  -36.1937   25.0821 H   0  0  0  0  0  0
  -20.9958  -28.3316   24.1419 H   0  0  0  0  0  0
  -20.5729  -26.2292   23.3634 H   0  0  0  0  0  0
  -21.6670  -26.7456   22.1215 H   0  0  0  0  0  0
  -19.6928  -25.6211   21.1347 H   0  0  0  0  0  0
  -19.6740  -27.3086   20.6721 H   0  0  0  0  0  0
  -17.4240  -26.6729   21.3982 H   0  0  0  0  0  0
  -18.0291  -26.0025   22.8960 H   0  0  0  0  0  0
  -19.7940  -30.7252   24.2301 H   0  0  0  0  0  0
  -17.5054  -31.6286   24.5142 H   0  0  0  0  0  0
  -15.5376  -30.3031   23.7620 H   0  0  0  0  0  0
  -15.8688  -28.0840   22.7035 H   0  0  0  0  0  0
  -24.5940  -30.7073   25.7838 H   0  0  0  0  0  0
  -24.9020  -32.2883   26.4929 H   0  0  0  0  0  0
  -25.8153  -30.8887   27.0216 H   0  0  0  0  0  0
  -26.2902  -29.6752   24.1186 H   0  0  0  0  0  0
  -27.4137  -29.7278   25.4585 H   0  0  0  0  0  0
  -27.8727  -30.4330   23.9260 H   0  0  0  0  0  0
  -27.2669  -33.3581   26.2098 H   0  0  0  0  0  0
  -28.3871  -32.6890   25.0307 H   0  0  0  0  0  0
  -28.0748  -31.8402   26.5378 H   0  0  0  0  0  0
  -28.2601  -38.0114   24.7510 H   0  0  0  0  0  0
  -28.1081  -36.2636   24.6280 H   0  0  0  0  0  0
  -27.2303  -37.1455   25.8869 H   0  0  0  0  0  0
  -20.9286  -29.8957   21.7064 H   0  0  0  0  0  0
  -26.0170  -38.2848   24.1405 H   0  0  0  0  0  0
  -32.4976  -19.4239   19.6362 H   0  0  0  0  0  0
  -30.7724  -21.0345   20.3915 H   0  0  0  0  0  0
  -32.1927  -17.0270   19.8499 H   0  0  0  0  0  0
  -28.2746  -17.6982   21.5461 H   0  0  0  0  0  0
  -24.9901  -21.8276   19.5875 H   0  0  0  0  0  0
  -25.4334  -23.4173   20.1905 H   0  0  0  0  0  0
  -26.9478  -23.2372   18.3184 H   0  0  0  0  0  0
  -27.0834  -21.5026   18.4987 H   0  0  0  0  0  0
  -25.8033  -20.8845   21.5193 H   0  0  0  0  0  0
  -26.1985  -22.4732   22.1668 H   0  0  0  0  0  0
  -29.1378  -22.2412   19.5066 H   0  0  0  0  0  0
  -27.8160  -25.1410   18.7052 H   0  0  0  0  0  0
  -29.4858  -25.1705   19.1309 H   0  0  0  0  0  0
  -29.0096  -15.4446   21.2045 H   0  0  0  0  0  0
  -28.3301  -19.2553   23.2453 H   0  0  0  0  0  0
  -27.3098  -20.6441   23.3317 H   0  0  0  0  0  0
  1 25  1  0  0  0
  1 30  2  0  0  0
  1 85  1  0  0  0
  2  3  1  0  0  0
  2 25  1  0  0  0
  2 88  1  0  0  0
  2 89  1  0  0  0
  3  4  1  0  0  0
  3 90  1  0  0  0
  3 91  1  0  0  0
  4  5  1  0  0  0
  4 92  1  0  0  0
  4 93  1  0  0  0
  5  6  1  0  0  0
  5 26  1  0  0  0
  5 94  1  0  0  0
  6 25  1  0  0  0
  6 95  1  0  0  0
  6 96  1  0  0  0
  7  8  2  0  0  0
  7 26  1  0  0  0
  7 29  1  0  0  0
  8  9  1  0  0  0
  8 22  1  0  0  0
  9 10  1  0  0  0
  9 27  2  0  0  0
 10 11  2  0  0  0
 10 15  1  0  0  0
 11 12  1  0  0  0
 11 97  1  0  0  0
 12 13  2  0  0  0
 12 98  1  0  0  0
 13 14  1  0  0  0
 13 31  1  0  0  0
 14 15  2  0  0  0
 14 99  1  0  0  0
 15100  1  0  0  0
 16 17  2  0  0  0
 16 21  1  0  0  0
 16 31  1  0  0  0
 17 18  1  0  0  0
 17101  1  0  0  0
 18 19  2  0  0  0
 18102  1  0  0  0
 19 20  1  0  0  0
 19 24  1  0  0  0
 20 21  2  0  0  0
 20103  1  0  0  0
 21 23  1  0  0  0
 22 28  1  0  0  0
 22 32  2  0  0  0
 26 27  1  0  0  0
 28104  1  0  0  0
 28105  1  0  0  0
 29106  1  0  0  0
 29107  1  0  0  0
 33 34  1  0  0  0
 33 66  1  0  0  0
 33 70  2  0  0  0
 34 36  1  0  0  0
 34 59  1  0  0  0
 34108  1  0  0  0
 35 44  2  0  0  0
 35 45  1  0  0  0
 35 68  1  0  0  0
 36 56  1  0  0  0
 36109  1  0  0  0
 37 39  1  0  0  0
 37 47  1  0  0  0
 37 66  1  0  0  0
 37110  1  0  0  0
 38 43  2  0  0  0
 38 46  1  0  0  0
 38 47  1  0  0  0
 39 64  1  0  0  0
 39 67  2  0  0  0
 40 52  1  0  0  0
 40 53  2  0  0  0
 40 58  1  0  0  0
 41111  1  0  0  0
 41112  1  0  0  0
 41113  1  0  0  0
 41 48  1  0  0  0
 42 43  1  0  0  0
 42 66  1  0  0  0
 42114  1  0  0  0
 42115  1  0  0  0
 43 44  1  0  0  0
 44116  1  0  0  0
 45 46  2  0  0  0
 45117  1  0  0  0
 46118  1  0  0  0
 47119  1  0  0  0
 47120  1  0  0  0
 48 56  1  0  0  0
 48 65  1  0  0  0
 48121  1  0  0  0
 49 50  1  0  0  0
 49 53  1  0  0  0
 49 64  1  0  0  0
 49122  1  0  0  0
 50 51  1  0  0  0
 50123  1  0  0  0
 50124  1  0  0  0
 51 52  1  0  0  0
 51125  1  0  0  0
 51126  1  0  0  0
 52127  1  0  0  0
 52128  1  0  0  0
 53 54  1  0  0  0
 54 55  2  0  0  0
 54129  1  0  0  0
 55 57  1  0  0  0
 55130  1  0  0  0
 56 69  2  0  0  0
 57 58  2  0  0  0
 57131  1  0  0  0
 58132  1  0  0  0
 59 60  1  0  0  0
 59 61  1  0  0  0
 59 62  1  0  0  0
 60133  1  0  0  0
 60134  1  0  0  0
 60135  1  0  0  0
 61136  1  0  0  0
 61137  1  0  0  0
 61138  1  0  0  0
 62139  1  0  0  0
 62140  1  0  0  0
 62141  1  0  0  0
 63 65  1  0  0  0
 63142  1  0  0  0
 63143  1  0  0  0
 63144  1  0  0  0
 64145  1  0  0  0
 65146  1  0  0  0
 68 83  1  0  0  0
 71 72  2  0  0  0
 71 73  1  0  0  0
 71147  1  0  0  0
 72 75  1  0  0  0
 72148  1  0  0  0
 73 76  2  0  0  0
 73149  1  0  0  0
 74 75  2  0  0  0
 74 76  1  0  0  0
 74150  1  0  0  0
 75 77  1  0  0  0
 76 85  1  0  0  0
 77 84  1  0  0  0
 77 86  2  0  0  0
 78 83  1  0  0  0
 78 87  2  0  0  0
 78 82  1  0  0  0
 79 80  1  0  0  0
 79 81  1  0  0  0
 79151  1  0  0  0
 79152  1  0  0  0
 80 82  1  0  0  0
 80153  1  0  0  0
 80154  1  0  0  0
 81 84  1  0  0  0
 81155  1  0  0  0
 81156  1  0  0  0
 82 84  1  0  0  0
 82157  1  0  0  0
 83158  1  0  0  0
 83159  1  0  0  0
 85160  1  0  0  0
 86161  1  0  0  0
 86162  1  0  0  0
M  CHG  1  86   1
M  ISO  4   1 100  68 101  83 101  85 100
M  END
> <chiral flag>
0

> <version>
0

> <s_m_source_file>
/data/baiqing/PycharmProjects/Reinvent-master-3.2/result/LINK_invent/BTK/process_docking_weight1_custom_product_contain_oxygen_bond_distance_aromatic_linkinvent_7_9_3/rearranged_h_0143.sdf

> <i_m_source_file_index>
11

> <r_mmod_Potential_Energy-OPLS-2005>
-16.2948951721191

> <r_mmod_Stretch_Energy-OPLS-2005>
73.4437561035156

> <r_mmod_Bend_Energy-OPLS-2005>
189.94694519043

> <r_mmod_Torsional_Energy-OPLS-2005>
293.770812988281

> <r_mmod_Improper_Torsional_Energy-OPLS-2005>
5.87732744216919

> <r_mmod_Van_der_Waal_Energy-OPLS-2005>
156.106948852539

> <r_mmod_Electrostatic_Energy-OPLS-2005>
-339.557434082031

> <r_mmod_Solvation_Energy-OPLS-2005>
-429.717895507812

> <b_mmod_Minimization_Converged-OPLS-2005>
0

> <r_mmod_RMS_Derivative-OPLS-2005>
3.16217470169067

$$$$
11
                    3D
 Structure written by MMmdl.
175184  0  0  1  0            999 V2000
  -30.7028  -14.5077   20.5514 C   0  0  0  0  0  0
  -30.4286  -12.3203   19.4348 C   0  0  0  0  0  0
  -29.5005  -12.4957   18.2130 C   0  0  0  0  0  0
  -28.0216  -12.3546   18.6249 C   0  0  0  0  0  0
  -27.6633  -13.2086   19.8717 C   0  0  2  0  0  0
  -28.7076  -13.0162   20.9980 C   0  0  0  0  0  0
  -25.2610  -13.8161   20.5680 C   0  0  0  0  0  0
  -24.1858  -13.0439   20.9176 C   0  0  0  0  0  0
  -24.6415  -11.6907   20.8743 C   0  0  0  0  0  0
  -23.9077  -10.4303   21.0403 C   0  0  0  0  0  0
  -24.3631   -9.4213   21.9174 C   0  0  0  0  0  0
  -23.6301   -8.2252   22.0751 C   0  0  0  0  0  0
  -22.4286   -8.0292   21.3535 C   0  0  0  0  0  0
  -21.9922   -9.0276   20.4655 C   0  0  0  0  0  0
  -22.7245  -10.2153   20.3063 C   0  0  0  0  0  0
  -21.6861   -6.0749   22.5276 C   0  0  0  0  0  0
  -21.4025   -6.5650   23.8212 C   0  0  0  0  0  0
  -21.3655   -5.6797   24.9170 C   0  0  0  0  0  0
  -21.6038   -4.3063   24.7222 C   0  0  0  0  0  0
  -21.8819   -3.8163   23.4347 C   0  0  0  0  0  0
  -21.9196   -4.6975   22.3401 C   0  0  0  0  0  0
  -22.7887  -13.5251   21.1832 C   0  0  0  0  0  0
  -22.1657   -4.2161   21.0977 F   0  0  0  0  0  0
  -21.5624   -3.4540   25.7735 F   0  0  0  0  0  0
  -30.0390  -13.3201   20.4445 N   0  0  0  0  0  0
  -26.3051  -12.9339   20.3359 N   0  0  0  0  0  0
  -25.9342  -11.6500   20.5777 N   0  0  0  0  0  0
  -22.0534  -12.8256   22.0406 N   0  0  0  0  0  0
  -25.4330  -15.1887   20.4089 N   0  0  0  0  0  0
  -31.8338  -14.6687   20.0880 O   0  0  0  0  0  0
  -21.6645   -6.8892   21.4237 O   0  0  0  0  0  0
  -22.3567  -14.5550   20.6679 O   0  0  0  0  0  0
  -24.6206  -31.8688   23.2180 C   0  0  0  0  0  0
  -25.9107  -32.4820   23.8440 C   0  0  1  0  0  0
  -27.2035  -27.3880   20.0559 C   0  0  0  0  0  0
  -25.5958  -33.8629   24.2331 N   0  0  0  0  0  0
  -23.4072  -30.5050   21.5620 C   0  0  2  0  0  0
  -24.8406  -28.9880   20.1127 C   0  0  0  0  0  0
  -22.7454  -29.4673   22.4994 C   0  0  0  0  0  0
  -18.0292  -28.1360   22.8484 C   0  0  0  0  0  0
  -24.1491  -36.7312   23.2625 C   0  0  0  0  0  0
  -25.9530  -30.8079   21.3980 C   0  0  0  0  0  0
  -26.0139  -29.4535   20.7189 C   0  0  0  0  0  0
  -27.1928  -28.6591   20.6973 C   0  0  0  0  0  0
  -26.0002  -26.9885   19.4260 C   0  0  0  0  0  0
  -24.8310  -27.7505   19.4699 C   0  0  0  0  0  0
  -23.6148  -29.8655   20.1697 C   0  0  0  0  0  0
  -25.4123  -36.3109   24.0313 C   0  0  1  0  0  0
  -20.5894  -28.3657   23.1282 C   0  0  2  0  0  0
  -20.6787  -26.9387   22.5393 C   0  0  0  0  0  0
  -19.5765  -26.6366   21.5195 C   0  0  0  0  0  0
  -18.1945  -26.7913   22.1609 C   0  0  0  0  0  0
  -19.1543  -28.8833   23.2872 C   0  0  0  0  0  0
  -18.9470  -30.1451   23.8865 C   0  0  0  0  0  0
  -17.6467  -30.6565   24.0561 C   0  0  0  0  0  0
  -25.9056  -34.9473   23.5105 C   0  0  0  0  0  0
  -16.5359  -29.9063   23.6331 C   0  0  0  0  0  0
  -16.7280  -28.6483   23.0347 C   0  0  0  0  0  0
  -26.4499  -31.6648   25.0812 C   0  0  0  0  0  0
  -25.3747  -31.3838   26.1562 C   0  0  0  0  0  0
  -27.0350  -30.3044   24.6351 C   0  0  0  0  0  0
  -27.6055  -32.4431   25.7533 C   0  0  0  0  0  0
  -27.5594  -37.1800   24.8449 C   0  0  0  0  0  0
  -21.4185  -29.3024   22.3706 N   0  0  0  0  0  0
  -26.4300  -37.3802   23.9402 N   0  0  0  0  0  0
  -24.6778  -31.0758   22.1124 N   0  0  0  0  0  0
  -23.4214  -28.8192   23.3027 O   0  0  0  0  0  0
  -28.3529  -26.5895   20.0955 O   0  0  0  0  0  0
  -26.5602  -34.8913   22.4658 O   0  0  0  0  0  0
  -23.5390  -32.1480   23.7533 O   0  0  0  0  0  0
  -28.9793  -19.1280   20.8771 C   0  0  0  0  0  0
  -28.9665  -17.7380   21.1243 C   0  0  0  0  0  0
  -31.3033  -17.6148   20.5133 C   0  0  0  0  0  0
  -30.1424  -19.7887   20.4196 C   0  0  0  0  0  0
  -31.3261  -19.0122   20.2535 C   0  0  0  0  0  0
  -30.1169  -16.9469   20.9086 C   0  0  0  0  0  0
  -30.0363  -21.2222   19.9826 C   0  0  0  0  0  0
  -32.6934  -20.1165   18.3195 C   0  0  0  0  0  0
  -33.5229  -18.9412   18.7730 C   0  0  0  0  0  0
  -32.5990  -19.6385   19.7503 C   0  0  0  0  0  0
  -30.9773  -24.5508   21.9632 C   0  0  0  0  0  0
  -28.7745  -23.4806   21.9074 C   0  0  0  0  0  0
  -27.3521  -24.3179   19.4013 C   0  0  0  0  0  0
  -28.6745  -25.8003   17.8560 C   0  0  0  0  0  0
  -30.7711  -22.3498   20.7569 C   0  0  0  0  0  0
  -29.8472  -24.6084   19.7296 C   0  0  0  0  0  0
  -30.0384  -23.7307   21.0464 C   0  0  0  0  0  0
  -28.5118  -25.3475   19.3278 C   0  0  0  0  0  0
  -29.3665  -21.4807   18.9430 N   0  0  0  0  0  0
  -29.9894  -15.5239   21.0928 N   0  0  0  0  0  0
  -31.4733  -12.4185   19.1328 H   0  0  0  0  0  0
  -30.3319  -11.3142   19.8489 H   0  0  0  0  0  0
  -29.7451  -11.7569   17.4485 H   0  0  0  0  0  0
  -29.6647  -13.4727   17.7563 H   0  0  0  0  0  0
  -27.8405  -11.2994   18.8321 H   0  0  0  0  0  0
  -27.3684  -12.6102   17.7889 H   0  0  0  0  0  0
  -27.6991  -14.2524   19.5583 H   0  0  0  0  0  0
  -28.6902  -11.9873   21.3614 H   0  0  0  0  0  0
  -28.4626  -13.6317   21.8652 H   0  0  0  0  0  0
  -25.2783   -9.5676   22.4728 H   0  0  0  0  0  0
  -24.0007   -7.4648   22.7471 H   0  0  0  0  0  0
  -21.0851   -8.8814   19.8971 H   0  0  0  0  0  0
  -22.3709  -10.9701   19.6189 H   0  0  0  0  0  0
  -21.2024   -7.6156   23.9723 H   0  0  0  0  0  0
  -21.1469   -6.0523   25.9071 H   0  0  0  0  0  0
  -22.0601   -2.7626   23.2838 H   0  0  0  0  0  0
  -22.4164  -11.9938   22.4815 H   0  0  0  0  0  0
  -21.1160  -13.1289   22.2617 H   0  0  0  0  0  0
  -24.6661  -15.8416   20.5258 H   0  0  0  0  0  0
  -26.2824  -15.6304   20.0826 H   0  0  0  0  0  0
  -26.7171  -32.5456   23.1182 H   0  0  0  0  0  0
  -25.0140  -33.9815   25.0494 H   0  0  0  0  0  0
  -22.6971  -31.3244   21.4369 H   0  0  0  0  0  0
  -23.3743  -35.9654   23.3311 H   0  0  0  0  0  0
  -24.3561  -36.8912   22.2030 H   0  0  0  0  0  0
  -23.7261  -37.6527   23.6631 H   0  0  0  0  0  0
  -26.1190  -31.5917   20.6578 H   0  0  0  0  0  0
  -26.8190  -30.8138   22.0475 H   0  0  0  0  0  0
  -28.0940  -29.0159   21.1749 H   0  0  0  0  0  0
  -25.8836  -26.0924   18.8592 H   0  0  0  0  0  0
  -23.9336  -27.3887   18.9845 H   0  0  0  0  0  0
  -23.7413  -30.6548   19.4279 H   0  0  0  0  0  0
  -22.7311  -29.3052   19.8585 H   0  0  0  0  0  0
  -25.1313  -36.1960   25.0806 H   0  0  0  0  0  0
  -20.9974  -28.3205   24.1403 H   0  0  0  0  0  0
  -20.5699  -26.2258   23.3586 H   0  0  0  0  0  0
  -21.6656  -26.7435   22.1174 H   0  0  0  0  0  0
  -19.6924  -25.6277   21.1227 H   0  0  0  0  0  0
  -19.6710  -27.3173   20.6722 H   0  0  0  0  0  0
  -17.4224  -26.6667   21.4000 H   0  0  0  0  0  0
  -18.0341  -26.0049   22.8996 H   0  0  0  0  0  0
  -19.7945  -30.7290   24.2189 H   0  0  0  0  0  0
  -17.5017  -31.6229   24.5193 H   0  0  0  0  0  0
  -15.5361  -30.2949   23.7677 H   0  0  0  0  0  0
  -15.8680  -28.0801   22.7054 H   0  0  0  0  0  0
  -24.5804  -30.7331   25.7892 H   0  0  0  0  0  0
  -24.9088  -32.3045   26.5084 H   0  0  0  0  0  0
  -25.8052  -30.8898   27.0281 H   0  0  0  0  0  0
  -26.2959  -29.6786   24.1326 H   0  0  0  0  0  0
  -27.3923  -29.7346   25.4940 H   0  0  0  0  0  0
  -27.8899  -30.4287   23.9700 H   0  0  0  0  0  0
  -27.2616  -33.3675   26.2194 H   0  0  0  0  0  0
  -28.3771  -32.7122   25.0306 H   0  0  0  0  0  0
  -28.0847  -31.8550   26.5369 H   0  0  0  0  0  0
  -28.2617  -38.0096   24.7505 H   0  0  0  0  0  0
  -28.1088  -36.2624   24.6266 H   0  0  0  0  0  0
  -27.2302  -37.1447   25.8850 H   0  0  0  0  0  0
  -20.9356  -29.8744   21.6921 H   0  0  0  0  0  0
  -26.0182  -38.2869   24.1435 H   0  0  0  0  0  0
  -28.0637  -19.6908   20.9983 H   0  0  0  0  0  0
  -28.0414  -17.2777   21.4415 H   0  0  0  0  0  0
  -32.2158  -17.0558   20.3663 H   0  0  0  0  0  0
  -31.8498  -19.9086   17.6628 H   0  0  0  0  0  0
  -33.2093  -21.0571   18.1372 H   0  0  0  0  0  0
  -34.5936  -19.1163   18.8674 H   0  0  0  0  0  0
  -33.2407  -17.9627   18.3902 H   0  0  0  0  0  0
  -33.0622  -20.2496   20.5221 H   0  0  0  0  0  0
  -31.1981  -24.0274   22.8953 H   0  0  0  0  0  0
  -30.5308  -25.5108   22.2305 H   0  0  0  0  0  0
  -31.9340  -24.7607   21.4836 H   0  0  0  0  0  0
  -29.0358  -23.0774   22.8863 H   0  0  0  0  0  0
  -28.0936  -22.7540   21.4684 H   0  0  0  0  0  0
  -28.2219  -24.4037   22.0883 H   0  0  0  0  0  0
  -27.7165  -23.2989   19.4123 H   0  0  0  0  0  0
  -26.7213  -24.3195   18.5143 H   0  0  0  0  0  0
  -26.7257  -24.4539   20.2830 H   0  0  0  0  0  0
  -28.8471  -24.9501   17.1953 H   0  0  0  0  0  0
  -29.5151  -26.4845   17.7356 H   0  0  0  0  0  0
  -27.7904  -26.3100   17.4745 H   0  0  0  0  0  0
  -31.6977  -22.5547   20.2197 H   0  0  0  0  0  0
  -31.0900  -21.9223   21.7081 H   0  0  0  0  0  0
  -30.0856  -23.9546   18.8923 H   0  0  0  0  0  0
  -30.6483  -25.3465   19.6669 H   0  0  0  0  0  0
  -28.9550  -20.6421   18.5513 H   0  0  0  0  0  0
  -29.1021  -15.2226   21.4618 H   0  0  0  0  0  0
  1 25  1  0  0  0
  1 30  2  0  0  0
  1 90  1  0  0  0
  2  3  1  0  0  0
  2 25  1  0  0  0
  2 91  1  0  0  0
  2 92  1  0  0  0
  3  4  1  0  0  0
  3 93  1  0  0  0
  3 94  1  0  0  0
  4  5  1  0  0  0
  4 95  1  0  0  0
  4 96  1  0  0  0
  5  6  1  0  0  0
  5 26  1  0  0  0
  5 97  1  0  0  0
  6 25  1  0  0  0
  6 98  1  0  0  0
  6 99  1  0  0  0
  7  8  2  0  0  0
  7 26  1  0  0  0
  7 29  1  0  0  0
  8  9  1  0  0  0
  8 22  1  0  0  0
  9 10  1  0  0  0
  9 27  2  0  0  0
 10 11  2  0  0  0
 10 15  1  0  0  0
 11 12  1  0  0  0
 11100  1  0  0  0
 12 13  2  0  0  0
 12101  1  0  0  0
 13 14  1  0  0  0
 13 31  1  0  0  0
 14 15  2  0  0  0
 14102  1  0  0  0
 15103  1  0  0  0
 16 17  2  0  0  0
 16 21  1  0  0  0
 16 31  1  0  0  0
 17 18  1  0  0  0
 17104  1  0  0  0
 18 19  2  0  0  0
 18105  1  0  0  0
 19 20  1  0  0  0
 19 24  1  0  0  0
 20 21  2  0  0  0
 20106  1  0  0  0
 21 23  1  0  0  0
 22 28  1  0  0  0
 22 32  2  0  0  0
 26 27  1  0  0  0
 28107  1  0  0  0
 28108  1  0  0  0
 29109  1  0  0  0
 29110  1  0  0  0
 33 34  1  0  0  0
 33 66  1  0  0  0
 33 70  2  0  0  0
 34 36  1  0  0  0
 34 59  1  0  0  0
 34111  1  0  0  0
 35 44  2  0  0  0
 35 45  1  0  0  0
 35 68  1  0  0  0
 36 56  1  0  0  0
 36112  1  0  0  0
 37 39  1  0  0  0
 37 47  1  0  0  0
 37 66  1  0  0  0
 37113  1  0  0  0
 38 43  2  0  0  0
 38 46  1  0  0  0
 38 47  1  0  0  0
 39 64  1  0  0  0
 39 67  2  0  0  0
 40 52  1  0  0  0
 40 53  2  0  0  0
 40 58  1  0  0  0
 41114  1  0  0  0
 41115  1  0  0  0
 41116  1  0  0  0
 41 48  1  0  0  0
 42 43  1  0  0  0
 42 66  1  0  0  0
 42117  1  0  0  0
 42118  1  0  0  0
 43 44  1  0  0  0
 44119  1  0  0  0
 45 46  2  0  0  0
 45120  1  0  0  0
 46121  1  0  0  0
 47122  1  0  0  0
 47123  1  0  0  0
 48 56  1  0  0  0
 48 65  1  0  0  0
 48124  1  0  0  0
 49 50  1  0  0  0
 49 53  1  0  0  0
 49 64  1  0  0  0
 49125  1  0  0  0
 50 51  1  0  0  0
 50126  1  0  0  0
 50127  1  0  0  0
 51 52  1  0  0  0
 51128  1  0  0  0
 51129  1  0  0  0
 52130  1  0  0  0
 52131  1  0  0  0
 53 54  1  0  0  0
 54 55  2  0  0  0
 54132  1  0  0  0
 55 57  1  0  0  0
 55133  1  0  0  0
 56 69  2  0  0  0
 57 58  2  0  0  0
 57134  1  0  0  0
 58135  1  0  0  0
 59 60  1  0  0  0
 59 61  1  0  0  0
 59 62  1  0  0  0
 60136  1  0  0  0
 60137  1  0  0  0
 60138  1  0  0  0
 61139  1  0  0  0
 61140  1  0  0  0
 61141  1  0  0  0
 62142  1  0  0  0
 62143  1  0  0  0
 62144  1  0  0  0
 63 65  1  0  0  0
 63145  1  0  0  0
 63146  1  0  0  0
 63147  1  0  0  0
 64148  1  0  0  0
 65149  1  0  0  0
 68 88  1  0  0  0
 71 72  2  0  0  0
 71 74  1  0  0  0
 71150  1  0  0  0
 72 76  1  0  0  0
 72151  1  0  0  0
 73 75  1  0  0  0
 73 76  2  0  0  0
 73152  1  0  0  0
 74 75  2  0  0  0
 74 77  1  0  0  0
 75 80  1  0  0  0
 76 90  1  0  0  0
 77 85  1  0  0  0
 77 89  2  0  0  0
 78 79  1  0  0  0
 78 80  1  0  0  0
 78153  1  0  0  0
 78154  1  0  0  0
 79 80  1  0  0  0
 79155  1  0  0  0
 79156  1  0  0  0
 80157  1  0  0  0
 81158  1  0  0  0
 81159  1  0  0  0
 81160  1  0  0  0
 81 87  1  0  0  0
 82 87  1  0  0  0
 82161  1  0  0  0
 82162  1  0  0  0
 82163  1  0  0  0
 83164  1  0  0  0
 83165  1  0  0  0
 83166  1  0  0  0
 83 88  1  0  0  0
 84 88  1  0  0  0
 84167  1  0  0  0
 84168  1  0  0  0
 84169  1  0  0  0
 85 87  1  0  0  0
 85170  1  0  0  0
 85171  1  0  0  0
 86 87  1  0  0  0
 86 88  1  0  0  0
 86172  1  0  0  0
 86173  1  0  0  0
 89174  1  0  0  0
 90175  1  0  0  0
M  ISO  4   1 100  68 101  88 101  90 100
M  END
> <chiral flag>
0

> <version>
0

> <s_m_source_file>
/data/baiqing/PycharmProjects/Reinvent-master-3.2/result/LINK_invent/BTK/process_docking_weight1_custom_product_contain_oxygen_bond_distance_aromatic_linkinvent_7_9_3/rearranged_h_0143.sdf

> <i_m_source_file_index>
12

> <r_mmod_Potential_Energy-OPLS-2005>
168.804489135742

> <r_mmod_Stretch_Energy-OPLS-2005>
62.7590293884277

> <r_mmod_Bend_Energy-OPLS-2005>
167.631637573242

> <r_mmod_Torsional_Energy-OPLS-2005>
282.658874511719

> <r_mmod_Improper_Torsional_Energy-OPLS-2005>
4.45956802368164

> <r_mmod_Van_der_Waal_Energy-OPLS-2005>
178.447540283203

> <r_mmod_Electrostatic_Energy-OPLS-2005>
-358.640167236328

> <r_mmod_Solvation_Energy-OPLS-2005>
-192.229125976562

> <b_mmod_Minimization_Converged-OPLS-2005>
0

> <r_mmod_RMS_Derivative-OPLS-2005>
2.62192630767822

$$$$
12
                    3D
 Structure written by MMmdl.
151159  0  0  1  0            999 V2000
  -30.7366  -14.4943   20.5556 C   0  0  0  0  0  0
  -30.4061  -12.3132   19.4367 C   0  0  0  0  0  0
  -29.4920  -12.5067   18.2099 C   0  0  0  0  0  0
  -28.0144  -12.3604   18.6178 C   0  0  0  0  0  0
  -27.6556  -13.2166   19.8622 C   0  0  2  0  0  0
  -28.6995  -13.0519   20.9938 C   0  0  0  0  0  0
  -25.2550  -13.8137   20.5679 C   0  0  0  0  0  0
  -24.1805  -13.0392   20.9096 C   0  0  0  0  0  0
  -24.6352  -11.6862   20.8655 C   0  0  0  0  0  0
  -23.8999  -10.4241   21.0340 C   0  0  0  0  0  0
  -24.3542   -9.4186   21.9171 C   0  0  0  0  0  0
  -23.6225   -8.2225   22.0781 C   0  0  0  0  0  0
  -22.4229   -8.0242   21.3560 C   0  0  0  0  0  0
  -21.9822   -9.0189   20.4661 C   0  0  0  0  0  0
  -22.7127  -10.2078   20.3038 C   0  0  0  0  0  0
  -21.6834   -6.0703   22.5288 C   0  0  0  0  0  0
  -21.4017   -6.5642   23.8208 C   0  0  0  0  0  0
  -21.3666   -5.6809   24.9178 C   0  0  0  0  0  0
  -21.6045   -4.3062   24.7235 C   0  0  0  0  0  0
  -21.8814   -3.8121   23.4357 C   0  0  0  0  0  0
  -21.9181   -4.6930   22.3413 C   0  0  0  0  0  0
  -22.7840  -13.5236   21.1757 C   0  0  0  0  0  0
  -22.1663   -4.2095   21.0992 F   0  0  0  0  0  0
  -21.5625   -3.4572   25.7752 F   0  0  0  0  0  0
  -30.0311  -13.3330   20.4325 N   0  0  0  0  0  0
  -26.2990  -12.9344   20.3304 N   0  0  0  0  0  0
  -25.9293  -11.6483   20.5701 N   0  0  0  0  0  0
  -22.0423  -12.8339   22.0341 N   0  0  0  0  0  0
  -25.4255  -15.1872   20.4231 N   0  0  0  0  0  0
  -31.8740  -14.6096   20.0940 O   0  0  0  0  0  0
  -21.6622   -6.8835   21.4246 O   0  0  0  0  0  0
  -22.3562  -14.5545   20.6568 O   0  0  0  0  0  0
  -24.6173  -31.8695   23.2096 C   0  0  0  0  0  0
  -25.9047  -32.4841   23.8406 C   0  0  1  0  0  0
  -27.2198  -27.4154   20.0924 C   0  0  0  0  0  0
  -25.5898  -33.8644   24.2332 N   0  0  0  0  0  0
  -23.4077  -30.4981   21.5487 C   0  0  2  0  0  0
  -24.8522  -28.9747   20.1069 C   0  0  0  0  0  0
  -22.7433  -29.4679   22.4935 C   0  0  0  0  0  0
  -18.0283  -28.1391   22.8492 C   0  0  0  0  0  0
  -24.1497  -36.7317   23.2641 C   0  0  0  0  0  0
  -25.9439  -30.8273   21.3723 C   0  0  0  0  0  0
  -26.0173  -29.4670   20.7084 C   0  0  0  0  0  0
  -27.2070  -28.6979   20.6933 C   0  0  0  0  0  0
  -26.0329  -26.9568   19.4706 C   0  0  0  0  0  0
  -24.8572  -27.7215   19.4792 C   0  0  0  0  0  0
  -23.6176  -29.8415   20.1605 C   0  0  0  0  0  0
  -25.4116  -36.3130   24.0345 C   0  0  1  0  0  0
  -20.5880  -28.3677   23.1294 C   0  0  2  0  0  0
  -20.6766  -26.9410   22.5407 C   0  0  0  0  0  0
  -19.5751  -26.6391   21.5207 C   0  0  0  0  0  0
  -18.1926  -26.7943   22.1618 C   0  0  0  0  0  0
  -19.1538  -28.8843   23.2908 C   0  0  0  0  0  0
  -18.9462  -30.1440   23.8938 C   0  0  0  0  0  0
  -17.6469  -30.6595   24.0559 C   0  0  0  0  0  0
  -25.9039  -34.9495   23.5136 C   0  0  0  0  0  0
  -16.5358  -29.9099   23.6326 C   0  0  0  0  0  0
  -16.7271  -28.6515   23.0351 C   0  0  0  0  0  0
  -26.4457  -31.6626   25.0741 C   0  0  0  0  0  0
  -25.3693  -31.3732   26.1464 C   0  0  0  0  0  0
  -27.0283  -30.3062   24.6140 C   0  0  0  0  0  0
  -27.6047  -32.4338   25.7486 C   0  0  0  0  0  0
  -27.5602  -37.1808   24.8459 C   0  0  0  0  0  0
  -21.4153  -29.3049   22.3679 N   0  0  0  0  0  0
  -26.4306  -37.3807   23.9415 N   0  0  0  0  0  0
  -24.6746  -31.0792   22.1002 N   0  0  0  0  0  0
  -23.4203  -28.8189   23.2958 O   0  0  0  0  0  0
  -28.3546  -26.6190   20.1394 O   0  0  0  0  0  0
  -26.5606  -34.8938   22.4702 O   0  0  0  0  0  0
  -23.5351  -32.1448   23.7469 O   0  0  0  0  0  0
  -29.5475  -18.0235   21.1381 C   0  0  0  0  0  0
  -31.7933  -17.3850   21.0408 C   0  0  0  0  0  0
  -30.4930  -16.9421   21.0822 C   0  0  0  0  0  0
  -30.1168  -19.2845   21.0755 C   0  0  0  0  0  0
  -29.8792  -21.7472   20.9873 C   0  0  0  0  0  0
  -28.7951  -22.8400   20.9207 C   0  0  0  0  0  0
  -29.2769  -24.2811   20.5650 C   0  0  0  0  0  0
  -28.0817  -25.2020   20.2371 C   0  0  0  0  0  0
  -30.0791  -15.5602   21.0747 N   0  0  0  0  0  0
  -29.4312  -20.4683   21.0371 N   0  0  0  0  0  0
  -31.0682  -22.0692   20.9974 O   0  0  0  0  0  0
  -31.8676  -19.1269   21.0376 S   0  0  0  0  0  0
  -31.4566  -12.3695   19.1442 H   0  0  0  0  0  0
  -30.2713  -11.3141   19.8549 H   0  0  0  0  0  0
  -29.7427  -11.7866   17.4307 H   0  0  0  0  0  0
  -29.6538  -13.4982   17.7844 H   0  0  0  0  0  0
  -27.8267  -11.3059   18.8247 H   0  0  0  0  0  0
  -27.3609  -12.6277   17.7860 H   0  0  0  0  0  0
  -27.6862  -14.2580   19.5339 H   0  0  0  0  0  0
  -28.6769  -12.0365   21.3925 H   0  0  0  0  0  0
  -28.4579  -13.7060   21.8325 H   0  0  0  0  0  0
  -25.2676   -9.5683   22.4768 H   0  0  0  0  0  0
  -23.9895   -7.4646   22.7576 H   0  0  0  0  0  0
  -21.0705   -8.8638   19.9037 H   0  0  0  0  0  0
  -22.3495  -10.9578   19.6145 H   0  0  0  0  0  0
  -21.2050   -7.6163   23.9677 H   0  0  0  0  0  0
  -21.1514   -6.0571   25.9082 H   0  0  0  0  0  0
  -22.0589   -2.7579   23.2860 H   0  0  0  0  0  0
  -22.3966  -11.9996   22.4808 H   0  0  0  0  0  0
  -21.1075  -13.1493   22.2518 H   0  0  0  0  0  0
  -24.6527  -15.8358   20.5312 H   0  0  0  0  0  0
  -26.2902  -15.6404   20.1528 H   0  0  0  0  0  0
  -26.7123  -32.5543   23.1175 H   0  0  0  0  0  0
  -25.0016  -33.9818   25.0454 H   0  0  0  0  0  0
  -22.6983  -31.3171   21.4124 H   0  0  0  0  0  0
  -23.3779  -35.9630   23.3290 H   0  0  0  0  0  0
  -24.3601  -36.8939   22.2058 H   0  0  0  0  0  0
  -23.7218  -37.6507   23.6654 H   0  0  0  0  0  0
  -26.0757  -31.5981   20.6127 H   0  0  0  0  0  0
  -26.8265  -30.8650   21.9996 H   0  0  0  0  0  0
  -28.1031  -29.0696   21.1711 H   0  0  0  0  0  0
  -25.9801  -26.0038   18.9682 H   0  0  0  0  0  0
  -23.9668  -27.3417   18.9973 H   0  0  0  0  0  0
  -23.7272  -30.6219   19.4061 H   0  0  0  0  0  0
  -22.7429  -29.2625   19.8585 H   0  0  0  0  0  0
  -25.1293  -36.2006   25.0838 H   0  0  0  0  0  0
  -21.0015  -28.3249   24.1397 H   0  0  0  0  0  0
  -20.5660  -26.2292   23.3592 H   0  0  0  0  0  0
  -21.6633  -26.7436   22.1196 H   0  0  0  0  0  0
  -19.6895  -25.6301   21.1234 H   0  0  0  0  0  0
  -19.6699  -27.3203   20.6739 H   0  0  0  0  0  0
  -17.4198  -26.6707   21.4012 H   0  0  0  0  0  0
  -18.0321  -26.0083   22.9009 H   0  0  0  0  0  0
  -19.7933  -30.7230   24.2352 H   0  0  0  0  0  0
  -17.5023  -31.6287   24.5137 H   0  0  0  0  0  0
  -15.5354  -30.3013   23.7627 H   0  0  0  0  0  0
  -15.8673  -28.0840   22.7054 H   0  0  0  0  0  0
  -24.5871  -30.7099   25.7755 H   0  0  0  0  0  0
  -24.8870  -32.2881   26.4914 H   0  0  0  0  0  0
  -25.8001  -30.8864   27.0222 H   0  0  0  0  0  0
  -26.2823  -29.6837   24.1178 H   0  0  0  0  0  0
  -27.4020  -29.7300   25.4616 H   0  0  0  0  0  0
  -27.8690  -30.4381   23.9323 H   0  0  0  0  0  0
  -27.2692  -33.3632   26.2103 H   0  0  0  0  0  0
  -28.3815  -32.6911   25.0273 H   0  0  0  0  0  0
  -28.0764  -31.8436   26.5354 H   0  0  0  0  0  0
  -28.2601  -38.0127   24.7553 H   0  0  0  0  0  0
  -28.1118  -36.2663   24.6226 H   0  0  0  0  0  0
  -27.2328  -37.1384   25.8862 H   0  0  0  0  0  0
  -20.9302  -29.8793   21.6927 H   0  0  0  0  0  0
  -26.0210  -38.2894   24.1407 H   0  0  0  0  0  0
  -28.4836  -17.8459   21.1952 H   0  0  0  0  0  0
  -32.7188  -16.8190   20.9958 H   0  0  0  0  0  0
  -28.2723  -22.8603   21.8772 H   0  0  0  0  0  0
  -28.0591  -22.5206   20.1813 H   0  0  0  0  0  0
  -29.9415  -24.2520   19.7011 H   0  0  0  0  0  0
  -29.8512  -24.6964   21.3931 H   0  0  0  0  0  0
  -27.3149  -25.0501   21.0001 H   0  0  0  0  0  0
  -27.6761  -24.8400   19.2922 H   0  0  0  0  0  0
  -29.1226  -15.3755   21.3396 H   0  0  0  0  0  0
  -28.4237  -20.3823   21.0205 H   0  0  0  0  0  0
  1 25  1  0  0  0
  1 30  2  0  0  0
  1 79  1  0  0  0
  2  3  1  0  0  0
  2 25  1  0  0  0
  2 83  1  0  0  0
  2 84  1  0  0  0
  3  4  1  0  0  0
  3 85  1  0  0  0
  3 86  1  0  0  0
  4  5  1  0  0  0
  4 87  1  0  0  0
  4 88  1  0  0  0
  5  6  1  0  0  0
  5 26  1  0  0  0
  5 89  1  0  0  0
  6 25  1  0  0  0
  6 90  1  0  0  0
  6 91  1  0  0  0
  7  8  2  0  0  0
  7 26  1  0  0  0
  7 29  1  0  0  0
  8  9  1  0  0  0
  8 22  1  0  0  0
  9 10  1  0  0  0
  9 27  2  0  0  0
 10 11  2  0  0  0
 10 15  1  0  0  0
 11 12  1  0  0  0
 11 92  1  0  0  0
 12 13  2  0  0  0
 12 93  1  0  0  0
 13 14  1  0  0  0
 13 31  1  0  0  0
 14 15  2  0  0  0
 14 94  1  0  0  0
 15 95  1  0  0  0
 16 17  2  0  0  0
 16 21  1  0  0  0
 16 31  1  0  0  0
 17 18  1  0  0  0
 17 96  1  0  0  0
 18 19  2  0  0  0
 18 97  1  0  0  0
 19 20  1  0  0  0
 19 24  1  0  0  0
 20 21  2  0  0  0
 20 98  1  0  0  0
 21 23  1  0  0  0
 22 28  1  0  0  0
 22 32  2  0  0  0
 26 27  1  0  0  0
 28 99  1  0  0  0
 28100  1  0  0  0
 29101  1  0  0  0
 29102  1  0  0  0
 33 34  1  0  0  0
 33 66  1  0  0  0
 33 70  2  0  0  0
 34 36  1  0  0  0
 34 59  1  0  0  0
 34103  1  0  0  0
 35 44  2  0  0  0
 35 45  1  0  0  0
 35 68  1  0  0  0
 36 56  1  0  0  0
 36104  1  0  0  0
 37 39  1  0  0  0
 37 47  1  0  0  0
 37 66  1  0  0  0
 37105  1  0  0  0
 38 43  2  0  0  0
 38 46  1  0  0  0
 38 47  1  0  0  0
 39 64  1  0  0  0
 39 67  2  0  0  0
 40 52  1  0  0  0
 40 53  2  0  0  0
 40 58  1  0  0  0
 41106  1  0  0  0
 41107  1  0  0  0
 41108  1  0  0  0
 41 48  1  0  0  0
 42 43  1  0  0  0
 42 66  1  0  0  0
 42109  1  0  0  0
 42110  1  0  0  0
 43 44  1  0  0  0
 44111  1  0  0  0
 45 46  2  0  0  0
 45112  1  0  0  0
 46113  1  0  0  0
 47114  1  0  0  0
 47115  1  0  0  0
 48 56  1  0  0  0
 48 65  1  0  0  0
 48116  1  0  0  0
 49 50  1  0  0  0
 49 53  1  0  0  0
 49 64  1  0  0  0
 49117  1  0  0  0
 50 51  1  0  0  0
 50118  1  0  0  0
 50119  1  0  0  0
 51 52  1  0  0  0
 51120  1  0  0  0
 51121  1  0  0  0
 52122  1  0  0  0
 52123  1  0  0  0
 53 54  1  0  0  0
 54 55  2  0  0  0
 54124  1  0  0  0
 55 57  1  0  0  0
 55125  1  0  0  0
 56 69  2  0  0  0
 57 58  2  0  0  0
 57126  1  0  0  0
 58127  1  0  0  0
 59 60  1  0  0  0
 59 61  1  0  0  0
 59 62  1  0  0  0
 60128  1  0  0  0
 60129  1  0  0  0
 60130  1  0  0  0
 61131  1  0  0  0
 61132  1  0  0  0
 61133  1  0  0  0
 62134  1  0  0  0
 62135  1  0  0  0
 62136  1  0  0  0
 63 65  1  0  0  0
 63137  1  0  0  0
 63138  1  0  0  0
 63139  1  0  0  0
 64140  1  0  0  0
 65141  1  0  0  0
 68 78  1  0  0  0
 71 73  1  0  0  0
 71 74  2  0  0  0
 71142  1  0  0  0
 72 73  2  0  0  0
 72 82  1  0  0  0
 72143  1  0  0  0
 73 79  1  0  0  0
 74 80  1  0  0  0
 74 82  1  0  0  0
 75 76  1  0  0  0
 75 80  1  0  0  0
 75 81  2  0  0  0
 76 77  1  0  0  0
 76144  1  0  0  0
 76145  1  0  0  0
 77 78  1  0  0  0
 77146  1  0  0  0
 77147  1  0  0  0
 78148  1  0  0  0
 78149  1  0  0  0
 79150  1  0  0  0
 80151  1  0  0  0
M  ISO  4   1 100  68 101  78 101  79 100
M  END
> <chiral flag>
0

> <version>
0

> <s_m_source_file>
/data/baiqing/PycharmProjects/Reinvent-master-3.2/result/LINK_invent/BTK/process_docking_weight1_custom_product_contain_oxygen_bond_distance_aromatic_linkinvent_7_9_3/rearranged_h_0143.sdf

> <i_m_source_file_index>
13

> <r_mmod_Potential_Energy-OPLS-2005>
-110.96435546875

> <r_mmod_Stretch_Energy-OPLS-2005>
41.1924896240234

> <r_mmod_Bend_Energy-OPLS-2005>
112.244606018066

> <r_mmod_Torsional_Energy-OPLS-2005>
210.952239990234

> <r_mmod_Improper_Torsional_Energy-OPLS-2005>
3.31577563285828

> <r_mmod_Van_der_Waal_Energy-OPLS-2005>
145.147918701172

> <r_mmod_Electrostatic_Energy-OPLS-2005>
-398.847045898438

> <r_mmod_Solvation_Energy-OPLS-2005>
-245.32568359375

> <b_mmod_Minimization_Converged-OPLS-2005>
0

> <r_mmod_RMS_Derivative-OPLS-2005>
3.46301889419556

$$$$
13
                    3D
 Structure written by MMmdl.
157166  0  0  1  0            999 V2000
  -30.7025  -14.5200   20.5414 C   0  0  0  0  0  0
  -30.4280  -12.3246   19.4449 C   0  0  0  0  0  0
  -29.5018  -12.4966   18.2212 C   0  0  0  0  0  0
  -28.0213  -12.3693   18.6287 C   0  0  0  0  0  0
  -27.6651  -13.2202   19.8780 C   0  0  2  0  0  0
  -28.7091  -13.0263   21.0036 C   0  0  0  0  0  0
  -25.2611  -13.8205   20.5762 C   0  0  0  0  0  0
  -24.1867  -13.0459   20.9243 C   0  0  0  0  0  0
  -24.6429  -11.6934   20.8775 C   0  0  0  0  0  0
  -23.9087  -10.4314   21.0419 C   0  0  0  0  0  0
  -24.3621   -9.4225   21.9203 C   0  0  0  0  0  0
  -23.6293   -8.2259   22.0757 C   0  0  0  0  0  0
  -22.4281   -8.0297   21.3545 C   0  0  0  0  0  0
  -21.9924   -9.0280   20.4649 C   0  0  0  0  0  0
  -22.7258  -10.2161   20.3061 C   0  0  0  0  0  0
  -21.6858   -6.0740   22.5288 C   0  0  0  0  0  0
  -21.4017   -6.5641   23.8221 C   0  0  0  0  0  0
  -21.3643   -5.6795   24.9187 C   0  0  0  0  0  0
  -21.6036   -4.3056   24.7236 C   0  0  0  0  0  0
  -21.8821   -3.8149   23.4359 C   0  0  0  0  0  0
  -21.9197   -4.6969   22.3419 C   0  0  0  0  0  0
  -22.7878  -13.5238   21.1893 C   0  0  0  0  0  0
  -22.1665   -4.2151   21.0989 F   0  0  0  0  0  0
  -21.5623   -3.4536   25.7746 F   0  0  0  0  0  0
  -30.0411  -13.3292   20.4528 N   0  0  0  0  0  0
  -26.3058  -12.9401   20.3400 N   0  0  0  0  0  0
  -25.9363  -11.6555   20.5793 N   0  0  0  0  0  0
  -22.0484  -12.8212   22.0399 N   0  0  0  0  0  0
  -25.4318  -15.1934   20.4245 N   0  0  0  0  0  0
  -31.8279  -14.6880   20.0630 O   0  0  0  0  0  0
  -21.6646   -6.8891   21.4249 O   0  0  0  0  0  0
  -22.3578  -14.5559   20.6760 O   0  0  0  0  0  0
  -24.6217  -31.8683   23.2107 C   0  0  0  0  0  0
  -25.9097  -32.4824   23.8391 C   0  0  1  0  0  0
  -27.2139  -27.3871   20.0947 C   0  0  0  0  0  0
  -25.5944  -33.8618   24.2327 N   0  0  0  0  0  0
  -23.4083  -30.4990   21.5544 C   0  0  2  0  0  0
  -24.8483  -28.9711   20.1091 C   0  0  0  0  0  0
  -22.7440  -29.4698   22.4984 C   0  0  0  0  0  0
  -18.0268  -28.1399   22.8520 C   0  0  0  0  0  0
  -24.1459  -36.7247   23.2653 C   0  0  0  0  0  0
  -25.9458  -30.8215   21.3676 C   0  0  0  0  0  0
  -26.0172  -29.4559   20.7099 C   0  0  0  0  0  0
  -27.2036  -28.6734   20.6982 C   0  0  0  0  0  0
  -26.0164  -26.9469   19.4713 C   0  0  0  0  0  0
  -24.8467  -27.7194   19.4831 C   0  0  0  0  0  0
  -23.6134  -29.8433   20.1641 C   0  0  0  0  0  0
  -25.4088  -36.3092   24.0364 C   0  0  1  0  0  0
  -20.5880  -28.3691   23.1303 C   0  0  2  0  0  0
  -20.6774  -26.9427   22.5412 C   0  0  0  0  0  0
  -19.5735  -26.6408   21.5237 C   0  0  0  0  0  0
  -18.1909  -26.7953   22.1645 C   0  0  0  0  0  0
  -19.1537  -28.8857   23.2915 C   0  0  0  0  0  0
  -18.9484  -30.1468   23.8910 C   0  0  0  0  0  0
  -17.6493  -30.6609   24.0590 C   0  0  0  0  0  0
  -25.9041  -34.9473   23.5137 C   0  0  0  0  0  0
  -16.5365  -29.9131   23.6352 C   0  0  0  0  0  0
  -16.7264  -28.6549   23.0369 C   0  0  0  0  0  0
  -26.4507  -31.6599   25.0717 C   0  0  0  0  0  0
  -25.3746  -31.3715   26.1448 C   0  0  0  0  0  0
  -27.0351  -30.3048   24.6077 C   0  0  0  0  0  0
  -27.6072  -32.4330   25.7466 C   0  0  0  0  0  0
  -27.5563  -37.1778   24.8507 C   0  0  0  0  0  0
  -21.4163  -29.3055   22.3703 N   0  0  0  0  0  0
  -26.4261  -37.3793   23.9464 N   0  0  0  0  0  0
  -24.6783  -31.0753   22.1029 N   0  0  0  0  0  0
  -23.4200  -28.8244   23.3033 O   0  0  0  0  0  0
  -28.3422  -26.5702   20.1419 O   0  0  0  0  0  0
  -26.5596  -34.8967   22.4693 O   0  0  0  0  0  0
  -23.5394  -32.1435   23.7479 O   0  0  0  0  0  0
  -30.1650  -18.1049   21.2222 C   0  0  0  0  0  0
  -29.4645  -17.0710   19.2375 C   0  0  0  0  0  0
  -29.9265  -16.8717   20.5126 C   0  0  0  0  0  0
  -29.8984  -19.2394   20.4689 C   0  0  0  0  0  0
  -30.9460  -21.7423   18.7962 C   0  0  0  0  0  0
  -29.2188  -24.1566   20.1153 C   0  0  0  0  0  0
  -30.3859  -22.5435   17.6271 C   0  0  0  0  0  0
  -28.9122  -22.6617   18.0300 C   0  0  0  0  0  0
  -28.9796  -22.6975   19.5665 C   0  0  1  0  0  0
  -30.0224  -20.7091   20.8951 C   0  0  0  0  0  0
  -28.0784  -25.1698   19.8461 C   0  0  0  0  0  0
  -30.0748  -21.7333   19.8209 N   0  0  0  0  0  0
  -30.0227  -15.5568   21.0856 N   0  0  0  0  0  0
  -32.0099  -21.1219   18.7323 O   0  0  0  0  0  0
  -30.2469  -24.5041   20.7078 O   0  0  0  0  0  0
  -29.2953  -18.7710   18.8876 S   0  0  0  0  0  0
  -31.4729  -12.4161   19.1413 H   0  0  0  0  0  0
  -30.3316  -11.3211   19.8622 H   0  0  0  0  0  0
  -29.7403  -11.7502   17.4624 H   0  0  0  0  0  0
  -29.6767  -13.4682   17.7582 H   0  0  0  0  0  0
  -27.8209  -11.3160   18.8269 H   0  0  0  0  0  0
  -27.3775  -12.6441   17.7925 H   0  0  0  0  0  0
  -27.7011  -14.2654   19.5712 H   0  0  0  0  0  0
  -28.6894  -11.9963   21.3619 H   0  0  0  0  0  0
  -28.4701  -13.6435   21.8711 H   0  0  0  0  0  0
  -25.2746   -9.5691   22.4819 H   0  0  0  0  0  0
  -23.9990   -7.4634   22.7461 H   0  0  0  0  0  0
  -21.0859   -8.8798   19.8949 H   0  0  0  0  0  0
  -22.3705  -10.9710   19.6184 H   0  0  0  0  0  0
  -21.2010   -7.6155   23.9733 H   0  0  0  0  0  0
  -21.1448   -6.0521   25.9086 H   0  0  0  0  0  0
  -22.0608   -2.7611   23.2867 H   0  0  0  0  0  0
  -22.4045  -11.9850   22.4792 H   0  0  0  0  0  0
  -21.1089  -13.1256   22.2530 H   0  0  0  0  0  0
  -24.6843  -15.8524   20.6148 H   0  0  0  0  0  0
  -26.2715  -15.6403   20.0774 H   0  0  0  0  0  0
  -26.7170  -32.5506   23.1147 H   0  0  0  0  0  0
  -25.0106  -33.9749   25.0485 H   0  0  0  0  0  0
  -22.7011  -31.3196   21.4192 H   0  0  0  0  0  0
  -23.3761  -35.9536   23.3321 H   0  0  0  0  0  0
  -24.3527  -36.8822   22.2059 H   0  0  0  0  0  0
  -23.7168  -37.6446   23.6630 H   0  0  0  0  0  0
  -26.0635  -31.5854   20.5967 H   0  0  0  0  0  0
  -26.8357  -30.8687   21.9836 H   0  0  0  0  0  0
  -28.1018  -29.0434   21.1739 H   0  0  0  0  0  0
  -25.9342  -25.9972   18.9659 H   0  0  0  0  0  0
  -23.9500  -27.3432   19.0088 H   0  0  0  0  0  0
  -23.7265  -30.6251   19.4122 H   0  0  0  0  0  0
  -22.7334  -29.2712   19.8643 H   0  0  0  0  0  0
  -25.1255  -36.1923   25.0851 H   0  0  0  0  0  0
  -20.9980  -28.3241   24.1421 H   0  0  0  0  0  0
  -20.5691  -26.2303   23.3597 H   0  0  0  0  0  0
  -21.6638  -26.7463   22.1183 H   0  0  0  0  0  0
  -19.6907  -25.6336   21.1227 H   0  0  0  0  0  0
  -19.6674  -27.3260   20.6797 H   0  0  0  0  0  0
  -17.4190  -26.6725   21.4031 H   0  0  0  0  0  0
  -18.0286  -26.0074   22.9009 H   0  0  0  0  0  0
  -19.7963  -30.7294   24.2256 H   0  0  0  0  0  0
  -17.5060  -31.6284   24.5213 H   0  0  0  0  0  0
  -15.5386  -30.3072   23.7682 H   0  0  0  0  0  0
  -15.8636  -28.0905   22.7082 H   0  0  0  0  0  0
  -24.5981  -30.6992   25.7808 H   0  0  0  0  0  0
  -24.8878  -32.2874   26.4802 H   0  0  0  0  0  0
  -25.8092  -30.8987   27.0258 H   0  0  0  0  0  0
  -26.2902  -29.6787   24.1165 H   0  0  0  0  0  0
  -27.4210  -29.7293   25.4498 H   0  0  0  0  0  0
  -27.8683  -30.4405   23.9177 H   0  0  0  0  0  0
  -27.2718  -33.3692   26.1929 H   0  0  0  0  0  0
  -28.3924  -32.6770   25.0305 H   0  0  0  0  0  0
  -28.0669  -31.8515   26.5461 H   0  0  0  0  0  0
  -28.2618  -38.0042   24.7527 H   0  0  0  0  0  0
  -28.1006  -36.2580   24.6330 H   0  0  0  0  0  0
  -27.2275  -37.1412   25.8908 H   0  0  0  0  0  0
  -20.9321  -29.8755   21.6915 H   0  0  0  0  0  0
  -26.0138  -38.2855   24.1502 H   0  0  0  0  0  0
  -30.5138  -18.1249   22.2453 H   0  0  0  0  0  0
  -29.1802  -16.3421   18.4875 H   0  0  0  0  0  0
  -30.5161  -22.0379   16.6703 H   0  0  0  0  0  0
  -30.8710  -23.5194   17.5823 H   0  0  0  0  0  0
  -28.3690  -21.7703   17.7085 H   0  0  0  0  0  0
  -28.4175  -23.5134   17.5666 H   0  0  0  0  0  0
  -28.0423  -22.3232   19.9806 H   0  0  0  0  0  0
  -30.9174  -20.8324   21.5069 H   0  0  0  0  0  0
  -29.1861  -20.9509   21.5502 H   0  0  0  0  0  0
  -27.2183  -24.8269   20.4228 H   0  0  0  0  0  0
  -27.8220  -25.0973   18.7925 H   0  0  0  0  0  0
  -29.2376  -15.2832   21.6567 H   0  0  0  0  0  0
  1 25  1  0  0  0
  1 30  2  0  0  0
  1 83  1  0  0  0
  2  3  1  0  0  0
  2 25  1  0  0  0
  2 87  1  0  0  0
  2 88  1  0  0  0
  3  4  1  0  0  0
  3 89  1  0  0  0
  3 90  1  0  0  0
  4  5  1  0  0  0
  4 91  1  0  0  0
  4 92  1  0  0  0
  5  6  1  0  0  0
  5 26  1  0  0  0
  5 93  1  0  0  0
  6 25  1  0  0  0
  6 94  1  0  0  0
  6 95  1  0  0  0
  7  8  2  0  0  0
  7 26  1  0  0  0
  7 29  1  0  0  0
  8  9  1  0  0  0
  8 22  1  0  0  0
  9 10  1  0  0  0
  9 27  2  0  0  0
 10 11  2  0  0  0
 10 15  1  0  0  0
 11 12  1  0  0  0
 11 96  1  0  0  0
 12 13  2  0  0  0
 12 97  1  0  0  0
 13 14  1  0  0  0
 13 31  1  0  0  0
 14 15  2  0  0  0
 14 98  1  0  0  0
 15 99  1  0  0  0
 16 17  2  0  0  0
 16 21  1  0  0  0
 16 31  1  0  0  0
 17 18  1  0  0  0
 17100  1  0  0  0
 18 19  2  0  0  0
 18101  1  0  0  0
 19 20  1  0  0  0
 19 24  1  0  0  0
 20 21  2  0  0  0
 20102  1  0  0  0
 21 23  1  0  0  0
 22 28  1  0  0  0
 22 32  2  0  0  0
 26 27  1  0  0  0
 28103  1  0  0  0
 28104  1  0  0  0
 29105  1  0  0  0
 29106  1  0  0  0
 33 34  1  0  0  0
 33 66  1  0  0  0
 33 70  2  0  0  0
 34 36  1  0  0  0
 34 59  1  0  0  0
 34107  1  0  0  0
 35 44  2  0  0  0
 35 45  1  0  0  0
 35 68  1  0  0  0
 36 56  1  0  0  0
 36108  1  0  0  0
 37 39  1  0  0  0
 37 47  1  0  0  0
 37 66  1  0  0  0
 37109  1  0  0  0
 38 43  2  0  0  0
 38 46  1  0  0  0
 38 47  1  0  0  0
 39 64  1  0  0  0
 39 67  2  0  0  0
 40 52  1  0  0  0
 40 53  2  0  0  0
 40 58  1  0  0  0
 41110  1  0  0  0
 41111  1  0  0  0
 41112  1  0  0  0
 41 48  1  0  0  0
 42 43  1  0  0  0
 42 66  1  0  0  0
 42113  1  0  0  0
 42114  1  0  0  0
 43 44  1  0  0  0
 44115  1  0  0  0
 45 46  2  0  0  0
 45116  1  0  0  0
 46117  1  0  0  0
 47118  1  0  0  0
 47119  1  0  0  0
 48 56  1  0  0  0
 48 65  1  0  0  0
 48120  1  0  0  0
 49 50  1  0  0  0
 49 53  1  0  0  0
 49 64  1  0  0  0
 49121  1  0  0  0
 50 51  1  0  0  0
 50122  1  0  0  0
 50123  1  0  0  0
 51 52  1  0  0  0
 51124  1  0  0  0
 51125  1  0  0  0
 52126  1  0  0  0
 52127  1  0  0  0
 53 54  1  0  0  0
 54 55  2  0  0  0
 54128  1  0  0  0
 55 57  1  0  0  0
 55129  1  0  0  0
 56 69  2  0  0  0
 57 58  2  0  0  0
 57130  1  0  0  0
 58131  1  0  0  0
 59 60  1  0  0  0
 59 61  1  0  0  0
 59 62  1  0  0  0
 60132  1  0  0  0
 60133  1  0  0  0
 60134  1  0  0  0
 61135  1  0  0  0
 61136  1  0  0  0
 61137  1  0  0  0
 62138  1  0  0  0
 62139  1  0  0  0
 62140  1  0  0  0
 63 65  1  0  0  0
 63141  1  0  0  0
 63142  1  0  0  0
 63143  1  0  0  0
 64144  1  0  0  0
 65145  1  0  0  0
 68 81  1  0  0  0
 71 73  1  0  0  0
 71 74  2  0  0  0
 71146  1  0  0  0
 72 73  2  0  0  0
 72 86  1  0  0  0
 72147  1  0  0  0
 73 83  1  0  0  0
 74 80  1  0  0  0
 74 86  1  0  0  0
 75 77  1  0  0  0
 75 82  1  0  0  0
 75 84  2  0  0  0
 76 81  1  0  0  0
 76 85  2  0  0  0
 76 79  1  0  0  0
 77 78  1  0  0  0
 77148  1  0  0  0
 77149  1  0  0  0
 78 79  1  0  0  0
 78150  1  0  0  0
 78151  1  0  0  0
 79 82  1  0  0  0
 79152  1  0  0  0
 80 82  1  0  0  0
 80153  1  0  0  0
 80154  1  0  0  0
 81155  1  0  0  0
 81156  1  0  0  0
 83157  1  0  0  0
M  ISO  4   1 100  68 101  81 101  83 100
M  END
> <chiral flag>
0

> <version>
0

> <s_m_source_file>
/data/baiqing/PycharmProjects/Reinvent-master-3.2/result/LINK_invent/BTK/process_docking_weight1_custom_product_contain_oxygen_bond_distance_aromatic_linkinvent_7_9_3/rearranged_h_0143.sdf

> <i_m_source_file_index>
14

> <r_mmod_Potential_Energy-OPLS-2005>
10.7986030578613

> <r_mmod_Stretch_Energy-OPLS-2005>
50.6960868835449

> <r_mmod_Bend_Energy-OPLS-2005>
149.94140625

> <r_mmod_Torsional_Energy-OPLS-2005>
262.496734619141

> <r_mmod_Improper_Torsional_Energy-OPLS-2005>
6.24150896072388

> <r_mmod_Van_der_Waal_Energy-OPLS-2005>
130.420761108398

> <r_mmod_Electrostatic_Energy-OPLS-2005>
-343.802825927734

> <r_mmod_Solvation_Energy-OPLS-2005>
-268.338897705078

> <b_mmod_Minimization_Converged-OPLS-2005>
0

> <r_mmod_RMS_Derivative-OPLS-2005>
2.95079469680786

$$$$
14
                    3D
 Structure written by MMmdl.
175183  0  0  1  0            999 V2000
  -30.8167  -14.4560   20.4663 C   0  0  0  0  0  0
  -30.3932  -12.3080   19.4062 C   0  0  0  0  0  0
  -29.4640  -12.4824   18.1926 C   0  0  0  0  0  0
  -27.9961  -12.3375   18.6268 C   0  0  0  0  0  0
  -27.6454  -13.2154   19.8578 C   0  0  2  0  0  0
  -28.7109  -13.0939   20.9758 C   0  0  0  0  0  0
  -25.2520  -13.8109   20.5706 C   0  0  0  0  0  0
  -24.1809  -13.0378   20.9207 C   0  0  0  0  0  0
  -24.6413  -11.6865   20.8781 C   0  0  0  0  0  0
  -23.9057  -10.4266   21.0438 C   0  0  0  0  0  0
  -24.3599   -9.4188   21.9214 C   0  0  0  0  0  0
  -23.6259   -8.2231   22.0771 C   0  0  0  0  0  0
  -22.4251   -8.0291   21.3548 C   0  0  0  0  0  0
  -21.9883   -9.0272   20.4653 C   0  0  0  0  0  0
  -22.7223  -10.2146   20.3087 C   0  0  0  0  0  0
  -21.6875   -6.0720   22.5294 C   0  0  0  0  0  0
  -21.4034   -6.5620   23.8218 C   0  0  0  0  0  0
  -21.3672   -5.6787   24.9181 C   0  0  0  0  0  0
  -21.6054   -4.3036   24.7253 C   0  0  0  0  0  0
  -21.8831   -3.8116   23.4363 C   0  0  0  0  0  0
  -21.9200   -4.6941   22.3414 C   0  0  0  0  0  0
  -22.7830  -13.5194   21.1834 C   0  0  0  0  0  0
  -22.1694   -4.2113   21.0999 F   0  0  0  0  0  0
  -21.5605   -3.4520   25.7749 F   0  0  0  0  0  0
  -30.0242  -13.3537   20.3752 N   0  0  0  0  0  0
  -26.2989  -12.9328   20.3397 N   0  0  0  0  0  0
  -25.9338  -11.6463   20.5819 N   0  0  0  0  0  0
  -22.0474  -12.8250   22.0421 N   0  0  0  0  0  0
  -25.4104  -15.1777   20.4123 N   0  0  0  0  0  0
  -32.0101  -14.4350   20.1872 O   0  0  0  0  0  0
  -21.6657   -6.8880   21.4235 O   0  0  0  0  0  0
  -22.3532  -14.5496   20.6648 O   0  0  0  0  0  0
  -24.6167  -31.8622   23.2178 C   0  0  0  0  0  0
  -25.9022  -32.4842   23.8470 C   0  0  1  0  0  0
  -27.2745  -27.4628   20.0705 C   0  0  0  0  0  0
  -25.5824  -33.8644   24.2394 N   0  0  0  0  0  0
  -23.4112  -30.4784   21.5613 C   0  0  2  0  0  0
  -24.8659  -28.9616   20.1092 C   0  0  0  0  0  0
  -22.7443  -29.4547   22.5064 C   0  0  0  0  0  0
  -18.0268  -28.1316   22.8526 C   0  0  0  0  0  0
  -24.1501  -36.7383   23.2658 C   0  0  0  0  0  0
  -25.9362  -30.8319   21.3748 C   0  0  0  0  0  0
  -26.0187  -29.4720   20.7202 C   0  0  0  0  0  0
  -27.2129  -28.7166   20.7162 C   0  0  0  0  0  0
  -26.1144  -26.9937   19.4088 C   0  0  0  0  0  0
  -24.9105  -27.7190   19.4528 C   0  0  0  0  0  0
  -23.6206  -29.8171   20.1741 C   0  0  0  0  0  0
  -25.4097  -36.3147   24.0396 C   0  0  1  0  0  0
  -20.5845  -28.3598   23.1333 C   0  0  2  0  0  0
  -20.6744  -26.9325   22.5422 C   0  0  0  0  0  0
  -19.5731  -26.6336   21.5209 C   0  0  0  0  0  0
  -18.1903  -26.7870   22.1631 C   0  0  0  0  0  0
  -19.1501  -28.8809   23.2904 C   0  0  0  0  0  0
  -18.9422  -30.1423   23.8909 C   0  0  0  0  0  0
  -17.6417  -30.6540   24.0559 C   0  0  0  0  0  0
  -25.9003  -34.9494   23.5192 C   0  0  0  0  0  0
  -16.5321  -29.9056   23.6295 C   0  0  0  0  0  0
  -16.7250  -28.6458   23.0340 C   0  0  0  0  0  0
  -26.4415  -31.6604   25.0814 C   0  0  0  0  0  0
  -25.3701  -31.3700   26.1613 C   0  0  0  0  0  0
  -27.0199  -30.3049   24.6146 C   0  0  0  0  0  0
  -27.6073  -32.4291   25.7483 C   0  0  0  0  0  0
  -27.5609  -37.1831   24.8467 C   0  0  0  0  0  0
  -21.4153  -29.2961   22.3792 N   0  0  0  0  0  0
  -26.4305  -37.3804   23.9411 N   0  0  0  0  0  0
  -24.6730  -31.0680   22.1138 N   0  0  0  0  0  0
  -23.4124  -28.8082   23.3160 O   0  0  0  0  0  0
  -28.4739  -26.7772   20.1414 O   0  0  0  0  0  0
  -26.5530  -34.8933   22.4726 O   0  0  0  0  0  0
  -23.5327  -32.1327   23.7566 O   0  0  0  0  0  0
  -27.3782  -17.8485   19.8249 C   0  0  0  0  0  0
  -27.4487  -17.2822   22.2000 C   0  0  0  0  0  0
  -28.4832  -17.0047   19.5982 C   0  0  0  0  0  0
  -28.5390  -16.4221   21.9695 C   0  0  0  0  0  0
  -26.8643  -17.9935   21.1327 C   0  0  0  0  0  0
  -29.0516  -16.2796   20.6646 C   0  0  0  0  0  0
  -25.8046  -18.9681   21.4115 C   0  0  0  0  0  0
  -30.1578  -25.7996   18.8681 C   0  0  0  0  0  0
  -26.3173  -24.3791   21.2201 C   0  0  0  0  0  0
  -26.9013  -23.1446   19.0647 C   0  0  0  0  0  0
  -28.7065  -21.2478   20.8552 C   0  0  0  0  0  0
  -27.9082  -22.4438   22.8721 C   0  0  0  0  0  0
  -28.7117  -24.2931   20.3648 C   0  0  0  0  0  0
  -26.2500  -21.2732   21.3528 C   0  0  0  0  0  0
  -28.7456  -25.5632   19.4378 C   0  0  1  0  0  0
  -27.3728  -23.4742   20.5202 C   0  0  0  0  0  0
  -27.5574  -22.1327   21.3914 C   0  0  0  0  0  0
  -24.6029  -18.9108   21.0200 N   0  0  0  0  0  0
  -30.3074  -15.6950   20.4526 N   0  0  0  0  0  0
  -26.3143  -20.0479   22.0860 O   0  0  0  0  0  0
  -31.4274  -12.3763   19.0624 H   0  0  0  0  0  0
  -30.2906  -11.3169   19.8533 H   0  0  0  0  0  0
  -29.7042  -11.7443   17.4252 H   0  0  0  0  0  0
  -29.6198  -13.4644   17.7443 H   0  0  0  0  0  0
  -27.8345  -11.2851   18.8637 H   0  0  0  0  0  0
  -27.3297  -12.5623   17.7946 H   0  0  0  0  0  0
  -27.6528  -14.2448   19.4964 H   0  0  0  0  0  0
  -28.7048  -12.0977   21.4197 H   0  0  0  0  0  0
  -28.5012  -13.7810   21.7946 H   0  0  0  0  0  0
  -25.2767   -9.5645   22.4755 H   0  0  0  0  0  0
  -23.9973   -7.4634   22.7487 H   0  0  0  0  0  0
  -21.0829   -8.8829   19.8933 H   0  0  0  0  0  0
  -22.3742  -10.9703   19.6184 H   0  0  0  0  0  0
  -21.2056   -7.6132   23.9750 H   0  0  0  0  0  0
  -21.1475   -6.0488   25.9103 H   0  0  0  0  0  0
  -22.0580   -2.7566   23.2906 H   0  0  0  0  0  0
  -22.4014  -11.9884   22.4795 H   0  0  0  0  0  0
  -21.1120  -13.1357   22.2680 H   0  0  0  0  0  0
  -24.6426  -15.8098   20.6091 H   0  0  0  0  0  0
  -26.2966  -15.6368   20.2456 H   0  0  0  0  0  0
  -26.7142  -32.5575   23.1260 H   0  0  0  0  0  0
  -24.9922  -33.9786   25.0519 H   0  0  0  0  0  0
  -22.7068  -31.2979   21.4197 H   0  0  0  0  0  0
  -23.3740  -35.9736   23.3309 H   0  0  0  0  0  0
  -24.3652  -36.8962   22.2081 H   0  0  0  0  0  0
  -23.7251  -37.6627   23.6601 H   0  0  0  0  0  0
  -26.0453  -31.6027   20.6127 H   0  0  0  0  0  0
  -26.8327  -30.8900   21.9811 H   0  0  0  0  0  0
  -28.0968  -29.0980   21.2093 H   0  0  0  0  0  0
  -26.1226  -26.0706   18.8536 H   0  0  0  0  0  0
  -24.0306  -27.3295   18.9552 H   0  0  0  0  0  0
  -23.7162  -30.5975   19.4188 H   0  0  0  0  0  0
  -22.7497  -29.2286   19.8825 H   0  0  0  0  0  0
  -25.1233  -36.2076   25.0896 H   0  0  0  0  0  0
  -20.9927  -28.3125   24.1444 H   0  0  0  0  0  0
  -20.5612  -26.2202   23.3588 H   0  0  0  0  0  0
  -21.6611  -26.7327   22.1198 H   0  0  0  0  0  0
  -19.6913  -25.6258   21.1229 H   0  0  0  0  0  0
  -19.6690  -27.3162   20.6738 H   0  0  0  0  0  0
  -17.4159  -26.6637   21.4038 H   0  0  0  0  0  0
  -18.0275  -25.9985   22.8999 H   0  0  0  0  0  0
  -19.7883  -30.7224   24.2281 H   0  0  0  0  0  0
  -17.4953  -31.6205   24.5166 H   0  0  0  0  0  0
  -15.5316  -30.2926   23.7614 H   0  0  0  0  0  0
  -15.8645  -28.0766   22.7023 H   0  0  0  0  0  0
  -24.5825  -30.7069   25.7988 H   0  0  0  0  0  0
  -24.8964  -32.2885   26.5110 H   0  0  0  0  0  0
  -25.8130  -30.8809   27.0314 H   0  0  0  0  0  0
  -26.2721  -29.6862   24.1187 H   0  0  0  0  0  0
  -27.3955  -29.7224   25.4570 H   0  0  0  0  0  0
  -27.8553  -30.4449   23.9292 H   0  0  0  0  0  0
  -27.2773  -33.3563   26.2154 H   0  0  0  0  0  0
  -28.3747  -32.6893   25.0195 H   0  0  0  0  0  0
  -28.0882  -31.8377   26.5265 H   0  0  0  0  0  0
  -28.2640  -38.0116   24.7463 H   0  0  0  0  0  0
  -28.1072  -36.2650   24.6289 H   0  0  0  0  0  0
  -27.2332  -37.1485   25.8870 H   0  0  0  0  0  0
  -20.9338  -29.8784   21.7078 H   0  0  0  0  0  0
  -26.0214  -38.2908   24.1313 H   0  0  0  0  0  0
  -26.9796  -18.4374   19.0062 H   0  0  0  0  0  0
  -27.0948  -17.4426   23.2071 H   0  0  0  0  0  0
  -28.9342  -16.9747   18.6160 H   0  0  0  0  0  0
  -29.0228  -15.9584   22.8163 H   0  0  0  0  0  0
  -30.1816  -26.6876   18.2324 H   0  0  0  0  0  0
  -30.5041  -24.9675   18.2521 H   0  0  0  0  0  0
  -30.8899  -25.9479   19.6647 H   0  0  0  0  0  0
  -25.5885  -24.7964   20.5297 H   0  0  0  0  0  0
  -26.8024  -25.1991   21.7530 H   0  0  0  0  0  0
  -25.7117  -23.8697   21.9643 H   0  0  0  0  0  0
  -26.6350  -24.0274   18.4949 H   0  0  0  0  0  0
  -25.9895  -22.5566   18.9970 H   0  0  0  0  0  0
  -27.6835  -22.6462   18.4893 H   0  0  0  0  0  0
  -28.7650  -20.3092   21.4047 H   0  0  0  0  0  0
  -29.6838  -21.7162   20.9688 H   0  0  0  0  0  0
  -28.5719  -21.0000   19.8042 H   0  0  0  0  0  0
  -27.9479  -21.5319   23.4694 H   0  0  0  0  0  0
  -27.1899  -23.1000   23.3674 H   0  0  0  0  0  0
  -28.8878  -22.9098   22.9675 H   0  0  0  0  0  0
  -29.1045  -24.5705   21.3449 H   0  0  0  0  0  0
  -29.4595  -23.6077   19.9523 H   0  0  0  0  0  0
  -26.0344  -21.0402   20.3108 H   0  0  0  0  0  0
  -25.3801  -21.8097   21.7265 H   0  0  0  0  0  0
  -28.1313  -25.4560   18.5543 H   0  0  0  0  0  0
  -24.4231  -18.0807   20.4642 H   0  0  0  0  0  0
  -31.0021  -16.3437   20.1108 H   0  0  0  0  0  0
  1 25  1  0  0  0
  1 30  2  0  0  0
  1 89  1  0  0  0
  2  3  1  0  0  0
  2 25  1  0  0  0
  2 91  1  0  0  0
  2 92  1  0  0  0
  3  4  1  0  0  0
  3 93  1  0  0  0
  3 94  1  0  0  0
  4  5  1  0  0  0
  4 95  1  0  0  0
  4 96  1  0  0  0
  5  6  1  0  0  0
  5 26  1  0  0  0
  5 97  1  0  0  0
  6 25  1  0  0  0
  6 98  1  0  0  0
  6 99  1  0  0  0
  7  8  2  0  0  0
  7 26  1  0  0  0
  7 29  1  0  0  0
  8  9  1  0  0  0
  8 22  1  0  0  0
  9 10  1  0  0  0
  9 27  2  0  0  0
 10 11  2  0  0  0
 10 15  1  0  0  0
 11 12  1  0  0  0
 11100  1  0  0  0
 12 13  2  0  0  0
 12101  1  0  0  0
 13 14  1  0  0  0
 13 31  1  0  0  0
 14 15  2  0  0  0
 14102  1  0  0  0
 15103  1  0  0  0
 16 17  2  0  0  0
 16 21  1  0  0  0
 16 31  1  0  0  0
 17 18  1  0  0  0
 17104  1  0  0  0
 18 19  2  0  0  0
 18105  1  0  0  0
 19 20  1  0  0  0
 19 24  1  0  0  0
 20 21  2  0  0  0
 20106  1  0  0  0
 21 23  1  0  0  0
 22 28  1  0  0  0
 22 32  2  0  0  0
 26 27  1  0  0  0
 28107  1  0  0  0
 28108  1  0  0  0
 29109  1  0  0  0
 29110  1  0  0  0
 33 34  1  0  0  0
 33 66  1  0  0  0
 33 70  2  0  0  0
 34 36  1  0  0  0
 34 59  1  0  0  0
 34111  1  0  0  0
 35 44  2  0  0  0
 35 45  1  0  0  0
 35 68  1  0  0  0
 36 56  1  0  0  0
 36112  1  0  0  0
 37 39  1  0  0  0
 37 47  1  0  0  0
 37 66  1  0  0  0
 37113  1  0  0  0
 38 43  2  0  0  0
 38 46  1  0  0  0
 38 47  1  0  0  0
 39 64  1  0  0  0
 39 67  2  0  0  0
 40 52  1  0  0  0
 40 53  2  0  0  0
 40 58  1  0  0  0
 41114  1  0  0  0
 41115  1  0  0  0
 41116  1  0  0  0
 41 48  1  0  0  0
 42 43  1  0  0  0
 42 66  1  0  0  0
 42117  1  0  0  0
 42118  1  0  0  0
 43 44  1  0  0  0
 44119  1  0  0  0
 45 46  2  0  0  0
 45120  1  0  0  0
 46121  1  0  0  0
 47122  1  0  0  0
 47123  1  0  0  0
 48 56  1  0  0  0
 48 65  1  0  0  0
 48124  1  0  0  0
 49 50  1  0  0  0
 49 53  1  0  0  0
 49 64  1  0  0  0
 49125  1  0  0  0
 50 51  1  0  0  0
 50126  1  0  0  0
 50127  1  0  0  0
 51 52  1  0  0  0
 51128  1  0  0  0
 51129  1  0  0  0
 52130  1  0  0  0
 52131  1  0  0  0
 53 54  1  0  0  0
 54 55  2  0  0  0
 54132  1  0  0  0
 55 57  1  0  0  0
 55133  1  0  0  0
 56 69  2  0  0  0
 57 58  2  0  0  0
 57134  1  0  0  0
 58135  1  0  0  0
 59 60  1  0  0  0
 59 61  1  0  0  0
 59 62  1  0  0  0
 60136  1  0  0  0
 60137  1  0  0  0
 60138  1  0  0  0
 61139  1  0  0  0
 61140  1  0  0  0
 61141  1  0  0  0
 62142  1  0  0  0
 62143  1  0  0  0
 62144  1  0  0  0
 63 65  1  0  0  0
 63145  1  0  0  0
 63146  1  0  0  0
 63147  1  0  0  0
 64148  1  0  0  0
 65149  1  0  0  0
 68 85  1  0  0  0
 71 73  2  0  0  0
 71 75  1  0  0  0
 71150  1  0  0  0
 72 74  1  0  0  0
 72 75  2  0  0  0
 72151  1  0  0  0
 73 76  1  0  0  0
 73152  1  0  0  0
 74 76  2  0  0  0
 74153  1  0  0  0
 75 77  1  0  0  0
 76 89  1  0  0  0
 77 88  2  0  0  0
 77 90  1  0  0  0
 78154  1  0  0  0
 78155  1  0  0  0
 78156  1  0  0  0
 78 85  1  0  0  0
 79157  1  0  0  0
 79158  1  0  0  0
 79159  1  0  0  0
 79 86  1  0  0  0
 80 86  1  0  0  0
 80160  1  0  0  0
 80161  1  0  0  0
 80162  1  0  0  0
 81163  1  0  0  0
 81164  1  0  0  0
 81165  1  0  0  0
 81 87  1  0  0  0
 82 87  1  0  0  0
 82166  1  0  0  0
 82167  1  0  0  0
 82168  1  0  0  0
 83 85  1  0  0  0
 83 86  1  0  0  0
 83169  1  0  0  0
 83170  1  0  0  0
 84 87  1  0  0  0
 84 90  1  0  0  0
 84171  1  0  0  0
 84172  1  0  0  0
 85173  1  0  0  0
 86 87  1  0  0  0
 88174  1  0  0  0
 89175  1  0  0  0
M  ISO  4   1 100  68 101  85 101  89 100
M  END
> <chiral flag>
0

> <version>
0

> <s_m_source_file>
/data/baiqing/PycharmProjects/Reinvent-master-3.2/result/LINK_invent/BTK/process_docking_weight1_custom_product_contain_oxygen_bond_distance_aromatic_linkinvent_7_9_3/rearranged_h_0143.sdf

> <i_m_source_file_index>
15

> <r_mmod_Potential_Energy-OPLS-2005>
157.137985229492

> <r_mmod_Stretch_Energy-OPLS-2005>
49.1739730834961

> <r_mmod_Bend_Energy-OPLS-2005>
183.10905456543

> <r_mmod_Torsional_Energy-OPLS-2005>
330.388427734375

> <r_mmod_Improper_Torsional_Energy-OPLS-2005>
15.003457069397

> <r_mmod_Van_der_Waal_Energy-OPLS-2005>
169.927017211914

> <r_mmod_Electrostatic_Energy-OPLS-2005>
-439.891906738281

> <r_mmod_Solvation_Energy-OPLS-2005>
-185.265182495117

> <b_mmod_Minimization_Converged-OPLS-2005>
0

> <r_mmod_RMS_Derivative-OPLS-2005>
7.73758935928345

$$$$
15
                    3D
 Structure written by MMmdl.
163172  0  0  1  0            999 V2000
  -30.6292  -14.7098   20.4306 C   0  0  0  0  0  0
  -30.4336  -12.4338   19.4344 C   0  0  0  0  0  0
  -29.5025  -12.4971   18.2035 C   0  0  0  0  0  0
  -28.0254  -12.3295   18.6224 C   0  0  0  0  0  0
  -27.6343  -13.2285   19.8263 C   0  0  2  0  0  0
  -28.6937  -13.1611   20.9465 C   0  0  0  0  0  0
  -25.2501  -13.8146   20.5697 C   0  0  0  0  0  0
  -24.1815  -13.0412   20.9221 C   0  0  0  0  0  0
  -24.6388  -11.6876   20.8738 C   0  0  0  0  0  0
  -23.9060  -10.4270   21.0392 C   0  0  0  0  0  0
  -24.3598   -9.4203   21.9182 C   0  0  0  0  0  0
  -23.6295   -8.2240   22.0736 C   0  0  0  0  0  0
  -22.4288   -8.0259   21.3529 C   0  0  0  0  0  0
  -21.9907   -9.0231   20.4645 C   0  0  0  0  0  0
  -22.7220  -10.2118   20.3072 C   0  0  0  0  0  0
  -21.6832   -6.0762   22.5300 C   0  0  0  0  0  0
  -21.4011   -6.5665   23.8237 C   0  0  0  0  0  0
  -21.3665   -5.6804   24.9191 C   0  0  0  0  0  0
  -21.6046   -4.3070   24.7228 C   0  0  0  0  0  0
  -21.8800   -3.8168   23.4348 C   0  0  0  0  0  0
  -21.9185   -4.6997   22.3414 C   0  0  0  0  0  0
  -22.7846  -13.5193   21.1924 C   0  0  0  0  0  0
  -22.1658   -4.2191   21.0983 F   0  0  0  0  0  0
  -21.5618   -3.4547   25.7736 F   0  0  0  0  0  0
  -29.9888  -13.5017   20.3433 N   0  0  0  0  0  0
  -26.2906  -12.9358   20.3182 N   0  0  0  0  0  0
  -25.9303  -11.6500   20.5677 N   0  0  0  0  0  0
  -22.0487  -12.8207   22.0451 N   0  0  0  0  0  0
  -25.4150  -15.1903   20.4186 N   0  0  0  0  0  0
  -31.8515  -14.7891   20.3012 O   0  0  0  0  0  0
  -21.6625   -6.8894   21.4257 O   0  0  0  0  0  0
  -22.3557  -14.5532   20.6786 O   0  0  0  0  0  0
  -24.6292  -31.8581   23.1995 C   0  0  0  0  0  0
  -25.9086  -32.4797   23.8362 C   0  0  1  0  0  0
  -27.2071  -27.2704   20.1315 C   0  0  0  0  0  0
  -25.5879  -33.8590   24.2275 N   0  0  0  0  0  0
  -23.4261  -30.4807   21.5467 C   0  0  2  0  0  0
  -24.8695  -28.9322   20.1244 C   0  0  0  0  0  0
  -22.7506  -29.4590   22.4932 C   0  0  0  0  0  0
  -18.0291  -28.1381   22.8498 C   0  0  0  0  0  0
  -24.1508  -36.7316   23.2627 C   0  0  0  0  0  0
  -25.9756  -30.7728   21.3804 C   0  0  0  0  0  0
  -26.0454  -29.3961   20.7263 C   0  0  0  0  0  0
  -27.2186  -28.5742   20.7245 C   0  0  0  0  0  0
  -26.0012  -26.8734   19.5072 C   0  0  0  0  0  0
  -24.8465  -27.6743   19.5129 C   0  0  0  0  0  0
  -23.6447  -29.8212   20.1638 C   0  0  0  0  0  0
  -25.4133  -36.3107   24.0327 C   0  0  1  0  0  0
  -20.5916  -28.3662   23.1289 C   0  0  2  0  0  0
  -20.6792  -26.9379   22.5403 C   0  0  0  0  0  0
  -19.5762  -26.6364   21.5223 C   0  0  0  0  0  0
  -18.1944  -26.7925   22.1635 C   0  0  0  0  0  0
  -19.1551  -28.8840   23.2904 C   0  0  0  0  0  0
  -18.9465  -30.1454   23.8894 C   0  0  0  0  0  0
  -17.6459  -30.6579   24.0563 C   0  0  0  0  0  0
  -25.9048  -34.9465   23.5116 C   0  0  0  0  0  0
  -16.5351  -29.9073   23.6332 C   0  0  0  0  0  0
  -16.7275  -28.6506   23.0338 C   0  0  0  0  0  0
  -26.4448  -31.6597   25.0730 C   0  0  0  0  0  0
  -25.3649  -31.3779   26.1450 C   0  0  0  0  0  0
  -27.0248  -30.3011   24.6162 C   0  0  0  0  0  0
  -27.6024  -32.4308   25.7507 C   0  0  0  0  0  0
  -27.5619  -37.1820   24.8456 C   0  0  0  0  0  0
  -21.4212  -29.3028   22.3677 N   0  0  0  0  0  0
  -26.4325  -37.3790   23.9390 N   0  0  0  0  0  0
  -24.6972  -31.0525   22.0990 N   0  0  0  0  0  0
  -23.4214  -28.8100   23.3004 O   0  0  0  0  0  0
  -28.3043  -26.3820   20.1582 O   0  0  0  0  0  0
  -26.5632  -34.8906   22.4693 O   0  0  0  0  0  0
  -23.5433  -32.1374   23.7272 O   0  0  0  0  0  0
  -28.5477  -18.0277   22.8601 C   0  0  0  0  0  0
  -29.0288  -16.9127   22.1645 C   0  0  0  0  0  0
  -29.7658  -18.4063   20.3974 C   0  0  0  0  0  0
  -29.3061  -19.6001   21.0993 C   0  0  0  0  0  0
  -28.6591  -19.3441   22.3568 C   0  0  0  0  0  0
  -29.6348  -17.0567   20.9082 C   0  0  0  0  0  0
  -30.7085  -22.5414   18.7078 C   0  0  0  0  0  0
  -30.2274  -21.1410   19.1598 C   0  0  0  0  0  0
  -29.6368  -23.6380   18.8250 C   0  0  0  0  0  0
  -28.5913  -22.3057   20.7066 C   0  0  0  0  0  0
  -29.6363  -21.0927   20.5895 C   0  0  1  0  0  0
  -29.0965  -23.7599   20.2600 C   0  0  2  0  0  0
  -28.0709  -20.4235   23.2574 C   0  0  0  0  0  0
  -28.0082  -24.9320   20.3847 C   0  0  0  0  0  0
  -29.8612  -15.8216   20.1571 N   0  0  0  0  0  0
  -31.4781  -12.5540   19.1444 H   0  0  0  0  0  0
  -30.3568  -11.4673   19.9307 H   0  0  0  0  0  0
  -29.7770  -11.7343   17.4756 H   0  0  0  0  0  0
  -29.6280  -13.4554   17.6974 H   0  0  0  0  0  0
  -27.8725  -11.2803   18.8769 H   0  0  0  0  0  0
  -27.3679  -12.5244   17.7750 H   0  0  0  0  0  0
  -27.6146  -14.2486   19.4402 H   0  0  0  0  0  0
  -28.7236  -12.1604   21.3823 H   0  0  0  0  0  0
  -28.4381  -13.8490   21.7524 H   0  0  0  0  0  0
  -25.2744   -9.5694   22.4747 H   0  0  0  0  0  0
  -24.0005   -7.4638   22.7461 H   0  0  0  0  0  0
  -21.0815   -8.8756   19.8951 H   0  0  0  0  0  0
  -22.3669  -10.9661   19.6184 H   0  0  0  0  0  0
  -21.2008   -7.6169   23.9759 H   0  0  0  0  0  0
  -21.1501   -6.0536   25.9102 H   0  0  0  0  0  0
  -22.0568   -2.7640   23.2840 H   0  0  0  0  0  0
  -22.4122  -11.9882   22.4862 H   0  0  0  0  0  0
  -21.1119  -13.1261   22.2688 H   0  0  0  0  0  0
  -24.6377  -15.8287   20.5389 H   0  0  0  0  0  0
  -26.2655  -15.6443   20.1142 H   0  0  0  0  0  0
  -26.7162  -32.5451   23.1115 H   0  0  0  0  0  0
  -25.0012  -33.9762   25.0420 H   0  0  0  0  0  0
  -22.7223  -31.3042   21.4037 H   0  0  0  0  0  0
  -23.3775  -35.9651   23.3285 H   0  0  0  0  0  0
  -24.3607  -36.8918   22.2041 H   0  0  0  0  0  0
  -23.7261  -37.6513   23.6653 H   0  0  0  0  0  0
  -26.1026  -31.5233   20.5997 H   0  0  0  0  0  0
  -26.8611  -30.8343   22.0032 H   0  0  0  0  0  0
  -28.1232  -28.9086   21.2121 H   0  0  0  0  0  0
  -25.8999  -25.9256   19.0086 H   0  0  0  0  0  0
  -23.9419  -27.3022   19.0525 H   0  0  0  0  0  0
  -23.7753  -30.5988   19.4108 H   0  0  0  0  0  0
  -22.7639  -29.2565   19.8550 H   0  0  0  0  0  0
  -25.1320  -36.1987   25.0829 H   0  0  0  0  0  0
  -21.0038  -28.3232   24.1412 H   0  0  0  0  0  0
  -20.5720  -26.2257   23.3603 H   0  0  0  0  0  0
  -21.6650  -26.7415   22.1181 H   0  0  0  0  0  0
  -19.6901  -25.6284   21.1243 H   0  0  0  0  0  0
  -19.6696  -27.3202   20.6792 H   0  0  0  0  0  0
  -17.4205  -26.6674   21.4045 H   0  0  0  0  0  0
  -18.0320  -26.0084   22.9051 H   0  0  0  0  0  0
  -19.7924  -30.7287   24.2265 H   0  0  0  0  0  0
  -17.4985  -31.6261   24.5151 H   0  0  0  0  0  0
  -15.5345  -30.2951   23.7650 H   0  0  0  0  0  0
  -15.8692  -28.0812   22.7034 H   0  0  0  0  0  0
  -24.5828  -30.7119   25.7792 H   0  0  0  0  0  0
  -24.8821  -32.2956   26.4814 H   0  0  0  0  0  0
  -25.7920  -30.8999   27.0268 H   0  0  0  0  0  0
  -26.2807  -29.6837   24.1109 H   0  0  0  0  0  0
  -27.3864  -29.7204   25.4652 H   0  0  0  0  0  0
  -27.8732  -30.4303   23.9441 H   0  0  0  0  0  0
  -27.2648  -33.3609   26.2109 H   0  0  0  0  0  0
  -28.3828  -32.6846   25.0317 H   0  0  0  0  0  0
  -28.0698  -31.8387   26.5384 H   0  0  0  0  0  0
  -28.2617  -38.0138   24.7513 H   0  0  0  0  0  0
  -28.1127  -36.2652   24.6280 H   0  0  0  0  0  0
  -27.2314  -37.1470   25.8851 H   0  0  0  0  0  0
  -20.9369  -29.8762   21.6915 H   0  0  0  0  0  0
  -26.0215  -38.2874   24.1360 H   0  0  0  0  0  0
  -28.0749  -17.8469   23.8163 H   0  0  0  0  0  0
  -28.8717  -15.9334   22.5917 H   0  0  0  0  0  0
  -30.2499  -18.5152   19.4387 H   0  0  0  0  0  0
  -31.0355  -22.4747   17.6697 H   0  0  0  0  0  0
  -31.5896  -22.8466   19.2742 H   0  0  0  0  0  0
  -31.0921  -20.4788   19.1017 H   0  0  0  0  0  0
  -29.4885  -20.7659   18.4528 H   0  0  0  0  0  0
  -28.8291  -23.4220   18.1251 H   0  0  0  0  0  0
  -30.0620  -24.5957   18.5185 H   0  0  0  0  0  0
  -27.6922  -22.0444   20.1490 H   0  0  0  0  0  0
  -28.2715  -22.4389   21.7320 H   0  0  0  0  0  0
  -30.4544  -21.3864   21.2431 H   0  0  0  0  0  0
  -29.9364  -24.0200   20.9073 H   0  0  0  0  0  0
  -27.6368  -20.0057   24.1692 H   0  0  0  0  0  0
  -27.2446  -20.9300   22.7591 H   0  0  0  0  0  0
  -28.8315  -21.1385   23.5743 H   0  0  0  0  0  0
  -27.5961  -24.8717   21.3933 H   0  0  0  0  0  0
  -27.2116  -24.5929   19.7316 H   0  0  0  0  0  0
  -29.0719  -15.5857   19.5776 H   0  0  0  0  0  0
  1 25  1  0  0  0
  1 30  2  0  0  0
  1 85  1  0  0  0
  2  3  1  0  0  0
  2 25  1  0  0  0
  2 86  1  0  0  0
  2 87  1  0  0  0
  3  4  1  0  0  0
  3 88  1  0  0  0
  3 89  1  0  0  0
  4  5  1  0  0  0
  4 90  1  0  0  0
  4 91  1  0  0  0
  5  6  1  0  0  0
  5 26  1  0  0  0
  5 92  1  0  0  0
  6 25  1  0  0  0
  6 93  1  0  0  0
  6 94  1  0  0  0
  7  8  2  0  0  0
  7 26  1  0  0  0
  7 29  1  0  0  0
  8  9  1  0  0  0
  8 22  1  0  0  0
  9 10  1  0  0  0
  9 27  2  0  0  0
 10 11  2  0  0  0
 10 15  1  0  0  0
 11 12  1  0  0  0
 11 95  1  0  0  0
 12 13  2  0  0  0
 12 96  1  0  0  0
 13 14  1  0  0  0
 13 31  1  0  0  0
 14 15  2  0  0  0
 14 97  1  0  0  0
 15 98  1  0  0  0
 16 17  2  0  0  0
 16 21  1  0  0  0
 16 31  1  0  0  0
 17 18  1  0  0  0
 17 99  1  0  0  0
 18 19  2  0  0  0
 18100  1  0  0  0
 19 20  1  0  0  0
 19 24  1  0  0  0
 20 21  2  0  0  0
 20101  1  0  0  0
 21 23  1  0  0  0
 22 28  1  0  0  0
 22 32  2  0  0  0
 26 27  1  0  0  0
 28102  1  0  0  0
 28103  1  0  0  0
 29104  1  0  0  0
 29105  1  0  0  0
 33 34  1  0  0  0
 33 66  1  0  0  0
 33 70  2  0  0  0
 34 36  1  0  0  0
 34 59  1  0  0  0
 34106  1  0  0  0
 35 44  2  0  0  0
 35 45  1  0  0  0
 35 68  1  0  0  0
 36 56  1  0  0  0
 36107  1  0  0  0
 37 39  1  0  0  0
 37 47  1  0  0  0
 37 66  1  0  0  0
 37108  1  0  0  0
 38 43  2  0  0  0
 38 46  1  0  0  0
 38 47  1  0  0  0
 39 64  1  0  0  0
 39 67  2  0  0  0
 40 52  1  0  0  0
 40 53  2  0  0  0
 40 58  1  0  0  0
 41109  1  0  0  0
 41110  1  0  0  0
 41111  1  0  0  0
 41 48  1  0  0  0
 42 43  1  0  0  0
 42 66  1  0  0  0
 42112  1  0  0  0
 42113  1  0  0  0
 43 44  1  0  0  0
 44114  1  0  0  0
 45 46  2  0  0  0
 45115  1  0  0  0
 46116  1  0  0  0
 47117  1  0  0  0
 47118  1  0  0  0
 48 56  1  0  0  0
 48 65  1  0  0  0
 48119  1  0  0  0
 49 50  1  0  0  0
 49 53  1  0  0  0
 49 64  1  0  0  0
 49120  1  0  0  0
 50 51  1  0  0  0
 50121  1  0  0  0
 50122  1  0  0  0
 51 52  1  0  0  0
 51123  1  0  0  0
 51124  1  0  0  0
 52125  1  0  0  0
 52126  1  0  0  0
 53 54  1  0  0  0
 54 55  2  0  0  0
 54127  1  0  0  0
 55 57  1  0  0  0
 55128  1  0  0  0
 56 69  2  0  0  0
 57 58  2  0  0  0
 57129  1  0  0  0
 58130  1  0  0  0
 59 60  1  0  0  0
 59 61  1  0  0  0
 59 62  1  0  0  0
 60131  1  0  0  0
 60132  1  0  0  0
 60133  1  0  0  0
 61134  1  0  0  0
 61135  1  0  0  0
 61136  1  0  0  0
 62137  1  0  0  0
 62138  1  0  0  0
 62139  1  0  0  0
 63 65  1  0  0  0
 63140  1  0  0  0
 63141  1  0  0  0
 63142  1  0  0  0
 64143  1  0  0  0
 65144  1  0  0  0
 68 84  1  0  0  0
 71 72  2  0  0  0
 71 75  1  0  0  0
 71145  1  0  0  0
 72 76  1  0  0  0
 72146  1  0  0  0
 73 74  1  0  0  0
 73 76  2  0  0  0
 73147  1  0  0  0
 74 75  2  0  0  0
 74 81  1  0  0  0
 75 83  1  0  0  0
 76 85  1  0  0  0
 77 78  1  0  0  0
 77 79  1  0  0  0
 77148  1  0  0  0
 77149  1  0  0  0
 78 81  1  0  0  0
 78150  1  0  0  0
 78151  1  0  0  0
 79 82  1  0  0  0
 79152  1  0  0  0
 79153  1  0  0  0
 80 81  1  0  0  0
 80 82  1  0  0  0
 80154  1  0  0  0
 80155  1  0  0  0
 81156  1  0  0  0
 82 84  1  0  0  0
 82157  1  0  0  0
 83158  1  0  0  0
 83159  1  0  0  0
 83160  1  0  0  0
 84161  1  0  0  0
 84162  1  0  0  0
 85163  1  0  0  0
M  ISO  4   1 100  68 101  84 101  85 100
M  END
> <chiral flag>
0

> <version>
0

> <s_m_source_file>
/data/baiqing/PycharmProjects/Reinvent-master-3.2/result/LINK_invent/BTK/process_docking_weight1_custom_product_contain_oxygen_bond_distance_aromatic_linkinvent_7_9_3/rearranged_h_0143.sdf

> <i_m_source_file_index>
16

> <r_mmod_Potential_Energy-OPLS-2005>
257.228088378906

> <r_mmod_Stretch_Energy-OPLS-2005>
107.72346496582

> <r_mmod_Bend_Energy-OPLS-2005>
168.638702392578

> <r_mmod_Torsional_Energy-OPLS-2005>
303.045288085938

> <r_mmod_Improper_Torsional_Energy-OPLS-2005>
18.8244590759277

> <r_mmod_Van_der_Waal_Energy-OPLS-2005>
146.938095092773

> <r_mmod_Electrostatic_Energy-OPLS-2005>
-372.547637939453

> <r_mmod_Solvation_Energy-OPLS-2005>
-199.583221435547

> <b_mmod_Minimization_Converged-OPLS-2005>
0

> <r_mmod_RMS_Derivative-OPLS-2005>
5.48524284362793

$$$$
16
                    3D
 Structure written by MMmdl.
162170  0  0  1  0            999 V2000
  -30.7216  -14.4432   20.4815 C   0  0  0  0  0  0
  -30.4114  -12.2619   19.4273 C   0  0  0  0  0  0
  -29.4900  -12.4410   18.2042 C   0  0  0  0  0  0
  -28.0089  -12.3361   18.6162 C   0  0  0  0  0  0
  -27.6545  -13.1999   19.8569 C   0  0  2  0  0  0
  -28.6979  -13.0265   20.9852 C   0  0  0  0  0  0
  -25.2605  -13.8143   20.5711 C   0  0  0  0  0  0
  -24.1831  -13.0444   20.9190 C   0  0  0  0  0  0
  -24.6347  -11.6896   20.8712 C   0  0  0  0  0  0
  -23.8992  -10.4281   21.0380 C   0  0  0  0  0  0
  -24.3558   -9.4204   21.9154 C   0  0  0  0  0  0
  -23.6271   -8.2216   22.0709 C   0  0  0  0  0  0
  -22.4242   -8.0245   21.3517 C   0  0  0  0  0  0
  -21.9848   -9.0210   20.4637 C   0  0  0  0  0  0
  -22.7150  -10.2109   20.3056 C   0  0  0  0  0  0
  -21.6855   -6.0714   22.5262 C   0  0  0  0  0  0
  -21.4021   -6.5620   23.8194 C   0  0  0  0  0  0
  -21.3663   -5.6776   24.9159 C   0  0  0  0  0  0
  -21.6035   -4.3041   24.7214 C   0  0  0  0  0  0
  -21.8823   -3.8136   23.4339 C   0  0  0  0  0  0
  -21.9207   -4.6950   22.3391 C   0  0  0  0  0  0
  -22.7877  -13.5289   21.1864 C   0  0  0  0  0  0
  -22.1677   -4.2145   21.0972 F   0  0  0  0  0  0
  -21.5605   -3.4530   25.7728 F   0  0  0  0  0  0
  -30.0295  -13.2793   20.4174 N   0  0  0  0  0  0
  -26.2985  -12.9293   20.3279 N   0  0  0  0  0  0
  -25.9257  -11.6459   20.5695 N   0  0  0  0  0  0
  -22.0518  -12.8282   22.0430 N   0  0  0  0  0  0
  -25.4443  -15.1862   20.4195 N   0  0  0  0  0  0
  -31.9122  -14.5373   20.1739 O   0  0  0  0  0  0
  -21.6631   -6.8838   21.4220 O   0  0  0  0  0  0
  -22.3556  -14.5607   20.6750 O   0  0  0  0  0  0
  -24.6128  -31.8715   23.2169 C   0  0  0  0  0  0
  -25.9027  -32.4839   23.8460 C   0  0  1  0  0  0
  -27.2239  -27.4364   20.0830 C   0  0  0  0  0  0
  -25.5896  -33.8639   24.2368 N   0  0  0  0  0  0
  -23.4007  -30.4959   21.5578 C   0  0  2  0  0  0
  -24.8408  -28.9739   20.1125 C   0  0  0  0  0  0
  -22.7430  -29.4635   22.5010 C   0  0  0  0  0  0
  -18.0276  -28.1360   22.8474 C   0  0  0  0  0  0
  -24.1492  -36.7330   23.2596 C   0  0  0  0  0  0
  -25.9303  -30.8326   21.3729 C   0  0  0  0  0  0
  -26.0017  -29.4709   20.7136 C   0  0  0  0  0  0
  -27.1900  -28.7071   20.7051 C   0  0  0  0  0  0
  -26.0358  -26.9537   19.4817 C   0  0  0  0  0  0
  -24.8536  -27.7135   19.4973 C   0  0  0  0  0  0
  -23.6074  -29.8431   20.1670 C   0  0  0  0  0  0
  -25.4067  -36.3116   24.0354 C   0  0  1  0  0  0
  -20.5863  -28.3629   23.1314 C   0  0  2  0  0  0
  -20.6758  -26.9369   22.5406 C   0  0  0  0  0  0
  -19.5744  -26.6357   21.5196 C   0  0  0  0  0  0
  -18.1916  -26.7896   22.1606 C   0  0  0  0  0  0
  -19.1529  -28.8819   23.2885 C   0  0  0  0  0  0
  -18.9442  -30.1420   23.8895 C   0  0  0  0  0  0
  -17.6442  -30.6551   24.0551 C   0  0  0  0  0  0
  -25.9036  -34.9500   23.5161 C   0  0  0  0  0  0
  -16.5339  -29.9044   23.6309 C   0  0  0  0  0  0
  -16.7261  -28.6472   23.0314 C   0  0  0  0  0  0
  -26.4450  -31.6608   25.0771 C   0  0  0  0  0  0
  -25.3727  -31.3762   26.1554 C   0  0  0  0  0  0
  -27.0228  -30.3034   24.6133 C   0  0  0  0  0  0
  -27.6111  -32.4286   25.7429 C   0  0  0  0  0  0
  -27.5679  -37.1651   24.8331 C   0  0  0  0  0  0
  -21.4159  -29.3011   22.3755 N   0  0  0  0  0  0
  -26.4200  -37.3866   23.9580 N   0  0  0  0  0  0
  -24.6657  -31.0821   22.1064 N   0  0  0  0  0  0
  -23.4223  -28.8139   23.3014 O   0  0  0  0  0  0
  -28.4122  -26.7282   20.1292 O   0  0  0  0  0  0
  -26.5597  -34.8946   22.4719 O   0  0  0  0  0  0
  -23.5314  -32.1457   23.7539 O   0  0  0  0  0  0
  -30.9607  -17.8755   17.8473 C   0  0  0  0  0  0
  -30.6005  -16.7093   18.5438 C   0  0  0  0  0  0
  -30.1870  -18.0199   20.5469 C   0  0  0  0  0  0
  -30.9534  -19.1413   18.4815 C   0  0  0  0  0  0
  -30.2545  -16.7610   19.9110 C   0  0  0  0  0  0
  -30.5301  -19.2087   19.8467 C   0  0  0  0  0  0
  -31.4170  -20.3408   17.6996 C   0  0  0  0  0  0
  -29.4359  -21.0363   21.0965 C   0  0  0  0  0  0
  -31.4264  -20.2494   16.1768 C   0  0  0  0  0  0
  -29.6255  -22.4681   21.6180 C   0  0  0  0  0  0
  -28.7141  -23.5208   20.9364 C   0  0  0  0  0  0
  -29.4990  -24.5396   20.0828 C   0  0  0  0  0  0
  -28.6080  -25.5510   19.3344 C   0  0  0  0  0  0
  -30.5085  -20.4489   20.5411 N   0  0  0  0  0  0
  -29.9746  -15.5545   20.6214 N   0  0  0  0  0  0
  -31.7836  -21.4013   18.2177 O   0  0  0  0  0  0
  -28.3431  -20.4768   21.2170 O   0  0  0  0  0  0
  -31.4566  -12.3359   19.1197 H   0  0  0  0  0  0
  -30.2940  -11.2630   19.8515 H   0  0  0  0  0  0
  -29.7153  -11.6803   17.4538 H   0  0  0  0  0  0
  -29.6814  -13.4061   17.7316 H   0  0  0  0  0  0
  -27.8044  -11.2846   18.8256 H   0  0  0  0  0  0
  -27.3726  -12.6058   17.7739 H   0  0  0  0  0  0
  -27.6871  -14.2387   19.5260 H   0  0  0  0  0  0
  -28.6553  -12.0135   21.3855 H   0  0  0  0  0  0
  -28.4846  -13.6944   21.8212 H   0  0  0  0  0  0
  -25.2691   -9.5732   22.4730 H   0  0  0  0  0  0
  -24.0029   -7.4594   22.7397 H   0  0  0  0  0  0
  -21.0777   -8.8716   19.8939 H   0  0  0  0  0  0
  -22.3567  -10.9650   19.6181 H   0  0  0  0  0  0
  -21.2029   -7.6142   23.9694 H   0  0  0  0  0  0
  -21.1474   -6.0515   25.9060 H   0  0  0  0  0  0
  -22.0628   -2.7613   23.2831 H   0  0  0  0  0  0
  -22.4183  -11.9968   22.4847 H   0  0  0  0  0  0
  -21.1119  -13.1283   22.2618 H   0  0  0  0  0  0
  -24.7008  -15.8611   20.5559 H   0  0  0  0  0  0
  -26.3101  -15.6106   20.1172 H   0  0  0  0  0  0
  -26.7096  -32.5546   23.1222 H   0  0  0  0  0  0
  -25.0045  -33.9850   25.0510 H   0  0  0  0  0  0
  -22.6840  -31.3101   21.4307 H   0  0  0  0  0  0
  -23.3886  -35.9512   23.2887 H   0  0  0  0  0  0
  -24.3733  -36.9319   22.2104 H   0  0  0  0  0  0
  -23.7034  -37.6330   23.6840 H   0  0  0  0  0  0
  -26.0505  -31.6018   20.6093 H   0  0  0  0  0  0
  -26.8159  -30.8797   21.9945 H   0  0  0  0  0  0
  -28.0845  -29.0876   21.1750 H   0  0  0  0  0  0
  -25.9629  -25.9927   18.9995 H   0  0  0  0  0  0
  -23.9580  -27.3234   19.0322 H   0  0  0  0  0  0
  -23.7236  -30.6306   19.4213 H   0  0  0  0  0  0
  -22.7265  -29.2747   19.8611 H   0  0  0  0  0  0
  -25.1151  -36.1922   25.0815 H   0  0  0  0  0  0
  -20.9924  -28.3179   24.1453 H   0  0  0  0  0  0
  -20.5647  -26.2242   23.3583 H   0  0  0  0  0  0
  -21.6642  -26.7391   22.1216 H   0  0  0  0  0  0
  -19.6909  -25.6272   21.1228 H   0  0  0  0  0  0
  -19.6675  -27.3170   20.6724 H   0  0  0  0  0  0
  -17.4183  -26.6624   21.4004 H   0  0  0  0  0  0
  -18.0312  -26.0047   22.8992 H   0  0  0  0  0  0
  -19.7915  -30.7236   24.2264 H   0  0  0  0  0  0
  -17.4985  -31.6227   24.5141 H   0  0  0  0  0  0
  -15.5328  -30.2927   23.7633 H   0  0  0  0  0  0
  -15.8668  -28.0783   22.7004 H   0  0  0  0  0  0
  -24.5838  -30.7166   25.7908 H   0  0  0  0  0  0
  -24.8988  -32.2944   26.5044 H   0  0  0  0  0  0
  -25.8063  -30.8885   27.0293 H   0  0  0  0  0  0
  -26.2738  -29.6827   24.1196 H   0  0  0  0  0  0
  -27.3992  -29.7243   25.4571 H   0  0  0  0  0  0
  -27.8600  -30.4330   23.9274 H   0  0  0  0  0  0
  -27.2830  -33.3571   26.2108 H   0  0  0  0  0  0
  -28.3803  -32.6858   25.0135 H   0  0  0  0  0  0
  -28.0924  -31.8358   26.5213 H   0  0  0  0  0  0
  -28.2204  -38.0388   24.8185 H   0  0  0  0  0  0
  -28.1645  -36.3099   24.5109 H   0  0  0  0  0  0
  -27.2624  -37.0005   25.8680 H   0  0  0  0  0  0
  -20.9322  -29.8789   21.7019 H   0  0  0  0  0  0
  -26.0064  -38.2822   24.2041 H   0  0  0  0  0  0
  -31.2704  -17.7666   16.8188 H   0  0  0  0  0  0
  -30.6331  -15.7658   18.0175 H   0  0  0  0  0  0
  -29.9087  -18.0766   21.5908 H   0  0  0  0  0  0
  -32.2459  -19.6183   15.8358 H   0  0  0  0  0  0
  -31.5620  -21.2388   15.7403 H   0  0  0  0  0  0
  -30.4867  -19.8409   15.8058 H   0  0  0  0  0  0
  -30.6706  -22.7646   21.5208 H   0  0  0  0  0  0
  -29.4283  -22.4539   22.6903 H   0  0  0  0  0  0
  -28.1436  -24.0519   21.7003 H   0  0  0  0  0  0
  -27.9676  -23.0282   20.3087 H   0  0  0  0  0  0
  -30.0866  -23.9851   19.3505 H   0  0  0  0  0  0
  -30.2204  -25.0741   20.7029 H   0  0  0  0  0  0
  -27.7106  -25.0290   19.0164 H   0  0  0  0  0  0
  -29.1083  -25.8692   18.4180 H   0  0  0  0  0  0
  -31.3118  -21.0482   20.4100 H   0  0  0  0  0  0
  -29.0393  -15.4366   20.9815 H   0  0  0  0  0  0
  1 25  1  0  0  0
  1 30  2  0  0  0
  1 85  1  0  0  0
  2  3  1  0  0  0
  2 25  1  0  0  0
  2 88  1  0  0  0
  2 89  1  0  0  0
  3  4  1  0  0  0
  3 90  1  0  0  0
  3 91  1  0  0  0
  4  5  1  0  0  0
  4 92  1  0  0  0
  4 93  1  0  0  0
  5  6  1  0  0  0
  5 26  1  0  0  0
  5 94  1  0  0  0
  6 25  1  0  0  0
  6 95  1  0  0  0
  6 96  1  0  0  0
  7  8  2  0  0  0
  7 26  1  0  0  0
  7 29  1  0  0  0
  8  9  1  0  0  0
  8 22  1  0  0  0
  9 10  1  0  0  0
  9 27  2  0  0  0
 10 11  2  0  0  0
 10 15  1  0  0  0
 11 12  1  0  0  0
 11 97  1  0  0  0
 12 13  2  0  0  0
 12 98  1  0  0  0
 13 14  1  0  0  0
 13 31  1  0  0  0
 14 15  2  0  0  0
 14 99  1  0  0  0
 15100  1  0  0  0
 16 17  2  0  0  0
 16 21  1  0  0  0
 16 31  1  0  0  0
 17 18  1  0  0  0
 17101  1  0  0  0
 18 19  2  0  0  0
 18102  1  0  0  0
 19 20  1  0  0  0
 19 24  1  0  0  0
 20 21  2  0  0  0
 20103  1  0  0  0
 21 23  1  0  0  0
 22 28  1  0  0  0
 22 32  2  0  0  0
 26 27  1  0  0  0
 28104  1  0  0  0
 28105  1  0  0  0
 29106  1  0  0  0
 29107  1  0  0  0
 33 34  1  0  0  0
 33 66  1  0  0  0
 33 70  2  0  0  0
 34 36  1  0  0  0
 34 59  1  0  0  0
 34108  1  0  0  0
 35 44  2  0  0  0
 35 45  1  0  0  0
 35 68  1  0  0  0
 36 56  1  0  0  0
 36109  1  0  0  0
 37 39  1  0  0  0
 37 47  1  0  0  0
 37 66  1  0  0  0
 37110  1  0  0  0
 38 43  2  0  0  0
 38 46  1  0  0  0
 38 47  1  0  0  0
 39 64  1  0  0  0
 39 67  2  0  0  0
 40 52  1  0  0  0
 40 53  2  0  0  0
 40 58  1  0  0  0
 41111  1  0  0  0
 41112  1  0  0  0
 41113  1  0  0  0
 41 48  1  0  0  0
 42 43  1  0  0  0
 42 66  1  0  0  0
 42114  1  0  0  0
 42115  1  0  0  0
 43 44  1  0  0  0
 44116  1  0  0  0
 45 46  2  0  0  0
 45117  1  0  0  0
 46118  1  0  0  0
 47119  1  0  0  0
 47120  1  0  0  0
 48 56  1  0  0  0
 48 65  1  0  0  0
 48121  1  0  0  0
 49 50  1  0  0  0
 49 53  1  0  0  0
 49 64  1  0  0  0
 49122  1  0  0  0
 50 51  1  0  0  0
 50123  1  0  0  0
 50124  1  0  0  0
 51 52  1  0  0  0
 51125  1  0  0  0
 51126  1  0  0  0
 52127  1  0  0  0
 52128  1  0  0  0
 53 54  1  0  0  0
 54 55  2  0  0  0
 54129  1  0  0  0
 55 57  1  0  0  0
 55130  1  0  0  0
 56 69  2  0  0  0
 57 58  2  0  0  0
 57131  1  0  0  0
 58132  1  0  0  0
 59 60  1  0  0  0
 59 61  1  0  0  0
 59 62  1  0  0  0
 60133  1  0  0  0
 60134  1  0  0  0
 60135  1  0  0  0
 61136  1  0  0  0
 61137  1  0  0  0
 61138  1  0  0  0
 62139  1  0  0  0
 62140  1  0  0  0
 62141  1  0  0  0
 63 65  1  0  0  0
 63142  1  0  0  0
 63143  1  0  0  0
 63144  1  0  0  0
 64145  1  0  0  0
 65146  1  0  0  0
 68 83  1  0  0  0
 71 72  2  0  0  0
 71 74  1  0  0  0
 71147  1  0  0  0
 72 75  1  0  0  0
 72148  1  0  0  0
 73 75  2  0  0  0
 73 76  1  0  0  0
 73149  1  0  0  0
 74 76  2  0  0  0
 74 77  1  0  0  0
 75 85  1  0  0  0
 76 84  1  0  0  0
 77 79  1  0  0  0
 77 86  2  0  0  0
 78 80  1  0  0  0
 78 84  1  0  0  0
 78 87  2  0  0  0
 79150  1  0  0  0
 79151  1  0  0  0
 79152  1  0  0  0
 80 81  1  0  0  0
 80153  1  0  0  0
 80154  1  0  0  0
 81 82  1  0  0  0
 81155  1  0  0  0
 81156  1  0  0  0
 82 83  1  0  0  0
 82157  1  0  0  0
 82158  1  0  0  0
 83159  1  0  0  0
 83160  1  0  0  0
 84161  1  0  0  0
 85162  1  0  0  0
M  ISO  4   1 100  68 101  83 101  85 100
M  END
> <chiral flag>
0

> <version>
0

> <s_m_source_file>
/data/baiqing/PycharmProjects/Reinvent-master-3.2/result/LINK_invent/BTK/process_docking_weight1_custom_product_contain_oxygen_bond_distance_aromatic_linkinvent_7_9_3/rearranged_h_0143.sdf

> <i_m_source_file_index>
17

> <r_mmod_Potential_Energy-OPLS-2005>
39.1895027160645

> <r_mmod_Stretch_Energy-OPLS-2005>
38.0850563049316

> <r_mmod_Bend_Energy-OPLS-2005>
104.387519836426

> <r_mmod_Torsional_Energy-OPLS-2005>
300.433013916016

> <r_mmod_Improper_Torsional_Energy-OPLS-2005>
8.48719692230225

> <r_mmod_Van_der_Waal_Energy-OPLS-2005>
165.992828369141

> <r_mmod_Electrostatic_Energy-OPLS-2005>
-368.595672607422

> <r_mmod_Solvation_Energy-OPLS-2005>
-231.333984375

> <b_mmod_Minimization_Converged-OPLS-2005>
0

> <r_mmod_RMS_Derivative-OPLS-2005>
4.65823268890381

$$$$
17
                    3D
 Structure written by MMmdl.
161170  0  0  1  0            999 V2000
  -30.5927  -14.6539   20.5321 C   0  0  0  0  0  0
  -30.4525  -12.4102   19.4452 C   0  0  0  0  0  0
  -29.5146  -12.5303   18.2212 C   0  0  0  0  0  0
  -28.0354  -12.3623   18.6289 C   0  0  0  0  0  0
  -27.6598  -13.2141   19.8704 C   0  0  2  0  0  0
  -28.7047  -13.0322   20.9945 C   0  0  0  0  0  0
  -25.2579  -13.8158   20.5682 C   0  0  0  0  0  0
  -24.1837  -13.0428   20.9176 C   0  0  0  0  0  0
  -24.6403  -11.6899   20.8719 C   0  0  0  0  0  0
  -23.9063  -10.4290   21.0398 C   0  0  0  0  0  0
  -24.3613   -9.4206   21.9179 C   0  0  0  0  0  0
  -23.6292   -8.2241   22.0753 C   0  0  0  0  0  0
  -22.4273   -8.0276   21.3549 C   0  0  0  0  0  0
  -21.9904   -9.0247   20.4646 C   0  0  0  0  0  0
  -22.7232  -10.2128   20.3051 C   0  0  0  0  0  0
  -21.6849   -6.0731   22.5286 C   0  0  0  0  0  0
  -21.4007   -6.5637   23.8219 C   0  0  0  0  0  0
  -21.3658   -5.6786   24.9179 C   0  0  0  0  0  0
  -21.6046   -4.3051   24.7228 C   0  0  0  0  0  0
  -21.8819   -3.8141   23.4349 C   0  0  0  0  0  0
  -21.9191   -4.6958   22.3407 C   0  0  0  0  0  0
  -22.7859  -13.5225   21.1843 C   0  0  0  0  0  0
  -22.1662   -4.2145   21.0984 F   0  0  0  0  0  0
  -21.5631   -3.4533   25.7742 F   0  0  0  0  0  0
  -30.0210  -13.4079   20.4461 N   0  0  0  0  0  0
  -26.3020  -12.9336   20.3331 N   0  0  0  0  0  0
  -25.9334  -11.6491   20.5736 N   0  0  0  0  0  0
  -22.0492  -12.8232   22.0403 N   0  0  0  0  0  0
  -25.4275  -15.1884   20.4135 N   0  0  0  0  0  0
  -31.7241  -14.8761   20.0868 O   0  0  0  0  0  0
  -21.6634   -6.8876   21.4249 O   0  0  0  0  0  0
  -22.3552  -14.5532   20.6688 O   0  0  0  0  0  0
  -24.6235  -31.8606   23.2024 C   0  0  0  0  0  0
  -25.9085  -32.4784   23.8360 C   0  0  1  0  0  0
  -27.2343  -27.3285   20.1328 C   0  0  0  0  0  0
  -25.5903  -33.8588   24.2280 N   0  0  0  0  0  0
  -23.4192  -30.4802   21.5444 C   0  0  2  0  0  0
  -24.8706  -28.9293   20.1177 C   0  0  0  0  0  0
  -22.7470  -29.4617   22.4950 C   0  0  0  0  0  0
  -18.0282  -28.1378   22.8499 C   0  0  0  0  0  0
  -24.1487  -36.7291   23.2642 C   0  0  0  0  0  0
  -25.9588  -30.7908   21.3770 C   0  0  0  0  0  0
  -26.0359  -29.4164   20.7259 C   0  0  0  0  0  0
  -27.2223  -28.6266   20.7256 C   0  0  0  0  0  0
  -26.0548  -26.8888   19.4987 C   0  0  0  0  0  0
  -24.8800  -27.6685   19.4969 C   0  0  0  0  0  0
  -23.6363  -29.8084   20.1623 C   0  0  0  0  0  0
  -25.4115  -36.3089   24.0331 C   0  0  1  0  0  0
  -20.5883  -28.3678   23.1293 C   0  0  2  0  0  0
  -20.6771  -26.9403   22.5411 C   0  0  0  0  0  0
  -19.5739  -26.6385   21.5217 C   0  0  0  0  0  0
  -18.1922  -26.7928   22.1631 C   0  0  0  0  0  0
  -19.1535  -28.8847   23.2893 C   0  0  0  0  0  0
  -18.9456  -30.1453   23.8902 C   0  0  0  0  0  0
  -17.6457  -30.6586   24.0566 C   0  0  0  0  0  0
  -25.9051  -34.9456   23.5110 C   0  0  0  0  0  0
  -16.5347  -29.9083   23.6334 C   0  0  0  0  0  0
  -16.7272  -28.6498   23.0362 C   0  0  0  0  0  0
  -26.4467  -31.6600   25.0736 C   0  0  0  0  0  0
  -25.3700  -31.3748   26.1467 C   0  0  0  0  0  0
  -27.0303  -30.3019   24.6196 C   0  0  0  0  0  0
  -27.6024  -32.4348   25.7497 C   0  0  0  0  0  0
  -27.5582  -37.1803   24.8462 C   0  0  0  0  0  0
  -21.4184  -29.3026   22.3686 N   0  0  0  0  0  0
  -26.4293  -37.3782   23.9408 N   0  0  0  0  0  0
  -24.6851  -31.0616   22.0977 N   0  0  0  0  0  0
  -23.4194  -28.8177   23.3044 O   0  0  0  0  0  0
  -28.3599  -26.4946   20.0956 O   0  0  0  0  0  0
  -26.5630  -34.8920   22.4683 O   0  0  0  0  0  0
  -23.5396  -32.1406   23.7349 O   0  0  0  0  0  0
  -30.4119  -17.9838   20.1514 C   0  0  0  0  0  0
  -28.6328  -17.6503   21.8187 C   0  0  0  0  0  0
  -30.0203  -19.3572   20.1937 C   0  0  0  0  0  0
  -28.2765  -19.0386   21.8458 C   0  0  0  0  0  0
  -28.9620  -19.9175   20.9935 C   0  0  0  0  0  0
  -29.6633  -17.0839   20.9900 C   0  0  0  0  0  0
  -29.2058  -22.5927   21.0436 C   0  0  0  0  0  0
  -30.3229  -20.7400   19.6471 C   0  0  0  0  0  0
  -27.1793  -19.5634   22.7477 C   0  0  0  0  0  0
  -27.2583  -25.1142   21.8908 C   0  0  0  0  0  0
  -29.6887  -25.7612   21.8446 C   0  0  0  0  0  0
  -28.8399  -23.9103   20.2229 C   0  0  0  0  0  0
  -28.4972  -25.3027   20.9786 C   0  0  0  0  0  0
  -29.1684  -21.2918   20.4516 N   0  0  0  0  0  0
  -29.7828  -15.6227   21.0655 N   0  0  0  0  0  0
  -29.4004  -22.6593   22.2580 O   0  0  0  0  0  0
  -31.4903  -12.5604   19.1414 H   0  0  0  0  0  0
  -30.4071  -11.4050   19.8670 H   0  0  0  0  0  0
  -29.7826  -11.7892   17.4668 H   0  0  0  0  0  0
  -29.6534  -13.5045   17.7501 H   0  0  0  0  0  0
  -27.8689  -11.3063   18.8424 H   0  0  0  0  0  0
  -27.3832  -12.6103   17.7902 H   0  0  0  0  0  0
  -27.6864  -14.2573   19.5541 H   0  0  0  0  0  0
  -28.7228  -11.9941   21.3287 H   0  0  0  0  0  0
  -28.4387  -13.6147   21.8774 H   0  0  0  0  0  0
  -25.2765   -9.5680   22.4745 H   0  0  0  0  0  0
  -24.0000   -7.4631   22.7476 H   0  0  0  0  0  0
  -21.0829   -8.8761   19.8962 H   0  0  0  0  0  0
  -22.3688  -10.9658   19.6152 H   0  0  0  0  0  0
  -21.1993   -7.6145   23.9723 H   0  0  0  0  0  0
  -21.1482   -6.0515   25.9084 H   0  0  0  0  0  0
  -22.0597   -2.7602   23.2848 H   0  0  0  0  0  0
  -22.4089  -11.9900   22.4815 H   0  0  0  0  0  0
  -21.1111  -13.1277   22.2588 H   0  0  0  0  0  0
  -24.6562  -15.8377   20.5236 H   0  0  0  0  0  0
  -26.2765  -15.6351   20.0904 H   0  0  0  0  0  0
  -26.7157  -32.5458   23.1115 H   0  0  0  0  0  0
  -25.0024  -33.9740   25.0405 H   0  0  0  0  0  0
  -22.7124  -31.2999   21.3987 H   0  0  0  0  0  0
  -23.3757  -35.9615   23.3307 H   0  0  0  0  0  0
  -24.3574  -36.8908   22.2055 H   0  0  0  0  0  0
  -23.7229  -37.6489   23.6662 H   0  0  0  0  0  0
  -26.0950  -31.5532   20.6089 H   0  0  0  0  0  0
  -26.8370  -30.8384   22.0094 H   0  0  0  0  0  0
  -28.1205  -28.9982   21.1984 H   0  0  0  0  0  0
  -26.0440  -25.9226   19.0143 H   0  0  0  0  0  0
  -23.9887  -27.2901   19.0152 H   0  0  0  0  0  0
  -23.7518  -30.5821   19.4023 H   0  0  0  0  0  0
  -22.7582  -29.2334   19.8634 H   0  0  0  0  0  0
  -25.1297  -36.1941   25.0824 H   0  0  0  0  0  0
  -20.9979  -28.3244   24.1413 H   0  0  0  0  0  0
  -20.5674  -26.2285   23.3605 H   0  0  0  0  0  0
  -21.6636  -26.7437   22.1193 H   0  0  0  0  0  0
  -19.6895  -25.6300   21.1235 H   0  0  0  0  0  0
  -19.6674  -27.3209   20.6757 H   0  0  0  0  0  0
  -17.4194  -26.6692   21.4028 H   0  0  0  0  0  0
  -18.0311  -26.0065   22.9017 H   0  0  0  0  0  0
  -19.7930  -30.7270   24.2269 H   0  0  0  0  0  0
  -17.5009  -31.6265   24.5164 H   0  0  0  0  0  0
  -15.5346  -30.2984   23.7652 H   0  0  0  0  0  0
  -15.8673  -28.0816   22.7074 H   0  0  0  0  0  0
  -24.5831  -30.7152   25.7788 H   0  0  0  0  0  0
  -24.8937  -32.2922   26.4941 H   0  0  0  0  0  0
  -25.8006  -30.8869   27.0219 H   0  0  0  0  0  0
  -26.2880  -29.6794   24.1184 H   0  0  0  0  0  0
  -27.3948  -29.7253   25.4707 H   0  0  0  0  0  0
  -27.8775  -30.4299   23.9457 H   0  0  0  0  0  0
  -27.2618  -33.3636   26.2089 H   0  0  0  0  0  0
  -28.3810  -32.6940   25.0312 H   0  0  0  0  0  0
  -28.0721  -31.8481   26.5399 H   0  0  0  0  0  0
  -28.2596  -38.0106   24.7520 H   0  0  0  0  0  0
  -28.1081  -36.2637   24.6272 H   0  0  0  0  0  0
  -27.2302  -37.1430   25.8865 H   0  0  0  0  0  0
  -20.9365  -29.8734   21.6882 H   0  0  0  0  0  0
  -26.0176  -38.2856   24.1414 H   0  0  0  0  0  0
  -31.2101  -17.6424   19.5081 H   0  0  0  0  0  0
  -28.0740  -16.9861   22.4631 H   0  0  0  0  0  0
  -30.1788  -20.8299   18.5700 H   0  0  0  0  0  0
  -31.2998  -21.1080   19.9661 H   0  0  0  0  0  0
  -26.6475  -18.7548   23.2491 H   0  0  0  0  0  0
  -26.4571  -20.1395   22.1685 H   0  0  0  0  0  0
  -27.6024  -20.2197   23.5091 H   0  0  0  0  0  0
  -27.4120  -24.3251   22.6265 H   0  0  0  0  0  0
  -26.3754  -24.8382   21.3147 H   0  0  0  0  0  0
  -27.0229  -26.0170   22.4556 H   0  0  0  0  0  0
  -29.9056  -25.0774   22.6632 H   0  0  0  0  0  0
  -29.4984  -26.7364   22.2950 H   0  0  0  0  0  0
  -30.5957  -25.8518   21.2455 H   0  0  0  0  0  0
  -28.0010  -23.6588   19.5744 H   0  0  0  0  0  0
  -29.6786  -24.0884   19.5500 H   0  0  0  0  0  0
  -28.9899  -15.1917   21.5158 H   0  0  0  0  0  0
  1 25  1  0  0  0
  1 30  2  0  0  0
  1 85  1  0  0  0
  2  3  1  0  0  0
  2 25  1  0  0  0
  2 87  1  0  0  0
  2 88  1  0  0  0
  3  4  1  0  0  0
  3 89  1  0  0  0
  3 90  1  0  0  0
  4  5  1  0  0  0
  4 91  1  0  0  0
  4 92  1  0  0  0
  5  6  1  0  0  0
  5 26  1  0  0  0
  5 93  1  0  0  0
  6 25  1  0  0  0
  6 94  1  0  0  0
  6 95  1  0  0  0
  7  8  2  0  0  0
  7 26  1  0  0  0
  7 29  1  0  0  0
  8  9  1  0  0  0
  8 22  1  0  0  0
  9 10  1  0  0  0
  9 27  2  0  0  0
 10 11  2  0  0  0
 10 15  1  0  0  0
 11 12  1  0  0  0
 11 96  1  0  0  0
 12 13  2  0  0  0
 12 97  1  0  0  0
 13 14  1  0  0  0
 13 31  1  0  0  0
 14 15  2  0  0  0
 14 98  1  0  0  0
 15 99  1  0  0  0
 16 17  2  0  0  0
 16 21  1  0  0  0
 16 31  1  0  0  0
 17 18  1  0  0  0
 17100  1  0  0  0
 18 19  2  0  0  0
 18101  1  0  0  0
 19 20  1  0  0  0
 19 24  1  0  0  0
 20 21  2  0  0  0
 20102  1  0  0  0
 21 23  1  0  0  0
 22 28  1  0  0  0
 22 32  2  0  0  0
 26 27  1  0  0  0
 28103  1  0  0  0
 28104  1  0  0  0
 29105  1  0  0  0
 29106  1  0  0  0
 33 34  1  0  0  0
 33 66  1  0  0  0
 33 70  2  0  0  0
 34 36  1  0  0  0
 34 59  1  0  0  0
 34107  1  0  0  0
 35 44  2  0  0  0
 35 45  1  0  0  0
 35 68  1  0  0  0
 36 56  1  0  0  0
 36108  1  0  0  0
 37 39  1  0  0  0
 37 47  1  0  0  0
 37 66  1  0  0  0
 37109  1  0  0  0
 38 43  2  0  0  0
 38 46  1  0  0  0
 38 47  1  0  0  0
 39 64  1  0  0  0
 39 67  2  0  0  0
 40 52  1  0  0  0
 40 53  2  0  0  0
 40 58  1  0  0  0
 41110  1  0  0  0
 41111  1  0  0  0
 41112  1  0  0  0
 41 48  1  0  0  0
 42 43  1  0  0  0
 42 66  1  0  0  0
 42113  1  0  0  0
 42114  1  0  0  0
 43 44  1  0  0  0
 44115  1  0  0  0
 45 46  2  0  0  0
 45116  1  0  0  0
 46117  1  0  0  0
 47118  1  0  0  0
 47119  1  0  0  0
 48 56  1  0  0  0
 48 65  1  0  0  0
 48120  1  0  0  0
 49 50  1  0  0  0
 49 53  1  0  0  0
 49 64  1  0  0  0
 49121  1  0  0  0
 50 51  1  0  0  0
 50122  1  0  0  0
 50123  1  0  0  0
 51 52  1  0  0  0
 51124  1  0  0  0
 51125  1  0  0  0
 52126  1  0  0  0
 52127  1  0  0  0
 53 54  1  0  0  0
 54 55  2  0  0  0
 54128  1  0  0  0
 55 57  1  0  0  0
 55129  1  0  0  0
 56 69  2  0  0  0
 57 58  2  0  0  0
 57130  1  0  0  0
 58131  1  0  0  0
 59 60  1  0  0  0
 59 61  1  0  0  0
 59 62  1  0  0  0
 60132  1  0  0  0
 60133  1  0  0  0
 60134  1  0  0  0
 61135  1  0  0  0
 61136  1  0  0  0
 61137  1  0  0  0
 62138  1  0  0  0
 62139  1  0  0  0
 62140  1  0  0  0
 63 65  1  0  0  0
 63141  1  0  0  0
 63142  1  0  0  0
 63143  1  0  0  0
 64144  1  0  0  0
 65145  1  0  0  0
 68 83  1  0  0  0
 71 73  2  0  0  0
 71 76  1  0  0  0
 71146  1  0  0  0
 72 74  1  0  0  0
 72 76  2  0  0  0
 72147  1  0  0  0
 73 75  1  0  0  0
 73 78  1  0  0  0
 74 75  2  0  0  0
 74 79  1  0  0  0
 75 84  1  0  0  0
 76 85  1  0  0  0
 77 82  1  0  0  0
 77 84  1  0  0  0
 77 86  2  0  0  0
 78 84  1  0  0  0
 78148  1  0  0  0
 78149  1  0  0  0
 79150  1  0  0  0
 79151  1  0  0  0
 79152  1  0  0  0
 80153  1  0  0  0
 80154  1  0  0  0
 80155  1  0  0  0
 80 83  1  0  0  0
 81 83  1  0  0  0
 81156  1  0  0  0
 81157  1  0  0  0
 81158  1  0  0  0
 82 83  1  0  0  0
 82159  1  0  0  0
 82160  1  0  0  0
 85161  1  0  0  0
M  ISO  4   1 100  68 101  83 101  85 100
M  END
> <chiral flag>
0

> <version>
0

> <s_m_source_file>
/data/baiqing/PycharmProjects/Reinvent-master-3.2/result/LINK_invent/BTK/process_docking_weight1_custom_product_contain_oxygen_bond_distance_aromatic_linkinvent_7_9_3/rearranged_h_0143.sdf

> <i_m_source_file_index>
18

> <r_mmod_Potential_Energy-OPLS-2005>
429.558776855469

> <r_mmod_Stretch_Energy-OPLS-2005>
100.354476928711

> <r_mmod_Bend_Energy-OPLS-2005>
509.478485107422

> <r_mmod_Torsional_Energy-OPLS-2005>
254.578567504883

> <r_mmod_Improper_Torsional_Energy-OPLS-2005>
10.3433208465576

> <r_mmod_Van_der_Waal_Energy-OPLS-2005>
130.45915222168

> <r_mmod_Electrostatic_Energy-OPLS-2005>
-408.077026367188

> <r_mmod_Solvation_Energy-OPLS-2005>
-214.850479125977

> <b_mmod_Minimization_Converged-OPLS-2005>
0

> <r_mmod_RMS_Derivative-OPLS-2005>
1.07672619819641

$$$$
18
                    3D
 Structure written by MMmdl.
159168  0  0  1  0            999 V2000
  -30.6726  -14.4956   20.5547 C   0  0  0  0  0  0
  -30.4377  -12.3172   19.4223 C   0  0  0  0  0  0
  -29.5054  -12.5093   18.2059 C   0  0  0  0  0  0
  -28.0246  -12.3634   18.6137 C   0  0  0  0  0  0
  -27.6648  -13.1985   19.8712 C   0  0  2  0  0  0
  -28.7065  -12.9725   20.9914 C   0  0  0  0  0  0
  -25.2624  -13.8147   20.5672 C   0  0  0  0  0  0
  -24.1852  -13.0438   20.9141 C   0  0  0  0  0  0
  -24.6369  -11.6901   20.8681 C   0  0  0  0  0  0
  -23.9027  -10.4302   21.0381 C   0  0  0  0  0  0
  -24.3592   -9.4237   21.9171 C   0  0  0  0  0  0
  -23.6265   -8.2274   22.0761 C   0  0  0  0  0  0
  -22.4264   -8.0286   21.3537 C   0  0  0  0  0  0
  -21.9872   -9.0267   20.4657 C   0  0  0  0  0  0
  -22.7186  -10.2148   20.3055 C   0  0  0  0  0  0
  -21.6855   -6.0717   22.5268 C   0  0  0  0  0  0
  -21.4017   -6.5624   23.8198 C   0  0  0  0  0  0
  -21.3668   -5.6779   24.9157 C   0  0  0  0  0  0
  -21.6048   -4.3043   24.7213 C   0  0  0  0  0  0
  -21.8830   -3.8122   23.4341 C   0  0  0  0  0  0
  -21.9205   -4.6939   22.3391 C   0  0  0  0  0  0
  -22.7879  -13.5274   21.1793 C   0  0  0  0  0  0
  -22.1679   -4.2126   21.0961 F   0  0  0  0  0  0
  -21.5628   -3.4532   25.7727 F   0  0  0  0  0  0
  -30.0404  -13.2940   20.4494 N   0  0  0  0  0  0
  -26.3038  -12.9282   20.3317 N   0  0  0  0  0  0
  -25.9289  -11.6462   20.5694 N   0  0  0  0  0  0
  -22.0487  -12.8321   22.0354 N   0  0  0  0  0  0
  -25.4403  -15.1871   20.4163 N   0  0  0  0  0  0
  -31.7908  -14.7147   20.0764 O   0  0  0  0  0  0
  -21.6648   -6.8871   21.4238 O   0  0  0  0  0  0
  -22.3604  -14.5589   20.6624 O   0  0  0  0  0  0
  -24.6136  -31.8665   23.2091 C   0  0  0  0  0  0
  -25.9032  -32.4813   23.8393 C   0  0  1  0  0  0
  -27.2527  -27.4395   20.1075 C   0  0  0  0  0  0
  -25.5897  -33.8611   24.2329 N   0  0  0  0  0  0
  -23.4045  -30.4849   21.5486 C   0  0  2  0  0  0
  -24.8567  -28.9454   20.1222 C   0  0  0  0  0  0
  -22.7405  -29.4631   22.4995 C   0  0  0  0  0  0
  -18.0270  -28.1373   22.8481 C   0  0  0  0  0  0
  -24.1482  -36.7304   23.2626 C   0  0  0  0  0  0
  -25.9306  -30.8333   21.3633 C   0  0  0  0  0  0
  -26.0139  -29.4659   20.7157 C   0  0  0  0  0  0
  -27.2166  -28.7217   20.7010 C   0  0  0  0  0  0
  -26.0788  -26.9268   19.5165 C   0  0  0  0  0  0
  -24.8829  -27.6732   19.5218 C   0  0  0  0  0  0
  -23.6156  -29.8095   20.1670 C   0  0  0  0  0  0
  -25.4096  -36.3104   24.0334 C   0  0  1  0  0  0
  -20.5854  -28.3658   23.1315 C   0  0  2  0  0  0
  -20.6765  -26.9396   22.5410 C   0  0  0  0  0  0
  -19.5750  -26.6386   21.5199 C   0  0  0  0  0  0
  -18.1928  -26.7918   22.1610 C   0  0  0  0  0  0
  -19.1515  -28.8840   23.2896 C   0  0  0  0  0  0
  -18.9448  -30.1444   23.8913 C   0  0  0  0  0  0
  -17.6451  -30.6570   24.0571 C   0  0  0  0  0  0
  -25.9032  -34.9469   23.5127 C   0  0  0  0  0  0
  -16.5348  -29.9073   23.6316 C   0  0  0  0  0  0
  -16.7258  -28.6489   23.0342 C   0  0  0  0  0  0
  -26.4482  -31.6590   25.0712 C   0  0  0  0  0  0
  -25.3770  -31.3728   26.1487 C   0  0  0  0  0  0
  -27.0275  -30.3014   24.6078 C   0  0  0  0  0  0
  -27.6085  -32.4291   25.7451 C   0  0  0  0  0  0
  -27.5601  -37.1776   24.8438 C   0  0  0  0  0  0
  -21.4132  -29.3013   22.3715 N   0  0  0  0  0  0
  -26.4281  -37.3798   23.9433 N   0  0  0  0  0  0
  -24.6671  -31.0762   22.0988 N   0  0  0  0  0  0
  -23.4161  -28.8178   23.3051 O   0  0  0  0  0  0
  -28.4281  -26.7240   20.0572 O   0  0  0  0  0  0
  -26.5587  -34.8916   22.4682 O   0  0  0  0  0  0
  -23.5332  -32.1430   23.7481 O   0  0  0  0  0  0
  -30.4326  -17.8973   21.0606 C   0  0  0  0  0  0
  -28.8745  -18.8096   19.6065 C   0  0  0  0  0  0
  -29.8950  -19.0992   20.4766 C   0  0  0  0  0  0
  -29.7963  -16.7333   20.6753 C   0  0  0  0  0  0
  -29.2106  -24.3897   20.0507 C   0  0  0  0  0  0
  -29.2777  -21.3147   21.5713 C   0  0  0  0  0  0
  -30.7484  -21.3385   19.5499 C   0  0  0  0  0  0
  -29.7743  -22.7189   21.9873 C   0  0  0  0  0  0
  -31.2609  -22.7542   19.9178 C   0  0  0  0  0  0
  -30.3516  -20.5167   20.7981 C   0  0  2  0  0  0
  -30.2988  -23.5876   20.8142 C   0  0  1  0  0  0
  -28.4484  -25.4987   20.8102 C   0  0  0  0  0  0
  -29.9500  -15.4661   21.1489 N   0  0  0  0  0  0
  -28.9715  -24.1711   18.8584 O   0  0  0  0  0  0
  -28.5436  -17.1016   19.5163 S   0  0  0  0  0  0
  -31.4794  -12.4368   19.1182 H   0  0  0  0  0  0
  -30.3590  -11.3021   19.8170 H   0  0  0  0  0  0
  -29.7512  -11.7843   17.4287 H   0  0  0  0  0  0
  -29.6700  -13.4957   17.7663 H   0  0  0  0  0  0
  -27.8344  -11.3059   18.8015 H   0  0  0  0  0  0
  -27.3809  -12.6433   17.7804 H   0  0  0  0  0  0
  -27.7078  -14.2460   19.5733 H   0  0  0  0  0  0
  -28.6880  -11.9310   21.3162 H   0  0  0  0  0  0
  -28.4569  -13.5574   21.8768 H   0  0  0  0  0  0
  -25.2737   -9.5723   22.4730 H   0  0  0  0  0  0
  -23.9987   -7.4683   22.7489 H   0  0  0  0  0  0
  -21.0805   -8.8774   19.8972 H   0  0  0  0  0  0
  -22.3631  -10.9686   19.6172 H   0  0  0  0  0  0
  -21.2009   -7.6140   23.9696 H   0  0  0  0  0  0
  -21.1479   -6.0503   25.9058 H   0  0  0  0  0  0
  -22.0602   -2.7583   23.2850 H   0  0  0  0  0  0
  -22.4040  -11.9982   22.4792 H   0  0  0  0  0  0
  -21.1110  -13.1447   22.2492 H   0  0  0  0  0  0
  -24.6857  -15.8509   20.5447 H   0  0  0  0  0  0
  -26.3037  -15.6246   20.1187 H   0  0  0  0  0  0
  -26.7092  -32.5549   23.1155 H   0  0  0  0  0  0
  -25.0091  -33.9776   25.0504 H   0  0  0  0  0  0
  -22.6935  -31.3006   21.4035 H   0  0  0  0  0  0
  -23.3742  -35.9640   23.3280 H   0  0  0  0  0  0
  -24.3599  -36.8918   22.2036 H   0  0  0  0  0  0
  -23.7224  -37.6504   23.6640 H   0  0  0  0  0  0
  -26.0396  -31.5965   20.5918 H   0  0  0  0  0  0
  -26.8184  -30.8929   21.9816 H   0  0  0  0  0  0
  -28.1149  -29.1241   21.1485 H   0  0  0  0  0  0
  -26.0935  -25.9561   19.0409 H   0  0  0  0  0  0
  -23.9934  -27.2647   19.0613 H   0  0  0  0  0  0
  -23.7224  -30.5797   19.4022 H   0  0  0  0  0  0
  -22.7413  -29.2258   19.8728 H   0  0  0  0  0  0
  -25.1253  -36.1975   25.0816 H   0  0  0  0  0  0
  -20.9938  -28.3235   24.1439 H   0  0  0  0  0  0
  -20.5661  -26.2268   23.3594 H   0  0  0  0  0  0
  -21.6644  -26.7440   22.1225 H   0  0  0  0  0  0
  -19.6923  -25.6305   21.1220 H   0  0  0  0  0  0
  -19.6689  -27.3204   20.6737 H   0  0  0  0  0  0
  -17.4192  -26.6643   21.4027 H   0  0  0  0  0  0
  -18.0344  -26.0065   22.9007 H   0  0  0  0  0  0
  -19.7931  -30.7255   24.2288 H   0  0  0  0  0  0
  -17.5008  -31.6253   24.5164 H   0  0  0  0  0  0
  -15.5354  -30.2984   23.7637 H   0  0  0  0  0  0
  -15.8660  -28.0824   22.7056 H   0  0  0  0  0  0
  -24.5904  -30.7102   25.7860 H   0  0  0  0  0  0
  -24.9023  -32.2906   26.4962 H   0  0  0  0  0  0
  -25.8143  -30.8886   27.0225 H   0  0  0  0  0  0
  -26.2786  -29.6787   24.1158 H   0  0  0  0  0  0
  -27.4059  -29.7238   25.4524 H   0  0  0  0  0  0
  -27.8632  -30.4302   23.9190 H   0  0  0  0  0  0
  -27.2737  -33.3587   26.2065 H   0  0  0  0  0  0
  -28.3870  -32.6851   25.0250 H   0  0  0  0  0  0
  -28.0773  -31.8392   26.5336 H   0  0  0  0  0  0
  -28.2546  -38.0146   24.7608 H   0  0  0  0  0  0
  -28.1165  -36.2695   24.6088 H   0  0  0  0  0  0
  -27.2353  -37.1193   25.8841 H   0  0  0  0  0  0
  -20.9302  -29.8742   21.6934 H   0  0  0  0  0  0
  -26.0163  -38.2855   24.1540 H   0  0  0  0  0  0
  -31.2399  -17.9336   21.7784 H   0  0  0  0  0  0
  -28.2736  -19.5000   19.0258 H   0  0  0  0  0  0
  -28.3754  -21.4106   20.9658 H   0  0  0  0  0  0
  -28.9871  -20.7591   22.4641 H   0  0  0  0  0  0
  -31.5253  -20.8108   18.9950 H   0  0  0  0  0  0
  -29.9001  -21.4263   18.8701 H   0  0  0  0  0  0
  -30.5853  -22.5974   22.7069 H   0  0  0  0  0  0
  -28.9847  -23.2396   22.5304 H   0  0  0  0  0  0
  -31.4970  -23.3048   19.0058 H   0  0  0  0  0  0
  -32.2131  -22.6529   20.4409 H   0  0  0  0  0  0
  -31.2357  -20.4466   21.4352 H   0  0  0  0  0  0
  -30.9080  -24.3760   21.2608 H   0  0  0  0  0  0
  -28.9330  -25.6849   21.7695 H   0  0  0  0  0  0
  -27.4392  -25.1467   21.0253 H   0  0  0  0  0  0
  -29.1089  -15.0827   21.5541 H   0  0  0  0  0  0
  1 25  1  0  0  0
  1 30  2  0  0  0
  1 83  1  0  0  0
  2  3  1  0  0  0
  2 25  1  0  0  0
  2 86  1  0  0  0
  2 87  1  0  0  0
  3  4  1  0  0  0
  3 88  1  0  0  0
  3 89  1  0  0  0
  4  5  1  0  0  0
  4 90  1  0  0  0
  4 91  1  0  0  0
  5  6  1  0  0  0
  5 26  1  0  0  0
  5 92  1  0  0  0
  6 25  1  0  0  0
  6 93  1  0  0  0
  6 94  1  0  0  0
  7  8  2  0  0  0
  7 26  1  0  0  0
  7 29  1  0  0  0
  8  9  1  0  0  0
  8 22  1  0  0  0
  9 10  1  0  0  0
  9 27  2  0  0  0
 10 11  2  0  0  0
 10 15  1  0  0  0
 11 12  1  0  0  0
 11 95  1  0  0  0
 12 13  2  0  0  0
 12 96  1  0  0  0
 13 14  1  0  0  0
 13 31  1  0  0  0
 14 15  2  0  0  0
 14 97  1  0  0  0
 15 98  1  0  0  0
 16 17  2  0  0  0
 16 21  1  0  0  0
 16 31  1  0  0  0
 17 18  1  0  0  0
 17 99  1  0  0  0
 18 19  2  0  0  0
 18100  1  0  0  0
 19 20  1  0  0  0
 19 24  1  0  0  0
 20 21  2  0  0  0
 20101  1  0  0  0
 21 23  1  0  0  0
 22 28  1  0  0  0
 22 32  2  0  0  0
 26 27  1  0  0  0
 28102  1  0  0  0
 28103  1  0  0  0
 29104  1  0  0  0
 29105  1  0  0  0
 33 34  1  0  0  0
 33 66  1  0  0  0
 33 70  2  0  0  0
 34 36  1  0  0  0
 34 59  1  0  0  0
 34106  1  0  0  0
 35 44  2  0  0  0
 35 45  1  0  0  0
 35 68  1  0  0  0
 36 56  1  0  0  0
 36107  1  0  0  0
 37 39  1  0  0  0
 37 47  1  0  0  0
 37 66  1  0  0  0
 37108  1  0  0  0
 38 43  2  0  0  0
 38 46  1  0  0  0
 38 47  1  0  0  0
 39 64  1  0  0  0
 39 67  2  0  0  0
 40 52  1  0  0  0
 40 53  2  0  0  0
 40 58  1  0  0  0
 41109  1  0  0  0
 41110  1  0  0  0
 41111  1  0  0  0
 41 48  1  0  0  0
 42 43  1  0  0  0
 42 66  1  0  0  0
 42112  1  0  0  0
 42113  1  0  0  0
 43 44  1  0  0  0
 44114  1  0  0  0
 45 46  2  0  0  0
 45115  1  0  0  0
 46116  1  0  0  0
 47117  1  0  0  0
 47118  1  0  0  0
 48 56  1  0  0  0
 48 65  1  0  0  0
 48119  1  0  0  0
 49 50  1  0  0  0
 49 53  1  0  0  0
 49 64  1  0  0  0
 49120  1  0  0  0
 50 51  1  0  0  0
 50121  1  0  0  0
 50122  1  0  0  0
 51 52  1  0  0  0
 51123  1  0  0  0
 51124  1  0  0  0
 52125  1  0  0  0
 52126  1  0  0  0
 53 54  1  0  0  0
 54 55  2  0  0  0
 54127  1  0  0  0
 55 57  1  0  0  0
 55128  1  0  0  0
 56 69  2  0  0  0
 57 58  2  0  0  0
 57129  1  0  0  0
 58130  1  0  0  0
 59 60  1  0  0  0
 59 61  1  0  0  0
 59 62  1  0  0  0
 60131  1  0  0  0
 60132  1  0  0  0
 60133  1  0  0  0
 61134  1  0  0  0
 61135  1  0  0  0
 61136  1  0  0  0
 62137  1  0  0  0
 62138  1  0  0  0
 62139  1  0  0  0
 63 65  1  0  0  0
 63140  1  0  0  0
 63141  1  0  0  0
 63142  1  0  0  0
 64143  1  0  0  0
 65144  1  0  0  0
 68 82  1  0  0  0
 71 73  1  0  0  0
 71 74  2  0  0  0
 71145  1  0  0  0
 72 73  2  0  0  0
 72 85  1  0  0  0
 72146  1  0  0  0
 73 80  1  0  0  0
 74 83  1  0  0  0
 74 85  1  0  0  0
 75 82  1  0  0  0
 75 84  2  0  0  0
 75 81  1  0  0  0
 76 78  1  0  0  0
 76 80  1  0  0  0
 76147  1  0  0  0
 76148  1  0  0  0
 77 79  1  0  0  0
 77 80  1  0  0  0
 77149  1  0  0  0
 77150  1  0  0  0
 78 81  1  0  0  0
 78151  1  0  0  0
 78152  1  0  0  0
 79 81  1  0  0  0
 79153  1  0  0  0
 79154  1  0  0  0
 80155  1  0  0  0
 81156  1  0  0  0
 82157  1  0  0  0
 82158  1  0  0  0
 83159  1  0  0  0
M  ISO  4   1 100  68 101  82 101  83 100
M  END
> <chiral flag>
0

> <version>
0

> <s_m_source_file>
/data/baiqing/PycharmProjects/Reinvent-master-3.2/result/LINK_invent/BTK/process_docking_weight1_custom_product_contain_oxygen_bond_distance_aromatic_linkinvent_7_9_3/rearranged_h_0143.sdf

> <i_m_source_file_index>
19

> <r_mmod_Potential_Energy-OPLS-2005>
3.62170934677124

> <r_mmod_Stretch_Energy-OPLS-2005>
38.7211265563965

> <r_mmod_Bend_Energy-OPLS-2005>
107.098731994629

> <r_mmod_Torsional_Energy-OPLS-2005>
281.613708496094

> <r_mmod_Improper_Torsional_Energy-OPLS-2005>
6.16552782058716

> <r_mmod_Van_der_Waal_Energy-OPLS-2005>
117.092613220215

> <r_mmod_Electrostatic_Energy-OPLS-2005>
-340.119049072266

> <r_mmod_Solvation_Energy-OPLS-2005>
-220.055206298828

> <b_mmod_Minimization_Converged-OPLS-2005>
0

> <r_mmod_RMS_Derivative-OPLS-2005>
2.9168062210083

$$$$
19
                    3D
 Structure written by MMmdl.
163171  0  0  1  0            999 V2000
  -30.7077  -14.4623   20.5325 C   0  0  0  0  0  0
  -30.4169  -12.2838   19.4385 C   0  0  0  0  0  0
  -29.5008  -12.4942   18.2160 C   0  0  0  0  0  0
  -28.0190  -12.3687   18.6235 C   0  0  0  0  0  0
  -27.6644  -13.2120   19.8784 C   0  0  2  0  0  0
  -28.7042  -13.0015   21.0029 C   0  0  0  0  0  0
  -25.2593  -13.8182   20.5669 C   0  0  0  0  0  0
  -24.1853  -13.0446   20.9176 C   0  0  0  0  0  0
  -24.6402  -11.6911   20.8734 C   0  0  0  0  0  0
  -23.9065  -10.4291   21.0385 C   0  0  0  0  0  0
  -24.3615   -9.4207   21.9166 C   0  0  0  0  0  0
  -23.6298   -8.2241   22.0740 C   0  0  0  0  0  0
  -22.4280   -8.0269   21.3527 C   0  0  0  0  0  0
  -21.9906   -9.0238   20.4636 C   0  0  0  0  0  0
  -22.7232  -10.2122   20.3037 C   0  0  0  0  0  0
  -21.6850   -6.0725   22.5275 C   0  0  0  0  0  0
  -21.4020   -6.5624   23.8204 C   0  0  0  0  0  0
  -21.3673   -5.6778   24.9171 C   0  0  0  0  0  0
  -21.6047   -4.3042   24.7220 C   0  0  0  0  0  0
  -21.8820   -3.8128   23.4340 C   0  0  0  0  0  0
  -21.9193   -4.6949   22.3401 C   0  0  0  0  0  0
  -22.7866  -13.5231   21.1831 C   0  0  0  0  0  0
  -22.1652   -4.2130   21.0975 F   0  0  0  0  0  0
  -21.5637   -3.4521   25.7735 F   0  0  0  0  0  0
  -30.0409  -13.2808   20.4531 N   0  0  0  0  0  0
  -26.3045  -12.9363   20.3383 N   0  0  0  0  0  0
  -25.9338  -11.6510   20.5792 N   0  0  0  0  0  0
  -22.0499  -12.8235   22.0401 N   0  0  0  0  0  0
  -25.4329  -15.1894   20.4070 N   0  0  0  0  0  0
  -31.8535  -14.6182   20.1032 O   0  0  0  0  0  0
  -21.6642   -6.8867   21.4231 O   0  0  0  0  0  0
  -22.3556  -14.5505   20.6628 O   0  0  0  0  0  0
  -24.6081  -31.8710   23.2135 C   0  0  0  0  0  0
  -25.8999  -32.4842   23.8408 C   0  0  1  0  0  0
  -27.2375  -27.4647   20.0908 C   0  0  0  0  0  0
  -25.5867  -33.8643   24.2343 N   0  0  0  0  0  0
  -23.3959  -30.4937   21.5532 C   0  0  2  0  0  0
  -24.8441  -28.9625   20.1195 C   0  0  0  0  0  0
  -22.7390  -29.4665   22.5017 C   0  0  0  0  0  0
  -18.0268  -28.1368   22.8489 C   0  0  0  0  0  0
  -24.1479  -36.7333   23.2640 C   0  0  0  0  0  0
  -25.9208  -30.8450   21.3637 C   0  0  0  0  0  0
  -26.0007  -29.4782   20.7205 C   0  0  0  0  0  0
  -27.1992  -28.7342   20.7163 C   0  0  0  0  0  0
  -26.0721  -26.9645   19.4791 C   0  0  0  0  0  0
  -24.8720  -27.6998   19.5003 C   0  0  0  0  0  0
  -23.6040  -29.8263   20.1674 C   0  0  0  0  0  0
  -25.4101  -36.3139   24.0342 C   0  0  1  0  0  0
  -20.5853  -28.3641   23.1341 C   0  0  2  0  0  0
  -20.6760  -26.9386   22.5430 C   0  0  0  0  0  0
  -19.5739  -26.6380   21.5221 C   0  0  0  0  0  0
  -18.1915  -26.7918   22.1617 C   0  0  0  0  0  0
  -19.1517  -28.8820   23.2909 C   0  0  0  0  0  0
  -18.9451  -30.1432   23.8907 C   0  0  0  0  0  0
  -17.6454  -30.6575   24.0563 C   0  0  0  0  0  0
  -25.9024  -34.9495   23.5144 C   0  0  0  0  0  0
  -16.5344  -29.9089   23.6313 C   0  0  0  0  0  0
  -16.7264  -28.6507   23.0330 C   0  0  0  0  0  0
  -26.4453  -31.6610   25.0711 C   0  0  0  0  0  0
  -25.3739  -31.3710   26.1476 C   0  0  0  0  0  0
  -27.0269  -30.3058   24.6047 C   0  0  0  0  0  0
  -27.6036  -32.4321   25.7462 C   0  0  0  0  0  0
  -27.5589  -37.1821   24.8464 C   0  0  0  0  0  0
  -21.4125  -29.3012   22.3754 N   0  0  0  0  0  0
  -26.4300  -37.3814   23.9417 N   0  0  0  0  0  0
  -24.6600  -31.0830   22.1025 N   0  0  0  0  0  0
  -23.4186  -28.8207   23.3042 O   0  0  0  0  0  0
  -28.3653  -26.6840   20.0203 O   0  0  0  0  0  0
  -26.5594  -34.8940   22.4711 O   0  0  0  0  0  0
  -23.5284  -32.1476   23.7533 O   0  0  0  0  0  0
  -29.9656  -18.0049   20.9312 C   0  0  0  0  0  0
  -29.8407  -19.2207   18.8172 C   0  0  0  0  0  0
  -29.8848  -16.7858   18.8200 C   0  0  0  0  0  0
  -29.9297  -19.2435   20.2324 C   0  0  0  0  0  0
  -29.9628  -16.7705   20.2322 C   0  0  0  0  0  0
  -29.8227  -18.0008   18.1157 C   0  0  0  0  0  0
  -29.4850  -24.0291   21.4320 C   0  0  0  0  0  0
  -30.2180  -21.7355   20.6015 C   0  0  0  0  0  0
  -30.0775  -22.2620   23.1236 C   0  0  0  0  0  0
  -31.9132  -23.2068   21.6902 C   0  0  0  0  0  0
  -30.1171  -25.4044   21.1270 C   0  0  0  0  0  0
  -29.1664  -26.6178   21.1933 C   0  0  0  0  0  0
  -30.4160  -22.8089   21.7129 C   0  0  0  0  0  0
  -29.9892  -20.4577   20.9935 N   0  0  0  0  0  0
  -29.9810  -15.5218   20.9346 N   0  0  0  0  0  0
  -28.2567  -23.9084   21.5058 O   0  0  0  0  0  0
  -30.3370  -22.0741   19.4211 O   0  0  0  0  0  0
  -29.7419  -17.9888   16.7524 O   0  0  0  0  0  0
  -31.4668  -12.3513   19.1470 H   0  0  0  0  0  0
  -30.2853  -11.2758   19.8356 H   0  0  0  0  0  0
  -29.7387  -11.7623   17.4423 H   0  0  0  0  0  0
  -29.6812  -13.4774   17.7804 H   0  0  0  0  0  0
  -27.8237  -11.3150   18.8228 H   0  0  0  0  0  0
  -27.3718  -12.6419   17.7904 H   0  0  0  0  0  0
  -27.7064  -14.2590   19.5760 H   0  0  0  0  0  0
  -28.6693  -11.9731   21.3621 H   0  0  0  0  0  0
  -28.4771  -13.6266   21.8686 H   0  0  0  0  0  0
  -25.2755   -9.5685   22.4748 H   0  0  0  0  0  0
  -23.9994   -7.4636   22.7466 H   0  0  0  0  0  0
  -21.0825   -8.8755   19.8967 H   0  0  0  0  0  0
  -22.3674  -10.9647   19.6144 H   0  0  0  0  0  0
  -21.2014   -7.6126   23.9700 H   0  0  0  0  0  0
  -21.1500   -6.0509   25.9073 H   0  0  0  0  0  0
  -22.0593   -2.7587   23.2840 H   0  0  0  0  0  0
  -22.4095  -11.9922   22.4849 H   0  0  0  0  0  0
  -21.1108  -13.1267   22.2559 H   0  0  0  0  0  0
  -24.6670  -15.8462   20.5124 H   0  0  0  0  0  0
  -26.2885  -15.6241   20.0845 H   0  0  0  0  0  0
  -26.7060  -32.5588   23.1170 H   0  0  0  0  0  0
  -25.0007  -33.9804   25.0480 H   0  0  0  0  0  0
  -22.6824  -31.3082   21.4148 H   0  0  0  0  0  0
  -23.3745  -35.9665   23.3307 H   0  0  0  0  0  0
  -24.3578  -36.8935   22.2057 H   0  0  0  0  0  0
  -23.7215  -37.6534   23.6644 H   0  0  0  0  0  0
  -26.0237  -31.6066   20.5895 H   0  0  0  0  0  0
  -26.8124  -30.9060   21.9757 H   0  0  0  0  0  0
  -28.0878  -29.1457   21.1738 H   0  0  0  0  0  0
  -26.0940  -25.9984   18.9921 H   0  0  0  0  0  0
  -23.9832  -27.2978   19.0324 H   0  0  0  0  0  0
  -23.7122  -30.6014   19.4074 H   0  0  0  0  0  0
  -22.7296  -29.2440   19.8696 H   0  0  0  0  0  0
  -25.1275  -36.2024   25.0835 H   0  0  0  0  0  0
  -20.9934  -28.3208   24.1462 H   0  0  0  0  0  0
  -20.5676  -26.2246   23.3610 H   0  0  0  0  0  0
  -21.6633  -26.7447   22.1210 H   0  0  0  0  0  0
  -19.6898  -25.6301   21.1226 H   0  0  0  0  0  0
  -19.6683  -27.3211   20.6770 H   0  0  0  0  0  0
  -17.4196  -26.6678   21.4009 H   0  0  0  0  0  0
  -18.0301  -26.0058   22.9004 H   0  0  0  0  0  0
  -19.7936  -30.7236   24.2283 H   0  0  0  0  0  0
  -17.5019  -31.6252   24.5170 H   0  0  0  0  0  0
  -15.5343  -30.2989   23.7628 H   0  0  0  0  0  0
  -15.8669  -28.0836   22.7015 H   0  0  0  0  0  0
  -24.5882  -30.7082   25.7829 H   0  0  0  0  0  0
  -24.8963  -32.2866   26.4974 H   0  0  0  0  0  0
  -25.8097  -30.8845   27.0209 H   0  0  0  0  0  0
  -26.2789  -29.6832   24.1120 H   0  0  0  0  0  0
  -27.4079  -29.7269   25.4473 H   0  0  0  0  0  0
  -27.8607  -30.4387   23.9147 H   0  0  0  0  0  0
  -27.2651  -33.3597   26.2093 H   0  0  0  0  0  0
  -28.3812  -32.6929   25.0270 H   0  0  0  0  0  0
  -28.0749  -31.8424   26.5338 H   0  0  0  0  0  0
  -28.2611  -38.0119   24.7522 H   0  0  0  0  0  0
  -28.1073  -36.2647   24.6266 H   0  0  0  0  0  0
  -27.2309  -37.1450   25.8868 H   0  0  0  0  0  0
  -20.9286  -29.8736   21.6978 H   0  0  0  0  0  0
  -26.0197  -38.2893   24.1431 H   0  0  0  0  0  0
  -30.0202  -17.9989   22.0120 H   0  0  0  0  0  0
  -29.7823  -20.1308   18.2419 H   0  0  0  0  0  0
  -29.8554  -15.8601   18.2623 H   0  0  0  0  0  0
  -29.0569  -21.8787   23.1846 H   0  0  0  0  0  0
  -30.1666  -23.0473   23.8756 H   0  0  0  0  0  0
  -30.7603  -21.4669   23.4262 H   0  0  0  0  0  0
  -32.2057  -23.6526   20.7379 H   0  0  0  0  0  0
  -32.5509  -22.3341   21.8382 H   0  0  0  0  0  0
  -32.1604  -23.9128   22.4838 H   0  0  0  0  0  0
  -30.6089  -25.3669   20.1554 H   0  0  0  0  0  0
  -30.8991  -25.5759   21.8634 H   0  0  0  0  0  0
  -29.7608  -27.5286   21.2730 H   0  0  0  0  0  0
  -28.5437  -26.5663   22.0880 H   0  0  0  0  0  0
  -29.9446  -20.3462   21.9974 H   0  0  0  0  0  0
  -29.1599  -15.3110   21.4821 H   0  0  0  0  0  0
  -29.7309  -18.8601   16.3661 H   0  0  0  0  0  0
  1 25  1  0  0  0
  1 30  2  0  0  0
  1 85  1  0  0  0
  2  3  1  0  0  0
  2 25  1  0  0  0
  2 89  1  0  0  0
  2 90  1  0  0  0
  3  4  1  0  0  0
  3 91  1  0  0  0
  3 92  1  0  0  0
  4  5  1  0  0  0
  4 93  1  0  0  0
  4 94  1  0  0  0
  5  6  1  0  0  0
  5 26  1  0  0  0
  5 95  1  0  0  0
  6 25  1  0  0  0
  6 96  1  0  0  0
  6 97  1  0  0  0
  7  8  2  0  0  0
  7 26  1  0  0  0
  7 29  1  0  0  0
  8  9  1  0  0  0
  8 22  1  0  0  0
  9 10  1  0  0  0
  9 27  2  0  0  0
 10 11  2  0  0  0
 10 15  1  0  0  0
 11 12  1  0  0  0
 11 98  1  0  0  0
 12 13  2  0  0  0
 12 99  1  0  0  0
 13 14  1  0  0  0
 13 31  1  0  0  0
 14 15  2  0  0  0
 14100  1  0  0  0
 15101  1  0  0  0
 16 17  2  0  0  0
 16 21  1  0  0  0
 16 31  1  0  0  0
 17 18  1  0  0  0
 17102  1  0  0  0
 18 19  2  0  0  0
 18103  1  0  0  0
 19 20  1  0  0  0
 19 24  1  0  0  0
 20 21  2  0  0  0
 20104  1  0  0  0
 21 23  1  0  0  0
 22 28  1  0  0  0
 22 32  2  0  0  0
 26 27  1  0  0  0
 28105  1  0  0  0
 28106  1  0  0  0
 29107  1  0  0  0
 29108  1  0  0  0
 33 34  1  0  0  0
 33 66  1  0  0  0
 33 70  2  0  0  0
 34 36  1  0  0  0
 34 59  1  0  0  0
 34109  1  0  0  0
 35 44  2  0  0  0
 35 45  1  0  0  0
 35 68  1  0  0  0
 36 56  1  0  0  0
 36110  1  0  0  0
 37 39  1  0  0  0
 37 47  1  0  0  0
 37 66  1  0  0  0
 37111  1  0  0  0
 38 43  2  0  0  0
 38 46  1  0  0  0
 38 47  1  0  0  0
 39 64  1  0  0  0
 39 67  2  0  0  0
 40 52  1  0  0  0
 40 53  2  0  0  0
 40 58  1  0  0  0
 41112  1  0  0  0
 41113  1  0  0  0
 41114  1  0  0  0
 41 48  1  0  0  0
 42 43  1  0  0  0
 42 66  1  0  0  0
 42115  1  0  0  0
 42116  1  0  0  0
 43 44  1  0  0  0
 44117  1  0  0  0
 45 46  2  0  0  0
 45118  1  0  0  0
 46119  1  0  0  0
 47120  1  0  0  0
 47121  1  0  0  0
 48 56  1  0  0  0
 48 65  1  0  0  0
 48122  1  0  0  0
 49 50  1  0  0  0
 49 53  1  0  0  0
 49 64  1  0  0  0
 49123  1  0  0  0
 50 51  1  0  0  0
 50124  1  0  0  0
 50125  1  0  0  0
 51 52  1  0  0  0
 51126  1  0  0  0
 51127  1  0  0  0
 52128  1  0  0  0
 52129  1  0  0  0
 53 54  1  0  0  0
 54 55  2  0  0  0
 54130  1  0  0  0
 55 57  1  0  0  0
 55131  1  0  0  0
 56 69  2  0  0  0
 57 58  2  0  0  0
 57132  1  0  0  0
 58133  1  0  0  0
 59 60  1  0  0  0
 59 61  1  0  0  0
 59 62  1  0  0  0
 60134  1  0  0  0
 60135  1  0  0  0
 60136  1  0  0  0
 61137  1  0  0  0
 61138  1  0  0  0
 61139  1  0  0  0
 62140  1  0  0  0
 62141  1  0  0  0
 62142  1  0  0  0
 63 65  1  0  0  0
 63143  1  0  0  0
 63144  1  0  0  0
 63145  1  0  0  0
 64146  1  0  0  0
 65147  1  0  0  0
 68 82  1  0  0  0
 71 74  2  0  0  0
 71 75  1  0  0  0
 71148  1  0  0  0
 72 74  1  0  0  0
 72 76  2  0  0  0
 72149  1  0  0  0
 73 75  2  0  0  0
 73 76  1  0  0  0
 73150  1  0  0  0
 74 84  1  0  0  0
 75 85  1  0  0  0
 76 88  1  0  0  0
 77 81  1  0  0  0
 77 83  1  0  0  0
 77 86  2  0  0  0
 78 83  1  0  0  0
 78 84  1  0  0  0
 78 87  2  0  0  0
 79151  1  0  0  0
 79152  1  0  0  0
 79153  1  0  0  0
 79 83  1  0  0  0
 80 83  1  0  0  0
 80154  1  0  0  0
 80155  1  0  0  0
 80156  1  0  0  0
 81 82  1  0  0  0
 81157  1  0  0  0
 81158  1  0  0  0
 82159  1  0  0  0
 82160  1  0  0  0
 84161  1  0  0  0
 85162  1  0  0  0
 88163  1  0  0  0
M  ISO  4   1 100  68 101  82 101  85 100
M  END
> <chiral flag>
0

> <version>
0

> <s_m_source_file>
/data/baiqing/PycharmProjects/Reinvent-master-3.2/result/LINK_invent/BTK/process_docking_weight1_custom_product_contain_oxygen_bond_distance_aromatic_linkinvent_7_9_3/rearranged_h_0143.sdf

> <i_m_source_file_index>
20

> <r_mmod_Potential_Energy-OPLS-2005>
6.3690938949585

> <r_mmod_Stretch_Energy-OPLS-2005>
41.3647727966309

> <r_mmod_Bend_Energy-OPLS-2005>
103.209693908691

> <r_mmod_Torsional_Energy-OPLS-2005>
283.559020996094

> <r_mmod_Improper_Torsional_Energy-OPLS-2005>
6.67215299606323

> <r_mmod_Van_der_Waal_Energy-OPLS-2005>
166.566619873047

> <r_mmod_Electrostatic_Energy-OPLS-2005>
-341.425384521484

> <r_mmod_Solvation_Energy-OPLS-2005>
-265.441131591797

> <b_mmod_Minimization_Converged-OPLS-2005>
0

> <r_mmod_RMS_Derivative-OPLS-2005>
2.53057503700256

$$$$
20
                    3D
 Structure written by MMmdl.
163172  0  0  1  0            999 V2000
  -30.6473  -14.6079   20.5184 C   0  0  0  0  0  0
  -30.4415  -12.3886   19.4374 C   0  0  0  0  0  0
  -29.5039  -12.5166   18.2151 C   0  0  0  0  0  0
  -28.0318  -12.3373   18.6386 C   0  0  0  0  0  0
  -27.6572  -13.1936   19.8768 C   0  0  2  0  0  0
  -28.7065  -13.0491   21.0019 C   0  0  0  0  0  0
  -25.2555  -13.8092   20.5671 C   0  0  0  0  0  0
  -24.1791  -13.0393   20.9162 C   0  0  0  0  0  0
  -24.6367  -11.6863   20.8754 C   0  0  0  0  0  0
  -23.9028  -10.4259   21.0410 C   0  0  0  0  0  0
  -24.3582   -9.4165   21.9175 C   0  0  0  0  0  0
  -23.6264   -8.2201   22.0754 C   0  0  0  0  0  0
  -22.4229   -8.0288   21.3553 C   0  0  0  0  0  0
  -21.9848   -9.0250   20.4652 C   0  0  0  0  0  0
  -22.7200  -10.2114   20.3059 C   0  0  0  0  0  0
  -21.6824   -6.0712   22.5255 C   0  0  0  0  0  0
  -21.4006   -6.5605   23.8196 C   0  0  0  0  0  0
  -21.3665   -5.6766   24.9168 C   0  0  0  0  0  0
  -21.6047   -4.3033   24.7207 C   0  0  0  0  0  0
  -21.8834   -3.8133   23.4323 C   0  0  0  0  0  0
  -21.9190   -4.6947   22.3392 C   0  0  0  0  0  0
  -22.7817  -13.5213   21.1837 C   0  0  0  0  0  0
  -22.1649   -4.2136   21.0965 F   0  0  0  0  0  0
  -21.5647   -3.4531   25.7713 F   0  0  0  0  0  0
  -30.0254  -13.3904   20.4396 N   0  0  0  0  0  0
  -26.2995  -12.9235   20.3407 N   0  0  0  0  0  0
  -25.9287  -11.6408   20.5789 N   0  0  0  0  0  0
  -22.0449  -12.8232   22.0402 N   0  0  0  0  0  0
  -25.4331  -15.1799   20.4025 N   0  0  0  0  0  0
  -31.7808  -14.7900   20.0623 O   0  0  0  0  0  0
  -21.6620   -6.8841   21.4210 O   0  0  0  0  0  0
  -22.3521  -14.5557   20.6726 O   0  0  0  0  0  0
  -24.6210  -31.8638   23.2058 C   0  0  0  0  0  0
  -25.9100  -32.4787   23.8352 C   0  0  1  0  0  0
  -27.2272  -27.3559   20.1251 C   0  0  0  0  0  0
  -25.5951  -33.8592   24.2310 N   0  0  0  0  0  0
  -23.4119  -30.4871   21.5470 C   0  0  2  0  0  0
  -24.8615  -28.9470   20.1140 C   0  0  0  0  0  0
  -22.7446  -29.4628   22.4943 C   0  0  0  0  0  0
  -18.0281  -28.1385   22.8446 C   0  0  0  0  0  0
  -24.1494  -36.7292   23.2619 C   0  0  0  0  0  0
  -25.9476  -30.8080   21.3684 C   0  0  0  0  0  0
  -26.0247  -29.4351   20.7210 C   0  0  0  0  0  0
  -27.2123  -28.6502   20.7188 C   0  0  0  0  0  0
  -26.0459  -26.9164   19.4836 C   0  0  0  0  0  0
  -24.8725  -27.6925   19.4844 C   0  0  0  0  0  0
  -23.6261  -29.8208   20.1611 C   0  0  0  0  0  0
  -25.4103  -36.3080   24.0331 C   0  0  1  0  0  0
  -20.5871  -28.3690   23.1293 C   0  0  2  0  0  0
  -20.6790  -26.9414   22.5425 C   0  0  0  0  0  0
  -19.5784  -26.6377   21.5207 C   0  0  0  0  0  0
  -18.1946  -26.7938   22.1581 C   0  0  0  0  0  0
  -19.1534  -28.8854   23.2867 C   0  0  0  0  0  0
  -18.9462  -30.1454   23.8886 C   0  0  0  0  0  0
  -17.6462  -30.6584   24.0561 C   0  0  0  0  0  0
  -25.9035  -34.9448   23.5110 C   0  0  0  0  0  0
  -16.5348  -29.9077   23.6320 C   0  0  0  0  0  0
  -16.7276  -28.6507   23.0319 C   0  0  0  0  0  0
  -26.4496  -31.6560   25.0683 C   0  0  0  0  0  0
  -25.3753  -31.3734   26.1428 C   0  0  0  0  0  0
  -27.0276  -30.2963   24.6086 C   0  0  0  0  0  0
  -27.6075  -32.4246   25.7469 C   0  0  0  0  0  0
  -27.5593  -37.1788   24.8439 C   0  0  0  0  0  0
  -21.4166  -29.3054   22.3699 N   0  0  0  0  0  0
  -26.4283  -37.3771   23.9420 N   0  0  0  0  0  0
  -24.6785  -31.0688   22.0988 N   0  0  0  0  0  0
  -23.4188  -28.8160   23.3000 O   0  0  0  0  0  0
  -28.3603  -26.5425   20.1560 O   0  0  0  0  0  0
  -26.5568  -34.8920   22.4642 O   0  0  0  0  0  0
  -23.5392  -32.1410   23.7427 O   0  0  0  0  0  0
  -28.3400  -18.2806   18.8779 C   0  0  0  0  0  0
  -29.0181  -19.4572   19.2474 C   0  0  0  0  0  0
  -28.6836  -17.0437   19.4505 C   0  0  0  0  0  0
  -30.3613  -18.1481   20.8184 C   0  0  0  0  0  0
  -30.0378  -19.4204   20.2217 C   0  0  0  0  0  0
  -29.7002  -16.9360   20.4230 C   0  0  0  0  0  0
  -30.8538  -20.6517   20.4795 C   0  0  0  0  0  0
  -30.6005  -24.3723   20.9512 C   0  0  0  0  0  0
  -31.4137  -23.0744   20.8241 C   0  0  0  0  0  0
  -29.0880  -22.6069   20.5210 C   0  0  0  0  0  0
  -29.3205  -24.1227   20.1440 C   0  0  2  0  0  0
  -29.5737  -24.2437   18.6226 C   0  0  0  0  0  0
  -28.1673  -25.1306   20.5246 C   0  0  0  0  0  0
  -30.4466  -21.9724   20.5751 N   0  0  0  0  0  0
  -29.9157  -15.6364   21.0308 N   0  0  0  0  0  0
  -32.1654  -20.4287   20.5773 N   0  3  0  0  0  0
  -31.4785  -12.5203   19.1256 H   0  0  0  0  0  0
  -30.3878  -11.3876   19.8643 H   0  0  0  0  0  0
  -29.7633  -11.7736   17.4579 H   0  0  0  0  0  0
  -29.6362  -13.4910   17.7418 H   0  0  0  0  0  0
  -27.8785  -11.2815   18.8603 H   0  0  0  0  0  0
  -27.3716  -12.5705   17.8015 H   0  0  0  0  0  0
  -27.6720  -14.2229   19.5410 H   0  0  0  0  0  0
  -28.7155  -12.0258   21.3816 H   0  0  0  0  0  0
  -28.4478  -13.6765   21.8573 H   0  0  0  0  0  0
  -25.2742   -9.5638   22.4741 H   0  0  0  0  0  0
  -23.9998   -7.4550   22.7437 H   0  0  0  0  0  0
  -21.0790   -8.8767   19.8925 H   0  0  0  0  0  0
  -22.3674  -10.9660   19.6167 H   0  0  0  0  0  0
  -21.1992   -7.6104   23.9692 H   0  0  0  0  0  0
  -21.1470   -6.0497   25.9069 H   0  0  0  0  0  0
  -22.0615   -2.7585   23.2837 H   0  0  0  0  0  0
  -22.4039  -11.9869   22.4769 H   0  0  0  0  0  0
  -21.1094  -13.1284   22.2648 H   0  0  0  0  0  0
  -24.6790  -15.8492   20.5170 H   0  0  0  0  0  0
  -26.2986  -15.6085   20.1078 H   0  0  0  0  0  0
  -26.7151  -32.5497   23.1101 H   0  0  0  0  0  0
  -25.0220  -33.9728   25.0535 H   0  0  0  0  0  0
  -22.7028  -31.3053   21.4055 H   0  0  0  0  0  0
  -23.3775  -35.9602   23.3224 H   0  0  0  0  0  0
  -24.3614  -36.8959   22.2048 H   0  0  0  0  0  0
  -23.7230  -37.6476   23.6660 H   0  0  0  0  0  0
  -26.0593  -31.5656   20.5910 H   0  0  0  0  0  0
  -26.8345  -30.8714   21.9854 H   0  0  0  0  0  0
  -28.1046  -29.0169   21.2050 H   0  0  0  0  0  0
  -26.0121  -25.9665   18.9689 H   0  0  0  0  0  0
  -23.9845  -27.3207   18.9916 H   0  0  0  0  0  0
  -23.7422  -30.5947   19.4013 H   0  0  0  0  0  0
  -22.7481  -29.2452   19.8607 H   0  0  0  0  0  0
  -25.1269  -36.1929   25.0821 H   0  0  0  0  0  0
  -20.9946  -28.3300   24.1423 H   0  0  0  0  0  0
  -20.5688  -26.2299   23.3629 H   0  0  0  0  0  0
  -21.6668  -26.7466   22.1245 H   0  0  0  0  0  0
  -19.6958  -25.6285   21.1255 H   0  0  0  0  0  0
  -19.6747  -27.3170   20.6728 H   0  0  0  0  0  0
  -17.4227  -26.6677   21.3976 H   0  0  0  0  0  0
  -18.0333  -26.0101   22.8993 H   0  0  0  0  0  0
  -19.7931  -30.7271   24.2268 H   0  0  0  0  0  0
  -17.5009  -31.6260   24.5167 H   0  0  0  0  0  0
  -15.5355  -30.2965   23.7661 H   0  0  0  0  0  0
  -15.8673  -28.0829   22.7020 H   0  0  0  0  0  0
  -24.6020  -30.6930   25.7845 H   0  0  0  0  0  0
  -24.8831  -32.2908   26.4666 H   0  0  0  0  0  0
  -25.8122  -30.9134   27.0299 H   0  0  0  0  0  0
  -26.2816  -29.6782   24.1081 H   0  0  0  0  0  0
  -27.3942  -29.7134   25.4546 H   0  0  0  0  0  0
  -27.8698  -30.4207   23.9276 H   0  0  0  0  0  0
  -27.2719  -33.3571   26.2013 H   0  0  0  0  0  0
  -28.3932  -32.6751   25.0330 H   0  0  0  0  0  0
  -28.0676  -31.8374   26.5430 H   0  0  0  0  0  0
  -28.2545  -38.0144   24.7535 H   0  0  0  0  0  0
  -28.1146  -36.2678   24.6161 H   0  0  0  0  0  0
  -27.2331  -37.1324   25.8842 H   0  0  0  0  0  0
  -20.9331  -29.8788   21.6926 H   0  0  0  0  0  0
  -26.0163  -38.2834   24.1461 H   0  0  0  0  0  0
  -27.5618  -18.3157   18.1284 H   0  0  0  0  0  0
  -28.7707  -20.3746   18.7355 H   0  0  0  0  0  0
  -28.1403  -16.1787   19.1145 H   0  0  0  0  0  0
  -31.1344  -18.0974   21.5733 H   0  0  0  0  0  0
  -31.1550  -25.2390   20.5895 H   0  0  0  0  0  0
  -30.3743  -24.5483   22.0057 H   0  0  0  0  0  0
  -32.0092  -22.9038   21.7239 H   0  0  0  0  0  0
  -32.1048  -23.1559   19.9813 H   0  0  0  0  0  0
  -28.4150  -22.1286   19.8119 H   0  0  0  0  0  0
  -28.6254  -22.5221   21.5078 H   0  0  0  0  0  0
  -30.3964  -23.6175   18.2785 H   0  0  0  0  0  0
  -29.8069  -25.2721   18.3451 H   0  0  0  0  0  0
  -28.6881  -23.9484   18.0578 H   0  0  0  0  0  0
  -28.0084  -25.0999   21.6047 H   0  0  0  0  0  0
  -27.2559  -24.7220   20.0946 H   0  0  0  0  0  0
  -29.0897  -15.2772   21.4858 H   0  0  0  0  0  0
  -32.5138  -19.5007   20.3861 H   0  0  0  0  0  0
  -32.8340  -21.1681   20.7077 H   0  0  0  0  0  0
  1 25  1  0  0  0
  1 30  2  0  0  0
  1 85  1  0  0  0
  2  3  1  0  0  0
  2 25  1  0  0  0
  2 87  1  0  0  0
  2 88  1  0  0  0
  3  4  1  0  0  0
  3 89  1  0  0  0
  3 90  1  0  0  0
  4  5  1  0  0  0
  4 91  1  0  0  0
  4 92  1  0  0  0
  5  6  1  0  0  0
  5 26  1  0  0  0
  5 93  1  0  0  0
  6 25  1  0  0  0
  6 94  1  0  0  0
  6 95  1  0  0  0
  7  8  2  0  0  0
  7 26  1  0  0  0
  7 29  1  0  0  0
  8  9  1  0  0  0
  8 22  1  0  0  0
  9 10  1  0  0  0
  9 27  2  0  0  0
 10 11  2  0  0  0
 10 15  1  0  0  0
 11 12  1  0  0  0
 11 96  1  0  0  0
 12 13  2  0  0  0
 12 97  1  0  0  0
 13 14  1  0  0  0
 13 31  1  0  0  0
 14 15  2  0  0  0
 14 98  1  0  0  0
 15 99  1  0  0  0
 16 17  2  0  0  0
 16 21  1  0  0  0
 16 31  1  0  0  0
 17 18  1  0  0  0
 17100  1  0  0  0
 18 19  2  0  0  0
 18101  1  0  0  0
 19 20  1  0  0  0
 19 24  1  0  0  0
 20 21  2  0  0  0
 20102  1  0  0  0
 21 23  1  0  0  0
 22 28  1  0  0  0
 22 32  2  0  0  0
 26 27  1  0  0  0
 28103  1  0  0  0
 28104  1  0  0  0
 29105  1  0  0  0
 29106  1  0  0  0
 33 34  1  0  0  0
 33 66  1  0  0  0
 33 70  2  0  0  0
 34 36  1  0  0  0
 34 59  1  0  0  0
 34107  1  0  0  0
 35 44  2  0  0  0
 35 45  1  0  0  0
 35 68  1  0  0  0
 36 56  1  0  0  0
 36108  1  0  0  0
 37 39  1  0  0  0
 37 47  1  0  0  0
 37 66  1  0  0  0
 37109  1  0  0  0
 38 43  2  0  0  0
 38 46  1  0  0  0
 38 47  1  0  0  0
 39 64  1  0  0  0
 39 67  2  0  0  0
 40 52  1  0  0  0
 40 53  2  0  0  0
 40 58  1  0  0  0
 41110  1  0  0  0
 41111  1  0  0  0
 41112  1  0  0  0
 41 48  1  0  0  0
 42 43  1  0  0  0
 42 66  1  0  0  0
 42113  1  0  0  0
 42114  1  0  0  0
 43 44  1  0  0  0
 44115  1  0  0  0
 45 46  2  0  0  0
 45116  1  0  0  0
 46117  1  0  0  0
 47118  1  0  0  0
 47119  1  0  0  0
 48 56  1  0  0  0
 48 65  1  0  0  0
 48120  1  0  0  0
 49 50  1  0  0  0
 49 53  1  0  0  0
 49 64  1  0  0  0
 49121  1  0  0  0
 50 51  1  0  0  0
 50122  1  0  0  0
 50123  1  0  0  0
 51 52  1  0  0  0
 51124  1  0  0  0
 51125  1  0  0  0
 52126  1  0  0  0
 52127  1  0  0  0
 53 54  1  0  0  0
 54 55  2  0  0  0
 54128  1  0  0  0
 55 57  1  0  0  0
 55129  1  0  0  0
 56 69  2  0  0  0
 57 58  2  0  0  0
 57130  1  0  0  0
 58131  1  0  0  0
 59 60  1  0  0  0
 59 61  1  0  0  0
 59 62  1  0  0  0
 60132  1  0  0  0
 60133  1  0  0  0
 60134  1  0  0  0
 61135  1  0  0  0
 61136  1  0  0  0
 61137  1  0  0  0
 62138  1  0  0  0
 62139  1  0  0  0
 62140  1  0  0  0
 63 65  1  0  0  0
 63141  1  0  0  0
 63142  1  0  0  0
 63143  1  0  0  0
 64144  1  0  0  0
 65145  1  0  0  0
 68 83  1  0  0  0
 71 72  2  0  0  0
 71 73  1  0  0  0
 71146  1  0  0  0
 72 75  1  0  0  0
 72147  1  0  0  0
 73 76  2  0  0  0
 73148  1  0  0  0
 74 75  2  0  0  0
 74 76  1  0  0  0
 74149  1  0  0  0
 75 77  1  0  0  0
 76 85  1  0  0  0
 77 84  1  0  0  0
 77 86  2  0  0  0
 78 79  1  0  0  0
 78 81  1  0  0  0
 78150  1  0  0  0
 78151  1  0  0  0
 79 84  1  0  0  0
 79152  1  0  0  0
 79153  1  0  0  0
 80 81  1  0  0  0
 80 84  1  0  0  0
 80154  1  0  0  0
 80155  1  0  0  0
 81 82  1  0  0  0
 81 83  1  0  0  0
 82156  1  0  0  0
 82157  1  0  0  0
 82158  1  0  0  0
 83159  1  0  0  0
 83160  1  0  0  0
 85161  1  0  0  0
 86162  1  0  0  0
 86163  1  0  0  0
M  CHG  1  86   1
M  ISO  4   1 100  68 101  83 101  85 100
M  END
> <chiral flag>
0

> <version>
0

> <s_m_source_file>
/data/baiqing/PycharmProjects/Reinvent-master-3.2/result/LINK_invent/BTK/process_docking_weight1_custom_product_contain_oxygen_bond_distance_aromatic_linkinvent_7_9_3/rearranged_h_0143.sdf

> <i_m_source_file_index>
21

> <r_mmod_Potential_Energy-OPLS-2005>
-38.9489936828613

> <r_mmod_Stretch_Energy-OPLS-2005>
67.9067687988281

> <r_mmod_Bend_Energy-OPLS-2005>
165.703414916992

> <r_mmod_Torsional_Energy-OPLS-2005>
327.254302978516

> <r_mmod_Improper_Torsional_Energy-OPLS-2005>
7.21761178970337

> <r_mmod_Van_der_Waal_Energy-OPLS-2005>
147.691268920898

> <r_mmod_Electrostatic_Energy-OPLS-2005>
-386.386871337891

> <r_mmod_Solvation_Energy-OPLS-2005>
-404.357543945312

> <b_mmod_Minimization_Converged-OPLS-2005>
0

> <r_mmod_RMS_Derivative-OPLS-2005>
3.96800708770752

$$$$
21
                    3D
 Structure written by MMmdl.
166174  0  0  1  0            999 V2000
  -30.7619  -14.3891   20.6470 C   0  0  0  0  0  0
  -30.4104  -12.2909   19.4009 C   0  0  0  0  0  0
  -29.4820  -12.5201   18.1940 C   0  0  0  0  0  0
  -28.0055  -12.3822   18.6101 C   0  0  0  0  0  0
  -27.6628  -13.2076   19.8791 C   0  0  2  0  0  0
  -28.7030  -12.9657   20.9957 C   0  0  0  0  0  0
  -25.2594  -13.8175   20.5691 C   0  0  0  0  0  0
  -24.1846  -13.0441   20.9183 C   0  0  0  0  0  0
  -24.6401  -11.6908   20.8741 C   0  0  0  0  0  0
  -23.9069  -10.4291   21.0409 C   0  0  0  0  0  0
  -24.3623   -9.4212   21.9186 C   0  0  0  0  0  0
  -23.6300   -8.2251   22.0754 C   0  0  0  0  0  0
  -22.4283   -8.0288   21.3545 C   0  0  0  0  0  0
  -21.9918   -9.0267   20.4645 C   0  0  0  0  0  0
  -22.7248  -10.2142   20.3054 C   0  0  0  0  0  0
  -21.6856   -6.0746   22.5285 C   0  0  0  0  0  0
  -21.4017   -6.5649   23.8222 C   0  0  0  0  0  0
  -21.3654   -5.6796   24.9182 C   0  0  0  0  0  0
  -21.6042   -4.3063   24.7227 C   0  0  0  0  0  0
  -21.8819   -3.8157   23.4350 C   0  0  0  0  0  0
  -21.9196   -4.6973   22.3410 C   0  0  0  0  0  0
  -22.7870  -13.5239   21.1848 C   0  0  0  0  0  0
  -22.1666   -4.2160   21.0985 F   0  0  0  0  0  0
  -21.5621   -3.4540   25.7739 F   0  0  0  0  0  0
  -30.0387  -13.2564   20.4458 N   0  0  0  0  0  0
  -26.3032  -12.9343   20.3388 N   0  0  0  0  0  0
  -25.9322  -11.6497   20.5768 N   0  0  0  0  0  0
  -22.0505  -12.8225   22.0395 N   0  0  0  0  0  0
  -25.4306  -15.1886   20.4111 N   0  0  0  0  0  0
  -31.8366  -14.6016   20.0736 O   0  0  0  0  0  0
  -21.6643   -6.8890   21.4247 O   0  0  0  0  0  0
  -22.3564  -14.5552   20.6708 O   0  0  0  0  0  0
  -24.6124  -31.8717   23.2121 C   0  0  0  0  0  0
  -25.9035  -32.4845   23.8406 C   0  0  1  0  0  0
  -27.2368  -27.4469   20.0922 C   0  0  0  0  0  0
  -25.5893  -33.8633   24.2345 N   0  0  0  0  0  0
  -23.3988  -30.4941   21.5546 C   0  0  2  0  0  0
  -24.8431  -28.9587   20.1208 C   0  0  0  0  0  0
  -22.7403  -29.4672   22.5032 C   0  0  0  0  0  0
  -18.0267  -28.1362   22.8491 C   0  0  0  0  0  0
  -24.1493  -36.7307   23.2637 C   0  0  0  0  0  0
  -25.9249  -30.8402   21.3631 C   0  0  0  0  0  0
  -26.0023  -29.4740   20.7125 C   0  0  0  0  0  0
  -27.1992  -28.7249   20.6941 C   0  0  0  0  0  0
  -26.0563  -26.9437   19.4967 C   0  0  0  0  0  0
  -24.8636  -27.6913   19.5133 C   0  0  0  0  0  0
  -23.6052  -29.8252   20.1697 C   0  0  0  0  0  0
  -25.4111  -36.3122   24.0343 C   0  0  1  0  0  0
  -20.5852  -28.3650   23.1331 C   0  0  2  0  0  0
  -20.6756  -26.9396   22.5414 C   0  0  0  0  0  0
  -19.5744  -26.6380   21.5195 C   0  0  0  0  0  0
  -18.1916  -26.7909   22.1603 C   0  0  0  0  0  0
  -19.1516  -28.8824   23.2908 C   0  0  0  0  0  0
  -18.9444  -30.1422   23.8928 C   0  0  0  0  0  0
  -17.6453  -30.6584   24.0550 C   0  0  0  0  0  0
  -25.9029  -34.9487   23.5138 C   0  0  0  0  0  0
  -16.5342  -29.9077   23.6323 C   0  0  0  0  0  0
  -16.7255  -28.6483   23.0361 C   0  0  0  0  0  0
  -26.4469  -31.6603   25.0724 C   0  0  0  0  0  0
  -25.3738  -31.3660   26.1477 C   0  0  0  0  0  0
  -27.0317  -30.3071   24.6054 C   0  0  0  0  0  0
  -27.6074  -32.4305   25.7464 C   0  0  0  0  0  0
  -27.5581  -37.1815   24.8464 C   0  0  0  0  0  0
  -21.4136  -29.3029   22.3766 N   0  0  0  0  0  0
  -26.4301  -37.3802   23.9406 N   0  0  0  0  0  0
  -24.6631  -31.0826   22.1016 N   0  0  0  0  0  0
  -23.4198  -28.8214   23.3061 O   0  0  0  0  0  0
  -28.4416  -26.7748   20.0659 O   0  0  0  0  0  0
  -26.5600  -34.8935   22.4708 O   0  0  0  0  0  0
  -23.5328  -32.1476   23.7521 O   0  0  0  0  0  0
  -30.2224  -17.6322   22.1142 C   0  0  0  0  0  0
  -32.3886  -17.6984   22.6587 C   0  0  0  0  0  0
  -31.2720  -18.4908   22.5675 C   0  0  0  0  0  0
  -30.8163  -16.4165   21.9129 C   0  0  0  0  0  0
  -31.3328  -19.9318   22.9118 C   0  0  0  0  0  0
  -28.6545  -24.7966   21.4870 C   0  0  0  0  0  0
  -27.7569  -23.5576   24.2147 C   0  0  0  0  0  0
  -29.8037  -21.6523   25.0223 C   0  0  0  0  0  0
  -30.9361  -23.1248   23.3357 C   0  0  0  0  0  0
  -30.0689  -20.7834   22.6566 C   0  0  0  0  0  0
  -28.3309  -23.3017   21.7002 C   0  0  0  0  0  0
  -28.4498  -25.3389   20.0647 C   0  0  0  0  0  0
  -28.4253  -22.6771   23.1320 C   0  0  1  0  0  0
  -29.8231  -22.0676   23.5289 C   0  0  0  0  0  0
  -30.1949  -15.3108   21.4404 N   0  0  0  0  0  0
  -32.3725  -20.4297   23.3516 O   0  0  0  0  0  0
  -29.0656  -25.5319   22.3897 O   0  0  0  0  0  0
  -32.1328  -16.4276   22.2499 O   0  0  0  0  0  0
  -31.4539  -12.3794   19.0938 H   0  0  0  0  0  0
  -30.3013  -11.2735   19.7790 H   0  0  0  0  0  0
  -29.7129  -11.8110   17.3978 H   0  0  0  0  0  0
  -29.6538  -13.5144   17.7780 H   0  0  0  0  0  0
  -27.8065  -11.3248   18.7883 H   0  0  0  0  0  0
  -27.3552  -12.6782   17.7856 H   0  0  0  0  0  0
  -27.7147  -14.2595   19.5981 H   0  0  0  0  0  0
  -28.6681  -11.9267   21.3269 H   0  0  0  0  0  0
  -28.4601  -13.5560   21.8800 H   0  0  0  0  0  0
  -25.2765   -9.5694   22.4764 H   0  0  0  0  0  0
  -24.0013   -7.4641   22.7467 H   0  0  0  0  0  0
  -21.0855   -8.8792   19.8946 H   0  0  0  0  0  0
  -22.3715  -10.9690   19.6169 H   0  0  0  0  0  0
  -21.2013   -7.6157   23.9733 H   0  0  0  0  0  0
  -21.1471   -6.0523   25.9084 H   0  0  0  0  0  0
  -22.0600   -2.7616   23.2851 H   0  0  0  0  0  0
  -22.4116  -11.9879   22.4773 H   0  0  0  0  0  0
  -21.1120  -13.1255   22.2591 H   0  0  0  0  0  0
  -24.6621  -15.8420   20.5162 H   0  0  0  0  0  0
  -26.2842  -15.6297   20.0910 H   0  0  0  0  0  0
  -26.7108  -32.5579   23.1172 H   0  0  0  0  0  0
  -25.0056  -33.9765   25.0502 H   0  0  0  0  0  0
  -22.6855  -31.3098   21.4177 H   0  0  0  0  0  0
  -23.3756  -35.9635   23.3307 H   0  0  0  0  0  0
  -24.3580  -36.8906   22.2042 H   0  0  0  0  0  0
  -23.7230  -37.6510   23.6653 H   0  0  0  0  0  0
  -26.0325  -31.6081   20.5956 H   0  0  0  0  0  0
  -26.8122  -30.8947   21.9812 H   0  0  0  0  0  0
  -28.0975  -29.1222   21.1456 H   0  0  0  0  0  0
  -26.0339  -25.9942   18.9846 H   0  0  0  0  0  0
  -23.9733  -27.2933   19.0446 H   0  0  0  0  0  0
  -23.7117  -30.6007   19.4103 H   0  0  0  0  0  0
  -22.7292  -29.2446   19.8760 H   0  0  0  0  0  0
  -25.1289  -36.1993   25.0836 H   0  0  0  0  0  0
  -20.9928  -28.3204   24.1456 H   0  0  0  0  0  0
  -20.5656  -26.2253   23.3592 H   0  0  0  0  0  0
  -21.6631  -26.7460   22.1214 H   0  0  0  0  0  0
  -19.6925  -25.6295   21.1216 H   0  0  0  0  0  0
  -19.6680  -27.3195   20.6730 H   0  0  0  0  0  0
  -17.4188  -26.6647   21.4004 H   0  0  0  0  0  0
  -18.0325  -26.0041   22.8990 H   0  0  0  0  0  0
  -19.7929  -30.7199   24.2341 H   0  0  0  0  0  0
  -17.5019  -31.6277   24.5124 H   0  0  0  0  0  0
  -15.5344  -30.2986   23.7647 H   0  0  0  0  0  0
  -15.8642  -28.0806   22.7092 H   0  0  0  0  0  0
  -24.5938  -30.6994   25.7780 H   0  0  0  0  0  0
  -24.8891  -32.2777   26.4985 H   0  0  0  0  0  0
  -25.8098  -30.8793   27.0209 H   0  0  0  0  0  0
  -26.2853  -29.6796   24.1182 H   0  0  0  0  0  0
  -27.4194  -29.7347   25.4482 H   0  0  0  0  0  0
  -27.8630  -30.4408   23.9127 H   0  0  0  0  0  0
  -27.2755  -33.3613   26.2077 H   0  0  0  0  0  0
  -28.3867  -32.6840   25.0260 H   0  0  0  0  0  0
  -28.0776  -31.8402   26.5338 H   0  0  0  0  0  0
  -28.2622  -38.0103   24.7543 H   0  0  0  0  0  0
  -28.1071  -36.2638   24.6283 H   0  0  0  0  0  0
  -27.2305  -37.1446   25.8873 H   0  0  0  0  0  0
  -20.9307  -29.8731   21.6968 H   0  0  0  0  0  0
  -26.0201  -38.2887   24.1417 H   0  0  0  0  0  0
  -29.1880  -17.8834   21.9251 H   0  0  0  0  0  0
  -33.4095  -17.8852   22.9628 H   0  0  0  0  0  0
  -26.8536  -24.0350   23.8332 H   0  0  0  0  0  0
  -28.4187  -24.3441   24.5783 H   0  0  0  0  0  0
  -27.4523  -22.9672   25.0787 H   0  0  0  0  0  0
  -30.7301  -21.1689   25.3327 H   0  0  0  0  0  0
  -28.9893  -20.9565   25.2298 H   0  0  0  0  0  0
  -29.6876  -22.5089   25.6881 H   0  0  0  0  0  0
  -31.8930  -22.8136   23.7515 H   0  0  0  0  0  0
  -30.6869  -24.0581   23.8393 H   0  0  0  0  0  0
  -31.1032  -23.3487   22.2821 H   0  0  0  0  0  0
  -29.2186  -20.1146   22.7833 H   0  0  0  0  0  0
  -30.0797  -21.0447   21.5995 H   0  0  0  0  0  0
  -28.9380  -22.7313   20.9978 H   0  0  0  0  0  0
  -27.3042  -23.1792   21.3570 H   0  0  0  0  0  0
  -27.5639  -24.8848   19.6285 H   0  0  0  0  0  0
  -29.2910  -25.0046   19.4566 H   0  0  0  0  0  0
  -27.7492  -21.8218   23.0816 H   0  0  0  0  0  0
  -29.2405  -15.1521   21.7232 H   0  0  0  0  0  0
  1 25  1  0  0  0
  1 30  2  0  0  0
  1 85  1  0  0  0
  2  3  1  0  0  0
  2 25  1  0  0  0
  2 89  1  0  0  0
  2 90  1  0  0  0
  3  4  1  0  0  0
  3 91  1  0  0  0
  3 92  1  0  0  0
  4  5  1  0  0  0
  4 93  1  0  0  0
  4 94  1  0  0  0
  5  6  1  0  0  0
  5 26  1  0  0  0
  5 95  1  0  0  0
  6 25  1  0  0  0
  6 96  1  0  0  0
  6 97  1  0  0  0
  7  8  2  0  0  0
  7 26  1  0  0  0
  7 29  1  0  0  0
  8  9  1  0  0  0
  8 22  1  0  0  0
  9 10  1  0  0  0
  9 27  2  0  0  0
 10 11  2  0  0  0
 10 15  1  0  0  0
 11 12  1  0  0  0
 11 98  1  0  0  0
 12 13  2  0  0  0
 12 99  1  0  0  0
 13 14  1  0  0  0
 13 31  1  0  0  0
 14 15  2  0  0  0
 14100  1  0  0  0
 15101  1  0  0  0
 16 17  2  0  0  0
 16 21  1  0  0  0
 16 31  1  0  0  0
 17 18  1  0  0  0
 17102  1  0  0  0
 18 19  2  0  0  0
 18103  1  0  0  0
 19 20  1  0  0  0
 19 24  1  0  0  0
 20 21  2  0  0  0
 20104  1  0  0  0
 21 23  1  0  0  0
 22 28  1  0  0  0
 22 32  2  0  0  0
 26 27  1  0  0  0
 28105  1  0  0  0
 28106  1  0  0  0
 29107  1  0  0  0
 29108  1  0  0  0
 33 34  1  0  0  0
 33 66  1  0  0  0
 33 70  2  0  0  0
 34 36  1  0  0  0
 34 59  1  0  0  0
 34109  1  0  0  0
 35 44  2  0  0  0
 35 45  1  0  0  0
 35 68  1  0  0  0
 36 56  1  0  0  0
 36110  1  0  0  0
 37 39  1  0  0  0
 37 47  1  0  0  0
 37 66  1  0  0  0
 37111  1  0  0  0
 38 43  2  0  0  0
 38 46  1  0  0  0
 38 47  1  0  0  0
 39 64  1  0  0  0
 39 67  2  0  0  0
 40 52  1  0  0  0
 40 53  2  0  0  0
 40 58  1  0  0  0
 41112  1  0  0  0
 41113  1  0  0  0
 41114  1  0  0  0
 41 48  1  0  0  0
 42 43  1  0  0  0
 42 66  1  0  0  0
 42115  1  0  0  0
 42116  1  0  0  0
 43 44  1  0  0  0
 44117  1  0  0  0
 45 46  2  0  0  0
 45118  1  0  0  0
 46119  1  0  0  0
 47120  1  0  0  0
 47121  1  0  0  0
 48 56  1  0  0  0
 48 65  1  0  0  0
 48122  1  0  0  0
 49 50  1  0  0  0
 49 53  1  0  0  0
 49 64  1  0  0  0
 49123  1  0  0  0
 50 51  1  0  0  0
 50124  1  0  0  0
 50125  1  0  0  0
 51 52  1  0  0  0
 51126  1  0  0  0
 51127  1  0  0  0
 52128  1  0  0  0
 52129  1  0  0  0
 53 54  1  0  0  0
 54 55  2  0  0  0
 54130  1  0  0  0
 55 57  1  0  0  0
 55131  1  0  0  0
 56 69  2  0  0  0
 57 58  2  0  0  0
 57132  1  0  0  0
 58133  1  0  0  0
 59 60  1  0  0  0
 59 61  1  0  0  0
 59 62  1  0  0  0
 60134  1  0  0  0
 60135  1  0  0  0
 60136  1  0  0  0
 61137  1  0  0  0
 61138  1  0  0  0
 61139  1  0  0  0
 62140  1  0  0  0
 62141  1  0  0  0
 62142  1  0  0  0
 63 65  1  0  0  0
 63143  1  0  0  0
 63144  1  0  0  0
 63145  1  0  0  0
 64146  1  0  0  0
 65147  1  0  0  0
 68 82  1  0  0  0
 71 73  1  0  0  0
 71 74  2  0  0  0
 71148  1  0  0  0
 72 73  2  0  0  0
 72 88  1  0  0  0
 72149  1  0  0  0
 73 75  1  0  0  0
 74 85  1  0  0  0
 74 88  1  0  0  0
 75 80  1  0  0  0
 75 86  2  0  0  0
 76 81  1  0  0  0
 76 82  1  0  0  0
 76 87  2  0  0  0
 77150  1  0  0  0
 77151  1  0  0  0
 77152  1  0  0  0
 77 83  1  0  0  0
 78153  1  0  0  0
 78154  1  0  0  0
 78155  1  0  0  0
 78 84  1  0  0  0
 79 84  1  0  0  0
 79156  1  0  0  0
 79157  1  0  0  0
 79158  1  0  0  0
 80 84  1  0  0  0
 80159  1  0  0  0
 80160  1  0  0  0
 81 83  1  0  0  0
 81161  1  0  0  0
 81162  1  0  0  0
 82163  1  0  0  0
 82164  1  0  0  0
 83 84  1  0  0  0
 83165  1  0  0  0
 85166  1  0  0  0
M  ISO  4   1 100  68 101  82 101  85 100
M  END
> <chiral flag>
0

> <version>
0

> <s_m_source_file>
/data/baiqing/PycharmProjects/Reinvent-master-3.2/result/LINK_invent/BTK/process_docking_weight1_custom_product_contain_oxygen_bond_distance_aromatic_linkinvent_7_9_3/rearranged_h_0143.sdf

> <i_m_source_file_index>
22

> <r_mmod_Potential_Energy-OPLS-2005>
-35.6444969177246

> <r_mmod_Stretch_Energy-OPLS-2005>
39.5846557617188

> <r_mmod_Bend_Energy-OPLS-2005>
127.308036804199

> <r_mmod_Torsional_Energy-OPLS-2005>
217.834136962891

> <r_mmod_Improper_Torsional_Energy-OPLS-2005>
2.36388421058655

> <r_mmod_Van_der_Waal_Energy-OPLS-2005>
150.494491577148

> <r_mmod_Electrostatic_Energy-OPLS-2005>
-340.122283935547

> <r_mmod_Solvation_Energy-OPLS-2005>
-241.481094360352

> <b_mmod_Minimization_Converged-OPLS-2005>
0

> <r_mmod_RMS_Derivative-OPLS-2005>
1.8331104516983

$$$$
22
                    3D
 Structure written by MMmdl.
168176  0  0  1  0            999 V2000
  -30.7805  -14.3771   20.7156 C   0  0  0  0  0  0
  -30.4163  -12.3226   19.3921 C   0  0  0  0  0  0
  -29.4774  -12.5406   18.1925 C   0  0  0  0  0  0
  -28.0057  -12.3836   18.6145 C   0  0  0  0  0  0
  -27.6631  -13.2059   19.8831 C   0  0  2  0  0  0
  -28.7004  -12.9525   20.9997 C   0  0  0  0  0  0
  -25.2583  -13.8175   20.5697 C   0  0  0  0  0  0
  -24.1832  -13.0448   20.9178 C   0  0  0  0  0  0
  -24.6387  -11.6913   20.8736 C   0  0  0  0  0  0
  -23.9059  -10.4296   21.0406 C   0  0  0  0  0  0
  -24.3615   -9.4205   21.9182 C   0  0  0  0  0  0
  -23.6290   -8.2241   22.0750 C   0  0  0  0  0  0
  -22.4274   -8.0282   21.3541 C   0  0  0  0  0  0
  -21.9908   -9.0253   20.4640 C   0  0  0  0  0  0
  -22.7234  -10.2133   20.3048 C   0  0  0  0  0  0
  -21.6857   -6.0735   22.5282 C   0  0  0  0  0  0
  -21.4011   -6.5638   23.8214 C   0  0  0  0  0  0
  -21.3665   -5.6789   24.9176 C   0  0  0  0  0  0
  -21.6045   -4.3054   24.7227 C   0  0  0  0  0  0
  -21.8819   -3.8147   23.4349 C   0  0  0  0  0  0
  -21.9183   -4.6960   22.3404 C   0  0  0  0  0  0
  -22.7849  -13.5229   21.1857 C   0  0  0  0  0  0
  -22.1656   -4.2150   21.0982 F   0  0  0  0  0  0
  -21.5631   -3.4534   25.7739 F   0  0  0  0  0  0
  -30.0422  -13.2575   20.4659 N   0  0  0  0  0  0
  -26.3025  -12.9347   20.3401 N   0  0  0  0  0  0
  -25.9314  -11.6503   20.5770 N   0  0  0  0  0  0
  -22.0496  -12.8213   22.0414 N   0  0  0  0  0  0
  -25.4292  -15.1898   20.4125 N   0  0  0  0  0  0
  -31.7517  -14.7204   20.0309 O   0  0  0  0  0  0
  -21.6636   -6.8882   21.4247 O   0  0  0  0  0  0
  -22.3521  -14.5523   20.6695 O   0  0  0  0  0  0
  -24.6151  -31.8671   23.2127 C   0  0  0  0  0  0
  -25.9048  -32.4811   23.8411 C   0  0  1  0  0  0
  -27.2298  -27.4288   20.0868 C   0  0  0  0  0  0
  -25.5919  -33.8622   24.2323 N   0  0  0  0  0  0
  -23.4033  -30.4884   21.5579 C   0  0  2  0  0  0
  -24.8478  -28.9575   20.1158 C   0  0  0  0  0  0
  -22.7423  -29.4629   22.5058 C   0  0  0  0  0  0
  -18.0278  -28.1337   22.8457 C   0  0  0  0  0  0
  -24.1500  -36.7348   23.2629 C   0  0  0  0  0  0
  -25.9340  -30.8285   21.3699 C   0  0  0  0  0  0
  -26.0093  -29.4633   20.7140 C   0  0  0  0  0  0
  -27.2054  -28.7061   20.6931 C   0  0  0  0  0  0
  -26.0549  -26.9514   19.4668 C   0  0  0  0  0  0
  -24.8654  -27.7014   19.4887 C   0  0  0  0  0  0
  -23.6087  -29.8212   20.1718 C   0  0  0  0  0  0
  -25.4131  -36.3122   24.0309 C   0  0  1  0  0  0
  -20.5860  -28.3632   23.1333 C   0  0  2  0  0  0
  -20.6765  -26.9374   22.5411 C   0  0  0  0  0  0
  -19.5741  -26.6346   21.5197 C   0  0  0  0  0  0
  -18.1921  -26.7884   22.1601 C   0  0  0  0  0  0
  -19.1521  -28.8805   23.2867 C   0  0  0  0  0  0
  -18.9436  -30.1424   23.8845 C   0  0  0  0  0  0
  -17.6434  -30.6530   24.0548 C   0  0  0  0  0  0
  -25.9034  -34.9477   23.5114 C   0  0  0  0  0  0
  -16.5325  -29.9026   23.6317 C   0  0  0  0  0  0
  -16.7274  -28.6477   23.0295 C   0  0  0  0  0  0
  -26.4473  -31.6611   25.0755 C   0  0  0  0  0  0
  -25.3726  -31.3713   26.1499 C   0  0  0  0  0  0
  -27.0310  -30.3046   24.6133 C   0  0  0  0  0  0
  -27.6033  -32.4373   25.7495 C   0  0  0  0  0  0
  -27.5604  -37.1832   24.8450 C   0  0  0  0  0  0
  -21.4156  -29.3003   22.3778 N   0  0  0  0  0  0
  -26.4324  -37.3808   23.9384 N   0  0  0  0  0  0
  -24.6699  -31.0742   22.1055 N   0  0  0  0  0  0
  -23.4201  -28.8155   23.3091 O   0  0  0  0  0  0
  -28.3919  -26.6819   20.0898 O   0  0  0  0  0  0
  -26.5584  -34.8896   22.4667 O   0  0  0  0  0  0
  -23.5335  -32.1455   23.7493 O   0  0  0  0  0  0
  -29.7777  -17.3311   20.9434 C   0  0  0  0  0  0
  -28.8544  -16.6471   23.0918 C   0  0  0  0  0  0
  -28.2189  -18.7884   22.1332 C   0  0  0  0  0  0
  -29.6962  -16.3659   21.9869 C   0  0  0  0  0  0
  -29.0554  -18.5516   21.0179 C   0  0  0  0  0  0
  -28.1199  -17.8407   23.1638 C   0  0  0  0  0  0
  -30.4944  -15.0973   22.0279 C   0  0  0  0  0  0
  -29.0293  -20.8384   20.0274 C   0  0  0  0  0  0
  -27.5464  -20.8753   17.9967 C   0  0  0  0  0  0
  -29.9079  -21.6615   17.7869 C   0  0  0  0  0  0
  -29.4733  -25.0417   18.1537 C   0  0  0  0  0  0
  -28.1131  -23.0652   19.0671 C   0  0  0  0  0  0
  -28.2596  -25.2758   20.3968 C   0  0  0  0  0  0
  -28.6854  -21.6310   18.7306 C   0  0  0  0  0  0
  -29.0176  -24.3001   19.4271 C   0  0  2  0  0  0
  -30.9044  -14.6159   23.1301 N   0  0  0  0  0  0
  -29.1150  -19.4929   19.9442 N   0  0  0  0  0  0
  -29.2251  -21.4472   21.0842 O   0  0  0  0  0  0
  -30.1903  -23.8794   20.0999 O   0  0  0  0  0  0
  -27.3221  -18.0784   24.2323 F   0  0  0  0  0  0
  -31.4558  -12.4417   19.0802 H   0  0  0  0  0  0
  -30.3380  -11.2974   19.7568 H   0  0  0  0  0  0
  -29.7150  -11.8325   17.3975 H   0  0  0  0  0  0
  -29.6368  -13.5367   17.7773 H   0  0  0  0  0  0
  -27.8214  -11.3248   18.7976 H   0  0  0  0  0  0
  -27.3473  -12.6687   17.7935 H   0  0  0  0  0  0
  -27.7205  -14.2598   19.6107 H   0  0  0  0  0  0
  -28.6691  -11.9091   21.3164 H   0  0  0  0  0  0
  -28.4311  -13.5284   21.8843 H   0  0  0  0  0  0
  -25.2763   -9.5681   22.4749 H   0  0  0  0  0  0
  -24.0005   -7.4630   22.7466 H   0  0  0  0  0  0
  -21.0839   -8.8772   19.8942 H   0  0  0  0  0  0
  -22.3700  -10.9670   19.6155 H   0  0  0  0  0  0
  -21.2008   -7.6145   23.9724 H   0  0  0  0  0  0
  -21.1491   -6.0516   25.9081 H   0  0  0  0  0  0
  -22.0593   -2.7609   23.2846 H   0  0  0  0  0  0
  -22.4115  -11.9872   22.4798 H   0  0  0  0  0  0
  -21.1103  -13.1218   22.2625 H   0  0  0  0  0  0
  -24.6636  -15.8444   20.5288 H   0  0  0  0  0  0
  -26.2856  -15.6328   20.1063 H   0  0  0  0  0  0
  -26.7139  -32.5492   23.1188 H   0  0  0  0  0  0
  -25.0162  -33.9825   25.0525 H   0  0  0  0  0  0
  -22.6902  -31.3046   21.4227 H   0  0  0  0  0  0
  -23.3735  -35.9714   23.3307 H   0  0  0  0  0  0
  -24.3589  -36.8969   22.2044 H   0  0  0  0  0  0
  -23.7253  -37.6555   23.6644 H   0  0  0  0  0  0
  -26.0492  -31.5939   20.6002 H   0  0  0  0  0  0
  -26.8218  -30.8831   21.9883 H   0  0  0  0  0  0
  -28.1045  -29.0891   21.1548 H   0  0  0  0  0  0
  -26.0520  -26.0000   18.9534 H   0  0  0  0  0  0
  -23.9755  -27.3156   19.0108 H   0  0  0  0  0  0
  -23.7149  -30.5971   19.4137 H   0  0  0  0  0  0
  -22.7297  -29.2433   19.8767 H   0  0  0  0  0  0
  -25.1309  -36.2022   25.0801 H   0  0  0  0  0  0
  -20.9929  -28.3180   24.1466 H   0  0  0  0  0  0
  -20.5677  -26.2227   23.3593 H   0  0  0  0  0  0
  -21.6634  -26.7422   22.1189 H   0  0  0  0  0  0
  -19.6895  -25.6255   21.1235 H   0  0  0  0  0  0
  -19.6659  -27.3145   20.6720 H   0  0  0  0  0  0
  -17.4199  -26.6623   21.4002 H   0  0  0  0  0  0
  -18.0306  -26.0013   22.8973 H   0  0  0  0  0  0
  -19.7910  -30.7268   24.2142 H   0  0  0  0  0  0
  -17.4975  -31.6192   24.5180 H   0  0  0  0  0  0
  -15.5315  -30.2898   23.7643 H   0  0  0  0  0  0
  -15.8691  -28.0805   22.6962 H   0  0  0  0  0  0
  -24.5887  -30.7072   25.7842 H   0  0  0  0  0  0
  -24.8900  -32.2852   26.4973 H   0  0  0  0  0  0
  -25.8083  -30.8866   27.0238 H   0  0  0  0  0  0
  -26.2874  -29.6779   24.1181 H   0  0  0  0  0  0
  -27.4079  -29.7308   25.4607 H   0  0  0  0  0  0
  -27.8712  -30.4368   23.9310 H   0  0  0  0  0  0
  -27.2652  -33.3673   26.2080 H   0  0  0  0  0  0
  -28.3813  -32.6954   25.0303 H   0  0  0  0  0  0
  -28.0728  -31.8499   26.5384 H   0  0  0  0  0  0
  -28.2617  -38.0141   24.7537 H   0  0  0  0  0  0
  -28.1109  -36.2665   24.6262 H   0  0  0  0  0  0
  -27.2302  -37.1484   25.8848 H   0  0  0  0  0  0
  -20.9326  -29.8787   21.7045 H   0  0  0  0  0  0
  -26.0209  -38.2891   24.1374 H   0  0  0  0  0  0
  -30.4257  -17.1513   20.0962 H   0  0  0  0  0  0
  -28.7618  -15.9451   23.9090 H   0  0  0  0  0  0
  -27.6365  -19.6944   22.2095 H   0  0  0  0  0  0
  -27.8454  -19.8801   17.6648 H   0  0  0  0  0  0
  -27.2227  -21.4152   17.1054 H   0  0  0  0  0  0
  -26.6692  -20.7570   18.6350 H   0  0  0  0  0  0
  -30.2284  -20.6558   17.5123 H   0  0  0  0  0  0
  -30.7694  -22.1509   18.2417 H   0  0  0  0  0  0
  -29.6740  -22.1807   16.8570 H   0  0  0  0  0  0
  -28.6156  -25.4434   17.6134 H   0  0  0  0  0  0
  -30.0245  -24.4053   17.4645 H   0  0  0  0  0  0
  -30.1262  -25.8816   18.3917 H   0  0  0  0  0  0
  -27.4146  -22.9065   19.8904 H   0  0  0  0  0  0
  -27.4625  -23.3879   18.2517 H   0  0  0  0  0  0
  -28.6209  -25.1446   21.4181 H   0  0  0  0  0  0
  -27.2154  -24.9778   20.4778 H   0  0  0  0  0  0
  -30.6385  -15.2163   23.9017 H   0  0  0  0  0  0
  -29.1318  -19.1110   19.0088 H   0  0  0  0  0  0
  -29.9281  -23.1928   20.7135 H   0  0  0  0  0  0
  1 25  1  0  0  0
  1 30  2  0  0  0
  1 77  1  0  0  0
  2  3  1  0  0  0
  2 25  1  0  0  0
  2 91  1  0  0  0
  2 92  1  0  0  0
  3  4  1  0  0  0
  3 93  1  0  0  0
  3 94  1  0  0  0
  4  5  1  0  0  0
  4 95  1  0  0  0
  4 96  1  0  0  0
  5  6  1  0  0  0
  5 26  1  0  0  0
  5 97  1  0  0  0
  6 25  1  0  0  0
  6 98  1  0  0  0
  6 99  1  0  0  0
  7  8  2  0  0  0
  7 26  1  0  0  0
  7 29  1  0  0  0
  8  9  1  0  0  0
  8 22  1  0  0  0
  9 10  1  0  0  0
  9 27  2  0  0  0
 10 11  2  0  0  0
 10 15  1  0  0  0
 11 12  1  0  0  0
 11100  1  0  0  0
 12 13  2  0  0  0
 12101  1  0  0  0
 13 14  1  0  0  0
 13 31  1  0  0  0
 14 15  2  0  0  0
 14102  1  0  0  0
 15103  1  0  0  0
 16 17  2  0  0  0
 16 21  1  0  0  0
 16 31  1  0  0  0
 17 18  1  0  0  0
 17104  1  0  0  0
 18 19  2  0  0  0
 18105  1  0  0  0
 19 20  1  0  0  0
 19 24  1  0  0  0
 20 21  2  0  0  0
 20106  1  0  0  0
 21 23  1  0  0  0
 22 28  1  0  0  0
 22 32  2  0  0  0
 26 27  1  0  0  0
 28107  1  0  0  0
 28108  1  0  0  0
 29109  1  0  0  0
 29110  1  0  0  0
 33 34  1  0  0  0
 33 66  1  0  0  0
 33 70  2  0  0  0
 34 36  1  0  0  0
 34 59  1  0  0  0
 34111  1  0  0  0
 35 44  2  0  0  0
 35 45  1  0  0  0
 35 68  1  0  0  0
 36 56  1  0  0  0
 36112  1  0  0  0
 37 39  1  0  0  0
 37 47  1  0  0  0
 37 66  1  0  0  0
 37113  1  0  0  0
 38 43  2  0  0  0
 38 46  1  0  0  0
 38 47  1  0  0  0
 39 64  1  0  0  0
 39 67  2  0  0  0
 40 52  1  0  0  0
 40 53  2  0  0  0
 40 58  1  0  0  0
 41114  1  0  0  0
 41115  1  0  0  0
 41116  1  0  0  0
 41 48  1  0  0  0
 42 43  1  0  0  0
 42 66  1  0  0  0
 42117  1  0  0  0
 42118  1  0  0  0
 43 44  1  0  0  0
 44119  1  0  0  0
 45 46  2  0  0  0
 45120  1  0  0  0
 46121  1  0  0  0
 47122  1  0  0  0
 47123  1  0  0  0
 48 56  1  0  0  0
 48 65  1  0  0  0
 48124  1  0  0  0
 49 50  1  0  0  0
 49 53  1  0  0  0
 49 64  1  0  0  0
 49125  1  0  0  0
 50 51  1  0  0  0
 50126  1  0  0  0
 50127  1  0  0  0
 51 52  1  0  0  0
 51128  1  0  0  0
 51129  1  0  0  0
 52130  1  0  0  0
 52131  1  0  0  0
 53 54  1  0  0  0
 54 55  2  0  0  0
 54132  1  0  0  0
 55 57  1  0  0  0
 55133  1  0  0  0
 56 69  2  0  0  0
 57 58  2  0  0  0
 57134  1  0  0  0
 58135  1  0  0  0
 59 60  1  0  0  0
 59 61  1  0  0  0
 59 62  1  0  0  0
 60136  1  0  0  0
 60137  1  0  0  0
 60138  1  0  0  0
 61139  1  0  0  0
 61140  1  0  0  0
 61141  1  0  0  0
 62142  1  0  0  0
 62143  1  0  0  0
 62144  1  0  0  0
 63 65  1  0  0  0
 63145  1  0  0  0
 63146  1  0  0  0
 63147  1  0  0  0
 64148  1  0  0  0
 65149  1  0  0  0
 68 83  1  0  0  0
 71 74  2  0  0  0
 71 75  1  0  0  0
 71150  1  0  0  0
 72 74  1  0  0  0
 72 76  2  0  0  0
 72151  1  0  0  0
 73 75  2  0  0  0
 73 76  1  0  0  0
 73152  1  0  0  0
 74 77  1  0  0  0
 75 87  1  0  0  0
 76 90  1  0  0  0
 77 86  2  0  0  0
 78 84  1  0  0  0
 78 87  1  0  0  0
 78 88  2  0  0  0
 79153  1  0  0  0
 79154  1  0  0  0
 79155  1  0  0  0
 79 84  1  0  0  0
 80 84  1  0  0  0
 80156  1  0  0  0
 80157  1  0  0  0
 80158  1  0  0  0
 81159  1  0  0  0
 81160  1  0  0  0
 81161  1  0  0  0
 81 85  1  0  0  0
 82 84  1  0  0  0
 82 85  1  0  0  0
 82162  1  0  0  0
 82163  1  0  0  0
 83 85  1  0  0  0
 83164  1  0  0  0
 83165  1  0  0  0
 85 89  1  0  0  0
 86166  1  0  0  0
 87167  1  0  0  0
 89168  1  0  0  0
M  ISO  4   1 100  68 101  77 100  83 101
M  END
> <chiral flag>
0

> <version>
0

> <s_m_source_file>
/data/baiqing/PycharmProjects/Reinvent-master-3.2/result/LINK_invent/BTK/process_docking_weight1_custom_product_contain_oxygen_bond_distance_aromatic_linkinvent_7_9_3/rearranged_h_0143.sdf

> <i_m_source_file_index>
23

> <r_mmod_Potential_Energy-OPLS-2005>
94.2784652709961

> <r_mmod_Stretch_Energy-OPLS-2005>
49.7567749023438

> <r_mmod_Bend_Energy-OPLS-2005>
118.285209655762

> <r_mmod_Torsional_Energy-OPLS-2005>
297.24169921875

> <r_mmod_Improper_Torsional_Energy-OPLS-2005>
4.03326940536499

> <r_mmod_Van_der_Waal_Energy-OPLS-2005>
173.349761962891

> <r_mmod_Electrostatic_Energy-OPLS-2005>
-339.736602783203

> <r_mmod_Solvation_Energy-OPLS-2005>
-218.677886962891

> <b_mmod_Minimization_Converged-OPLS-2005>
0

> <r_mmod_RMS_Derivative-OPLS-2005>
2.97786688804626

$$$$
23
                    3D
 Structure written by MMmdl.
158167  0  0  1  0            999 V2000
  -30.6783  -14.5124   20.5079 C   0  0  0  0  0  0
  -30.4188  -12.3103   19.4423 C   0  0  0  0  0  0
  -29.4987  -12.4874   18.2157 C   0  0  0  0  0  0
  -28.0181  -12.3520   18.6250 C   0  0  0  0  0  0
  -27.6556  -13.2108   19.8673 C   0  0  2  0  0  0
  -28.6972  -13.0300   20.9965 C   0  0  0  0  0  0
  -25.2557  -13.8167   20.5681 C   0  0  0  0  0  0
  -24.1818  -13.0440   20.9191 C   0  0  0  0  0  0
  -24.6380  -11.6908   20.8741 C   0  0  0  0  0  0
  -23.9048  -10.4291   21.0397 C   0  0  0  0  0  0
  -24.3599   -9.4205   21.9172 C   0  0  0  0  0  0
  -23.6281   -8.2240   22.0748 C   0  0  0  0  0  0
  -22.4268   -8.0276   21.3541 C   0  0  0  0  0  0
  -21.9897   -9.0249   20.4647 C   0  0  0  0  0  0
  -22.7222  -10.2126   20.3050 C   0  0  0  0  0  0
  -21.6851   -6.0727   22.5277 C   0  0  0  0  0  0
  -21.4014   -6.5630   23.8212 C   0  0  0  0  0  0
  -21.3662   -5.6785   24.9175 C   0  0  0  0  0  0
  -21.6043   -4.3050   24.7222 C   0  0  0  0  0  0
  -21.8820   -3.8139   23.4345 C   0  0  0  0  0  0
  -21.9193   -4.6953   22.3399 C   0  0  0  0  0  0
  -22.7833  -13.5233   21.1857 C   0  0  0  0  0  0
  -22.1660   -4.2135   21.0977 F   0  0  0  0  0  0
  -21.5631   -3.4539   25.7735 F   0  0  0  0  0  0
  -30.0254  -13.3206   20.4366 N   0  0  0  0  0  0
  -26.2990  -12.9342   20.3341 N   0  0  0  0  0  0
  -25.9308  -11.6498   20.5757 N   0  0  0  0  0  0
  -22.0481  -12.8236   22.0419 N   0  0  0  0  0  0
  -25.4285  -15.1888   20.4079 N   0  0  0  0  0  0
  -31.8397  -14.6574   20.1153 O   0  0  0  0  0  0
  -21.6639   -6.8868   21.4240 O   0  0  0  0  0  0
  -22.3513  -14.5543   20.6708 O   0  0  0  0  0  0
  -24.6154  -31.8664   23.2070 C   0  0  0  0  0  0
  -25.9040  -32.4822   23.8365 C   0  0  1  0  0  0
  -27.2372  -27.4107   20.0936 C   0  0  0  0  0  0
  -25.5877  -33.8616   24.2287 N   0  0  0  0  0  0
  -23.4033  -30.4880   21.5483 C   0  0  2  0  0  0
  -24.8467  -28.9437   20.1172 C   0  0  0  0  0  0
  -22.7401  -29.4662   22.4998 C   0  0  0  0  0  0
  -18.0275  -28.1379   22.8507 C   0  0  0  0  0  0
  -24.1487  -36.7312   23.2640 C   0  0  0  0  0  0
  -25.9333  -30.8235   21.3617 C   0  0  0  0  0  0
  -26.0076  -29.4560   20.7071 C   0  0  0  0  0  0
  -27.2005  -28.6975   20.6869 C   0  0  0  0  0  0
  -26.0491  -26.9069   19.5186 C   0  0  0  0  0  0
  -24.8632  -27.6692   19.5220 C   0  0  0  0  0  0
  -23.6112  -29.8147   20.1645 C   0  0  0  0  0  0
  -25.4107  -36.3101   24.0324 C   0  0  1  0  0  0
  -20.5867  -28.3661   23.1329 C   0  0  2  0  0  0
  -20.6767  -26.9395   22.5427 C   0  0  0  0  0  0
  -19.5739  -26.6388   21.5221 C   0  0  0  0  0  0
  -18.1920  -26.7929   22.1637 C   0  0  0  0  0  0
  -19.1526  -28.8835   23.2923 C   0  0  0  0  0  0
  -18.9451  -30.1446   23.8920 C   0  0  0  0  0  0
  -17.6453  -30.6586   24.0574 C   0  0  0  0  0  0
  -25.9032  -34.9473   23.5106 C   0  0  0  0  0  0
  -16.5345  -29.9088   23.6330 C   0  0  0  0  0  0
  -16.7269  -28.6506   23.0354 C   0  0  0  0  0  0
  -26.4463  -31.6622   25.0714 C   0  0  0  0  0  0
  -25.3730  -31.3714   26.1460 C   0  0  0  0  0  0
  -27.0298  -30.3062   24.6116 C   0  0  0  0  0  0
  -27.6049  -32.4333   25.7474 C   0  0  0  0  0  0
  -27.5572  -37.1810   24.8462 C   0  0  0  0  0  0
  -21.4134  -29.3027   22.3726 N   0  0  0  0  0  0
  -26.4292  -37.3785   23.9394 N   0  0  0  0  0  0
  -24.6690  -31.0741   22.0975 N   0  0  0  0  0  0
  -23.4171  -28.8212   23.3051 O   0  0  0  0  0  0
  -28.4455  -26.7337   20.1279 O   0  0  0  0  0  0
  -26.5616  -34.8935   22.4679 O   0  0  0  0  0  0
  -23.5342  -32.1426   23.7450 O   0  0  0  0  0  0
  -29.8938  -20.2164   21.4183 C   0  0  0  0  0  0
  -30.1490  -18.8236   21.3256 C   0  0  0  0  0  0
  -29.2407  -18.0505   20.5357 C   0  0  0  0  0  0
  -28.8572  -20.5814   20.5622 C   0  0  0  0  0  0
  -28.5351  -22.9830   20.9902 C   0  0  0  0  0  0
  -31.1716  -17.7419   21.4124 C   0  0  0  0  0  0
  -30.2676  -16.9576   20.3597 C   0  0  1  0  0  0
  -28.5792  -25.1972   18.1908 C   0  0  0  0  0  0
  -30.1885  -25.2810   20.0761 C   0  0  0  0  0  0
  -27.8330  -24.2873   20.5061 C   0  0  0  0  0  0
  -28.6867  -25.3616   19.7233 C   0  0  0  0  0  0
  -28.3317  -21.8252   20.3148 N   0  0  0  0  0  0
  -29.9111  -15.5890   20.7835 N   0  0  0  0  0  0
  -29.2174  -23.0358   22.0169 O   0  0  0  0  0  0
  -28.3341  -19.1797   19.5659 S   0  0  0  0  0  0
  -31.4667  -12.3956   19.1484 H   0  0  0  0  0  0
  -30.3085  -11.3091   19.8613 H   0  0  0  0  0  0
  -29.7439  -11.7480   17.4519 H   0  0  0  0  0  0
  -29.6659  -13.4644   17.7605 H   0  0  0  0  0  0
  -27.8335  -11.2985   18.8388 H   0  0  0  0  0  0
  -27.3679  -12.6074   17.7872 H   0  0  0  0  0  0
  -27.6867  -14.2516   19.5439 H   0  0  0  0  0  0
  -28.6741  -12.0075   21.3763 H   0  0  0  0  0  0
  -28.4656  -13.6698   21.8501 H   0  0  0  0  0  0
  -25.2740   -9.5688   22.4750 H   0  0  0  0  0  0
  -23.9993   -7.4630   22.7471 H   0  0  0  0  0  0
  -21.0826   -8.8766   19.8952 H   0  0  0  0  0  0
  -22.3677  -10.9661   19.6161 H   0  0  0  0  0  0
  -21.2005   -7.6136   23.9706 H   0  0  0  0  0  0
  -21.1490   -6.0517   25.9075 H   0  0  0  0  0  0
  -22.0599   -2.7603   23.2847 H   0  0  0  0  0  0
  -22.4096  -11.9894   22.4802 H   0  0  0  0  0  0
  -21.1098  -13.1267   22.2624 H   0  0  0  0  0  0
  -24.6644  -15.8452   20.5212 H   0  0  0  0  0  0
  -26.2796  -15.6284   20.0812 H   0  0  0  0  0  0
  -26.7112  -32.5512   23.1120 H   0  0  0  0  0  0
  -24.9998  -33.9771   25.0411 H   0  0  0  0  0  0
  -22.6941  -31.3065   21.4063 H   0  0  0  0  0  0
  -23.3744  -35.9658   23.3327 H   0  0  0  0  0  0
  -24.3580  -36.8906   22.2054 H   0  0  0  0  0  0
  -23.7262  -37.6521   23.6659 H   0  0  0  0  0  0
  -26.0512  -31.5898   20.5944 H   0  0  0  0  0  0
  -26.8196  -30.8737   21.9831 H   0  0  0  0  0  0
  -28.1002  -29.0946   21.1370 H   0  0  0  0  0  0
  -26.0093  -25.9256   19.0771 H   0  0  0  0  0  0
  -23.9650  -27.2619   19.0765 H   0  0  0  0  0  0
  -23.7252  -30.5876   19.4039 H   0  0  0  0  0  0
  -22.7350  -29.2367   19.8663 H   0  0  0  0  0  0
  -25.1300  -36.1955   25.0821 H   0  0  0  0  0  0
  -20.9970  -28.3226   24.1444 H   0  0  0  0  0  0
  -20.5666  -26.2264   23.3615 H   0  0  0  0  0  0
  -21.6640  -26.7441   22.1212 H   0  0  0  0  0  0
  -19.6890  -25.6299   21.1242 H   0  0  0  0  0  0
  -19.6674  -27.3214   20.6760 H   0  0  0  0  0  0
  -17.4189  -26.6694   21.4038 H   0  0  0  0  0  0
  -18.0314  -26.0058   22.9020 H   0  0  0  0  0  0
  -19.7923  -30.7265   24.2291 H   0  0  0  0  0  0
  -17.5005  -31.6265   24.5171 H   0  0  0  0  0  0
  -15.5346  -30.2997   23.7631 H   0  0  0  0  0  0
  -15.8678  -28.0835   22.7047 H   0  0  0  0  0  0
  -24.5902  -30.7070   25.7774 H   0  0  0  0  0  0
  -24.8931  -32.2866   26.4941 H   0  0  0  0  0  0
  -25.8085  -30.8848   27.0202 H   0  0  0  0  0  0
  -26.2837  -29.6818   24.1186 H   0  0  0  0  0  0
  -27.4063  -29.7317   25.4592 H   0  0  0  0  0  0
  -27.8685  -30.4372   23.9270 H   0  0  0  0  0  0
  -27.2681  -33.3617   26.2096 H   0  0  0  0  0  0
  -28.3840  -32.6906   25.0286 H   0  0  0  0  0  0
  -28.0749  -31.8430   26.5350 H   0  0  0  0  0  0
  -28.2608  -38.0090   24.7493 H   0  0  0  0  0  0
  -28.1048  -36.2625   24.6314 H   0  0  0  0  0  0
  -27.2294  -37.1485   25.8866 H   0  0  0  0  0  0
  -20.9283  -29.8738   21.6947 H   0  0  0  0  0  0
  -26.0179  -38.2861   24.1396 H   0  0  0  0  0  0
  -30.5242  -20.8876   21.9849 H   0  0  0  0  0  0
  -31.2305  -17.2804   22.3982 H   0  0  0  0  0  0
  -32.1517  -18.0242   21.0262 H   0  0  0  0  0  0
  -30.6902  -17.0020   19.3540 H   0  0  0  0  0  0
  -29.1766  -25.9475   17.6714 H   0  0  0  0  0  0
  -27.5643  -25.2800   17.8108 H   0  0  0  0  0  0
  -28.9456  -24.2185   17.8790 H   0  0  0  0  0  0
  -30.6322  -24.3308   19.7769 H   0  0  0  0  0  0
  -30.3547  -25.4059   21.1468 H   0  0  0  0  0  0
  -30.7580  -26.0625   19.5709 H   0  0  0  0  0  0
  -26.9495  -24.0143   19.9300 H   0  0  0  0  0  0
  -27.4401  -24.7594   21.4081 H   0  0  0  0  0  0
  -27.7044  -21.8843   19.5239 H   0  0  0  0  0  0
  -28.9634  -15.4230   21.0845 H   0  0  0  0  0  0
  1 25  1  0  0  0
  1 30  2  0  0  0
  1 83  1  0  0  0
  2  3  1  0  0  0
  2 25  1  0  0  0
  2 86  1  0  0  0
  2 87  1  0  0  0
  3  4  1  0  0  0
  3 88  1  0  0  0
  3 89  1  0  0  0
  4  5  1  0  0  0
  4 90  1  0  0  0
  4 91  1  0  0  0
  5  6  1  0  0  0
  5 26  1  0  0  0
  5 92  1  0  0  0
  6 25  1  0  0  0
  6 93  1  0  0  0
  6 94  1  0  0  0
  7  8  2  0  0  0
  7 26  1  0  0  0
  7 29  1  0  0  0
  8  9  1  0  0  0
  8 22  1  0  0  0
  9 10  1  0  0  0
  9 27  2  0  0  0
 10 11  2  0  0  0
 10 15  1  0  0  0
 11 12  1  0  0  0
 11 95  1  0  0  0
 12 13  2  0  0  0
 12 96  1  0  0  0
 13 14  1  0  0  0
 13 31  1  0  0  0
 14 15  2  0  0  0
 14 97  1  0  0  0
 15 98  1  0  0  0
 16 17  2  0  0  0
 16 21  1  0  0  0
 16 31  1  0  0  0
 17 18  1  0  0  0
 17 99  1  0  0  0
 18 19  2  0  0  0
 18100  1  0  0  0
 19 20  1  0  0  0
 19 24  1  0  0  0
 20 21  2  0  0  0
 20101  1  0  0  0
 21 23  1  0  0  0
 22 28  1  0  0  0
 22 32  2  0  0  0
 26 27  1  0  0  0
 28102  1  0  0  0
 28103  1  0  0  0
 29104  1  0  0  0
 29105  1  0  0  0
 33 34  1  0  0  0
 33 66  1  0  0  0
 33 70  2  0  0  0
 34 36  1  0  0  0
 34 59  1  0  0  0
 34106  1  0  0  0
 35 44  2  0  0  0
 35 45  1  0  0  0
 35 68  1  0  0  0
 36 56  1  0  0  0
 36107  1  0  0  0
 37 39  1  0  0  0
 37 47  1  0  0  0
 37 66  1  0  0  0
 37108  1  0  0  0
 38 43  2  0  0  0
 38 46  1  0  0  0
 38 47  1  0  0  0
 39 64  1  0  0  0
 39 67  2  0  0  0
 40 52  1  0  0  0
 40 53  2  0  0  0
 40 58  1  0  0  0
 41109  1  0  0  0
 41110  1  0  0  0
 41111  1  0  0  0
 41 48  1  0  0  0
 42 43  1  0  0  0
 42 66  1  0  0  0
 42112  1  0  0  0
 42113  1  0  0  0
 43 44  1  0  0  0
 44114  1  0  0  0
 45 46  2  0  0  0
 45115  1  0  0  0
 46116  1  0  0  0
 47117  1  0  0  0
 47118  1  0  0  0
 48 56  1  0  0  0
 48 65  1  0  0  0
 48119  1  0  0  0
 49 50  1  0  0  0
 49 53  1  0  0  0
 49 64  1  0  0  0
 49120  1  0  0  0
 50 51  1  0  0  0
 50121  1  0  0  0
 50122  1  0  0  0
 51 52  1  0  0  0
 51123  1  0  0  0
 51124  1  0  0  0
 52125  1  0  0  0
 52126  1  0  0  0
 53 54  1  0  0  0
 54 55  2  0  0  0
 54127  1  0  0  0
 55 57  1  0  0  0
 55128  1  0  0  0
 56 69  2  0  0  0
 57 58  2  0  0  0
 57129  1  0  0  0
 58130  1  0  0  0
 59 60  1  0  0  0
 59 61  1  0  0  0
 59 62  1  0  0  0
 60131  1  0  0  0
 60132  1  0  0  0
 60133  1  0  0  0
 61134  1  0  0  0
 61135  1  0  0  0
 61136  1  0  0  0
 62137  1  0  0  0
 62138  1  0  0  0
 62139  1  0  0  0
 63 65  1  0  0  0
 63140  1  0  0  0
 63141  1  0  0  0
 63142  1  0  0  0
 64143  1  0  0  0
 65144  1  0  0  0
 68 81  1  0  0  0
 71 72  1  0  0  0
 71 74  2  0  0  0
 71145  1  0  0  0
 72 73  2  0  0  0
 72 76  1  0  0  0
 73 77  1  0  0  0
 73 85  1  0  0  0
 74 82  1  0  0  0
 74 85  1  0  0  0
 75 80  1  0  0  0
 75 82  1  0  0  0
 75 84  2  0  0  0
 76 77  1  0  0  0
 76146  1  0  0  0
 76147  1  0  0  0
 77 83  1  0  0  0
 77148  1  0  0  0
 78149  1  0  0  0
 78150  1  0  0  0
 78151  1  0  0  0
 78 81  1  0  0  0
 79 81  1  0  0  0
 79152  1  0  0  0
 79153  1  0  0  0
 79154  1  0  0  0
 80 81  1  0  0  0
 80155  1  0  0  0
 80156  1  0  0  0
 82157  1  0  0  0
 83158  1  0  0  0
M  ISO  4   1 100  68 101  81 101  83 100
M  END
> <chiral flag>
0

> <version>
0

> <s_m_source_file>
/data/baiqing/PycharmProjects/Reinvent-master-3.2/result/LINK_invent/BTK/process_docking_weight1_custom_product_contain_oxygen_bond_distance_aromatic_linkinvent_7_9_3/rearranged_h_0143.sdf

> <i_m_source_file_index>
24

> <r_mmod_Potential_Energy-OPLS-2005>
355.013214111328

> <r_mmod_Stretch_Energy-OPLS-2005>
58.4140357971191

> <r_mmod_Bend_Energy-OPLS-2005>
508.252868652344

> <r_mmod_Torsional_Energy-OPLS-2005>
246.244338989258

> <r_mmod_Improper_Torsional_Energy-OPLS-2005>
40.5550575256348

> <r_mmod_Van_der_Waal_Energy-OPLS-2005>
130.656173706055

> <r_mmod_Electrostatic_Energy-OPLS-2005>
-425.216583251953

> <r_mmod_Solvation_Energy-OPLS-2005>
-223.299819946289

> <b_mmod_Minimization_Converged-OPLS-2005>
0

> <r_mmod_RMS_Derivative-OPLS-2005>
1.65413165092468

$$$$
24
                    3D
 Structure written by MMmdl.
164173  0  0  1  0            999 V2000
  -30.6806  -14.5166   20.4959 C   0  0  0  0  0  0
  -30.4144  -12.3078   19.4547 C   0  0  0  0  0  0
  -29.5025  -12.4866   18.2234 C   0  0  0  0  0  0
  -28.0197  -12.3564   18.6220 C   0  0  0  0  0  0
  -27.6535  -13.2135   19.8640 C   0  0  2  0  0  0
  -28.6909  -13.0461   20.9981 C   0  0  0  0  0  0
  -25.2560  -13.8180   20.5675 C   0  0  0  0  0  0
  -24.1832  -13.0446   20.9191 C   0  0  0  0  0  0
  -24.6397  -11.6916   20.8747 C   0  0  0  0  0  0
  -23.9068  -10.4298   21.0417 C   0  0  0  0  0  0
  -24.3614   -9.4211   21.9197 C   0  0  0  0  0  0
  -23.6286   -8.2248   22.0766 C   0  0  0  0  0  0
  -22.4274   -8.0275   21.3548 C   0  0  0  0  0  0
  -21.9907   -9.0253   20.4654 C   0  0  0  0  0  0
  -22.7240  -10.2134   20.3070 C   0  0  0  0  0  0
  -21.6854   -6.0728   22.5284 C   0  0  0  0  0  0
  -21.4013   -6.5640   23.8211 C   0  0  0  0  0  0
  -21.3662   -5.6801   24.9173 C   0  0  0  0  0  0
  -21.6052   -4.3064   24.7236 C   0  0  0  0  0  0
  -21.8816   -3.8146   23.4361 C   0  0  0  0  0  0
  -21.9195   -4.6954   22.3412 C   0  0  0  0  0  0
  -22.7855  -13.5223   21.1846 C   0  0  0  0  0  0
  -22.1661   -4.2137   21.0986 F   0  0  0  0  0  0
  -21.5634   -3.4551   25.7752 F   0  0  0  0  0  0
  -30.0197  -13.3284   20.4403 N   0  0  0  0  0  0
  -26.2979  -12.9360   20.3299 N   0  0  0  0  0  0
  -25.9314  -11.6521   20.5757 N   0  0  0  0  0  0
  -22.0503  -12.8210   22.0404 N   0  0  0  0  0  0
  -25.4295  -15.1900   20.4078 N   0  0  0  0  0  0
  -31.8648  -14.6207   20.1656 O   0  0  0  0  0  0
  -21.6635   -6.8875   21.4249 O   0  0  0  0  0  0
  -22.3545  -14.5536   20.6699 O   0  0  0  0  0  0
  -24.6202  -31.8652   23.2089 C   0  0  0  0  0  0
  -25.9077  -32.4811   23.8399 C   0  0  1  0  0  0
  -27.2286  -27.3940   20.0879 C   0  0  0  0  0  0
  -25.5916  -33.8613   24.2331 N   0  0  0  0  0  0
  -23.4082  -30.4918   21.5505 C   0  0  2  0  0  0
  -24.8508  -28.9559   20.1162 C   0  0  0  0  0  0
  -22.7432  -29.4661   22.4980 C   0  0  0  0  0  0
  -18.0280  -28.1374   22.8501 C   0  0  0  0  0  0
  -24.1492  -36.7309   23.2638 C   0  0  0  0  0  0
  -25.9434  -30.8178   21.3692 C   0  0  0  0  0  0
  -26.0163  -29.4508   20.7132 C   0  0  0  0  0  0
  -27.2038  -28.6769   20.6984 C   0  0  0  0  0  0
  -26.0258  -26.9134   19.5157 C   0  0  0  0  0  0
  -24.8522  -27.6877   19.5181 C   0  0  0  0  0  0
  -23.6180  -29.8295   20.1650 C   0  0  0  0  0  0
  -25.4111  -36.3105   24.0342 C   0  0  1  0  0  0
  -20.5872  -28.3668   23.1311 C   0  0  2  0  0  0
  -20.6774  -26.9402   22.5411 C   0  0  0  0  0  0
  -19.5748  -26.6383   21.5215 C   0  0  0  0  0  0
  -18.1925  -26.7926   22.1629 C   0  0  0  0  0  0
  -19.1530  -28.8841   23.2910 C   0  0  0  0  0  0
  -18.9450  -30.1442   23.8921 C   0  0  0  0  0  0
  -17.6453  -30.6585   24.0559 C   0  0  0  0  0  0
  -25.9035  -34.9468   23.5133 C   0  0  0  0  0  0
  -16.5345  -29.9078   23.6326 C   0  0  0  0  0  0
  -16.7271  -28.6491   23.0366 C   0  0  0  0  0  0
  -26.4486  -31.6601   25.0742 C   0  0  0  0  0  0
  -25.3731  -31.3697   26.1472 C   0  0  0  0  0  0
  -27.0319  -30.3041   24.6133 C   0  0  0  0  0  0
  -27.6059  -32.4313   25.7500 C   0  0  0  0  0  0
  -27.5588  -37.1810   24.8463 C   0  0  0  0  0  0
  -21.4155  -29.3043   22.3722 N   0  0  0  0  0  0
  -26.4297  -37.3793   23.9405 N   0  0  0  0  0  0
  -24.6758  -31.0726   22.1010 N   0  0  0  0  0  0
  -23.4184  -28.8194   23.3031 O   0  0  0  0  0  0
  -28.3987  -26.6429   20.1144 O   0  0  0  0  0  0
  -26.5592  -34.8925   22.4693 O   0  0  0  0  0  0
  -23.5382  -32.1433   23.7449 O   0  0  0  0  0  0
  -30.7673  -18.1077   17.9882 C   0  0  0  0  0  0
  -30.1474  -19.2745   18.4574 C   0  0  0  0  0  0
  -30.7056  -16.9234   18.7382 C   0  0  0  0  0  0
  -29.4210  -18.0798   20.4620 C   0  0  0  0  0  0
  -29.4765  -19.2903   19.7005 C   0  0  0  0  0  0
  -30.0367  -16.8768   19.9895 C   0  0  0  0  0  0
  -29.1545  -24.2416   19.7343 C   0  0  0  0  0  0
  -28.5684  -23.0117   19.5638 C   0  0  0  0  0  0
  -28.7645  -20.5495   20.0674 C   0  0  0  0  0  0
  -30.5316  -24.4087   20.3694 C   0  0  0  0  0  0
  -31.1487  -23.0867   20.8428 C   0  0  0  0  0  0
  -30.7714  -21.9441   19.8973 C   0  0  0  0  0  0
  -27.2385  -22.8780   18.8148 C   0  0  0  0  0  0
  -28.6071  -25.5746   19.1581 C   0  0  0  0  0  0
  -29.2920  -21.8110   19.8724 N   0  0  0  0  0  0
  -29.9208  -15.6238   20.7066 N   0  0  0  0  0  0
  -27.5257  -20.4332   20.5489 N   0  3  0  0  0  0
  -31.4634  -12.3859   19.1657 H   0  0  0  0  0  0
  -30.3000  -11.3091   19.8784 H   0  0  0  0  0  0
  -29.7499  -11.7472   17.4613 H   0  0  0  0  0  0
  -29.6817  -13.4630   17.7727 H   0  0  0  0  0  0
  -27.8223  -11.3033   18.8243 H   0  0  0  0  0  0
  -27.3815  -12.6257   17.7798 H   0  0  0  0  0  0
  -27.6802  -14.2534   19.5378 H   0  0  0  0  0  0
  -28.6651  -12.0315   21.3975 H   0  0  0  0  0  0
  -28.4587  -13.7017   21.8389 H   0  0  0  0  0  0
  -25.2762   -9.5675   22.4763 H   0  0  0  0  0  0
  -23.9993   -7.4641   22.7486 H   0  0  0  0  0  0
  -21.0850   -8.8781   19.8945 H   0  0  0  0  0  0
  -22.3721  -10.9669   19.6170 H   0  0  0  0  0  0
  -21.1993   -7.6147   23.9710 H   0  0  0  0  0  0
  -21.1492   -6.0531   25.9078 H   0  0  0  0  0  0
  -22.0592   -2.7607   23.2869 H   0  0  0  0  0  0
  -22.4097  -11.9835   22.4746 H   0  0  0  0  0  0
  -21.1130  -13.1240   22.2631 H   0  0  0  0  0  0
  -24.6636  -15.8461   20.5143 H   0  0  0  0  0  0
  -26.2762  -15.6246   20.0640 H   0  0  0  0  0  0
  -26.7140  -32.5496   23.1149 H   0  0  0  0  0  0
  -25.0074  -33.9775   25.0482 H   0  0  0  0  0  0
  -22.6990  -31.3104   21.4120 H   0  0  0  0  0  0
  -23.3756  -35.9644   23.3295 H   0  0  0  0  0  0
  -24.3585  -36.8926   22.2053 H   0  0  0  0  0  0
  -23.7245  -37.6512   23.6651 H   0  0  0  0  0  0
  -26.0634  -31.5837   20.6013 H   0  0  0  0  0  0
  -26.8291  -30.8676   21.9911 H   0  0  0  0  0  0
  -28.1024  -29.0577   21.1646 H   0  0  0  0  0  0
  -25.9367  -25.9266   19.0885 H   0  0  0  0  0  0
  -23.9505  -27.2888   19.0739 H   0  0  0  0  0  0
  -23.7337  -30.6059   19.4090 H   0  0  0  0  0  0
  -22.7404  -29.2561   19.8629 H   0  0  0  0  0  0
  -25.1290  -36.1973   25.0839 H   0  0  0  0  0  0
  -20.9972  -28.3226   24.1429 H   0  0  0  0  0  0
  -20.5690  -26.2267   23.3598 H   0  0  0  0  0  0
  -21.6642  -26.7451   22.1191 H   0  0  0  0  0  0
  -19.6905  -25.6295   21.1240 H   0  0  0  0  0  0
  -19.6682  -27.3202   20.6749 H   0  0  0  0  0  0
  -17.4197  -26.6687   21.4024 H   0  0  0  0  0  0
  -18.0316  -26.0059   22.9015 H   0  0  0  0  0  0
  -19.7919  -30.7253   24.2308 H   0  0  0  0  0  0
  -17.5000  -31.6270   24.5141 H   0  0  0  0  0  0
  -15.5347  -30.2986   23.7630 H   0  0  0  0  0  0
  -15.8669  -28.0804   22.7086 H   0  0  0  0  0  0
  -24.5900  -30.7060   25.7781 H   0  0  0  0  0  0
  -24.8926  -32.2845   26.4948 H   0  0  0  0  0  0
  -25.8075  -30.8824   27.0212 H   0  0  0  0  0  0
  -26.2875  -29.6789   24.1177 H   0  0  0  0  0  0
  -27.4069  -29.7290   25.4609 H   0  0  0  0  0  0
  -27.8726  -30.4354   23.9314 H   0  0  0  0  0  0
  -27.2688  -33.3592   26.2134 H   0  0  0  0  0  0
  -28.3846  -32.6905   25.0313 H   0  0  0  0  0  0
  -28.0761  -31.8397   26.5364 H   0  0  0  0  0  0
  -28.2599  -38.0112   24.7520 H   0  0  0  0  0  0
  -28.1094  -36.2642   24.6285 H   0  0  0  0  0  0
  -27.2299  -37.1459   25.8864 H   0  0  0  0  0  0
  -20.9314  -29.8757   21.6936 H   0  0  0  0  0  0
  -26.0185  -38.2874   24.1398 H   0  0  0  0  0  0
  -31.2686  -18.1087   17.0302 H   0  0  0  0  0  0
  -30.1642  -20.1579   17.8319 H   0  0  0  0  0  0
  -31.1655  -16.0484   18.3018 H   0  0  0  0  0  0
  -28.8862  -18.0705   21.4021 H   0  0  0  0  0  0
  -30.4722  -25.1149   21.1978 H   0  0  0  0  0  0
  -31.1867  -24.8562   19.6218 H   0  0  0  0  0  0
  -30.7959  -22.8519   21.8483 H   0  0  0  0  0  0
  -32.2337  -23.1775   20.9142 H   0  0  0  0  0  0
  -31.2724  -21.0399   20.2454 H   0  0  0  0  0  0
  -31.1426  -22.1405   18.8893 H   0  0  0  0  0  0
  -27.2771  -23.4125   17.8657 H   0  0  0  0  0  0
  -26.4254  -23.2998   19.4066 H   0  0  0  0  0  0
  -26.9639  -21.8623   18.5395 H   0  0  0  0  0  0
  -27.7814  -25.4055   18.4801 H   0  0  0  0  0  0
  -29.3799  -25.9435   18.4832 H   0  0  0  0  0  0
  -29.0499  -15.4702   21.1929 H   0  0  0  0  0  0
  -27.1007  -19.5254   20.6430 H   0  0  0  0  0  0
  -27.0153  -21.2529   20.8289 H   0  0  0  0  0  0
  1 25  1  0  0  0
  1 30  2  0  0  0
  1 86  1  0  0  0
  2  3  1  0  0  0
  2 25  1  0  0  0
  2 88  1  0  0  0
  2 89  1  0  0  0
  3  4  1  0  0  0
  3 90  1  0  0  0
  3 91  1  0  0  0
  4  5  1  0  0  0
  4 92  1  0  0  0
  4 93  1  0  0  0
  5  6  1  0  0  0
  5 26  1  0  0  0
  5 94  1  0  0  0
  6 25  1  0  0  0
  6 95  1  0  0  0
  6 96  1  0  0  0
  7  8  2  0  0  0
  7 26  1  0  0  0
  7 29  1  0  0  0
  8  9  1  0  0  0
  8 22  1  0  0  0
  9 10  1  0  0  0
  9 27  2  0  0  0
 10 11  2  0  0  0
 10 15  1  0  0  0
 11 12  1  0  0  0
 11 97  1  0  0  0
 12 13  2  0  0  0
 12 98  1  0  0  0
 13 14  1  0  0  0
 13 31  1  0  0  0
 14 15  2  0  0  0
 14 99  1  0  0  0
 15100  1  0  0  0
 16 17  2  0  0  0
 16 21  1  0  0  0
 16 31  1  0  0  0
 17 18  1  0  0  0
 17101  1  0  0  0
 18 19  2  0  0  0
 18102  1  0  0  0
 19 20  1  0  0  0
 19 24  1  0  0  0
 20 21  2  0  0  0
 20103  1  0  0  0
 21 23  1  0  0  0
 22 28  1  0  0  0
 22 32  2  0  0  0
 26 27  1  0  0  0
 28104  1  0  0  0
 28105  1  0  0  0
 29106  1  0  0  0
 29107  1  0  0  0
 33 34  1  0  0  0
 33 66  1  0  0  0
 33 70  2  0  0  0
 34 36  1  0  0  0
 34 59  1  0  0  0
 34108  1  0  0  0
 35 44  2  0  0  0
 35 45  1  0  0  0
 35 68  1  0  0  0
 36 56  1  0  0  0
 36109  1  0  0  0
 37 39  1  0  0  0
 37 47  1  0  0  0
 37 66  1  0  0  0
 37110  1  0  0  0
 38 43  2  0  0  0
 38 46  1  0  0  0
 38 47  1  0  0  0
 39 64  1  0  0  0
 39 67  2  0  0  0
 40 52  1  0  0  0
 40 53  2  0  0  0
 40 58  1  0  0  0
 41111  1  0  0  0
 41112  1  0  0  0
 41113  1  0  0  0
 41 48  1  0  0  0
 42 43  1  0  0  0
 42 66  1  0  0  0
 42114  1  0  0  0
 42115  1  0  0  0
 43 44  1  0  0  0
 44116  1  0  0  0
 45 46  2  0  0  0
 45117  1  0  0  0
 46118  1  0  0  0
 47119  1  0  0  0
 47120  1  0  0  0
 48 56  1  0  0  0
 48 65  1  0  0  0
 48121  1  0  0  0
 49 50  1  0  0  0
 49 53  1  0  0  0
 49 64  1  0  0  0
 49122  1  0  0  0
 50 51  1  0  0  0
 50123  1  0  0  0
 50124  1  0  0  0
 51 52  1  0  0  0
 51125  1  0  0  0
 51126  1  0  0  0
 52127  1  0  0  0
 52128  1  0  0  0
 53 54  1  0  0  0
 54 55  2  0  0  0
 54129  1  0  0  0
 55 57  1  0  0  0
 55130  1  0  0  0
 56 69  2  0  0  0
 57 58  2  0  0  0
 57131  1  0  0  0
 58132  1  0  0  0
 59 60  1  0  0  0
 59 61  1  0  0  0
 59 62  1  0  0  0
 60133  1  0  0  0
 60134  1  0  0  0
 60135  1  0  0  0
 61136  1  0  0  0
 61137  1  0  0  0
 61138  1  0  0  0
 62139  1  0  0  0
 62140  1  0  0  0
 62141  1  0  0  0
 63 65  1  0  0  0
 63142  1  0  0  0
 63143  1  0  0  0
 63144  1  0  0  0
 64145  1  0  0  0
 65146  1  0  0  0
 68 84  1  0  0  0
 71 72  2  0  0  0
 71 73  1  0  0  0
 71147  1  0  0  0
 72 75  1  0  0  0
 72148  1  0  0  0
 73 76  2  0  0  0
 73149  1  0  0  0
 74 75  2  0  0  0
 74 76  1  0  0  0
 74150  1  0  0  0
 75 79  1  0  0  0
 76 86  1  0  0  0
 77 78  2  0  0  0
 77 80  1  0  0  0
 77 84  1  0  0  0
 78 83  1  0  0  0
 78 85  1  0  0  0
 79 85  1  0  0  0
 79 87  2  0  0  0
 80 81  1  0  0  0
 80151  1  0  0  0
 80152  1  0  0  0
 81 82  1  0  0  0
 81153  1  0  0  0
 81154  1  0  0  0
 82 85  1  0  0  0
 82155  1  0  0  0
 82156  1  0  0  0
 83157  1  0  0  0
 83158  1  0  0  0
 83159  1  0  0  0
 84160  1  0  0  0
 84161  1  0  0  0
 86162  1  0  0  0
 87163  1  0  0  0
 87164  1  0  0  0
M  CHG  1  87   1
M  ISO  4   1 100  68 101  84 101  86 100
M  END
> <chiral flag>
0

> <version>
0

> <s_m_source_file>
/data/baiqing/PycharmProjects/Reinvent-master-3.2/result/LINK_invent/BTK/process_docking_weight1_custom_product_contain_oxygen_bond_distance_aromatic_linkinvent_7_9_3/rearranged_h_0143.sdf

> <i_m_source_file_index>
25

> <r_mmod_Potential_Energy-OPLS-2005>
-62.2539482116699

> <r_mmod_Stretch_Energy-OPLS-2005>
60.538200378418

> <r_mmod_Bend_Energy-OPLS-2005>
122.271751403809

> <r_mmod_Torsional_Energy-OPLS-2005>
270.055572509766

> <r_mmod_Improper_Torsional_Energy-OPLS-2005>
7.65628147125244

> <r_mmod_Van_der_Waal_Energy-OPLS-2005>
189.130508422852

> <r_mmod_Electrostatic_Energy-OPLS-2005>
-337.843963623047

> <r_mmod_Solvation_Energy-OPLS-2005>
-397.468231201172

> <b_mmod_Minimization_Converged-OPLS-2005>
0

> <r_mmod_RMS_Derivative-OPLS-2005>
1.93958759307861

$$$$
25
                    3D
 Structure written by MMmdl.
159168  0  0  1  0            999 V2000
  -30.5650  -14.8198   20.4606 C   0  0  0  0  0  0
  -30.4446  -12.5062   19.4826 C   0  0  0  0  0  0
  -29.5221  -12.5253   18.2439 C   0  0  0  0  0  0
  -28.0473  -12.3350   18.6524 C   0  0  0  0  0  0
  -27.6421  -13.2328   19.8510 C   0  0  2  0  0  0
  -28.6835  -13.1821   20.9898 C   0  0  0  0  0  0
  -25.2511  -13.8182   20.5680 C   0  0  0  0  0  0
  -24.1804  -13.0429   20.9219 C   0  0  0  0  0  0
  -24.6376  -11.6909   20.8740 C   0  0  0  0  0  0
  -23.9046  -10.4288   21.0418 C   0  0  0  0  0  0
  -24.3601   -9.4206   21.9194 C   0  0  0  0  0  0
  -23.6282   -8.2239   22.0761 C   0  0  0  0  0  0
  -22.4270   -8.0271   21.3552 C   0  0  0  0  0  0
  -21.9902   -9.0249   20.4661 C   0  0  0  0  0  0
  -22.7219  -10.2132   20.3068 C   0  0  0  0  0  0
  -21.6846   -6.0725   22.5283 C   0  0  0  0  0  0
  -21.4006   -6.5634   23.8214 C   0  0  0  0  0  0
  -21.3663   -5.6792   24.9183 C   0  0  0  0  0  0
  -21.6047   -4.3053   24.7237 C   0  0  0  0  0  0
  -21.8821   -3.8138   23.4354 C   0  0  0  0  0  0
  -21.9197   -4.6955   22.3409 C   0  0  0  0  0  0
  -22.7831  -13.5241   21.1882 C   0  0  0  0  0  0
  -22.1675   -4.2134   21.0989 F   0  0  0  0  0  0
  -21.5632   -3.4541   25.7753 F   0  0  0  0  0  0
  -29.9757  -13.5684   20.4084 N   0  0  0  0  0  0
  -26.2930  -12.9379   20.3259 N   0  0  0  0  0  0
  -25.9304  -11.6530   20.5710 N   0  0  0  0  0  0
  -22.0435  -12.8261   22.0422 N   0  0  0  0  0  0
  -25.4210  -15.1903   20.4053 N   0  0  0  0  0  0
  -31.7585  -14.9229   20.1555 O   0  0  0  0  0  0
  -21.6628   -6.8873   21.4250 O   0  0  0  0  0  0
  -22.3545  -14.5562   20.6731 O   0  0  0  0  0  0
  -24.6373  -31.8482   23.1933 C   0  0  0  0  0  0
  -25.9174  -32.4706   23.8307 C   0  0  1  0  0  0
  -27.2242  -27.2069   20.1222 C   0  0  0  0  0  0
  -25.5948  -33.8508   24.2229 N   0  0  0  0  0  0
  -23.4366  -30.4681   21.5370 C   0  0  2  0  0  0
  -24.8802  -28.9007   20.1090 C   0  0  0  0  0  0
  -22.7531  -29.4562   22.4903 C   0  0  0  0  0  0
  -18.0295  -28.1396   22.8480 C   0  0  0  0  0  0
  -24.1483  -36.7262   23.2642 C   0  0  0  0  0  0
  -25.9854  -30.7434   21.3774 C   0  0  0  0  0  0
  -26.0543  -29.3622   20.7143 C   0  0  0  0  0  0
  -27.2233  -28.5286   20.7035 C   0  0  0  0  0  0
  -26.0114  -26.8059   19.5237 C   0  0  0  0  0  0
  -24.8664  -27.6335   19.5050 C   0  0  0  0  0  0
  -23.6554  -29.7963   20.1555 C   0  0  0  0  0  0
  -25.4116  -36.3039   24.0322 C   0  0  1  0  0  0
  -20.5902  -28.3705   23.1261 C   0  0  2  0  0  0
  -20.6777  -26.9423   22.5396 C   0  0  0  0  0  0
  -19.5744  -26.6385   21.5207 C   0  0  0  0  0  0
  -18.1936  -26.7930   22.1632 C   0  0  0  0  0  0
  -19.1555  -28.8870   23.2863 C   0  0  0  0  0  0
  -18.9457  -30.1468   23.8885 C   0  0  0  0  0  0
  -17.6456  -30.6595   24.0547 C   0  0  0  0  0  0
  -25.9061  -34.9407   23.5089 C   0  0  0  0  0  0
  -16.5348  -29.9079   23.6335 C   0  0  0  0  0  0
  -16.7281  -28.6494   23.0365 C   0  0  0  0  0  0
  -26.4524  -31.6558   25.0719 C   0  0  0  0  0  0
  -25.3745  -31.3721   26.1440 C   0  0  0  0  0  0
  -27.0368  -30.2961   24.6250 C   0  0  0  0  0  0
  -27.6082  -32.4302   25.7480 C   0  0  0  0  0  0
  -27.5590  -37.1778   24.8467 C   0  0  0  0  0  0
  -21.4233  -29.3032   22.3639 N   0  0  0  0  0  0
  -26.4293  -37.3745   23.9415 N   0  0  0  0  0  0
  -24.7062  -31.0393   22.0924 N   0  0  0  0  0  0
  -23.4203  -28.8128   23.3038 O   0  0  0  0  0  0
  -28.3555  -26.3457   20.2185 O   0  0  0  0  0  0
  -26.5634  -34.8898   22.4651 O   0  0  0  0  0  0
  -23.5502  -32.1323   23.7196 O   0  0  0  0  0  0
  -30.9174  -19.4211   20.4540 C   0  0  0  0  0  0
  -31.1620  -18.0003   20.5405 C   0  0  0  0  0  0
  -29.5619  -19.6324   20.4591 C   0  0  0  0  0  0
  -29.9523  -17.3460   20.5694 C   0  0  0  0  0  0
  -27.2013  -22.6729   20.1326 C   0  0  0  0  0  0
  -27.4814  -21.2101   20.6296 C   0  0  0  0  0  0
  -29.5296  -22.2887   20.1322 C   0  0  0  0  0  0
  -28.4873  -23.5044   20.3719 C   0  0  1  0  0  0
  -30.1884  -25.1872   19.5568 C   0  0  0  0  0  0
  -28.2164  -24.8858   18.1308 C   0  0  0  0  0  0
  -28.6604  -24.9734   19.6084 C   0  0  0  0  0  0
  -28.9006  -20.9479   20.4045 N   0  0  0  0  0  0
  -29.7431  -15.9430   20.6553 N   0  0  0  0  0  0
  -28.9403  -18.3569   20.5444 O   0  0  0  0  0  0
  -31.4816  -12.6592   19.1760 H   0  0  0  0  0  0
  -30.4159  -11.5296   19.9694 H   0  0  0  0  0  0
  -29.8216  -11.7469   17.5426 H   0  0  0  0  0  0
  -29.6391  -13.4733   17.7166 H   0  0  0  0  0  0
  -27.9127  -11.2861   18.9185 H   0  0  0  0  0  0
  -27.3908  -12.5242   17.8021 H   0  0  0  0  0  0
  -27.6324  -14.2521   19.4654 H   0  0  0  0  0  0
  -28.7403  -12.1870   21.4337 H   0  0  0  0  0  0
  -28.3987  -13.8582   21.7977 H   0  0  0  0  0  0
  -25.2743   -9.5676   22.4772 H   0  0  0  0  0  0
  -23.9983   -7.4623   22.7474 H   0  0  0  0  0  0
  -21.0826   -8.8758   19.8966 H   0  0  0  0  0  0
  -22.3664  -10.9668   19.6175 H   0  0  0  0  0  0
  -21.1972   -7.6139   23.9714 H   0  0  0  0  0  0
  -21.1503   -6.0520   25.9089 H   0  0  0  0  0  0
  -22.0593   -2.7597   23.2848 H   0  0  0  0  0  0
  -22.4019  -11.9930   22.4853 H   0  0  0  0  0  0
  -21.1057  -13.1340   22.2598 H   0  0  0  0  0  0
  -24.6468  -15.8389   20.4969 H   0  0  0  0  0  0
  -26.2517  -15.6211   20.0181 H   0  0  0  0  0  0
  -26.7243  -32.5315   23.1044 H   0  0  0  0  0  0
  -25.0094  -33.9620   25.0382 H   0  0  0  0  0  0
  -22.7358  -31.2927   21.3895 H   0  0  0  0  0  0
  -23.3750  -35.9594   23.3276 H   0  0  0  0  0  0
  -24.3601  -36.8909   22.2071 H   0  0  0  0  0  0
  -23.7231  -37.6452   23.6678 H   0  0  0  0  0  0
  -26.1332  -31.5036   20.6089 H   0  0  0  0  0  0
  -26.8594  -30.7892   22.0164 H   0  0  0  0  0  0
  -28.1243  -28.8789   21.1868 H   0  0  0  0  0  0
  -25.8975  -25.8155   19.1203 H   0  0  0  0  0  0
  -23.9567  -27.2658   19.0502 H   0  0  0  0  0  0
  -23.7833  -30.5689   19.3964 H   0  0  0  0  0  0
  -22.7709  -29.2327   19.8534 H   0  0  0  0  0  0
  -25.1296  -36.1883   25.0814 H   0  0  0  0  0  0
  -20.9994  -28.3272   24.1379 H   0  0  0  0  0  0
  -20.5678  -26.2306   23.3597 H   0  0  0  0  0  0
  -21.6642  -26.7432   22.1189 H   0  0  0  0  0  0
  -19.6900  -25.6286   21.1252 H   0  0  0  0  0  0
  -19.6696  -27.3174   20.6720 H   0  0  0  0  0  0
  -17.4203  -26.6673   21.4038 H   0  0  0  0  0  0
  -18.0356  -26.0086   22.9042 H   0  0  0  0  0  0
  -19.7935  -30.7286   24.2262 H   0  0  0  0  0  0
  -17.5004  -31.6279   24.5143 H   0  0  0  0  0  0
  -15.5343  -30.2964   23.7671 H   0  0  0  0  0  0
  -15.8686  -28.0793   22.7103 H   0  0  0  0  0  0
  -24.5908  -30.7081   25.7759 H   0  0  0  0  0  0
  -24.8947  -32.2888   26.4875 H   0  0  0  0  0  0
  -25.8060  -30.8884   27.0214 H   0  0  0  0  0  0
  -26.2948  -29.6691   24.1276 H   0  0  0  0  0  0
  -27.4023  -29.7242   25.4791 H   0  0  0  0  0  0
  -27.8846  -30.4200   23.9509 H   0  0  0  0  0  0
  -27.2719  -33.3625   26.2030 H   0  0  0  0  0  0
  -28.3908  -32.6830   25.0311 H   0  0  0  0  0  0
  -28.0741  -31.8445   26.5420 H   0  0  0  0  0  0
  -28.2568  -38.0106   24.7536 H   0  0  0  0  0  0
  -28.1116  -36.2637   24.6251 H   0  0  0  0  0  0
  -27.2311  -37.1373   25.8866 H   0  0  0  0  0  0
  -20.9447  -29.8745   21.6818 H   0  0  0  0  0  0
  -26.0159  -38.2813   24.1419 H   0  0  0  0  0  0
  -31.6643  -20.2002   20.4116 H   0  0  0  0  0  0
  -32.1320  -17.5279   20.5837 H   0  0  0  0  0  0
  -26.3279  -23.1237   20.6049 H   0  0  0  0  0  0
  -26.9915  -22.6248   19.0636 H   0  0  0  0  0  0
  -26.8477  -20.4781   20.1262 H   0  0  0  0  0  0
  -27.2795  -21.1343   21.6984 H   0  0  0  0  0  0
  -30.4225  -22.4245   20.7455 H   0  0  0  0  0  0
  -29.8558  -22.2803   19.0929 H   0  0  0  0  0  0
  -28.5307  -23.7206   21.4398 H   0  0  0  0  0  0
  -30.6995  -24.4056   18.9943 H   0  0  0  0  0  0
  -30.6199  -25.1999   20.5583 H   0  0  0  0  0  0
  -30.4487  -26.1305   19.0753 H   0  0  0  0  0  0
  -28.7412  -24.0795   17.6159 H   0  0  0  0  0  0
  -28.4304  -25.8092   17.5924 H   0  0  0  0  0  0
  -27.1611  -24.6634   18.0026 H   0  0  0  0  0  0
  -28.7862  -15.6881   20.8409 H   0  0  0  0  0  0
  1 25  1  0  0  0
  1 30  2  0  0  0
  1 83  1  0  0  0
  2  3  1  0  0  0
  2 25  1  0  0  0
  2 85  1  0  0  0
  2 86  1  0  0  0
  3  4  1  0  0  0
  3 87  1  0  0  0
  3 88  1  0  0  0
  4  5  1  0  0  0
  4 89  1  0  0  0
  4 90  1  0  0  0
  5  6  1  0  0  0
  5 26  1  0  0  0
  5 91  1  0  0  0
  6 25  1  0  0  0
  6 92  1  0  0  0
  6 93  1  0  0  0
  7  8  2  0  0  0
  7 26  1  0  0  0
  7 29  1  0  0  0
  8  9  1  0  0  0
  8 22  1  0  0  0
  9 10  1  0  0  0
  9 27  2  0  0  0
 10 11  2  0  0  0
 10 15  1  0  0  0
 11 12  1  0  0  0
 11 94  1  0  0  0
 12 13  2  0  0  0
 12 95  1  0  0  0
 13 14  1  0  0  0
 13 31  1  0  0  0
 14 15  2  0  0  0
 14 96  1  0  0  0
 15 97  1  0  0  0
 16 17  2  0  0  0
 16 21  1  0  0  0
 16 31  1  0  0  0
 17 18  1  0  0  0
 17 98  1  0  0  0
 18 19  2  0  0  0
 18 99  1  0  0  0
 19 20  1  0  0  0
 19 24  1  0  0  0
 20 21  2  0  0  0
 20100  1  0  0  0
 21 23  1  0  0  0
 22 28  1  0  0  0
 22 32  2  0  0  0
 26 27  1  0  0  0
 28101  1  0  0  0
 28102  1  0  0  0
 29103  1  0  0  0
 29104  1  0  0  0
 33 34  1  0  0  0
 33 66  1  0  0  0
 33 70  2  0  0  0
 34 36  1  0  0  0
 34 59  1  0  0  0
 34105  1  0  0  0
 35 44  2  0  0  0
 35 45  1  0  0  0
 35 68  1  0  0  0
 36 56  1  0  0  0
 36106  1  0  0  0
 37 39  1  0  0  0
 37 47  1  0  0  0
 37 66  1  0  0  0
 37107  1  0  0  0
 38 43  2  0  0  0
 38 46  1  0  0  0
 38 47  1  0  0  0
 39 64  1  0  0  0
 39 67  2  0  0  0
 40 52  1  0  0  0
 40 53  2  0  0  0
 40 58  1  0  0  0
 41108  1  0  0  0
 41109  1  0  0  0
 41110  1  0  0  0
 41 48  1  0  0  0
 42 43  1  0  0  0
 42 66  1  0  0  0
 42111  1  0  0  0
 42112  1  0  0  0
 43 44  1  0  0  0
 44113  1  0  0  0
 45 46  2  0  0  0
 45114  1  0  0  0
 46115  1  0  0  0
 47116  1  0  0  0
 47117  1  0  0  0
 48 56  1  0  0  0
 48 65  1  0  0  0
 48118  1  0  0  0
 49 50  1  0  0  0
 49 53  1  0  0  0
 49 64  1  0  0  0
 49119  1  0  0  0
 50 51  1  0  0  0
 50120  1  0  0  0
 50121  1  0  0  0
 51 52  1  0  0  0
 51122  1  0  0  0
 51123  1  0  0  0
 52124  1  0  0  0
 52125  1  0  0  0
 53 54  1  0  0  0
 54 55  2  0  0  0
 54126  1  0  0  0
 55 57  1  0  0  0
 55127  1  0  0  0
 56 69  2  0  0  0
 57 58  2  0  0  0
 57128  1  0  0  0
 58129  1  0  0  0
 59 60  1  0  0  0
 59 61  1  0  0  0
 59 62  1  0  0  0
 60130  1  0  0  0
 60131  1  0  0  0
 60132  1  0  0  0
 61133  1  0  0  0
 61134  1  0  0  0
 61135  1  0  0  0
 62136  1  0  0  0
 62137  1  0  0  0
 62138  1  0  0  0
 63 65  1  0  0  0
 63139  1  0  0  0
 63140  1  0  0  0
 63141  1  0  0  0
 64142  1  0  0  0
 65143  1  0  0  0
 68 81  1  0  0  0
 71 72  1  0  0  0
 71 73  2  0  0  0
 71144  1  0  0  0
 72 74  2  0  0  0
 72145  1  0  0  0
 73 82  1  0  0  0
 73 84  1  0  0  0
 74 83  1  0  0  0
 74 84  1  0  0  0
 75 76  1  0  0  0
 75146  1  0  0  0
 75147  1  0  0  0
 75 78  1  0  0  0
 76 82  1  0  0  0
 76148  1  0  0  0
 76149  1  0  0  0
 77 78  1  0  0  0
 77 82  1  0  0  0
 77150  1  0  0  0
 77151  1  0  0  0
 78 81  1  0  0  0
 78152  1  0  0  0
 79153  1  0  0  0
 79154  1  0  0  0
 79155  1  0  0  0
 79 81  1  0  0  0
 80 81  1  0  0  0
 80156  1  0  0  0
 80157  1  0  0  0
 80158  1  0  0  0
 83159  1  0  0  0
M  ISO  4   1 100  68 101  81 101  83 100
M  END
> <chiral flag>
0

> <version>
0

> <s_m_source_file>
/data/baiqing/PycharmProjects/Reinvent-master-3.2/result/LINK_invent/BTK/process_docking_weight1_custom_product_contain_oxygen_bond_distance_aromatic_linkinvent_7_9_3/rearranged_h_0143.sdf

> <i_m_source_file_index>
26

> <r_mmod_Potential_Energy-OPLS-2005>
343.808776855469

> <r_mmod_Stretch_Energy-OPLS-2005>
156.415344238281

> <r_mmod_Bend_Energy-OPLS-2005>
294.150421142578

> <r_mmod_Torsional_Energy-OPLS-2005>
271.366394042969

> <r_mmod_Improper_Torsional_Energy-OPLS-2005>
4.97200059890747

> <r_mmod_Van_der_Waal_Energy-OPLS-2005>
114.435455322266

> <r_mmod_Electrostatic_Energy-OPLS-2005>
-391.58984375

> <r_mmod_Solvation_Energy-OPLS-2005>
-221.835968017578

> <b_mmod_Minimization_Converged-OPLS-2005>
0

> <r_mmod_RMS_Derivative-OPLS-2005>
2.78794050216675

$$$$
26
                    3D
 Structure written by MMmdl.
162171  0  0  1  0            999 V2000
  -30.7491  -14.4228   20.6117 C   0  0  0  0  0  0
  -30.4086  -12.2820   19.4335 C   0  0  0  0  0  0
  -29.4929  -12.5019   18.2127 C   0  0  0  0  0  0
  -28.0126  -12.3750   18.6204 C   0  0  0  0  0  0
  -27.6639  -13.2096   19.8828 C   0  0  2  0  0  0
  -28.7011  -12.9875   21.0079 C   0  0  0  0  0  0
  -25.2590  -13.8176   20.5690 C   0  0  0  0  0  0
  -24.1831  -13.0449   20.9161 C   0  0  0  0  0  0
  -24.6387  -11.6915   20.8723 C   0  0  0  0  0  0
  -23.9055  -10.4299   21.0391 C   0  0  0  0  0  0
  -24.3607   -9.4211   21.9171 C   0  0  0  0  0  0
  -23.6280   -8.2248   22.0755 C   0  0  0  0  0  0
  -22.4260   -8.0284   21.3546 C   0  0  0  0  0  0
  -21.9893   -9.0255   20.4648 C   0  0  0  0  0  0
  -22.7223  -10.2133   20.3047 C   0  0  0  0  0  0
  -21.6853   -6.0728   22.5271 C   0  0  0  0  0  0
  -21.4017   -6.5635   23.8206 C   0  0  0  0  0  0
  -21.3659   -5.6790   24.9172 C   0  0  0  0  0  0
  -21.6043   -4.3050   24.7221 C   0  0  0  0  0  0
  -21.8823   -3.8138   23.4342 C   0  0  0  0  0  0
  -21.9197   -4.6956   22.3397 C   0  0  0  0  0  0
  -22.7854  -13.5247   21.1820 C   0  0  0  0  0  0
  -22.1660   -4.2144   21.0975 F   0  0  0  0  0  0
  -21.5633   -3.4532   25.7731 F   0  0  0  0  0  0
  -30.0384  -13.2703   20.4610 N   0  0  0  0  0  0
  -26.3034  -12.9355   20.3403 N   0  0  0  0  0  0
  -25.9321  -11.6505   20.5777 N   0  0  0  0  0  0
  -22.0503  -12.8245   22.0387 N   0  0  0  0  0  0
  -25.4338  -15.1894   20.4103 N   0  0  0  0  0  0
  -31.8261  -14.5959   20.0377 O   0  0  0  0  0  0
  -21.6642   -6.8865   21.4229 O   0  0  0  0  0  0
  -22.3537  -14.5552   20.6673 O   0  0  0  0  0  0
  -24.6111  -31.8705   23.2100 C   0  0  0  0  0  0
  -25.8998  -32.4846   23.8398 C   0  0  1  0  0  0
  -27.2362  -27.4608   20.0935 C   0  0  0  0  0  0
  -25.5866  -33.8641   24.2328 N   0  0  0  0  0  0
  -23.3987  -30.4927   21.5509 C   0  0  2  0  0  0
  -24.8470  -28.9587   20.1204 C   0  0  0  0  0  0
  -22.7384  -29.4668   22.5012 C   0  0  0  0  0  0
  -18.0266  -28.1389   22.8516 C   0  0  0  0  0  0
  -24.1465  -36.7311   23.2648 C   0  0  0  0  0  0
  -25.9265  -30.8433   21.3610 C   0  0  0  0  0  0
  -26.0028  -29.4755   20.7183 C   0  0  0  0  0  0
  -27.2031  -28.7299   20.7109 C   0  0  0  0  0  0
  -26.0708  -26.9528   19.4880 C   0  0  0  0  0  0
  -24.8727  -27.6937   19.5063 C   0  0  0  0  0  0
  -23.6067  -29.8232   20.1666 C   0  0  0  0  0  0
  -25.4097  -36.3135   24.0354 C   0  0  1  0  0  0
  -20.5852  -28.3654   23.1341 C   0  0  2  0  0  0
  -20.6762  -26.9398   22.5429 C   0  0  0  0  0  0
  -19.5737  -26.6399   21.5227 C   0  0  0  0  0  0
  -18.1912  -26.7943   22.1636 C   0  0  0  0  0  0
  -19.1517  -28.8841   23.2929 C   0  0  0  0  0  0
  -18.9456  -30.1457   23.8933 C   0  0  0  0  0  0
  -17.6457  -30.6609   24.0576 C   0  0  0  0  0  0
  -25.9028  -34.9491   23.5139 C   0  0  0  0  0  0
  -16.5342  -29.9114   23.6335 C   0  0  0  0  0  0
  -16.7255  -28.6529   23.0354 C   0  0  0  0  0  0
  -26.4439  -31.6612   25.0721 C   0  0  0  0  0  0
  -25.3724  -31.3705   26.1485 C   0  0  0  0  0  0
  -27.0245  -30.3063   24.6063 C   0  0  0  0  0  0
  -27.6027  -32.4322   25.7489 C   0  0  0  0  0  0
  -27.5576  -37.1817   24.8486 C   0  0  0  0  0  0
  -21.4114  -29.3022   22.3761 N   0  0  0  0  0  0
  -26.4281  -37.3819   23.9440 N   0  0  0  0  0  0
  -24.6639  -31.0832   22.0983 N   0  0  0  0  0  0
  -23.4169  -28.8200   23.3031 O   0  0  0  0  0  0
  -28.3858  -26.7155   20.0353 O   0  0  0  0  0  0
  -26.5602  -34.8939   22.4704 O   0  0  0  0  0  0
  -23.5305  -32.1398   23.7525 O   0  0  0  0  0  0
  -32.3190  -18.5004   21.4988 C   0  0  0  0  0  0
  -31.3404  -19.4873   21.7060 C   0  0  0  0  0  0
  -31.9534  -17.1456   21.4097 C   0  0  0  0  0  0
  -29.6237  -17.7577   21.7460 C   0  0  0  0  0  0
  -29.9791  -19.1315   21.8432 C   0  0  0  0  0  0
  -30.5948  -16.7547   21.5001 C   0  0  0  0  0  0
  -29.1204  -22.5644   22.6730 C   0  0  0  0  0  0
  -28.9989  -23.9016   22.4893 C   0  0  0  0  0  0
  -28.8775  -24.6198   21.2025 C   0  0  0  0  0  0
  -29.1724  -21.9895   24.0788 C   0  0  0  0  0  0
  -29.1382  -21.4933   21.5759 C   0  0  0  0  0  0
  -28.0321  -20.9741   24.2443 C   0  0  0  0  0  0
  -28.0538  -19.8504   23.1848 C   0  0  0  0  0  0
  -28.7922  -26.1563   21.2865 C   0  0  0  0  0  0
  -28.9922  -20.1159   22.0875 N   0  0  0  0  0  0
  -30.1768  -15.3870   21.3634 N   0  0  0  0  0  0
  -28.8532  -24.0625   20.0983 O   0  0  0  0  0  0
  -31.4578  -12.3485   19.1383 H   0  0  0  0  0  0
  -30.2825  -11.2717   19.8270 H   0  0  0  0  0  0
  -29.7275  -11.7788   17.4307 H   0  0  0  0  0  0
  -29.6785  -13.4886   17.7839 H   0  0  0  0  0  0
  -27.8083  -11.3195   18.8043 H   0  0  0  0  0  0
  -27.3685  -12.6673   17.7907 H   0  0  0  0  0  0
  -27.7141  -14.2594   19.5932 H   0  0  0  0  0  0
  -28.6649  -11.9543   21.3576 H   0  0  0  0  0  0
  -28.4603  -13.5943   21.8810 H   0  0  0  0  0  0
  -25.2755   -9.5695   22.4737 H   0  0  0  0  0  0
  -23.9999   -7.4641   22.7475 H   0  0  0  0  0  0
  -21.0829   -8.8762   19.8949 H   0  0  0  0  0  0
  -22.3676  -10.9665   19.6149 H   0  0  0  0  0  0
  -21.2008   -7.6141   23.9705 H   0  0  0  0  0  0
  -21.1478   -6.0520   25.9076 H   0  0  0  0  0  0
  -22.0602   -2.7598   23.2843 H   0  0  0  0  0  0
  -22.4126  -11.9904   22.4765 H   0  0  0  0  0  0
  -21.1124  -13.1277   22.2614 H   0  0  0  0  0  0
  -24.6702  -15.8486   20.5189 H   0  0  0  0  0  0
  -26.2940  -15.6255   20.1020 H   0  0  0  0  0  0
  -26.7069  -32.5582   23.1177 H   0  0  0  0  0  0
  -25.0048  -33.9808   25.0496 H   0  0  0  0  0  0
  -22.6893  -31.3116   21.4133 H   0  0  0  0  0  0
  -23.3740  -35.9637   23.3341 H   0  0  0  0  0  0
  -24.3557  -36.8882   22.2058 H   0  0  0  0  0  0
  -23.7188  -37.6522   23.6622 H   0  0  0  0  0  0
  -26.0316  -31.6014   20.5841 H   0  0  0  0  0  0
  -26.8187  -30.9024   21.9715 H   0  0  0  0  0  0
  -28.0996  -29.1334   21.1607 H   0  0  0  0  0  0
  -26.0923  -25.9839   19.0092 H   0  0  0  0  0  0
  -23.9839  -27.2895   19.0425 H   0  0  0  0  0  0
  -23.7117  -30.5972   19.4044 H   0  0  0  0  0  0
  -22.7324  -29.2389   19.8724 H   0  0  0  0  0  0
  -25.1260  -36.2009   25.0849 H   0  0  0  0  0  0
  -20.9968  -28.3224   24.1442 H   0  0  0  0  0  0
  -20.5682  -26.2254   23.3602 H   0  0  0  0  0  0
  -21.6634  -26.7454   22.1204 H   0  0  0  0  0  0
  -19.6889  -25.6316   21.1228 H   0  0  0  0  0  0
  -19.6695  -27.3259   20.6800 H   0  0  0  0  0  0
  -17.4181  -26.6713   21.4030 H   0  0  0  0  0  0
  -18.0302  -26.0091   22.9036 H   0  0  0  0  0  0
  -19.7924  -30.7291   24.2302 H   0  0  0  0  0  0
  -17.5004  -31.6291   24.5177 H   0  0  0  0  0  0
  -15.5346  -30.3034   23.7637 H   0  0  0  0  0  0
  -15.8653  -28.0875   22.7027 H   0  0  0  0  0  0
  -24.5916  -30.7016   25.7851 H   0  0  0  0  0  0
  -24.8894  -32.2858   26.4922 H   0  0  0  0  0  0
  -25.8105  -30.8908   27.0246 H   0  0  0  0  0  0
  -26.2794  -29.6908   24.1022 H   0  0  0  0  0  0
  -27.3923  -29.7215   25.4499 H   0  0  0  0  0  0
  -27.8657  -30.4415   23.9265 H   0  0  0  0  0  0
  -27.2650  -33.3625   26.2076 H   0  0  0  0  0  0
  -28.3842  -32.6877   25.0318 H   0  0  0  0  0  0
  -28.0689  -31.8436   26.5395 H   0  0  0  0  0  0
  -28.2629  -38.0090   24.7546 H   0  0  0  0  0  0
  -28.1016  -36.2622   24.6278 H   0  0  0  0  0  0
  -27.2297  -37.1460   25.8891 H   0  0  0  0  0  0
  -20.9242  -29.8719   21.6990 H   0  0  0  0  0  0
  -26.0162  -38.2899   24.1443 H   0  0  0  0  0  0
  -33.3594  -18.7793   21.4073 H   0  0  0  0  0  0
  -31.6628  -20.5155   21.7841 H   0  0  0  0  0  0
  -32.7437  -16.4231   21.2687 H   0  0  0  0  0  0
  -28.5864  -17.4703   21.8321 H   0  0  0  0  0  0
  -28.9694  -24.5315   23.3660 H   0  0  0  0  0  0
  -29.0965  -22.7708   24.8360 H   0  0  0  0  0  0
  -30.1376  -21.5015   24.2249 H   0  0  0  0  0  0
  -30.0414  -21.6189   20.9785 H   0  0  0  0  0  0
  -28.3075  -21.6783   20.8947 H   0  0  0  0  0  0
  -27.0806  -21.5031   24.1661 H   0  0  0  0  0  0
  -28.0491  -20.5468   25.2475 H   0  0  0  0  0  0
  -27.0546  -19.7039   22.7748 H   0  0  0  0  0  0
  -28.3108  -18.9216   23.6954 H   0  0  0  0  0  0
  -29.7759  -26.5455   21.5515 H   0  0  0  0  0  0
  -28.1101  -26.4346   22.0919 H   0  0  0  0  0  0
  -29.2724  -15.1487   21.7424 H   0  0  0  0  0  0
  1 25  1  0  0  0
  1 30  2  0  0  0
  1 86  1  0  0  0
  2  3  1  0  0  0
  2 25  1  0  0  0
  2 88  1  0  0  0
  2 89  1  0  0  0
  3  4  1  0  0  0
  3 90  1  0  0  0
  3 91  1  0  0  0
  4  5  1  0  0  0
  4 92  1  0  0  0
  4 93  1  0  0  0
  5  6  1  0  0  0
  5 26  1  0  0  0
  5 94  1  0  0  0
  6 25  1  0  0  0
  6 95  1  0  0  0
  6 96  1  0  0  0
  7  8  2  0  0  0
  7 26  1  0  0  0
  7 29  1  0  0  0
  8  9  1  0  0  0
  8 22  1  0  0  0
  9 10  1  0  0  0
  9 27  2  0  0  0
 10 11  2  0  0  0
 10 15  1  0  0  0
 11 12  1  0  0  0
 11 97  1  0  0  0
 12 13  2  0  0  0
 12 98  1  0  0  0
 13 14  1  0  0  0
 13 31  1  0  0  0
 14 15  2  0  0  0
 14 99  1  0  0  0
 15100  1  0  0  0
 16 17  2  0  0  0
 16 21  1  0  0  0
 16 31  1  0  0  0
 17 18  1  0  0  0
 17101  1  0  0  0
 18 19  2  0  0  0
 18102  1  0  0  0
 19 20  1  0  0  0
 19 24  1  0  0  0
 20 21  2  0  0  0
 20103  1  0  0  0
 21 23  1  0  0  0
 22 28  1  0  0  0
 22 32  2  0  0  0
 26 27  1  0  0  0
 28104  1  0  0  0
 28105  1  0  0  0
 29106  1  0  0  0
 29107  1  0  0  0
 33 34  1  0  0  0
 33 66  1  0  0  0
 33 70  2  0  0  0
 34 36  1  0  0  0
 34 59  1  0  0  0
 34108  1  0  0  0
 35 44  2  0  0  0
 35 45  1  0  0  0
 35 68  1  0  0  0
 36 56  1  0  0  0
 36109  1  0  0  0
 37 39  1  0  0  0
 37 47  1  0  0  0
 37 66  1  0  0  0
 37110  1  0  0  0
 38 43  2  0  0  0
 38 46  1  0  0  0
 38 47  1  0  0  0
 39 64  1  0  0  0
 39 67  2  0  0  0
 40 52  1  0  0  0
 40 53  2  0  0  0
 40 58  1  0  0  0
 41111  1  0  0  0
 41112  1  0  0  0
 41113  1  0  0  0
 41 48  1  0  0  0
 42 43  1  0  0  0
 42 66  1  0  0  0
 42114  1  0  0  0
 42115  1  0  0  0
 43 44  1  0  0  0
 44116  1  0  0  0
 45 46  2  0  0  0
 45117  1  0  0  0
 46118  1  0  0  0
 47119  1  0  0  0
 47120  1  0  0  0
 48 56  1  0  0  0
 48 65  1  0  0  0
 48121  1  0  0  0
 49 50  1  0  0  0
 49 53  1  0  0  0
 49 64  1  0  0  0
 49122  1  0  0  0
 50 51  1  0  0  0
 50123  1  0  0  0
 50124  1  0  0  0
 51 52  1  0  0  0
 51125  1  0  0  0
 51126  1  0  0  0
 52127  1  0  0  0
 52128  1  0  0  0
 53 54  1  0  0  0
 54 55  2  0  0  0
 54129  1  0  0  0
 55 57  1  0  0  0
 55130  1  0  0  0
 56 69  2  0  0  0
 57 58  2  0  0  0
 57131  1  0  0  0
 58132  1  0  0  0
 59 60  1  0  0  0
 59 61  1  0  0  0
 59 62  1  0  0  0
 60133  1  0  0  0
 60134  1  0  0  0
 60135  1  0  0  0
 61136  1  0  0  0
 61137  1  0  0  0
 61138  1  0  0  0
 62139  1  0  0  0
 62140  1  0  0  0
 62141  1  0  0  0
 63 65  1  0  0  0
 63142  1  0  0  0
 63143  1  0  0  0
 63144  1  0  0  0
 64145  1  0  0  0
 65146  1  0  0  0
 68 84  1  0  0  0
 71 72  2  0  0  0
 71 73  1  0  0  0
 71147  1  0  0  0
 72 75  1  0  0  0
 72148  1  0  0  0
 73 76  2  0  0  0
 73149  1  0  0  0
 74 75  2  0  0  0
 74 76  1  0  0  0
 74150  1  0  0  0
 75 85  1  0  0  0
 76 86  1  0  0  0
 77 78  2  0  0  0
 77 80  1  0  0  0
 77 81  1  0  0  0
 78 79  1  0  0  0
 78151  1  0  0  0
 79 84  1  0  0  0
 79 87  2  0  0  0
 80 82  1  0  0  0
 80152  1  0  0  0
 80153  1  0  0  0
 81 85  1  0  0  0
 81154  1  0  0  0
 81155  1  0  0  0
 82 83  1  0  0  0
 82156  1  0  0  0
 82157  1  0  0  0
 83 85  1  0  0  0
 83158  1  0  0  0
 83159  1  0  0  0
 84160  1  0  0  0
 84161  1  0  0  0
 86162  1  0  0  0
M  ISO  4   1 100  68 101  84 101  86 100
M  END
> <chiral flag>
0

> <version>
0

> <s_m_source_file>
/data/baiqing/PycharmProjects/Reinvent-master-3.2/result/LINK_invent/BTK/process_docking_weight1_custom_product_contain_oxygen_bond_distance_aromatic_linkinvent_7_9_3/rearranged_h_0143.sdf

> <i_m_source_file_index>
27

> <r_mmod_Potential_Energy-OPLS-2005>
13.9371395111084

> <r_mmod_Stretch_Energy-OPLS-2005>
40.1927375793457

> <r_mmod_Bend_Energy-OPLS-2005>
112.156616210938

> <r_mmod_Torsional_Energy-OPLS-2005>
265.962554931641

> <r_mmod_Improper_Torsional_Energy-OPLS-2005>
3.28181958198547

> <r_mmod_Van_der_Waal_Energy-OPLS-2005>
174.295532226562

> <r_mmod_Electrostatic_Energy-OPLS-2005>
-350.316284179688

> <r_mmod_Solvation_Energy-OPLS-2005>
-240.312026977539

> <b_mmod_Minimization_Converged-OPLS-2005>
0

> <r_mmod_RMS_Derivative-OPLS-2005>
2.7554829120636

$$$$
27
                    3D
 Structure written by MMmdl.
168177  0  0  1  0            999 V2000
  -30.6484  -14.5458   20.5373 C   0  0  0  0  0  0
  -30.4343  -12.3395   19.4359 C   0  0  0  0  0  0
  -29.5027  -12.5065   18.2152 C   0  0  0  0  0  0
  -28.0235  -12.3592   18.6251 C   0  0  0  0  0  0
  -27.6613  -13.2062   19.8742 C   0  0  2  0  0  0
  -28.7034  -13.0036   20.9981 C   0  0  0  0  0  0
  -25.2598  -13.8154   20.5678 C   0  0  0  0  0  0
  -24.1845  -13.0436   20.9176 C   0  0  0  0  0  0
  -24.6395  -11.6904   20.8735 C   0  0  0  0  0  0
  -23.9060  -10.4291   21.0400 C   0  0  0  0  0  0
  -24.3613   -9.4210   21.9181 C   0  0  0  0  0  0
  -23.6289   -8.2247   22.0757 C   0  0  0  0  0  0
  -22.4272   -8.0281   21.3543 C   0  0  0  0  0  0
  -21.9903   -9.0256   20.4647 C   0  0  0  0  0  0
  -22.7232  -10.2136   20.3053 C   0  0  0  0  0  0
  -21.6853   -6.0733   22.5275 C   0  0  0  0  0  0
  -21.4016   -6.5637   23.8208 C   0  0  0  0  0  0
  -21.3661   -5.6793   24.9173 C   0  0  0  0  0  0
  -21.6045   -4.3054   24.7226 C   0  0  0  0  0  0
  -21.8821   -3.8144   23.4345 C   0  0  0  0  0  0
  -21.9194   -4.6960   22.3400 C   0  0  0  0  0  0
  -22.7870  -13.5238   21.1841 C   0  0  0  0  0  0
  -22.1661   -4.2143   21.0977 F   0  0  0  0  0  0
  -21.5630   -3.4538   25.7740 F   0  0  0  0  0  0
  -30.0296  -13.3325   20.4470 N   0  0  0  0  0  0
  -26.3027  -12.9319   20.3357 N   0  0  0  0  0  0
  -25.9322  -11.6483   20.5763 N   0  0  0  0  0  0
  -22.0513  -12.8233   22.0397 N   0  0  0  0  0  0
  -25.4342  -15.1875   20.4090 N   0  0  0  0  0  0
  -31.7868  -14.7357   20.0993 O   0  0  0  0  0  0
  -21.6638   -6.8878   21.4236 O   0  0  0  0  0  0
  -22.3559  -14.5546   20.6696 O   0  0  0  0  0  0
  -24.6199  -31.8630   23.2057 C   0  0  0  0  0  0
  -25.9081  -32.4788   23.8362 C   0  0  1  0  0  0
  -27.2290  -27.3792   20.1075 C   0  0  0  0  0  0
  -25.5927  -33.8588   24.2293 N   0  0  0  0  0  0
  -23.4105  -30.4862   21.5468 C   0  0  2  0  0  0
  -24.8569  -28.9472   20.1125 C   0  0  0  0  0  0
  -22.7443  -29.4633   22.4963 C   0  0  0  0  0  0
  -18.0281  -28.1369   22.8471 C   0  0  0  0  0  0
  -24.1493  -36.7303   23.2637 C   0  0  0  0  0  0
  -25.9444  -30.8141   21.3664 C   0  0  0  0  0  0
  -26.0216  -29.4458   20.7098 C   0  0  0  0  0  0
  -27.2118  -28.6720   20.6968 C   0  0  0  0  0  0
  -26.0455  -26.9151   19.4908 C   0  0  0  0  0  0
  -24.8668  -27.6848   19.4972 C   0  0  0  0  0  0
  -23.6219  -29.8206   20.1612 C   0  0  0  0  0  0
  -25.4117  -36.3089   24.0329 C   0  0  1  0  0  0
  -20.5874  -28.3665   23.1293 C   0  0  2  0  0  0
  -20.6770  -26.9395   22.5408 C   0  0  0  0  0  0
  -19.5757  -26.6376   21.5195 C   0  0  0  0  0  0
  -18.1933  -26.7914   22.1608 C   0  0  0  0  0  0
  -19.1532  -28.8834   23.2875 C   0  0  0  0  0  0
  -18.9462  -30.1438   23.8893 C   0  0  0  0  0  0
  -17.6468  -30.6578   24.0553 C   0  0  0  0  0  0
  -25.9048  -34.9457   23.5106 C   0  0  0  0  0  0
  -16.5358  -29.9078   23.6321 C   0  0  0  0  0  0
  -16.7273  -28.6494   23.0337 C   0  0  0  0  0  0
  -26.4489  -31.6584   25.0711 C   0  0  0  0  0  0
  -25.3745  -31.3717   26.1455 C   0  0  0  0  0  0
  -27.0314  -30.3014   24.6114 C   0  0  0  0  0  0
  -27.6047  -32.4309   25.7491 C   0  0  0  0  0  0
  -27.5584  -37.1806   24.8463 C   0  0  0  0  0  0
  -21.4161  -29.3028   22.3700 N   0  0  0  0  0  0
  -26.4296  -37.3778   23.9410 N   0  0  0  0  0  0
  -24.6764  -31.0699   22.0975 N   0  0  0  0  0  0
  -23.4183  -28.8172   23.3026 O   0  0  0  0  0  0
  -28.3781  -26.5943   20.1338 O   0  0  0  0  0  0
  -26.5605  -34.8917   22.4664 O   0  0  0  0  0  0
  -23.5379  -32.1403   23.7427 O   0  0  0  0  0  0
  -28.8254  -19.1558   21.3149 C   0  0  0  0  0  0
  -28.8887  -17.7488   21.4629 C   0  0  0  0  0  0
  -30.8491  -17.6837   20.0572 C   0  0  0  0  0  0
  -30.7938  -19.1004   19.8909 C   0  0  0  0  0  0
  -29.7681  -19.8638   20.5313 C   0  0  0  0  0  0
  -29.9025  -16.9810   20.8445 C   0  0  0  0  0  0
  -30.2172  -23.5135   21.3572 C   0  0  0  0  0  0
  -29.3647  -23.2931   18.9875 C   0  0  0  0  0  0
  -29.6628  -22.0895   21.6374 C   0  0  0  0  0  0
  -28.8573  -21.8734   19.3735 C   0  0  0  0  0  0
  -29.5811  -24.3158   20.1596 C   0  0  0  0  0  0
  -30.6674  -25.3147   19.6884 C   0  0  0  0  0  0
  -27.8108  -25.1140   21.9550 C   0  0  0  0  0  0
  -28.2669  -25.1707   20.4818 C   0  0  1  0  0  0
  -31.8596  -19.7821   19.0268 C   0  0  0  0  0  0
  -29.6904  -21.2840   20.4209 N   0  0  0  0  0  0
  -29.8726  -15.5457   21.0324 N   0  0  0  0  0  0
  -32.7495  -18.9075   18.5523 F   0  0  0  0  0  0
  -31.2993  -20.3815   17.9755 F   0  0  0  0  0  0
  -32.5372  -20.6886   19.7331 F   0  0  0  0  0  0
  -31.4769  -12.4549   19.1351 H   0  0  0  0  0  0
  -30.3530  -11.3314   19.8454 H   0  0  0  0  0  0
  -29.7510  -11.7717   17.4483 H   0  0  0  0  0  0
  -29.6611  -13.4863   17.7617 H   0  0  0  0  0  0
  -27.8412  -11.3038   18.8303 H   0  0  0  0  0  0
  -27.3727  -12.6226   17.7903 H   0  0  0  0  0  0
  -27.6991  -14.2509   19.5660 H   0  0  0  0  0  0
  -28.6947  -11.9684   21.3428 H   0  0  0  0  0  0
  -28.4560  -13.6021   21.8765 H   0  0  0  0  0  0
  -25.2760   -9.5685   22.4753 H   0  0  0  0  0  0
  -23.9997   -7.4638   22.7478 H   0  0  0  0  0  0
  -21.0837   -8.8772   19.8954 H   0  0  0  0  0  0
  -22.3686  -10.9676   19.6161 H   0  0  0  0  0  0
  -21.2009   -7.6147   23.9709 H   0  0  0  0  0  0
  -21.1483   -6.0525   25.9076 H   0  0  0  0  0  0
  -22.0601   -2.7605   23.2848 H   0  0  0  0  0  0
  -22.4125  -11.9881   22.4767 H   0  0  0  0  0  0
  -21.1134  -13.1264   22.2618 H   0  0  0  0  0  0
  -24.6694  -15.8453   20.5143 H   0  0  0  0  0  0
  -26.2846  -15.6214   20.0720 H   0  0  0  0  0  0
  -26.7154  -32.5479   23.1122 H   0  0  0  0  0  0
  -25.0096  -33.9739   25.0449 H   0  0  0  0  0  0
  -22.7016  -31.3042   21.4052 H   0  0  0  0  0  0
  -23.3745  -35.9642   23.3300 H   0  0  0  0  0  0
  -24.3595  -36.8920   22.2052 H   0  0  0  0  0  0
  -23.7250  -37.6508   23.6657 H   0  0  0  0  0  0
  -26.0670  -31.5812   20.6008 H   0  0  0  0  0  0
  -26.8270  -30.8628   21.9924 H   0  0  0  0  0  0
  -28.1101  -29.0494   21.1657 H   0  0  0  0  0  0
  -26.0170  -25.9582   18.9921 H   0  0  0  0  0  0
  -23.9744  -27.2985   19.0240 H   0  0  0  0  0  0
  -23.7362  -30.5960   19.4022 H   0  0  0  0  0  0
  -22.7436  -29.2449   19.8626 H   0  0  0  0  0  0
  -25.1289  -36.1946   25.0819 H   0  0  0  0  0  0
  -20.9962  -28.3244   24.1416 H   0  0  0  0  0  0
  -20.5668  -26.2278   23.3598 H   0  0  0  0  0  0
  -21.6645  -26.7430   22.1214 H   0  0  0  0  0  0
  -19.6929  -25.6287   21.1225 H   0  0  0  0  0  0
  -19.6705  -27.3185   20.6721 H   0  0  0  0  0  0
  -17.4203  -26.6647   21.4016 H   0  0  0  0  0  0
  -18.0348  -26.0050   22.9003 H   0  0  0  0  0  0
  -19.7947  -30.7234   24.2275 H   0  0  0  0  0  0
  -17.5032  -31.6256   24.5156 H   0  0  0  0  0  0
  -15.5361  -30.2976   23.7645 H   0  0  0  0  0  0
  -15.8673  -28.0814   22.7043 H   0  0  0  0  0  0
  -24.5913  -30.7062   25.7806 H   0  0  0  0  0  0
  -24.8947  -32.2887   26.4887 H   0  0  0  0  0  0
  -25.8091  -30.8902   27.0224 H   0  0  0  0  0  0
  -26.2865  -29.6786   24.1148 H   0  0  0  0  0  0
  -27.4045  -29.7239   25.4582 H   0  0  0  0  0  0
  -27.8719  -30.4306   23.9288 H   0  0  0  0  0  0
  -27.2642  -33.3597   26.2083 H   0  0  0  0  0  0
  -28.3861  -32.6895   25.0331 H   0  0  0  0  0  0
  -28.0709  -31.8424   26.5406 H   0  0  0  0  0  0
  -28.2587  -38.0116   24.7510 H   0  0  0  0  0  0
  -28.1088  -36.2644   24.6277 H   0  0  0  0  0  0
  -27.2304  -37.1440   25.8866 H   0  0  0  0  0  0
  -20.9338  -29.8756   21.6918 H   0  0  0  0  0  0
  -26.0176  -38.2849   24.1417 H   0  0  0  0  0  0
  -28.0299  -19.6917   21.8115 H   0  0  0  0  0  0
  -28.1349  -17.2613   22.0653 H   0  0  0  0  0  0
  -31.6351  -17.1384   19.5595 H   0  0  0  0  0  0
  -31.2768  -23.3649   21.1454 H   0  0  0  0  0  0
  -30.2166  -24.1024   22.2730 H   0  0  0  0  0  0
  -28.7058  -23.7248   18.2320 H   0  0  0  0  0  0
  -30.3142  -23.1409   18.4721 H   0  0  0  0  0  0
  -28.6429  -22.1361   22.0192 H   0  0  0  0  0  0
  -30.2641  -21.6108   22.4125 H   0  0  0  0  0  0
  -28.8525  -21.2307   18.4918 H   0  0  0  0  0  0
  -27.8250  -21.9276   19.7227 H   0  0  0  0  0  0
  -31.6084  -24.8188   19.4480 H   0  0  0  0  0  0
  -30.8860  -26.0560   20.4583 H   0  0  0  0  0  0
  -30.3598  -25.8484   18.7879 H   0  0  0  0  0  0
  -27.6702  -24.0907   22.2973 H   0  0  0  0  0  0
  -26.8516  -25.6126   22.0938 H   0  0  0  0  0  0
  -28.5265  -25.6049   22.6153 H   0  0  0  0  0  0
  -27.4650  -24.7167   19.9031 H   0  0  0  0  0  0
  -29.0326  -15.1976   21.4688 H   0  0  0  0  0  0
  1 25  1  0  0  0
  1 30  2  0  0  0
  1 87  1  0  0  0
  2  3  1  0  0  0
  2 25  1  0  0  0
  2 91  1  0  0  0
  2 92  1  0  0  0
  3  4  1  0  0  0
  3 93  1  0  0  0
  3 94  1  0  0  0
  4  5  1  0  0  0
  4 95  1  0  0  0
  4 96  1  0  0  0
  5  6  1  0  0  0
  5 26  1  0  0  0
  5 97  1  0  0  0
  6 25  1  0  0  0
  6 98  1  0  0  0
  6 99  1  0  0  0
  7  8  2  0  0  0
  7 26  1  0  0  0
  7 29  1  0  0  0
  8  9  1  0  0  0
  8 22  1  0  0  0
  9 10  1  0  0  0
  9 27  2  0  0  0
 10 11  2  0  0  0
 10 15  1  0  0  0
 11 12  1  0  0  0
 11100  1  0  0  0
 12 13  2  0  0  0
 12101  1  0  0  0
 13 14  1  0  0  0
 13 31  1  0  0  0
 14 15  2  0  0  0
 14102  1  0  0  0
 15103  1  0  0  0
 16 17  2  0  0  0
 16 21  1  0  0  0
 16 31  1  0  0  0
 17 18  1  0  0  0
 17104  1  0  0  0
 18 19  2  0  0  0
 18105  1  0  0  0
 19 20  1  0  0  0
 19 24  1  0  0  0
 20 21  2  0  0  0
 20106  1  0  0  0
 21 23  1  0  0  0
 22 28  1  0  0  0
 22 32  2  0  0  0
 26 27  1  0  0  0
 28107  1  0  0  0
 28108  1  0  0  0
 29109  1  0  0  0
 29110  1  0  0  0
 33 34  1  0  0  0
 33 66  1  0  0  0
 33 70  2  0  0  0
 34 36  1  0  0  0
 34 59  1  0  0  0
 34111  1  0  0  0
 35 44  2  0  0  0
 35 45  1  0  0  0
 35 68  1  0  0  0
 36 56  1  0  0  0
 36112  1  0  0  0
 37 39  1  0  0  0
 37 47  1  0  0  0
 37 66  1  0  0  0
 37113  1  0  0  0
 38 43  2  0  0  0
 38 46  1  0  0  0
 38 47  1  0  0  0
 39 64  1  0  0  0
 39 67  2  0  0  0
 40 52  1  0  0  0
 40 53  2  0  0  0
 40 58  1  0  0  0
 41114  1  0  0  0
 41115  1  0  0  0
 41116  1  0  0  0
 41 48  1  0  0  0
 42 43  1  0  0  0
 42 66  1  0  0  0
 42117  1  0  0  0
 42118  1  0  0  0
 43 44  1  0  0  0
 44119  1  0  0  0
 45 46  2  0  0  0
 45120  1  0  0  0
 46121  1  0  0  0
 47122  1  0  0  0
 47123  1  0  0  0
 48 56  1  0  0  0
 48 65  1  0  0  0
 48124  1  0  0  0
 49 50  1  0  0  0
 49 53  1  0  0  0
 49 64  1  0  0  0
 49125  1  0  0  0
 50 51  1  0  0  0
 50126  1  0  0  0
 50127  1  0  0  0
 51 52  1  0  0  0
 51128  1  0  0  0
 51129  1  0  0  0
 52130  1  0  0  0
 52131  1  0  0  0
 53 54  1  0  0  0
 54 55  2  0  0  0
 54132  1  0  0  0
 55 57  1  0  0  0
 55133  1  0  0  0
 56 69  2  0  0  0
 57 58  2  0  0  0
 57134  1  0  0  0
 58135  1  0  0  0
 59 60  1  0  0  0
 59 61  1  0  0  0
 59 62  1  0  0  0
 60136  1  0  0  0
 60137  1  0  0  0
 60138  1  0  0  0
 61139  1  0  0  0
 61140  1  0  0  0
 61141  1  0  0  0
 62142  1  0  0  0
 62143  1  0  0  0
 62144  1  0  0  0
 63 65  1  0  0  0
 63145  1  0  0  0
 63146  1  0  0  0
 63147  1  0  0  0
 64148  1  0  0  0
 65149  1  0  0  0
 68 84  1  0  0  0
 71 72  2  0  0  0
 71 75  1  0  0  0
 71150  1  0  0  0
 72 76  1  0  0  0
 72151  1  0  0  0
 73 74  1  0  0  0
 73 76  2  0  0  0
 73152  1  0  0  0
 74 75  2  0  0  0
 74 85  1  0  0  0
 75 86  1  0  0  0
 76 87  1  0  0  0
 77 79  1  0  0  0
 77 81  1  0  0  0
 77153  1  0  0  0
 77154  1  0  0  0
 78 80  1  0  0  0
 78 81  1  0  0  0
 78155  1  0  0  0
 78156  1  0  0  0
 79 86  1  0  0  0
 79157  1  0  0  0
 79158  1  0  0  0
 80 86  1  0  0  0
 80159  1  0  0  0
 80160  1  0  0  0
 81 82  1  0  0  0
 81 84  1  0  0  0
 82161  1  0  0  0
 82162  1  0  0  0
 82163  1  0  0  0
 83164  1  0  0  0
 83165  1  0  0  0
 83166  1  0  0  0
 83 84  1  0  0  0
 84167  1  0  0  0
 85 88  1  0  0  0
 85 89  1  0  0  0
 85 90  1  0  0  0
 87168  1  0  0  0
M  ISO  4   1 100  68 101  84 101  87 100
M  END
> <chiral flag>
0

> <version>
0

> <s_m_source_file>
/data/baiqing/PycharmProjects/Reinvent-master-3.2/result/LINK_invent/BTK/process_docking_weight1_custom_product_contain_oxygen_bond_distance_aromatic_linkinvent_7_9_3/rearranged_h_0143.sdf

> <i_m_source_file_index>
28

> <r_mmod_Potential_Energy-OPLS-2005>
165.988952636719

> <r_mmod_Stretch_Energy-OPLS-2005>
62.6480369567871

> <r_mmod_Bend_Energy-OPLS-2005>
138.67317199707

> <r_mmod_Torsional_Energy-OPLS-2005>
302.536560058594

> <r_mmod_Improper_Torsional_Energy-OPLS-2005>
6.64889669418335

> <r_mmod_Van_der_Waal_Energy-OPLS-2005>
163.511566162109

> <r_mmod_Electrostatic_Energy-OPLS-2005>
-331.820556640625

> <r_mmod_Solvation_Energy-OPLS-2005>
-200.069610595703

> <b_mmod_Minimization_Converged-OPLS-2005>
0

> <r_mmod_RMS_Derivative-OPLS-2005>
1.1287317276001

$$$$
28
                    3D
 Structure written by MMmdl.
166175  0  0  1  0            999 V2000
  -30.6335  -14.5931   20.5219 C   0  0  0  0  0  0
  -30.4371  -12.3696   19.4337 C   0  0  0  0  0  0
  -29.5012  -12.4989   18.2120 C   0  0  0  0  0  0
  -28.0240  -12.3404   18.6281 C   0  0  0  0  0  0
  -27.6524  -13.2073   19.8605 C   0  0  2  0  0  0
  -28.6986  -13.0446   20.9859 C   0  0  0  0  0  0
  -25.2566  -13.8151   20.5671 C   0  0  0  0  0  0
  -24.1828  -13.0431   20.9192 C   0  0  0  0  0  0
  -24.6383  -11.6897   20.8746 C   0  0  0  0  0  0
  -23.9050  -10.4287   21.0412 C   0  0  0  0  0  0
  -24.3608   -9.4204   21.9186 C   0  0  0  0  0  0
  -23.6285   -8.2238   22.0755 C   0  0  0  0  0  0
  -22.4268   -8.0276   21.3544 C   0  0  0  0  0  0
  -21.9901   -9.0250   20.4648 C   0  0  0  0  0  0
  -22.7226  -10.2131   20.3059 C   0  0  0  0  0  0
  -21.6851   -6.0732   22.5278 C   0  0  0  0  0  0
  -21.4013   -6.5638   23.8211 C   0  0  0  0  0  0
  -21.3658   -5.6792   24.9174 C   0  0  0  0  0  0
  -21.6044   -4.3055   24.7226 C   0  0  0  0  0  0
  -21.8819   -3.8146   23.4348 C   0  0  0  0  0  0
  -21.9192   -4.6960   22.3403 C   0  0  0  0  0  0
  -22.7853  -13.5235   21.1854 C   0  0  0  0  0  0
  -22.1661   -4.2145   21.0981 F   0  0  0  0  0  0
  -21.5629   -3.4540   25.7739 F   0  0  0  0  0  0
  -30.0137  -13.3800   20.4180 N   0  0  0  0  0  0
  -26.2981  -12.9311   20.3305 N   0  0  0  0  0  0
  -25.9305  -11.6478   20.5755 N   0  0  0  0  0  0
  -22.0491  -12.8233   22.0412 N   0  0  0  0  0  0
  -25.4280  -15.1871   20.4063 N   0  0  0  0  0  0
  -31.8066  -14.7601   20.1715 O   0  0  0  0  0  0
  -21.6635   -6.8874   21.4239 O   0  0  0  0  0  0
  -22.3545  -14.5542   20.6700 O   0  0  0  0  0  0
  -24.6216  -31.8623   23.2039 C   0  0  0  0  0  0
  -25.9081  -32.4791   23.8359 C   0  0  1  0  0  0
  -27.2308  -27.3609   20.1173 C   0  0  0  0  0  0
  -25.5910  -33.8590   24.2291 N   0  0  0  0  0  0
  -23.4129  -30.4845   21.5462 C   0  0  2  0  0  0
  -24.8587  -28.9361   20.1197 C   0  0  0  0  0  0
  -22.7446  -29.4637   22.4965 C   0  0  0  0  0  0
  -18.0280  -28.1380   22.8490 C   0  0  0  0  0  0
  -24.1488  -36.7303   23.2640 C   0  0  0  0  0  0
  -25.9484  -30.8074   21.3656 C   0  0  0  0  0  0
  -26.0246  -29.4352   20.7139 C   0  0  0  0  0  0
  -27.2156  -28.6603   20.6974 C   0  0  0  0  0  0
  -26.0415  -26.8903   19.5225 C   0  0  0  0  0  0
  -24.8656  -27.6662   19.5180 C   0  0  0  0  0  0
  -23.6253  -29.8130   20.1634 C   0  0  0  0  0  0
  -25.4112  -36.3093   24.0332 C   0  0  1  0  0  0
  -20.5875  -28.3677   23.1300 C   0  0  2  0  0  0
  -20.6770  -26.9407   22.5414 C   0  0  0  0  0  0
  -19.5748  -26.6385   21.5212 C   0  0  0  0  0  0
  -18.1927  -26.7925   22.1625 C   0  0  0  0  0  0
  -19.1531  -28.8846   23.2891 C   0  0  0  0  0  0
  -18.9456  -30.1450   23.8904 C   0  0  0  0  0  0
  -17.6458  -30.6585   24.0565 C   0  0  0  0  0  0
  -25.9044  -34.9460   23.5112 C   0  0  0  0  0  0
  -16.5349  -29.9087   23.6327 C   0  0  0  0  0  0
  -16.7268  -28.6503   23.0349 C   0  0  0  0  0  0
  -26.4485  -31.6589   25.0712 C   0  0  0  0  0  0
  -25.3736  -31.3714   26.1452 C   0  0  0  0  0  0
  -27.0321  -30.3021   24.6128 C   0  0  0  0  0  0
  -27.6052  -32.4317   25.7479 C   0  0  0  0  0  0
  -27.5579  -37.1808   24.8467 C   0  0  0  0  0  0
  -21.4166  -29.3037   22.3702 N   0  0  0  0  0  0
  -26.4296  -37.3781   23.9405 N   0  0  0  0  0  0
  -24.6797  -31.0674   22.0964 N   0  0  0  0  0  0
  -23.4186  -28.8186   23.3038 O   0  0  0  0  0  0
  -28.3930  -26.5949   20.0818 O   0  0  0  0  0  0
  -26.5611  -34.8922   22.4678 O   0  0  0  0  0  0
  -23.5392  -32.1401   23.7397 O   0  0  0  0  0  0
  -30.4185  -18.7002   22.4780 C   0  0  0  0  0  0
  -30.3506  -17.2759   22.4627 C   0  0  0  0  0  0
  -30.1935  -19.1561   21.2041 C   0  0  0  0  0  0
  -30.0960  -16.9247   21.1687 C   0  0  0  0  0  0
  -30.9475  -20.7221   19.2691 C   0  0  0  0  0  0
  -30.6560  -22.1683   18.8145 C   0  0  0  0  0  0
  -29.1294  -21.6154   20.5900 C   0  0  0  0  0  0
  -30.3092  -20.5874   20.6477 C   0  0  1  0  0  0
  -29.7788  -22.8679   19.8935 C   0  0  2  0  0  0
  -29.1413  -25.1564   21.7962 C   0  0  0  0  0  0
  -27.7614  -23.6476   18.5159 C   0  0  0  0  0  0
  -29.8723  -24.9752   18.4512 C   0  0  0  0  0  0
  -28.3709  -25.1757   20.4682 C   0  0  2  0  0  0
  -28.9412  -24.1471   19.3753 C   0  0  0  0  0  0
  -29.8017  -15.6384   20.7900 N   0  0  0  0  0  0
  -29.9292  -18.0615   20.3836 O   0  0  0  0  0  0
  -31.4771  -12.5003   19.1290 H   0  0  0  0  0  0
  -30.3733  -11.3703   19.8671 H   0  0  0  0  0  0
  -29.7588  -11.7515   17.4602 H   0  0  0  0  0  0
  -29.6458  -13.4710   17.7379 H   0  0  0  0  0  0
  -27.8574  -11.2868   18.8555 H   0  0  0  0  0  0
  -27.3678  -12.5761   17.7893 H   0  0  0  0  0  0
  -27.6740  -14.2435   19.5238 H   0  0  0  0  0  0
  -28.7043  -12.0195   21.3593 H   0  0  0  0  0  0
  -28.4529  -13.6716   21.8446 H   0  0  0  0  0  0
  -25.2753   -9.5681   22.4759 H   0  0  0  0  0  0
  -23.9995   -7.4632   22.7474 H   0  0  0  0  0  0
  -21.0832   -8.8768   19.8956 H   0  0  0  0  0  0
  -22.3682  -10.9671   19.6170 H   0  0  0  0  0  0
  -21.2004   -7.6146   23.9712 H   0  0  0  0  0  0
  -21.1481   -6.0524   25.9076 H   0  0  0  0  0  0
  -22.0599   -2.7608   23.2849 H   0  0  0  0  0  0
  -22.4101  -11.9893   22.4803 H   0  0  0  0  0  0
  -21.1112  -13.1266   22.2617 H   0  0  0  0  0  0
  -24.6580  -15.8388   20.5113 H   0  0  0  0  0  0
  -26.2678  -15.6264   20.0515 H   0  0  0  0  0  0
  -26.7150  -32.5478   23.1114 H   0  0  0  0  0  0
  -25.0059  -33.9741   25.0436 H   0  0  0  0  0  0
  -22.7048  -31.3032   21.4021 H   0  0  0  0  0  0
  -23.3744  -35.9643   23.3316 H   0  0  0  0  0  0
  -24.3577  -36.8907   22.2052 H   0  0  0  0  0  0
  -23.7250  -37.6514   23.6650 H   0  0  0  0  0  0
  -26.0699  -31.5701   20.5952 H   0  0  0  0  0  0
  -26.8328  -30.8603   21.9890 H   0  0  0  0  0  0
  -28.1194  -29.0470   21.1473 H   0  0  0  0  0  0
  -26.0138  -25.9193   19.0545 H   0  0  0  0  0  0
  -23.9699  -27.2755   19.0551 H   0  0  0  0  0  0
  -23.7422  -30.5857   19.4027 H   0  0  0  0  0  0
  -22.7467  -29.2385   19.8646 H   0  0  0  0  0  0
  -25.1293  -36.1952   25.0825 H   0  0  0  0  0  0
  -20.9966  -28.3247   24.1421 H   0  0  0  0  0  0
  -20.5672  -26.2286   23.3607 H   0  0  0  0  0  0
  -21.6640  -26.7445   22.1206 H   0  0  0  0  0  0
  -19.6911  -25.6299   21.1236 H   0  0  0  0  0  0
  -19.6686  -27.3201   20.6746 H   0  0  0  0  0  0
  -17.4197  -26.6671   21.4027 H   0  0  0  0  0  0
  -18.0331  -26.0066   22.9021 H   0  0  0  0  0  0
  -19.7933  -30.7263   24.2277 H   0  0  0  0  0  0
  -17.5014  -31.6266   24.5166 H   0  0  0  0  0  0
  -15.5350  -30.2992   23.7647 H   0  0  0  0  0  0
  -15.8668  -28.0826   22.7059 H   0  0  0  0  0  0
  -24.5905  -30.7066   25.7787 H   0  0  0  0  0  0
  -24.8932  -32.2876   26.4896 H   0  0  0  0  0  0
  -25.8075  -30.8883   27.0215 H   0  0  0  0  0  0
  -26.2879  -29.6777   24.1170 H   0  0  0  0  0  0
  -27.4060  -29.7267   25.4607 H   0  0  0  0  0  0
  -27.8728  -30.4324   23.9309 H   0  0  0  0  0  0
  -27.2665  -33.3610   26.2073 H   0  0  0  0  0  0
  -28.3852  -32.6890   25.0301 H   0  0  0  0  0  0
  -28.0731  -31.8432   26.5382 H   0  0  0  0  0  0
  -28.2610  -38.0092   24.7496 H   0  0  0  0  0  0
  -28.1061  -36.2622   24.6316 H   0  0  0  0  0  0
  -27.2294  -37.1487   25.8870 H   0  0  0  0  0  0
  -20.9338  -29.8754   21.6911 H   0  0  0  0  0  0
  -26.0181  -38.2861   24.1394 H   0  0  0  0  0  0
  -30.6392  -19.3279   23.3304 H   0  0  0  0  0  0
  -30.4672  -16.6016   23.3000 H   0  0  0  0  0  0
  -32.0149  -20.4989   19.2928 H   0  0  0  0  0  0
  -30.4841  -20.0222   18.5722 H   0  0  0  0  0  0
  -30.1516  -22.1271   17.8497 H   0  0  0  0  0  0
  -31.5874  -22.7151   18.6593 H   0  0  0  0  0  0
  -28.7423  -21.8496   21.5816 H   0  0  0  0  0  0
  -28.3078  -21.2145   19.9956 H   0  0  0  0  0  0
  -31.0248  -21.0619   21.3226 H   0  0  0  0  0  0
  -30.5027  -23.2577   20.6097 H   0  0  0  0  0  0
  -29.0989  -24.1770   22.2716 H   0  0  0  0  0  0
  -28.7151  -25.8702   22.5016 H   0  0  0  0  0  0
  -30.1888  -25.4212   21.6513 H   0  0  0  0  0  0
  -28.0782  -22.9462   17.7454 H   0  0  0  0  0  0
  -27.2671  -24.4694   18.0002 H   0  0  0  0  0  0
  -27.0114  -23.1417   19.1244 H   0  0  0  0  0  0
  -30.2426  -24.4091   17.5980 H   0  0  0  0  0  0
  -30.7360  -25.3544   18.9985 H   0  0  0  0  0  0
  -29.3587  -25.8326   18.0155 H   0  0  0  0  0  0
  -27.3522  -24.8777   20.7212 H   0  0  0  0  0  0
  -28.8391  -15.3693   20.9156 H   0  0  0  0  0  0
  1 25  1  0  0  0
  1 30  2  0  0  0
  1 85  1  0  0  0
  2  3  1  0  0  0
  2 25  1  0  0  0
  2 87  1  0  0  0
  2 88  1  0  0  0
  3  4  1  0  0  0
  3 89  1  0  0  0
  3 90  1  0  0  0
  4  5  1  0  0  0
  4 91  1  0  0  0
  4 92  1  0  0  0
  5  6  1  0  0  0
  5 26  1  0  0  0
  5 93  1  0  0  0
  6 25  1  0  0  0
  6 94  1  0  0  0
  6 95  1  0  0  0
  7  8  2  0  0  0
  7 26  1  0  0  0
  7 29  1  0  0  0
  8  9  1  0  0  0
  8 22  1  0  0  0
  9 10  1  0  0  0
  9 27  2  0  0  0
 10 11  2  0  0  0
 10 15  1  0  0  0
 11 12  1  0  0  0
 11 96  1  0  0  0
 12 13  2  0  0  0
 12 97  1  0  0  0
 13 14  1  0  0  0
 13 31  1  0  0  0
 14 15  2  0  0  0
 14 98  1  0  0  0
 15 99  1  0  0  0
 16 17  2  0  0  0
 16 21  1  0  0  0
 16 31  1  0  0  0
 17 18  1  0  0  0
 17100  1  0  0  0
 18 19  2  0  0  0
 18101  1  0  0  0
 19 20  1  0  0  0
 19 24  1  0  0  0
 20 21  2  0  0  0
 20102  1  0  0  0
 21 23  1  0  0  0
 22 28  1  0  0  0
 22 32  2  0  0  0
 26 27  1  0  0  0
 28103  1  0  0  0
 28104  1  0  0  0
 29105  1  0  0  0
 29106  1  0  0  0
 33 34  1  0  0  0
 33 66  1  0  0  0
 33 70  2  0  0  0
 34 36  1  0  0  0
 34 59  1  0  0  0
 34107  1  0  0  0
 35 44  2  0  0  0
 35 45  1  0  0  0
 35 68  1  0  0  0
 36 56  1  0  0  0
 36108  1  0  0  0
 37 39  1  0  0  0
 37 47  1  0  0  0
 37 66  1  0  0  0
 37109  1  0  0  0
 38 43  2  0  0  0
 38 46  1  0  0  0
 38 47  1  0  0  0
 39 64  1  0  0  0
 39 67  2  0  0  0
 40 52  1  0  0  0
 40 53  2  0  0  0
 40 58  1  0  0  0
 41110  1  0  0  0
 41111  1  0  0  0
 41112  1  0  0  0
 41 48  1  0  0  0
 42 43  1  0  0  0
 42 66  1  0  0  0
 42113  1  0  0  0
 42114  1  0  0  0
 43 44  1  0  0  0
 44115  1  0  0  0
 45 46  2  0  0  0
 45116  1  0  0  0
 46117  1  0  0  0
 47118  1  0  0  0
 47119  1  0  0  0
 48 56  1  0  0  0
 48 65  1  0  0  0
 48120  1  0  0  0
 49 50  1  0  0  0
 49 53  1  0  0  0
 49 64  1  0  0  0
 49121  1  0  0  0
 50 51  1  0  0  0
 50122  1  0  0  0
 50123  1  0  0  0
 51 52  1  0  0  0
 51124  1  0  0  0
 51125  1  0  0  0
 52126  1  0  0  0
 52127  1  0  0  0
 53 54  1  0  0  0
 54 55  2  0  0  0
 54128  1  0  0  0
 55 57  1  0  0  0
 55129  1  0  0  0
 56 69  2  0  0  0
 57 58  2  0  0  0
 57130  1  0  0  0
 58131  1  0  0  0
 59 60  1  0  0  0
 59 61  1  0  0  0
 59 62  1  0  0  0
 60132  1  0  0  0
 60133  1  0  0  0
 60134  1  0  0  0
 61135  1  0  0  0
 61136  1  0  0  0
 61137  1  0  0  0
 62138  1  0  0  0
 62139  1  0  0  0
 62140  1  0  0  0
 63 65  1  0  0  0
 63141  1  0  0  0
 63142  1  0  0  0
 63143  1  0  0  0
 64144  1  0  0  0
 65145  1  0  0  0
 68 83  1  0  0  0
 71 72  1  0  0  0
 71 73  2  0  0  0
 71146  1  0  0  0
 72 74  2  0  0  0
 72147  1  0  0  0
 73 86  1  0  0  0
 73 78  1  0  0  0
 74 85  1  0  0  0
 74 86  1  0  0  0
 75 76  1  0  0  0
 75 78  1  0  0  0
 75148  1  0  0  0
 75149  1  0  0  0
 76150  1  0  0  0
 76151  1  0  0  0
 76 79  1  0  0  0
 77 78  1  0  0  0
 77 79  1  0  0  0
 77152  1  0  0  0
 77153  1  0  0  0
 78154  1  0  0  0
 79 84  1  0  0  0
 79155  1  0  0  0
 80156  1  0  0  0
 80157  1  0  0  0
 80158  1  0  0  0
 80 83  1  0  0  0
 81159  1  0  0  0
 81160  1  0  0  0
 81161  1  0  0  0
 81 84  1  0  0  0
 82 84  1  0  0  0
 82162  1  0  0  0
 82163  1  0  0  0
 82164  1  0  0  0
 83 84  1  0  0  0
 83165  1  0  0  0
 85166  1  0  0  0
M  ISO  4   1 100  68 101  83 101  85 100
M  END
> <chiral flag>
0

> <version>
0

> <s_m_source_file>
/data/baiqing/PycharmProjects/Reinvent-master-3.2/result/LINK_invent/BTK/process_docking_weight1_custom_product_contain_oxygen_bond_distance_aromatic_linkinvent_7_9_3/rearranged_h_0143.sdf

> <i_m_source_file_index>
29

> <r_mmod_Potential_Energy-OPLS-2005>
150.85139465332

> <r_mmod_Stretch_Energy-OPLS-2005>
67.9385299682617

> <r_mmod_Bend_Energy-OPLS-2005>
190.338912963867

> <r_mmod_Torsional_Energy-OPLS-2005>
333.500152587891

> <r_mmod_Improper_Torsional_Energy-OPLS-2005>
8.07150650024414

> <r_mmod_Van_der_Waal_Energy-OPLS-2005>
125.776496887207

> <r_mmod_Electrostatic_Energy-OPLS-2005>
-411.374877929688

> <r_mmod_Solvation_Energy-OPLS-2005>
-195.109176635742

> <b_mmod_Minimization_Converged-OPLS-2005>
0

> <r_mmod_RMS_Derivative-OPLS-2005>
0.272436618804932

$$$$
29
                    3D
 Structure written by MMmdl.
168177  0  0  1  0            999 V2000
  -30.7222  -14.4901   20.4417 C   0  0  0  0  0  0
  -30.4151  -12.2942   19.4418 C   0  0  0  0  0  0
  -29.5057  -12.4817   18.2107 C   0  0  0  0  0  0
  -28.0197  -12.3733   18.6068 C   0  0  0  0  0  0
  -27.6526  -13.2280   19.8528 C   0  0  2  0  0  0
  -28.7002  -13.0781   20.9795 C   0  0  0  0  0  0
  -25.2540  -13.8216   20.5660 C   0  0  0  0  0  0
  -24.1829  -13.0451   20.9182 C   0  0  0  0  0  0
  -24.6419  -11.6937   20.8710 C   0  0  0  0  0  0
  -23.9090  -10.4300   21.0352 C   0  0  0  0  0  0
  -24.3631   -9.4223   21.9137 C   0  0  0  0  0  0
  -23.6313   -8.2262   22.0735 C   0  0  0  0  0  0
  -22.4286   -8.0272   21.3533 C   0  0  0  0  0  0
  -21.9921   -9.0250   20.4643 C   0  0  0  0  0  0
  -22.7249  -10.2130   20.3040 C   0  0  0  0  0  0
  -21.6878   -6.0717   22.5262 C   0  0  0  0  0  0
  -21.4014   -6.5630   23.8197 C   0  0  0  0  0  0
  -21.3671   -5.6774   24.9154 C   0  0  0  0  0  0
  -21.6055   -4.3042   24.7202 C   0  0  0  0  0  0
  -21.8829   -3.8126   23.4316 C   0  0  0  0  0  0
  -21.9194   -4.6952   22.3383 C   0  0  0  0  0  0
  -22.7831  -13.5206   21.1802 C   0  0  0  0  0  0
  -22.1654   -4.2129   21.0957 F   0  0  0  0  0  0
  -21.5638   -3.4537   25.7716 F   0  0  0  0  0  0
  -30.0279  -13.3255   20.4084 N   0  0  0  0  0  0
  -26.2986  -12.9423   20.3259 N   0  0  0  0  0  0
  -25.9357  -11.6567   20.5737 N   0  0  0  0  0  0
  -22.0454  -12.8258   22.0389 N   0  0  0  0  0  0
  -25.4154  -15.1951   20.4069 N   0  0  0  0  0  0
  -31.9370  -14.5324   20.2537 O   0  0  0  0  0  0
  -21.6665   -6.8868   21.4226 O   0  0  0  0  0  0
  -22.3501  -14.5475   20.6595 O   0  0  0  0  0  0
  -24.6125  -31.8722   23.2130 C   0  0  0  0  0  0
  -25.9008  -32.4856   23.8436 C   0  0  1  0  0  0
  -27.2233  -27.4767   20.0803 C   0  0  0  0  0  0
  -25.5835  -33.8656   24.2355 N   0  0  0  0  0  0
  -23.4003  -30.4939   21.5553 C   0  0  2  0  0  0
  -24.8459  -28.9735   20.1086 C   0  0  0  0  0  0
  -22.7424  -29.4641   22.5022 C   0  0  0  0  0  0
  -18.0262  -28.1368   22.8505 C   0  0  0  0  0  0
  -24.1463  -36.7355   23.2645 C   0  0  0  0  0  0
  -25.9288  -30.8469   21.3676 C   0  0  0  0  0  0
  -26.0051  -29.4906   20.7022 C   0  0  0  0  0  0
  -27.2059  -28.7496   20.6811 C   0  0  0  0  0  0
  -26.0590  -26.9680   19.4722 C   0  0  0  0  0  0
  -24.8666  -27.7130   19.4863 C   0  0  0  0  0  0
  -23.6061  -29.8335   20.1673 C   0  0  0  0  0  0
  -25.4083  -36.3146   24.0354 C   0  0  1  0  0  0
  -20.5863  -28.3631   23.1350 C   0  0  2  0  0  0
  -20.6759  -26.9373   22.5433 C   0  0  0  0  0  0
  -19.5726  -26.6385   21.5222 C   0  0  0  0  0  0
  -18.1903  -26.7921   22.1630 C   0  0  0  0  0  0
  -19.1521  -28.8809   23.2926 C   0  0  0  0  0  0
  -18.9447  -30.1417   23.8934 C   0  0  0  0  0  0
  -17.6455  -30.6579   24.0562 C   0  0  0  0  0  0
  -25.9014  -34.9498   23.5167 C   0  0  0  0  0  0
  -16.5338  -29.9094   23.6326 C   0  0  0  0  0  0
  -16.7260  -28.6505   23.0362 C   0  0  0  0  0  0
  -26.4446  -31.6638   25.0767 C   0  0  0  0  0  0
  -25.3703  -31.3760   26.1522 C   0  0  0  0  0  0
  -27.0288  -30.3078   24.6154 C   0  0  0  0  0  0
  -27.6049  -32.4361   25.7488 C   0  0  0  0  0  0
  -27.5580  -37.1823   24.8453 C   0  0  0  0  0  0
  -21.4147  -29.3009   22.3774 N   0  0  0  0  0  0
  -26.4276  -37.3823   23.9413 N   0  0  0  0  0  0
  -24.6642  -31.0838   22.1034 N   0  0  0  0  0  0
  -23.4206  -28.8174   23.3045 O   0  0  0  0  0  0
  -28.3466  -26.7008   20.1314 O   0  0  0  0  0  0
  -26.5623  -34.8935   22.4751 O   0  0  0  0  0  0
  -23.5321  -32.1461   23.7532 O   0  0  0  0  0  0
  -31.6342  -18.1241   18.0841 C   0  0  0  0  0  0
  -30.8263  -19.2469   18.2965 C   0  0  0  0  0  0
  -31.3599  -16.9255   18.7652 C   0  0  0  0  0  0
  -29.4794  -17.9772   19.8997 C   0  0  0  0  0  0
  -29.7487  -19.1775   19.1950 C   0  0  0  0  0  0
  -30.2908  -16.8312   19.6997 C   0  0  0  0  0  0
  -28.8726  -23.2422   21.4238 C   0  0  0  0  0  0
  -28.2715  -20.8366   20.6850 C   0  0  0  0  0  0
  -29.5752  -21.7887   19.3750 C   0  0  0  0  0  0
  -28.8926  -20.4156   19.3531 C   0  0  1  0  0  0
  -28.4384  -22.3270   20.2660 C   0  0  2  0  0  0
  -27.2127  -22.8981   19.5380 C   0  0  0  0  0  0
  -30.3482  -25.1304   22.3133 C   0  0  0  0  0  0
  -30.2514  -24.7910   19.8548 C   0  0  0  0  0  0
  -28.2258  -25.6977   21.1432 C   0  0  0  0  0  0
  -29.4117  -24.6924   21.1553 C   0  0  0  0  0  0
  -29.9766  -15.6168   20.4060 N   0  0  0  0  0  0
  -28.7866  -22.8811   22.6016 O   0  0  0  0  0  0
  -31.4659  -12.3631   19.1521 H   0  0  0  0  0  0
  -30.2877  -11.3051   19.8802 H   0  0  0  0  0  0
  -29.7524  -11.7362   17.4524 H   0  0  0  0  0  0
  -29.7011  -13.4554   17.7540 H   0  0  0  0  0  0
  -27.8033  -11.3221   18.7931 H   0  0  0  0  0  0
  -27.3951  -12.6609   17.7590 H   0  0  0  0  0  0
  -27.6712  -14.2679   19.5252 H   0  0  0  0  0  0
  -28.6761  -12.0747   21.4041 H   0  0  0  0  0  0
  -28.4924  -13.7667   21.7995 H   0  0  0  0  0  0
  -25.2767   -9.5720   22.4706 H   0  0  0  0  0  0
  -24.0015   -7.4672   22.7483 H   0  0  0  0  0  0
  -21.0821   -8.8771   19.8973 H   0  0  0  0  0  0
  -22.3668  -10.9655   19.6152 H   0  0  0  0  0  0
  -21.2016   -7.6136   23.9698 H   0  0  0  0  0  0
  -21.1483   -6.0494   25.9059 H   0  0  0  0  0  0
  -22.0602   -2.7588   23.2828 H   0  0  0  0  0  0
  -22.4059  -11.9983   22.4898 H   0  0  0  0  0  0
  -21.1039  -13.1244   22.2490 H   0  0  0  0  0  0
  -24.6364  -15.8348   20.5166 H   0  0  0  0  0  0
  -26.2572  -15.6454   20.0713 H   0  0  0  0  0  0
  -26.7087  -32.5586   23.1216 H   0  0  0  0  0  0
  -24.9836  -33.9818   25.0399 H   0  0  0  0  0  0
  -22.6869  -31.3084   21.4215 H   0  0  0  0  0  0
  -23.3726  -35.9688   23.3312 H   0  0  0  0  0  0
  -24.3544  -36.8982   22.2060 H   0  0  0  0  0  0
  -23.7209  -37.6556   23.6668 H   0  0  0  0  0  0
  -26.0512  -31.6191   20.6067 H   0  0  0  0  0  0
  -26.8145  -30.8901   21.9919 H   0  0  0  0  0  0
  -28.1060  -29.1369   21.1397 H   0  0  0  0  0  0
  -26.0733  -25.9962   19.0007 H   0  0  0  0  0  0
  -23.9784  -27.3125   19.0162 H   0  0  0  0  0  0
  -23.7125  -30.6134   19.4121 H   0  0  0  0  0  0
  -22.7324  -29.2506   19.8693 H   0  0  0  0  0  0
  -25.1248  -36.2049   25.0857 H   0  0  0  0  0  0
  -20.9951  -28.3180   24.1471 H   0  0  0  0  0  0
  -20.5669  -26.2224   23.3611 H   0  0  0  0  0  0
  -21.6624  -26.7432   22.1199 H   0  0  0  0  0  0
  -19.6872  -25.6312   21.1205 H   0  0  0  0  0  0
  -19.6662  -27.3241   20.6792 H   0  0  0  0  0  0
  -17.4187  -26.6696   21.4025 H   0  0  0  0  0  0
  -18.0275  -26.0048   22.9007 H   0  0  0  0  0  0
  -19.7927  -30.7208   24.2345 H   0  0  0  0  0  0
  -17.5017  -31.6262   24.5149 H   0  0  0  0  0  0
  -15.5344  -30.3009   23.7615 H   0  0  0  0  0  0
  -15.8661  -28.0820   22.7087 H   0  0  0  0  0  0
  -24.5799  -30.7213   25.7839 H   0  0  0  0  0  0
  -24.8983  -32.2935   26.5057 H   0  0  0  0  0  0
  -25.8010  -30.8825   27.0242 H   0  0  0  0  0  0
  -26.2850  -29.6839   24.1184 H   0  0  0  0  0  0
  -27.4033  -29.7322   25.4633 H   0  0  0  0  0  0
  -27.8700  -30.4410   23.9341 H   0  0  0  0  0  0
  -27.2681  -33.3637   26.2134 H   0  0  0  0  0  0
  -28.3786  -32.6978   25.0255 H   0  0  0  0  0  0
  -28.0808  -31.8464   26.5333 H   0  0  0  0  0  0
  -28.2599  -38.0120   24.7516 H   0  0  0  0  0  0
  -28.1073  -36.2659   24.6253 H   0  0  0  0  0  0
  -27.2309  -37.1465   25.8857 H   0  0  0  0  0  0
  -20.9312  -29.8769   21.7029 H   0  0  0  0  0  0
  -26.0193  -38.2915   24.1410 H   0  0  0  0  0  0
  -32.4573  -18.1840   17.3861 H   0  0  0  0  0  0
  -31.0304  -20.1634   17.7560 H   0  0  0  0  0  0
  -31.9952  -16.0849   18.5289 H   0  0  0  0  0  0
  -28.6470  -17.9451   20.5863 H   0  0  0  0  0  0
  -28.8971  -20.5364   21.5294 H   0  0  0  0  0  0
  -27.2439  -20.4983   20.8207 H   0  0  0  0  0  0
  -29.6784  -22.2522   18.3926 H   0  0  0  0  0  0
  -30.5370  -21.7516   19.8884 H   0  0  0  0  0  0
  -28.1320  -20.3899   18.5693 H   0  0  0  0  0  0
  -27.3262  -23.9451   19.2678 H   0  0  0  0  0  0
  -26.3130  -22.7879   20.1446 H   0  0  0  0  0  0
  -27.0202  -22.3764   18.5980 H   0  0  0  0  0  0
  -31.2447  -24.5131   22.3702 H   0  0  0  0  0  0
  -29.8538  -25.0814   23.2854 H   0  0  0  0  0  0
  -30.6679  -26.1657   22.1852 H   0  0  0  0  0  0
  -31.0938  -24.1003   19.8626 H   0  0  0  0  0  0
  -30.6852  -25.7865   19.7428 H   0  0  0  0  0  0
  -29.6646  -24.6056   18.9558 H   0  0  0  0  0  0
  -28.1673  -26.2190   22.1030 H   0  0  0  0  0  0
  -27.2651  -25.1873   21.0716 H   0  0  0  0  0  0
  -29.0257  -15.5229   20.7261 H   0  0  0  0  0  0
  1 25  1  0  0  0
  1 30  2  0  0  0
  1 87  1  0  0  0
  2  3  1  0  0  0
  2 25  1  0  0  0
  2 89  1  0  0  0
  2 90  1  0  0  0
  3  4  1  0  0  0
  3 91  1  0  0  0
  3 92  1  0  0  0
  4  5  1  0  0  0
  4 93  1  0  0  0
  4 94  1  0  0  0
  5  6  1  0  0  0
  5 26  1  0  0  0
  5 95  1  0  0  0
  6 25  1  0  0  0
  6 96  1  0  0  0
  6 97  1  0  0  0
  7  8  2  0  0  0
  7 26  1  0  0  0
  7 29  1  0  0  0
  8  9  1  0  0  0
  8 22  1  0  0  0
  9 10  1  0  0  0
  9 27  2  0  0  0
 10 11  2  0  0  0
 10 15  1  0  0  0
 11 12  1  0  0  0
 11 98  1  0  0  0
 12 13  2  0  0  0
 12 99  1  0  0  0
 13 14  1  0  0  0
 13 31  1  0  0  0
 14 15  2  0  0  0
 14100  1  0  0  0
 15101  1  0  0  0
 16 17  2  0  0  0
 16 21  1  0  0  0
 16 31  1  0  0  0
 17 18  1  0  0  0
 17102  1  0  0  0
 18 19  2  0  0  0
 18103  1  0  0  0
 19 20  1  0  0  0
 19 24  1  0  0  0
 20 21  2  0  0  0
 20104  1  0  0  0
 21 23  1  0  0  0
 22 28  1  0  0  0
 22 32  2  0  0  0
 26 27  1  0  0  0
 28105  1  0  0  0
 28106  1  0  0  0
 29107  1  0  0  0
 29108  1  0  0  0
 33 34  1  0  0  0
 33 66  1  0  0  0
 33 70  2  0  0  0
 34 36  1  0  0  0
 34 59  1  0  0  0
 34109  1  0  0  0
 35 44  2  0  0  0
 35 45  1  0  0  0
 35 68  1  0  0  0
 36 56  1  0  0  0
 36110  1  0  0  0
 37 39  1  0  0  0
 37 47  1  0  0  0
 37 66  1  0  0  0
 37111  1  0  0  0
 38 43  2  0  0  0
 38 46  1  0  0  0
 38 47  1  0  0  0
 39 64  1  0  0  0
 39 67  2  0  0  0
 40 52  1  0  0  0
 40 53  2  0  0  0
 40 58  1  0  0  0
 41112  1  0  0  0
 41113  1  0  0  0
 41114  1  0  0  0
 41 48  1  0  0  0
 42 43  1  0  0  0
 42 66  1  0  0  0
 42115  1  0  0  0
 42116  1  0  0  0
 43 44  1  0  0  0
 44117  1  0  0  0
 45 46  2  0  0  0
 45118  1  0  0  0
 46119  1  0  0  0
 47120  1  0  0  0
 47121  1  0  0  0
 48 56  1  0  0  0
 48 65  1  0  0  0
 48122  1  0  0  0
 49 50  1  0  0  0
 49 53  1  0  0  0
 49 64  1  0  0  0
 49123  1  0  0  0
 50 51  1  0  0  0
 50124  1  0  0  0
 50125  1  0  0  0
 51 52  1  0  0  0
 51126  1  0  0  0
 51127  1  0  0  0
 52128  1  0  0  0
 52129  1  0  0  0
 53 54  1  0  0  0
 54 55  2  0  0  0
 54130  1  0  0  0
 55 57  1  0  0  0
 55131  1  0  0  0
 56 69  2  0  0  0
 57 58  2  0  0  0
 57132  1  0  0  0
 58133  1  0  0  0
 59 60  1  0  0  0
 59 61  1  0  0  0
 59 62  1  0  0  0
 60134  1  0  0  0
 60135  1  0  0  0
 60136  1  0  0  0
 61137  1  0  0  0
 61138  1  0  0  0
 61139  1  0  0  0
 62140  1  0  0  0
 62141  1  0  0  0
 62142  1  0  0  0
 63 65  1  0  0  0
 63143  1  0  0  0
 63144  1  0  0  0
 63145  1  0  0  0
 64146  1  0  0  0
 65147  1  0  0  0
 68 85  1  0  0  0
 71 72  2  0  0  0
 71 73  1  0  0  0
 71148  1  0  0  0
 72 75  1  0  0  0
 72149  1  0  0  0
 73 76  2  0  0  0
 73150  1  0  0  0
 74 75  2  0  0  0
 74 76  1  0  0  0
 74151  1  0  0  0
 75 80  1  0  0  0
 76 87  1  0  0  0
 77 86  1  0  0  0
 77 88  2  0  0  0
 77 81  1  0  0  0
 78 80  1  0  0  0
 78 81  1  0  0  0
 78152  1  0  0  0
 78153  1  0  0  0
 79 80  1  0  0  0
 79 81  1  0  0  0
 79154  1  0  0  0
 79155  1  0  0  0
 80156  1  0  0  0
 81 82  1  0  0  0
 82157  1  0  0  0
 82158  1  0  0  0
 82159  1  0  0  0
 83160  1  0  0  0
 83161  1  0  0  0
 83162  1  0  0  0
 83 86  1  0  0  0
 84 86  1  0  0  0
 84163  1  0  0  0
 84164  1  0  0  0
 84165  1  0  0  0
 85 86  1  0  0  0
 85166  1  0  0  0
 85167  1  0  0  0
 87168  1  0  0  0
M  ISO  4   1 100  68 101  85 101  87 100
M  END
> <chiral flag>
0

> <version>
0

> <s_m_source_file>
/data/baiqing/PycharmProjects/Reinvent-master-3.2/result/LINK_invent/BTK/process_docking_weight1_custom_product_contain_oxygen_bond_distance_aromatic_linkinvent_7_9_3/rearranged_h_0143.sdf

> <i_m_source_file_index>
30

> <r_mmod_Potential_Energy-OPLS-2005>
98.3301391601562

> <r_mmod_Stretch_Energy-OPLS-2005>
41.7028694152832

> <r_mmod_Bend_Energy-OPLS-2005>
120.242645263672

> <r_mmod_Torsional_Energy-OPLS-2005>
303.719909667969

> <r_mmod_Improper_Torsional_Energy-OPLS-2005>
7.64040851593018

> <r_mmod_Van_der_Waal_Energy-OPLS-2005>
173.796081542969

> <r_mmod_Electrostatic_Energy-OPLS-2005>
-370.567535400391

> <r_mmod_Solvation_Energy-OPLS-2005>
-206.272384643555

> <b_mmod_Minimization_Converged-OPLS-2005>
0

> <r_mmod_RMS_Derivative-OPLS-2005>
4.49465560913086

$$$$
30
                    3D
 Structure written by MMmdl.
166175  0  0  1  0            999 V2000
  -30.7859  -14.3338   20.7487 C   0  0  0  0  0  0
  -30.4129  -12.2967   19.3954 C   0  0  0  0  0  0
  -29.4808  -12.5374   18.1941 C   0  0  0  0  0  0
  -28.0090  -12.3785   18.6138 C   0  0  0  0  0  0
  -27.6623  -13.2046   19.8786 C   0  0  2  0  0  0
  -28.6950  -12.9471   20.9982 C   0  0  0  0  0  0
  -25.2550  -13.8141   20.5657 C   0  0  0  0  0  0
  -24.1801  -13.0433   20.9148 C   0  0  0  0  0  0
  -24.6365  -11.6895   20.8723 C   0  0  0  0  0  0
  -23.9045  -10.4273   21.0397 C   0  0  0  0  0  0
  -24.3590   -9.4191   21.9186 C   0  0  0  0  0  0
  -23.6261   -8.2235   22.0751 C   0  0  0  0  0  0
  -22.4253   -8.0272   21.3534 C   0  0  0  0  0  0
  -21.9899   -9.0246   20.4636 C   0  0  0  0  0  0
  -22.7227  -10.2122   20.3043 C   0  0  0  0  0  0
  -21.6858   -6.0714   22.5260 C   0  0  0  0  0  0
  -21.4020   -6.5615   23.8198 C   0  0  0  0  0  0
  -21.3658   -5.6773   24.9155 C   0  0  0  0  0  0
  -21.6049   -4.3035   24.7216 C   0  0  0  0  0  0
  -21.8823   -3.8123   23.4337 C   0  0  0  0  0  0
  -21.9184   -4.6934   22.3391 C   0  0  0  0  0  0
  -22.7827  -13.5221   21.1840 C   0  0  0  0  0  0
  -22.1657   -4.2115   21.0974 F   0  0  0  0  0  0
  -21.5636   -3.4529   25.7737 F   0  0  0  0  0  0
  -30.0472  -13.2281   20.4741 N   0  0  0  0  0  0
  -26.2995  -12.9319   20.3340 N   0  0  0  0  0  0
  -25.9282  -11.6477   20.5730 N   0  0  0  0  0  0
  -22.0486  -12.8197   22.0390 N   0  0  0  0  0  0
  -25.4304  -15.1863   20.4074 N   0  0  0  0  0  0
  -31.7614  -14.6677   20.0648 O   0  0  0  0  0  0
  -21.6622   -6.8862   21.4227 O   0  0  0  0  0  0
  -22.3524  -14.5548   20.6696 O   0  0  0  0  0  0
  -24.6100  -31.8707   23.2133 C   0  0  0  0  0  0
  -25.9023  -32.4828   23.8401 C   0  0  1  0  0  0
  -27.2507  -27.4697   20.1174 C   0  0  0  0  0  0
  -25.5915  -33.8622   24.2373 N   0  0  0  0  0  0
  -23.3943  -30.4942   21.5523 C   0  0  2  0  0  0
  -24.8442  -28.9598   20.1210 C   0  0  0  0  0  0
  -22.7389  -29.4695   22.5026 C   0  0  0  0  0  0
  -18.0282  -28.1391   22.8515 C   0  0  0  0  0  0
  -24.1503  -36.7285   23.2644 C   0  0  0  0  0  0
  -25.9156  -30.8523   21.3560 C   0  0  0  0  0  0
  -25.9955  -29.4832   20.7189 C   0  0  0  0  0  0
  -27.1955  -28.7458   20.7267 C   0  0  0  0  0  0
  -26.0843  -26.9572   19.5128 C   0  0  0  0  0  0
  -24.8797  -27.6893   19.5200 C   0  0  0  0  0  0
  -23.5999  -29.8169   20.1699 C   0  0  0  0  0  0
  -25.4123  -36.3113   24.0355 C   0  0  1  0  0  0
  -20.5880  -28.3698   23.1356 C   0  0  2  0  0  0
  -20.6789  -26.9432   22.5447 C   0  0  0  0  0  0
  -19.5769  -26.6415   21.5230 C   0  0  0  0  0  0
  -18.1930  -26.7945   22.1633 C   0  0  0  0  0  0
  -19.1528  -28.8856   23.2932 C   0  0  0  0  0  0
  -18.9460  -30.1456   23.8944 C   0  0  0  0  0  0
  -17.6471  -30.6606   24.0589 C   0  0  0  0  0  0
  -25.9034  -34.9478   23.5147 C   0  0  0  0  0  0
  -16.5362  -29.9118   23.6328 C   0  0  0  0  0  0
  -16.7276  -28.6520   23.0375 C   0  0  0  0  0  0
  -26.4495  -31.6563   25.0673 C   0  0  0  0  0  0
  -25.3769  -31.3558   26.1399 C   0  0  0  0  0  0
  -27.0415  -30.3078   24.5922 C   0  0  0  0  0  0
  -27.6081  -32.4263   25.7462 C   0  0  0  0  0  0
  -27.5595  -37.1800   24.8475 C   0  0  0  0  0  0
  -21.4134  -29.3047   22.3751 N   0  0  0  0  0  0
  -26.4316  -37.3788   23.9408 N   0  0  0  0  0  0
  -24.6577  -31.0871   22.1000 N   0  0  0  0  0  0
  -23.4186  -28.8224   23.3040 O   0  0  0  0  0  0
  -28.3866  -26.6924   20.0572 O   0  0  0  0  0  0
  -26.5577  -34.8923   22.4695 O   0  0  0  0  0  0
  -23.5310  -32.1438   23.7557 O   0  0  0  0  0  0
  -29.9017  -21.8186   23.5533 C   0  0  0  0  0  0
  -32.4397  -17.7537   22.9903 C   0  0  0  0  0  0
  -29.6846  -21.8500   21.2173 C   0  0  0  0  0  0
  -29.4247  -22.4977   22.3925 C   0  0  0  0  0  0
  -30.5750  -20.6554   23.2518 C   0  0  0  0  0  0
  -31.3242  -18.3116   23.5724 C   0  0  0  0  0  0
  -30.9199  -16.1670   22.4281 C   0  0  0  0  0  0
  -29.5032  -24.7475   22.4480 C   0  0  0  0  0  0
  -29.4981  -26.9842   23.6160 C   0  0  0  0  0  0
  -30.4702  -19.5758   25.5653 C   0  0  0  0  0  0
  -32.8390  -21.3270   25.0582 C   0  0  0  0  0  0
  -29.3930  -26.8546   21.0602 C   0  0  0  0  0  0
  -28.9949  -26.1821   22.4010 C   0  0  1  0  0  0
  -31.2121  -19.6727   24.2163 C   0  0  2  0  0  0
  -32.2022  -16.5355   22.3445 N   0  0  0  0  0  0
  -28.7561  -23.7169   22.4343 N   0  0  0  0  0  0
  -30.4084  -14.9752   21.8665 N   0  0  0  0  0  0
  -32.5737  -20.0786   24.4203 O   0  0  0  0  0  0
  -30.5980  -20.4009   21.5112 S   0  0  0  0  0  0
  -29.9286  -17.2700   23.3665 S   0  0  0  0  0  0
  -31.4569  -12.3975   19.0921 H   0  0  0  0  0  0
  -30.3094  -11.2727   19.7578 H   0  0  0  0  0  0
  -29.7146  -11.8385   17.3904 H   0  0  0  0  0  0
  -29.6473  -13.5374   17.7910 H   0  0  0  0  0  0
  -27.8366  -11.3201   18.8082 H   0  0  0  0  0  0
  -27.3477  -12.6518   17.7906 H   0  0  0  0  0  0
  -27.7187  -14.2580   19.6039 H   0  0  0  0  0  0
  -28.6477  -11.9056   21.3175 H   0  0  0  0  0  0
  -28.4264  -13.5309   21.8797 H   0  0  0  0  0  0
  -25.2738   -9.5658   22.4763 H   0  0  0  0  0  0
  -23.9958   -7.4621   22.7484 H   0  0  0  0  0  0
  -21.0831   -8.8760   19.8944 H   0  0  0  0  0  0
  -22.3690  -10.9649   19.6132 H   0  0  0  0  0  0
  -21.2040   -7.6134   23.9690 H   0  0  0  0  0  0
  -21.1487   -6.0511   25.9064 H   0  0  0  0  0  0
  -22.0616   -2.7585   23.2850 H   0  0  0  0  0  0
  -22.4139  -11.9840   22.4726 H   0  0  0  0  0  0
  -21.1100  -13.1180   22.2628 H   0  0  0  0  0  0
  -24.6713  -15.8496   20.5235 H   0  0  0  0  0  0
  -26.2927  -15.6171   20.1002 H   0  0  0  0  0  0
  -26.7104  -32.5617   23.1191 H   0  0  0  0  0  0
  -25.0197  -33.9775   25.0612 H   0  0  0  0  0  0
  -22.6826  -31.3113   21.4113 H   0  0  0  0  0  0
  -23.3782  -35.9590   23.3301 H   0  0  0  0  0  0
  -24.3601  -36.8867   22.2049 H   0  0  0  0  0  0
  -23.7214  -37.6475   23.6661 H   0  0  0  0  0  0
  -26.0022  -31.6059   20.5714 H   0  0  0  0  0  0
  -26.8132  -30.9274   21.9583 H   0  0  0  0  0  0
  -28.0625  -29.1827   21.1994 H   0  0  0  0  0  0
  -26.1121  -25.9790   19.0543 H   0  0  0  0  0  0
  -23.9895  -27.2779   19.0638 H   0  0  0  0  0  0
  -23.6971  -30.5897   19.4073 H   0  0  0  0  0  0
  -22.7274  -29.2231   19.8843 H   0  0  0  0  0  0
  -25.1268  -36.2004   25.0839 H   0  0  0  0  0  0
  -21.0000  -28.3324   24.1471 H   0  0  0  0  0  0
  -20.5780  -26.2272   23.3628 H   0  0  0  0  0  0
  -21.6647  -26.7548   22.1175 H   0  0  0  0  0  0
  -19.6952  -25.6332   21.1254 H   0  0  0  0  0  0
  -19.6717  -27.3242   20.6772 H   0  0  0  0  0  0
  -17.4208  -26.6750   21.4025 H   0  0  0  0  0  0
  -18.0280  -26.0053   22.8985 H   0  0  0  0  0  0
  -19.7939  -30.7246   24.2369 H   0  0  0  0  0  0
  -17.5026  -31.6290   24.5198 H   0  0  0  0  0  0
  -15.5372  -30.3057   23.7590 H   0  0  0  0  0  0
  -15.8670  -28.0863   22.7113 H   0  0  0  0  0  0
  -24.6065  -30.6794   25.7695 H   0  0  0  0  0  0
  -24.8829  -32.2659   26.4814 H   0  0  0  0  0  0
  -25.8123  -30.8791   27.0192 H   0  0  0  0  0  0
  -26.2972  -29.6716   24.1131 H   0  0  0  0  0  0
  -27.4508  -29.7364   25.4269 H   0  0  0  0  0  0
  -27.8625  -30.4513   23.8877 H   0  0  0  0  0  0
  -27.2752  -33.3584   26.2048 H   0  0  0  0  0  0
  -28.3927  -32.6741   25.0296 H   0  0  0  0  0  0
  -28.0722  -31.8350   26.5363 H   0  0  0  0  0  0
  -28.2614  -38.0108   24.7586 H   0  0  0  0  0  0
  -28.1099  -36.2634   24.6278 H   0  0  0  0  0  0
  -27.2309  -37.1427   25.8879 H   0  0  0  0  0  0
  -20.9309  -29.8662   21.6878 H   0  0  0  0  0  0
  -26.0217  -38.2870   24.1408 H   0  0  0  0  0  0
  -29.7460  -22.2036   24.5509 H   0  0  0  0  0  0
  -33.4335  -18.1777   22.9565 H   0  0  0  0  0  0
  -29.4178  -22.1329   20.2055 H   0  0  0  0  0  0
  -30.5953  -24.6695   22.4775 H   0  0  0  0  0  0
  -29.2740  -26.4770   24.5550 H   0  0  0  0  0  0
  -29.0163  -27.9597   23.6606 H   0  0  0  0  0  0
  -30.5758  -27.1506   23.5712 H   0  0  0  0  0  0
  -29.4511  -19.2135   25.4312 H   0  0  0  0  0  0
  -30.3926  -20.5387   26.0679 H   0  0  0  0  0  0
  -30.9798  -18.8916   26.2440 H   0  0  0  0  0  0
  -33.9160  -21.4899   25.0652 H   0  0  0  0  0  0
  -32.5056  -21.3431   26.0959 H   0  0  0  0  0  0
  -32.3983  -22.1740   24.5342 H   0  0  0  0  0  0
  -30.3101  -26.4070   20.6729 H   0  0  0  0  0  0
  -29.6721  -27.8964   21.2009 H   0  0  0  0  0  0
  -27.9081  -26.1625   22.4845 H   0  0  0  0  0  0
  -29.5843  -14.6014   22.3102 H   0  0  0  0  0  0
  1 25  1  0  0  0
  1 30  2  0  0  0
  1 87  1  0  0  0
  2  3  1  0  0  0
  2 25  1  0  0  0
  2 91  1  0  0  0
  2 92  1  0  0  0
  3  4  1  0  0  0
  3 93  1  0  0  0
  3 94  1  0  0  0
  4  5  1  0  0  0
  4 95  1  0  0  0
  4 96  1  0  0  0
  5  6  1  0  0  0
  5 26  1  0  0  0
  5 97  1  0  0  0
  6 25  1  0  0  0
  6 98  1  0  0  0
  6 99  1  0  0  0
  7  8  2  0  0  0
  7 26  1  0  0  0
  7 29  1  0  0  0
  8  9  1  0  0  0
  8 22  1  0  0  0
  9 10  1  0  0  0
  9 27  2  0  0  0
 10 11  2  0  0  0
 10 15  1  0  0  0
 11 12  1  0  0  0
 11100  1  0  0  0
 12 13  2  0  0  0
 12101  1  0  0  0
 13 14  1  0  0  0
 13 31  1  0  0  0
 14 15  2  0  0  0
 14102  1  0  0  0
 15103  1  0  0  0
 16 17  2  0  0  0
 16 21  1  0  0  0
 16 31  1  0  0  0
 17 18  1  0  0  0
 17104  1  0  0  0
 18 19  2  0  0  0
 18105  1  0  0  0
 19 20  1  0  0  0
 19 24  1  0  0  0
 20 21  2  0  0  0
 20106  1  0  0  0
 21 23  1  0  0  0
 22 28  1  0  0  0
 22 32  2  0  0  0
 26 27  1  0  0  0
 28107  1  0  0  0
 28108  1  0  0  0
 29109  1  0  0  0
 29110  1  0  0  0
 33 34  1  0  0  0
 33 66  1  0  0  0
 33 70  2  0  0  0
 34 36  1  0  0  0
 34 59  1  0  0  0
 34111  1  0  0  0
 35 44  2  0  0  0
 35 45  1  0  0  0
 35 68  1  0  0  0
 36 56  1  0  0  0
 36112  1  0  0  0
 37 39  1  0  0  0
 37 47  1  0  0  0
 37 66  1  0  0  0
 37113  1  0  0  0
 38 43  2  0  0  0
 38 46  1  0  0  0
 38 47  1  0  0  0
 39 64  1  0  0  0
 39 67  2  0  0  0
 40 52  1  0  0  0
 40 53  2  0  0  0
 40 58  1  0  0  0
 41114  1  0  0  0
 41115  1  0  0  0
 41116  1  0  0  0
 41 48  1  0  0  0
 42 43  1  0  0  0
 42 66  1  0  0  0
 42117  1  0  0  0
 42118  1  0  0  0
 43 44  1  0  0  0
 44119  1  0  0  0
 45 46  2  0  0  0
 45120  1  0  0  0
 46121  1  0  0  0
 47122  1  0  0  0
 47123  1  0  0  0
 48 56  1  0  0  0
 48 65  1  0  0  0
 48124  1  0  0  0
 49 50  1  0  0  0
 49 53  1  0  0  0
 49 64  1  0  0  0
 49125  1  0  0  0
 50 51  1  0  0  0
 50126  1  0  0  0
 50127  1  0  0  0
 51 52  1  0  0  0
 51128  1  0  0  0
 51129  1  0  0  0
 52130  1  0  0  0
 52131  1  0  0  0
 53 54  1  0  0  0
 54 55  2  0  0  0
 54132  1  0  0  0
 55 57  1  0  0  0
 55133  1  0  0  0
 56 69  2  0  0  0
 57 58  2  0  0  0
 57134  1  0  0  0
 58135  1  0  0  0
 59 60  1  0  0  0
 59 61  1  0  0  0
 59 62  1  0  0  0
 60136  1  0  0  0
 60137  1  0  0  0
 60138  1  0  0  0
 61139  1  0  0  0
 61140  1  0  0  0
 61141  1  0  0  0
 62142  1  0  0  0
 62143  1  0  0  0
 62144  1  0  0  0
 63 65  1  0  0  0
 63145  1  0  0  0
 63146  1  0  0  0
 63147  1  0  0  0
 64148  1  0  0  0
 65149  1  0  0  0
 68 82  1  0  0  0
 71 74  1  0  0  0
 71 75  2  0  0  0
 71150  1  0  0  0
 72 76  2  0  0  0
 72 85  1  0  0  0
 72151  1  0  0  0
 73 74  2  0  0  0
 73 89  1  0  0  0
 73152  1  0  0  0
 74 86  1  0  0  0
 75 84  1  0  0  0
 75 89  1  0  0  0
 76 84  1  0  0  0
 76 90  1  0  0  0
 77 85  2  0  0  0
 77 87  1  0  0  0
 77 90  1  0  0  0
 78 83  1  0  0  0
 78 86  2  0  0  0
 78153  1  0  0  0
 79154  1  0  0  0
 79155  1  0  0  0
 79156  1  0  0  0
 79 83  1  0  0  0
 80157  1  0  0  0
 80158  1  0  0  0
 80159  1  0  0  0
 80 84  1  0  0  0
 81 88  1  0  0  0
 81160  1  0  0  0
 81161  1  0  0  0
 81162  1  0  0  0
 82 83  1  0  0  0
 82163  1  0  0  0
 82164  1  0  0  0
 83165  1  0  0  0
 84 88  1  0  0  0
 87166  1  0  0  0
M  ISO  4   1 100  68 101  82 101  87 100
M  END
> <chiral flag>
0

> <version>
0

> <s_m_source_file>
/data/baiqing/PycharmProjects/Reinvent-master-3.2/result/LINK_invent/BTK/process_docking_weight1_custom_product_contain_oxygen_bond_distance_aromatic_linkinvent_7_9_3/rearranged_h_0143.sdf

> <i_m_source_file_index>
31

> <r_mmod_Potential_Energy-OPLS-2005>
-170.693145751953

> <r_mmod_Stretch_Energy-OPLS-2005>
34.6354560852051

> <r_mmod_Bend_Energy-OPLS-2005>
110.933242797852

> <r_mmod_Torsional_Energy-OPLS-2005>
223.943099975586

> <r_mmod_Improper_Torsional_Energy-OPLS-2005>
2.37348556518555

> <r_mmod_Van_der_Waal_Energy-OPLS-2005>
141.737365722656

> <r_mmod_Electrostatic_Energy-OPLS-2005>
-450.697937011719

> <r_mmod_Solvation_Energy-OPLS-2005>
-240.170791625977

> <b_mmod_Minimization_Converged-OPLS-2005>
0

> <r_mmod_RMS_Derivative-OPLS-2005>
4.14414930343628

$$$$
31
                    3D
 Structure written by MMmdl.
169179  0  0  1  0            999 V2000
  -30.7331  -14.4466   20.4382 C   0  0  0  0  0  0
  -30.4043  -12.2639   19.4148 C   0  0  0  0  0  0
  -29.4701  -12.4291   18.1972 C   0  0  0  0  0  0
  -27.9926  -12.3419   18.6173 C   0  0  0  0  0  0
  -27.6518  -13.2095   19.8581 C   0  0  2  0  0  0
  -28.7057  -13.0496   20.9785 C   0  0  0  0  0  0
  -25.2562  -13.8186   20.5694 C   0  0  0  0  0  0
  -24.1822  -13.0452   20.9210 C   0  0  0  0  0  0
  -24.6377  -11.6923   20.8772 C   0  0  0  0  0  0
  -23.9045  -10.4310   21.0426 C   0  0  0  0  0  0
  -24.3605   -9.4220   21.9199 C   0  0  0  0  0  0
  -23.6305   -8.2235   22.0744 C   0  0  0  0  0  0
  -22.4284   -8.0277   21.3531 C   0  0  0  0  0  0
  -21.9915   -9.0251   20.4627 C   0  0  0  0  0  0
  -22.7225  -10.2146   20.3060 C   0  0  0  0  0  0
  -21.6846   -6.0740   22.5280 C   0  0  0  0  0  0
  -21.4005   -6.5640   23.8218 C   0  0  0  0  0  0
  -21.3665   -5.6787   24.9178 C   0  0  0  0  0  0
  -21.6050   -4.3051   24.7220 C   0  0  0  0  0  0
  -21.8820   -3.8148   23.4338 C   0  0  0  0  0  0
  -21.9191   -4.6969   22.3400 C   0  0  0  0  0  0
  -22.7846  -13.5248   21.1856 C   0  0  0  0  0  0
  -22.1659   -4.2153   21.0977 F   0  0  0  0  0  0
  -21.5643   -3.4534   25.7736 F   0  0  0  0  0  0
  -30.0309  -13.2891   20.3967 N   0  0  0  0  0  0
  -26.2990  -12.9354   20.3372 N   0  0  0  0  0  0
  -25.9310  -11.6516   20.5832 N   0  0  0  0  0  0
  -22.0452  -12.8253   22.0391 N   0  0  0  0  0  0
  -25.4305  -15.1899   20.4052 N   0  0  0  0  0  0
  -31.9519  -14.5061   20.2711 O   0  0  0  0  0  0
  -21.6632   -6.8885   21.4241 O   0  0  0  0  0  0
  -22.3549  -14.5552   20.6691 O   0  0  0  0  0  0
  -24.6082  -31.8704   23.2147 C   0  0  0  0  0  0
  -25.9012  -32.4817   23.8430 C   0  0  1  0  0  0
  -27.2659  -27.5006   20.1083 C   0  0  0  0  0  0
  -25.5896  -33.8620   24.2390 N   0  0  0  0  0  0
  -23.3944  -30.4957   21.5468 C   0  0  2  0  0  0
  -24.8487  -28.9673   20.1121 C   0  0  0  0  0  0
  -22.7376  -29.4696   22.4957 C   0  0  0  0  0  0
  -18.0272  -28.1404   22.8475 C   0  0  0  0  0  0
  -24.1479  -36.7338   23.2637 C   0  0  0  0  0  0
  -25.9106  -30.8628   21.3533 C   0  0  0  0  0  0
  -25.9945  -29.4974   20.7124 C   0  0  0  0  0  0
  -27.1982  -28.7739   20.7189 C   0  0  0  0  0  0
  -26.1009  -26.9685   19.5160 C   0  0  0  0  0  0
  -24.8932  -27.6960   19.5103 C   0  0  0  0  0  0
  -23.6051  -29.8255   20.1597 C   0  0  0  0  0  0
  -25.4081  -36.3121   24.0360 C   0  0  1  0  0  0
  -20.5854  -28.3694   23.1306 C   0  0  2  0  0  0
  -20.6782  -26.9434   22.5422 C   0  0  0  0  0  0
  -19.5768  -26.6414   21.5213 C   0  0  0  0  0  0
  -18.1934  -26.7956   22.1598 C   0  0  0  0  0  0
  -19.1515  -28.8859   23.2896 C   0  0  0  0  0  0
  -18.9453  -30.1455   23.8928 C   0  0  0  0  0  0
  -17.6462  -30.6602   24.0588 C   0  0  0  0  0  0
  -25.9009  -34.9469   23.5170 C   0  0  0  0  0  0
  -16.5349  -29.9125   23.6319 C   0  0  0  0  0  0
  -16.7265  -28.6545   23.0322 C   0  0  0  0  0  0
  -26.4487  -31.6531   25.0700 C   0  0  0  0  0  0
  -25.3805  -31.3594   26.1489 C   0  0  0  0  0  0
  -27.0319  -30.2991   24.5996 C   0  0  0  0  0  0
  -27.6096  -32.4196   25.7461 C   0  0  0  0  0  0
  -27.5573  -37.1824   24.8460 C   0  0  0  0  0  0
  -21.4111  -29.3056   22.3695 N   0  0  0  0  0  0
  -26.4271  -37.3793   23.9418 N   0  0  0  0  0  0
  -24.6554  -31.0887   22.0988 N   0  0  0  0  0  0
  -23.4160  -28.8244   23.2997 O   0  0  0  0  0  0
  -28.4063  -26.7299   20.0752 O   0  0  0  0  0  0
  -26.5552  -34.8913   22.4722 O   0  0  0  0  0  0
  -23.5288  -32.1422   23.7586 O   0  0  0  0  0  0
  -30.9181  -22.9061   15.6515 C   0  0  0  0  0  0
  -30.9367  -24.2179   16.1793 C   0  0  0  0  0  0
  -30.8475  -23.3305   18.4746 C   0  0  0  0  0  0
  -30.1840  -17.7780   19.1485 C   0  0  0  0  0  0
  -30.8248  -22.0422   17.9241 C   0  0  0  0  0  0
  -30.8555  -21.8408   16.5647 C   0  0  0  0  0  0
  -30.6844  -18.3469   17.9166 C   0  0  0  0  0  0
  -30.8856  -24.4318   17.5859 C   0  0  0  0  0  0
  -31.1001  -17.3902   17.0060 C   0  0  0  0  0  0
  -30.2879  -16.4077   19.2060 C   0  0  0  0  0  0
  -30.7740  -20.7392   18.6302 C   0  0  0  0  0  0
  -30.3253  -26.8521   17.7489 C   0  0  0  0  0  0
  -30.8490  -20.3622   16.3206 C   0  0  0  0  0  0
  -31.7111  -17.4448   15.6315 C   0  0  0  0  0  0
  -30.1078  -27.9405   18.8063 C   0  0  0  0  0  0
  -29.6830  -27.3692   20.1781 C   0  0  0  0  0  0
  -30.7531  -19.7666   17.6787 N   0  0  0  0  0  0
  -30.8880  -25.7125   18.1843 N   0  0  0  0  0  0
  -30.0031  -15.5605   20.2403 N   0  0  0  0  0  0
  -33.1624  -17.6901   15.6716 N   0  3  0  0  0  0
  -30.7762  -20.6275   19.8601 O   0  0  0  0  0  0
  -30.0159  -27.0728   16.5750 O   0  0  0  0  0  0
  -30.8747  -15.8064   17.6676 S   0  0  0  0  0  0
  -31.4456  -12.3440   19.0966 H   0  0  0  0  0  0
  -30.2960  -11.2694   19.8506 H   0  0  0  0  0  0
  -29.6874  -11.6616   17.4529 H   0  0  0  0  0  0
  -29.6427  -13.3799   17.6994 H   0  0  0  0  0  0
  -27.7728  -11.2935   18.8230 H   0  0  0  0  0  0
  -27.3482  -12.6256   17.7837 H   0  0  0  0  0  0
  -27.6767  -14.2461   19.5216 H   0  0  0  0  0  0
  -28.6703  -12.0429   21.3983 H   0  0  0  0  0  0
  -28.5072  -13.7352   21.8029 H   0  0  0  0  0  0
  -25.2746   -9.5703   22.4781 H   0  0  0  0  0  0
  -24.0022   -7.4617   22.7449 H   0  0  0  0  0  0
  -21.0849   -8.8762   19.8927 H   0  0  0  0  0  0
  -22.3683  -10.9687   19.6170 H   0  0  0  0  0  0
  -21.1985   -7.6146   23.9726 H   0  0  0  0  0  0
  -21.1492   -6.0510   25.9087 H   0  0  0  0  0  0
  -22.0596   -2.7608   23.2823 H   0  0  0  0  0  0
  -22.4036  -11.9928   22.4834 H   0  0  0  0  0  0
  -21.1046  -13.1277   22.2507 H   0  0  0  0  0  0
  -24.6658  -15.8481   20.5104 H   0  0  0  0  0  0
  -26.2816  -15.6248   20.0739 H   0  0  0  0  0  0
  -26.7096  -32.5593   23.1217 H   0  0  0  0  0  0
  -25.0096  -33.9770   25.0572 H   0  0  0  0  0  0
  -22.6810  -31.3106   21.4074 H   0  0  0  0  0  0
  -23.3717  -35.9699   23.3297 H   0  0  0  0  0  0
  -24.3591  -36.8935   22.2053 H   0  0  0  0  0  0
  -23.7252  -37.6560   23.6629 H   0  0  0  0  0  0
  -26.0002  -31.6226   20.5757 H   0  0  0  0  0  0
  -26.8060  -30.9341   21.9585 H   0  0  0  0  0  0
  -28.0454  -29.2189   21.2146 H   0  0  0  0  0  0
  -26.1372  -25.9945   19.0492 H   0  0  0  0  0  0
  -24.0138  -27.2787   19.0380 H   0  0  0  0  0  0
  -23.7133  -30.6018   19.4011 H   0  0  0  0  0  0
  -22.7329  -29.2421   19.8599 H   0  0  0  0  0  0
  -25.1242  -36.2001   25.0852 H   0  0  0  0  0  0
  -20.9952  -28.3307   24.1426 H   0  0  0  0  0  0
  -20.5710  -26.2312   23.3617 H   0  0  0  0  0  0
  -21.6650  -26.7525   22.1198 H   0  0  0  0  0  0
  -19.6943  -25.6335   21.1227 H   0  0  0  0  0  0
  -19.6718  -27.3247   20.6758 H   0  0  0  0  0  0
  -17.4216  -26.6709   21.3983 H   0  0  0  0  0  0
  -18.0329  -26.0094   22.8986 H   0  0  0  0  0  0
  -19.7933  -30.7248   24.2315 H   0  0  0  0  0  0
  -17.5030  -31.6269   24.5223 H   0  0  0  0  0  0
  -15.5356  -30.3046   23.7636 H   0  0  0  0  0  0
  -15.8659  -28.0902   22.6989 H   0  0  0  0  0  0
  -24.5995  -30.6903   25.7851 H   0  0  0  0  0  0
  -24.8986  -32.2729   26.4973 H   0  0  0  0  0  0
  -25.8220  -30.8762   27.0214 H   0  0  0  0  0  0
  -26.2836  -29.6710   24.1149 H   0  0  0  0  0  0
  -27.4242  -29.7232   25.4385 H   0  0  0  0  0  0
  -27.8588  -30.4334   23.9024 H   0  0  0  0  0  0
  -27.2759  -33.3466   26.2126 H   0  0  0  0  0  0
  -28.3884  -32.6764   25.0270 H   0  0  0  0  0  0
  -28.0797  -31.8246   26.5301 H   0  0  0  0  0  0
  -28.2581  -38.0124   24.7476 H   0  0  0  0  0  0
  -28.1066  -36.2650   24.6291 H   0  0  0  0  0  0
  -27.2306  -37.1496   25.8866 H   0  0  0  0  0  0
  -20.9273  -29.8736   21.6883 H   0  0  0  0  0  0
  -26.0169  -38.2874   24.1407 H   0  0  0  0  0  0
  -30.9562  -22.7333   14.5845 H   0  0  0  0  0  0
  -30.9984  -25.0485   15.4906 H   0  0  0  0  0  0
  -30.8194  -23.4635   19.5473 H   0  0  0  0  0  0
  -29.8114  -18.3747   19.9667 H   0  0  0  0  0  0
  -31.7914  -20.1187   15.8338 H   0  0  0  0  0  0
  -30.0082  -20.0766   15.6876 H   0  0  0  0  0  0
  -31.2041  -18.1572   14.9851 H   0  0  0  0  0  0
  -31.5622  -16.4855   15.1333 H   0  0  0  0  0  0
  -29.3509  -28.6408   18.4508 H   0  0  0  0  0  0
  -31.0292  -28.5135   18.9060 H   0  0  0  0  0  0
  -29.7382  -28.1302   20.9519 H   0  0  0  0  0  0
  -30.3979  -26.6220   20.5251 H   0  0  0  0  0  0
  -31.1186  -25.7190   19.1678 H   0  0  0  0  0  0
  -29.0544  -15.5570   20.5821 H   0  0  0  0  0  0
  -33.3835  -18.5675   16.1035 H   0  0  0  0  0  0
  -33.5320  -17.6954   14.7373 H   0  0  0  0  0  0
  -33.6194  -16.9572   16.1824 H   0  0  0  0  0  0
  1 25  1  0  0  0
  1 30  2  0  0  0
  1 89  1  0  0  0
  2  3  1  0  0  0
  2 25  1  0  0  0
  2 94  1  0  0  0
  2 95  1  0  0  0
  3  4  1  0  0  0
  3 96  1  0  0  0
  3 97  1  0  0  0
  4  5  1  0  0  0
  4 98  1  0  0  0
  4 99  1  0  0  0
  5  6  1  0  0  0
  5 26  1  0  0  0
  5100  1  0  0  0
  6 25  1  0  0  0
  6101  1  0  0  0
  6102  1  0  0  0
  7  8  2  0  0  0
  7 26  1  0  0  0
  7 29  1  0  0  0
  8  9  1  0  0  0
  8 22  1  0  0  0
  9 10  1  0  0  0
  9 27  2  0  0  0
 10 11  2  0  0  0
 10 15  1  0  0  0
 11 12  1  0  0  0
 11103  1  0  0  0
 12 13  2  0  0  0
 12104  1  0  0  0
 13 14  1  0  0  0
 13 31  1  0  0  0
 14 15  2  0  0  0
 14105  1  0  0  0
 15106  1  0  0  0
 16 17  2  0  0  0
 16 21  1  0  0  0
 16 31  1  0  0  0
 17 18  1  0  0  0
 17107  1  0  0  0
 18 19  2  0  0  0
 18108  1  0  0  0
 19 20  1  0  0  0
 19 24  1  0  0  0
 20 21  2  0  0  0
 20109  1  0  0  0
 21 23  1  0  0  0
 22 28  1  0  0  0
 22 32  2  0  0  0
 26 27  1  0  0  0
 28110  1  0  0  0
 28111  1  0  0  0
 29112  1  0  0  0
 29113  1  0  0  0
 33 34  1  0  0  0
 33 66  1  0  0  0
 33 70  2  0  0  0
 34 36  1  0  0  0
 34 59  1  0  0  0
 34114  1  0  0  0
 35 44  2  0  0  0
 35 45  1  0  0  0
 35 68  1  0  0  0
 36 56  1  0  0  0
 36115  1  0  0  0
 37 39  1  0  0  0
 37 47  1  0  0  0
 37 66  1  0  0  0
 37116  1  0  0  0
 38 43  2  0  0  0
 38 46  1  0  0  0
 38 47  1  0  0  0
 39 64  1  0  0  0
 39 67  2  0  0  0
 40 52  1  0  0  0
 40 53  2  0  0  0
 40 58  1  0  0  0
 41117  1  0  0  0
 41118  1  0  0  0
 41119  1  0  0  0
 41 48  1  0  0  0
 42 43  1  0  0  0
 42 66  1  0  0  0
 42120  1  0  0  0
 42121  1  0  0  0
 43 44  1  0  0  0
 44122  1  0  0  0
 45 46  2  0  0  0
 45123  1  0  0  0
 46124  1  0  0  0
 47125  1  0  0  0
 47126  1  0  0  0
 48 56  1  0  0  0
 48 65  1  0  0  0
 48127  1  0  0  0
 49 50  1  0  0  0
 49 53  1  0  0  0
 49 64  1  0  0  0
 49128  1  0  0  0
 50 51  1  0  0  0
 50129  1  0  0  0
 50130  1  0  0  0
 51 52  1  0  0  0
 51131  1  0  0  0
 51132  1  0  0  0
 52133  1  0  0  0
 52134  1  0  0  0
 53 54  1  0  0  0
 54 55  2  0  0  0
 54135  1  0  0  0
 55 57  1  0  0  0
 55136  1  0  0  0
 56 69  2  0  0  0
 57 58  2  0  0  0
 57137  1  0  0  0
 58138  1  0  0  0
 59 60  1  0  0  0
 59 61  1  0  0  0
 59 62  1  0  0  0
 60139  1  0  0  0
 60140  1  0  0  0
 60141  1  0  0  0
 61142  1  0  0  0
 61143  1  0  0  0
 61144  1  0  0  0
 62145  1  0  0  0
 62146  1  0  0  0
 62147  1  0  0  0
 63 65  1  0  0  0
 63148  1  0  0  0
 63149  1  0  0  0
 63150  1  0  0  0
 64151  1  0  0  0
 65152  1  0  0  0
 68 86  1  0  0  0
 71 72  2  0  0  0
 71 76  1  0  0  0
 71153  1  0  0  0
 72 78  1  0  0  0
 72154  1  0  0  0
 73 75  1  0  0  0
 73 78  2  0  0  0
 73155  1  0  0  0
 74 77  1  0  0  0
 74 80  2  0  0  0
 74156  1  0  0  0
 75 76  2  0  0  0
 75 81  1  0  0  0
 76 83  1  0  0  0
 77 79  2  0  0  0
 77 87  1  0  0  0
 78 88  1  0  0  0
 79 84  1  0  0  0
 79 93  1  0  0  0
 80 89  1  0  0  0
 80 93  1  0  0  0
 81 87  1  0  0  0
 81 91  2  0  0  0
 82 85  1  0  0  0
 82 88  1  0  0  0
 82 92  2  0  0  0
 83 87  1  0  0  0
 83157  1  0  0  0
 83158  1  0  0  0
 84 90  1  0  0  0
 84159  1  0  0  0
 84160  1  0  0  0
 85 86  1  0  0  0
 85161  1  0  0  0
 85162  1  0  0  0
 86163  1  0  0  0
 86164  1  0  0  0
 88165  1  0  0  0
 89166  1  0  0  0
 90167  1  0  0  0
 90168  1  0  0  0
 90169  1  0  0  0
M  CHG  1  90   1
M  ISO  4   1 100  68 101  86 101  89 100
M  END
> <chiral flag>
0

> <version>
0

> <s_m_source_file>
/data/baiqing/PycharmProjects/Reinvent-master-3.2/result/LINK_invent/BTK/process_docking_weight1_custom_product_contain_oxygen_bond_distance_aromatic_linkinvent_7_9_3/rearranged_h_0143.sdf

> <i_m_source_file_index>
32

> <r_mmod_Potential_Energy-OPLS-2005>
-200.248794555664

> <r_mmod_Stretch_Energy-OPLS-2005>
41.4540977478027

> <r_mmod_Bend_Energy-OPLS-2005>
184.394058227539

> <r_mmod_Torsional_Energy-OPLS-2005>
296.638610839844

> <r_mmod_Improper_Torsional_Energy-OPLS-2005>
14.5072813034058

> <r_mmod_Van_der_Waal_Energy-OPLS-2005>
166.054214477539

> <r_mmod_Electrostatic_Energy-OPLS-2005>
-363.213928222656

> <r_mmod_Solvation_Energy-OPLS-2005>
-565.178833007812

> <b_mmod_Minimization_Converged-OPLS-2005>
0

> <r_mmod_RMS_Derivative-OPLS-2005>
2.26173257827759

$$$$
32
                    3D
 Structure written by MMmdl.
163172  0  0  1  0            999 V2000
  -30.6530  -14.5666   20.5059 C   0  0  0  0  0  0
  -30.4260  -12.3456   19.4592 C   0  0  0  0  0  0
  -29.5056  -12.4982   18.2292 C   0  0  0  0  0  0
  -28.0265  -12.3478   18.6347 C   0  0  0  0  0  0
  -27.6554  -13.2132   19.8699 C   0  0  2  0  0  0
  -28.6940  -13.0502   21.0039 C   0  0  0  0  0  0
  -25.2559  -13.8176   20.5682 C   0  0  0  0  0  0
  -24.1827  -13.0447   20.9185 C   0  0  0  0  0  0
  -24.6386  -11.6921   20.8735 C   0  0  0  0  0  0
  -23.9058  -10.4303   21.0402 C   0  0  0  0  0  0
  -24.3609   -9.4218   21.9178 C   0  0  0  0  0  0
  -23.6290   -8.2249   22.0753 C   0  0  0  0  0  0
  -22.4269   -8.0289   21.3546 C   0  0  0  0  0  0
  -21.9902   -9.0261   20.4646 C   0  0  0  0  0  0
  -22.7229  -10.2143   20.3051 C   0  0  0  0  0  0
  -21.6850   -6.0740   22.5282 C   0  0  0  0  0  0
  -21.4008   -6.5641   23.8218 C   0  0  0  0  0  0
  -21.3660   -5.6795   24.9179 C   0  0  0  0  0  0
  -21.6048   -4.3059   24.7227 C   0  0  0  0  0  0
  -21.8818   -3.8149   23.4347 C   0  0  0  0  0  0
  -21.9192   -4.6968   22.3403 C   0  0  0  0  0  0
  -22.7843  -13.5246   21.1853 C   0  0  0  0  0  0
  -22.1661   -4.2157   21.0979 F   0  0  0  0  0  0
  -21.5631   -3.4539   25.7736 F   0  0  0  0  0  0
  -30.0195  -13.3594   20.4490 N   0  0  0  0  0  0
  -26.2988  -12.9353   20.3335 N   0  0  0  0  0  0
  -25.9312  -11.6513   20.5763 N   0  0  0  0  0  0
  -22.0484  -12.8236   22.0415 N   0  0  0  0  0  0
  -25.4282  -15.1893   20.4093 N   0  0  0  0  0  0
  -31.8111  -14.7129   20.1030 O   0  0  0  0  0  0
  -21.6643   -6.8879   21.4241 O   0  0  0  0  0  0
  -22.3531  -14.5562   20.6728 O   0  0  0  0  0  0
  -24.6205  -31.8638   23.2066 C   0  0  0  0  0  0
  -25.9079  -32.4794   23.8377 C   0  0  1  0  0  0
  -27.2255  -27.3683   20.1008 C   0  0  0  0  0  0
  -25.5920  -33.8595   24.2312 N   0  0  0  0  0  0
  -23.4096  -30.4875   21.5501 C   0  0  2  0  0  0
  -24.8523  -28.9445   20.1163 C   0  0  0  0  0  0
  -22.7441  -29.4640   22.4991 C   0  0  0  0  0  0
  -18.0283  -28.1376   22.8496 C   0  0  0  0  0  0
  -24.1484  -36.7295   23.2643 C   0  0  0  0  0  0
  -25.9458  -30.8079   21.3689 C   0  0  0  0  0  0
  -26.0174  -29.4380   20.7143 C   0  0  0  0  0  0
  -27.2042  -28.6596   20.6988 C   0  0  0  0  0  0
  -26.0340  -26.9063   19.4961 C   0  0  0  0  0  0
  -24.8595  -27.6824   19.5023 C   0  0  0  0  0  0
  -23.6195  -29.8209   20.1649 C   0  0  0  0  0  0
  -25.4108  -36.3096   24.0345 C   0  0  1  0  0  0
  -20.5879  -28.3667   23.1314 C   0  0  2  0  0  0
  -20.6774  -26.9401   22.5417 C   0  0  0  0  0  0
  -19.5749  -26.6389   21.5216 C   0  0  0  0  0  0
  -18.1930  -26.7925   22.1628 C   0  0  0  0  0  0
  -19.1532  -28.8841   23.2900 C   0  0  0  0  0  0
  -18.9454  -30.1451   23.8904 C   0  0  0  0  0  0
  -17.6454  -30.6584   24.0568 C   0  0  0  0  0  0
  -25.9043  -34.9463   23.5128 C   0  0  0  0  0  0
  -16.5347  -29.9081   23.6330 C   0  0  0  0  0  0
  -16.7272  -28.6498   23.0352 C   0  0  0  0  0  0
  -26.4489  -31.6578   25.0719 C   0  0  0  0  0  0
  -25.3746  -31.3685   26.1463 C   0  0  0  0  0  0
  -27.0322  -30.3019   24.6111 C   0  0  0  0  0  0
  -27.6067  -32.4295   25.7476 C   0  0  0  0  0  0
  -27.5580  -37.1805   24.8473 C   0  0  0  0  0  0
  -21.4166  -29.3029   22.3720 N   0  0  0  0  0  0
  -26.4289  -37.3786   23.9417 N   0  0  0  0  0  0
  -24.6775  -31.0692   22.0991 N   0  0  0  0  0  0
  -23.4193  -28.8194   23.3057 O   0  0  0  0  0  0
  -28.4017  -26.6206   20.1105 O   0  0  0  0  0  0
  -26.5607  -34.8920   22.4689 O   0  0  0  0  0  0
  -23.5384  -32.1427   23.7423 O   0  0  0  0  0  0
  -29.5869  -19.4079   18.8101 C   0  0  0  0  0  0
  -30.1184  -17.0193   18.8195 C   0  0  0  0  0  0
  -29.4457  -18.1323   20.8777 C   0  0  0  0  0  0
  -29.9799  -18.2379   18.1283 C   0  0  0  0  0  0
  -29.3230  -19.3942   20.1975 C   0  0  0  0  0  0
  -29.8493  -16.9325   20.2052 C   0  0  0  0  0  0
  -28.6699  -22.9824   21.3104 C   0  0  0  0  0  0
  -28.4674  -24.3374   21.2201 C   0  0  0  0  0  0
  -28.7269  -22.2161   22.6217 C   0  0  0  0  0  0
  -28.8715  -21.9443   20.1998 C   0  0  0  0  0  0
  -29.0393  -20.7481   22.2898 C   0  0  0  0  0  0
  -30.2508  -18.2897   16.6390 C   0  0  0  0  0  0
  -28.3055  -25.1969   22.4700 C   0  0  0  0  0  0
  -28.4156  -25.1668   19.9160 C   0  0  0  0  0  0
  -28.9428  -20.6121   20.8447 N   0  0  0  0  0  0
  -29.8948  -15.6398   20.8662 N   0  0  0  0  0  0
  -31.4710  -12.4448   19.1613 H   0  0  0  0  0  0
  -30.3362  -11.3476   19.8900 H   0  0  0  0  0  0
  -29.7671  -11.7600   17.4697 H   0  0  0  0  0  0
  -29.6602  -13.4765   17.7719 H   0  0  0  0  0  0
  -27.8483  -11.2947   18.8554 H   0  0  0  0  0  0
  -27.3797  -12.5928   17.7917 H   0  0  0  0  0  0
  -27.6832  -14.2519   19.5405 H   0  0  0  0  0  0
  -28.6841  -12.0305   21.3924 H   0  0  0  0  0  0
  -28.4487  -13.6912   21.8526 H   0  0  0  0  0  0
  -25.2752   -9.5714   22.4750 H   0  0  0  0  0  0
  -24.0019   -7.4641   22.7462 H   0  0  0  0  0  0
  -21.0839   -8.8774   19.8938 H   0  0  0  0  0  0
  -22.3683  -10.9683   19.6164 H   0  0  0  0  0  0
  -21.1996   -7.6147   23.9724 H   0  0  0  0  0  0
  -21.1482   -6.0520   25.9087 H   0  0  0  0  0  0
  -22.0594   -2.7611   23.2843 H   0  0  0  0  0  0
  -22.4092  -11.9896   22.4803 H   0  0  0  0  0  0
  -21.1097  -13.1262   22.2617 H   0  0  0  0  0  0
  -24.6619  -15.8441   20.5218 H   0  0  0  0  0  0
  -26.2820  -15.6299   20.0905 H   0  0  0  0  0  0
  -26.7148  -32.5469   23.1129 H   0  0  0  0  0  0
  -25.0084  -33.9748   25.0470 H   0  0  0  0  0  0
  -22.6996  -31.3056   21.4102 H   0  0  0  0  0  0
  -23.3740  -35.9630   23.3310 H   0  0  0  0  0  0
  -24.3585  -36.8901   22.2056 H   0  0  0  0  0  0
  -23.7228  -37.6503   23.6647 H   0  0  0  0  0  0
  -26.0695  -31.5697   20.5982 H   0  0  0  0  0  0
  -26.8308  -30.8582   21.9919 H   0  0  0  0  0  0
  -28.1027  -29.0412   21.1634 H   0  0  0  0  0  0
  -25.9755  -25.9523   18.9992 H   0  0  0  0  0  0
  -23.9655  -27.2977   19.0303 H   0  0  0  0  0  0
  -23.7367  -30.5976   19.4088 H   0  0  0  0  0  0
  -22.7387  -29.2504   19.8645 H   0  0  0  0  0  0
  -25.1276  -36.1968   25.0837 H   0  0  0  0  0  0
  -20.9963  -28.3233   24.1437 H   0  0  0  0  0  0
  -20.5683  -26.2274   23.3609 H   0  0  0  0  0  0
  -21.6642  -26.7453   22.1200 H   0  0  0  0  0  0
  -19.6909  -25.6304   21.1232 H   0  0  0  0  0  0
  -19.6679  -27.3213   20.6755 H   0  0  0  0  0  0
  -17.4201  -26.6687   21.4028 H   0  0  0  0  0  0
  -18.0320  -26.0064   22.9014 H   0  0  0  0  0  0
  -19.7929  -30.7271   24.2265 H   0  0  0  0  0  0
  -17.5007  -31.6257   24.5167 H   0  0  0  0  0  0
  -15.5346  -30.2980   23.7641 H   0  0  0  0  0  0
  -15.8680  -28.0817   22.7053 H   0  0  0  0  0  0
  -24.5927  -30.7019   25.7807 H   0  0  0  0  0  0
  -24.8917  -32.2829   26.4919 H   0  0  0  0  0  0
  -25.8104  -30.8859   27.0220 H   0  0  0  0  0  0
  -26.2873  -29.6769   24.1167 H   0  0  0  0  0  0
  -27.4099  -29.7267   25.4574 H   0  0  0  0  0  0
  -27.8709  -30.4337   23.9267 H   0  0  0  0  0  0
  -27.2703  -33.3593   26.2074 H   0  0  0  0  0  0
  -28.3863  -32.6854   25.0286 H   0  0  0  0  0  0
  -28.0748  -31.8398   26.5368 H   0  0  0  0  0  0
  -28.2610  -38.0094   24.7513 H   0  0  0  0  0  0
  -28.1065  -36.2625   24.6299 H   0  0  0  0  0  0
  -27.2305  -37.1459   25.8880 H   0  0  0  0  0  0
  -20.9339  -29.8737   21.6924 H   0  0  0  0  0  0
  -26.0176  -38.2866   24.1404 H   0  0  0  0  0  0
  -29.4871  -20.3226   18.2431 H   0  0  0  0  0  0
  -30.4105  -16.1400   18.2601 H   0  0  0  0  0  0
  -29.2241  -18.0741   21.9328 H   0  0  0  0  0  0
  -27.7630  -22.2947   23.1264 H   0  0  0  0  0  0
  -29.4881  -22.6313   23.2830 H   0  0  0  0  0  0
  -29.7966  -22.1656   19.6643 H   0  0  0  0  0  0
  -28.0443  -21.9887   19.4894 H   0  0  0  0  0  0
  -28.3464  -20.0781   22.8012 H   0  0  0  0  0  0
  -30.0516  -20.4933   22.6088 H   0  0  0  0  0  0
  -31.2791  -18.6034   16.4580 H   0  0  0  0  0  0
  -29.5804  -18.9938   16.1452 H   0  0  0  0  0  0
  -30.1051  -17.3140   16.1747 H   0  0  0  0  0  0
  -29.1001  -25.9419   22.5159 H   0  0  0  0  0  0
  -28.3387  -24.6357   23.4010 H   0  0  0  0  0  0
  -27.3520  -25.7244   22.4446 H   0  0  0  0  0  0
  -27.6235  -24.7862   19.2767 H   0  0  0  0  0  0
  -29.3329  -24.9465   19.3703 H   0  0  0  0  0  0
  -29.0835  -15.4162   21.4234 H   0  0  0  0  0  0
  1 25  1  0  0  0
  1 30  2  0  0  0
  1 86  1  0  0  0
  2  3  1  0  0  0
  2 25  1  0  0  0
  2 87  1  0  0  0
  2 88  1  0  0  0
  3  4  1  0  0  0
  3 89  1  0  0  0
  3 90  1  0  0  0
  4  5  1  0  0  0
  4 91  1  0  0  0
  4 92  1  0  0  0
  5  6  1  0  0  0
  5 26  1  0  0  0
  5 93  1  0  0  0
  6 25  1  0  0  0
  6 94  1  0  0  0
  6 95  1  0  0  0
  7  8  2  0  0  0
  7 26  1  0  0  0
  7 29  1  0  0  0
  8  9  1  0  0  0
  8 22  1  0  0  0
  9 10  1  0  0  0
  9 27  2  0  0  0
 10 11  2  0  0  0
 10 15  1  0  0  0
 11 12  1  0  0  0
 11 96  1  0  0  0
 12 13  2  0  0  0
 12 97  1  0  0  0
 13 14  1  0  0  0
 13 31  1  0  0  0
 14 15  2  0  0  0
 14 98  1  0  0  0
 15 99  1  0  0  0
 16 17  2  0  0  0
 16 21  1  0  0  0
 16 31  1  0  0  0
 17 18  1  0  0  0
 17100  1  0  0  0
 18 19  2  0  0  0
 18101  1  0  0  0
 19 20  1  0  0  0
 19 24  1  0  0  0
 20 21  2  0  0  0
 20102  1  0  0  0
 21 23  1  0  0  0
 22 28  1  0  0  0
 22 32  2  0  0  0
 26 27  1  0  0  0
 28103  1  0  0  0
 28104  1  0  0  0
 29105  1  0  0  0
 29106  1  0  0  0
 33 34  1  0  0  0
 33 66  1  0  0  0
 33 70  2  0  0  0
 34 36  1  0  0  0
 34 59  1  0  0  0
 34107  1  0  0  0
 35 44  2  0  0  0
 35 45  1  0  0  0
 35 68  1  0  0  0
 36 56  1  0  0  0
 36108  1  0  0  0
 37 39  1  0  0  0
 37 47  1  0  0  0
 37 66  1  0  0  0
 37109  1  0  0  0
 38 43  2  0  0  0
 38 46  1  0  0  0
 38 47  1  0  0  0
 39 64  1  0  0  0
 39 67  2  0  0  0
 40 52  1  0  0  0
 40 53  2  0  0  0
 40 58  1  0  0  0
 41110  1  0  0  0
 41111  1  0  0  0
 41112  1  0  0  0
 41 48  1  0  0  0
 42 43  1  0  0  0
 42 66  1  0  0  0
 42113  1  0  0  0
 42114  1  0  0  0
 43 44  1  0  0  0
 44115  1  0  0  0
 45 46  2  0  0  0
 45116  1  0  0  0
 46117  1  0  0  0
 47118  1  0  0  0
 47119  1  0  0  0
 48 56  1  0  0  0
 48 65  1  0  0  0
 48120  1  0  0  0
 49 50  1  0  0  0
 49 53  1  0  0  0
 49 64  1  0  0  0
 49121  1  0  0  0
 50 51  1  0  0  0
 50122  1  0  0  0
 50123  1  0  0  0
 51 52  1  0  0  0
 51124  1  0  0  0
 51125  1  0  0  0
 52126  1  0  0  0
 52127  1  0  0  0
 53 54  1  0  0  0
 54 55  2  0  0  0
 54128  1  0  0  0
 55 57  1  0  0  0
 55129  1  0  0  0
 56 69  2  0  0  0
 57 58  2  0  0  0
 57130  1  0  0  0
 58131  1  0  0  0
 59 60  1  0  0  0
 59 61  1  0  0  0
 59 62  1  0  0  0
 60132  1  0  0  0
 60133  1  0  0  0
 60134  1  0  0  0
 61135  1  0  0  0
 61136  1  0  0  0
 61137  1  0  0  0
 62138  1  0  0  0
 62139  1  0  0  0
 62140  1  0  0  0
 63 65  1  0  0  0
 63141  1  0  0  0
 63142  1  0  0  0
 63143  1  0  0  0
 64144  1  0  0  0
 65145  1  0  0  0
 68 84  1  0  0  0
 71 74  2  0  0  0
 71 75  1  0  0  0
 71146  1  0  0  0
 72 74  1  0  0  0
 72 76  2  0  0  0
 72147  1  0  0  0
 73 75  2  0  0  0
 73 76  1  0  0  0
 73148  1  0  0  0
 74 82  1  0  0  0
 75 85  1  0  0  0
 76 86  1  0  0  0
 77 78  2  0  0  0
 77 79  1  0  0  0
 77 80  1  0  0  0
 78 83  1  0  0  0
 78 84  1  0  0  0
 79 81  1  0  0  0
 79149  1  0  0  0
 79150  1  0  0  0
 80 85  1  0  0  0
 80151  1  0  0  0
 80152  1  0  0  0
 81 85  1  0  0  0
 81153  1  0  0  0
 81154  1  0  0  0
 82155  1  0  0  0
 82156  1  0  0  0
 82157  1  0  0  0
 83158  1  0  0  0
 83159  1  0  0  0
 83160  1  0  0  0
 84161  1  0  0  0
 84162  1  0  0  0
 86163  1  0  0  0
M  ISO  4   1 100  68 101  84 101  86 100
M  END
> <chiral flag>
0

> <version>
0

> <s_m_source_file>
/data/baiqing/PycharmProjects/Reinvent-master-3.2/result/LINK_invent/BTK/process_docking_weight1_custom_product_contain_oxygen_bond_distance_aromatic_linkinvent_7_9_3/rearranged_h_0143.sdf

> <i_m_source_file_index>
33

> <r_mmod_Potential_Energy-OPLS-2005>
86.8689270019531

> <r_mmod_Stretch_Energy-OPLS-2005>
58.991527557373

> <r_mmod_Bend_Energy-OPLS-2005>
155.311981201172

> <r_mmod_Torsional_Energy-OPLS-2005>
248.24397277832

> <r_mmod_Improper_Torsional_Energy-OPLS-2005>
6.47299718856812

> <r_mmod_Van_der_Waal_Energy-OPLS-2005>
149.937240600586

> <r_mmod_Electrostatic_Energy-OPLS-2005>
-334.874908447266

> <r_mmod_Solvation_Energy-OPLS-2005>
-224.408538818359

> <b_mmod_Minimization_Converged-OPLS-2005>
0

> <r_mmod_RMS_Derivative-OPLS-2005>
1.45205736160278

$$$$
33
                    3D
 Structure written by MMmdl.
167175  0  0  1  0            999 V2000
  -30.7114  -14.4311   20.5629 C   0  0  0  0  0  0
  -30.4136  -12.2730   19.4229 C   0  0  0  0  0  0
  -29.4937  -12.5142   18.2078 C   0  0  0  0  0  0
  -28.0132  -12.3731   18.6113 C   0  0  0  0  0  0
  -27.6621  -13.1962   19.8775 C   0  0  2  0  0  0
  -28.7024  -12.9641   20.9999 C   0  0  0  0  0  0
  -25.2572  -13.8127   20.5623 C   0  0  0  0  0  0
  -24.1819  -13.0428   20.9166 C   0  0  0  0  0  0
  -24.6354  -11.6891   20.8714 C   0  0  0  0  0  0
  -23.9018  -10.4265   21.0381 C   0  0  0  0  0  0
  -24.3571   -9.4194   21.9160 C   0  0  0  0  0  0
  -23.6254   -8.2225   22.0741 C   0  0  0  0  0  0
  -22.4230   -8.0257   21.3547 C   0  0  0  0  0  0
  -21.9851   -9.0223   20.4661 C   0  0  0  0  0  0
  -22.7182  -10.2105   20.3047 C   0  0  0  0  0  0
  -21.6851   -6.0718   22.5264 C   0  0  0  0  0  0
  -21.4026   -6.5621   23.8210 C   0  0  0  0  0  0
  -21.3666   -5.6770   24.9159 C   0  0  0  0  0  0
  -21.6034   -4.3023   24.7218 C   0  0  0  0  0  0
  -21.8823   -3.8133   23.4329 C   0  0  0  0  0  0
  -21.9208   -4.6945   22.3398 C   0  0  0  0  0  0
  -22.7846  -13.5258   21.1831 C   0  0  0  0  0  0
  -22.1668   -4.2157   21.0974 F   0  0  0  0  0  0
  -21.5620   -3.4504   25.7719 F   0  0  0  0  0  0
  -30.0462  -13.2477   20.4601 N   0  0  0  0  0  0
  -26.3012  -12.9283   20.3350 N   0  0  0  0  0  0
  -25.9279  -11.6468   20.5742 N   0  0  0  0  0  0
  -22.0459  -12.8290   22.0393 N   0  0  0  0  0  0
  -25.4275  -15.1830   20.3893 N   0  0  0  0  0  0
  -31.8113  -14.6421   20.0425 O   0  0  0  0  0  0
  -21.6609   -6.8841   21.4228 O   0  0  0  0  0  0
  -22.3539  -14.5567   20.6677 O   0  0  0  0  0  0
  -24.6122  -31.8675   23.2124 C   0  0  0  0  0  0
  -25.9016  -32.4834   23.8394 C   0  0  1  0  0  0
  -27.2287  -27.4524   20.0857 C   0  0  0  0  0  0
  -25.5869  -33.8633   24.2315 N   0  0  0  0  0  0
  -23.3969  -30.4921   21.5547 C   0  0  2  0  0  0
  -24.8375  -28.9495   20.1222 C   0  0  0  0  0  0
  -22.7375  -29.4659   22.5033 C   0  0  0  0  0  0
  -18.0262  -28.1348   22.8495 C   0  0  0  0  0  0
  -24.1478  -36.7335   23.2643 C   0  0  0  0  0  0
  -25.9216  -30.8354   21.3597 C   0  0  0  0  0  0
  -25.9970  -29.4689   20.7117 C   0  0  0  0  0  0
  -27.1958  -28.7286   20.6867 C   0  0  0  0  0  0
  -26.0535  -26.9339   19.5038 C   0  0  0  0  0  0
  -24.8572  -27.6788   19.5210 C   0  0  0  0  0  0
  -23.6017  -29.8177   20.1712 C   0  0  0  0  0  0
  -25.4097  -36.3128   24.0344 C   0  0  1  0  0  0
  -20.5854  -28.3629   23.1332 C   0  0  2  0  0  0
  -20.6741  -26.9365   22.5431 C   0  0  0  0  0  0
  -19.5746  -26.6368   21.5200 C   0  0  0  0  0  0
  -18.1915  -26.7907   22.1582 C   0  0  0  0  0  0
  -19.1513  -28.8803   23.2913 C   0  0  0  0  0  0
  -18.9442  -30.1408   23.8927 C   0  0  0  0  0  0
  -17.6447  -30.6563   24.0569 C   0  0  0  0  0  0
  -25.9022  -34.9494   23.5135 C   0  0  0  0  0  0
  -16.5339  -29.9064   23.6323 C   0  0  0  0  0  0
  -16.7251  -28.6475   23.0355 C   0  0  0  0  0  0
  -26.4476  -31.6632   25.0720 C   0  0  0  0  0  0
  -25.3771  -31.3783   26.1520 C   0  0  0  0  0  0
  -27.0290  -30.3079   24.6087 C   0  0  0  0  0  0
  -27.6097  -32.4364   25.7394 C   0  0  0  0  0  0
  -27.5613  -37.1788   24.8441 C   0  0  0  0  0  0
  -21.4114  -29.3018   22.3762 N   0  0  0  0  0  0
  -26.4291  -37.3817   23.9430 N   0  0  0  0  0  0
  -24.6629  -31.0786   22.1015 N   0  0  0  0  0  0
  -23.4160  -28.8206   23.3067 O   0  0  0  0  0  0
  -28.4298  -26.7891   20.0288 O   0  0  0  0  0  0
  -26.5597  -34.8937   22.4704 O   0  0  0  0  0  0
  -23.5324  -32.1432   23.7533 O   0  0  0  0  0  0
  -29.6311  -17.7889   20.9252 C   0  0  0  0  0  0
  -28.4258  -17.6050   19.0492 C   0  0  0  0  0  0
  -28.8576  -18.5228   19.9710 C   0  0  0  0  0  0
  -29.5876  -16.4905   20.5009 C   0  0  0  0  0  0
  -28.4776  -19.9511   19.8786 C   0  0  0  0  0  0
  -29.8701  -23.4641   22.5177 C   0  0  0  0  0  0
  -31.5278  -22.8964   20.7483 C   0  0  0  0  0  0
  -30.7663  -25.9404   21.1812 C   0  0  0  0  0  0
  -30.4355  -24.9660   18.9060 C   0  0  0  0  0  0
  -29.2964  -20.9335   20.7188 C   0  0  0  0  0  0
  -29.0773  -22.4315   20.3578 C   0  0  0  0  0  0
  -28.4502  -25.4020   20.3638 C   0  0  0  0  0  0
  -30.0925  -23.4407   20.9849 C   0  0  0  0  0  0
  -29.9322  -24.9055   20.3726 C   0  0  0  0  0  0
  -30.0500  -15.4154   21.1842 N   0  0  0  0  0  0
  -27.5646  -20.3439   19.1451 O   0  0  0  0  0  0
  -28.8743  -16.3559   19.3508 O   0  0  0  0  0  0
  -31.4629  -12.3449   19.1290 H   0  0  0  0  0  0
  -30.2807  -11.2576   19.8027 H   0  0  0  0  0  0
  -29.7312  -11.8153   17.4054 H   0  0  0  0  0  0
  -29.6712  -13.5132   17.8039 H   0  0  0  0  0  0
  -27.8051  -11.3168   18.7833 H   0  0  0  0  0  0
  -27.3748  -12.6736   17.7807 H   0  0  0  0  0  0
  -27.7059  -14.2422   19.5875 H   0  0  0  0  0  0
  -28.6578  -11.9296   21.3462 H   0  0  0  0  0  0
  -28.4604  -13.5662   21.8758 H   0  0  0  0  0  0
  -25.2705   -9.5685   22.4731 H   0  0  0  0  0  0
  -23.9986   -7.4618   22.7439 H   0  0  0  0  0  0
  -21.0790   -8.8741   19.8961 H   0  0  0  0  0  0
  -22.3631  -10.9633   19.6153 H   0  0  0  0  0  0
  -21.2012   -7.6118   23.9726 H   0  0  0  0  0  0
  -21.1487   -6.0475   25.9079 H   0  0  0  0  0  0
  -22.0605   -2.7597   23.2821 H   0  0  0  0  0  0
  -22.4063  -11.9985   22.4852 H   0  0  0  0  0  0
  -21.1100  -13.1392   22.2597 H   0  0  0  0  0  0
  -24.6427  -15.8250   20.4312 H   0  0  0  0  0  0
  -26.2668  -15.6022   20.0073 H   0  0  0  0  0  0
  -26.7071  -32.5550   23.1137 H   0  0  0  0  0  0
  -25.0027  -33.9780   25.0471 H   0  0  0  0  0  0
  -22.6860  -31.3101   21.4152 H   0  0  0  0  0  0
  -23.3762  -35.9649   23.3265 H   0  0  0  0  0  0
  -24.3595  -36.8999   22.2072 H   0  0  0  0  0  0
  -23.7196  -37.6508   23.6692 H   0  0  0  0  0  0
  -26.0241  -31.5968   20.5869 H   0  0  0  0  0  0
  -26.8139  -30.8931   21.9694 H   0  0  0  0  0  0
  -28.0973  -29.1307   21.1281 H   0  0  0  0  0  0
  -26.0535  -25.9744   19.0076 H   0  0  0  0  0  0
  -23.9615  -27.2757   19.0644 H   0  0  0  0  0  0
  -23.7078  -30.5870   19.4053 H   0  0  0  0  0  0
  -22.7235  -29.2361   19.8835 H   0  0  0  0  0  0
  -25.1267  -36.2012   25.0843 H   0  0  0  0  0  0
  -20.9926  -28.3186   24.1454 H   0  0  0  0  0  0
  -20.5584  -26.2242   23.3618 H   0  0  0  0  0  0
  -21.6633  -26.7379   22.1283 H   0  0  0  0  0  0
  -19.6909  -25.6281   21.1232 H   0  0  0  0  0  0
  -19.6710  -27.3185   20.6745 H   0  0  0  0  0  0
  -17.4204  -26.6708   21.3952 H   0  0  0  0  0  0
  -18.0267  -26.0016   22.8933 H   0  0  0  0  0  0
  -19.7925  -30.7212   24.2313 H   0  0  0  0  0  0
  -17.5012  -31.6251   24.5161 H   0  0  0  0  0  0
  -15.5344  -30.2971   23.7629 H   0  0  0  0  0  0
  -15.8657  -28.0795   22.7054 H   0  0  0  0  0  0
  -24.5862  -30.7211   25.7889 H   0  0  0  0  0  0
  -24.9051  -32.2966   26.5036 H   0  0  0  0  0  0
  -25.8136  -30.8900   27.0243 H   0  0  0  0  0  0
  -26.2778  -29.6790   24.1303 H   0  0  0  0  0  0
  -27.4238  -29.7399   25.4516 H   0  0  0  0  0  0
  -27.8543  -30.4405   23.9091 H   0  0  0  0  0  0
  -27.2747  -33.3609   26.2121 H   0  0  0  0  0  0
  -28.3764  -32.7053   25.0106 H   0  0  0  0  0  0
  -28.0963  -31.8444   26.5158 H   0  0  0  0  0  0
  -28.2603  -38.0114   24.7571 H   0  0  0  0  0  0
  -28.1129  -36.2667   24.6131 H   0  0  0  0  0  0
  -27.2376  -37.1302   25.8849 H   0  0  0  0  0  0
  -20.9263  -29.8743   21.6995 H   0  0  0  0  0  0
  -26.0197  -38.2894   24.1484 H   0  0  0  0  0  0
  -30.1193  -18.1635   21.8125 H   0  0  0  0  0  0
  -27.8132  -17.6727   18.1600 H   0  0  0  0  0  0
  -29.8401  -22.4625   22.9448 H   0  0  0  0  0  0
  -28.9390  -23.9560   22.7962 H   0  0  0  0  0  0
  -30.6776  -23.9833   23.0370 H   0  0  0  0  0  0
  -31.7336  -22.0150   21.3565 H   0  0  0  0  0  0
  -32.3096  -23.6080   21.0050 H   0  0  0  0  0  0
  -31.6820  -22.6083   19.7084 H   0  0  0  0  0  0
  -30.7735  -26.9194   20.7007 H   0  0  0  0  0  0
  -31.8118  -25.6587   21.2904 H   0  0  0  0  0  0
  -30.3600  -26.0979   22.1805 H   0  0  0  0  0  0
  -30.2839  -25.9571   18.4770 H   0  0  0  0  0  0
  -29.9104  -24.2683   18.2560 H   0  0  0  0  0  0
  -31.5014  -24.7568   18.8239 H   0  0  0  0  0  0
  -30.3334  -20.6507   20.5523 H   0  0  0  0  0  0
  -29.0817  -20.7450   21.7702 H   0  0  0  0  0  0
  -28.0630  -22.7030   20.6531 H   0  0  0  0  0  0
  -29.1008  -22.5171   19.2729 H   0  0  0  0  0  0
  -27.9815  -25.2790   21.3386 H   0  0  0  0  0  0
  -27.8599  -24.8294   19.6473 H   0  0  0  0  0  0
  -29.3891  -15.0681   21.8607 H   0  0  0  0  0  0
  1 25  1  0  0  0
  1 30  2  0  0  0
  1 85  1  0  0  0
  2  3  1  0  0  0
  2 25  1  0  0  0
  2 88  1  0  0  0
  2 89  1  0  0  0
  3  4  1  0  0  0
  3 90  1  0  0  0
  3 91  1  0  0  0
  4  5  1  0  0  0
  4 92  1  0  0  0
  4 93  1  0  0  0
  5  6  1  0  0  0
  5 26  1  0  0  0
  5 94  1  0  0  0
  6 25  1  0  0  0
  6 95  1  0  0  0
  6 96  1  0  0  0
  7  8  2  0  0  0
  7 26  1  0  0  0
  7 29  1  0  0  0
  8  9  1  0  0  0
  8 22  1  0  0  0
  9 10  1  0  0  0
  9 27  2  0  0  0
 10 11  2  0  0  0
 10 15  1  0  0  0
 11 12  1  0  0  0
 11 97  1  0  0  0
 12 13  2  0  0  0
 12 98  1  0  0  0
 13 14  1  0  0  0
 13 31  1  0  0  0
 14 15  2  0  0  0
 14 99  1  0  0  0
 15100  1  0  0  0
 16 17  2  0  0  0
 16 21  1  0  0  0
 16 31  1  0  0  0
 17 18  1  0  0  0
 17101  1  0  0  0
 18 19  2  0  0  0
 18102  1  0  0  0
 19 20  1  0  0  0
 19 24  1  0  0  0
 20 21  2  0  0  0
 20103  1  0  0  0
 21 23  1  0  0  0
 22 28  1  0  0  0
 22 32  2  0  0  0
 26 27  1  0  0  0
 28104  1  0  0  0
 28105  1  0  0  0
 29106  1  0  0  0
 29107  1  0  0  0
 33 34  1  0  0  0
 33 66  1  0  0  0
 33 70  2  0  0  0
 34 36  1  0  0  0
 34 59  1  0  0  0
 34108  1  0  0  0
 35 44  2  0  0  0
 35 45  1  0  0  0
 35 68  1  0  0  0
 36 56  1  0  0  0
 36109  1  0  0  0
 37 39  1  0  0  0
 37 47  1  0  0  0
 37 66  1  0  0  0
 37110  1  0  0  0
 38 43  2  0  0  0
 38 46  1  0  0  0
 38 47  1  0  0  0
 39 64  1  0  0  0
 39 67  2  0  0  0
 40 52  1  0  0  0
 40 53  2  0  0  0
 40 58  1  0  0  0
 41111  1  0  0  0
 41112  1  0  0  0
 41113  1  0  0  0
 41 48  1  0  0  0
 42 43  1  0  0  0
 42 66  1  0  0  0
 42114  1  0  0  0
 42115  1  0  0  0
 43 44  1  0  0  0
 44116  1  0  0  0
 45 46  2  0  0  0
 45117  1  0  0  0
 46118  1  0  0  0
 47119  1  0  0  0
 47120  1  0  0  0
 48 56  1  0  0  0
 48 65  1  0  0  0
 48121  1  0  0  0
 49 50  1  0  0  0
 49 53  1  0  0  0
 49 64  1  0  0  0
 49122  1  0  0  0
 50 51  1  0  0  0
 50123  1  0  0  0
 50124  1  0  0  0
 51 52  1  0  0  0
 51125  1  0  0  0
 51126  1  0  0  0
 52127  1  0  0  0
 52128  1  0  0  0
 53 54  1  0  0  0
 54 55  2  0  0  0
 54129  1  0  0  0
 55 57  1  0  0  0
 55130  1  0  0  0
 56 69  2  0  0  0
 57 58  2  0  0  0
 57131  1  0  0  0
 58132  1  0  0  0
 59 60  1  0  0  0
 59 61  1  0  0  0
 59 62  1  0  0  0
 60133  1  0  0  0
 60134  1  0  0  0
 60135  1  0  0  0
 61136  1  0  0  0
 61137  1  0  0  0
 61138  1  0  0  0
 62139  1  0  0  0
 62140  1  0  0  0
 62141  1  0  0  0
 63 65  1  0  0  0
 63142  1  0  0  0
 63143  1  0  0  0
 63144  1  0  0  0
 64145  1  0  0  0
 65146  1  0  0  0
 68 82  1  0  0  0
 71 73  1  0  0  0
 71 74  2  0  0  0
 71147  1  0  0  0
 72 73  2  0  0  0
 72 87  1  0  0  0
 72148  1  0  0  0
 73 75  1  0  0  0
 74 85  1  0  0  0
 74 87  1  0  0  0
 75 80  1  0  0  0
 75 86  2  0  0  0
 76149  1  0  0  0
 76150  1  0  0  0
 76151  1  0  0  0
 76 83  1  0  0  0
 77 83  1  0  0  0
 77152  1  0  0  0
 77153  1  0  0  0
 77154  1  0  0  0
 78155  1  0  0  0
 78156  1  0  0  0
 78157  1  0  0  0
 78 84  1  0  0  0
 79 84  1  0  0  0
 79158  1  0  0  0
 79159  1  0  0  0
 79160  1  0  0  0
 80 81  1  0  0  0
 80161  1  0  0  0
 80162  1  0  0  0
 81 83  1  0  0  0
 81163  1  0  0  0
 81164  1  0  0  0
 82 84  1  0  0  0
 82165  1  0  0  0
 82166  1  0  0  0
 83 84  1  0  0  0
 85167  1  0  0  0
M  ISO  4   1 100  68 101  82 101  85 100
M  END
> <chiral flag>
0

> <version>
0

> <s_m_source_file>
/data/baiqing/PycharmProjects/Reinvent-master-3.2/result/LINK_invent/BTK/process_docking_weight1_custom_product_contain_oxygen_bond_distance_aromatic_linkinvent_7_9_3/rearranged_h_0143.sdf

> <i_m_source_file_index>
34

> <r_mmod_Potential_Energy-OPLS-2005>
-19.3450508117676

> <r_mmod_Stretch_Energy-OPLS-2005>
40.9457740783691

> <r_mmod_Bend_Energy-OPLS-2005>
113.484169006348

> <r_mmod_Torsional_Energy-OPLS-2005>
309.978302001953

> <r_mmod_Improper_Torsional_Energy-OPLS-2005>
7.84660768508911

> <r_mmod_Van_der_Waal_Energy-OPLS-2005>
148.150512695312

> <r_mmod_Electrostatic_Energy-OPLS-2005>
-446.587280273438

> <r_mmod_Solvation_Energy-OPLS-2005>
-203.101364135742

> <b_mmod_Minimization_Converged-OPLS-2005>
0

> <r_mmod_RMS_Derivative-OPLS-2005>
3.48314714431763

$$$$
34
                    3D
 Structure written by MMmdl.
165174  0  0  1  0            999 V2000
  -30.6176  -14.7875   20.5037 C   0  0  0  0  0  0
  -30.4415  -12.4839   19.4994 C   0  0  0  0  0  0
  -29.5220  -12.5369   18.2562 C   0  0  0  0  0  0
  -28.0472  -12.3566   18.6588 C   0  0  0  0  0  0
  -27.6524  -13.2449   19.8690 C   0  0  2  0  0  0
  -28.6985  -13.1705   21.0067 C   0  0  0  0  0  0
  -25.2500  -13.8191   20.5664 C   0  0  0  0  0  0
  -24.1812  -13.0412   20.9175 C   0  0  0  0  0  0
  -24.6445  -11.6909   20.8751 C   0  0  0  0  0  0
  -23.9117  -10.4278   21.0392 C   0  0  0  0  0  0
  -24.3656   -9.4189   21.9173 C   0  0  0  0  0  0
  -23.6302   -8.2239   22.0753 C   0  0  0  0  0  0
  -22.4282   -8.0283   21.3535 C   0  0  0  0  0  0
  -21.9925   -9.0272   20.4646 C   0  0  0  0  0  0
  -22.7279  -10.2142   20.3040 C   0  0  0  0  0  0
  -21.6845   -6.0728   22.5267 C   0  0  0  0  0  0
  -21.4040   -6.5656   23.8206 C   0  0  0  0  0  0
  -21.3656   -5.6811   24.9169 C   0  0  0  0  0  0
  -21.6029   -4.3062   24.7222 C   0  0  0  0  0  0
  -21.8825   -3.8139   23.4347 C   0  0  0  0  0  0
  -21.9201   -4.6956   22.3397 C   0  0  0  0  0  0
  -22.7842  -13.5190   21.1840 C   0  0  0  0  0  0
  -22.1658   -4.2126   21.0980 F   0  0  0  0  0  0
  -21.5603   -3.4567   25.7739 F   0  0  0  0  0  0
  -30.0102  -13.5427   20.4485 N   0  0  0  0  0  0
  -26.3003  -12.9452   20.3381 N   0  0  0  0  0  0
  -25.9403  -11.6573   20.5815 N   0  0  0  0  0  0
  -22.0524  -12.8181   22.0438 N   0  0  0  0  0  0
  -25.4090  -15.1898   20.4031 N   0  0  0  0  0  0
  -31.7318  -14.9517   20.0021 O   0  0  0  0  0  0
  -21.6619   -6.8879   21.4226 O   0  0  0  0  0  0
  -22.3511  -14.5482   20.6681 O   0  0  0  0  0  0
  -24.6496  -31.8478   23.1953 C   0  0  0  0  0  0
  -25.9251  -32.4719   23.8339 C   0  0  1  0  0  0
  -27.1845  -27.1880   20.0415 C   0  0  0  0  0  0
  -25.5965  -33.8538   24.2261 N   0  0  0  0  0  0
  -23.4410  -30.4865   21.5502 C   0  0  2  0  0  0
  -24.8599  -28.9298   20.1220 C   0  0  0  0  0  0
  -22.7581  -29.4629   22.4917 C   0  0  0  0  0  0
  -18.0318  -28.1399   22.8476 C   0  0  0  0  0  0
  -24.1483  -36.7279   23.2641 C   0  0  0  0  0  0
  -26.0050  -30.7479   21.3672 C   0  0  0  0  0  0
  -26.0692  -29.3756   20.6740 C   0  0  0  0  0  0
  -27.2447  -28.5341   20.5831 C   0  0  0  0  0  0
  -25.8902  -26.7902   19.6410 C   0  0  0  0  0  0
  -24.7749  -27.6367   19.6106 C   0  0  0  0  0  0
  -23.6476  -29.8395   20.1650 C   0  0  0  0  0  0
  -25.4113  -36.3060   24.0336 C   0  0  1  0  0  0
  -20.5932  -28.3731   23.1238 C   0  0  2  0  0  0
  -20.6797  -26.9445   22.5383 C   0  0  0  0  0  0
  -19.5766  -26.6403   21.5198 C   0  0  0  0  0  0
  -18.1958  -26.7941   22.1635 C   0  0  0  0  0  0
  -19.1573  -28.8890   23.2853 C   0  0  0  0  0  0
  -18.9478  -30.1479   23.8894 C   0  0  0  0  0  0
  -17.6467  -30.6590   24.0578 C   0  0  0  0  0  0
  -25.9054  -34.9423   23.5096 C   0  0  0  0  0  0
  -16.5361  -29.9080   23.6343 C   0  0  0  0  0  0
  -16.7296  -28.6500   23.0361 C   0  0  0  0  0  0
  -26.4540  -31.6589   25.0784 C   0  0  0  0  0  0
  -25.3719  -31.3775   26.1481 C   0  0  0  0  0  0
  -27.0387  -30.2983   24.6335 C   0  0  0  0  0  0
  -27.6081  -32.4359   25.7546 C   0  0  0  0  0  0
  -27.5572  -37.1813   24.8485 C   0  0  0  0  0  0
  -21.4281  -29.3065   22.3628 N   0  0  0  0  0  0
  -26.4290  -37.3758   23.9392 N   0  0  0  0  0  0
  -24.7222  -31.0411   22.0943 N   0  0  0  0  0  0
  -23.4244  -28.8153   23.3038 O   0  0  0  0  0  0
  -28.2725  -26.2507   19.9150 O   0  0  0  0  0  0
  -26.5632  -34.8903   22.4670 O   0  0  0  0  0  0
  -23.5625  -32.1333   23.7203 O   0  0  0  0  0  0
  -30.0924  -18.4302   20.5660 C   0  0  0  0  0  0
  -29.1542  -19.6014   20.5822 C   0  0  0  0  0  0
  -27.9064  -19.1456   20.9667 C   0  0  0  0  0  0
  -29.5471  -17.1511   20.8947 C   0  0  0  0  0  0
  -30.0266  -23.3916   20.8588 C   0  0  0  0  0  0
  -30.4223  -21.8665   20.9921 C   0  0  0  0  0  0
  -28.4705  -22.0706   19.7879 C   0  0  0  0  0  0
  -29.1311  -23.5186   19.6163 C   0  0  2  0  0  0
  -30.0647  -23.5018   18.3653 C   0  0  0  0  0  0
  -26.5922  -20.4488   22.6830 C   0  0  0  0  0  0
  -27.4318  -24.6062   18.0857 C   0  0  0  0  0  0
  -26.6288  -19.8744   21.2588 C   0  0  0  0  0  0
  -28.0365  -24.7700   19.5251 C   0  0  2  0  0  0
  -29.4428  -21.0363   20.2745 N   0  0  0  0  0  0
  -29.9456  -15.8179   21.1514 N   0  0  0  0  0  0
  -27.8745  -17.4240   21.2691 S   0  0  0  0  0  0
  -31.4835  -12.6022   19.2032 H   0  0  0  0  0  0
  -30.3816  -11.5070   19.9844 H   0  0  0  0  0  0
  -29.8100  -11.7641   17.5423 H   0  0  0  0  0  0
  -29.6472  -13.4937   17.7447 H   0  0  0  0  0  0
  -27.9049  -11.3061   18.9094 H   0  0  0  0  0  0
  -27.3917  -12.5575   17.8084 H   0  0  0  0  0  0
  -27.6463  -14.2736   19.5053 H   0  0  0  0  0  0
  -28.7378  -12.1682   21.4359 H   0  0  0  0  0  0
  -28.4101  -13.8337   21.8255 H   0  0  0  0  0  0
  -25.2816   -9.5643   22.4761 H   0  0  0  0  0  0
  -23.9972   -7.4644   22.7518 H   0  0  0  0  0  0
  -21.0822   -8.8813   19.9003 H   0  0  0  0  0  0
  -22.3716  -10.9692   19.6143 H   0  0  0  0  0  0
  -21.2060   -7.6165   23.9705 H   0  0  0  0  0  0
  -21.1455   -6.0541   25.9075 H   0  0  0  0  0  0
  -22.0600   -2.7585   23.2859 H   0  0  0  0  0  0
  -22.4178  -11.9822   22.4788 H   0  0  0  0  0  0
  -21.1172  -13.1191   22.2717 H   0  0  0  0  0  0
  -24.6396  -15.8385   20.5337 H   0  0  0  0  0  0
  -26.2584  -15.6421   20.0935 H   0  0  0  0  0  0
  -26.7331  -32.5300   23.1093 H   0  0  0  0  0  0
  -25.0075  -33.9673   25.0375 H   0  0  0  0  0  0
  -22.7456  -31.3183   21.4163 H   0  0  0  0  0  0
  -23.3708  -35.9657   23.3380 H   0  0  0  0  0  0
  -24.3529  -36.8817   22.2036 H   0  0  0  0  0  0
  -23.7300  -37.6533   23.6605 H   0  0  0  0  0  0
  -26.1648  -31.5349   20.6293 H   0  0  0  0  0  0
  -26.8737  -30.7646   22.0136 H   0  0  0  0  0  0
  -28.1951  -28.8974   20.9473 H   0  0  0  0  0  0
  -25.6511  -25.7694   19.4088 H   0  0  0  0  0  0
  -23.8223  -27.2460   19.2749 H   0  0  0  0  0  0
  -23.7841  -30.6274   19.4222 H   0  0  0  0  0  0
  -22.7513  -29.3031   19.8464 H   0  0  0  0  0  0
  -25.1300  -36.1922   25.0837 H   0  0  0  0  0  0
  -21.0033  -28.3283   24.1358 H   0  0  0  0  0  0
  -20.5683  -26.2353   23.3590 H   0  0  0  0  0  0
  -21.6659  -26.7439   22.1184 H   0  0  0  0  0  0
  -19.6923  -25.6311   21.1232 H   0  0  0  0  0  0
  -19.6691  -27.3209   20.6721 H   0  0  0  0  0  0
  -17.4215  -26.6687   21.4044 H   0  0  0  0  0  0
  -18.0371  -26.0080   22.9038 H   0  0  0  0  0  0
  -19.7944  -30.7306   24.2267 H   0  0  0  0  0  0
  -17.5005  -31.6255   24.5196 H   0  0  0  0  0  0
  -15.5357  -30.2974   23.7668 H   0  0  0  0  0  0
  -15.8703  -28.0810   22.7088 H   0  0  0  0  0  0
  -24.5875  -30.7160   25.7789 H   0  0  0  0  0  0
  -24.8938  -32.2958   26.4903 H   0  0  0  0  0  0
  -25.7990  -30.8932   27.0271 H   0  0  0  0  0  0
  -26.2998  -29.6734   24.1298 H   0  0  0  0  0  0
  -27.3951  -29.7276   25.4923 H   0  0  0  0  0  0
  -27.8934  -30.4248   23.9686 H   0  0  0  0  0  0
  -27.2679  -33.3684   26.2074 H   0  0  0  0  0  0
  -28.3884  -32.6889   25.0353 H   0  0  0  0  0  0
  -28.0743  -31.8514   26.5493 H   0  0  0  0  0  0
  -28.2656  -38.0038   24.7392 H   0  0  0  0  0  0
  -28.0994  -36.2561   24.6470 H   0  0  0  0  0  0
  -27.2261  -37.1651   25.8882 H   0  0  0  0  0  0
  -20.9501  -29.8779   21.6805 H   0  0  0  0  0  0
  -26.0180  -38.2850   24.1296 H   0  0  0  0  0  0
  -31.1400  -18.5775   20.3458 H   0  0  0  0  0  0
  -30.9063  -24.0361   20.7835 H   0  0  0  0  0  0
  -29.4692  -23.7217   21.7353 H   0  0  0  0  0  0
  -30.4893  -21.5861   22.0429 H   0  0  0  0  0  0
  -31.4038  -21.7033   20.5439 H   0  0  0  0  0  0
  -27.9348  -21.7380   18.8949 H   0  0  0  0  0  0
  -27.7239  -22.2005   20.5702 H   0  0  0  0  0  0
  -30.9187  -22.8377   18.4879 H   0  0  0  0  0  0
  -30.4518  -24.4967   18.1342 H   0  0  0  0  0  0
  -29.5591  -23.1239   17.4748 H   0  0  0  0  0  0
  -25.6460  -20.9475   22.8891 H   0  0  0  0  0  0
  -27.3955  -21.1697   22.8396 H   0  0  0  0  0  0
  -26.7166  -19.6574   23.4242 H   0  0  0  0  0  0
  -27.0075  -23.6042   17.9798 H   0  0  0  0  0  0
  -28.1494  -24.7493   17.2816 H   0  0  0  0  0  0
  -26.6417  -25.2791   17.7904 H   0  0  0  0  0  0
  -25.7908  -19.1836   21.1533 H   0  0  0  0  0  0
  -26.4139  -20.6379   20.5170 H   0  0  0  0  0  0
  -27.2484  -24.4542   20.2078 H   0  0  0  0  0  0
  -29.2636  -15.3710   21.7443 H   0  0  0  0  0  0
  1 25  1  0  0  0
  1 30  2  0  0  0
  1 85  1  0  0  0
  2  3  1  0  0  0
  2 25  1  0  0  0
  2 87  1  0  0  0
  2 88  1  0  0  0
  3  4  1  0  0  0
  3 89  1  0  0  0
  3 90  1  0  0  0
  4  5  1  0  0  0
  4 91  1  0  0  0
  4 92  1  0  0  0
  5  6  1  0  0  0
  5 26  1  0  0  0
  5 93  1  0  0  0
  6 25  1  0  0  0
  6 94  1  0  0  0
  6 95  1  0  0  0
  7  8  2  0  0  0
  7 26  1  0  0  0
  7 29  1  0  0  0
  8  9  1  0  0  0
  8 22  1  0  0  0
  9 10  1  0  0  0
  9 27  2  0  0  0
 10 11  2  0  0  0
 10 15  1  0  0  0
 11 12  1  0  0  0
 11 96  1  0  0  0
 12 13  2  0  0  0
 12 97  1  0  0  0
 13 14  1  0  0  0
 13 31  1  0  0  0
 14 15  2  0  0  0
 14 98  1  0  0  0
 15 99  1  0  0  0
 16 17  2  0  0  0
 16 21  1  0  0  0
 16 31  1  0  0  0
 17 18  1  0  0  0
 17100  1  0  0  0
 18 19  2  0  0  0
 18101  1  0  0  0
 19 20  1  0  0  0
 19 24  1  0  0  0
 20 21  2  0  0  0
 20102  1  0  0  0
 21 23  1  0  0  0
 22 28  1  0  0  0
 22 32  2  0  0  0
 26 27  1  0  0  0
 28103  1  0  0  0
 28104  1  0  0  0
 29105  1  0  0  0
 29106  1  0  0  0
 33 34  1  0  0  0
 33 66  1  0  0  0
 33 70  2  0  0  0
 34 36  1  0  0  0
 34 59  1  0  0  0
 34107  1  0  0  0
 35 44  2  0  0  0
 35 45  1  0  0  0
 35 68  1  0  0  0
 36 56  1  0  0  0
 36108  1  0  0  0
 37 39  1  0  0  0
 37 47  1  0  0  0
 37 66  1  0  0  0
 37109  1  0  0  0
 38 43  2  0  0  0
 38 46  1  0  0  0
 38 47  1  0  0  0
 39 64  1  0  0  0
 39 67  2  0  0  0
 40 52  1  0  0  0
 40 53  2  0  0  0
 40 58  1  0  0  0
 41110  1  0  0  0
 41111  1  0  0  0
 41112  1  0  0  0
 41 48  1  0  0  0
 42 43  1  0  0  0
 42 66  1  0  0  0
 42113  1  0  0  0
 42114  1  0  0  0
 43 44  1  0  0  0
 44115  1  0  0  0
 45 46  2  0  0  0
 45116  1  0  0  0
 46117  1  0  0  0
 47118  1  0  0  0
 47119  1  0  0  0
 48 56  1  0  0  0
 48 65  1  0  0  0
 48120  1  0  0  0
 49 50  1  0  0  0
 49 53  1  0  0  0
 49 64  1  0  0  0
 49121  1  0  0  0
 50 51  1  0  0  0
 50122  1  0  0  0
 50123  1  0  0  0
 51 52  1  0  0  0
 51124  1  0  0  0
 51125  1  0  0  0
 52126  1  0  0  0
 52127  1  0  0  0
 53 54  1  0  0  0
 54 55  2  0  0  0
 54128  1  0  0  0
 55 57  1  0  0  0
 55129  1  0  0  0
 56 69  2  0  0  0
 57 58  2  0  0  0
 57130  1  0  0  0
 58131  1  0  0  0
 59 60  1  0  0  0
 59 61  1  0  0  0
 59 62  1  0  0  0
 60132  1  0  0  0
 60133  1  0  0  0
 60134  1  0  0  0
 61135  1  0  0  0
 61136  1  0  0  0
 61137  1  0  0  0
 62138  1  0  0  0
 62139  1  0  0  0
 62140  1  0  0  0
 63 65  1  0  0  0
 63141  1  0  0  0
 63142  1  0  0  0
 63143  1  0  0  0
 64144  1  0  0  0
 65145  1  0  0  0
 68 83  1  0  0  0
 71 72  1  0  0  0
 71 74  2  0  0  0
 71146  1  0  0  0
 72 73  2  0  0  0
 72 84  1  0  0  0
 73 82  1  0  0  0
 73 86  1  0  0  0
 74 85  1  0  0  0
 74 86  1  0  0  0
 75 76  1  0  0  0
 75 78  1  0  0  0
 75147  1  0  0  0
 75148  1  0  0  0
 76 84  1  0  0  0
 76149  1  0  0  0
 76150  1  0  0  0
 77 78  1  0  0  0
 77 84  1  0  0  0
 77151  1  0  0  0
 77152  1  0  0  0
 78 79  1  0  0  0
 78 83  1  0  0  0
 79153  1  0  0  0
 79154  1  0  0  0
 79155  1  0  0  0
 80 82  1  0  0  0
 80156  1  0  0  0
 80157  1  0  0  0
 80158  1  0  0  0
 81159  1  0  0  0
 81160  1  0  0  0
 81161  1  0  0  0
 81 83  1  0  0  0
 82162  1  0  0  0
 82163  1  0  0  0
 83164  1  0  0  0
 85165  1  0  0  0
M  ISO  4   1 100  68 101  83 101  85 100
M  END
> <chiral flag>
0

> <version>
0

> <s_m_source_file>
/data/baiqing/PycharmProjects/Reinvent-master-3.2/result/LINK_invent/BTK/process_docking_weight1_custom_product_contain_oxygen_bond_distance_aromatic_linkinvent_7_9_3/rearranged_h_0143.sdf

> <i_m_source_file_index>
35

> <r_mmod_Potential_Energy-OPLS-2005>
470.635559082031

> <r_mmod_Stretch_Energy-OPLS-2005>
173.497100830078

> <r_mmod_Bend_Energy-OPLS-2005>
298.374267578125

> <r_mmod_Torsional_Energy-OPLS-2005>
314.806701660156

> <r_mmod_Improper_Torsional_Energy-OPLS-2005>
7.7837347984314

> <r_mmod_Van_der_Waal_Energy-OPLS-2005>
133.177322387695

> <r_mmod_Electrostatic_Energy-OPLS-2005>
-370.347320556641

> <r_mmod_Solvation_Energy-OPLS-2005>
-212.097640991211

> <b_mmod_Minimization_Converged-OPLS-2005>
0

> <r_mmod_RMS_Derivative-OPLS-2005>
5.97178316116333

$$$$
35
                    3D
 Structure written by MMmdl.
176185  0  0  1  0            999 V2000
  -30.7070  -14.6062   20.5658 C   0  0  0  0  0  0
  -30.4314  -12.3779   19.4937 C   0  0  0  0  0  0
  -29.5213  -12.5312   18.2567 C   0  0  0  0  0  0
  -28.0426  -12.3761   18.6532 C   0  0  0  0  0  0
  -27.6640  -13.2356   19.8868 C   0  0  2  0  0  0
  -28.7085  -13.1051   21.0271 C   0  0  0  0  0  0
  -25.2446  -13.8167   20.5547 C   0  0  0  0  0  0
  -24.1804  -13.0420   20.9187 C   0  0  0  0  0  0
  -24.6448  -11.6910   20.8810 C   0  0  0  0  0  0
  -23.9116  -10.4280   21.0431 C   0  0  0  0  0  0
  -24.3641   -9.4185   21.9193 C   0  0  0  0  0  0
  -23.6307   -8.2227   22.0756 C   0  0  0  0  0  0
  -22.4285   -8.0284   21.3543 C   0  0  0  0  0  0
  -21.9945   -9.0271   20.4648 C   0  0  0  0  0  0
  -22.7297  -10.2138   20.3067 C   0  0  0  0  0  0
  -21.6852   -6.0738   22.5268 C   0  0  0  0  0  0
  -21.4011   -6.5631   23.8205 C   0  0  0  0  0  0
  -21.3644   -5.6783   24.9172 C   0  0  0  0  0  0
  -21.6043   -4.3045   24.7211 C   0  0  0  0  0  0
  -21.8821   -3.8135   23.4330 C   0  0  0  0  0  0
  -21.9188   -4.6963   22.3393 C   0  0  0  0  0  0
  -22.7799  -13.5172   21.1817 C   0  0  0  0  0  0
  -22.1667   -4.2147   21.0977 F   0  0  0  0  0  0
  -21.5616   -3.4530   25.7731 F   0  0  0  0  0  0
  -30.0453  -13.4080   20.4788 N   0  0  0  0  0  0
  -26.3030  -12.9467   20.3407 N   0  0  0  0  0  0
  -25.9410  -11.6598   20.5891 N   0  0  0  0  0  0
  -22.0444  -12.8206   22.0414 N   0  0  0  0  0  0
  -25.3777  -15.1887   20.3591 N   0  0  0  0  0  0
  -31.7837  -14.7983   19.9958 O   0  0  0  0  0  0
  -21.6639   -6.8891   21.4243 O   0  0  0  0  0  0
  -22.3483  -14.5457   20.6640 O   0  0  0  0  0  0
  -24.6209  -31.8680   23.2132 C   0  0  0  0  0  0
  -25.9137  -32.4821   23.8423 C   0  0  1  0  0  0
  -27.2372  -27.4097   20.1219 C   0  0  0  0  0  0
  -25.6051  -33.8617   24.2394 N   0  0  0  0  0  0
  -23.4033  -30.4872   21.5560 C   0  0  2  0  0  0
  -24.8502  -28.9579   20.1033 C   0  0  0  0  0  0
  -22.7447  -29.4629   22.5069 C   0  0  0  0  0  0
  -18.0294  -28.1316   22.8485 C   0  0  0  0  0  0
  -24.1499  -36.7279   23.2614 C   0  0  0  0  0  0
  -25.9271  -30.8282   21.3614 C   0  0  0  0  0  0
  -26.0052  -29.4581   20.7165 C   0  0  0  0  0  0
  -27.1909  -28.6912   20.7237 C   0  0  0  0  0  0
  -26.0757  -26.9455   19.4601 C   0  0  0  0  0  0
  -24.8871  -27.7068   19.4628 C   0  0  0  0  0  0
  -23.6089  -29.8238   20.1640 C   0  0  0  0  0  0
  -25.4115  -36.3100   24.0335 C   0  0  1  0  0  0
  -20.5871  -28.3630   23.1356 C   0  0  2  0  0  0
  -20.6812  -26.9377   22.5420 C   0  0  0  0  0  0
  -19.5783  -26.6344   21.5221 C   0  0  0  0  0  0
  -18.1946  -26.7869   22.1585 C   0  0  0  0  0  0
  -19.1520  -28.8789   23.2911 C   0  0  0  0  0  0
  -18.9421  -30.1396   23.8902 C   0  0  0  0  0  0
  -17.6416  -30.6528   24.0535 C   0  0  0  0  0  0
  -25.9044  -34.9464   23.5127 C   0  0  0  0  0  0
  -16.5323  -29.9004   23.6305 C   0  0  0  0  0  0
  -16.7271  -28.6418   23.0339 C   0  0  0  0  0  0
  -26.4567  -31.6571   25.0721 C   0  0  0  0  0  0
  -25.3845  -31.3669   26.1474 C   0  0  0  0  0  0
  -27.0385  -30.3047   24.6001 C   0  0  0  0  0  0
  -27.6199  -32.4221   25.7492 C   0  0  0  0  0  0
  -27.5580  -37.1805   24.8461 C   0  0  0  0  0  0
  -21.4163  -29.3007   22.3790 N   0  0  0  0  0  0
  -26.4299  -37.3783   23.9386 N   0  0  0  0  0  0
  -24.6695  -31.0752   22.1053 N   0  0  0  0  0  0
  -23.4220  -28.8231   23.3152 O   0  0  0  0  0  0
  -28.4207  -26.6884   20.2026 O   0  0  0  0  0  0
  -26.5479  -34.8923   22.4613 O   0  0  0  0  0  0
  -23.5410  -32.1448   23.7542 O   0  0  0  0  0  0
  -27.8555  -18.3175   20.1276 C   0  0  0  0  0  0
  -28.3926  -17.0757   20.5162 C   0  0  0  0  0  0
  -30.5671  -18.0874   20.6992 C   0  0  0  0  0  0
  -28.6306  -19.4992   19.9906 C   0  0  0  0  0  0
  -29.7501  -16.9164   20.8187 C   0  0  0  0  0  0
  -30.0398  -19.3575   20.2490 C   0  0  0  0  0  0
  -27.8319  -20.7150   19.5517 C   0  0  0  0  0  0
  -26.6954  -23.8958   21.0506 C   0  0  0  0  0  0
  -26.5522  -22.8100   19.9763 C   0  0  0  0  0  0
  -28.7908  -22.7938   20.8228 C   0  0  0  0  0  0
  -28.1837  -24.2335   21.0021 C   0  0  1  0  0  0
  -32.8540  -22.4885   19.5131 C   0  0  0  0  0  0
  -32.1584  -22.4431   17.1047 C   0  0  0  0  0  0
  -33.3511  -20.4649   18.0976 C   0  0  0  0  0  0
  -28.5322  -25.2782   19.8752 C   0  0  0  0  0  0
  -30.9630  -20.9597   18.7339 C   0  0  0  0  0  0
  -32.3316  -21.5829   18.3743 C   0  0  0  0  0  0
  -27.7983  -22.0017   20.0430 N   0  0  0  0  0  0
  -30.1193  -15.5933   21.2912 N   0  0  0  0  0  0
  -26.9700  -20.5118   18.5516 N   0  3  0  0  0  0
  -30.9475  -20.3792   20.0495 O   0  0  0  0  0  0
  -31.4849  -12.4472   19.2164 H   0  0  0  0  0  0
  -30.3056  -11.3856   19.9306 H   0  0  0  0  0  0
  -29.7862  -11.7899   17.5013 H   0  0  0  0  0  0
  -29.6859  -13.5071   17.8005 H   0  0  0  0  0  0
  -27.8605  -11.3229   18.8651 H   0  0  0  0  0  0
  -27.4026  -12.6296   17.8090 H   0  0  0  0  0  0
  -27.6870  -14.2698   19.5468 H   0  0  0  0  0  0
  -28.6949  -12.0960   21.4432 H   0  0  0  0  0  0
  -28.4444  -13.7644   21.8572 H   0  0  0  0  0  0
  -25.2788   -9.5653   22.4768 H   0  0  0  0  0  0
  -23.9994   -7.4618   22.7485 H   0  0  0  0  0  0
  -21.0862   -8.8825   19.8965 H   0  0  0  0  0  0
  -22.3768  -10.9681   19.6168 H   0  0  0  0  0  0
  -21.2016   -7.6141   23.9712 H   0  0  0  0  0  0
  -21.1454   -6.0506   25.9078 H   0  0  0  0  0  0
  -22.0611   -2.7598   23.2828 H   0  0  0  0  0  0
  -22.4120  -11.9944   22.4900 H   0  0  0  0  0  0
  -21.1055  -13.1237   22.2591 H   0  0  0  0  0  0
  -24.5050  -15.7008   20.2893 H   0  0  0  0  0  0
  -26.0838  -15.5545   19.7362 H   0  0  0  0  0  0
  -26.7234  -32.5554   23.1199 H   0  0  0  0  0  0
  -25.0602  -33.9817   25.0810 H   0  0  0  0  0  0
  -22.6889  -31.3032   21.4281 H   0  0  0  0  0  0
  -23.3789  -35.9591   23.3290 H   0  0  0  0  0  0
  -24.3597  -36.8839   22.2025 H   0  0  0  0  0  0
  -23.7215  -37.6488   23.6585 H   0  0  0  0  0  0
  -26.0100  -31.5897   20.5851 H   0  0  0  0  0  0
  -26.8276  -30.9025   21.9590 H   0  0  0  0  0  0
  -28.0768  -29.0723   21.2122 H   0  0  0  0  0  0
  -26.0812  -26.0021   18.9390 H   0  0  0  0  0  0
  -24.0074  -27.3360   18.9500 H   0  0  0  0  0  0
  -23.7010  -30.6021   19.4040 H   0  0  0  0  0  0
  -22.7327  -29.2399   19.8778 H   0  0  0  0  0  0
  -25.1289  -36.1969   25.0827 H   0  0  0  0  0  0
  -20.9931  -28.3147   24.1496 H   0  0  0  0  0  0
  -20.5788  -26.2204   23.3579 H   0  0  0  0  0  0
  -21.6684  -26.7486   22.1167 H   0  0  0  0  0  0
  -19.6973  -25.6269   21.1220 H   0  0  0  0  0  0
  -19.6725  -27.3178   20.6773 H   0  0  0  0  0  0
  -17.4271  -26.6681   21.3940 H   0  0  0  0  0  0
  -18.0304  -25.9958   22.8914 H   0  0  0  0  0  0
  -19.7881  -30.7214   24.2305 H   0  0  0  0  0  0
  -17.4934  -31.6217   24.5103 H   0  0  0  0  0  0
  -15.5302  -30.2874   23.7601 H   0  0  0  0  0  0
  -15.8693  -28.0707   22.7059 H   0  0  0  0  0  0
  -24.6085  -30.6908   25.7848 H   0  0  0  0  0  0
  -24.8962  -32.2817   26.4862 H   0  0  0  0  0  0
  -25.8227  -30.8937   27.0265 H   0  0  0  0  0  0
  -26.2898  -29.6824   24.1077 H   0  0  0  0  0  0
  -27.4266  -29.7244   25.4385 H   0  0  0  0  0  0
  -27.8701  -30.4448   23.9076 H   0  0  0  0  0  0
  -27.2925  -33.3552   26.2078 H   0  0  0  0  0  0
  -28.4051  -32.6653   25.0327 H   0  0  0  0  0  0
  -28.0821  -31.8286   26.5386 H   0  0  0  0  0  0
  -28.2633  -38.0075   24.7513 H   0  0  0  0  0  0
  -28.1034  -36.2604   24.6303 H   0  0  0  0  0  0
  -27.2271  -37.1494   25.8857 H   0  0  0  0  0  0
  -20.9341  -29.8713   21.6988 H   0  0  0  0  0  0
  -26.0198  -38.2874   24.1351 H   0  0  0  0  0  0
  -26.7943  -18.3369   19.9217 H   0  0  0  0  0  0
  -27.7457  -16.2199   20.6014 H   0  0  0  0  0  0
  -31.6218  -18.0397   20.9395 H   0  0  0  0  0  0
  -26.4208  -23.4938   22.0280 H   0  0  0  0  0  0
  -26.0600  -24.7618   20.8789 H   0  0  0  0  0  0
  -26.4318  -23.2596   18.9886 H   0  0  0  0  0  0
  -25.6671  -22.2009   20.1769 H   0  0  0  0  0  0
  -28.9630  -22.3191   21.7909 H   0  0  0  0  0  0
  -29.7494  -22.8687   20.3169 H   0  0  0  0  0  0
  -28.5023  -24.6408   21.9635 H   0  0  0  0  0  0
  -33.8230  -22.9255   19.2536 H   0  0  0  0  0  0
  -32.9879  -21.9264   20.4402 H   0  0  0  0  0  0
  -32.1686  -23.3159   19.7155 H   0  0  0  0  0  0
  -33.0785  -22.9731   16.8602 H   0  0  0  0  0  0
  -31.3756  -23.1974   17.2198 H   0  0  0  0  0  0
  -31.8895  -21.8373   16.2385 H   0  0  0  0  0  0
  -34.3170  -20.8638   17.7914 H   0  0  0  0  0  0
  -33.0054  -19.8114   17.2980 H   0  0  0  0  0  0
  -33.5175  -19.8508   18.9856 H   0  0  0  0  0  0
  -28.0493  -25.0418   18.9262 H   0  0  0  0  0  0
  -29.5982  -25.1564   19.6755 H   0  0  0  0  0  0
  -30.6920  -20.2092   17.9886 H   0  0  0  0  0  0
  -30.2151  -21.7419   18.6527 H   0  0  0  0  0  0
  -29.4204  -15.1930   21.8937 H   0  0  0  0  0  0
  -26.8565  -19.5848   18.1669 H   0  0  0  0  0  0
  -26.6653  -21.2851   17.9845 H   0  0  0  0  0  0
  1 25  1  0  0  0
  1 30  2  0  0  0
  1 89  1  0  0  0
  2  3  1  0  0  0
  2 25  1  0  0  0
  2 92  1  0  0  0
  2 93  1  0  0  0
  3  4  1  0  0  0
  3 94  1  0  0  0
  3 95  1  0  0  0
  4  5  1  0  0  0
  4 96  1  0  0  0
  4 97  1  0  0  0
  5  6  1  0  0  0
  5 26  1  0  0  0
  5 98  1  0  0  0
  6 25  1  0  0  0
  6 99  1  0  0  0
  6100  1  0  0  0
  7  8  2  0  0  0
  7 26  1  0  0  0
  7 29  1  0  0  0
  8  9  1  0  0  0
  8 22  1  0  0  0
  9 10  1  0  0  0
  9 27  2  0  0  0
 10 11  2  0  0  0
 10 15  1  0  0  0
 11 12  1  0  0  0
 11101  1  0  0  0
 12 13  2  0  0  0
 12102  1  0  0  0
 13 14  1  0  0  0
 13 31  1  0  0  0
 14 15  2  0  0  0
 14103  1  0  0  0
 15104  1  0  0  0
 16 17  2  0  0  0
 16 21  1  0  0  0
 16 31  1  0  0  0
 17 18  1  0  0  0
 17105  1  0  0  0
 18 19  2  0  0  0
 18106  1  0  0  0
 19 20  1  0  0  0
 19 24  1  0  0  0
 20 21  2  0  0  0
 20107  1  0  0  0
 21 23  1  0  0  0
 22 28  1  0  0  0
 22 32  2  0  0  0
 26 27  1  0  0  0
 28108  1  0  0  0
 28109  1  0  0  0
 29110  1  0  0  0
 29111  1  0  0  0
 33 34  1  0  0  0
 33 66  1  0  0  0
 33 70  2  0  0  0
 34 36  1  0  0  0
 34 59  1  0  0  0
 34112  1  0  0  0
 35 44  2  0  0  0
 35 45  1  0  0  0
 35 68  1  0  0  0
 36 56  1  0  0  0
 36113  1  0  0  0
 37 39  1  0  0  0
 37 47  1  0  0  0
 37 66  1  0  0  0
 37114  1  0  0  0
 38 43  2  0  0  0
 38 46  1  0  0  0
 38 47  1  0  0  0
 39 64  1  0  0  0
 39 67  2  0  0  0
 40 52  1  0  0  0
 40 53  2  0  0  0
 40 58  1  0  0  0
 41115  1  0  0  0
 41116  1  0  0  0
 41117  1  0  0  0
 41 48  1  0  0  0
 42 43  1  0  0  0
 42 66  1  0  0  0
 42118  1  0  0  0
 42119  1  0  0  0
 43 44  1  0  0  0
 44120  1  0  0  0
 45 46  2  0  0  0
 45121  1  0  0  0
 46122  1  0  0  0
 47123  1  0  0  0
 47124  1  0  0  0
 48 56  1  0  0  0
 48 65  1  0  0  0
 48125  1  0  0  0
 49 50  1  0  0  0
 49 53  1  0  0  0
 49 64  1  0  0  0
 49126  1  0  0  0
 50 51  1  0  0  0
 50127  1  0  0  0
 50128  1  0  0  0
 51 52  1  0  0  0
 51129  1  0  0  0
 51130  1  0  0  0
 52131  1  0  0  0
 52132  1  0  0  0
 53 54  1  0  0  0
 54 55  2  0  0  0
 54133  1  0  0  0
 55 57  1  0  0  0
 55134  1  0  0  0
 56 69  2  0  0  0
 57 58  2  0  0  0
 57135  1  0  0  0
 58136  1  0  0  0
 59 60  1  0  0  0
 59 61  1  0  0  0
 59 62  1  0  0  0
 60137  1  0  0  0
 60138  1  0  0  0
 60139  1  0  0  0
 61140  1  0  0  0
 61141  1  0  0  0
 61142  1  0  0  0
 62143  1  0  0  0
 62144  1  0  0  0
 62145  1  0  0  0
 63 65  1  0  0  0
 63146  1  0  0  0
 63147  1  0  0  0
 63148  1  0  0  0
 64149  1  0  0  0
 65150  1  0  0  0
 68 85  1  0  0  0
 71 72  2  0  0  0
 71 74  1  0  0  0
 71151  1  0  0  0
 72 75  1  0  0  0
 72152  1  0  0  0
 73 75  2  0  0  0
 73 76  1  0  0  0
 73153  1  0  0  0
 74 76  2  0  0  0
 74 77  1  0  0  0
 75 89  1  0  0  0
 76 91  1  0  0  0
 77 88  1  0  0  0
 77 90  2  0  0  0
 78 79  1  0  0  0
 78 81  1  0  0  0
 78154  1  0  0  0
 78155  1  0  0  0
 79 88  1  0  0  0
 79156  1  0  0  0
 79157  1  0  0  0
 80 81  1  0  0  0
 80 88  1  0  0  0
 80158  1  0  0  0
 80159  1  0  0  0
 81 85  1  0  0  0
 81160  1  0  0  0
 82161  1  0  0  0
 82162  1  0  0  0
 82163  1  0  0  0
 82 87  1  0  0  0
 83 87  1  0  0  0
 83164  1  0  0  0
 83165  1  0  0  0
 83166  1  0  0  0
 84 87  1  0  0  0
 84167  1  0  0  0
 84168  1  0  0  0
 84169  1  0  0  0
 85170  1  0  0  0
 85171  1  0  0  0
 86 87  1  0  0  0
 86 91  1  0  0  0
 86172  1  0  0  0
 86173  1  0  0  0
 89174  1  0  0  0
 90175  1  0  0  0
 90176  1  0  0  0
M  CHG  1  90   1
M  ISO  4   1 100  68 101  85 101  89 100
M  END
> <chiral flag>
0

> <version>
0

> <s_m_source_file>
/data/baiqing/PycharmProjects/Reinvent-master-3.2/result/LINK_invent/BTK/process_docking_weight1_custom_product_contain_oxygen_bond_distance_aromatic_linkinvent_7_9_3/rearranged_h_0143.sdf

> <i_m_source_file_index>
36

> <r_mmod_Potential_Energy-OPLS-2005>
125.315742492676

> <r_mmod_Stretch_Energy-OPLS-2005>
69.6209106445312

> <r_mmod_Bend_Energy-OPLS-2005>
211.675216674805

> <r_mmod_Torsional_Energy-OPLS-2005>
367.324615478516

> <r_mmod_Improper_Torsional_Energy-OPLS-2005>
10.5336742401123

> <r_mmod_Van_der_Waal_Energy-OPLS-2005>
143.10173034668

> <r_mmod_Electrostatic_Energy-OPLS-2005>
-312.397216796875

> <r_mmod_Solvation_Energy-OPLS-2005>
-396.920501708984

> <b_mmod_Minimization_Converged-OPLS-2005>
0

> <r_mmod_RMS_Derivative-OPLS-2005>
7.54247045516968

$$$$
36
                    3D
 Structure written by MMmdl.
167176  0  0  1  0            999 V2000
  -30.7007  -14.5098   20.5942 C   0  0  0  0  0  0
  -30.4143  -12.3359   19.4355 C   0  0  0  0  0  0
  -29.4953  -12.5213   18.2110 C   0  0  0  0  0  0
  -28.0179  -12.3686   18.6231 C   0  0  0  0  0  0
  -27.6600  -13.2109   19.8778 C   0  0  2  0  0  0
  -28.7003  -13.0160   21.0047 C   0  0  0  0  0  0
  -25.2582  -13.8168   20.5672 C   0  0  0  0  0  0
  -24.1857  -13.0464   20.9200 C   0  0  0  0  0  0
  -24.6413  -11.6919   20.8763 C   0  0  0  0  0  0
  -23.9083  -10.4310   21.0442 C   0  0  0  0  0  0
  -24.3597   -9.4213   21.9242 C   0  0  0  0  0  0
  -23.6255   -8.2255   22.0787 C   0  0  0  0  0  0
  -22.4261   -8.0293   21.3547 C   0  0  0  0  0  0
  -21.9921   -9.0285   20.4651 C   0  0  0  0  0  0
  -22.7249  -10.2172   20.3086 C   0  0  0  0  0  0
  -21.6862   -6.0742   22.5285 C   0  0  0  0  0  0
  -21.4011   -6.5647   23.8217 C   0  0  0  0  0  0
  -21.3669   -5.6792   24.9181 C   0  0  0  0  0  0
  -21.6052   -4.3054   24.7231 C   0  0  0  0  0  0
  -21.8808   -3.8138   23.4357 C   0  0  0  0  0  0
  -21.9180   -4.6966   22.3407 C   0  0  0  0  0  0
  -22.7880  -13.5253   21.1874 C   0  0  0  0  0  0
  -22.1643   -4.2134   21.0993 F   0  0  0  0  0  0
  -21.5657   -3.4548   25.7742 F   0  0  0  0  0  0
  -30.0233  -13.3349   20.4438 N   0  0  0  0  0  0
  -26.3014  -12.9359   20.3359 N   0  0  0  0  0  0
  -25.9329  -11.6517   20.5774 N   0  0  0  0  0  0
  -22.0482  -12.8215   22.0376 N   0  0  0  0  0  0
  -25.4305  -15.1878   20.4038 N   0  0  0  0  0  0
  -31.8411  -14.6644   20.1423 O   0  0  0  0  0  0
  -21.6636   -6.8887   21.4244 O   0  0  0  0  0  0
  -22.3602  -14.5601   20.6753 O   0  0  0  0  0  0
  -24.6225  -31.8687   23.2222 C   0  0  0  0  0  0
  -25.9111  -32.4834   23.8479 C   0  0  1  0  0  0
  -27.1800  -27.3694   20.0618 C   0  0  0  0  0  0
  -25.5984  -33.8637   24.2372 N   0  0  0  0  0  0
  -23.4066  -30.5091   21.5665 C   0  0  2  0  0  0
  -24.8352  -28.9930   20.1095 C   0  0  0  0  0  0
  -22.7434  -29.4701   22.5002 C   0  0  0  0  0  0
  -18.0276  -28.1370   22.8532 C   0  0  0  0  0  0
  -24.1466  -36.7287   23.2639 C   0  0  0  0  0  0
  -25.9511  -30.8062   21.3938 C   0  0  0  0  0  0
  -26.0131  -29.4498   20.7155 C   0  0  0  0  0  0
  -27.1877  -28.6427   20.7014 C   0  0  0  0  0  0
  -25.9798  -26.9948   19.3965 C   0  0  0  0  0  0
  -24.8155  -27.7629   19.4527 C   0  0  0  0  0  0
  -23.6081  -29.8706   20.1732 C   0  0  0  0  0  0
  -25.4112  -36.3115   24.0344 C   0  0  1  0  0  0
  -20.5863  -28.3701   23.1279 C   0  0  2  0  0  0
  -20.6767  -26.9434   22.5373 C   0  0  0  0  0  0
  -19.5722  -26.6375   21.5188 C   0  0  0  0  0  0
  -18.1918  -26.7931   22.1612 C   0  0  0  0  0  0
  -19.1519  -28.8846   23.2905 C   0  0  0  0  0  0
  -18.9447  -30.1440   23.8907 C   0  0  0  0  0  0
  -17.6461  -30.6615   24.0533 C   0  0  0  0  0  0
  -25.9076  -34.9479   23.5146 C   0  0  0  0  0  0
  -16.5341  -29.9100   23.6326 C   0  0  0  0  0  0
  -16.7264  -28.6478   23.0428 C   0  0  0  0  0  0
  -26.4527  -31.6656   25.0833 C   0  0  0  0  0  0
  -25.3762  -31.3667   26.1529 C   0  0  0  0  0  0
  -27.0481  -30.3148   24.6268 C   0  0  0  0  0  0
  -27.6058  -32.4432   25.7613 C   0  0  0  0  0  0
  -27.5593  -37.1788   24.8461 C   0  0  0  0  0  0
  -21.4150  -29.3098   22.3720 N   0  0  0  0  0  0
  -26.4280  -37.3840   23.9453 N   0  0  0  0  0  0
  -24.6791  -31.0736   22.1177 N   0  0  0  0  0  0
  -23.4197  -28.8192   23.3021 O   0  0  0  0  0  0
  -28.2748  -26.4928   20.1089 O   0  0  0  0  0  0
  -26.5584  -34.8918   22.4677 O   0  0  0  0  0  0
  -23.5406  -32.1454   23.7594 O   0  0  0  0  0  0
  -32.0927  -18.5069   22.1600 C   0  0  0  0  0  0
  -31.1659  -19.5607   22.0521 C   0  0  0  0  0  0
  -31.7315  -17.1872   21.8227 C   0  0  0  0  0  0
  -29.4953  -17.9741   21.2815 C   0  0  0  0  0  0
  -29.8501  -19.3254   21.5873 C   0  0  0  0  0  0
  -30.4200  -16.8974   21.3809 C   0  0  0  0  0  0
  -28.7795  -20.4145   21.5318 C   0  0  0  0  0  0
  -30.0478  -23.9160   20.7768 C   0  0  0  0  0  0
  -30.2976  -22.4551   21.2292 C   0  0  0  0  0  0
  -28.8037  -23.8179   19.9004 C   0  0  2  0  0  0
  -27.9945  -22.6907   20.6742 C   0  0  0  0  0  0
  -29.2726  -23.3065   18.5027 C   0  0  0  0  0  0
  -26.9131  -22.0458   19.7509 C   0  0  0  0  0  0
  -27.2858  -23.2107   21.9692 C   0  0  0  0  0  0
  -27.9797  -25.1389   19.6281 C   0  0  0  0  0  0
  -29.0287  -21.7081   21.1206 N   0  0  0  0  0  0
  -29.9921  -15.5494   21.1011 N   0  0  0  0  0  0
  -27.6301  -20.0359   21.7811 O   0  0  0  0  0  0
  -31.4602  -12.4286   19.1412 H   0  0  0  0  0  0
  -30.3016  -11.3317   19.8449 H   0  0  0  0  0  0
  -29.7413  -11.7900   17.4403 H   0  0  0  0  0  0
  -29.6580  -13.5046   17.7648 H   0  0  0  0  0  0
  -27.8323  -11.3116   18.8214 H   0  0  0  0  0  0
  -27.3658  -12.6386   17.7920 H   0  0  0  0  0  0
  -27.6987  -14.2554   19.5681 H   0  0  0  0  0  0
  -28.6921  -11.9852   21.3665 H   0  0  0  0  0  0
  -28.4538  -13.6319   21.8693 H   0  0  0  0  0  0
  -25.2736   -9.5702   22.4835 H   0  0  0  0  0  0
  -23.9958   -7.4666   22.7522 H   0  0  0  0  0  0
  -21.0872   -8.8834   19.8928 H   0  0  0  0  0  0
  -22.3734  -10.9731   19.6186 H   0  0  0  0  0  0
  -21.2003   -7.6167   23.9703 H   0  0  0  0  0  0
  -21.1518   -6.0542   25.9079 H   0  0  0  0  0  0
  -22.0574   -2.7593   23.2867 H   0  0  0  0  0  0
  -22.4081  -11.9829   22.4689 H   0  0  0  0  0  0
  -21.1114  -13.1287   22.2606 H   0  0  0  0  0  0
  -24.6532  -15.8342   20.4976 H   0  0  0  0  0  0
  -26.2716  -15.6210   20.0440 H   0  0  0  0  0  0
  -26.7169  -32.5523   23.1232 H   0  0  0  0  0  0
  -25.0271  -33.9815   25.0601 H   0  0  0  0  0  0
  -22.7012  -31.3342   21.4461 H   0  0  0  0  0  0
  -23.3810  -35.9530   23.3209 H   0  0  0  0  0  0
  -24.3556  -36.9030   22.2075 H   0  0  0  0  0  0
  -23.7098  -37.6410   23.6723 H   0  0  0  0  0  0
  -26.0872  -31.5820   20.6397 H   0  0  0  0  0  0
  -26.8322  -30.8310   22.0243 H   0  0  0  0  0  0
  -28.0856  -28.9807   21.1995 H   0  0  0  0  0  0
  -25.8692  -26.0938   18.8129 H   0  0  0  0  0  0
  -23.9155  -27.4168   18.9620 H   0  0  0  0  0  0
  -23.7282  -30.6589   19.4294 H   0  0  0  0  0  0
  -22.7198  -29.3088   19.8727 H   0  0  0  0  0  0
  -25.1263  -36.1992   25.0839 H   0  0  0  0  0  0
  -20.9951  -28.3259   24.1405 H   0  0  0  0  0  0
  -20.5697  -26.2315   23.3577 H   0  0  0  0  0  0
  -21.6641  -26.7509   22.1161 H   0  0  0  0  0  0
  -19.6897  -25.6286   21.1248 H   0  0  0  0  0  0
  -19.6640  -27.3131   20.6690 H   0  0  0  0  0  0
  -17.4204  -26.6733   21.3994 H   0  0  0  0  0  0
  -18.0281  -26.0027   22.8965 H   0  0  0  0  0  0
  -19.7916  -30.7214   24.2319 H   0  0  0  0  0  0
  -17.5029  -31.6311   24.5135 H   0  0  0  0  0  0
  -15.5321  -30.3014   23.7627 H   0  0  0  0  0  0
  -15.8673  -28.0733   22.7253 H   0  0  0  0  0  0
  -24.5998  -30.6979   25.7812 H   0  0  0  0  0  0
  -24.8851  -32.2751   26.5017 H   0  0  0  0  0  0
  -25.8112  -30.8807   27.0273 H   0  0  0  0  0  0
  -26.3105  -29.6855   24.1287 H   0  0  0  0  0  0
  -27.4249  -29.7473   25.4797 H   0  0  0  0  0  0
  -27.8911  -30.4576   23.9509 H   0  0  0  0  0  0
  -27.2686  -33.3780   26.2118 H   0  0  0  0  0  0
  -28.3893  -32.6938   25.0446 H   0  0  0  0  0  0
  -28.0697  -31.8601   26.5594 H   0  0  0  0  0  0
  -28.2507  -38.0197   24.7770 H   0  0  0  0  0  0
  -28.1188  -36.2747   24.6006 H   0  0  0  0  0  0
  -27.2305  -37.1126   25.8849 H   0  0  0  0  0  0
  -20.9297  -29.8907   21.7021 H   0  0  0  0  0  0
  -26.0151  -38.2879   24.1622 H   0  0  0  0  0  0
  -33.0873  -18.7135   22.5345 H   0  0  0  0  0  0
  -31.4898  -20.5335   22.3746 H   0  0  0  0  0  0
  -32.4658  -16.4003   21.9434 H   0  0  0  0  0  0
  -28.4807  -17.7596   20.9769 H   0  0  0  0  0  0
  -30.9088  -24.3433   20.2606 H   0  0  0  0  0  0
  -29.8564  -24.5527   21.6403 H   0  0  0  0  0  0
  -30.6490  -22.4719   22.2604 H   0  0  0  0  0  0
  -31.0611  -21.9903   20.6032 H   0  0  0  0  0  0
  -29.8589  -22.3876   18.5443 H   0  0  0  0  0  0
  -29.8939  -24.0506   18.0026 H   0  0  0  0  0  0
  -28.4336  -23.1111   17.8330 H   0  0  0  0  0  0
  -26.3585  -22.7933   19.1826 H   0  0  0  0  0  0
  -26.1633  -21.4756   20.3022 H   0  0  0  0  0  0
  -27.3516  -21.3566   19.0271 H   0  0  0  0  0  0
  -26.4575  -23.8896   21.7776 H   0  0  0  0  0  0
  -27.9674  -23.7235   22.6483 H   0  0  0  0  0  0
  -26.8546  -22.3922   22.5479 H   0  0  0  0  0  0
  -26.9921  -24.8656   19.9784 H   0  0  0  0  0  0
  -27.8722  -25.2474   18.5471 H   0  0  0  0  0  0
  -29.0125  -15.3564   21.2475 H   0  0  0  0  0  0
  1 25  1  0  0  0
  1 30  2  0  0  0
  1 87  1  0  0  0
  2  3  1  0  0  0
  2 25  1  0  0  0
  2 89  1  0  0  0
  2 90  1  0  0  0
  3  4  1  0  0  0
  3 91  1  0  0  0
  3 92  1  0  0  0
  4  5  1  0  0  0
  4 93  1  0  0  0
  4 94  1  0  0  0
  5  6  1  0  0  0
  5 26  1  0  0  0
  5 95  1  0  0  0
  6 25  1  0  0  0
  6 96  1  0  0  0
  6 97  1  0  0  0
  7  8  2  0  0  0
  7 26  1  0  0  0
  7 29  1  0  0  0
  8  9  1  0  0  0
  8 22  1  0  0  0
  9 10  1  0  0  0
  9 27  2  0  0  0
 10 11  2  0  0  0
 10 15  1  0  0  0
 11 12  1  0  0  0
 11 98  1  0  0  0
 12 13  2  0  0  0
 12 99  1  0  0  0
 13 14  1  0  0  0
 13 31  1  0  0  0
 14 15  2  0  0  0
 14100  1  0  0  0
 15101  1  0  0  0
 16 17  2  0  0  0
 16 21  1  0  0  0
 16 31  1  0  0  0
 17 18  1  0  0  0
 17102  1  0  0  0
 18 19  2  0  0  0
 18103  1  0  0  0
 19 20  1  0  0  0
 19 24  1  0  0  0
 20 21  2  0  0  0
 20104  1  0  0  0
 21 23  1  0  0  0
 22 28  1  0  0  0
 22 32  2  0  0  0
 26 27  1  0  0  0
 28105  1  0  0  0
 28106  1  0  0  0
 29107  1  0  0  0
 29108  1  0  0  0
 33 34  1  0  0  0
 33 66  1  0  0  0
 33 70  2  0  0  0
 34 36  1  0  0  0
 34 59  1  0  0  0
 34109  1  0  0  0
 35 44  2  0  0  0
 35 45  1  0  0  0
 35 68  1  0  0  0
 36 56  1  0  0  0
 36110  1  0  0  0
 37 39  1  0  0  0
 37 47  1  0  0  0
 37 66  1  0  0  0
 37111  1  0  0  0
 38 43  2  0  0  0
 38 46  1  0  0  0
 38 47  1  0  0  0
 39 64  1  0  0  0
 39 67  2  0  0  0
 40 52  1  0  0  0
 40 53  2  0  0  0
 40 58  1  0  0  0
 41112  1  0  0  0
 41113  1  0  0  0
 41114  1  0  0  0
 41 48  1  0  0  0
 42 43  1  0  0  0
 42 66  1  0  0  0
 42115  1  0  0  0
 42116  1  0  0  0
 43 44  1  0  0  0
 44117  1  0  0  0
 45 46  2  0  0  0
 45118  1  0  0  0
 46119  1  0  0  0
 47120  1  0  0  0
 47121  1  0  0  0
 48 56  1  0  0  0
 48 65  1  0  0  0
 48122  1  0  0  0
 49 50  1  0  0  0
 49 53  1  0  0  0
 49 64  1  0  0  0
 49123  1  0  0  0
 50 51  1  0  0  0
 50124  1  0  0  0
 50125  1  0  0  0
 51 52  1  0  0  0
 51126  1  0  0  0
 51127  1  0  0  0
 52128  1  0  0  0
 52129  1  0  0  0
 53 54  1  0  0  0
 54 55  2  0  0  0
 54130  1  0  0  0
 55 57  1  0  0  0
 55131  1  0  0  0
 56 69  2  0  0  0
 57 58  2  0  0  0
 57132  1  0  0  0
 58133  1  0  0  0
 59 60  1  0  0  0
 59 61  1  0  0  0
 59 62  1  0  0  0
 60134  1  0  0  0
 60135  1  0  0  0
 60136  1  0  0  0
 61137  1  0  0  0
 61138  1  0  0  0
 61139  1  0  0  0
 62140  1  0  0  0
 62141  1  0  0  0
 62142  1  0  0  0
 63 65  1  0  0  0
 63143  1  0  0  0
 63144  1  0  0  0
 63145  1  0  0  0
 64146  1  0  0  0
 65147  1  0  0  0
 68 85  1  0  0  0
 71 72  2  0  0  0
 71 73  1  0  0  0
 71148  1  0  0  0
 72 75  1  0  0  0
 72149  1  0  0  0
 73 76  2  0  0  0
 73150  1  0  0  0
 74 75  2  0  0  0
 74 76  1  0  0  0
 74151  1  0  0  0
 75 77  1  0  0  0
 76 87  1  0  0  0
 77 86  1  0  0  0
 77 88  2  0  0  0
 78 79  1  0  0  0
 78 80  1  0  0  0
 78152  1  0  0  0
 78153  1  0  0  0
 79 86  1  0  0  0
 79154  1  0  0  0
 79155  1  0  0  0
 80 81  1  0  0  0
 80 82  1  0  0  0
 80 85  1  0  0  0
 81 83  1  0  0  0
 81 84  1  0  0  0
 81 86  1  0  0  0
 82156  1  0  0  0
 82157  1  0  0  0
 82158  1  0  0  0
 83159  1  0  0  0
 83160  1  0  0  0
 83161  1  0  0  0
 84162  1  0  0  0
 84163  1  0  0  0
 84164  1  0  0  0
 85165  1  0  0  0
 85166  1  0  0  0
 87167  1  0  0  0
M  ISO  4   1 100  68 101  85 101  87 100
M  END
> <chiral flag>
0

> <version>
0

> <s_m_source_file>
/data/baiqing/PycharmProjects/Reinvent-master-3.2/result/LINK_invent/BTK/process_docking_weight1_custom_product_contain_oxygen_bond_distance_aromatic_linkinvent_7_9_3/rearranged_h_0143.sdf

> <i_m_source_file_index>
37

> <r_mmod_Potential_Energy-OPLS-2005>
279.217041015625

> <r_mmod_Stretch_Energy-OPLS-2005>
68.1434707641602

> <r_mmod_Bend_Energy-OPLS-2005>
178.704345703125

> <r_mmod_Torsional_Energy-OPLS-2005>
349.862060546875

> <r_mmod_Improper_Torsional_Energy-OPLS-2005>
5.63109731674194

> <r_mmod_Van_der_Waal_Energy-OPLS-2005>
196.050262451172

> <r_mmod_Electrostatic_Energy-OPLS-2005>
-343.402496337891

> <r_mmod_Solvation_Energy-OPLS-2005>
-207.614456176758

> <b_mmod_Minimization_Converged-OPLS-2005>
0

> <r_mmod_RMS_Derivative-OPLS-2005>
4.61571216583252

$$$$
37
                    3D
 Structure written by MMmdl.
166174  0  0  1  0            999 V2000
  -30.7214  -14.4031   20.6683 C   0  0  0  0  0  0
  -30.4282  -12.2882   19.4141 C   0  0  0  0  0  0
  -29.4973  -12.5210   18.2053 C   0  0  0  0  0  0
  -28.0173  -12.3805   18.6120 C   0  0  0  0  0  0
  -27.6691  -13.1951   19.8844 C   0  0  2  0  0  0
  -28.7035  -12.9235   21.0023 C   0  0  0  0  0  0
  -25.2627  -13.8139   20.5675 C   0  0  0  0  0  0
  -24.1872  -13.0435   20.9179 C   0  0  0  0  0  0
  -24.6398  -11.6895   20.8724 C   0  0  0  0  0  0
  -23.9067  -10.4289   21.0394 C   0  0  0  0  0  0
  -24.3624   -9.4202   21.9172 C   0  0  0  0  0  0
  -23.6290   -8.2239   22.0760 C   0  0  0  0  0  0
  -22.4268   -8.0293   21.3563 C   0  0  0  0  0  0
  -21.9903   -9.0264   20.4657 C   0  0  0  0  0  0
  -22.7232  -10.2133   20.3050 C   0  0  0  0  0  0
  -21.6861   -6.0724   22.5280 C   0  0  0  0  0  0
  -21.4022   -6.5631   23.8214 C   0  0  0  0  0  0
  -21.3673   -5.6795   24.9184 C   0  0  0  0  0  0
  -21.6035   -4.3053   24.7232 C   0  0  0  0  0  0
  -21.8825   -3.8137   23.4363 C   0  0  0  0  0  0
  -21.9198   -4.6952   22.3411 C   0  0  0  0  0  0
  -22.7894  -13.5244   21.1855 C   0  0  0  0  0  0
  -22.1665   -4.2128   21.0990 F   0  0  0  0  0  0
  -21.5614   -3.4546   25.7750 F   0  0  0  0  0  0
  -30.0533  -13.2291   20.4830 N   0  0  0  0  0  0
  -26.3052  -12.9284   20.3371 N   0  0  0  0  0  0
  -25.9327  -11.6458   20.5764 N   0  0  0  0  0  0
  -22.0542  -12.8232   22.0421 N   0  0  0  0  0  0
  -25.4360  -15.1860   20.4081 N   0  0  0  0  0  0
  -31.7397  -14.7048   20.0258 O   0  0  0  0  0  0
  -21.6653   -6.8873   21.4244 O   0  0  0  0  0  0
  -22.3574  -14.5551   20.6720 O   0  0  0  0  0  0
  -24.6126  -31.8702   23.2118 C   0  0  0  0  0  0
  -25.9030  -32.4830   23.8419 C   0  0  1  0  0  0
  -27.2389  -27.4712   20.0867 C   0  0  0  0  0  0
  -25.5892  -33.8631   24.2352 N   0  0  0  0  0  0
  -23.3993  -30.4936   21.5517 C   0  0  2  0  0  0
  -24.8409  -28.9615   20.1170 C   0  0  0  0  0  0
  -22.7420  -29.4674   22.5010 C   0  0  0  0  0  0
  -18.0306  -28.1381   22.8488 C   0  0  0  0  0  0
  -24.1491  -36.7328   23.2639 C   0  0  0  0  0  0
  -25.9215  -30.8491   21.3542 C   0  0  0  0  0  0
  -25.9995  -29.4852   20.7042 C   0  0  0  0  0  0
  -27.2008  -28.7487   20.6818 C   0  0  0  0  0  0
  -26.0636  -26.9511   19.5012 C   0  0  0  0  0  0
  -24.8665  -27.6908   19.5149 C   0  0  0  0  0  0
  -23.6015  -29.8232   20.1658 C   0  0  0  0  0  0
  -25.4106  -36.3119   24.0344 C   0  0  1  0  0  0
  -20.5900  -28.3677   23.1337 C   0  0  2  0  0  0
  -20.6787  -26.9414   22.5474 C   0  0  0  0  0  0
  -19.5832  -26.6468   21.5187 C   0  0  0  0  0  0
  -18.1993  -26.7949   22.1582 C   0  0  0  0  0  0
  -19.1554  -28.8838   23.2909 C   0  0  0  0  0  0
  -18.9490  -30.1448   23.8926 C   0  0  0  0  0  0
  -17.6493  -30.6584   24.0588 C   0  0  0  0  0  0
  -25.9028  -34.9485   23.5146 C   0  0  0  0  0  0
  -16.5391  -29.9087   23.6350 C   0  0  0  0  0  0
  -16.7309  -28.6510   23.0367 C   0  0  0  0  0  0
  -26.4482  -31.6585   25.0723 C   0  0  0  0  0  0
  -25.3786  -31.3668   26.1493 C   0  0  0  0  0  0
  -27.0292  -30.3042   24.6040 C   0  0  0  0  0  0
  -27.6078  -32.4270   25.7472 C   0  0  0  0  0  0
  -27.5585  -37.1816   24.8466 C   0  0  0  0  0  0
  -21.4157  -29.3016   22.3716 N   0  0  0  0  0  0
  -26.4301  -37.3794   23.9404 N   0  0  0  0  0  0
  -24.6639  -31.0850   22.0978 N   0  0  0  0  0  0
  -23.4206  -28.8231   23.3059 O   0  0  0  0  0  0
  -28.4411  -26.7837   20.0820 O   0  0  0  0  0  0
  -26.5594  -34.8930   22.4699 O   0  0  0  0  0  0
  -23.5324  -32.1418   23.7529 O   0  0  0  0  0  0
  -29.2477  -17.1865   22.6652 C   0  0  0  0  0  0
  -29.5886  -18.6058   20.2985 C   0  0  0  0  0  0
  -28.7769  -18.5127   22.5842 C   0  0  0  0  0  0
  -28.9351  -19.2386   21.3797 C   0  0  0  0  0  0
  -29.8636  -16.5756   21.5450 C   0  0  0  0  0  0
  -25.5652  -21.3680   21.4148 C   0  0  0  0  0  0
  -25.7618  -22.1292   19.0567 C   0  0  0  0  0  0
  -27.9368  -24.1140   19.8749 C   0  0  0  0  0  0
  -27.0912  -23.2899   20.8767 C   0  0  0  0  0  0
  -27.6783  -20.8937   20.0996 C   0  0  0  0  0  0
  -28.5549  -25.3995   20.4901 C   0  0  0  0  0  0
  -26.5505  -21.9264   20.3651 C   0  0  0  0  0  0
  -30.0198  -17.3264   20.4172 N   0  3  0  0  0  0
  -28.1204  -19.1091   23.6670 N   0  0  0  0  0  0
  -28.4397  -20.5487   21.2973 N   0  0  0  0  0  0
  -30.2084  -15.1916   21.6285 N   0  0  0  0  0  0
  -31.4736  -12.3962   19.1192 H   0  0  0  0  0  0
  -30.3287  -11.2598   19.7710 H   0  0  0  0  0  0
  -29.7297  -11.8071   17.4134 H   0  0  0  0  0  0
  -29.6737  -13.5113   17.7817 H   0  0  0  0  0  0
  -27.8210  -11.3224   18.7869 H   0  0  0  0  0  0
  -27.3712  -12.6761   17.7846 H   0  0  0  0  0  0
  -27.7273  -14.2509   19.6176 H   0  0  0  0  0  0
  -28.6664  -11.8727   21.2962 H   0  0  0  0  0  0
  -28.4350  -13.4715   21.9071 H   0  0  0  0  0  0
  -25.2784   -9.5666   22.4742 H   0  0  0  0  0  0
  -24.0003   -7.4624   22.7480 H   0  0  0  0  0  0
  -21.0835   -8.8782   19.8959 H   0  0  0  0  0  0
  -22.3702  -10.9677   19.6159 H   0  0  0  0  0  0
  -21.2020   -7.6147   23.9708 H   0  0  0  0  0  0
  -21.1490   -6.0531   25.9083 H   0  0  0  0  0  0
  -22.0590   -2.7596   23.2870 H   0  0  0  0  0  0
  -22.4175  -11.9888   22.4787 H   0  0  0  0  0  0
  -21.1153  -13.1232   22.2642 H   0  0  0  0  0  0
  -24.6647  -15.8363   20.5139 H   0  0  0  0  0  0
  -26.2795  -15.6254   20.0633 H   0  0  0  0  0  0
  -26.7099  -32.5569   23.1191 H   0  0  0  0  0  0
  -25.0046  -33.9817   25.0497 H   0  0  0  0  0  0
  -22.6885  -31.3104   21.4143 H   0  0  0  0  0  0
  -23.3745  -35.9672   23.3310 H   0  0  0  0  0  0
  -24.3605  -36.8930   22.2055 H   0  0  0  0  0  0
  -23.7262  -37.6550   23.6631 H   0  0  0  0  0  0
  -26.0270  -31.6133   20.5834 H   0  0  0  0  0  0
  -26.8134  -30.9061   21.9665 H   0  0  0  0  0  0
  -28.0985  -29.1559   21.1277 H   0  0  0  0  0  0
  -26.0593  -25.9896   19.0160 H   0  0  0  0  0  0
  -23.9760  -27.2828   19.0571 H   0  0  0  0  0  0
  -23.7029  -30.5939   19.4009 H   0  0  0  0  0  0
  -22.7278  -29.2344   19.8792 H   0  0  0  0  0  0
  -25.1278  -36.2004   25.0842 H   0  0  0  0  0  0
  -20.9999  -28.3277   24.1456 H   0  0  0  0  0  0
  -20.5612  -26.2308   23.3655 H   0  0  0  0  0  0
  -21.6689  -26.7423   22.1348 H   0  0  0  0  0  0
  -19.6808  -27.3406   20.6817 H   0  0  0  0  0  0
  -19.7036  -25.6435   21.1087 H   0  0  0  0  0  0
  -17.4284  -26.6682   21.3966 H   0  0  0  0  0  0
  -18.0455  -26.0049   22.8935 H   0  0  0  0  0  0
  -19.7971  -30.7246   24.2316 H   0  0  0  0  0  0
  -17.5051  -31.6271   24.5180 H   0  0  0  0  0  0
  -15.5394  -30.2974   23.7676 H   0  0  0  0  0  0
  -15.8702  -28.0826   22.7093 H   0  0  0  0  0  0
  -24.5976  -30.6977   25.7865 H   0  0  0  0  0  0
  -24.8950  -32.2797   26.4965 H   0  0  0  0  0  0
  -25.8190  -30.8853   27.0230 H   0  0  0  0  0  0
  -26.2816  -29.6841   24.1073 H   0  0  0  0  0  0
  -27.4080  -29.7246   25.4468 H   0  0  0  0  0  0
  -27.8641  -30.4411   23.9168 H   0  0  0  0  0  0
  -27.2740  -33.3562   26.2102 H   0  0  0  0  0  0
  -28.3866  -32.6824   25.0275 H   0  0  0  0  0  0
  -28.0760  -31.8338   26.5345 H   0  0  0  0  0  0
  -28.2604  -38.0105   24.7484 H   0  0  0  0  0  0
  -28.1068  -36.2637   24.6294 H   0  0  0  0  0  0
  -27.2307  -37.1478   25.8870 H   0  0  0  0  0  0
  -20.9328  -29.8666   21.6863 H   0  0  0  0  0  0
  -26.0197  -38.2892   24.1343 H   0  0  0  0  0  0
  -29.1151  -16.6317   23.5822 H   0  0  0  0  0  0
  -29.7696  -19.0865   19.3447 H   0  0  0  0  0  0
  -24.7211  -22.0449   21.5605 H   0  0  0  0  0  0
  -26.0320  -21.2343   22.3906 H   0  0  0  0  0  0
  -25.1573  -20.4027   21.1093 H   0  0  0  0  0  0
  -25.0000  -22.9025   19.1680 H   0  0  0  0  0  0
  -25.2538  -21.2131   18.7511 H   0  0  0  0  0  0
  -26.4114  -22.4210   18.2297 H   0  0  0  0  0  0
  -27.3380  -24.3386   18.9940 H   0  0  0  0  0  0
  -28.7510  -23.4873   19.5080 H   0  0  0  0  0  0
  -26.2383  -23.9002   21.1804 H   0  0  0  0  0  0
  -27.6738  -23.1380   21.7867 H   0  0  0  0  0  0
  -28.3692  -21.2691   19.3448 H   0  0  0  0  0  0
  -27.2313  -19.9910   19.6752 H   0  0  0  0  0  0
  -27.6918  -25.5763   21.1271 H   0  0  0  0  0  0
  -28.8711  -25.5677   19.4590 H   0  0  0  0  0  0
  -30.4769  -16.9098   19.5983 H   0  0  0  0  0  0
  -27.7768  -18.4638   24.3669 H   0  0  0  0  0  0
  -27.3921  -19.7495   23.3871 H   0  0  0  0  0  0
  -28.0639  -20.8911   22.1743 H   0  0  0  0  0  0
  -29.6823  -14.6725   22.3098 H   0  0  0  0  0  0
  1 25  1  0  0  0
  1 30  2  0  0  0
  1 86  1  0  0  0
  2  3  1  0  0  0
  2 25  1  0  0  0
  2 87  1  0  0  0
  2 88  1  0  0  0
  3  4  1  0  0  0
  3 89  1  0  0  0
  3 90  1  0  0  0
  4  5  1  0  0  0
  4 91  1  0  0  0
  4 92  1  0  0  0
  5  6  1  0  0  0
  5 26  1  0  0  0
  5 93  1  0  0  0
  6 25  1  0  0  0
  6 94  1  0  0  0
  6 95  1  0  0  0
  7  8  2  0  0  0
  7 26  1  0  0  0
  7 29  1  0  0  0
  8  9  1  0  0  0
  8 22  1  0  0  0
  9 10  1  0  0  0
  9 27  2  0  0  0
 10 11  2  0  0  0
 10 15  1  0  0  0
 11 12  1  0  0  0
 11 96  1  0  0  0
 12 13  2  0  0  0
 12 97  1  0  0  0
 13 14  1  0  0  0
 13 31  1  0  0  0
 14 15  2  0  0  0
 14 98  1  0  0  0
 15 99  1  0  0  0
 16 17  2  0  0  0
 16 21  1  0  0  0
 16 31  1  0  0  0
 17 18  1  0  0  0
 17100  1  0  0  0
 18 19  2  0  0  0
 18101  1  0  0  0
 19 20  1  0  0  0
 19 24  1  0  0  0
 20 21  2  0  0  0
 20102  1  0  0  0
 21 23  1  0  0  0
 22 28  1  0  0  0
 22 32  2  0  0  0
 26 27  1  0  0  0
 28103  1  0  0  0
 28104  1  0  0  0
 29105  1  0  0  0
 29106  1  0  0  0
 33 34  1  0  0  0
 33 66  1  0  0  0
 33 70  2  0  0  0
 34 36  1  0  0  0
 34 59  1  0  0  0
 34107  1  0  0  0
 35 44  2  0  0  0
 35 45  1  0  0  0
 35 68  1  0  0  0
 36 56  1  0  0  0
 36108  1  0  0  0
 37 39  1  0  0  0
 37 47  1  0  0  0
 37 66  1  0  0  0
 37109  1  0  0  0
 38 43  2  0  0  0
 38 46  1  0  0  0
 38 47  1  0  0  0
 39 64  1  0  0  0
 39 67  2  0  0  0
 40 52  1  0  0  0
 40 53  2  0  0  0
 40 58  1  0  0  0
 41110  1  0  0  0
 41111  1  0  0  0
 41112  1  0  0  0
 41 48  1  0  0  0
 42 43  1  0  0  0
 42 66  1  0  0  0
 42113  1  0  0  0
 42114  1  0  0  0
 43 44  1  0  0  0
 44115  1  0  0  0
 45 46  2  0  0  0
 45116  1  0  0  0
 46117  1  0  0  0
 47118  1  0  0  0
 47119  1  0  0  0
 48 56  1  0  0  0
 48 65  1  0  0  0
 48120  1  0  0  0
 49 50  1  0  0  0
 49 53  1  0  0  0
 49 64  1  0  0  0
 49121  1  0  0  0
 50 51  1  0  0  0
 50122  1  0  0  0
 50123  1  0  0  0
 51 52  1  0  0  0
 51124  1  0  0  0
 51125  1  0  0  0
 52126  1  0  0  0
 52127  1  0  0  0
 53 54  1  0  0  0
 54 55  2  0  0  0
 54128  1  0  0  0
 55 57  1  0  0  0
 55129  1  0  0  0
 56 69  2  0  0  0
 57 58  2  0  0  0
 57130  1  0  0  0
 58131  1  0  0  0
 59 60  1  0  0  0
 59 61  1  0  0  0
 59 62  1  0  0  0
 60132  1  0  0  0
 60133  1  0  0  0
 60134  1  0  0  0
 61135  1  0  0  0
 61136  1  0  0  0
 61137  1  0  0  0
 62138  1  0  0  0
 62139  1  0  0  0
 62140  1  0  0  0
 63 65  1  0  0  0
 63141  1  0  0  0
 63142  1  0  0  0
 63143  1  0  0  0
 64144  1  0  0  0
 65145  1  0  0  0
 68 81  1  0  0  0
 71 73  2  0  0  0
 71 75  1  0  0  0
 71146  1  0  0  0
 72 74  2  0  0  0
 72 83  1  0  0  0
 72147  1  0  0  0
 73 74  1  0  0  0
 73 84  1  0  0  0
 74 85  1  0  0  0
 75 83  2  0  0  0
 75 86  1  0  0  0
 76148  1  0  0  0
 76149  1  0  0  0
 76150  1  0  0  0
 76 82  1  0  0  0
 77 82  1  0  0  0
 77151  1  0  0  0
 77152  1  0  0  0
 77153  1  0  0  0
 78 79  1  0  0  0
 78 81  1  0  0  0
 78154  1  0  0  0
 78155  1  0  0  0
 79 82  1  0  0  0
 79156  1  0  0  0
 79157  1  0  0  0
 80 82  1  0  0  0
 80 85  1  0  0  0
 80158  1  0  0  0
 80159  1  0  0  0
 81160  1  0  0  0
 81161  1  0  0  0
 83162  1  0  0  0
 84163  1  0  0  0
 84164  1  0  0  0
 85165  1  0  0  0
 86166  1  0  0  0
M  CHG  1  83   1
M  ISO  4   1 100  68 101  81 101  86 100
M  END
> <chiral flag>
0

> <version>
0

> <s_m_source_file>
/data/baiqing/PycharmProjects/Reinvent-master-3.2/result/LINK_invent/BTK/process_docking_weight1_custom_product_contain_oxygen_bond_distance_aromatic_linkinvent_7_9_3/rearranged_h_0143.sdf

> <i_m_source_file_index>
38

> <r_mmod_Potential_Energy-OPLS-2005>
166.572158813477

> <r_mmod_Stretch_Energy-OPLS-2005>
39.6514511108398

> <r_mmod_Bend_Energy-OPLS-2005>
341.637634277344

> <r_mmod_Torsional_Energy-OPLS-2005>
259.302276611328

> <r_mmod_Improper_Torsional_Energy-OPLS-2005>
12.9085493087769

> <r_mmod_Van_der_Waal_Energy-OPLS-2005>
175.587432861328

> <r_mmod_Electrostatic_Energy-OPLS-2005>
-228.29963684082

> <r_mmod_Solvation_Energy-OPLS-2005>
-442.525848388672

> <b_mmod_Minimization_Converged-OPLS-2005>
0

> <r_mmod_RMS_Derivative-OPLS-2005>
2.78739190101624

$$$$
38
                    3D
 Structure written by MMmdl.
160168  0  0  1  0            999 V2000
  -30.7037  -14.4290   20.6763 C   0  0  0  0  0  0
  -30.4388  -12.3210   19.3953 C   0  0  0  0  0  0
  -29.4932  -12.5367   18.1953 C   0  0  0  0  0  0
  -28.0163  -12.3831   18.6096 C   0  0  0  0  0  0
  -27.6709  -13.1982   19.8823 C   0  0  2  0  0  0
  -28.7090  -12.9203   20.9909 C   0  0  0  0  0  0
  -25.2630  -13.8143   20.5666 C   0  0  0  0  0  0
  -24.1860  -13.0435   20.9150 C   0  0  0  0  0  0
  -24.6397  -11.6896   20.8711 C   0  0  0  0  0  0
  -23.9055  -10.4290   21.0392 C   0  0  0  0  0  0
  -24.3607   -9.4210   21.9176 C   0  0  0  0  0  0
  -23.6285   -8.2246   22.0752 C   0  0  0  0  0  0
  -22.4269   -8.0279   21.3544 C   0  0  0  0  0  0
  -21.9899   -9.0250   20.4645 C   0  0  0  0  0  0
  -22.7224  -10.2131   20.3048 C   0  0  0  0  0  0
  -21.6853   -6.0731   22.5278 C   0  0  0  0  0  0
  -21.4012   -6.5637   23.8211 C   0  0  0  0  0  0
  -21.3658   -5.6790   24.9174 C   0  0  0  0  0  0
  -21.6045   -4.3053   24.7226 C   0  0  0  0  0  0
  -21.8820   -3.8144   23.4348 C   0  0  0  0  0  0
  -21.9194   -4.6960   22.3403 C   0  0  0  0  0  0
  -22.7885  -13.5243   21.1829 C   0  0  0  0  0  0
  -22.1663   -4.2145   21.0980 F   0  0  0  0  0  0
  -21.5631   -3.4537   25.7739 F   0  0  0  0  0  0
  -30.0538  -13.2494   20.4693 N   0  0  0  0  0  0
  -26.3070  -12.9297   20.3379 N   0  0  0  0  0  0
  -25.9325  -11.6462   20.5741 N   0  0  0  0  0  0
  -22.0523  -12.8238   22.0388 N   0  0  0  0  0  0
  -25.4377  -15.1858   20.4093 N   0  0  0  0  0  0
  -31.7149  -14.7705   20.0523 O   0  0  0  0  0  0
  -21.6638   -6.8873   21.4239 O   0  0  0  0  0  0
  -22.3569  -14.5554   20.6688 O   0  0  0  0  0  0
  -24.6132  -31.8688   23.2111 C   0  0  0  0  0  0
  -25.9026  -32.4831   23.8409 C   0  0  1  0  0  0
  -27.2430  -27.4407   20.0996 C   0  0  0  0  0  0
  -25.5888  -33.8627   24.2339 N   0  0  0  0  0  0
  -23.4031  -30.4910   21.5501 C   0  0  2  0  0  0
  -24.8548  -28.9554   20.1199 C   0  0  0  0  0  0
  -22.7412  -29.4657   22.4985 C   0  0  0  0  0  0
  -18.0276  -28.1373   22.8492 C   0  0  0  0  0  0
  -24.1484  -36.7315   23.2641 C   0  0  0  0  0  0
  -25.9316  -30.8328   21.3686 C   0  0  0  0  0  0
  -26.0120  -29.4636   20.7260 C   0  0  0  0  0  0
  -27.2093  -28.7094   20.7267 C   0  0  0  0  0  0
  -26.0754  -26.9519   19.4826 C   0  0  0  0  0  0
  -24.8794  -27.6943   19.4999 C   0  0  0  0  0  0
  -23.6155  -29.8217   20.1658 C   0  0  0  0  0  0
  -25.4102  -36.3118   24.0346 C   0  0  1  0  0  0
  -20.5868  -28.3659   23.1316 C   0  0  2  0  0  0
  -20.6767  -26.9397   22.5413 C   0  0  0  0  0  0
  -19.5745  -26.6382   21.5210 C   0  0  0  0  0  0
  -18.1923  -26.7920   22.1623 C   0  0  0  0  0  0
  -19.1528  -28.8832   23.2903 C   0  0  0  0  0  0
  -18.9460  -30.1440   23.8910 C   0  0  0  0  0  0
  -17.6464  -30.6583   24.0568 C   0  0  0  0  0  0
  -25.9029  -34.9480   23.5141 C   0  0  0  0  0  0
  -16.5353  -29.9089   23.6325 C   0  0  0  0  0  0
  -16.7267  -28.6504   23.0346 C   0  0  0  0  0  0
  -26.4459  -31.6605   25.0727 C   0  0  0  0  0  0
  -25.3726  -31.3715   26.1478 C   0  0  0  0  0  0
  -27.0293  -30.3051   24.6090 C   0  0  0  0  0  0
  -27.6040  -32.4320   25.7484 C   0  0  0  0  0  0
  -27.5580  -37.1809   24.8469 C   0  0  0  0  0  0
  -21.4140  -29.3030   22.3724 N   0  0  0  0  0  0
  -26.4293  -37.3795   23.9413 N   0  0  0  0  0  0
  -24.6668  -31.0790   22.1016 N   0  0  0  0  0  0
  -23.4183  -28.8200   23.3027 O   0  0  0  0  0  0
  -28.3697  -26.6531   20.0168 O   0  0  0  0  0  0
  -26.5593  -34.8931   22.4702 O   0  0  0  0  0  0
  -23.5321  -32.1439   23.7501 O   0  0  0  0  0  0
  -30.4371  -17.6297   21.0506 C   0  0  0  0  0  0
  -28.9059  -16.9016   22.6742 C   0  0  0  0  0  0
  -29.8720  -16.5268   21.7831 C   0  0  0  0  0  0
  -29.8691  -18.8507   21.3866 C   0  0  0  0  0  0
  -29.4686  -21.2246   20.9425 C   0  0  0  0  0  0
  -30.9456  -25.1831   22.3563 C   0  0  0  0  0  0
  -30.9838  -25.4553   19.8644 C   0  0  0  0  0  0
  -30.1928  -22.5650   20.6918 C   0  0  0  0  0  0
  -29.3200  -23.8418   20.9413 C   0  0  0  0  0  0
  -29.0744  -26.3989   21.2298 C   0  0  0  0  0  0
  -30.0735  -25.2049   21.0831 C   0  0  0  0  0  0
  -30.1994  -15.1413   21.6979 N   0  0  0  0  0  0
  -30.2138  -20.0931   20.9250 N   0  0  0  0  0  0
  -28.2452  -21.2232   21.1042 O   0  0  0  0  0  0
  -28.6445  -18.6144   22.6297 S   0  0  0  0  0  0
  -31.4768  -12.4595   19.0874 H   0  0  0  0  0  0
  -30.3710  -11.2928   19.7541 H   0  0  0  0  0  0
  -29.7310  -11.8313   17.3980 H   0  0  0  0  0  0
  -29.6526  -13.5325   17.7787 H   0  0  0  0  0  0
  -27.8258  -11.3237   18.7854 H   0  0  0  0  0  0
  -27.3627  -12.6765   17.7872 H   0  0  0  0  0  0
  -27.7332  -14.2548   19.6205 H   0  0  0  0  0  0
  -28.6833  -11.8659   21.2703 H   0  0  0  0  0  0
  -28.4352  -13.4550   21.9004 H   0  0  0  0  0  0
  -25.2756   -9.5691   22.4743 H   0  0  0  0  0  0
  -24.0000   -7.4639   22.7470 H   0  0  0  0  0  0
  -21.0832   -8.8764   19.8950 H   0  0  0  0  0  0
  -22.3683  -10.9665   19.6153 H   0  0  0  0  0  0
  -21.2000   -7.6144   23.9712 H   0  0  0  0  0  0
  -21.1480   -6.0521   25.9077 H   0  0  0  0  0  0
  -22.0601   -2.7606   23.2850 H   0  0  0  0  0  0
  -22.4134  -11.9895   22.4773 H   0  0  0  0  0  0
  -21.1143  -13.1267   22.2592 H   0  0  0  0  0  0
  -24.6780  -15.8478   20.5243 H   0  0  0  0  0  0
  -26.3056  -15.6242   20.1262 H   0  0  0  0  0  0
  -26.7104  -32.5558   23.1185 H   0  0  0  0  0  0
  -25.0041  -33.9795   25.0486 H   0  0  0  0  0  0
  -22.6914  -31.3070   21.4087 H   0  0  0  0  0  0
  -23.3746  -35.9651   23.3319 H   0  0  0  0  0  0
  -24.3585  -36.8906   22.2054 H   0  0  0  0  0  0
  -23.7239  -37.6527   23.6638 H   0  0  0  0  0  0
  -26.0424  -31.5945   20.5953 H   0  0  0  0  0  0
  -26.8203  -30.8921   21.9849 H   0  0  0  0  0  0
  -28.1018  -29.1080   21.1884 H   0  0  0  0  0  0
  -26.0942  -25.9878   18.9939 H   0  0  0  0  0  0
  -23.9926  -27.2957   19.0265 H   0  0  0  0  0  0
  -23.7254  -30.5962   19.4057 H   0  0  0  0  0  0
  -22.7404  -29.2412   19.8681 H   0  0  0  0  0  0
  -25.1276  -36.1989   25.0841 H   0  0  0  0  0  0
  -20.9965  -28.3220   24.1435 H   0  0  0  0  0  0
  -20.5673  -26.2266   23.3596 H   0  0  0  0  0  0
  -21.6636  -26.7437   22.1204 H   0  0  0  0  0  0
  -19.6907  -25.6299   21.1227 H   0  0  0  0  0  0
  -19.6686  -27.3204   20.6751 H   0  0  0  0  0  0
  -17.4191  -26.6675   21.4025 H   0  0  0  0  0  0
  -18.0327  -26.0055   22.9014 H   0  0  0  0  0  0
  -19.7939  -30.7249   24.2285 H   0  0  0  0  0  0
  -17.5024  -31.6267   24.5165 H   0  0  0  0  0  0
  -15.5355  -30.2999   23.7642 H   0  0  0  0  0  0
  -15.8665  -28.0835   22.7046 H   0  0  0  0  0  0
  -24.5896  -30.7062   25.7821 H   0  0  0  0  0  0
  -24.8916  -32.2875   26.4921 H   0  0  0  0  0  0
  -25.8073  -30.8891   27.0240 H   0  0  0  0  0  0
  -26.2838  -29.6820   24.1132 H   0  0  0  0  0  0
  -27.4067  -29.7271   25.4538 H   0  0  0  0  0  0
  -27.8671  -30.4387   23.9241 H   0  0  0  0  0  0
  -27.2665  -33.3611   26.2091 H   0  0  0  0  0  0
  -28.3829  -32.6894   25.0294 H   0  0  0  0  0  0
  -28.0729  -31.8425   26.5374 H   0  0  0  0  0  0
  -28.2605  -38.0098   24.7505 H   0  0  0  0  0  0
  -28.1067  -36.2629   24.6305 H   0  0  0  0  0  0
  -27.2303  -37.1473   25.8875 H   0  0  0  0  0  0
  -20.9295  -29.8761   21.6959 H   0  0  0  0  0  0
  -26.0189  -38.2878   24.1406 H   0  0  0  0  0  0
  -31.2244  -17.4961   20.3217 H   0  0  0  0  0  0
  -28.3200  -16.2952   23.3548 H   0  0  0  0  0  0
  -31.7428  -24.4426   22.3026 H   0  0  0  0  0  0
  -30.3505  -24.9628   23.2434 H   0  0  0  0  0  0
  -31.4288  -26.1465   22.5228 H   0  0  0  0  0  0
  -31.7844  -24.7189   19.7966 H   0  0  0  0  0  0
  -31.4535  -26.4383   19.9174 H   0  0  0  0  0  0
  -30.4209  -25.4135   18.9312 H   0  0  0  0  0  0
  -30.5741  -22.5689   19.6705 H   0  0  0  0  0  0
  -31.0636  -22.5714   21.3450 H   0  0  0  0  0  0
  -28.7187  -23.6954   21.8404 H   0  0  0  0  0  0
  -28.5987  -23.9202   20.1265 H   0  0  0  0  0  0
  -29.6143  -27.3059   21.5064 H   0  0  0  0  0  0
  -28.3688  -26.1962   22.0379 H   0  0  0  0  0  0
  -29.6213  -14.5578   22.2823 H   0  0  0  0  0  0
  -31.1646  -20.1982   20.5963 H   0  0  0  0  0  0
  1 25  1  0  0  0
  1 30  2  0  0  0
  1 82  1  0  0  0
  2  3  1  0  0  0
  2 25  1  0  0  0
  2 86  1  0  0  0
  2 87  1  0  0  0
  3  4  1  0  0  0
  3 88  1  0  0  0
  3 89  1  0  0  0
  4  5  1  0  0  0
  4 90  1  0  0  0
  4 91  1  0  0  0
  5  6  1  0  0  0
  5 26  1  0  0  0
  5 92  1  0  0  0
  6 25  1  0  0  0
  6 93  1  0  0  0
  6 94  1  0  0  0
  7  8  2  0  0  0
  7 26  1  0  0  0
  7 29  1  0  0  0
  8  9  1  0  0  0
  8 22  1  0  0  0
  9 10  1  0  0  0
  9 27  2  0  0  0
 10 11  2  0  0  0
 10 15  1  0  0  0
 11 12  1  0  0  0
 11 95  1  0  0  0
 12 13  2  0  0  0
 12 96  1  0  0  0
 13 14  1  0  0  0
 13 31  1  0  0  0
 14 15  2  0  0  0
 14 97  1  0  0  0
 15 98  1  0  0  0
 16 17  2  0  0  0
 16 21  1  0  0  0
 16 31  1  0  0  0
 17 18  1  0  0  0
 17 99  1  0  0  0
 18 19  2  0  0  0
 18100  1  0  0  0
 19 20  1  0  0  0
 19 24  1  0  0  0
 20 21  2  0  0  0
 20101  1  0  0  0
 21 23  1  0  0  0
 22 28  1  0  0  0
 22 32  2  0  0  0
 26 27  1  0  0  0
 28102  1  0  0  0
 28103  1  0  0  0
 29104  1  0  0  0
 29105  1  0  0  0
 33 34  1  0  0  0
 33 66  1  0  0  0
 33 70  2  0  0  0
 34 36  1  0  0  0
 34 59  1  0  0  0
 34106  1  0  0  0
 35 44  2  0  0  0
 35 45  1  0  0  0
 35 68  1  0  0  0
 36 56  1  0  0  0
 36107  1  0  0  0
 37 39  1  0  0  0
 37 47  1  0  0  0
 37 66  1  0  0  0
 37108  1  0  0  0
 38 43  2  0  0  0
 38 46  1  0  0  0
 38 47  1  0  0  0
 39 64  1  0  0  0
 39 67  2  0  0  0
 40 52  1  0  0  0
 40 53  2  0  0  0
 40 58  1  0  0  0
 41109  1  0  0  0
 41110  1  0  0  0
 41111  1  0  0  0
 41 48  1  0  0  0
 42 43  1  0  0  0
 42 66  1  0  0  0
 42112  1  0  0  0
 42113  1  0  0  0
 43 44  1  0  0  0
 44114  1  0  0  0
 45 46  2  0  0  0
 45115  1  0  0  0
 46116  1  0  0  0
 47117  1  0  0  0
 47118  1  0  0  0
 48 56  1  0  0  0
 48 65  1  0  0  0
 48119  1  0  0  0
 49 50  1  0  0  0
 49 53  1  0  0  0
 49 64  1  0  0  0
 49120  1  0  0  0
 50 51  1  0  0  0
 50121  1  0  0  0
 50122  1  0  0  0
 51 52  1  0  0  0
 51123  1  0  0  0
 51124  1  0  0  0
 52125  1  0  0  0
 52126  1  0  0  0
 53 54  1  0  0  0
 54 55  2  0  0  0
 54127  1  0  0  0
 55 57  1  0  0  0
 55128  1  0  0  0
 56 69  2  0  0  0
 57 58  2  0  0  0
 57129  1  0  0  0
 58130  1  0  0  0
 59 60  1  0  0  0
 59 61  1  0  0  0
 59 62  1  0  0  0
 60131  1  0  0  0
 60132  1  0  0  0
 60133  1  0  0  0
 61134  1  0  0  0
 61135  1  0  0  0
 61136  1  0  0  0
 62137  1  0  0  0
 62138  1  0  0  0
 62139  1  0  0  0
 63 65  1  0  0  0
 63140  1  0  0  0
 63141  1  0  0  0
 63142  1  0  0  0
 64143  1  0  0  0
 65144  1  0  0  0
 68 80  1  0  0  0
 71 73  1  0  0  0
 71 74  2  0  0  0
 71145  1  0  0  0
 72 73  2  0  0  0
 72 85  1  0  0  0
 72146  1  0  0  0
 73 82  1  0  0  0
 74 83  1  0  0  0
 74 85  1  0  0  0
 75 78  1  0  0  0
 75 83  1  0  0  0
 75 84  2  0  0  0
 76147  1  0  0  0
 76148  1  0  0  0
 76149  1  0  0  0
 76 81  1  0  0  0
 77 81  1  0  0  0
 77150  1  0  0  0
 77151  1  0  0  0
 77152  1  0  0  0
 78 79  1  0  0  0
 78153  1  0  0  0
 78154  1  0  0  0
 79 81  1  0  0  0
 79155  1  0  0  0
 79156  1  0  0  0
 80 81  1  0  0  0
 80157  1  0  0  0
 80158  1  0  0  0
 82159  1  0  0  0
 83160  1  0  0  0
M  ISO  4   1 100  68 101  80 101  82 100
M  END
> <chiral flag>
0

> <version>
0

> <s_m_source_file>
/data/baiqing/PycharmProjects/Reinvent-master-3.2/result/LINK_invent/BTK/process_docking_weight1_custom_product_contain_oxygen_bond_distance_aromatic_linkinvent_7_9_3/rearranged_h_0143.sdf

> <i_m_source_file_index>
39

> <r_mmod_Potential_Energy-OPLS-2005>
-87.641487121582

> <r_mmod_Stretch_Energy-OPLS-2005>
40.1663932800293

> <r_mmod_Bend_Energy-OPLS-2005>
118.53401184082

> <r_mmod_Torsional_Energy-OPLS-2005>
248.020416259766

> <r_mmod_Improper_Torsional_Energy-OPLS-2005>
4.93762350082397

> <r_mmod_Van_der_Waal_Energy-OPLS-2005>
132.465850830078

> <r_mmod_Electrostatic_Energy-OPLS-2005>
-412.572021484375

> <r_mmod_Solvation_Energy-OPLS-2005>
-229.89826965332

> <b_mmod_Minimization_Converged-OPLS-2005>
0

> <r_mmod_RMS_Derivative-OPLS-2005>
0.572433829307556

$$$$
39
                    3D
 Structure written by MMmdl.
161169  0  0  1  0            999 V2000
  -30.7105  -14.5447   20.5280 C   0  0  0  0  0  0
  -30.4207  -12.3470   19.4318 C   0  0  0  0  0  0
  -29.4914  -12.4885   18.2094 C   0  0  0  0  0  0
  -28.0159  -12.3468   18.6302 C   0  0  0  0  0  0
  -27.6520  -13.2119   19.8669 C   0  0  2  0  0  0
  -28.7038  -13.0712   20.9893 C   0  0  0  0  0  0
  -25.2564  -13.8178   20.5713 C   0  0  0  0  0  0
  -24.1828  -13.0443   20.9195 C   0  0  0  0  0  0
  -24.6387  -11.6911   20.8758 C   0  0  0  0  0  0
  -23.9056  -10.4294   21.0419 C   0  0  0  0  0  0
  -24.3602   -9.4201   21.9192 C   0  0  0  0  0  0
  -23.6282   -8.2229   22.0743 C   0  0  0  0  0  0
  -22.4268   -8.0276   21.3533 C   0  0  0  0  0  0
  -21.9901   -9.0253   20.4637 C   0  0  0  0  0  0
  -22.7230  -10.2141   20.3064 C   0  0  0  0  0  0
  -21.6851   -6.0734   22.5283 C   0  0  0  0  0  0
  -21.4011   -6.5630   23.8221 C   0  0  0  0  0  0
  -21.3651   -5.6784   24.9183 C   0  0  0  0  0  0
  -21.6051   -4.3048   24.7232 C   0  0  0  0  0  0
  -21.8821   -3.8144   23.4354 C   0  0  0  0  0  0
  -21.9190   -4.6955   22.3407 C   0  0  0  0  0  0
  -22.7844  -13.5229   21.1843 C   0  0  0  0  0  0
  -22.1656   -4.2144   21.0986 F   0  0  0  0  0  0
  -21.5628   -3.4527   25.7742 F   0  0  0  0  0  0
  -30.0224  -13.3714   20.4121 N   0  0  0  0  0  0
  -26.2998  -12.9343   20.3393 N   0  0  0  0  0  0
  -25.9319  -11.6504   20.5804 N   0  0  0  0  0  0
  -22.0479  -12.8238   22.0410 N   0  0  0  0  0  0
  -25.4282  -15.1905   20.4114 N   0  0  0  0  0  0
  -31.8648  -14.6697   20.1147 O   0  0  0  0  0  0
  -21.6631   -6.8870   21.4243 O   0  0  0  0  0  0
  -22.3534  -14.5531   20.6682 O   0  0  0  0  0  0
  -24.6176  -31.8636   23.2085 C   0  0  0  0  0  0
  -25.9064  -32.4797   23.8382 C   0  0  1  0  0  0
  -27.2271  -27.3854   20.0996 C   0  0  0  0  0  0
  -25.5924  -33.8602   24.2296 N   0  0  0  0  0  0
  -23.4077  -30.4864   21.5495 C   0  0  2  0  0  0
  -24.8549  -28.9538   20.1073 C   0  0  0  0  0  0
  -22.7417  -29.4608   22.4963 C   0  0  0  0  0  0
  -18.0255  -28.1379   22.8473 C   0  0  0  0  0  0
  -24.1487  -36.7305   23.2630 C   0  0  0  0  0  0
  -25.9421  -30.8122   21.3732 C   0  0  0  0  0  0
  -26.0169  -29.4467   20.7122 C   0  0  0  0  0  0
  -27.2042  -28.6709   20.7035 C   0  0  0  0  0  0
  -26.0461  -26.9291   19.4683 C   0  0  0  0  0  0
  -24.8680  -27.6989   19.4783 C   0  0  0  0  0  0
  -23.6199  -29.8268   20.1609 C   0  0  0  0  0  0
  -25.4108  -36.3084   24.0318 C   0  0  1  0  0  0
  -20.5848  -28.3654   23.1302 C   0  0  2  0  0  0
  -20.6750  -26.9382   22.5406 C   0  0  0  0  0  0
  -19.5743  -26.6364   21.5199 C   0  0  0  0  0  0
  -18.1919  -26.7921   22.1613 C   0  0  0  0  0  0
  -19.1506  -28.8838   23.2888 C   0  0  0  0  0  0
  -18.9418  -30.1449   23.8893 C   0  0  0  0  0  0
  -17.6420  -30.6583   24.0566 C   0  0  0  0  0  0
  -25.9038  -34.9456   23.5093 C   0  0  0  0  0  0
  -16.5313  -29.9077   23.6339 C   0  0  0  0  0  0
  -16.7241  -28.6508   23.0331 C   0  0  0  0  0  0
  -26.4497  -31.6605   25.0731 C   0  0  0  0  0  0
  -25.3779  -31.3716   26.1489 C   0  0  0  0  0  0
  -27.0312  -30.3031   24.6150 C   0  0  0  0  0  0
  -27.6064  -32.4326   25.7515 C   0  0  0  0  0  0
  -27.5571  -37.1808   24.8457 C   0  0  0  0  0  0
  -21.4134  -29.3027   22.3723 N   0  0  0  0  0  0
  -26.4284  -37.3774   23.9405 N   0  0  0  0  0  0
  -24.6736  -31.0685   22.1016 N   0  0  0  0  0  0
  -23.4171  -28.8118   23.2995 O   0  0  0  0  0  0
  -28.3835  -26.6142   20.1483 O   0  0  0  0  0  0
  -26.5580  -34.8909   22.4645 O   0  0  0  0  0  0
  -23.5352  -32.1420   23.7439 O   0  0  0  0  0  0
  -29.0998  -16.5514   18.8902 C   0  0  0  0  0  0
  -29.8031  -18.1122   20.6150 C   0  0  0  0  0  0
  -28.6615  -17.6256   18.0940 C   0  0  0  0  0  0
  -29.6561  -16.7629   20.1682 C   0  0  0  0  0  0
  -29.4099  -19.2250   19.8058 C   0  0  0  0  0  0
  -28.8052  -18.9628   18.5458 C   0  0  0  0  0  0
  -29.1013  -21.7387   20.0677 C   0  0  0  0  0  0
  -28.0731  -17.3029   16.7311 C   0  0  0  0  0  0
  -27.0430  -20.2022   17.6038 C   0  0  0  0  0  0
  -29.9330  -23.0391   19.8940 C   0  0  0  0  0  0
  -29.4446  -24.3868   20.5333 C   0  0  0  0  0  0
  -28.3198  -25.1966   19.8251 C   0  0  0  0  0  0
  -29.7907  -20.5715   20.1747 N   0  0  0  0  0  0
  -30.0428  -15.6337   20.9819 N   0  0  0  0  0  0
  -27.8732  -21.8034   20.1373 O   0  0  0  0  0  0
  -28.4483  -20.0050   17.7252 O   0  0  0  0  0  0
  -31.4628  -12.4435   19.1239 H   0  0  0  0  0  0
  -30.3325  -11.3531   19.8718 H   0  0  0  0  0  0
  -29.7343  -11.7336   17.4607 H   0  0  0  0  0  0
  -29.6540  -13.4533   17.7279 H   0  0  0  0  0  0
  -27.8424  -11.2942   18.8550 H   0  0  0  0  0  0
  -27.3575  -12.5869   17.7945 H   0  0  0  0  0  0
  -27.6625  -14.2467   19.5376 H   0  0  0  0  0  0
  -28.6964  -12.0604   21.3987 H   0  0  0  0  0  0
  -28.4666  -13.7381   21.8193 H   0  0  0  0  0  0
  -25.2734   -9.5679   22.4784 H   0  0  0  0  0  0
  -23.9990   -7.4615   22.7456 H   0  0  0  0  0  0
  -21.0831   -8.8785   19.8940 H   0  0  0  0  0  0
  -22.3682  -10.9688   19.6190 H   0  0  0  0  0  0
  -21.2003   -7.6140   23.9727 H   0  0  0  0  0  0
  -21.1464   -6.0506   25.9086 H   0  0  0  0  0  0
  -22.0605   -2.7600   23.2863 H   0  0  0  0  0  0
  -22.4064  -11.9908   22.4839 H   0  0  0  0  0  0
  -21.1096  -13.1288   22.2583 H   0  0  0  0  0  0
  -24.6667  -15.8506   20.5226 H   0  0  0  0  0  0
  -26.2968  -15.6294   20.1324 H   0  0  0  0  0  0
  -26.7121  -32.5485   23.1120 H   0  0  0  0  0  0
  -25.0125  -33.9779   25.0475 H   0  0  0  0  0  0
  -22.6990  -31.3054   21.4136 H   0  0  0  0  0  0
  -23.3735  -35.9654   23.3297 H   0  0  0  0  0  0
  -24.3565  -36.8919   22.2041 H   0  0  0  0  0  0
  -23.7268  -37.6517   23.6656 H   0  0  0  0  0  0
  -26.0679  -31.5843   20.6132 H   0  0  0  0  0  0
  -26.8222  -30.8532   22.0031 H   0  0  0  0  0  0
  -28.0987  -29.0472   21.1804 H   0  0  0  0  0  0
  -26.0090  -25.9781   18.9575 H   0  0  0  0  0  0
  -23.9777  -27.3231   18.9932 H   0  0  0  0  0  0
  -23.7366  -30.6090   19.4099 H   0  0  0  0  0  0
  -22.7432  -29.2529   19.8542 H   0  0  0  0  0  0
  -25.1295  -36.1929   25.0808 H   0  0  0  0  0  0
  -20.9915  -28.3194   24.1431 H   0  0  0  0  0  0
  -20.5627  -26.2253   23.3588 H   0  0  0  0  0  0
  -21.6626  -26.7408   22.1223 H   0  0  0  0  0  0
  -19.6921  -25.6273   21.1238 H   0  0  0  0  0  0
  -19.6710  -27.3166   20.6728 H   0  0  0  0  0  0
  -17.4191  -26.6643   21.4022 H   0  0  0  0  0  0
  -18.0325  -26.0079   22.9025 H   0  0  0  0  0  0
  -19.7896  -30.7266   24.2251 H   0  0  0  0  0  0
  -17.4957  -31.6264   24.5156 H   0  0  0  0  0  0
  -15.5314  -30.2969   23.7671 H   0  0  0  0  0  0
  -15.8626  -28.0860   22.7018 H   0  0  0  0  0  0
  -24.5967  -30.7042   25.7838 H   0  0  0  0  0  0
  -24.8974  -32.2870   26.4954 H   0  0  0  0  0  0
  -25.8164  -30.8894   27.0236 H   0  0  0  0  0  0
  -26.2849  -29.6813   24.1187 H   0  0  0  0  0  0
  -27.4018  -29.7264   25.4638 H   0  0  0  0  0  0
  -27.8726  -30.4306   23.9332 H   0  0  0  0  0  0
  -27.2672  -33.3605   26.2134 H   0  0  0  0  0  0
  -28.3875  -32.6917   25.0358 H   0  0  0  0  0  0
  -28.0740  -31.8435   26.5415 H   0  0  0  0  0  0
  -28.2583  -38.0106   24.7484 H   0  0  0  0  0  0
  -28.1073  -36.2637   24.6309 H   0  0  0  0  0  0
  -27.2285  -37.1474   25.8857 H   0  0  0  0  0  0
  -20.9292  -29.8793   21.6989 H   0  0  0  0  0  0
  -26.0158  -38.2836   24.1442 H   0  0  0  0  0  0
  -29.0066  -15.5530   18.4935 H   0  0  0  0  0  0
  -30.2542  -18.3012   21.5786 H   0  0  0  0  0  0
  -28.4803  -16.3718   16.3360 H   0  0  0  0  0  0
  -28.2875  -18.0844   16.0026 H   0  0  0  0  0  0
  -26.9919  -17.1863   16.8110 H   0  0  0  0  0  0
  -26.6134  -19.6046   16.8008 H   0  0  0  0  0  0
  -26.8459  -21.2499   17.3743 H   0  0  0  0  0  0
  -26.5160  -19.9637   18.5294 H   0  0  0  0  0  0
  -30.0806  -23.1927   18.8247 H   0  0  0  0  0  0
  -30.9281  -22.8372   20.2919 H   0  0  0  0  0  0
  -30.3204  -25.0360   20.5691 H   0  0  0  0  0  0
  -29.1674  -24.2236   21.5743 H   0  0  0  0  0  0
  -27.3711  -24.7508   20.1256 H   0  0  0  0  0  0
  -28.4044  -25.0908   18.7430 H   0  0  0  0  0  0
  -30.7763  -20.6868   20.3663 H   0  0  0  0  0  0
  -30.3179  -15.8792   21.9222 H   0  0  0  0  0  0
  1 25  1  0  0  0
  1 30  2  0  0  0
  1 84  1  0  0  0
  2  3  1  0  0  0
  2 25  1  0  0  0
  2 87  1  0  0  0
  2 88  1  0  0  0
  3  4  1  0  0  0
  3 89  1  0  0  0
  3 90  1  0  0  0
  4  5  1  0  0  0
  4 91  1  0  0  0
  4 92  1  0  0  0
  5  6  1  0  0  0
  5 26  1  0  0  0
  5 93  1  0  0  0
  6 25  1  0  0  0
  6 94  1  0  0  0
  6 95  1  0  0  0
  7  8  2  0  0  0
  7 26  1  0  0  0
  7 29  1  0  0  0
  8  9  1  0  0  0
  8 22  1  0  0  0
  9 10  1  0  0  0
  9 27  2  0  0  0
 10 11  2  0  0  0
 10 15  1  0  0  0
 11 12  1  0  0  0
 11 96  1  0  0  0
 12 13  2  0  0  0
 12 97  1  0  0  0
 13 14  1  0  0  0
 13 31  1  0  0  0
 14 15  2  0  0  0
 14 98  1  0  0  0
 15 99  1  0  0  0
 16 17  2  0  0  0
 16 21  1  0  0  0
 16 31  1  0  0  0
 17 18  1  0  0  0
 17100  1  0  0  0
 18 19  2  0  0  0
 18101  1  0  0  0
 19 20  1  0  0  0
 19 24  1  0  0  0
 20 21  2  0  0  0
 20102  1  0  0  0
 21 23  1  0  0  0
 22 28  1  0  0  0
 22 32  2  0  0  0
 26 27  1  0  0  0
 28103  1  0  0  0
 28104  1  0  0  0
 29105  1  0  0  0
 29106  1  0  0  0
 33 34  1  0  0  0
 33 66  1  0  0  0
 33 70  2  0  0  0
 34 36  1  0  0  0
 34 59  1  0  0  0
 34107  1  0  0  0
 35 44  2  0  0  0
 35 45  1  0  0  0
 35 68  1  0  0  0
 36 56  1  0  0  0
 36108  1  0  0  0
 37 39  1  0  0  0
 37 47  1  0  0  0
 37 66  1  0  0  0
 37109  1  0  0  0
 38 43  2  0  0  0
 38 46  1  0  0  0
 38 47  1  0  0  0
 39 64  1  0  0  0
 39 67  2  0  0  0
 40 52  1  0  0  0
 40 53  2  0  0  0
 40 58  1  0  0  0
 41110  1  0  0  0
 41111  1  0  0  0
 41112  1  0  0  0
 41 48  1  0  0  0
 42 43  1  0  0  0
 42 66  1  0  0  0
 42113  1  0  0  0
 42114  1  0  0  0
 43 44  1  0  0  0
 44115  1  0  0  0
 45 46  2  0  0  0
 45116  1  0  0  0
 46117  1  0  0  0
 47118  1  0  0  0
 47119  1  0  0  0
 48 56  1  0  0  0
 48 65  1  0  0  0
 48120  1  0  0  0
 49 50  1  0  0  0
 49 53  1  0  0  0
 49 64  1  0  0  0
 49121  1  0  0  0
 50 51  1  0  0  0
 50122  1  0  0  0
 50123  1  0  0  0
 51 52  1  0  0  0
 51124  1  0  0  0
 51125  1  0  0  0
 52126  1  0  0  0
 52127  1  0  0  0
 53 54  1  0  0  0
 54 55  2  0  0  0
 54128  1  0  0  0
 55 57  1  0  0  0
 55129  1  0  0  0
 56 69  2  0  0  0
 57 58  2  0  0  0
 57130  1  0  0  0
 58131  1  0  0  0
 59 60  1  0  0  0
 59 61  1  0  0  0
 59 62  1  0  0  0
 60132  1  0  0  0
 60133  1  0  0  0
 60134  1  0  0  0
 61135  1  0  0  0
 61136  1  0  0  0
 61137  1  0  0  0
 62138  1  0  0  0
 62139  1  0  0  0
 62140  1  0  0  0
 63 65  1  0  0  0
 63141  1  0  0  0
 63142  1  0  0  0
 63143  1  0  0  0
 64144  1  0  0  0
 65145  1  0  0  0
 68 82  1  0  0  0
 71 73  2  0  0  0
 71 74  1  0  0  0
 71146  1  0  0  0
 72 74  2  0  0  0
 72 75  1  0  0  0
 72147  1  0  0  0
 73 76  1  0  0  0
 73 78  1  0  0  0
 74 84  1  0  0  0
 75 76  2  0  0  0
 75 83  1  0  0  0
 76 86  1  0  0  0
 77 80  1  0  0  0
 77 83  1  0  0  0
 77 85  2  0  0  0
 78148  1  0  0  0
 78149  1  0  0  0
 78150  1  0  0  0
 79 86  1  0  0  0
 79151  1  0  0  0
 79152  1  0  0  0
 79153  1  0  0  0
 80 81  1  0  0  0
 80154  1  0  0  0
 80155  1  0  0  0
 81 82  1  0  0  0
 81156  1  0  0  0
 81157  1  0  0  0
 82158  1  0  0  0
 82159  1  0  0  0
 83160  1  0  0  0
 84161  1  0  0  0
M  ISO  4   1 100  68 101  82 101  84 100
M  END
> <chiral flag>
0

> <version>
0

> <s_m_source_file>
/data/baiqing/PycharmProjects/Reinvent-master-3.2/result/LINK_invent/BTK/process_docking_weight1_custom_product_contain_oxygen_bond_distance_aromatic_linkinvent_7_9_3/rearranged_h_0143.sdf

> <i_m_source_file_index>
40

> <r_mmod_Potential_Energy-OPLS-2005>
-5.16182422637939

> <r_mmod_Stretch_Energy-OPLS-2005>
52.2743721008301

> <r_mmod_Bend_Energy-OPLS-2005>
122.212013244629

> <r_mmod_Torsional_Energy-OPLS-2005>
331.871826171875

> <r_mmod_Improper_Torsional_Energy-OPLS-2005>
7.31004667282104

> <r_mmod_Van_der_Waal_Energy-OPLS-2005>
144.667449951172

> <r_mmod_Electrostatic_Energy-OPLS-2005>
-458.296325683594

> <r_mmod_Solvation_Energy-OPLS-2005>
-231.203796386719

> <b_mmod_Minimization_Converged-OPLS-2005>
0

> <r_mmod_RMS_Derivative-OPLS-2005>
2.09255695343018

$$$$
40
                    3D
 Structure written by MMmdl.
174184  0  0  1  0            999 V2000
  -30.7440  -14.4185   20.5494 C   0  0  0  0  0  0
  -30.4145  -12.2706   19.4146 C   0  0  0  0  0  0
  -29.4905  -12.4926   18.1984 C   0  0  0  0  0  0
  -28.0122  -12.3564   18.6123 C   0  0  0  0  0  0
  -27.6610  -13.1945   19.8697 C   0  0  2  0  0  0
  -28.7069  -12.9916   20.9929 C   0  0  0  0  0  0
  -25.2549  -13.8072   20.5602 C   0  0  0  0  0  0
  -24.1822  -13.0386   20.9176 C   0  0  0  0  0  0
  -24.6379  -11.6855   20.8750 C   0  0  0  0  0  0
  -23.9044  -10.4253   21.0413 C   0  0  0  0  0  0
  -24.3602   -9.4178   21.9191 C   0  0  0  0  0  0
  -23.6270   -8.2224   22.0762 C   0  0  0  0  0  0
  -22.4250   -8.0260   21.3543 C   0  0  0  0  0  0
  -21.9880   -9.0240   20.4650 C   0  0  0  0  0  0
  -22.7217  -10.2114   20.3061 C   0  0  0  0  0  0
  -21.6846   -6.0713   22.5267 C   0  0  0  0  0  0
  -21.4018   -6.5624   23.8199 C   0  0  0  0  0  0
  -21.3662   -5.6781   24.9162 C   0  0  0  0  0  0
  -21.6045   -4.3042   24.7215 C   0  0  0  0  0  0
  -21.8824   -3.8133   23.4337 C   0  0  0  0  0  0
  -21.9195   -4.6945   22.3392 C   0  0  0  0  0  0
  -22.7862  -13.5226   21.1818 C   0  0  0  0  0  0
  -22.1666   -4.2138   21.0975 F   0  0  0  0  0  0
  -21.5628   -3.4522   25.7733 F   0  0  0  0  0  0
  -30.0439  -13.2601   20.4360 N   0  0  0  0  0  0
  -26.3015  -12.9248   20.3336 N   0  0  0  0  0  0
  -25.9308  -11.6421   20.5784 N   0  0  0  0  0  0
  -22.0487  -12.8248   22.0377 N   0  0  0  0  0  0
  -25.4151  -15.1756   20.3826 N   0  0  0  0  0  0
  -31.9096  -14.5375   20.1750 O   0  0  0  0  0  0
  -21.6625   -6.8849   21.4228 O   0  0  0  0  0  0
  -22.3571  -14.5537   20.6660 O   0  0  0  0  0  0
  -24.6082  -31.8725   23.2143 C   0  0  0  0  0  0
  -25.8993  -32.4849   23.8427 C   0  0  1  0  0  0
  -27.2417  -27.4951   20.0989 C   0  0  0  0  0  0
  -25.5880  -33.8648   24.2369 N   0  0  0  0  0  0
  -23.3945  -30.4934   21.5540 C   0  0  2  0  0  0
  -24.8445  -28.9639   20.1195 C   0  0  0  0  0  0
  -22.7381  -29.4670   22.5031 C   0  0  0  0  0  0
  -18.0262  -28.1379   22.8498 C   0  0  0  0  0  0
  -24.1486  -36.7325   23.2638 C   0  0  0  0  0  0
  -25.9146  -30.8580   21.3577 C   0  0  0  0  0  0
  -25.9974  -29.4937   20.7134 C   0  0  0  0  0  0
  -27.2018  -28.7644   20.7027 C   0  0  0  0  0  0
  -26.0808  -26.9625   19.5033 C   0  0  0  0  0  0
  -24.8774  -27.6940   19.5134 C   0  0  0  0  0  0
  -23.6016  -29.8221   20.1686 C   0  0  0  0  0  0
  -25.4103  -36.3132   24.0348 C   0  0  1  0  0  0
  -20.5854  -28.3656   23.1341 C   0  0  2  0  0  0
  -20.6754  -26.9398   22.5427 C   0  0  0  0  0  0
  -19.5735  -26.6394   21.5217 C   0  0  0  0  0  0
  -18.1911  -26.7928   22.1626 C   0  0  0  0  0  0
  -19.1510  -28.8834   23.2918 C   0  0  0  0  0  0
  -18.9439  -30.1443   23.8924 C   0  0  0  0  0  0
  -17.6444  -30.6585   24.0570 C   0  0  0  0  0  0
  -25.9020  -34.9491   23.5153 C   0  0  0  0  0  0
  -16.5337  -29.9090   23.6322 C   0  0  0  0  0  0
  -16.7254  -28.6508   23.0343 C   0  0  0  0  0  0
  -26.4450  -31.6605   25.0731 C   0  0  0  0  0  0
  -25.3732  -31.3685   26.1489 C   0  0  0  0  0  0
  -27.0273  -30.3065   24.6046 C   0  0  0  0  0  0
  -27.6057  -32.4301   25.7472 C   0  0  0  0  0  0
  -27.5583  -37.1817   24.8462 C   0  0  0  0  0  0
  -21.4118  -29.3023   22.3763 N   0  0  0  0  0  0
  -26.4296  -37.3805   23.9411 N   0  0  0  0  0  0
  -24.6574  -31.0879   22.1016 N   0  0  0  0  0  0
  -23.4173  -28.8221   23.3058 O   0  0  0  0  0  0
  -28.4125  -26.7933   20.0654 O   0  0  0  0  0  0
  -26.5576  -34.8925   22.4710 O   0  0  0  0  0  0
  -23.5289  -32.1452   23.7571 O   0  0  0  0  0  0
  -28.2977  -22.6840   15.4081 C   0  0  0  0  0  0
  -27.5399  -17.4884   18.9758 C   0  0  0  0  0  0
  -28.9341  -23.2431   16.5569 C   0  0  0  0  0  0
  -28.2001  -16.8466   20.0440 C   0  0  0  0  0  0
  -29.6002  -17.4218   17.6789 C   0  0  0  0  0  0
  -29.2187  -21.0402   17.7337 C   0  0  0  0  0  0
  -28.1612  -21.3025   15.4872 C   0  0  0  0  0  0
  -28.2295  -17.7274   17.7700 C   0  0  0  0  0  0
  -28.5882  -20.5211   16.6019 C   0  0  0  0  0  0
  -29.3657  -22.4599   17.6934 C   0  0  0  0  0  0
  -29.5299  -16.3924   19.8980 C   0  0  0  0  0  0
  -30.2546  -16.7656   18.7316 C   0  0  0  0  0  0
  -27.5798  -20.1260   14.8126 C   0  0  0  0  0  0
  -27.5457  -18.2462   16.5877 C   0  0  0  0  0  0
  -29.5443  -23.6475   21.7774 C   0  0  0  0  0  0
  -30.9478  -25.3652   20.5771 C   0  0  0  0  0  0
  -29.0736  -24.1756   19.3360 C   0  0  0  0  0  0
  -28.5370  -25.8436   21.1166 C   0  0  0  0  0  0
  -29.5404  -24.7471   20.6963 C   0  0  0  0  0  0
  -28.0383  -19.3365   15.9676 N   0  0  0  0  0  0
  -30.0189  -15.4926   20.8885 N   0  0  0  0  0  0
  -29.9082  -23.0947   18.8193 N   0  0  0  0  0  0
  -26.4771  -17.5776   16.1400 N   0  3  0  0  0  0
  -26.6030  -19.9537   14.1063 O   0  0  0  0  0  0
  -31.5652  -16.4806   18.5642 F   0  0  0  0  0  0
  -31.4611  -12.3447   19.1106 H   0  0  0  0  0  0
  -30.2901  -11.2604   19.8072 H   0  0  0  0  0  0
  -29.7240  -11.7722   17.4124 H   0  0  0  0  0  0
  -29.6663  -13.4797   17.7672 H   0  0  0  0  0  0
  -27.8183  -11.3008   18.8046 H   0  0  0  0  0  0
  -27.3635  -12.6364   17.7815 H   0  0  0  0  0  0
  -27.6942  -14.2338   19.5583 H   0  0  0  0  0  0
  -28.6699  -11.9665   21.3638 H   0  0  0  0  0  0
  -28.4841  -13.6228   21.8536 H   0  0  0  0  0  0
  -25.2752   -9.5660   22.4755 H   0  0  0  0  0  0
  -23.9975   -7.4616   22.7493 H   0  0  0  0  0  0
  -21.0813   -8.8772   19.8958 H   0  0  0  0  0  0
  -22.3683  -10.9657   19.6182 H   0  0  0  0  0  0
  -21.2013   -7.6131   23.9697 H   0  0  0  0  0  0
  -21.1485   -6.0510   25.9066 H   0  0  0  0  0  0
  -22.0602   -2.7593   23.2843 H   0  0  0  0  0  0
  -22.4105  -11.9943   22.4831 H   0  0  0  0  0  0
  -21.1120  -13.1326   22.2572 H   0  0  0  0  0  0
  -24.6191  -15.8002   20.4334 H   0  0  0  0  0  0
  -26.2204  -15.5846   19.9335 H   0  0  0  0  0  0
  -26.7078  -32.5595   23.1217 H   0  0  0  0  0  0
  -25.0052  -33.9826   25.0529 H   0  0  0  0  0  0
  -22.6791  -31.3076   21.4152 H   0  0  0  0  0  0
  -23.3743  -35.9664   23.3319 H   0  0  0  0  0  0
  -24.3580  -36.8910   22.2046 H   0  0  0  0  0  0
  -23.7237  -37.6542   23.6627 H   0  0  0  0  0  0
  -26.0114  -31.6235   20.5866 H   0  0  0  0  0  0
  -26.8079  -30.9214   21.9669 H   0  0  0  0  0  0
  -28.0982  -29.1723   21.1513 H   0  0  0  0  0  0
  -26.1146  -25.9897   19.0318 H   0  0  0  0  0  0
  -23.9913  -27.2810   19.0510 H   0  0  0  0  0  0
  -23.7015  -30.5948   19.4051 H   0  0  0  0  0  0
  -22.7290  -29.2344   19.8780 H   0  0  0  0  0  0
  -25.1272  -36.2015   25.0842 H   0  0  0  0  0  0
  -20.9933  -28.3212   24.1470 H   0  0  0  0  0  0
  -20.5665  -26.2256   23.3604 H   0  0  0  0  0  0
  -21.6627  -26.7454   22.1218 H   0  0  0  0  0  0
  -19.6894  -25.6314   21.1225 H   0  0  0  0  0  0
  -19.6675  -27.3224   20.6761 H   0  0  0  0  0  0
  -17.4185  -26.6686   21.4024 H   0  0  0  0  0  0
  -18.0305  -26.0066   22.9015 H   0  0  0  0  0  0
  -19.7915  -30.7253   24.2310 H   0  0  0  0  0  0
  -17.4995  -31.6266   24.5169 H   0  0  0  0  0  0
  -15.5336  -30.2998   23.7631 H   0  0  0  0  0  0
  -15.8651  -28.0833   22.7042 H   0  0  0  0  0  0
  -24.5911  -30.7026   25.7823 H   0  0  0  0  0  0
  -24.8913  -32.2827   26.4965 H   0  0  0  0  0  0
  -25.8101  -30.8839   27.0230 H   0  0  0  0  0  0
  -26.2803  -29.6843   24.1107 H   0  0  0  0  0  0
  -27.4082  -29.7278   25.4471 H   0  0  0  0  0  0
  -27.8611  -30.4417   23.9154 H   0  0  0  0  0  0
  -27.2713  -33.3588   26.2104 H   0  0  0  0  0  0
  -28.3829  -32.6875   25.0264 H   0  0  0  0  0  0
  -28.0763  -31.8384   26.5333 H   0  0  0  0  0  0
  -28.2614  -38.0104   24.7512 H   0  0  0  0  0  0
  -28.1068  -36.2639   24.6286 H   0  0  0  0  0  0
  -27.2304  -37.1465   25.8867 H   0  0  0  0  0  0
  -20.9274  -29.8740   21.6986 H   0  0  0  0  0  0
  -26.0196  -38.2891   24.1410 H   0  0  0  0  0  0
  -27.9518  -23.2650   14.5656 H   0  0  0  0  0  0
  -26.4998  -17.7690   19.0751 H   0  0  0  0  0  0
  -29.0856  -24.3128   16.5578 H   0  0  0  0  0  0
  -27.6514  -16.6359   20.9505 H   0  0  0  0  0  0
  -30.1565  -17.6315   16.7765 H   0  0  0  0  0  0
  -29.5132  -20.4307   18.5770 H   0  0  0  0  0  0
  -30.2976  -22.8851   21.5835 H   0  0  0  0  0  0
  -28.5767  -23.1496   21.8373 H   0  0  0  0  0  0
  -29.7526  -24.0650   22.7633 H   0  0  0  0  0  0
  -31.6885  -24.6292   20.2664 H   0  0  0  0  0  0
  -31.2793  -25.7845   21.5279 H   0  0  0  0  0  0
  -30.9627  -26.1693   19.8413 H   0  0  0  0  0  0
  -29.0532  -24.9831   18.6035 H   0  0  0  0  0  0
  -28.0465  -23.8163   19.4298 H   0  0  0  0  0  0
  -28.8725  -26.3512   22.0227 H   0  0  0  0  0  0
  -27.5711  -25.3930   21.3539 H   0  0  0  0  0  0
  -29.3219  -15.2741   21.5822 H   0  0  0  0  0  0
  -30.2700  -22.4776   19.5405 H   0  0  0  0  0  0
  -26.2103  -16.7154   16.5920 H   0  0  0  0  0  0
  -25.9880  -17.8642   15.3061 H   0  0  0  0  0  0
  1 25  1  0  0  0
  1 30  2  0  0  0
  1 91  1  0  0  0
  2  3  1  0  0  0
  2 25  1  0  0  0
  2 96  1  0  0  0
  2 97  1  0  0  0
  3  4  1  0  0  0
  3 98  1  0  0  0
  3 99  1  0  0  0
  4  5  1  0  0  0
  4100  1  0  0  0
  4101  1  0  0  0
  5  6  1  0  0  0
  5 26  1  0  0  0
  5102  1  0  0  0
  6 25  1  0  0  0
  6103  1  0  0  0
  6104  1  0  0  0
  7  8  2  0  0  0
  7 26  1  0  0  0
  7 29  1  0  0  0
  8  9  1  0  0  0
  8 22  1  0  0  0
  9 10  1  0  0  0
  9 27  2  0  0  0
 10 11  2  0  0  0
 10 15  1  0  0  0
 11 12  1  0  0  0
 11105  1  0  0  0
 12 13  2  0  0  0
 12106  1  0  0  0
 13 14  1  0  0  0
 13 31  1  0  0  0
 14 15  2  0  0  0
 14107  1  0  0  0
 15108  1  0  0  0
 16 17  2  0  0  0
 16 21  1  0  0  0
 16 31  1  0  0  0
 17 18  1  0  0  0
 17109  1  0  0  0
 18 19  2  0  0  0
 18110  1  0  0  0
 19 20  1  0  0  0
 19 24  1  0  0  0
 20 21  2  0  0  0
 20111  1  0  0  0
 21 23  1  0  0  0
 22 28  1  0  0  0
 22 32  2  0  0  0
 26 27  1  0  0  0
 28112  1  0  0  0
 28113  1  0  0  0
 29114  1  0  0  0
 29115  1  0  0  0
 33 34  1  0  0  0
 33 66  1  0  0  0
 33 70  2  0  0  0
 34 36  1  0  0  0
 34 59  1  0  0  0
 34116  1  0  0  0
 35 44  2  0  0  0
 35 45  1  0  0  0
 35 68  1  0  0  0
 36 56  1  0  0  0
 36117  1  0  0  0
 37 39  1  0  0  0
 37 47  1  0  0  0
 37 66  1  0  0  0
 37118  1  0  0  0
 38 43  2  0  0  0
 38 46  1  0  0  0
 38 47  1  0  0  0
 39 64  1  0  0  0
 39 67  2  0  0  0
 40 52  1  0  0  0
 40 53  2  0  0  0
 40 58  1  0  0  0
 41119  1  0  0  0
 41120  1  0  0  0
 41121  1  0  0  0
 41 48  1  0  0  0
 42 43  1  0  0  0
 42 66  1  0  0  0
 42122  1  0  0  0
 42123  1  0  0  0
 43 44  1  0  0  0
 44124  1  0  0  0
 45 46  2  0  0  0
 45125  1  0  0  0
 46126  1  0  0  0
 47127  1  0  0  0
 47128  1  0  0  0
 48 56  1  0  0  0
 48 65  1  0  0  0
 48129  1  0  0  0
 49 50  1  0  0  0
 49 53  1  0  0  0
 49 64  1  0  0  0
 49130  1  0  0  0
 50 51  1  0  0  0
 50131  1  0  0  0
 50132  1  0  0  0
 51 52  1  0  0  0
 51133  1  0  0  0
 51134  1  0  0  0
 52135  1  0  0  0
 52136  1  0  0  0
 53 54  1  0  0  0
 54 55  2  0  0  0
 54137  1  0  0  0
 55 57  1  0  0  0
 55138  1  0  0  0
 56 69  2  0  0  0
 57 58  2  0  0  0
 57139  1  0  0  0
 58140  1  0  0  0
 59 60  1  0  0  0
 59 61  1  0  0  0
 59 62  1  0  0  0
 60141  1  0  0  0
 60142  1  0  0  0
 60143  1  0  0  0
 61144  1  0  0  0
 61145  1  0  0  0
 61146  1  0  0  0
 62147  1  0  0  0
 62148  1  0  0  0
 62149  1  0  0  0
 63 65  1  0  0  0
 63150  1  0  0  0
 63151  1  0  0  0
 63152  1  0  0  0
 64153  1  0  0  0
 65154  1  0  0  0
 68 88  1  0  0  0
 71 73  2  0  0  0
 71 77  1  0  0  0
 71155  1  0  0  0
 72 74  2  0  0  0
 72 78  1  0  0  0
 72156  1  0  0  0
 73 80  1  0  0  0
 73157  1  0  0  0
 74 81  1  0  0  0
 74158  1  0  0  0
 75 78  2  0  0  0
 75 82  1  0  0  0
 75159  1  0  0  0
 76 79  1  0  0  0
 76 80  2  0  0  0
 76160  1  0  0  0
 77 79  2  0  0  0
 77 83  1  0  0  0
 78 84  1  0  0  0
 79 90  1  0  0  0
 80 92  1  0  0  0
 81 82  2  0  0  0
 81 91  1  0  0  0
 82 95  1  0  0  0
 83 90  1  0  0  0
 83 94  2  0  0  0
 84 90  1  0  0  0
 84 93  2  0  0  0
 85161  1  0  0  0
 85162  1  0  0  0
 85163  1  0  0  0
 85 89  1  0  0  0
 86 89  1  0  0  0
 86164  1  0  0  0
 86165  1  0  0  0
 86166  1  0  0  0
 87 89  1  0  0  0
 87 92  1  0  0  0
 87167  1  0  0  0
 87168  1  0  0  0
 88 89  1  0  0  0
 88169  1  0  0  0
 88170  1  0  0  0
 91171  1  0  0  0
 92172  1  0  0  0
 93173  1  0  0  0
 93174  1  0  0  0
M  CHG  1  93   1
M  ISO  4   1 100  68 101  88 101  91 100
M  END
> <chiral flag>
0

> <version>
0

> <s_m_source_file>
/data/baiqing/PycharmProjects/Reinvent-master-3.2/result/LINK_invent/BTK/process_docking_weight1_custom_product_contain_oxygen_bond_distance_aromatic_linkinvent_7_9_3/rearranged_h_0143.sdf

> <i_m_source_file_index>
41

> <r_mmod_Potential_Energy-OPLS-2005>
387.96484375

> <r_mmod_Stretch_Energy-OPLS-2005>
52.0122108459473

> <r_mmod_Bend_Energy-OPLS-2005>
592.530639648438

> <r_mmod_Torsional_Energy-OPLS-2005>
356.918029785156

> <r_mmod_Improper_Torsional_Energy-OPLS-2005>
42.1608619689941

> <r_mmod_Van_der_Waal_Energy-OPLS-2005>
171.969100952148

> <r_mmod_Electrostatic_Energy-OPLS-2005>
-388.580169677734

> <r_mmod_Solvation_Energy-OPLS-2005>
-452.482543945312

> <b_mmod_Minimization_Converged-OPLS-2005>
0

> <r_mmod_RMS_Derivative-OPLS-2005>
2.63498449325562

$$$$
41
                    3D
 Structure written by MMmdl.
159167  0  0  1  0            999 V2000
  -30.7407  -14.4717   20.5900 C   0  0  0  0  0  0
  -30.4255  -12.3190   19.4230 C   0  0  0  0  0  0
  -29.4967  -12.5134   18.2075 C   0  0  0  0  0  0
  -28.0190  -12.3728   18.6197 C   0  0  0  0  0  0
  -27.6650  -13.2134   19.8759 C   0  0  2  0  0  0
  -28.7109  -13.0113   20.9976 C   0  0  0  0  0  0
  -25.2596  -13.8173   20.5680 C   0  0  0  0  0  0
  -24.1855  -13.0445   20.9171 C   0  0  0  0  0  0
  -24.6419  -11.6910   20.8727 C   0  0  0  0  0  0
  -23.9075  -10.4298   21.0397 C   0  0  0  0  0  0
  -24.3627   -9.4212   21.9179 C   0  0  0  0  0  0
  -23.6301   -8.2248   22.0749 C   0  0  0  0  0  0
  -22.4277   -8.0289   21.3546 C   0  0  0  0  0  0
  -21.9923   -9.0253   20.4636 C   0  0  0  0  0  0
  -22.7249  -10.2135   20.3043 C   0  0  0  0  0  0
  -21.6860   -6.0740   22.5280 C   0  0  0  0  0  0
  -21.4009   -6.5640   23.8214 C   0  0  0  0  0  0
  -21.3656   -5.6788   24.9172 C   0  0  0  0  0  0
  -21.6043   -4.3057   24.7223 C   0  0  0  0  0  0
  -21.8824   -3.8149   23.4346 C   0  0  0  0  0  0
  -21.9196   -4.6964   22.3402 C   0  0  0  0  0  0
  -22.7869  -13.5237   21.1826 C   0  0  0  0  0  0
  -22.1666   -4.2155   21.0975 F   0  0  0  0  0  0
  -21.5629   -3.4539   25.7731 F   0  0  0  0  0  0
  -30.0440  -13.3085   20.4436 N   0  0  0  0  0  0
  -26.3056  -12.9365   20.3386 N   0  0  0  0  0  0
  -25.9360  -11.6513   20.5783 N   0  0  0  0  0  0
  -22.0505  -12.8221   22.0374 N   0  0  0  0  0  0
  -25.4311  -15.1892   20.4064 N   0  0  0  0  0  0
  -31.8595  -14.6345   20.0934 O   0  0  0  0  0  0
  -21.6644   -6.8885   21.4235 O   0  0  0  0  0  0
  -22.3551  -14.5550   20.6683 O   0  0  0  0  0  0
  -24.6190  -31.8658   23.2062 C   0  0  0  0  0  0
  -25.9044  -32.4820   23.8378 C   0  0  1  0  0  0
  -27.2410  -27.4235   20.0968 C   0  0  0  0  0  0
  -25.5884  -33.8615   24.2308 N   0  0  0  0  0  0
  -23.4089  -30.4873   21.5465 C   0  0  2  0  0  0
  -24.8583  -28.9507   20.1136 C   0  0  0  0  0  0
  -22.7441  -29.4645   22.4971 C   0  0  0  0  0  0
  -18.0270  -28.1415   22.8479 C   0  0  0  0  0  0
  -24.1481  -36.7288   23.2650 C   0  0  0  0  0  0
  -25.9394  -30.8285   21.3605 C   0  0  0  0  0  0
  -26.0190  -29.4612   20.7090 C   0  0  0  0  0  0
  -27.2162  -28.7055   20.6950 C   0  0  0  0  0  0
  -26.0681  -26.9377   19.4814 C   0  0  0  0  0  0
  -24.8778  -27.6890   19.4957 C   0  0  0  0  0  0
  -23.6188  -29.8167   20.1633 C   0  0  0  0  0  0
  -25.4102  -36.3107   24.0350 C   0  0  1  0  0  0
  -20.5869  -28.3680   23.1318 C   0  0  2  0  0  0
  -20.6760  -26.9416   22.5414 C   0  0  0  0  0  0
  -19.5733  -26.6409   21.5220 C   0  0  0  0  0  0
  -18.1912  -26.7965   22.1619 C   0  0  0  0  0  0
  -19.1526  -28.8856   23.2899 C   0  0  0  0  0  0
  -18.9456  -30.1466   23.8904 C   0  0  0  0  0  0
  -17.6455  -30.6602   24.0581 C   0  0  0  0  0  0
  -25.9029  -34.9473   23.5127 C   0  0  0  0  0  0
  -16.5342  -29.9103   23.6351 C   0  0  0  0  0  0
  -16.7261  -28.6534   23.0352 C   0  0  0  0  0  0
  -26.4463  -31.6610   25.0715 C   0  0  0  0  0  0
  -25.3712  -31.3710   26.1447 C   0  0  0  0  0  0
  -27.0291  -30.3062   24.6066 C   0  0  0  0  0  0
  -27.6035  -32.4334   25.7478 C   0  0  0  0  0  0
  -27.5569  -37.1802   24.8476 C   0  0  0  0  0  0
  -21.4158  -29.3048   22.3721 N   0  0  0  0  0  0
  -26.4276  -37.3795   23.9422 N   0  0  0  0  0  0
  -24.6741  -31.0736   22.0972 N   0  0  0  0  0  0
  -23.4200  -28.8187   23.3030 O   0  0  0  0  0  0
  -28.3843  -26.6481   20.1065 O   0  0  0  0  0  0
  -26.5603  -34.8928   22.4698 O   0  0  0  0  0  0
  -23.5360  -32.1407   23.7426 O   0  0  0  0  0  0
  -31.6763  -17.3139   21.7645 C   0  0  0  0  0  0
  -29.6066  -17.8409   20.6526 C   0  0  0  0  0  0
  -31.9777  -18.6875   21.7319 C   0  0  0  0  0  0
  -30.4671  -16.8624   21.1961 C   0  0  0  0  0  0
  -29.9930  -19.2085   20.6336 C   0  0  0  0  0  0
  -29.0947  -20.2224   19.9666 C   0  0  0  0  0  0
  -29.0379  -24.2184   20.1714 C   0  0  0  0  0  0
  -27.3743  -22.4931   20.9925 C   0  0  0  0  0  0
  -29.5990  -22.7223   22.1408 C   0  0  0  0  0  0
  -29.5466  -21.7022   19.8311 C   0  0  0  0  0  0
  -28.2184  -25.3841   20.7902 C   0  0  0  0  0  0
  -28.8838  -22.7791   20.7745 C   0  0  0  0  0  0
  -31.1653  -19.6129   21.1776 N   0  0  0  0  0  0
  -30.0882  -15.4824   21.2012 N   0  0  0  0  0  0
  -28.0068  -19.9022   19.4734 O   0  0  0  0  0  0
  -29.8246  -24.4326   19.2420 O   0  0  0  0  0  0
  -31.4685  -12.4141   19.1150 H   0  0  0  0  0  0
  -30.3295  -11.3100   19.8273 H   0  0  0  0  0  0
  -29.7404  -11.7891   17.4294 H   0  0  0  0  0  0
  -29.6621  -13.4999   17.7697 H   0  0  0  0  0  0
  -27.8285  -11.3167   18.8131 H   0  0  0  0  0  0
  -27.3703  -12.6521   17.7885 H   0  0  0  0  0  0
  -27.7046  -14.2604   19.5743 H   0  0  0  0  0  0
  -28.6894  -11.9810   21.3573 H   0  0  0  0  0  0
  -28.4722  -13.6279   21.8642 H   0  0  0  0  0  0
  -25.2776   -9.5691   22.4739 H   0  0  0  0  0  0
  -24.0013   -7.4645   22.7472 H   0  0  0  0  0  0
  -21.0857   -8.8769   19.8936 H   0  0  0  0  0  0
  -22.3719  -10.9665   19.6137 H   0  0  0  0  0  0
  -21.1995   -7.6148   23.9715 H   0  0  0  0  0  0
  -21.1471   -6.0518   25.9072 H   0  0  0  0  0  0
  -22.0607   -2.7611   23.2840 H   0  0  0  0  0  0
  -22.4120  -11.9878   22.4753 H   0  0  0  0  0  0
  -21.1109  -13.1222   22.2550 H   0  0  0  0  0  0
  -24.6626  -15.8439   20.5040 H   0  0  0  0  0  0
  -26.2790  -15.6251   20.0673 H   0  0  0  0  0  0
  -26.7118  -32.5514   23.1145 H   0  0  0  0  0  0
  -25.0057  -33.9783   25.0468 H   0  0  0  0  0  0
  -22.6995  -31.3043   21.4015 H   0  0  0  0  0  0
  -23.3748  -35.9619   23.3348 H   0  0  0  0  0  0
  -24.3565  -36.8864   22.2057 H   0  0  0  0  0  0
  -23.7225  -37.6502   23.6622 H   0  0  0  0  0  0
  -26.0506  -31.5902   20.5882 H   0  0  0  0  0  0
  -26.8299  -30.8874   21.9741 H   0  0  0  0  0  0
  -28.1130  -29.0933   21.1567 H   0  0  0  0  0  0
  -26.0695  -25.9746   18.9905 H   0  0  0  0  0  0
  -23.9873  -27.2926   19.0291 H   0  0  0  0  0  0
  -23.7294  -30.5873   19.4008 H   0  0  0  0  0  0
  -22.7450  -29.2335   19.8654 H   0  0  0  0  0  0
  -25.1284  -36.1972   25.0840 H   0  0  0  0  0  0
  -20.9955  -28.3224   24.1444 H   0  0  0  0  0  0
  -20.5671  -26.2275   23.3593 H   0  0  0  0  0  0
  -21.6618  -26.7461   22.1189 H   0  0  0  0  0  0
  -19.6881  -25.6334   21.1220 H   0  0  0  0  0  0
  -19.6672  -27.3230   20.6772 H   0  0  0  0  0  0
  -17.4181  -26.6734   21.4018 H   0  0  0  0  0  0
  -18.0287  -26.0107   22.9015 H   0  0  0  0  0  0
  -19.7933  -30.7292   24.2262 H   0  0  0  0  0  0
  -17.5017  -31.6284   24.5187 H   0  0  0  0  0  0
  -15.5351  -30.3013   23.7692 H   0  0  0  0  0  0
  -15.8664  -28.0872   22.7064 H   0  0  0  0  0  0
  -24.5893  -30.7056   25.7761 H   0  0  0  0  0  0
  -24.8895  -32.2864   26.4880 H   0  0  0  0  0  0
  -25.8058  -30.8869   27.0206 H   0  0  0  0  0  0
  -26.2822  -29.6832   24.1118 H   0  0  0  0  0  0
  -27.4104  -29.7274   25.4498 H   0  0  0  0  0  0
  -27.8640  -30.4422   23.9186 H   0  0  0  0  0  0
  -27.2651  -33.3633   26.2055 H   0  0  0  0  0  0
  -28.3836  -32.6897   25.0295 H   0  0  0  0  0  0
  -28.0703  -31.8456   26.5393 H   0  0  0  0  0  0
  -28.2606  -38.0089   24.7516 H   0  0  0  0  0  0
  -28.1057  -36.2617   24.6310 H   0  0  0  0  0  0
  -27.2286  -37.1463   25.8885 H   0  0  0  0  0  0
  -20.9321  -29.8770   21.6936 H   0  0  0  0  0  0
  -26.0174  -38.2872   24.1429 H   0  0  0  0  0  0
  -32.3794  -16.6265   22.2154 H   0  0  0  0  0  0
  -28.6661  -17.5454   20.2091 H   0  0  0  0  0  0
  -32.9006  -19.0559   22.1566 H   0  0  0  0  0  0
  -26.9024  -23.2029   21.6721 H   0  0  0  0  0  0
  -27.2025  -21.5176   21.4477 H   0  0  0  0  0  0
  -26.8257  -22.5195   20.0494 H   0  0  0  0  0  0
  -29.1252  -23.3671   22.8811 H   0  0  0  0  0  0
  -30.6438  -23.0266   22.0549 H   0  0  0  0  0  0
  -29.5931  -21.7110   22.5490 H   0  0  0  0  0  0
  -29.3448  -21.9697   18.7941 H   0  0  0  0  0  0
  -30.6308  -21.7477   19.9282 H   0  0  0  0  0  0
  -28.5172  -25.5066   21.8314 H   0  0  0  0  0  0
  -27.1682  -25.0991   20.8021 H   0  0  0  0  0  0
  -29.1454  -15.2689   21.4833 H   0  0  0  0  0  0
  1 25  1  0  0  0
  1 30  2  0  0  0
  1 84  1  0  0  0
  2  3  1  0  0  0
  2 25  1  0  0  0
  2 87  1  0  0  0
  2 88  1  0  0  0
  3  4  1  0  0  0
  3 89  1  0  0  0
  3 90  1  0  0  0
  4  5  1  0  0  0
  4 91  1  0  0  0
  4 92  1  0  0  0
  5  6  1  0  0  0
  5 26  1  0  0  0
  5 93  1  0  0  0
  6 25  1  0  0  0
  6 94  1  0  0  0
  6 95  1  0  0  0
  7  8  2  0  0  0
  7 26  1  0  0  0
  7 29  1  0  0  0
  8  9  1  0  0  0
  8 22  1  0  0  0
  9 10  1  0  0  0
  9 27  2  0  0  0
 10 11  2  0  0  0
 10 15  1  0  0  0
 11 12  1  0  0  0
 11 96  1  0  0  0
 12 13  2  0  0  0
 12 97  1  0  0  0
 13 14  1  0  0  0
 13 31  1  0  0  0
 14 15  2  0  0  0
 14 98  1  0  0  0
 15 99  1  0  0  0
 16 17  2  0  0  0
 16 21  1  0  0  0
 16 31  1  0  0  0
 17 18  1  0  0  0
 17100  1  0  0  0
 18 19  2  0  0  0
 18101  1  0  0  0
 19 20  1  0  0  0
 19 24  1  0  0  0
 20 21  2  0  0  0
 20102  1  0  0  0
 21 23  1  0  0  0
 22 28  1  0  0  0
 22 32  2  0  0  0
 26 27  1  0  0  0
 28103  1  0  0  0
 28104  1  0  0  0
 29105  1  0  0  0
 29106  1  0  0  0
 33 34  1  0  0  0
 33 66  1  0  0  0
 33 70  2  0  0  0
 34 36  1  0  0  0
 34 59  1  0  0  0
 34107  1  0  0  0
 35 44  2  0  0  0
 35 45  1  0  0  0
 35 68  1  0  0  0
 36 56  1  0  0  0
 36108  1  0  0  0
 37 39  1  0  0  0
 37 47  1  0  0  0
 37 66  1  0  0  0
 37109  1  0  0  0
 38 43  2  0  0  0
 38 46  1  0  0  0
 38 47  1  0  0  0
 39 64  1  0  0  0
 39 67  2  0  0  0
 40 52  1  0  0  0
 40 53  2  0  0  0
 40 58  1  0  0  0
 41110  1  0  0  0
 41111  1  0  0  0
 41112  1  0  0  0
 41 48  1  0  0  0
 42 43  1  0  0  0
 42 66  1  0  0  0
 42113  1  0  0  0
 42114  1  0  0  0
 43 44  1  0  0  0
 44115  1  0  0  0
 45 46  2  0  0  0
 45116  1  0  0  0
 46117  1  0  0  0
 47118  1  0  0  0
 47119  1  0  0  0
 48 56  1  0  0  0
 48 65  1  0  0  0
 48120  1  0  0  0
 49 50  1  0  0  0
 49 53  1  0  0  0
 49 64  1  0  0  0
 49121  1  0  0  0
 50 51  1  0  0  0
 50122  1  0  0  0
 50123  1  0  0  0
 51 52  1  0  0  0
 51124  1  0  0  0
 51125  1  0  0  0
 52126  1  0  0  0
 52127  1  0  0  0
 53 54  1  0  0  0
 54 55  2  0  0  0
 54128  1  0  0  0
 55 57  1  0  0  0
 55129  1  0  0  0
 56 69  2  0  0  0
 57 58  2  0  0  0
 57130  1  0  0  0
 58131  1  0  0  0
 59 60  1  0  0  0
 59 61  1  0  0  0
 59 62  1  0  0  0
 60132  1  0  0  0
 60133  1  0  0  0
 60134  1  0  0  0
 61135  1  0  0  0
 61136  1  0  0  0
 61137  1  0  0  0
 62138  1  0  0  0
 62139  1  0  0  0
 62140  1  0  0  0
 63 65  1  0  0  0
 63141  1  0  0  0
 63142  1  0  0  0
 63143  1  0  0  0
 64144  1  0  0  0
 65145  1  0  0  0
 68 81  1  0  0  0
 71 73  2  0  0  0
 71 74  1  0  0  0
 71146  1  0  0  0
 72 74  2  0  0  0
 72 75  1  0  0  0
 72147  1  0  0  0
 73 83  1  0  0  0
 73148  1  0  0  0
 74 84  1  0  0  0
 75 76  1  0  0  0
 75 83  2  0  0  0
 76 80  1  0  0  0
 76 85  2  0  0  0
 77 81  1  0  0  0
 77 82  1  0  0  0
 77 86  2  0  0  0
 78149  1  0  0  0
 78150  1  0  0  0
 78151  1  0  0  0
 78 82  1  0  0  0
 79 82  1  0  0  0
 79152  1  0  0  0
 79153  1  0  0  0
 79154  1  0  0  0
 80 82  1  0  0  0
 80155  1  0  0  0
 80156  1  0  0  0
 81157  1  0  0  0
 81158  1  0  0  0
 84159  1  0  0  0
M  ISO  4   1 100  68 101  81 101  84 100
M  END
> <chiral flag>
0

> <version>
0

> <s_m_source_file>
/data/baiqing/PycharmProjects/Reinvent-master-3.2/result/LINK_invent/BTK/process_docking_weight1_custom_product_contain_oxygen_bond_distance_aromatic_linkinvent_7_9_3/rearranged_h_0143.sdf

> <i_m_source_file_index>
42

> <r_mmod_Potential_Energy-OPLS-2005>
-77.3438873291016

> <r_mmod_Stretch_Energy-OPLS-2005>
47.4240531921387

> <r_mmod_Bend_Energy-OPLS-2005>
100.94905090332

> <r_mmod_Torsional_Energy-OPLS-2005>
243.868347167969

> <r_mmod_Improper_Torsional_Energy-OPLS-2005>
3.76150035858154

> <r_mmod_Van_der_Waal_Energy-OPLS-2005>
162.457458496094

> <r_mmod_Electrostatic_Energy-OPLS-2005>
-416.187042236328

> <r_mmod_Solvation_Energy-OPLS-2005>
-233.784454345703

> <b_mmod_Minimization_Converged-OPLS-2005>
0

> <r_mmod_RMS_Derivative-OPLS-2005>
2.70962405204773

$$$$
42
                    3D
 Structure written by MMmdl.
159168  0  0  1  0            999 V2000
  -30.6604  -14.5964   20.4893 C   0  0  0  0  0  0
  -30.4197  -12.3629   19.4497 C   0  0  0  0  0  0
  -29.5011  -12.4951   18.2171 C   0  0  0  0  0  0
  -28.0215  -12.3502   18.6257 C   0  0  0  0  0  0
  -27.6485  -13.2195   19.8572 C   0  0  2  0  0  0
  -28.6911  -13.0829   20.9891 C   0  0  0  0  0  0
  -25.2547  -13.8174   20.5683 C   0  0  0  0  0  0
  -24.1820  -13.0439   20.9198 C   0  0  0  0  0  0
  -24.6389  -11.6912   20.8738 C   0  0  0  0  0  0
  -23.9058  -10.4297   21.0404 C   0  0  0  0  0  0
  -24.3616   -9.4210   21.9177 C   0  0  0  0  0  0
  -23.6295   -8.2242   22.0744 C   0  0  0  0  0  0
  -22.4271   -8.0282   21.3542 C   0  0  0  0  0  0
  -21.9904   -9.0256   20.4646 C   0  0  0  0  0  0
  -22.7227  -10.2140   20.3058 C   0  0  0  0  0  0
  -21.6857   -6.0735   22.5278 C   0  0  0  0  0  0
  -21.4014   -6.5640   23.8211 C   0  0  0  0  0  0
  -21.3656   -5.6792   24.9174 C   0  0  0  0  0  0
  -21.6042   -4.3053   24.7228 C   0  0  0  0  0  0
  -21.8821   -3.8146   23.4347 C   0  0  0  0  0  0
  -21.9197   -4.6963   22.3402 C   0  0  0  0  0  0
  -22.7847  -13.5237   21.1859 C   0  0  0  0  0  0
  -22.1666   -4.2150   21.0979 F   0  0  0  0  0  0
  -21.5629   -3.4538   25.7741 F   0  0  0  0  0  0
  -30.0076  -13.3973   20.4193 N   0  0  0  0  0  0
  -26.2965  -12.9361   20.3280 N   0  0  0  0  0  0
  -25.9311  -11.6512   20.5729 N   0  0  0  0  0  0
  -22.0484  -12.8244   22.0420 N   0  0  0  0  0  0
  -25.4251  -15.1896   20.4084 N   0  0  0  0  0  0
  -31.8397  -14.6794   20.1420 O   0  0  0  0  0  0
  -21.6636   -6.8876   21.4237 O   0  0  0  0  0  0
  -22.3540  -14.5542   20.6697 O   0  0  0  0  0  0
  -24.6209  -31.8633   23.2039 C   0  0  0  0  0  0
  -25.9078  -32.4802   23.8359 C   0  0  1  0  0  0
  -27.2294  -27.3603   20.1132 C   0  0  0  0  0  0
  -25.5911  -33.8601   24.2298 N   0  0  0  0  0  0
  -23.4126  -30.4852   21.5445 C   0  0  2  0  0  0
  -24.8590  -28.9388   20.1096 C   0  0  0  0  0  0
  -22.7439  -29.4644   22.4944 C   0  0  0  0  0  0
  -18.0279  -28.1414   22.8493 C   0  0  0  0  0  0
  -24.1478  -36.7297   23.2640 C   0  0  0  0  0  0
  -25.9473  -30.8059   21.3673 C   0  0  0  0  0  0
  -26.0202  -29.4342   20.7138 C   0  0  0  0  0  0
  -27.2042  -28.6516   20.7105 C   0  0  0  0  0  0
  -26.0499  -26.8958   19.4939 C   0  0  0  0  0  0
  -24.8721  -27.6733   19.4947 C   0  0  0  0  0  0
  -23.6256  -29.8171   20.1591 C   0  0  0  0  0  0
  -25.4106  -36.3100   24.0338 C   0  0  1  0  0  0
  -20.5875  -28.3712   23.1311 C   0  0  2  0  0  0
  -20.6758  -26.9430   22.5459 C   0  0  0  0  0  0
  -19.5753  -26.6402   21.5237 C   0  0  0  0  0  0
  -18.1918  -26.7966   22.1611 C   0  0  0  0  0  0
  -19.1531  -28.8875   23.2904 C   0  0  0  0  0  0
  -18.9455  -30.1468   23.8936 C   0  0  0  0  0  0
  -17.6457  -30.6609   24.0588 C   0  0  0  0  0  0
  -25.9045  -34.9472   23.5122 C   0  0  0  0  0  0
  -16.5351  -29.9121   23.6323 C   0  0  0  0  0  0
  -16.7269  -28.6537   23.0349 C   0  0  0  0  0  0
  -26.4474  -31.6615   25.0721 C   0  0  0  0  0  0
  -25.3726  -31.3789   26.1481 C   0  0  0  0  0  0
  -27.0262  -30.3017   24.6167 C   0  0  0  0  0  0
  -27.6079  -32.4321   25.7447 C   0  0  0  0  0  0
  -27.5596  -37.1779   24.8456 C   0  0  0  0  0  0
  -21.4162  -29.3054   22.3688 N   0  0  0  0  0  0
  -26.4284  -37.3799   23.9436 N   0  0  0  0  0  0
  -24.6786  -31.0676   22.0967 N   0  0  0  0  0  0
  -23.4178  -28.8188   23.3023 O   0  0  0  0  0  0
  -28.3902  -26.5944   20.1724 O   0  0  0  0  0  0
  -26.5616  -34.8933   22.4685 O   0  0  0  0  0  0
  -23.5390  -32.1422   23.7397 O   0  0  0  0  0  0
  -31.4713  -17.5923   20.1685 C   0  0  0  0  0  0
  -31.7924  -18.9601   20.1528 C   0  0  0  0  0  0
  -29.2785  -18.1484   21.0295 C   0  0  0  0  0  0
  -29.5830  -19.5614   21.0330 C   0  0  0  0  0  0
  -30.2202  -17.1333   20.6490 C   0  0  0  0  0  0
  -30.8901  -19.9370   20.6145 C   0  0  0  0  0  0
  -28.2990  -24.1536   20.5195 C   0  0  0  0  0  0
  -28.4756  -25.2659   19.7454 C   0  0  0  0  0  0
  -28.6229  -20.5380   21.6753 C   0  0  0  0  0  0
  -27.7522  -24.1757   21.9190 C   0  0  0  0  0  0
  -28.6400  -22.6872   20.1516 C   0  0  0  0  0  0
  -27.5275  -22.7063   22.2986 C   0  0  0  0  0  0
  -28.3057  -21.8551   21.3582 N   0  0  0  0  0  0
  -29.9017  -15.7057   20.7686 N   0  0  0  0  0  0
  -28.0065  -20.0500   22.7572 N   0  3  0  0  0  0
  -31.3609  -21.2174   20.7047 O   0  0  0  0  0  0
  -31.4647  -12.4580   19.1504 H   0  0  0  0  0  0
  -30.3274  -11.3702   19.8924 H   0  0  0  0  0  0
  -29.7566  -11.7396   17.4725 H   0  0  0  0  0  0
  -29.6602  -13.4620   17.7368 H   0  0  0  0  0  0
  -27.8449  -11.2971   18.8477 H   0  0  0  0  0  0
  -27.3735  -12.5934   17.7823 H   0  0  0  0  0  0
  -27.6654  -14.2539   19.5147 H   0  0  0  0  0  0
  -28.6910  -12.0686   21.3907 H   0  0  0  0  0  0
  -28.4474  -13.7380   21.8269 H   0  0  0  0  0  0
  -25.2763   -9.5695   22.4748 H   0  0  0  0  0  0
  -24.0017   -7.4633   22.7458 H   0  0  0  0  0  0
  -21.0832   -8.8775   19.8957 H   0  0  0  0  0  0
  -22.3675  -10.9683   19.6178 H   0  0  0  0  0  0
  -21.2000   -7.6149   23.9718 H   0  0  0  0  0  0
  -21.1473   -6.0518   25.9077 H   0  0  0  0  0  0
  -22.0601   -2.7610   23.2846 H   0  0  0  0  0  0
  -22.4093  -11.9926   22.4852 H   0  0  0  0  0  0
  -21.1095  -13.1276   22.2595 H   0  0  0  0  0  0
  -24.6516  -15.8378   20.5074 H   0  0  0  0  0  0
  -26.2571  -15.6238   20.0308 H   0  0  0  0  0  0
  -26.7151  -32.5489   23.1116 H   0  0  0  0  0  0
  -25.0057  -33.9750   25.0440 H   0  0  0  0  0  0
  -22.7046  -31.3041   21.4025 H   0  0  0  0  0  0
  -23.3755  -35.9616   23.3291 H   0  0  0  0  0  0
  -24.3574  -36.8927   22.2059 H   0  0  0  0  0  0
  -23.7202  -37.6482   23.6660 H   0  0  0  0  0  0
  -26.0694  -31.5691   20.5975 H   0  0  0  0  0  0
  -26.8302  -30.8591   21.9924 H   0  0  0  0  0  0
  -28.1006  -29.0256   21.1841 H   0  0  0  0  0  0
  -26.0252  -25.9234   19.0241 H   0  0  0  0  0  0
  -23.9795  -27.2873   19.0230 H   0  0  0  0  0  0
  -23.7472  -30.5944   19.4039 H   0  0  0  0  0  0
  -22.7448  -29.2484   19.8541 H   0  0  0  0  0  0
  -25.1273  -36.1957   25.0829 H   0  0  0  0  0  0
  -20.9978  -28.3321   24.1427 H   0  0  0  0  0  0
  -20.5627  -26.2334   23.3669 H   0  0  0  0  0  0
  -21.6639  -26.7446   22.1289 H   0  0  0  0  0  0
  -19.6907  -25.6305   21.1280 H   0  0  0  0  0  0
  -19.6713  -27.3198   20.6756 H   0  0  0  0  0  0
  -17.4206  -26.6757   21.3989 H   0  0  0  0  0  0
  -18.0276  -26.0101   22.8985 H   0  0  0  0  0  0
  -19.7930  -30.7273   24.2338 H   0  0  0  0  0  0
  -17.5012  -31.6286   24.5194 H   0  0  0  0  0  0
  -15.5354  -30.3038   23.7619 H   0  0  0  0  0  0
  -15.8666  -28.0859   22.7061 H   0  0  0  0  0  0
  -24.5962  -30.7025   25.7882 H   0  0  0  0  0  0
  -24.8835  -32.2961   26.4783 H   0  0  0  0  0  0
  -25.8096  -30.9128   27.0325 H   0  0  0  0  0  0
  -26.2804  -29.6797   24.1207 H   0  0  0  0  0  0
  -27.3940  -29.7257   25.4669 H   0  0  0  0  0  0
  -27.8691  -30.4255   23.9364 H   0  0  0  0  0  0
  -27.2740  -33.3631   26.2042 H   0  0  0  0  0  0
  -28.3861  -32.6872   25.0234 H   0  0  0  0  0  0
  -28.0782  -31.8435   26.5336 H   0  0  0  0  0  0
  -28.2621  -38.0074   24.7536 H   0  0  0  0  0  0
  -28.1079  -36.2615   24.6209 H   0  0  0  0  0  0
  -27.2346  -37.1375   25.8867 H   0  0  0  0  0  0
  -20.9326  -29.8757   21.6891 H   0  0  0  0  0  0
  -26.0173  -38.2866   24.1489 H   0  0  0  0  0  0
  -32.2428  -16.9253   19.8228 H   0  0  0  0  0  0
  -32.7808  -19.2438   19.8196 H   0  0  0  0  0  0
  -28.3084  -17.8294   21.3847 H   0  0  0  0  0  0
  -28.8828  -25.2080   18.7452 H   0  0  0  0  0  0
  -26.8256  -24.7493   21.9577 H   0  0  0  0  0  0
  -28.4704  -24.6442   22.5922 H   0  0  0  0  0  0
  -29.6855  -22.6317   19.8638 H   0  0  0  0  0  0
  -28.0446  -22.3684   19.2954 H   0  0  0  0  0  0
  -26.4681  -22.4550   22.2175 H   0  0  0  0  0  0
  -27.8259  -22.5508   23.3371 H   0  0  0  0  0  0
  -28.9591  -15.4921   21.0540 H   0  0  0  0  0  0
  -28.2629  -19.1348   23.0925 H   0  0  0  0  0  0
  -27.2798  -20.5505   23.2379 H   0  0  0  0  0  0
  -32.2809  -21.3001   20.4741 H   0  0  0  0  0  0
  1 25  1  0  0  0
  1 30  2  0  0  0
  1 84  1  0  0  0
  2  3  1  0  0  0
  2 25  1  0  0  0
  2 87  1  0  0  0
  2 88  1  0  0  0
  3  4  1  0  0  0
  3 89  1  0  0  0
  3 90  1  0  0  0
  4  5  1  0  0  0
  4 91  1  0  0  0
  4 92  1  0  0  0
  5  6  1  0  0  0
  5 26  1  0  0  0
  5 93  1  0  0  0
  6 25  1  0  0  0
  6 94  1  0  0  0
  6 95  1  0  0  0
  7  8  2  0  0  0
  7 26  1  0  0  0
  7 29  1  0  0  0
  8  9  1  0  0  0
  8 22  1  0  0  0
  9 10  1  0  0  0
  9 27  2  0  0  0
 10 11  2  0  0  0
 10 15  1  0  0  0
 11 12  1  0  0  0
 11 96  1  0  0  0
 12 13  2  0  0  0
 12 97  1  0  0  0
 13 14  1  0  0  0
 13 31  1  0  0  0
 14 15  2  0  0  0
 14 98  1  0  0  0
 15 99  1  0  0  0
 16 17  2  0  0  0
 16 21  1  0  0  0
 16 31  1  0  0  0
 17 18  1  0  0  0
 17100  1  0  0  0
 18 19  2  0  0  0
 18101  1  0  0  0
 19 20  1  0  0  0
 19 24  1  0  0  0
 20 21  2  0  0  0
 20102  1  0  0  0
 21 23  1  0  0  0
 22 28  1  0  0  0
 22 32  2  0  0  0
 26 27  1  0  0  0
 28103  1  0  0  0
 28104  1  0  0  0
 29105  1  0  0  0
 29106  1  0  0  0
 33 34  1  0  0  0
 33 66  1  0  0  0
 33 70  2  0  0  0
 34 36  1  0  0  0
 34 59  1  0  0  0
 34107  1  0  0  0
 35 44  2  0  0  0
 35 45  1  0  0  0
 35 68  1  0  0  0
 36 56  1  0  0  0
 36108  1  0  0  0
 37 39  1  0  0  0
 37 47  1  0  0  0
 37 66  1  0  0  0
 37109  1  0  0  0
 38 43  2  0  0  0
 38 46  1  0  0  0
 38 47  1  0  0  0
 39 64  1  0  0  0
 39 67  2  0  0  0
 40 52  1  0  0  0
 40 53  2  0  0  0
 40 58  1  0  0  0
 41110  1  0  0  0
 41111  1  0  0  0
 41112  1  0  0  0
 41 48  1  0  0  0
 42 43  1  0  0  0
 42 66  1  0  0  0
 42113  1  0  0  0
 42114  1  0  0  0
 43 44  1  0  0  0
 44115  1  0  0  0
 45 46  2  0  0  0
 45116  1  0  0  0
 46117  1  0  0  0
 47118  1  0  0  0
 47119  1  0  0  0
 48 56  1  0  0  0
 48 65  1  0  0  0
 48120  1  0  0  0
 49 50  1  0  0  0
 49 53  1  0  0  0
 49 64  1  0  0  0
 49121  1  0  0  0
 50 51  1  0  0  0
 50122  1  0  0  0
 50123  1  0  0  0
 51 52  1  0  0  0
 51124  1  0  0  0
 51125  1  0  0  0
 52126  1  0  0  0
 52127  1  0  0  0
 53 54  1  0  0  0
 54 55  2  0  0  0
 54128  1  0  0  0
 55 57  1  0  0  0
 55129  1  0  0  0
 56 69  2  0  0  0
 57 58  2  0  0  0
 57130  1  0  0  0
 58131  1  0  0  0
 59 60  1  0  0  0
 59 61  1  0  0  0
 59 62  1  0  0  0
 60132  1  0  0  0
 60133  1  0  0  0
 60134  1  0  0  0
 61135  1  0  0  0
 61136  1  0  0  0
 61137  1  0  0  0
 62138  1  0  0  0
 62139  1  0  0  0
 62140  1  0  0  0
 63 65  1  0  0  0
 63141  1  0  0  0
 63142  1  0  0  0
 63143  1  0  0  0
 64144  1  0  0  0
 65145  1  0  0  0
 68 78  1  0  0  0
 71 72  2  0  0  0
 71 75  1  0  0  0
 71146  1  0  0  0
 72 76  1  0  0  0
 72147  1  0  0  0
 73 74  1  0  0  0
 73 75  2  0  0  0
 73148  1  0  0  0
 74 76  2  0  0  0
 74 79  1  0  0  0
 75 84  1  0  0  0
 76 86  1  0  0  0
 77 78  2  0  0  0
 77 80  1  0  0  0
 77 81  1  0  0  0
 78149  1  0  0  0
 79 83  1  0  0  0
 79 85  2  0  0  0
 80 82  1  0  0  0
 80150  1  0  0  0
 80151  1  0  0  0
 81 83  1  0  0  0
 81152  1  0  0  0
 81153  1  0  0  0
 82 83  1  0  0  0
 82154  1  0  0  0
 82155  1  0  0  0
 84156  1  0  0  0
 85157  1  0  0  0
 85158  1  0  0  0
 86159  1  0  0  0
M  CHG  1  85   1
M  ISO  4   1 100  68 101  78 101  84 100
M  END
> <chiral flag>
0

> <version>
0

> <s_m_source_file>
/data/baiqing/PycharmProjects/Reinvent-master-3.2/result/LINK_invent/BTK/process_docking_weight1_custom_product_contain_oxygen_bond_distance_aromatic_linkinvent_7_9_3/rearranged_h_0143.sdf

> <i_m_source_file_index>
43

> <r_mmod_Potential_Energy-OPLS-2005>
-51.017032623291

> <r_mmod_Stretch_Energy-OPLS-2005>
71.0674514770508

> <r_mmod_Bend_Energy-OPLS-2005>
162.505157470703

> <r_mmod_Torsional_Energy-OPLS-2005>
252.610336303711

> <r_mmod_Improper_Torsional_Energy-OPLS-2005>
6.16955614089966

> <r_mmod_Van_der_Waal_Energy-OPLS-2005>
158.928207397461

> <r_mmod_Electrostatic_Energy-OPLS-2005>
-326.887908935547

> <r_mmod_Solvation_Energy-OPLS-2005>
-410.492553710938

> <b_mmod_Minimization_Converged-OPLS-2005>
0

> <r_mmod_RMS_Derivative-OPLS-2005>
1.52363538742065

$$$$
43
                    3D
 Structure written by MMmdl.
174182  0  0  1  0            999 V2000
  -30.7413  -14.4037   20.6180 C   0  0  0  0  0  0
  -30.4135  -12.2852   19.4069 C   0  0  0  0  0  0
  -29.4856  -12.5145   18.1985 C   0  0  0  0  0  0
  -28.0087  -12.3766   18.6137 C   0  0  0  0  0  0
  -27.6628  -13.2048   19.8795 C   0  0  2  0  0  0
  -28.7034  -12.9636   20.9962 C   0  0  0  0  0  0
  -25.2577  -13.8155   20.5676 C   0  0  0  0  0  0
  -24.1834  -13.0432   20.9184 C   0  0  0  0  0  0
  -24.6388  -11.6899   20.8740 C   0  0  0  0  0  0
  -23.9054  -10.4288   21.0408 C   0  0  0  0  0  0
  -24.3608   -9.4205   21.9186 C   0  0  0  0  0  0
  -23.6287   -8.2239   22.0753 C   0  0  0  0  0  0
  -22.4271   -8.0275   21.3542 C   0  0  0  0  0  0
  -21.9904   -9.0248   20.4643 C   0  0  0  0  0  0
  -22.7227  -10.2130   20.3054 C   0  0  0  0  0  0
  -21.6848   -6.0733   22.5276 C   0  0  0  0  0  0
  -21.4011   -6.5637   23.8210 C   0  0  0  0  0  0
  -21.3665   -5.6790   24.9173 C   0  0  0  0  0  0
  -21.6050   -4.3055   24.7225 C   0  0  0  0  0  0
  -21.8819   -3.8146   23.4347 C   0  0  0  0  0  0
  -21.9191   -4.6961   22.3402 C   0  0  0  0  0  0
  -22.7860  -13.5230   21.1856 C   0  0  0  0  0  0
  -22.1660   -4.2147   21.0980 F   0  0  0  0  0  0
  -21.5636   -3.4540   25.7741 F   0  0  0  0  0  0
  -30.0400  -13.2538   20.4477 N   0  0  0  0  0  0
  -26.3024  -12.9330   20.3380 N   0  0  0  0  0  0
  -25.9314  -11.6487   20.5772 N   0  0  0  0  0  0
  -22.0509  -12.8213   22.0409 N   0  0  0  0  0  0
  -25.4290  -15.1866   20.4050 N   0  0  0  0  0  0
  -31.8402  -14.6089   20.0943 O   0  0  0  0  0  0
  -21.6632   -6.8877   21.4238 O   0  0  0  0  0  0
  -22.3545  -14.5544   20.6714 O   0  0  0  0  0  0
  -24.6118  -31.8701   23.2110 C   0  0  0  0  0  0
  -25.9021  -32.4840   23.8399 C   0  0  1  0  0  0
  -27.2408  -27.4606   20.0958 C   0  0  0  0  0  0
  -25.5886  -33.8632   24.2339 N   0  0  0  0  0  0
  -23.3994  -30.4904   21.5522 C   0  0  2  0  0  0
  -24.8475  -28.9541   20.1211 C   0  0  0  0  0  0
  -22.7391  -29.4663   22.5024 C   0  0  0  0  0  0
  -18.0265  -28.1388   22.8498 C   0  0  0  0  0  0
  -24.1485  -36.7318   23.2638 C   0  0  0  0  0  0
  -25.9241  -30.8434   21.3590 C   0  0  0  0  0  0
  -26.0051  -29.4767   20.7119 C   0  0  0  0  0  0
  -27.2069  -28.7374   20.6937 C   0  0  0  0  0  0
  -26.0688  -26.9413   19.5057 C   0  0  0  0  0  0
  -24.8719  -27.6840   19.5172 C   0  0  0  0  0  0
  -23.6071  -29.8170   20.1692 C   0  0  0  0  0  0
  -25.4110  -36.3127   24.0341 C   0  0  1  0  0  0
  -20.5850  -28.3663   23.1344 C   0  0  2  0  0  0
  -20.6757  -26.9406   22.5431 C   0  0  0  0  0  0
  -19.5739  -26.6392   21.5226 C   0  0  0  0  0  0
  -18.1912  -26.7937   22.1623 C   0  0  0  0  0  0
  -19.1511  -28.8844   23.2916 C   0  0  0  0  0  0
  -18.9440  -30.1453   23.8923 C   0  0  0  0  0  0
  -17.6444  -30.6595   24.0573 C   0  0  0  0  0  0
  -25.9033  -34.9486   23.5139 C   0  0  0  0  0  0
  -16.5338  -29.9102   23.6328 C   0  0  0  0  0  0
  -16.7255  -28.6519   23.0351 C   0  0  0  0  0  0
  -26.4462  -31.6605   25.0712 C   0  0  0  0  0  0
  -25.3733  -31.3690   26.1462 C   0  0  0  0  0  0
  -27.0280  -30.3050   24.6062 C   0  0  0  0  0  0
  -27.6050  -32.4305   25.7474 C   0  0  0  0  0  0
  -27.5588  -37.1813   24.8465 C   0  0  0  0  0  0
  -21.4122  -29.3030   22.3755 N   0  0  0  0  0  0
  -26.4303  -37.3804   23.9406 N   0  0  0  0  0  0
  -24.6633  -31.0813   22.1002 N   0  0  0  0  0  0
  -23.4170  -28.8208   23.3062 O   0  0  0  0  0  0
  -28.4184  -26.7576   20.0512 O   0  0  0  0  0  0
  -26.5593  -34.8930   22.4701 O   0  0  0  0  0  0
  -23.5314  -32.1452   23.7510 O   0  0  0  0  0  0
  -31.8745  -16.9684   21.9063 C   0  0  0  0  0  0
  -31.6377  -19.2393   21.5973 C   0  0  0  0  0  0
  -29.7708  -17.8025   21.0208 C   0  0  0  0  0  0
  -30.5774  -16.7080   21.4193 C   0  0  0  0  0  0
  -30.3300  -19.1091   21.0726 C   0  0  0  0  0  0
  -29.4037  -24.5294   20.0740 C   0  0  0  0  0  0
  -28.3284  -17.2142   19.0046 C   0  0  0  0  0  0
  -29.1840  -22.9109   22.0491 C   0  0  0  0  0  0
  -31.2424  -24.2836   21.7261 C   0  0  0  0  0  0
  -28.8753  -21.5487   18.7258 C   0  0  0  0  0  0
  -31.0509  -20.3924   18.6059 C   0  0  0  0  0  0
  -28.3549  -17.5627   20.4994 C   0  0  0  0  0  0
  -28.3953  -25.4946   20.7216 C   0  0  0  0  0  0
  -30.8592  -22.3680   20.1553 C   0  0  0  0  0  0
  -30.1365  -23.4984   20.9806 C   0  0  0  0  0  0
  -30.0926  -21.1314   19.5702 C   0  0  0  0  0  0
  -32.3938  -18.2044   22.0120 N   0  0  0  0  0  0
  -30.1152  -15.3641   21.3160 N   0  0  0  0  0  0
  -29.5954  -20.2235   20.6146 N   0  0  0  0  0  0
  -29.6648  -24.6301   18.8704 O   0  0  0  0  0  0
  -31.4586  -12.3730   19.1046 H   0  0  0  0  0  0
  -30.3010  -11.2694   19.7884 H   0  0  0  0  0  0
  -29.7168  -11.8036   17.4043 H   0  0  0  0  0  0
  -29.6590  -13.5080   17.7824 H   0  0  0  0  0  0
  -27.8132  -11.3197   18.7991 H   0  0  0  0  0  0
  -27.3572  -12.6639   17.7879 H   0  0  0  0  0  0
  -27.7137  -14.2559   19.5972 H   0  0  0  0  0  0
  -28.6684  -11.9239   21.3248 H   0  0  0  0  0  0
  -28.4657  -13.5522   21.8830 H   0  0  0  0  0  0
  -25.2752   -9.5681   22.4759 H   0  0  0  0  0  0
  -23.9999   -7.4632   22.7472 H   0  0  0  0  0  0
  -21.0839   -8.8764   19.8947 H   0  0  0  0  0  0
  -22.3689  -10.9668   19.6164 H   0  0  0  0  0  0
  -21.1997   -7.6142   23.9711 H   0  0  0  0  0  0
  -21.1492   -6.0523   25.9076 H   0  0  0  0  0  0
  -22.0595   -2.7606   23.2848 H   0  0  0  0  0  0
  -22.4121  -11.9853   22.4759 H   0  0  0  0  0  0
  -21.1130  -13.1235   22.2647 H   0  0  0  0  0  0
  -24.6567  -15.8375   20.4980 H   0  0  0  0  0  0
  -26.2688  -15.6149   20.0404 H   0  0  0  0  0  0
  -26.7093  -32.5575   23.1170 H   0  0  0  0  0  0
  -25.0033  -33.9795   25.0484 H   0  0  0  0  0  0
  -22.6875  -31.3060   21.4108 H   0  0  0  0  0  0
  -23.3756  -35.9642   23.3303 H   0  0  0  0  0  0
  -24.3574  -36.8927   22.2050 H   0  0  0  0  0  0
  -23.7220  -37.6516   23.6648 H   0  0  0  0  0  0
  -26.0260  -31.6078   20.5874 H   0  0  0  0  0  0
  -26.8153  -30.9034   21.9722 H   0  0  0  0  0  0
  -28.1047  -29.1408   21.1404 H   0  0  0  0  0  0
  -26.0847  -25.9730   19.0251 H   0  0  0  0  0  0
  -23.9816  -27.2769   19.0583 H   0  0  0  0  0  0
  -23.7120  -30.5888   19.4054 H   0  0  0  0  0  0
  -22.7329  -29.2322   19.8772 H   0  0  0  0  0  0
  -25.1285  -36.2004   25.0833 H   0  0  0  0  0  0
  -20.9932  -28.3229   24.1468 H   0  0  0  0  0  0
  -20.5679  -26.2267   23.3607 H   0  0  0  0  0  0
  -21.6630  -26.7464   22.1225 H   0  0  0  0  0  0
  -19.6903  -25.6309   21.1239 H   0  0  0  0  0  0
  -19.6690  -27.3218   20.6766 H   0  0  0  0  0  0
  -17.4191  -26.6698   21.4018 H   0  0  0  0  0  0
  -18.0300  -26.0079   22.9015 H   0  0  0  0  0  0
  -19.7914  -30.7261   24.2310 H   0  0  0  0  0  0
  -17.4999  -31.6278   24.5173 H   0  0  0  0  0  0
  -15.5342  -30.3011   23.7642 H   0  0  0  0  0  0
  -15.8650  -28.0848   22.7057 H   0  0  0  0  0  0
  -24.5917  -30.7030   25.7785 H   0  0  0  0  0  0
  -24.8914  -32.2834   26.4927 H   0  0  0  0  0  0
  -25.8095  -30.8842   27.0203 H   0  0  0  0  0  0
  -26.2808  -29.6823   24.1129 H   0  0  0  0  0  0
  -27.4066  -29.7275   25.4504 H   0  0  0  0  0  0
  -27.8633  -30.4370   23.9182 H   0  0  0  0  0  0
  -27.2692  -33.3594   26.2097 H   0  0  0  0  0  0
  -28.3843  -32.6880   25.0289 H   0  0  0  0  0  0
  -28.0739  -31.8396   26.5355 H   0  0  0  0  0  0
  -28.2618  -38.0102   24.7527 H   0  0  0  0  0  0
  -28.1074  -36.2636   24.6284 H   0  0  0  0  0  0
  -27.2300  -37.1463   25.8866 H   0  0  0  0  0  0
  -20.9287  -29.8731   21.6957 H   0  0  0  0  0  0
  -26.0203  -38.2882   24.1418 H   0  0  0  0  0  0
  -32.5164  -16.1632   22.2340 H   0  0  0  0  0  0
  -32.1093  -20.2015   21.7045 H   0  0  0  0  0  0
  -27.3083  -17.0413   18.6623 H   0  0  0  0  0  0
  -28.9084  -16.3159   18.7953 H   0  0  0  0  0  0
  -28.7438  -18.0246   18.4064 H   0  0  0  0  0  0
  -28.8362  -23.6604   22.7598 H   0  0  0  0  0  0
  -29.6875  -22.1417   22.6350 H   0  0  0  0  0  0
  -28.3009  -22.4539   21.6038 H   0  0  0  0  0  0
  -30.8321  -25.0621   22.3699 H   0  0  0  0  0  0
  -31.9302  -24.7669   21.0302 H   0  0  0  0  0  0
  -31.8364  -23.6290   22.3650 H   0  0  0  0  0  0
  -29.1635  -22.2104   17.9080 H   0  0  0  0  0  0
  -28.1161  -22.0646   19.3129 H   0  0  0  0  0  0
  -28.3897  -20.6832   18.2720 H   0  0  0  0  0  0
  -31.2894  -21.0093   17.7384 H   0  0  0  0  0  0
  -30.6182  -19.4671   18.2243 H   0  0  0  0  0  0
  -32.0040  -20.1444   19.0723 H   0  0  0  0  0  0
  -27.7252  -18.4315   20.6878 H   0  0  0  0  0  0
  -27.8926  -16.7615   21.0749 H   0  0  0  0  0  0
  -28.6552  -25.6580   21.7671 H   0  0  0  0  0  0
  -27.4079  -25.0342   20.7015 H   0  0  0  0  0  0
  -31.6903  -22.0006   20.7499 H   0  0  0  0  0  0
  -31.3730  -22.8519   19.3224 H   0  0  0  0  0  0
  -29.1714  -15.1596   21.6081 H   0  0  0  0  0  0
  -28.6026  -20.0416   20.5197 H   0  0  0  0  0  0
  1 25  1  0  0  0
  1 30  2  0  0  0
  1 88  1  0  0  0
  2  3  1  0  0  0
  2 25  1  0  0  0
  2 91  1  0  0  0
  2 92  1  0  0  0
  3  4  1  0  0  0
  3 93  1  0  0  0
  3 94  1  0  0  0
  4  5  1  0  0  0
  4 95  1  0  0  0
  4 96  1  0  0  0
  5  6  1  0  0  0
  5 26  1  0  0  0
  5 97  1  0  0  0
  6 25  1  0  0  0
  6 98  1  0  0  0
  6 99  1  0  0  0
  7  8  2  0  0  0
  7 26  1  0  0  0
  7 29  1  0  0  0
  8  9  1  0  0  0
  8 22  1  0  0  0
  9 10  1  0  0  0
  9 27  2  0  0  0
 10 11  2  0  0  0
 10 15  1  0  0  0
 11 12  1  0  0  0
 11100  1  0  0  0
 12 13  2  0  0  0
 12101  1  0  0  0
 13 14  1  0  0  0
 13 31  1  0  0  0
 14 15  2  0  0  0
 14102  1  0  0  0
 15103  1  0  0  0
 16 17  2  0  0  0
 16 21  1  0  0  0
 16 31  1  0  0  0
 17 18  1  0  0  0
 17104  1  0  0  0
 18 19  2  0  0  0
 18105  1  0  0  0
 19 20  1  0  0  0
 19 24  1  0  0  0
 20 21  2  0  0  0
 20106  1  0  0  0
 21 23  1  0  0  0
 22 28  1  0  0  0
 22 32  2  0  0  0
 26 27  1  0  0  0
 28107  1  0  0  0
 28108  1  0  0  0
 29109  1  0  0  0
 29110  1  0  0  0
 33 34  1  0  0  0
 33 66  1  0  0  0
 33 70  2  0  0  0
 34 36  1  0  0  0
 34 59  1  0  0  0
 34111  1  0  0  0
 35 44  2  0  0  0
 35 45  1  0  0  0
 35 68  1  0  0  0
 36 56  1  0  0  0
 36112  1  0  0  0
 37 39  1  0  0  0
 37 47  1  0  0  0
 37 66  1  0  0  0
 37113  1  0  0  0
 38 43  2  0  0  0
 38 46  1  0  0  0
 38 47  1  0  0  0
 39 64  1  0  0  0
 39 67  2  0  0  0
 40 52  1  0  0  0
 40 53  2  0  0  0
 40 58  1  0  0  0
 41114  1  0  0  0
 41115  1  0  0  0
 41116  1  0  0  0
 41 48  1  0  0  0
 42 43  1  0  0  0
 42 66  1  0  0  0
 42117  1  0  0  0
 42118  1  0  0  0
 43 44  1  0  0  0
 44119  1  0  0  0
 45 46  2  0  0  0
 45120  1  0  0  0
 46121  1  0  0  0
 47122  1  0  0  0
 47123  1  0  0  0
 48 56  1  0  0  0
 48 65  1  0  0  0
 48124  1  0  0  0
 49 50  1  0  0  0
 49 53  1  0  0  0
 49 64  1  0  0  0
 49125  1  0  0  0
 50 51  1  0  0  0
 50126  1  0  0  0
 50127  1  0  0  0
 51 52  1  0  0  0
 51128  1  0  0  0
 51129  1  0  0  0
 52130  1  0  0  0
 52131  1  0  0  0
 53 54  1  0  0  0
 54 55  2  0  0  0
 54132  1  0  0  0
 55 57  1  0  0  0
 55133  1  0  0  0
 56 69  2  0  0  0
 57 58  2  0  0  0
 57134  1  0  0  0
 58135  1  0  0  0
 59 60  1  0  0  0
 59 61  1  0  0  0
 59 62  1  0  0  0
 60136  1  0  0  0
 60137  1  0  0  0
 60138  1  0  0  0
 61139  1  0  0  0
 61140  1  0  0  0
 61141  1  0  0  0
 62142  1  0  0  0
 62143  1  0  0  0
 62144  1  0  0  0
 63 65  1  0  0  0
 63145  1  0  0  0
 63146  1  0  0  0
 63147  1  0  0  0
 64148  1  0  0  0
 65149  1  0  0  0
 68 83  1  0  0  0
 71 74  2  0  0  0
 71 87  1  0  0  0
 71150  1  0  0  0
 72 75  1  0  0  0
 72 87  2  0  0  0
 72151  1  0  0  0
 73 74  1  0  0  0
 73 75  2  0  0  0
 73 82  1  0  0  0
 74 88  1  0  0  0
 75 89  1  0  0  0
 76 83  1  0  0  0
 76 85  1  0  0  0
 76 90  2  0  0  0
 77 82  1  0  0  0
 77152  1  0  0  0
 77153  1  0  0  0
 77154  1  0  0  0
 78155  1  0  0  0
 78156  1  0  0  0
 78157  1  0  0  0
 78 85  1  0  0  0
 79 85  1  0  0  0
 79158  1  0  0  0
 79159  1  0  0  0
 79160  1  0  0  0
 80161  1  0  0  0
 80162  1  0  0  0
 80163  1  0  0  0
 80 86  1  0  0  0
 81 86  1  0  0  0
 81164  1  0  0  0
 81165  1  0  0  0
 81166  1  0  0  0
 82167  1  0  0  0
 82168  1  0  0  0
 83169  1  0  0  0
 83170  1  0  0  0
 84 85  1  0  0  0
 84 86  1  0  0  0
 84171  1  0  0  0
 84172  1  0  0  0
 86 89  1  0  0  0
 88173  1  0  0  0
 89174  1  0  0  0
M  ISO  4   1 100  68 101  83 101  88 100
M  END
> <chiral flag>
0

> <version>
0

> <s_m_source_file>
/data/baiqing/PycharmProjects/Reinvent-master-3.2/result/LINK_invent/BTK/process_docking_weight1_custom_product_contain_oxygen_bond_distance_aromatic_linkinvent_7_9_3/rearranged_h_0143.sdf

> <i_m_source_file_index>
44

> <r_mmod_Potential_Energy-OPLS-2005>
-102.169792175293

> <r_mmod_Stretch_Energy-OPLS-2005>
41.3230285644531

> <r_mmod_Bend_Energy-OPLS-2005>
119.286643981934

> <r_mmod_Torsional_Energy-OPLS-2005>
273.357452392578

> <r_mmod_Improper_Torsional_Energy-OPLS-2005>
7.00777673721313

> <r_mmod_Van_der_Waal_Energy-OPLS-2005>
161.930816650391

> <r_mmod_Electrostatic_Energy-OPLS-2005>
-486.435180664062

> <r_mmod_Solvation_Energy-OPLS-2005>
-226.631942749023

> <b_mmod_Minimization_Converged-OPLS-2005>
0

> <r_mmod_RMS_Derivative-OPLS-2005>
1.09684574604034

$$$$
44
                    3D
 Structure written by MMmdl.
161169  0  0  1  0            999 V2000
  -30.0165  -16.4104   20.2791 C   0  0  0  0  0  0
  -30.3582  -13.6566   19.5855 C   0  0  0  0  0  0
  -29.5918  -12.9072   18.4253 C   0  0  0  0  0  0
  -28.2312  -12.3773   18.8815 C   0  0  0  0  0  0
  -27.5796  -13.4123   19.8110 C   0  0  2  0  0  0
  -28.5187  -14.0563   20.8863 C   0  0  0  0  0  0
  -25.2198  -13.8452   20.5878 C   0  0  0  0  0  0
  -24.1684  -13.0467   20.9302 C   0  0  0  0  0  0
  -24.6530  -11.7020   20.8710 C   0  0  0  0  0  0
  -23.9241  -10.4320   21.0338 C   0  0  0  0  0  0
  -24.3735   -9.4231   21.9147 C   0  0  0  0  0  0
  -23.6363   -8.2283   22.0748 C   0  0  0  0  0  0
  -22.4336   -8.0326   21.3554 C   0  0  0  0  0  0
  -22.0012   -9.0300   20.4639 C   0  0  0  0  0  0
  -22.7382  -10.2156   20.3018 C   0  0  0  0  0  0
  -21.6874   -6.0764   22.5281 C   0  0  0  0  0  0
  -21.4018   -6.5652   23.8215 C   0  0  0  0  0  0
  -21.3671   -5.6800   24.9175 C   0  0  0  0  0  0
  -21.6052   -4.3065   24.7226 C   0  0  0  0  0  0
  -21.8809   -3.8162   23.4344 C   0  0  0  0  0  0
  -21.9195   -4.6984   22.3400 C   0  0  0  0  0  0
  -22.7669  -13.5102   21.1925 C   0  0  0  0  0  0
  -22.1662   -4.2171   21.0978 F   0  0  0  0  0  0
  -21.5644   -3.4543   25.7735 F   0  0  0  0  0  0
  -29.6001  -14.8998   20.2362 N   0  0  0  0  0  0
  -26.2800  -13.0000   20.3322 N   0  0  0  0  0  0
  -25.9520  -11.6948   20.5589 N   0  0  0  0  0  0
  -22.0364  -12.8061   22.0487 N   0  0  0  0  0  0
  -25.3629  -15.2214   20.4358 N   0  0  0  0  0  0
  -31.2518  -16.2087   20.1287 O   0  0  0  0  0  0
  -21.6675   -6.8934   21.4261 O   0  0  0  0  0  0
  -22.3307  -14.5394   20.6768 O   0  0  0  0  0  0
  -24.7340  -31.7368   23.1135 C   0  0  0  0  0  0
  -25.9669  -32.4162   23.7862 C   0  0  1  0  0  0
  -27.2620  -26.1733   20.2609 C   0  0  0  0  0  0
  -25.6027  -33.8021   24.1681 N   0  0  0  0  0  0
  -23.5865  -30.3116   21.4785 C   0  0  2  0  0  0
  -25.0600  -28.5522   20.1267 C   0  0  0  0  0  0
  -22.8017  -29.3958   22.4610 C   0  0  0  0  0  0
  -18.0375  -28.1444   22.8422 C   0  0  0  0  0  0
  -24.1485  -36.7003   23.2659 C   0  0  0  0  0  0
  -26.1838  -30.2889   21.4695 C   0  0  0  0  0  0
  -26.2468  -28.7955   20.8293 C   0  0  0  0  0  0
  -27.2961  -27.6468   20.8721 C   0  0  0  0  0  0
  -26.0641  -26.3051   19.4610 C   0  0  0  0  0  0
  -25.0421  -27.3360   19.4164 C   0  0  0  0  0  0
  -23.8722  -29.5620   20.1358 C   0  0  0  0  0  0
  -25.4161  -36.2722   24.0253 C   0  0  1  0  0  0
  -20.6034  -28.3803   23.1057 C   0  0  2  0  0  0
  -20.6794  -26.9411   22.5412 C   0  0  0  0  0  0
  -19.5783  -26.6347   21.5214 C   0  0  0  0  0  0
  -18.1970  -26.7959   22.1601 C   0  0  0  0  0  0
  -19.1656  -28.8968   23.2692 C   0  0  0  0  0  0
  -18.9553  -30.1546   23.8737 C   0  0  0  0  0  0
  -17.6530  -30.6602   24.0549 C   0  0  0  0  0  0
  -25.9181  -34.9122   23.4858 C   0  0  0  0  0  0
  -16.5415  -29.9067   23.6376 C   0  0  0  0  0  0
  -16.7350  -28.6510   23.0362 C   0  0  0  0  0  0
  -26.4675  -31.6407   25.0697 C   0  0  0  0  0  0
  -25.3613  -31.3888   26.1232 C   0  0  0  0  0  0
  -27.0673  -30.2677   24.6989 C   0  0  0  0  0  0
  -27.6025  -32.4376   25.7540 C   0  0  0  0  0  0
  -27.5557  -37.1638   24.8463 C   0  0  0  0  0  0
  -21.4606  -29.2947   22.3332 N   0  0  0  0  0  0
  -26.4233  -37.3559   23.9441 N   0  0  0  0  0  0
  -24.8640  -30.8251   22.0725 N   0  0  0  0  0  0
  -23.4205  -28.7692   23.3237 O   0  0  0  0  0  0
  -27.9987  -24.5774   20.3672 O   0  0  0  0  0  0
  -26.5885  -34.8810   22.4514 O   0  0  0  0  0  0
  -23.6241  -32.0704   23.5722 O   0  0  0  0  0  0
  -27.0996  -22.4646   20.6711 C   0  0  0  0  0  0
  -26.5637  -23.7922   21.7380 C   0  0  0  0  0  0
  -29.4846  -24.4782   21.8988 C   0  0  0  0  0  0
  -28.6698  -21.7631   20.4487 C   0  0  0  0  0  0
  -29.7169  -23.0802   20.8256 C   0  0  0  0  0  0
  -27.8372  -24.8649   22.4569 C   0  0  0  0  0  0
  -29.3297  -19.7210   20.2837 C   0  0  0  0  0  0
  -27.7851  -24.6184   24.6447 C   0  0  0  0  0  0
  -31.1616  -22.8821   20.4055 C   0  0  0  0  0  0
  -27.5314  -21.2279   22.9287 C   0  0  0  0  0  0
  -29.7307  -22.1440   23.3080 C   0  0  0  0  0  0
  -27.6877  -23.1395   24.1928 C   0  0  0  0  0  0
  -28.3065  -22.6661   22.6895 C   0  0  0  0  0  0
  -29.2008  -18.0702   20.3958 N   0  0  0  0  0  0
  -27.6673  -25.5009   23.6659 N   0  0  0  0  0  0
  -27.9516  -24.9314   25.8255 O   0  0  0  0  0  0
  -31.2980  -14.0032   19.1546 H   0  0  0  0  0  0
  -30.6726  -12.9436   20.3502 H   0  0  0  0  0  0
  -30.1988  -12.0954   18.0226 H   0  0  0  0  0  0
  -29.4426  -13.6088   17.6027 H   0  0  0  0  0  0
  -28.3886  -11.4500   19.4334 H   0  0  0  0  0  0
  -27.5903  -12.1448   18.0304 H   0  0  0  0  0  0
  -27.3515  -14.2312   19.1280 H   0  0  0  0  0  0
  -28.9149  -13.3070   21.5730 H   0  0  0  0  0  0
  -27.9390  -14.7322   21.5141 H   0  0  0  0  0  0
  -25.2873   -9.5699   22.4746 H   0  0  0  0  0  0
  -24.0054   -7.4682   22.7485 H   0  0  0  0  0  0
  -21.0938   -8.8837   19.8949 H   0  0  0  0  0  0
  -22.3836  -10.9699   19.6132 H   0  0  0  0  0  0
  -21.1990   -7.6159   23.9729 H   0  0  0  0  0  0
  -21.1513   -6.0527   25.9085 H   0  0  0  0  0  0
  -22.0573   -2.7629   23.2829 H   0  0  0  0  0  0
  -22.4023  -11.9760   22.4915 H   0  0  0  0  0  0
  -21.0954  -13.1016   22.2632 H   0  0  0  0  0  0
  -24.5915  -15.8677   20.5599 H   0  0  0  0  0  0
  -26.2216  -15.6829   20.1594 H   0  0  0  0  0  0
  -26.7819  -32.4528   23.0616 H   0  0  0  0  0  0
  -25.0018  -33.8986   24.9739 H   0  0  0  0  0  0
  -22.9416  -31.1628   21.2457 H   0  0  0  0  0  0
  -23.3816  -35.9253   23.3169 H   0  0  0  0  0  0
  -24.3548  -36.8841   22.2101 H   0  0  0  0  0  0
  -23.7154  -37.6086   23.6866 H   0  0  0  0  0  0
  -26.4370  -30.9756   20.6605 H   0  0  0  0  0  0
  -27.0183  -30.3805   22.1495 H   0  0  0  0  0  0
  -28.1543  -27.8495   21.4963 H   0  0  0  0  0  0
  -25.8210  -25.4188   18.8909 H   0  0  0  0  0  0
  -24.1729  -27.1294   18.8058 H   0  0  0  0  0  0
  -24.0786  -30.3036   19.3632 H   0  0  0  0  0  0
  -22.9679  -29.0456   19.8046 H   0  0  0  0  0  0
  -25.1373  -36.1411   25.0733 H   0  0  0  0  0  0
  -21.0077  -28.3448   24.1208 H   0  0  0  0  0  0
  -20.5575  -26.2451   23.3731 H   0  0  0  0  0  0
  -21.6661  -26.7256   22.1298 H   0  0  0  0  0  0
  -19.6924  -25.6233   21.1319 H   0  0  0  0  0  0
  -19.6742  -27.3109   20.6711 H   0  0  0  0  0  0
  -17.4247  -26.6725   21.3995 H   0  0  0  0  0  0
  -18.0315  -26.0128   22.9015 H   0  0  0  0  0  0
  -19.8028  -30.7408   24.2027 H   0  0  0  0  0  0
  -17.5077  -31.6266   24.5178 H   0  0  0  0  0  0
  -15.5405  -30.2913   23.7795 H   0  0  0  0  0  0
  -15.8758  -28.0789   22.7127 H   0  0  0  0  0  0
  -24.5915  -30.7085   25.7580 H   0  0  0  0  0  0
  -24.8680  -32.3142   26.4205 H   0  0  0  0  0  0
  -25.7709  -30.9409   27.0294 H   0  0  0  0  0  0
  -26.3480  -29.6128   24.2077 H   0  0  0  0  0  0
  -27.3952  -29.7349   25.5920 H   0  0  0  0  0  0
  -27.9519  -30.3655   24.0705 H   0  0  0  0  0  0
  -27.2540  -33.3860   26.1635 H   0  0  0  0  0  0
  -28.4090  -32.6611   25.0550 H   0  0  0  0  0  0
  -28.0389  -31.8814   26.5843 H   0  0  0  0  0  0
  -28.2464  -38.0041   24.7618 H   0  0  0  0  0  0
  -28.1161  -36.2563   24.6149 H   0  0  0  0  0  0
  -27.2288  -37.1092   25.8864 H   0  0  0  0  0  0
  -21.0065  -29.8478   21.6200 H   0  0  0  0  0  0
  -26.0005  -38.2564   24.1541 H   0  0  0  0  0  0
  -26.2873  -21.8134   20.3851 H   0  0  0  0  0  0
  -25.5204  -23.8971   22.0035 H   0  0  0  0  0  0
  -30.3349  -25.0502   22.2430 H   0  0  0  0  0  0
  -30.3683  -19.8995   19.9899 H   0  0  0  0  0  0
  -31.7559  -22.4252   21.1986 H   0  0  0  0  0  0
  -31.6209  -23.8397   20.1652 H   0  0  0  0  0  0
  -31.2249  -22.2540   19.5173 H   0  0  0  0  0  0
  -27.6434  -20.7980   23.9267 H   0  0  0  0  0  0
  -27.8647  -20.4012   22.3160 H   0  0  0  0  0  0
  -26.4498  -21.2865   22.8016 H   0  0  0  0  0  0
  -30.2812  -21.4784   22.6450 H   0  0  0  0  0  0
  -29.6433  -21.5278   24.2045 H   0  0  0  0  0  0
  -30.4028  -22.9463   23.6134 H   0  0  0  0  0  0
  -26.6104  -22.9644   24.2473 H   0  0  0  0  0  0
  -28.0687  -22.5737   25.0437 H   0  0  0  0  0  0
  -27.8535  -26.4861   23.7935 H   0  0  0  0  0  0
  1 25  1  0  0  0
  1 30  2  0  0  0
  1 84  1  0  0  0
  2  3  1  0  0  0
  2 25  1  0  0  0
  2 87  1  0  0  0
  2 88  1  0  0  0
  3  4  1  0  0  0
  3 89  1  0  0  0
  3 90  1  0  0  0
  4  5  1  0  0  0
  4 91  1  0  0  0
  4 92  1  0  0  0
  5  6  1  0  0  0
  5 26  1  0  0  0
  5 93  1  0  0  0
  6 25  1  0  0  0
  6 94  1  0  0  0
  6 95  1  0  0  0
  7  8  2  0  0  0
  7 26  1  0  0  0
  7 29  1  0  0  0
  8  9  1  0  0  0
  8 22  1  0  0  0
  9 10  1  0  0  0
  9 27  2  0  0  0
 10 11  2  0  0  0
 10 15  1  0  0  0
 11 12  1  0  0  0
 11 96  1  0  0  0
 12 13  2  0  0  0
 12 97  1  0  0  0
 13 14  1  0  0  0
 13 31  1  0  0  0
 14 15  2  0  0  0
 14 98  1  0  0  0
 15 99  1  0  0  0
 16 17  2  0  0  0
 16 21  1  0  0  0
 16 31  1  0  0  0
 17 18  1  0  0  0
 17100  1  0  0  0
 18 19  2  0  0  0
 18101  1  0  0  0
 19 20  1  0  0  0
 19 24  1  0  0  0
 20 21  2  0  0  0
 20102  1  0  0  0
 21 23  1  0  0  0
 22 28  1  0  0  0
 22 32  2  0  0  0
 26 27  1  0  0  0
 28103  1  0  0  0
 28104  1  0  0  0
 29105  1  0  0  0
 29106  1  0  0  0
 33 34  1  0  0  0
 33 66  1  0  0  0
 33 70  2  0  0  0
 34 36  1  0  0  0
 34 59  1  0  0  0
 34107  1  0  0  0
 35 44  2  0  0  0
 35 45  1  0  0  0
 35 68  1  0  0  0
 36 56  1  0  0  0
 36108  1  0  0  0
 37 39  1  0  0  0
 37 47  1  0  0  0
 37 66  1  0  0  0
 37109  1  0  0  0
 38 43  2  0  0  0
 38 46  1  0  0  0
 38 47  1  0  0  0
 39 64  1  0  0  0
 39 67  2  0  0  0
 40 52  1  0  0  0
 40 53  2  0  0  0
 40 58  1  0  0  0
 41110  1  0  0  0
 41111  1  0  0  0
 41112  1  0  0  0
 41 48  1  0  0  0
 42 43  1  0  0  0
 42 66  1  0  0  0
 42113  1  0  0  0
 42114  1  0  0  0
 43 44  1  0  0  0
 44115  1  0  0  0
 45 46  2  0  0  0
 45116  1  0  0  0
 46117  1  0  0  0
 47118  1  0  0  0
 47119  1  0  0  0
 48 56  1  0  0  0
 48 65  1  0  0  0
 48120  1  0  0  0
 49 50  1  0  0  0
 49 53  1  0  0  0
 49 64  1  0  0  0
 49121  1  0  0  0
 50 51  1  0  0  0
 50122  1  0  0  0
 50123  1  0  0  0
 51 52  1  0  0  0
 51124  1  0  0  0
 51125  1  0  0  0
 52126  1  0  0  0
 52127  1  0  0  0
 53 54  1  0  0  0
 54 55  2  0  0  0
 54128  1  0  0  0
 55 57  1  0  0  0
 55129  1  0  0  0
 56 69  2  0  0  0
 57 58  2  0  0  0
 57130  1  0  0  0
 58131  1  0  0  0
 59 60  1  0  0  0
 59 61  1  0  0  0
 59 62  1  0  0  0
 60132  1  0  0  0
 60133  1  0  0  0
 60134  1  0  0  0
 61135  1  0  0  0
 61136  1  0  0  0
 61137  1  0  0  0
 62138  1  0  0  0
 62139  1  0  0  0
 62140  1  0  0  0
 63 65  1  0  0  0
 63141  1  0  0  0
 63142  1  0  0  0
 63143  1  0  0  0
 64144  1  0  0  0
 65145  1  0  0  0
 68 83  1  0  0  0
 71 72  2  0  0  0
 71 74  1  0  0  0
 71146  1  0  0  0
 72 76  1  0  0  0
 72147  1  0  0  0
 73 75  1  0  0  0
 73 76  2  0  0  0
 73148  1  0  0  0
 74 75  2  0  0  0
 74 77  1  0  0  0
 75 79  1  0  0  0
 76 85  1  0  0  0
 77 84  2  0  0  0
 77149  1  0  0  0
 78 82  1  0  0  0
 78 85  1  0  0  0
 78 86  2  0  0  0
 79150  1  0  0  0
 79151  1  0  0  0
 79152  1  0  0  0
 80153  1  0  0  0
 80154  1  0  0  0
 80155  1  0  0  0
 80 83  1  0  0  0
 81 83  1  0  0  0
 81156  1  0  0  0
 81157  1  0  0  0
 81158  1  0  0  0
 82 83  1  0  0  0
 82159  1  0  0  0
 82160  1  0  0  0
 85161  1  0  0  0
M  ISO  4   1 100  68 101  83 101  84 100
M  END
> <chiral flag>
0

> <version>
0

> <s_m_source_file>
/data/baiqing/PycharmProjects/Reinvent-master-3.2/result/LINK_invent/BTK/process_docking_weight1_custom_product_contain_oxygen_bond_distance_aromatic_linkinvent_7_9_3/rearranged_h_0143.sdf

> <i_m_source_file_index>
45

> <r_mmod_Potential_Energy-OPLS-2005>
12501.7109375

> <r_mmod_Stretch_Energy-OPLS-2005>
7160.50390625

> <r_mmod_Bend_Energy-OPLS-2005>
994.999816894531

> <r_mmod_Torsional_Energy-OPLS-2005>
358.517791748047

> <r_mmod_Improper_Torsional_Energy-OPLS-2005>
17.3112716674805

> <r_mmod_Van_der_Waal_Energy-OPLS-2005>
2034.29370117188

> <r_mmod_Electrostatic_Energy-OPLS-2005>
-330.714813232422

> <r_mmod_Solvation_Energy-OPLS-2005>
-210.648590087891

> <b_mmod_Minimization_Converged-OPLS-2005>
0

> <r_mmod_RMS_Derivative-OPLS-2005>
4.34792423248291

$$$$
45
                    3D
 Structure written by MMmdl.
158167  0  0  1  0            999 V2000
  -30.7103  -14.4867   20.5524 C   0  0  0  0  0  0
  -30.4126  -12.3113   19.4338 C   0  0  0  0  0  0
  -29.4912  -12.5056   18.2115 C   0  0  0  0  0  0
  -28.0115  -12.3693   18.6193 C   0  0  0  0  0  0
  -27.6565  -13.2163   19.8696 C   0  0  2  0  0  0
  -28.6975  -13.0297   20.9972 C   0  0  0  0  0  0
  -25.2559  -13.8182   20.5658 C   0  0  0  0  0  0
  -24.1824  -13.0446   20.9178 C   0  0  0  0  0  0
  -24.6399  -11.6913   20.8736 C   0  0  0  0  0  0
  -23.9079  -10.4287   21.0400 C   0  0  0  0  0  0
  -24.3626   -9.4200   21.9177 C   0  0  0  0  0  0
  -23.6306   -8.2228   22.0741 C   0  0  0  0  0  0
  -22.4283   -8.0275   21.3529 C   0  0  0  0  0  0
  -21.9918   -9.0253   20.4630 C   0  0  0  0  0  0
  -22.7252  -10.2132   20.3047 C   0  0  0  0  0  0
  -21.6851   -6.0742   22.5275 C   0  0  0  0  0  0
  -21.4017   -6.5642   23.8205 C   0  0  0  0  0  0
  -21.3669   -5.6785   24.9164 C   0  0  0  0  0  0
  -21.6047   -4.3054   24.7217 C   0  0  0  0  0  0
  -21.8821   -3.8150   23.4327 C   0  0  0  0  0  0
  -21.9197   -4.6966   22.3390 C   0  0  0  0  0  0
  -22.7842  -13.5230   21.1848 C   0  0  0  0  0  0
  -22.1661   -4.2154   21.0967 F   0  0  0  0  0  0
  -21.5632   -3.4541   25.7733 F   0  0  0  0  0  0
  -30.0268  -13.3161   20.4382 N   0  0  0  0  0  0
  -26.2998  -12.9373   20.3334 N   0  0  0  0  0  0
  -25.9328  -11.6526   20.5760 N   0  0  0  0  0  0
  -22.0489  -12.8206   22.0410 N   0  0  0  0  0  0
  -25.4310  -15.1898   20.4049 N   0  0  0  0  0  0
  -31.8521  -14.6318   20.1073 O   0  0  0  0  0  0
  -21.6631   -6.8885   21.4237 O   0  0  0  0  0  0
  -22.3513  -14.5534   20.6712 O   0  0  0  0  0  0
  -24.6125  -31.8690   23.2091 C   0  0  0  0  0  0
  -25.9019  -32.4828   23.8394 C   0  0  1  0  0  0
  -27.2321  -27.4442   20.1060 C   0  0  0  0  0  0
  -25.5867  -33.8629   24.2316 N   0  0  0  0  0  0
  -23.4007  -30.4907   21.5505 C   0  0  2  0  0  0
  -24.8480  -28.9557   20.1170 C   0  0  0  0  0  0
  -22.7401  -29.4661   22.4999 C   0  0  0  0  0  0
  -18.0268  -28.1387   22.8490 C   0  0  0  0  0  0
  -24.1486  -36.7332   23.2643 C   0  0  0  0  0  0
  -25.9274  -30.8399   21.3589 C   0  0  0  0  0  0
  -26.0063  -29.4732   20.7101 C   0  0  0  0  0  0
  -27.2048  -28.7251   20.6996 C   0  0  0  0  0  0
  -26.0612  -26.9378   19.5053 C   0  0  0  0  0  0
  -24.8692  -27.6865   19.5108 C   0  0  0  0  0  0
  -23.6089  -29.8213   20.1655 C   0  0  0  0  0  0
  -25.4101  -36.3115   24.0335 C   0  0  1  0  0  0
  -20.5857  -28.3663   23.1324 C   0  0  2  0  0  0
  -20.6753  -26.9403   22.5418 C   0  0  0  0  0  0
  -19.5730  -26.6396   21.5209 C   0  0  0  0  0  0
  -18.1909  -26.7932   22.1623 C   0  0  0  0  0  0
  -19.1520  -28.8837   23.2901 C   0  0  0  0  0  0
  -18.9453  -30.1448   23.8904 C   0  0  0  0  0  0
  -17.6457  -30.6592   24.0575 C   0  0  0  0  0  0
  -25.9026  -34.9481   23.5126 C   0  0  0  0  0  0
  -16.5345  -29.9094   23.6336 C   0  0  0  0  0  0
  -16.7262  -28.6519   23.0340 C   0  0  0  0  0  0
  -26.4440  -31.6609   25.0726 C   0  0  0  0  0  0
  -25.3709  -31.3738   26.1486 C   0  0  0  0  0  0
  -27.0269  -30.3049   24.6099 C   0  0  0  0  0  0
  -27.6021  -32.4330   25.7478 C   0  0  0  0  0  0
  -27.5575  -37.1819   24.8458 C   0  0  0  0  0  0
  -21.4127  -29.3030   22.3738 N   0  0  0  0  0  0
  -26.4289  -37.3794   23.9404 N   0  0  0  0  0  0
  -24.6651  -31.0802   22.0986 N   0  0  0  0  0  0
  -23.4177  -28.8197   23.3035 O   0  0  0  0  0  0
  -28.3862  -26.7000   20.0866 O   0  0  0  0  0  0
  -26.5613  -34.8931   22.4702 O   0  0  0  0  0  0
  -23.5320  -32.1437   23.7487 O   0  0  0  0  0  0
  -29.0602  -18.7595   22.3719 C   0  0  0  0  0  0
  -28.4530  -20.0133   22.0490 C   0  0  0  0  0  0
  -29.0241  -19.8437   19.6284 C   0  0  0  0  0  0
  -29.6317  -18.0875   21.2874 C   0  0  0  0  0  0
  -29.6197  -18.6259   19.9669 C   0  0  0  0  0  0
  -28.4287  -20.5494   20.7146 C   0  0  0  0  0  0
  -28.2195  -24.2435   20.3399 C   0  0  0  0  0  0
  -30.4735  -17.5156   19.4100 C   0  0  0  0  0  0
  -30.5391  -16.9253   20.9105 C   0  0  2  0  0  0
  -29.7778  -25.7033   21.7429 C   0  0  0  0  0  0
  -28.1752  -22.9667   21.2142 C   0  0  0  0  0  0
  -28.4195  -25.6157   21.0327 C   0  0  1  0  0  0
  -27.8130  -21.7789   20.4285 N   0  0  0  0  0  0
  -30.0210  -15.5512   21.0081 N   0  0  0  0  0  0
  -28.0967  -24.1511   19.1120 O   0  0  0  0  0  0
  -31.4597  -12.3937   19.1359 H   0  0  0  0  0  0
  -30.3011  -11.3079   19.8494 H   0  0  0  0  0  0
  -29.7333  -11.7784   17.4351 H   0  0  0  0  0  0
  -29.6589  -13.4899   17.7697 H   0  0  0  0  0  0
  -27.8144  -11.3156   18.8186 H   0  0  0  0  0  0
  -27.3654  -12.6474   17.7860 H   0  0  0  0  0  0
  -27.6907  -14.2595   19.5547 H   0  0  0  0  0  0
  -28.6704  -12.0080   21.3792 H   0  0  0  0  0  0
  -28.4630  -13.6706   21.8484 H   0  0  0  0  0  0
  -25.2766   -9.5687   22.4759 H   0  0  0  0  0  0
  -24.0019   -7.4619   22.7446 H   0  0  0  0  0  0
  -21.0855   -8.8797   19.8926 H   0  0  0  0  0  0
  -22.3727  -10.9685   19.6163 H   0  0  0  0  0  0
  -21.2017   -7.6147   23.9721 H   0  0  0  0  0  0
  -21.1487   -6.0504   25.9072 H   0  0  0  0  0  0
  -22.0603   -2.7612   23.2819 H   0  0  0  0  0  0
  -22.4120  -11.9866   22.4784 H   0  0  0  0  0  0
  -21.1109  -13.1226   22.2637 H   0  0  0  0  0  0
  -24.6683  -15.8499   20.5087 H   0  0  0  0  0  0
  -26.2881  -15.6256   20.0900 H   0  0  0  0  0  0
  -26.7094  -32.5542   23.1171 H   0  0  0  0  0  0
  -24.9966  -33.9790   25.0420 H   0  0  0  0  0  0
  -22.6884  -31.3067   21.4117 H   0  0  0  0  0  0
  -23.3731  -35.9684   23.3318 H   0  0  0  0  0  0
  -24.3578  -36.8936   22.2053 H   0  0  0  0  0  0
  -23.7263  -37.6551   23.6653 H   0  0  0  0  0  0
  -26.0357  -31.6038   20.5874 H   0  0  0  0  0  0
  -26.8162  -30.8966   21.9755 H   0  0  0  0  0  0
  -28.1017  -29.1243   21.1513 H   0  0  0  0  0  0
  -26.0739  -25.9679   19.0306 H   0  0  0  0  0  0
  -23.9790  -27.2828   19.0484 H   0  0  0  0  0  0
  -23.7170  -30.5965   19.4059 H   0  0  0  0  0  0
  -22.7325  -29.2408   19.8717 H   0  0  0  0  0  0
  -25.1278  -36.1974   25.0828 H   0  0  0  0  0  0
  -20.9953  -28.3227   24.1442 H   0  0  0  0  0  0
  -20.5657  -26.2268   23.3596 H   0  0  0  0  0  0
  -21.6623  -26.7442   22.1214 H   0  0  0  0  0  0
  -19.6890  -25.6309   21.1227 H   0  0  0  0  0  0
  -19.6669  -27.3219   20.6745 H   0  0  0  0  0  0
  -17.4177  -26.6685   21.4026 H   0  0  0  0  0  0
  -18.0313  -26.0077   22.9023 H   0  0  0  0  0  0
  -19.7925  -30.7269   24.2268 H   0  0  0  0  0  0
  -17.5013  -31.6268   24.5186 H   0  0  0  0  0  0
  -15.5346  -30.3002   23.7660 H   0  0  0  0  0  0
  -15.8659  -28.0854   22.7030 H   0  0  0  0  0  0
  -24.5824  -30.7145   25.7840 H   0  0  0  0  0  0
  -24.8960  -32.2907   26.4985 H   0  0  0  0  0  0
  -25.8047  -30.8861   27.0220 H   0  0  0  0  0  0
  -26.2820  -29.6828   24.1121 H   0  0  0  0  0  0
  -27.4007  -29.7266   25.4558 H   0  0  0  0  0  0
  -27.8663  -30.4371   23.9269 H   0  0  0  0  0  0
  -27.2627  -33.3601   26.2108 H   0  0  0  0  0  0
  -28.3788  -32.6941   25.0282 H   0  0  0  0  0  0
  -28.0735  -31.8432   26.5344 H   0  0  0  0  0  0
  -28.2607  -38.0108   24.7494 H   0  0  0  0  0  0
  -28.1058  -36.2635   24.6284 H   0  0  0  0  0  0
  -27.2301  -37.1487   25.8868 H   0  0  0  0  0  0
  -20.9283  -29.8754   21.6964 H   0  0  0  0  0  0
  -26.0174  -38.2876   24.1393 H   0  0  0  0  0  0
  -29.1125  -18.3833   23.3836 H   0  0  0  0  0  0
  -28.0028  -20.5770   22.8540 H   0  0  0  0  0  0
  -29.0523  -20.2291   18.6183 H   0  0  0  0  0  0
  -31.4284  -17.8785   19.0250 H   0  0  0  0  0  0
  -29.9321  -16.9034   18.6881 H   0  0  0  0  0  0
  -31.5245  -17.0598   21.3618 H   0  0  0  0  0  0
  -29.8795  -24.9405   22.5145 H   0  0  0  0  0  0
  -29.8995  -26.6727   22.2264 H   0  0  0  0  0  0
  -30.5981  -25.5769   21.0350 H   0  0  0  0  0  0
  -27.4500  -23.1194   22.0147 H   0  0  0  0  0  0
  -29.1509  -22.8289   21.6833 H   0  0  0  0  0  0
  -27.6274  -25.7413   21.7730 H   0  0  0  0  0  0
  -27.7837  -22.0241   19.4391 H   0  0  0  0  0  0
  -29.0780  -15.4178   21.3364 H   0  0  0  0  0  0
  1 25  1  0  0  0
  1 30  2  0  0  0
  1 84  1  0  0  0
  2  3  1  0  0  0
  2 25  1  0  0  0
  2 86  1  0  0  0
  2 87  1  0  0  0
  3  4  1  0  0  0
  3 88  1  0  0  0
  3 89  1  0  0  0
  4  5  1  0  0  0
  4 90  1  0  0  0
  4 91  1  0  0  0
  5  6  1  0  0  0
  5 26  1  0  0  0
  5 92  1  0  0  0
  6 25  1  0  0  0
  6 93  1  0  0  0
  6 94  1  0  0  0
  7  8  2  0  0  0
  7 26  1  0  0  0
  7 29  1  0  0  0
  8  9  1  0  0  0
  8 22  1  0  0  0
  9 10  1  0  0  0
  9 27  2  0  0  0
 10 11  2  0  0  0
 10 15  1  0  0  0
 11 12  1  0  0  0
 11 95  1  0  0  0
 12 13  2  0  0  0
 12 96  1  0  0  0
 13 14  1  0  0  0
 13 31  1  0  0  0
 14 15  2  0  0  0
 14 97  1  0  0  0
 15 98  1  0  0  0
 16 17  2  0  0  0
 16 21  1  0  0  0
 16 31  1  0  0  0
 17 18  1  0  0  0
 17 99  1  0  0  0
 18 19  2  0  0  0
 18100  1  0  0  0
 19 20  1  0  0  0
 19 24  1  0  0  0
 20 21  2  0  0  0
 20101  1  0  0  0
 21 23  1  0  0  0
 22 28  1  0  0  0
 22 32  2  0  0  0
 26 27  1  0  0  0
 28102  1  0  0  0
 28103  1  0  0  0
 29104  1  0  0  0
 29105  1  0  0  0
 33 34  1  0  0  0
 33 66  1  0  0  0
 33 70  2  0  0  0
 34 36  1  0  0  0
 34 59  1  0  0  0
 34106  1  0  0  0
 35 44  2  0  0  0
 35 45  1  0  0  0
 35 68  1  0  0  0
 36 56  1  0  0  0
 36107  1  0  0  0
 37 39  1  0  0  0
 37 47  1  0  0  0
 37 66  1  0  0  0
 37108  1  0  0  0
 38 43  2  0  0  0
 38 46  1  0  0  0
 38 47  1  0  0  0
 39 64  1  0  0  0
 39 67  2  0  0  0
 40 52  1  0  0  0
 40 53  2  0  0  0
 40 58  1  0  0  0
 41109  1  0  0  0
 41110  1  0  0  0
 41111  1  0  0  0
 41 48  1  0  0  0
 42 43  1  0  0  0
 42 66  1  0  0  0
 42112  1  0  0  0
 42113  1  0  0  0
 43 44  1  0  0  0
 44114  1  0  0  0
 45 46  2  0  0  0
 45115  1  0  0  0
 46116  1  0  0  0
 47117  1  0  0  0
 47118  1  0  0  0
 48 56  1  0  0  0
 48 65  1  0  0  0
 48119  1  0  0  0
 49 50  1  0  0  0
 49 53  1  0  0  0
 49 64  1  0  0  0
 49120  1  0  0  0
 50 51  1  0  0  0
 50121  1  0  0  0
 50122  1  0  0  0
 51 52  1  0  0  0
 51123  1  0  0  0
 51124  1  0  0  0
 52125  1  0  0  0
 52126  1  0  0  0
 53 54  1  0  0  0
 54 55  2  0  0  0
 54127  1  0  0  0
 55 57  1  0  0  0
 55128  1  0  0  0
 56 69  2  0  0  0
 57 58  2  0  0  0
 57129  1  0  0  0
 58130  1  0  0  0
 59 60  1  0  0  0
 59 61  1  0  0  0
 59 62  1  0  0  0
 60131  1  0  0  0
 60132  1  0  0  0
 60133  1  0  0  0
 61134  1  0  0  0
 61135  1  0  0  0
 61136  1  0  0  0
 62137  1  0  0  0
 62138  1  0  0  0
 62139  1  0  0  0
 63 65  1  0  0  0
 63140  1  0  0  0
 63141  1  0  0  0
 63142  1  0  0  0
 64143  1  0  0  0
 65144  1  0  0  0
 68 82  1  0  0  0
 71 72  2  0  0  0
 71 74  1  0  0  0
 71145  1  0  0  0
 72 76  1  0  0  0
 72146  1  0  0  0
 73 75  1  0  0  0
 73 76  2  0  0  0
 73147  1  0  0  0
 74 75  2  0  0  0
 74 79  1  0  0  0
 75 78  1  0  0  0
 76 83  1  0  0  0
 77 81  1  0  0  0
 77 82  1  0  0  0
 77 85  2  0  0  0
 78 79  1  0  0  0
 78148  1  0  0  0
 78149  1  0  0  0
 79 84  1  0  0  0
 79150  1  0  0  0
 80151  1  0  0  0
 80152  1  0  0  0
 80153  1  0  0  0
 80 82  1  0  0  0
 81 83  1  0  0  0
 81154  1  0  0  0
 81155  1  0  0  0
 82156  1  0  0  0
 83157  1  0  0  0
 84158  1  0  0  0
M  ISO  4   1 100  68 101  82 101  84 100
M  END
> <chiral flag>
0

> <version>
0

> <s_m_source_file>
/data/baiqing/PycharmProjects/Reinvent-master-3.2/result/LINK_invent/BTK/process_docking_weight1_custom_product_contain_oxygen_bond_distance_aromatic_linkinvent_7_9_3/rearranged_h_0143.sdf

> <i_m_source_file_index>
46

> <r_mmod_Potential_Energy-OPLS-2005>
321.978515625

> <r_mmod_Stretch_Energy-OPLS-2005>
56.3915596008301

> <r_mmod_Bend_Energy-OPLS-2005>
459.305389404297

> <r_mmod_Torsional_Energy-OPLS-2005>
249.082977294922

> <r_mmod_Improper_Torsional_Energy-OPLS-2005>
10.0308446884155

> <r_mmod_Van_der_Waal_Energy-OPLS-2005>
142.036437988281

> <r_mmod_Electrostatic_Energy-OPLS-2005>
-381.562683105469

> <r_mmod_Solvation_Energy-OPLS-2005>
-227.243774414062

> <b_mmod_Minimization_Converged-OPLS-2005>
0

> <r_mmod_RMS_Derivative-OPLS-2005>
2.13003206253052

$$$$
46
                    3D
 Structure written by MMmdl.
163172  0  0  1  0            999 V2000
  -30.6718  -14.5696   20.5096 C   0  0  0  0  0  0
  -30.4222  -12.3476   19.4578 C   0  0  0  0  0  0
  -29.5054  -12.5045   18.2249 C   0  0  0  0  0  0
  -28.0256  -12.3584   18.6291 C   0  0  0  0  0  0
  -27.6555  -13.2194   19.8681 C   0  0  2  0  0  0
  -28.6959  -13.0641   21.0018 C   0  0  0  0  0  0
  -25.2562  -13.8182   20.5686 C   0  0  0  0  0  0
  -24.1833  -13.0439   20.9180 C   0  0  0  0  0  0
  -24.6403  -11.6915   20.8726 C   0  0  0  0  0  0
  -23.9073  -10.4294   21.0393 C   0  0  0  0  0  0
  -24.3625   -9.4215   21.9176 C   0  0  0  0  0  0
  -23.6301   -8.2255   22.0751 C   0  0  0  0  0  0
  -22.4284   -8.0282   21.3548 C   0  0  0  0  0  0
  -21.9917   -9.0250   20.4649 C   0  0  0  0  0  0
  -22.7241  -10.2131   20.3047 C   0  0  0  0  0  0
  -21.6854   -6.0735   22.5280 C   0  0  0  0  0  0
  -21.4008   -6.5637   23.8214 C   0  0  0  0  0  0
  -21.3670   -5.6793   24.9180 C   0  0  0  0  0  0
  -21.6050   -4.3055   24.7236 C   0  0  0  0  0  0
  -21.8821   -3.8151   23.4356 C   0  0  0  0  0  0
  -21.9196   -4.6964   22.3410 C   0  0  0  0  0  0
  -22.7857  -13.5223   21.1850 C   0  0  0  0  0  0
  -22.1662   -4.2146   21.0989 F   0  0  0  0  0  0
  -21.5638   -3.4542   25.7752 F   0  0  0  0  0  0
  -30.0234  -13.3683   20.4477 N   0  0  0  0  0  0
  -26.3000  -12.9371   20.3339 N   0  0  0  0  0  0
  -25.9333  -11.6519   20.5759 N   0  0  0  0  0  0
  -22.0510  -12.8211   22.0414 N   0  0  0  0  0  0
  -25.4277  -15.1903   20.4125 N   0  0  0  0  0  0
  -31.8144  -14.7128   20.0672 O   0  0  0  0  0  0
  -21.6654   -6.8875   21.4239 O   0  0  0  0  0  0
  -22.3534  -14.5531   20.6699 O   0  0  0  0  0  0
  -24.6217  -31.8640   23.2077 C   0  0  0  0  0  0
  -25.9087  -32.4797   23.8381 C   0  0  1  0  0  0
  -27.2204  -27.3672   20.1043 C   0  0  0  0  0  0
  -25.5918  -33.8600   24.2310 N   0  0  0  0  0  0
  -23.4099  -30.4910   21.5504 C   0  0  2  0  0  0
  -24.8519  -28.9527   20.1112 C   0  0  0  0  0  0
  -22.7435  -29.4661   22.4969 C   0  0  0  0  0  0
  -18.0281  -28.1376   22.8500 C   0  0  0  0  0  0
  -24.1480  -36.7310   23.2638 C   0  0  0  0  0  0
  -25.9464  -30.8091   21.3696 C   0  0  0  0  0  0
  -26.0190  -29.4415   20.7108 C   0  0  0  0  0  0
  -27.2060  -28.6597   20.6999 C   0  0  0  0  0  0
  -26.0298  -26.9196   19.4832 C   0  0  0  0  0  0
  -24.8557  -27.6933   19.4932 C   0  0  0  0  0  0
  -23.6181  -29.8280   20.1640 C   0  0  0  0  0  0
  -25.4102  -36.3103   24.0337 C   0  0  1  0  0  0
  -20.5876  -28.3683   23.1296 C   0  0  2  0  0  0
  -20.6769  -26.9411   22.5413 C   0  0  0  0  0  0
  -19.5740  -26.6383   21.5219 C   0  0  0  0  0  0
  -18.1923  -26.7921   22.1636 C   0  0  0  0  0  0
  -19.1532  -28.8844   23.2895 C   0  0  0  0  0  0
  -18.9460  -30.1450   23.8909 C   0  0  0  0  0  0
  -17.6460  -30.6581   24.0571 C   0  0  0  0  0  0
  -25.9045  -34.9466   23.5128 C   0  0  0  0  0  0
  -16.5352  -29.9085   23.6323 C   0  0  0  0  0  0
  -16.7270  -28.6498   23.0352 C   0  0  0  0  0  0
  -26.4484  -31.6588   25.0735 C   0  0  0  0  0  0
  -25.3737  -31.3715   26.1477 C   0  0  0  0  0  0
  -27.0311  -30.3012   24.6159 C   0  0  0  0  0  0
  -27.6044  -32.4320   25.7506 C   0  0  0  0  0  0
  -27.5579  -37.1808   24.8467 C   0  0  0  0  0  0
  -21.4158  -29.3049   22.3700 N   0  0  0  0  0  0
  -26.4288  -37.3791   23.9416 N   0  0  0  0  0  0
  -24.6782  -31.0697   22.1003 N   0  0  0  0  0  0
  -23.4181  -28.8200   23.3028 O   0  0  0  0  0  0
  -28.3576  -26.5593   20.1559 O   0  0  0  0  0  0
  -26.5616  -34.8928   22.4696 O   0  0  0  0  0  0
  -23.5400  -32.1427   23.7443 O   0  0  0  0  0  0
  -30.0157  -18.1629   21.1941 C   0  0  0  0  0  0
  -30.2037  -19.6071   19.2346 C   0  0  0  0  0  0
  -30.0867  -17.1708   18.9766 C   0  0  0  0  0  0
  -30.1375  -19.4822   20.6377 C   0  0  0  0  0  0
  -30.0342  -16.9883   20.3786 C   0  0  0  0  0  0
  -30.1590  -18.4630   18.4149 C   0  0  0  0  0  0
  -30.3781  -20.6684   21.5129 C   0  0  0  0  0  0
  -29.5327  -24.2926   21.9909 C   0  0  0  0  0  0
  -30.2803  -23.0113   22.3888 C   0  0  0  0  0  0
  -29.0769  -22.6360   20.3544 C   0  0  0  0  0  0
  -29.3400  -24.1869   20.4758 C   0  0  2  0  0  0
  -30.6372  -24.5685   19.7288 C   0  0  0  0  0  0
  -28.1764  -25.1175   19.9722 C   0  0  0  0  0  0
  -29.9480  -21.9746   21.3766 N   0  0  0  0  0  0
  -29.9567  -15.6483   20.9343 N   0  0  0  0  0  0
  -31.1634  -20.4174   22.5608 N   0  3  0  0  0  0
  -30.2156  -18.6055   17.0691 F   0  0  0  0  0  0
  -31.4691  -12.4364   19.1629 H   0  0  0  0  0  0
  -30.3203  -11.3486   19.8848 H   0  0  0  0  0  0
  -29.7596  -11.7620   17.4669 H   0  0  0  0  0  0
  -29.6676  -13.4799   17.7642 H   0  0  0  0  0  0
  -27.8446  -11.3036   18.8411 H   0  0  0  0  0  0
  -27.3803  -12.6141   17.7871 H   0  0  0  0  0  0
  -27.6786  -14.2584   19.5383 H   0  0  0  0  0  0
  -28.6858  -12.0474   21.3974 H   0  0  0  0  0  0
  -28.4487  -13.7132   21.8433 H   0  0  0  0  0  0
  -25.2775   -9.5695   22.4746 H   0  0  0  0  0  0
  -24.0022   -7.4648   22.7460 H   0  0  0  0  0  0
  -21.0856   -8.8752   19.8950 H   0  0  0  0  0  0
  -22.3691  -10.9661   19.6155 H   0  0  0  0  0  0
  -21.1979   -7.6138   23.9710 H   0  0  0  0  0  0
  -21.1492   -6.0529   25.9080 H   0  0  0  0  0  0
  -22.0588   -2.7609   23.2864 H   0  0  0  0  0  0
  -22.4135  -11.9872   22.4792 H   0  0  0  0  0  0
  -21.1111  -13.1203   22.2589 H   0  0  0  0  0  0
  -24.6577  -15.8426   20.5169 H   0  0  0  0  0  0
  -26.2816  -15.6355   20.1015 H   0  0  0  0  0  0
  -26.7154  -32.5473   23.1131 H   0  0  0  0  0  0
  -25.0042  -33.9745   25.0438 H   0  0  0  0  0  0
  -22.7033  -31.3127   21.4138 H   0  0  0  0  0  0
  -23.3738  -35.9646   23.3302 H   0  0  0  0  0  0
  -24.3576  -36.8928   22.2053 H   0  0  0  0  0  0
  -23.7231  -37.6516   23.6652 H   0  0  0  0  0  0
  -26.0721  -31.5740   20.6026 H   0  0  0  0  0  0
  -26.8302  -30.8554   21.9938 H   0  0  0  0  0  0
  -28.1017  -29.0326   21.1765 H   0  0  0  0  0  0
  -25.9749  -25.9604   18.9906 H   0  0  0  0  0  0
  -23.9587  -27.3113   19.0255 H   0  0  0  0  0  0
  -23.7307  -30.6068   19.4088 H   0  0  0  0  0  0
  -22.7369  -29.2563   19.8657 H   0  0  0  0  0  0
  -25.1271  -36.1970   25.0828 H   0  0  0  0  0  0
  -20.9978  -28.3256   24.1412 H   0  0  0  0  0  0
  -20.5680  -26.2296   23.3613 H   0  0  0  0  0  0
  -21.6638  -26.7449   22.1201 H   0  0  0  0  0  0
  -19.6904  -25.6298   21.1236 H   0  0  0  0  0  0
  -19.6665  -27.3207   20.6759 H   0  0  0  0  0  0
  -17.4195  -26.6683   21.4036 H   0  0  0  0  0  0
  -18.0321  -26.0051   22.9021 H   0  0  0  0  0  0
  -19.7936  -30.7266   24.2275 H   0  0  0  0  0  0
  -17.5015  -31.6263   24.5169 H   0  0  0  0  0  0
  -15.5355  -30.2996   23.7626 H   0  0  0  0  0  0
  -15.8670  -28.0821   22.7056 H   0  0  0  0  0  0
  -24.5912  -30.7054   25.7828 H   0  0  0  0  0  0
  -24.8928  -32.2875   26.4917 H   0  0  0  0  0  0
  -25.8087  -30.8900   27.0244 H   0  0  0  0  0  0
  -26.2872  -29.6781   24.1180 H   0  0  0  0  0  0
  -27.4008  -29.7247   25.4649 H   0  0  0  0  0  0
  -27.8743  -30.4296   23.9369 H   0  0  0  0  0  0
  -27.2642  -33.3610   26.2091 H   0  0  0  0  0  0
  -28.3848  -32.6896   25.0336 H   0  0  0  0  0  0
  -28.0712  -31.8444   26.5419 H   0  0  0  0  0  0
  -28.2599  -38.0102   24.7516 H   0  0  0  0  0  0
  -28.1070  -36.2638   24.6280 H   0  0  0  0  0  0
  -27.2307  -37.1448   25.8872 H   0  0  0  0  0  0
  -20.9329  -29.8774   21.6920 H   0  0  0  0  0  0
  -26.0176  -38.2873   24.1406 H   0  0  0  0  0  0
  -29.9671  -18.0475   22.2683 H   0  0  0  0  0  0
  -30.3435  -20.5689   18.7684 H   0  0  0  0  0  0
  -30.0764  -16.3218   18.3095 H   0  0  0  0  0  0
  -30.0813  -25.1917   22.2738 H   0  0  0  0  0  0
  -28.5713  -24.3274   22.5055 H   0  0  0  0  0  0
  -29.9973  -22.7041   23.3974 H   0  0  0  0  0  0
  -31.3567  -23.1943   22.3858 H   0  0  0  0  0  0
  -29.2672  -22.2910   19.3400 H   0  0  0  0  0  0
  -28.0349  -22.4044   20.5842 H   0  0  0  0  0  0
  -31.4903  -23.9658   20.0405 H   0  0  0  0  0  0
  -30.8959  -25.6142   19.8994 H   0  0  0  0  0  0
  -30.5224  -24.4357   18.6525 H   0  0  0  0  0  0
  -27.2676  -24.7997   20.4870 H   0  0  0  0  0  0
  -28.0122  -24.9271   18.9109 H   0  0  0  0  0  0
  -29.1372  -15.4451   21.4874 H   0  0  0  0  0  0
  -31.5711  -19.5002   22.6545 H   0  0  0  0  0  0
  -31.4436  -21.1315   23.2092 H   0  0  0  0  0  0
  1 25  1  0  0  0
  1 30  2  0  0  0
  1 85  1  0  0  0
  2  3  1  0  0  0
  2 25  1  0  0  0
  2 88  1  0  0  0
  2 89  1  0  0  0
  3  4  1  0  0  0
  3 90  1  0  0  0
  3 91  1  0  0  0
  4  5  1  0  0  0
  4 92  1  0  0  0
  4 93  1  0  0  0
  5  6  1  0  0  0
  5 26  1  0  0  0
  5 94  1  0  0  0
  6 25  1  0  0  0
  6 95  1  0  0  0
  6 96  1  0  0  0
  7  8  2  0  0  0
  7 26  1  0  0  0
  7 29  1  0  0  0
  8  9  1  0  0  0
  8 22  1  0  0  0
  9 10  1  0  0  0
  9 27  2  0  0  0
 10 11  2  0  0  0
 10 15  1  0  0  0
 11 12  1  0  0  0
 11 97  1  0  0  0
 12 13  2  0  0  0
 12 98  1  0  0  0
 13 14  1  0  0  0
 13 31  1  0  0  0
 14 15  2  0  0  0
 14 99  1  0  0  0
 15100  1  0  0  0
 16 17  2  0  0  0
 16 21  1  0  0  0
 16 31  1  0  0  0
 17 18  1  0  0  0
 17101  1  0  0  0
 18 19  2  0  0  0
 18102  1  0  0  0
 19 20  1  0  0  0
 19 24  1  0  0  0
 20 21  2  0  0  0
 20103  1  0  0  0
 21 23  1  0  0  0
 22 28  1  0  0  0
 22 32  2  0  0  0
 26 27  1  0  0  0
 28104  1  0  0  0
 28105  1  0  0  0
 29106  1  0  0  0
 29107  1  0  0  0
 33 34  1  0  0  0
 33 66  1  0  0  0
 33 70  2  0  0  0
 34 36  1  0  0  0
 34 59  1  0  0  0
 34108  1  0  0  0
 35 44  2  0  0  0
 35 45  1  0  0  0
 35 68  1  0  0  0
 36 56  1  0  0  0
 36109  1  0  0  0
 37 39  1  0  0  0
 37 47  1  0  0  0
 37 66  1  0  0  0
 37110  1  0  0  0
 38 43  2  0  0  0
 38 46  1  0  0  0
 38 47  1  0  0  0
 39 64  1  0  0  0
 39 67  2  0  0  0
 40 52  1  0  0  0
 40 53  2  0  0  0
 40 58  1  0  0  0
 41111  1  0  0  0
 41112  1  0  0  0
 41113  1  0  0  0
 41 48  1  0  0  0
 42 43  1  0  0  0
 42 66  1  0  0  0
 42114  1  0  0  0
 42115  1  0  0  0
 43 44  1  0  0  0
 44116  1  0  0  0
 45 46  2  0  0  0
 45117  1  0  0  0
 46118  1  0  0  0
 47119  1  0  0  0
 47120  1  0  0  0
 48 56  1  0  0  0
 48 65  1  0  0  0
 48121  1  0  0  0
 49 50  1  0  0  0
 49 53  1  0  0  0
 49 64  1  0  0  0
 49122  1  0  0  0
 50 51  1  0  0  0
 50123  1  0  0  0
 50124  1  0  0  0
 51 52  1  0  0  0
 51125  1  0  0  0
 51126  1  0  0  0
 52127  1  0  0  0
 52128  1  0  0  0
 53 54  1  0  0  0
 54 55  2  0  0  0
 54129  1  0  0  0
 55 57  1  0  0  0
 55130  1  0  0  0
 56 69  2  0  0  0
 57 58  2  0  0  0
 57131  1  0  0  0
 58132  1  0  0  0
 59 60  1  0  0  0
 59 61  1  0  0  0
 59 62  1  0  0  0
 60133  1  0  0  0
 60134  1  0  0  0
 60135  1  0  0  0
 61136  1  0  0  0
 61137  1  0  0  0
 61138  1  0  0  0
 62139  1  0  0  0
 62140  1  0  0  0
 62141  1  0  0  0
 63 65  1  0  0  0
 63142  1  0  0  0
 63143  1  0  0  0
 63144  1  0  0  0
 64145  1  0  0  0
 65146  1  0  0  0
 68 83  1  0  0  0
 71 74  2  0  0  0
 71 75  1  0  0  0
 71147  1  0  0  0
 72 74  1  0  0  0
 72 76  2  0  0  0
 72148  1  0  0  0
 73 75  2  0  0  0
 73 76  1  0  0  0
 73149  1  0  0  0
 74 77  1  0  0  0
 75 85  1  0  0  0
 76 87  1  0  0  0
 77 84  1  0  0  0
 77 86  2  0  0  0
 78 79  1  0  0  0
 78 81  1  0  0  0
 78150  1  0  0  0
 78151  1  0  0  0
 79 84  1  0  0  0
 79152  1  0  0  0
 79153  1  0  0  0
 80 81  1  0  0  0
 80 84  1  0  0  0
 80154  1  0  0  0
 80155  1  0  0  0
 81 82  1  0  0  0
 81 83  1  0  0  0
 82156  1  0  0  0
 82157  1  0  0  0
 82158  1  0  0  0
 83159  1  0  0  0
 83160  1  0  0  0
 85161  1  0  0  0
 86162  1  0  0  0
 86163  1  0  0  0
M  CHG  1  86   1
M  ISO  4   1 100  68 101  83 101  85 100
M  END
> <chiral flag>
0

> <version>
0

> <s_m_source_file>
/data/baiqing/PycharmProjects/Reinvent-master-3.2/result/LINK_invent/BTK/process_docking_weight1_custom_product_contain_oxygen_bond_distance_aromatic_linkinvent_7_9_3/rearranged_h_0143.sdf

> <i_m_source_file_index>
47

> <r_mmod_Potential_Energy-OPLS-2005>
-113.510223388672

> <r_mmod_Stretch_Energy-OPLS-2005>
62.0833320617676

> <r_mmod_Bend_Energy-OPLS-2005>
155.148361206055

> <r_mmod_Torsional_Energy-OPLS-2005>
308.6982421875

> <r_mmod_Improper_Torsional_Energy-OPLS-2005>
5.51445198059082

> <r_mmod_Van_der_Waal_Energy-OPLS-2005>
155.537612915039

> <r_mmod_Electrostatic_Energy-OPLS-2005>
-417.076446533203

> <r_mmod_Solvation_Energy-OPLS-2005>
-413.543853759766

> <b_mmod_Minimization_Converged-OPLS-2005>
0

> <r_mmod_RMS_Derivative-OPLS-2005>
1.42658972740173

$$$$
47
                    3D
 Structure written by MMmdl.
178187  0  0  1  0            999 V2000
  -30.6913  -14.4626   20.5597 C   0  0  0  0  0  0
  -30.4212  -12.2967   19.4186 C   0  0  0  0  0  0
  -29.4910  -12.5005   18.2047 C   0  0  0  0  0  0
  -28.0127  -12.3581   18.6197 C   0  0  0  0  0  0
  -27.6607  -13.2005   19.8750 C   0  0  2  0  0  0
  -28.7013  -12.9761   20.9951 C   0  0  0  0  0  0
  -25.2587  -13.8151   20.5671 C   0  0  0  0  0  0
  -24.1832  -13.0432   20.9169 C   0  0  0  0  0  0
  -24.6383  -11.6898   20.8741 C   0  0  0  0  0  0
  -23.9048  -10.4288   21.0412 C   0  0  0  0  0  0
  -24.3606   -9.4202   21.9191 C   0  0  0  0  0  0
  -23.6284   -8.2239   22.0768 C   0  0  0  0  0  0
  -22.4270   -8.0281   21.3550 C   0  0  0  0  0  0
  -21.9898   -9.0249   20.4651 C   0  0  0  0  0  0
  -22.7220  -10.2132   20.3060 C   0  0  0  0  0  0
  -21.6843   -6.0736   22.5281 C   0  0  0  0  0  0
  -21.4010   -6.5640   23.8213 C   0  0  0  0  0  0
  -21.3662   -5.6793   24.9175 C   0  0  0  0  0  0
  -21.6049   -4.3055   24.7223 C   0  0  0  0  0  0
  -21.8821   -3.8146   23.4340 C   0  0  0  0  0  0
  -21.9190   -4.6965   22.3398 C   0  0  0  0  0  0
  -22.7851  -13.5236   21.1830 C   0  0  0  0  0  0
  -22.1657   -4.2149   21.0974 F   0  0  0  0  0  0
  -21.5636   -3.4544   25.7732 F   0  0  0  0  0  0
  -30.0320  -13.2788   20.4434 N   0  0  0  0  0  0
  -26.3013  -12.9307   20.3363 N   0  0  0  0  0  0
  -25.9304  -11.6469   20.5768 N   0  0  0  0  0  0
  -22.0480  -12.8243   22.0391 N   0  0  0  0  0  0
  -25.4317  -15.1865   20.4043 N   0  0  0  0  0  0
  -31.8291  -14.6309   20.1119 O   0  0  0  0  0  0
  -21.6640   -6.8878   21.4240 O   0  0  0  0  0  0
  -22.3537  -14.5540   20.6675 O   0  0  0  0  0  0
  -24.6125  -31.8668   23.2105 C   0  0  0  0  0  0
  -25.9025  -32.4813   23.8383 C   0  0  1  0  0  0
  -27.2296  -27.4484   20.1041 C   0  0  0  0  0  0
  -25.5875  -33.8608   24.2313 N   0  0  0  0  0  0
  -23.3992  -30.4893   21.5501 C   0  0  2  0  0  0
  -24.8463  -28.9592   20.1088 C   0  0  0  0  0  0
  -22.7394  -29.4643   22.4996 C   0  0  0  0  0  0
  -18.0257  -28.1383   22.8481 C   0  0  0  0  0  0
  -24.1495  -36.7325   23.2646 C   0  0  0  0  0  0
  -25.9233  -30.8449   21.3543 C   0  0  0  0  0  0
  -26.0037  -29.4805   20.7003 C   0  0  0  0  0  0
  -27.2022  -28.7354   20.6872 C   0  0  0  0  0  0
  -26.0642  -26.9406   19.4974 C   0  0  0  0  0  0
  -24.8705  -27.6896   19.5018 C   0  0  0  0  0  0
  -23.6057  -29.8217   20.1633 C   0  0  0  0  0  0
  -25.4110  -36.3100   24.0343 C   0  0  1  0  0  0
  -20.5846  -28.3644   23.1333 C   0  0  2  0  0  0
  -20.6743  -26.9377   22.5431 C   0  0  0  0  0  0
  -19.5724  -26.6374   21.5221 C   0  0  0  0  0  0
  -18.1898  -26.7920   22.1628 C   0  0  0  0  0  0
  -19.1511  -28.8829   23.2899 C   0  0  0  0  0  0
  -18.9449  -30.1437   23.8904 C   0  0  0  0  0  0
  -17.6455  -30.6580   24.0562 C   0  0  0  0  0  0
  -25.9036  -34.9467   23.5130 C   0  0  0  0  0  0
  -16.5341  -29.9091   23.6327 C   0  0  0  0  0  0
  -16.7252  -28.6516   23.0332 C   0  0  0  0  0  0
  -26.4471  -31.6585   25.0696 C   0  0  0  0  0  0
  -25.3757  -31.3673   26.1458 C   0  0  0  0  0  0
  -27.0295  -30.3038   24.6029 C   0  0  0  0  0  0
  -27.6047  -32.4307   25.7454 C   0  0  0  0  0  0
  -27.5578  -37.1804   24.8459 C   0  0  0  0  0  0
  -21.4125  -29.3012   22.3745 N   0  0  0  0  0  0
  -26.4288  -37.3787   23.9411 N   0  0  0  0  0  0
  -24.6633  -31.0799   22.0983 N   0  0  0  0  0  0
  -23.4174  -28.8188   23.3031 O   0  0  0  0  0  0
  -28.3790  -26.6891   20.1412 O   0  0  0  0  0  0
  -26.5607  -34.8915   22.4696 O   0  0  0  0  0  0
  -23.5327  -32.1403   23.7526 O   0  0  0  0  0  0
  -30.5464  -19.6303   20.3190 C   0  0  0  0  0  0
  -31.4561  -17.4559   20.9556 C   0  0  0  0  0  0
  -29.0676  -17.7147   20.5599 C   0  0  0  0  0  0
  -31.6466  -18.8244   20.6777 C   0  0  0  0  0  0
  -29.2379  -19.0973   20.2942 C   0  0  0  0  0  0
  -30.1707  -16.8761   20.8576 C   0  0  0  0  0  0
  -27.7533  -20.9847   20.4103 C   0  0  0  0  0  0
  -34.8791  -20.0449   19.8919 C   0  0  0  0  0  0
  -34.2620  -18.6814   20.2210 C   0  0  0  0  0  0
  -33.4517  -20.5989   19.8617 C   0  0  0  0  0  0
  -33.0358  -19.4295   20.7678 C   0  0  0  0  0  0
  -26.4886  -21.6070   19.8461 C   0  0  0  0  0  0
  -28.3151  -20.9532   22.8817 C   0  0  0  0  0  0
  -30.0261  -25.7952   21.5402 C   0  0  0  0  0  0
  -27.7297  -26.1439   22.4974 C   0  0  0  0  0  0
  -27.9938  -23.2256   21.8438 C   0  0  0  0  0  0
  -28.1540  -24.2984   20.7254 C   0  0  0  0  0  0
  -28.4406  -21.7541   21.5686 C   0  0  2  0  0  0
  -28.5223  -25.7349   21.2228 C   0  0  0  0  0  0
  -28.1171  -19.8563   19.9110 N   0  0  0  0  0  0
  -29.9549  -15.4767   21.0615 N   0  0  0  0  0  0
  -31.4653  -12.3951   19.1152 H   0  0  0  0  0  0
  -30.3215  -11.2844   19.8121 H   0  0  0  0  0  0
  -29.7294  -11.7800   17.4205 H   0  0  0  0  0  0
  -29.6567  -13.4883   17.7721 H   0  0  0  0  0  0
  -27.8251  -11.3020   18.8201 H   0  0  0  0  0  0
  -27.3603  -12.6308   17.7897 H   0  0  0  0  0  0
  -27.7074  -14.2476   19.5742 H   0  0  0  0  0  0
  -28.6755  -11.9387   21.3331 H   0  0  0  0  0  0
  -28.4678  -13.5722   21.8782 H   0  0  0  0  0  0
  -25.2749   -9.5683   22.4760 H   0  0  0  0  0  0
  -23.9998   -7.4630   22.7488 H   0  0  0  0  0  0
  -21.0835   -8.8752   19.8946 H   0  0  0  0  0  0
  -22.3676  -10.9669   19.6170 H   0  0  0  0  0  0
  -21.2003   -7.6145   23.9712 H   0  0  0  0  0  0
  -21.1487   -6.0526   25.9078 H   0  0  0  0  0  0
  -22.0601   -2.7607   23.2841 H   0  0  0  0  0  0
  -22.4073  -11.9902   22.4787 H   0  0  0  0  0  0
  -21.1102  -13.1290   22.2578 H   0  0  0  0  0  0
  -24.6655  -15.8426   20.5099 H   0  0  0  0  0  0
  -26.2759  -15.6185   20.0525 H   0  0  0  0  0  0
  -26.7086  -32.5538   23.1144 H   0  0  0  0  0  0
  -24.9962  -33.9769   25.0410 H   0  0  0  0  0  0
  -22.6865  -31.3044   21.4114 H   0  0  0  0  0  0
  -23.3741  -35.9674   23.3310 H   0  0  0  0  0  0
  -24.3587  -36.8946   22.2060 H   0  0  0  0  0  0
  -23.7265  -37.6535   23.6665 H   0  0  0  0  0  0
  -26.0234  -31.6130   20.5859 H   0  0  0  0  0  0
  -26.8153  -30.9016   21.9674 H   0  0  0  0  0  0
  -28.0959  -29.1300   21.1495 H   0  0  0  0  0  0
  -26.0758  -25.9637   19.0363 H   0  0  0  0  0  0
  -23.9800  -27.2852   19.0408 H   0  0  0  0  0  0
  -23.7080  -30.5983   19.4040 H   0  0  0  0  0  0
  -22.7296  -29.2405   19.8698 H   0  0  0  0  0  0
  -25.1282  -36.1956   25.0835 H   0  0  0  0  0  0
  -20.9918  -28.3203   24.1466 H   0  0  0  0  0  0
  -20.5642  -26.2248   23.3620 H   0  0  0  0  0  0
  -21.6611  -26.7410   22.1225 H   0  0  0  0  0  0
  -19.6886  -25.6291   21.1235 H   0  0  0  0  0  0
  -19.6685  -27.3196   20.6761 H   0  0  0  0  0  0
  -17.4169  -26.6669   21.4031 H   0  0  0  0  0  0
  -18.0287  -26.0077   22.9039 H   0  0  0  0  0  0
  -19.7932  -30.7242   24.2284 H   0  0  0  0  0  0
  -17.5017  -31.6262   24.5155 H   0  0  0  0  0  0
  -15.5340  -30.2997   23.7659 H   0  0  0  0  0  0
  -15.8651  -28.0853   22.7032 H   0  0  0  0  0  0
  -24.5920  -30.7031   25.7795 H   0  0  0  0  0  0
  -24.8959  -32.2828   26.4930 H   0  0  0  0  0  0
  -25.8130  -30.8815   27.0193 H   0  0  0  0  0  0
  -26.2827  -29.6829   24.1066 H   0  0  0  0  0  0
  -27.4074  -29.7234   25.4454 H   0  0  0  0  0  0
  -27.8656  -30.4380   23.9162 H   0  0  0  0  0  0
  -27.2657  -33.3591   26.2066 H   0  0  0  0  0  0
  -28.3829  -32.6902   25.0264 H   0  0  0  0  0  0
  -28.0755  -31.8417   26.5339 H   0  0  0  0  0  0
  -28.2572  -38.0117   24.7484 H   0  0  0  0  0  0
  -28.1082  -36.2636   24.6286 H   0  0  0  0  0  0
  -27.2289  -37.1451   25.8859 H   0  0  0  0  0  0
  -20.9285  -29.8758   21.6997 H   0  0  0  0  0  0
  -26.0181  -38.2864   24.1420 H   0  0  0  0  0  0
  -30.7210  -20.6628   20.0539 H   0  0  0  0  0  0
  -32.3112  -16.8500   21.2229 H   0  0  0  0  0  0
  -28.0758  -17.2896   20.4977 H   0  0  0  0  0  0
  -35.4107  -20.0925   18.9407 H   0  0  0  0  0  0
  -35.4752  -20.4535   20.7102 H   0  0  0  0  0  0
  -34.8036  -18.0858   20.9567 H   0  0  0  0  0  0
  -34.0412  -18.1031   19.3210 H   0  0  0  0  0  0
  -33.0112  -20.5420   18.8637 H   0  0  0  0  0  0
  -33.3184  -21.5875   20.3019 H   0  0  0  0  0  0
  -33.2123  -19.6984   21.8119 H   0  0  0  0  0  0
  -25.8795  -22.0613   20.6259 H   0  0  0  0  0  0
  -25.8723  -20.8485   19.3627 H   0  0  0  0  0  0
  -26.7384  -22.3576   19.0969 H   0  0  0  0  0  0
  -28.7460  -19.9559   22.7994 H   0  0  0  0  0  0
  -27.2711  -20.8383   23.1765 H   0  0  0  0  0  0
  -28.8333  -21.4509   23.7011 H   0  0  0  0  0  0
  -30.3035  -25.0963   22.3297 H   0  0  0  0  0  0
  -30.3206  -26.7928   21.8687 H   0  0  0  0  0  0
  -30.6269  -25.5519   20.6629 H   0  0  0  0  0  0
  -27.9586  -25.5127   23.3548 H   0  0  0  0  0  0
  -26.6511  -26.0877   22.3434 H   0  0  0  0  0  0
  -27.9702  -27.1605   22.8096 H   0  0  0  0  0  0
  -26.9717  -23.2528   22.2227 H   0  0  0  0  0  0
  -28.6037  -23.5405   22.6884 H   0  0  0  0  0  0
  -27.2211  -24.3468   20.1671 H   0  0  0  0  0  0
  -28.9050  -23.9695   20.0066 H   0  0  0  0  0  0
  -29.4982  -21.8330   21.3351 H   0  0  0  0  0  0
  -29.0272  -15.2055   21.3478 H   0  0  0  0  0  0
  1 25  1  0  0  0
  1 30  2  0  0  0
  1 91  1  0  0  0
  2  3  1  0  0  0
  2 25  1  0  0  0
  2 92  1  0  0  0
  2 93  1  0  0  0
  3  4  1  0  0  0
  3 94  1  0  0  0
  3 95  1  0  0  0
  4  5  1  0  0  0
  4 96  1  0  0  0
  4 97  1  0  0  0
  5  6  1  0  0  0
  5 26  1  0  0  0
  5 98  1  0  0  0
  6 25  1  0  0  0
  6 99  1  0  0  0
  6100  1  0  0  0
  7  8  2  0  0  0
  7 26  1  0  0  0
  7 29  1  0  0  0
  8  9  1  0  0  0
  8 22  1  0  0  0
  9 10  1  0  0  0
  9 27  2  0  0  0
 10 11  2  0  0  0
 10 15  1  0  0  0
 11 12  1  0  0  0
 11101  1  0  0  0
 12 13  2  0  0  0
 12102  1  0  0  0
 13 14  1  0  0  0
 13 31  1  0  0  0
 14 15  2  0  0  0
 14103  1  0  0  0
 15104  1  0  0  0
 16 17  2  0  0  0
 16 21  1  0  0  0
 16 31  1  0  0  0
 17 18  1  0  0  0
 17105  1  0  0  0
 18 19  2  0  0  0
 18106  1  0  0  0
 19 20  1  0  0  0
 19 24  1  0  0  0
 20 21  2  0  0  0
 20107  1  0  0  0
 21 23  1  0  0  0
 22 28  1  0  0  0
 22 32  2  0  0  0
 26 27  1  0  0  0
 28108  1  0  0  0
 28109  1  0  0  0
 29110  1  0  0  0
 29111  1  0  0  0
 33 34  1  0  0  0
 33 66  1  0  0  0
 33 70  2  0  0  0
 34 36  1  0  0  0
 34 59  1  0  0  0
 34112  1  0  0  0
 35 44  2  0  0  0
 35 45  1  0  0  0
 35 68  1  0  0  0
 36 56  1  0  0  0
 36113  1  0  0  0
 37 39  1  0  0  0
 37 47  1  0  0  0
 37 66  1  0  0  0
 37114  1  0  0  0
 38 43  2  0  0  0
 38 46  1  0  0  0
 38 47  1  0  0  0
 39 64  1  0  0  0
 39 67  2  0  0  0
 40 52  1  0  0  0
 40 53  2  0  0  0
 40 58  1  0  0  0
 41115  1  0  0  0
 41116  1  0  0  0
 41117  1  0  0  0
 41 48  1  0  0  0
 42 43  1  0  0  0
 42 66  1  0  0  0
 42118  1  0  0  0
 42119  1  0  0  0
 43 44  1  0  0  0
 44120  1  0  0  0
 45 46  2  0  0  0
 45121  1  0  0  0
 46122  1  0  0  0
 47123  1  0  0  0
 47124  1  0  0  0
 48 56  1  0  0  0
 48 65  1  0  0  0
 48125  1  0  0  0
 49 50  1  0  0  0
 49 53  1  0  0  0
 49 64  1  0  0  0
 49126  1  0  0  0
 50 51  1  0  0  0
 50127  1  0  0  0
 50128  1  0  0  0
 51 52  1  0  0  0
 51129  1  0  0  0
 51130  1  0  0  0
 52131  1  0  0  0
 52132  1  0  0  0
 53 54  1  0  0  0
 54 55  2  0  0  0
 54133  1  0  0  0
 55 57  1  0  0  0
 55134  1  0  0  0
 56 69  2  0  0  0
 57 58  2  0  0  0
 57135  1  0  0  0
 58136  1  0  0  0
 59 60  1  0  0  0
 59 61  1  0  0  0
 59 62  1  0  0  0
 60137  1  0  0  0
 60138  1  0  0  0
 60139  1  0  0  0
 61140  1  0  0  0
 61141  1  0  0  0
 61142  1  0  0  0
 62143  1  0  0  0
 62144  1  0  0  0
 62145  1  0  0  0
 63 65  1  0  0  0
 63146  1  0  0  0
 63147  1  0  0  0
 63148  1  0  0  0
 64149  1  0  0  0
 65150  1  0  0  0
 68 89  1  0  0  0
 71 74  2  0  0  0
 71 75  1  0  0  0
 71151  1  0  0  0
 72 74  1  0  0  0
 72 76  2  0  0  0
 72152  1  0  0  0
 73 75  2  0  0  0
 73 76  1  0  0  0
 73153  1  0  0  0
 74 81  1  0  0  0
 75 90  1  0  0  0
 76 91  1  0  0  0
 77 82  1  0  0  0
 77 88  1  0  0  0
 77 90  2  0  0  0
 78 79  1  0  0  0
 78 80  1  0  0  0
 78154  1  0  0  0
 78155  1  0  0  0
 79 81  1  0  0  0
 79156  1  0  0  0
 79157  1  0  0  0
 80 81  1  0  0  0
 80158  1  0  0  0
 80159  1  0  0  0
 81160  1  0  0  0
 82161  1  0  0  0
 82162  1  0  0  0
 82163  1  0  0  0
 83164  1  0  0  0
 83165  1  0  0  0
 83166  1  0  0  0
 83 88  1  0  0  0
 84167  1  0  0  0
 84168  1  0  0  0
 84169  1  0  0  0
 84 89  1  0  0  0
 85 89  1  0  0  0
 85170  1  0  0  0
 85171  1  0  0  0
 85172  1  0  0  0
 86 87  1  0  0  0
 86 88  1  0  0  0
 86173  1  0  0  0
 86174  1  0  0  0
 87 89  1  0  0  0
 87175  1  0  0  0
 87176  1  0  0  0
 88177  1  0  0  0
 91178  1  0  0  0
M  ISO  4   1 100  68 101  89 101  91 100
M  END
> <chiral flag>
0

> <version>
0

> <s_m_source_file>
/data/baiqing/PycharmProjects/Reinvent-master-3.2/result/LINK_invent/BTK/process_docking_weight1_custom_product_contain_oxygen_bond_distance_aromatic_linkinvent_7_9_3/rearranged_h_0143.sdf

> <i_m_source_file_index>
48

> <r_mmod_Potential_Energy-OPLS-2005>
53.6663780212402

> <r_mmod_Stretch_Energy-OPLS-2005>
44.2058219909668

> <r_mmod_Bend_Energy-OPLS-2005>
142.696823120117

> <r_mmod_Torsional_Energy-OPLS-2005>
299.79638671875

> <r_mmod_Improper_Torsional_Energy-OPLS-2005>
4.98946332931519

> <r_mmod_Van_der_Waal_Energy-OPLS-2005>
160.980987548828

> <r_mmod_Electrostatic_Energy-OPLS-2005>
-418.341949462891

> <r_mmod_Solvation_Energy-OPLS-2005>
-193.472305297852

> <b_mmod_Minimization_Converged-OPLS-2005>
0

> <r_mmod_RMS_Derivative-OPLS-2005>
1.68347680568695

$$$$
48
                    3D
 Structure written by MMmdl.
160168  0  0  1  0            999 V2000
  -30.6955  -14.4536   20.5719 C   0  0  0  0  0  0
  -30.4273  -12.2945   19.4184 C   0  0  0  0  0  0
  -29.4997  -12.5097   18.2040 C   0  0  0  0  0  0
  -28.0187  -12.3727   18.6116 C   0  0  0  0  0  0
  -27.6646  -13.2028   19.8746 C   0  0  2  0  0  0
  -28.7043  -12.9662   20.9937 C   0  0  0  0  0  0
  -25.2606  -13.8159   20.5669 C   0  0  0  0  0  0
  -24.1857  -13.0442   20.9174 C   0  0  0  0  0  0
  -24.6400  -11.6905   20.8719 C   0  0  0  0  0  0
  -23.9062  -10.4297   21.0391 C   0  0  0  0  0  0
  -24.3616   -9.4219   21.9171 C   0  0  0  0  0  0
  -23.6302   -8.2249   22.0746 C   0  0  0  0  0  0
  -22.4283   -8.0281   21.3537 C   0  0  0  0  0  0
  -21.9912   -9.0255   20.4641 C   0  0  0  0  0  0
  -22.7235  -10.2137   20.3046 C   0  0  0  0  0  0
  -21.6855   -6.0741   22.5283 C   0  0  0  0  0  0
  -21.4011   -6.5640   23.8217 C   0  0  0  0  0  0
  -21.3660   -5.6789   24.9179 C   0  0  0  0  0  0
  -21.6047   -4.3055   24.7220 C   0  0  0  0  0  0
  -21.8821   -3.8149   23.4341 C   0  0  0  0  0  0
  -21.9195   -4.6971   22.3400 C   0  0  0  0  0  0
  -22.7879  -13.5245   21.1840 C   0  0  0  0  0  0
  -22.1665   -4.2156   21.0978 F   0  0  0  0  0  0
  -21.5629   -3.4538   25.7733 F   0  0  0  0  0  0
  -30.0401  -13.2690   20.4482 N   0  0  0  0  0  0
  -26.3039  -12.9320   20.3344 N   0  0  0  0  0  0
  -25.9324  -11.6482   20.5728 N   0  0  0  0  0  0
  -22.0509  -12.8241   22.0396 N   0  0  0  0  0  0
  -25.4335  -15.1884   20.4083 N   0  0  0  0  0  0
  -31.8242  -14.6532   20.1101 O   0  0  0  0  0  0
  -21.6641   -6.8884   21.4245 O   0  0  0  0  0  0
  -22.3565  -14.5546   20.6688 O   0  0  0  0  0  0
  -24.6133  -31.8688   23.2129 C   0  0  0  0  0  0
  -25.9033  -32.4830   23.8407 C   0  0  1  0  0  0
  -27.2362  -27.4662   20.0730 C   0  0  0  0  0  0
  -25.5894  -33.8624   24.2351 N   0  0  0  0  0  0
  -23.4000  -30.4949   21.5524 C   0  0  2  0  0  0
  -24.8471  -28.9667   20.1128 C   0  0  0  0  0  0
  -22.7400  -29.4666   22.4993 C   0  0  0  0  0  0
  -18.0269  -28.1373   22.8495 C   0  0  0  0  0  0
  -24.1480  -36.7320   23.2642 C   0  0  0  0  0  0
  -25.9272  -30.8447   21.3603 C   0  0  0  0  0  0
  -26.0074  -29.4817   20.7060 C   0  0  0  0  0  0
  -27.2066  -28.7355   20.6902 C   0  0  0  0  0  0
  -26.0554  -26.9480   19.5085 C   0  0  0  0  0  0
  -24.8636  -27.6952   19.5148 C   0  0  0  0  0  0
  -23.6074  -29.8300   20.1652 C   0  0  0  0  0  0
  -25.4099  -36.3123   24.0352 C   0  0  1  0  0  0
  -20.5861  -28.3653   23.1321 C   0  0  2  0  0  0
  -20.6759  -26.9392   22.5417 C   0  0  0  0  0  0
  -19.5737  -26.6386   21.5211 C   0  0  0  0  0  0
  -18.1919  -26.7920   22.1627 C   0  0  0  0  0  0
  -19.1522  -28.8830   23.2907 C   0  0  0  0  0  0
  -18.9454  -30.1437   23.8914 C   0  0  0  0  0  0
  -17.6459  -30.6583   24.0568 C   0  0  0  0  0  0
  -25.9028  -34.9483   23.5152 C   0  0  0  0  0  0
  -16.5348  -29.9092   23.6316 C   0  0  0  0  0  0
  -16.7261  -28.6510   23.0336 C   0  0  0  0  0  0
  -26.4477  -31.6591   25.0711 C   0  0  0  0  0  0
  -25.3766  -31.3665   26.1477 C   0  0  0  0  0  0
  -27.0306  -30.3048   24.6040 C   0  0  0  0  0  0
  -27.6065  -32.4291   25.7466 C   0  0  0  0  0  0
  -27.5579  -37.1815   24.8471 C   0  0  0  0  0  0
  -21.4131  -29.3028   22.3734 N   0  0  0  0  0  0
  -26.4290  -37.3804   23.9420 N   0  0  0  0  0  0
  -24.6653  -31.0817   22.1014 N   0  0  0  0  0  0
  -23.4186  -28.8200   23.3018 O   0  0  0  0  0  0
  -28.3779  -26.7053   20.0933 O   0  0  0  0  0  0
  -26.5580  -34.8932   22.4706 O   0  0  0  0  0  0
  -23.5333  -32.1422   23.7552 O   0  0  0  0  0  0
  -31.2014  -17.5800   21.0182 C   0  0  0  0  0  0
  -30.9785  -18.9383   20.6306 C   0  0  0  0  0  0
  -30.1036  -16.7668   20.8526 C   0  0  0  0  0  0
  -29.7118  -19.1599   20.1544 C   0  0  0  0  0  0
  -29.1252  -22.6666   18.8042 C   0  0  0  0  0  0
  -27.9957  -25.1816   17.1796 C   0  0  0  0  0  0
  -30.4837  -25.1903   17.3752 C   0  0  0  0  0  0
  -29.1350  -24.1383   19.2629 C   0  0  0  0  0  0
  -29.7876  -21.6294   19.7280 C   0  0  0  0  0  0
  -29.1503  -26.6647   18.8946 C   0  0  0  0  0  0
  -29.1701  -25.2731   18.1844 C   0  0  0  0  0  0
  -29.9638  -15.4409   21.1175 N   0  0  0  0  0  0
  -29.1275  -20.3235   19.6519 N   0  0  0  0  0  0
  -28.5543  -22.2975   17.7729 O   0  0  0  0  0  0
  -28.7609  -17.6967   20.2284 S   0  0  0  0  0  0
  -31.4730  -12.3952   19.1199 H   0  0  0  0  0  0
  -30.3255  -11.2795   19.8054 H   0  0  0  0  0  0
  -29.7393  -11.7940   17.4165 H   0  0  0  0  0  0
  -29.6743  -13.4999   17.7796 H   0  0  0  0  0  0
  -27.8232  -11.3162   18.7972 H   0  0  0  0  0  0
  -27.3721  -12.6592   17.7816 H   0  0  0  0  0  0
  -27.7132  -14.2529   19.5855 H   0  0  0  0  0  0
  -28.6754  -11.9271   21.3246 H   0  0  0  0  0  0
  -28.4648  -13.5545   21.8807 H   0  0  0  0  0  0
  -25.2759   -9.5705   22.4747 H   0  0  0  0  0  0
  -24.0021   -7.4640   22.7458 H   0  0  0  0  0  0
  -21.0842   -8.8769   19.8945 H   0  0  0  0  0  0
  -22.3688  -10.9675   19.6155 H   0  0  0  0  0  0
  -21.1997   -7.6148   23.9727 H   0  0  0  0  0  0
  -21.1480   -6.0513   25.9082 H   0  0  0  0  0  0
  -22.0600   -2.7615   23.2834 H   0  0  0  0  0  0
  -22.4104  -11.9913   22.4814 H   0  0  0  0  0  0
  -21.1119  -13.1267   22.2562 H   0  0  0  0  0  0
  -24.6634  -15.8407   20.5068 H   0  0  0  0  0  0
  -26.2837  -15.6297   20.0814 H   0  0  0  0  0  0
  -26.7101  -32.5561   23.1177 H   0  0  0  0  0  0
  -25.0058  -33.9776   25.0506 H   0  0  0  0  0  0
  -22.6883  -31.3119   21.4159 H   0  0  0  0  0  0
  -23.3741  -35.9655   23.3313 H   0  0  0  0  0  0
  -24.3580  -36.8915   22.2055 H   0  0  0  0  0  0
  -23.7224  -37.6531   23.6635 H   0  0  0  0  0  0
  -26.0328  -31.6123   20.5921 H   0  0  0  0  0  0
  -26.8181  -30.9005   21.9740 H   0  0  0  0  0  0
  -28.1025  -29.1259   21.1534 H   0  0  0  0  0  0
  -26.0398  -25.9562   19.0915 H   0  0  0  0  0  0
  -23.9673  -27.2823   19.0728 H   0  0  0  0  0  0
  -23.7173  -30.6072   19.4076 H   0  0  0  0  0  0
  -22.7311  -29.2517   19.8656 H   0  0  0  0  0  0
  -25.1271  -36.2005   25.0846 H   0  0  0  0  0  0
  -20.9959  -28.3222   24.1438 H   0  0  0  0  0  0
  -20.5658  -26.2263   23.3604 H   0  0  0  0  0  0
  -21.6631  -26.7439   22.1210 H   0  0  0  0  0  0
  -19.6899  -25.6307   21.1214 H   0  0  0  0  0  0
  -19.6672  -27.3217   20.6759 H   0  0  0  0  0  0
  -17.4187  -26.6664   21.4029 H   0  0  0  0  0  0
  -18.0326  -26.0056   22.9020 H   0  0  0  0  0  0
  -19.7935  -30.7243   24.2291 H   0  0  0  0  0  0
  -17.5021  -31.6259   24.5176 H   0  0  0  0  0  0
  -15.5351  -30.3008   23.7628 H   0  0  0  0  0  0
  -15.8657  -28.0845   22.7028 H   0  0  0  0  0  0
  -24.5951  -30.6992   25.7825 H   0  0  0  0  0  0
  -24.8944  -32.2804   26.4952 H   0  0  0  0  0  0
  -25.8158  -30.8829   27.0213 H   0  0  0  0  0  0
  -26.2823  -29.6792   24.1158 H   0  0  0  0  0  0
  -27.4179  -29.7293   25.4457 H   0  0  0  0  0  0
  -27.8611  -30.4389   23.9106 H   0  0  0  0  0  0
  -27.2706  -33.3593   26.2061 H   0  0  0  0  0  0
  -28.3871  -32.6837   25.0283 H   0  0  0  0  0  0
  -28.0731  -31.8389   26.5365 H   0  0  0  0  0  0
  -28.2618  -38.0094   24.7520 H   0  0  0  0  0  0
  -28.1055  -36.2632   24.6301 H   0  0  0  0  0  0
  -27.2300  -37.1476   25.8875 H   0  0  0  0  0  0
  -20.9289  -29.8772   21.6979 H   0  0  0  0  0  0
  -26.0191  -38.2890   24.1413 H   0  0  0  0  0  0
  -32.1582  -17.2518   21.3995 H   0  0  0  0  0  0
  -31.7578  -19.6841   20.7030 H   0  0  0  0  0  0
  -28.1896  -24.4490   16.3954 H   0  0  0  0  0  0
  -27.8145  -26.1303   16.6725 H   0  0  0  0  0  0
  -27.0689  -24.8720   17.6549 H   0  0  0  0  0  0
  -30.5579  -24.2618   16.8068 H   0  0  0  0  0  0
  -31.3583  -25.2399   18.0256 H   0  0  0  0  0  0
  -30.5630  -26.0118   16.6613 H   0  0  0  0  0  0
  -29.9785  -24.2670   19.9412 H   0  0  0  0  0  0
  -28.2428  -24.2616   19.8777 H   0  0  0  0  0  0
  -29.7547  -21.9964   20.7544 H   0  0  0  0  0  0
  -30.8380  -21.5449   19.4465 H   0  0  0  0  0  0
  -28.8660  -27.4619   18.2046 H   0  0  0  0  0  0
  -30.1624  -26.9182   19.2120 H   0  0  0  0  0  0
  -29.0466  -15.1437   21.4147 H   0  0  0  0  0  0
  -28.2291  -20.3278   19.1718 H   0  0  0  0  0  0
  1 25  1  0  0  0
  1 30  2  0  0  0
  1 82  1  0  0  0
  2  3  1  0  0  0
  2 25  1  0  0  0
  2 86  1  0  0  0
  2 87  1  0  0  0
  3  4  1  0  0  0
  3 88  1  0  0  0
  3 89  1  0  0  0
  4  5  1  0  0  0
  4 90  1  0  0  0
  4 91  1  0  0  0
  5  6  1  0  0  0
  5 26  1  0  0  0
  5 92  1  0  0  0
  6 25  1  0  0  0
  6 93  1  0  0  0
  6 94  1  0  0  0
  7  8  2  0  0  0
  7 26  1  0  0  0
  7 29  1  0  0  0
  8  9  1  0  0  0
  8 22  1  0  0  0
  9 10  1  0  0  0
  9 27  2  0  0  0
 10 11  2  0  0  0
 10 15  1  0  0  0
 11 12  1  0  0  0
 11 95  1  0  0  0
 12 13  2  0  0  0
 12 96  1  0  0  0
 13 14  1  0  0  0
 13 31  1  0  0  0
 14 15  2  0  0  0
 14 97  1  0  0  0
 15 98  1  0  0  0
 16 17  2  0  0  0
 16 21  1  0  0  0
 16 31  1  0  0  0
 17 18  1  0  0  0
 17 99  1  0  0  0
 18 19  2  0  0  0
 18100  1  0  0  0
 19 20  1  0  0  0
 19 24  1  0  0  0
 20 21  2  0  0  0
 20101  1  0  0  0
 21 23  1  0  0  0
 22 28  1  0  0  0
 22 32  2  0  0  0
 26 27  1  0  0  0
 28102  1  0  0  0
 28103  1  0  0  0
 29104  1  0  0  0
 29105  1  0  0  0
 33 34  1  0  0  0
 33 66  1  0  0  0
 33 70  2  0  0  0
 34 36  1  0  0  0
 34 59  1  0  0  0
 34106  1  0  0  0
 35 44  2  0  0  0
 35 45  1  0  0  0
 35 68  1  0  0  0
 36 56  1  0  0  0
 36107  1  0  0  0
 37 39  1  0  0  0
 37 47  1  0  0  0
 37 66  1  0  0  0
 37108  1  0  0  0
 38 43  2  0  0  0
 38 46  1  0  0  0
 38 47  1  0  0  0
 39 64  1  0  0  0
 39 67  2  0  0  0
 40 52  1  0  0  0
 40 53  2  0  0  0
 40 58  1  0  0  0
 41109  1  0  0  0
 41110  1  0  0  0
 41111  1  0  0  0
 41 48  1  0  0  0
 42 43  1  0  0  0
 42 66  1  0  0  0
 42112  1  0  0  0
 42113  1  0  0  0
 43 44  1  0  0  0
 44114  1  0  0  0
 45 46  2  0  0  0
 45115  1  0  0  0
 46116  1  0  0  0
 47117  1  0  0  0
 47118  1  0  0  0
 48 56  1  0  0  0
 48 65  1  0  0  0
 48119  1  0  0  0
 49 50  1  0  0  0
 49 53  1  0  0  0
 49 64  1  0  0  0
 49120  1  0  0  0
 50 51  1  0  0  0
 50121  1  0  0  0
 50122  1  0  0  0
 51 52  1  0  0  0
 51123  1  0  0  0
 51124  1  0  0  0
 52125  1  0  0  0
 52126  1  0  0  0
 53 54  1  0  0  0
 54 55  2  0  0  0
 54127  1  0  0  0
 55 57  1  0  0  0
 55128  1  0  0  0
 56 69  2  0  0  0
 57 58  2  0  0  0
 57129  1  0  0  0
 58130  1  0  0  0
 59 60  1  0  0  0
 59 61  1  0  0  0
 59 62  1  0  0  0
 60131  1  0  0  0
 60132  1  0  0  0
 60133  1  0  0  0
 61134  1  0  0  0
 61135  1  0  0  0
 61136  1  0  0  0
 62137  1  0  0  0
 62138  1  0  0  0
 62139  1  0  0  0
 63 65  1  0  0  0
 63140  1  0  0  0
 63141  1  0  0  0
 63142  1  0  0  0
 64143  1  0  0  0
 65144  1  0  0  0
 68 80  1  0  0  0
 71 72  1  0  0  0
 71 73  2  0  0  0
 71145  1  0  0  0
 72 74  2  0  0  0
 72146  1  0  0  0
 73 82  1  0  0  0
 73 85  1  0  0  0
 74 83  1  0  0  0
 74 85  1  0  0  0
 75 78  1  0  0  0
 75 79  1  0  0  0
 75 84  2  0  0  0
 76147  1  0  0  0
 76148  1  0  0  0
 76149  1  0  0  0
 76 81  1  0  0  0
 77 81  1  0  0  0
 77150  1  0  0  0
 77151  1  0  0  0
 77152  1  0  0  0
 78 81  1  0  0  0
 78153  1  0  0  0
 78154  1  0  0  0
 79 83  1  0  0  0
 79155  1  0  0  0
 79156  1  0  0  0
 80 81  1  0  0  0
 80157  1  0  0  0
 80158  1  0  0  0
 82159  1  0  0  0
 83160  1  0  0  0
M  ISO  4   1 100  68 101  80 101  82 100
M  END
> <chiral flag>
0

> <version>
0

> <s_m_source_file>
/data/baiqing/PycharmProjects/Reinvent-master-3.2/result/LINK_invent/BTK/process_docking_weight1_custom_product_contain_oxygen_bond_distance_aromatic_linkinvent_7_9_3/rearranged_h_0143.sdf

> <i_m_source_file_index>
49

> <r_mmod_Potential_Energy-OPLS-2005>
-7.74225616455078

> <r_mmod_Stretch_Energy-OPLS-2005>
35.0262069702148

> <r_mmod_Bend_Energy-OPLS-2005>
112.494537353516

> <r_mmod_Torsional_Energy-OPLS-2005>
248.567657470703

> <r_mmod_Improper_Torsional_Energy-OPLS-2005>
5.38099575042725

> <r_mmod_Van_der_Waal_Energy-OPLS-2005>
131.242828369141

> <r_mmod_Electrostatic_Energy-OPLS-2005>
-328.278533935547

> <r_mmod_Solvation_Energy-OPLS-2005>
-222.820831298828

> <b_mmod_Minimization_Converged-OPLS-2005>
0

> <r_mmod_RMS_Derivative-OPLS-2005>
1.1847927570343

$$$$
49
                    3D
 Structure written by MMmdl.
174182  0  0  1  0            999 V2000
  -30.7463  -14.3836   20.6603 C   0  0  0  0  0  0
  -30.4261  -12.2862   19.4012 C   0  0  0  0  0  0
  -29.4901  -12.5253   18.1992 C   0  0  0  0  0  0
  -28.0130  -12.3778   18.6098 C   0  0  0  0  0  0
  -27.6686  -13.1916   19.8827 C   0  0  2  0  0  0
  -28.7102  -12.9339   20.9982 C   0  0  0  0  0  0
  -25.2619  -13.8124   20.5675 C   0  0  0  0  0  0
  -24.1846  -13.0430   20.9163 C   0  0  0  0  0  0
  -24.6377  -11.6890   20.8728 C   0  0  0  0  0  0
  -23.9033  -10.4290   21.0401 C   0  0  0  0  0  0
  -24.3597   -9.4215   21.9180 C   0  0  0  0  0  0
  -23.6284   -8.2243   22.0754 C   0  0  0  0  0  0
  -22.4264   -8.0277   21.3543 C   0  0  0  0  0  0
  -21.9892   -9.0245   20.4646 C   0  0  0  0  0  0
  -22.7211  -10.2128   20.3055 C   0  0  0  0  0  0
  -21.6855   -6.0736   22.5276 C   0  0  0  0  0  0
  -21.4006   -6.5636   23.8210 C   0  0  0  0  0  0
  -21.3663   -5.6790   24.9171 C   0  0  0  0  0  0
  -21.6047   -4.3054   24.7226 C   0  0  0  0  0  0
  -21.8818   -3.8144   23.4346 C   0  0  0  0  0  0
  -21.9185   -4.6961   22.3400 C   0  0  0  0  0  0
  -22.7869  -13.5239   21.1839 C   0  0  0  0  0  0
  -22.1651   -4.2142   21.0983 F   0  0  0  0  0  0
  -21.5644   -3.4540   25.7742 F   0  0  0  0  0  0
  -30.0609  -13.2243   20.4730 N   0  0  0  0  0  0
  -26.3049  -12.9259   20.3383 N   0  0  0  0  0  0
  -25.9302  -11.6438   20.5758 N   0  0  0  0  0  0
  -22.0498  -12.8238   22.0396 N   0  0  0  0  0  0
  -25.4347  -15.1842   20.4088 N   0  0  0  0  0  0
  -31.7591  -14.6927   20.0246 O   0  0  0  0  0  0
  -21.6636   -6.8876   21.4234 O   0  0  0  0  0  0
  -22.3553  -14.5545   20.6690 O   0  0  0  0  0  0
  -24.6142  -31.8700   23.2126 C   0  0  0  0  0  0
  -25.9050  -32.4832   23.8415 C   0  0  1  0  0  0
  -27.2304  -27.4530   20.0797 C   0  0  0  0  0  0
  -25.5909  -33.8630   24.2343 N   0  0  0  0  0  0
  -23.3991  -30.4974   21.5525 C   0  0  2  0  0  0
  -24.8414  -28.9713   20.1100 C   0  0  0  0  0  0
  -22.7412  -29.4681   22.4994 C   0  0  0  0  0  0
  -18.0275  -28.1380   22.8490 C   0  0  0  0  0  0
  -24.1483  -36.7317   23.2638 C   0  0  0  0  0  0
  -25.9276  -30.8417   21.3625 C   0  0  0  0  0  0
  -26.0017  -29.4803   20.7035 C   0  0  0  0  0  0
  -27.1973  -28.7295   20.6838 C   0  0  0  0  0  0
  -26.0477  -26.9620   19.4731 C   0  0  0  0  0  0
  -24.8587  -27.7098   19.4943 C   0  0  0  0  0  0
  -23.6035  -29.8353   20.1647 C   0  0  0  0  0  0
  -25.4102  -36.3112   24.0338 C   0  0  1  0  0  0
  -20.5865  -28.3667   23.1308 C   0  0  2  0  0  0
  -20.6761  -26.9406   22.5403 C   0  0  0  0  0  0
  -19.5737  -26.6388   21.5203 C   0  0  0  0  0  0
  -18.1919  -26.7926   22.1620 C   0  0  0  0  0  0
  -19.1527  -28.8839   23.2898 C   0  0  0  0  0  0
  -18.9459  -30.1446   23.8910 C   0  0  0  0  0  0
  -17.6464  -30.6585   24.0568 C   0  0  0  0  0  0
  -25.9029  -34.9478   23.5128 C   0  0  0  0  0  0
  -16.5351  -29.9092   23.6326 C   0  0  0  0  0  0
  -16.7269  -28.6507   23.0347 C   0  0  0  0  0  0
  -26.4481  -31.6606   25.0740 C   0  0  0  0  0  0
  -25.3758  -31.3715   26.1501 C   0  0  0  0  0  0
  -27.0304  -30.3046   24.6110 C   0  0  0  0  0  0
  -27.6055  -32.4328   25.7508 C   0  0  0  0  0  0
  -27.5577  -37.1813   24.8467 C   0  0  0  0  0  0
  -21.4143  -29.3042   22.3727 N   0  0  0  0  0  0
  -26.4286  -37.3799   23.9415 N   0  0  0  0  0  0
  -24.6652  -31.0828   22.1011 N   0  0  0  0  0  0
  -23.4194  -28.8230   23.3031 O   0  0  0  0  0  0
  -28.4103  -26.7349   20.1364 O   0  0  0  0  0  0
  -26.5585  -34.8929   22.4691 O   0  0  0  0  0  0
  -23.5334  -32.1453   23.7523 O   0  0  0  0  0  0
  -29.0273  -16.8710   20.3605 C   0  0  0  0  0  0
  -30.2401  -17.5149   22.3659 C   0  0  0  0  0  0
  -28.4383  -18.1502   20.2648 C   0  0  0  0  0  0
  -29.8817  -16.5283   21.4270 C   0  0  0  0  0  0
  -29.7213  -18.8239   22.2674 C   0  0  0  0  0  0
  -28.7539  -19.1112   21.2681 C   0  0  0  0  0  0
  -29.0426  -23.2452   23.2290 C   0  0  0  0  0  0
  -27.4699  -18.3905   19.1501 C   0  0  0  0  0  0
  -29.4998  -22.0454   23.6503 C   0  0  0  0  0  0
  -27.7960  -17.7714   17.8033 C   0  0  0  0  0  0
  -29.1413  -21.5486   25.0413 C   0  0  0  0  0  0
  -27.0345  -25.1809   22.1356 C   0  0  0  0  0  0
  -27.2144  -23.2137   20.6298 C   0  0  0  0  0  0
  -29.2725  -23.9643   21.9000 C   0  0  0  0  0  0
  -30.3894  -21.0924   22.8532 C   0  0  0  0  0  0
  -28.3887  -25.3152   19.9241 C   0  0  0  0  0  0
  -27.9817  -24.4378   21.1606 C   0  0  0  0  0  0
  -26.4154  -19.0799   19.2618 N   0  0  0  0  0  0
  -30.2663  -15.1777   21.6262 N   0  0  0  0  0  0
  -28.0837  -20.2979   21.3293 O   0  0  0  0  0  0
  -30.1413  -19.7290   23.2208 O   0  0  0  0  0  0
  -31.4691  -12.3915   19.0955 H   0  0  0  0  0  0
  -30.3285  -11.2598   19.7610 H   0  0  0  0  0  0
  -29.7226  -11.8247   17.3965 H   0  0  0  0  0  0
  -29.6598  -13.5248   17.7955 H   0  0  0  0  0  0
  -27.8170  -11.3187   18.7807 H   0  0  0  0  0  0
  -27.3617  -12.6771   17.7878 H   0  0  0  0  0  0
  -27.7168  -14.2411   19.6057 H   0  0  0  0  0  0
  -28.6712  -11.8889   21.3102 H   0  0  0  0  0  0
  -28.4545  -13.5066   21.8901 H   0  0  0  0  0  0
  -25.2757   -9.5691   22.4740 H   0  0  0  0  0  0
  -24.0008   -7.4638   22.7471 H   0  0  0  0  0  0
  -21.0827   -8.8749   19.8956 H   0  0  0  0  0  0
  -22.3671  -10.9661   19.6155 H   0  0  0  0  0  0
  -21.1990   -7.6143   23.9708 H   0  0  0  0  0  0
  -21.1488   -6.0524   25.9075 H   0  0  0  0  0  0
  -22.0595   -2.7604   23.2845 H   0  0  0  0  0  0
  -22.4104  -11.9903   22.4806 H   0  0  0  0  0  0
  -21.1109  -13.1262   22.2584 H   0  0  0  0  0  0
  -24.6720  -15.8416   20.5277 H   0  0  0  0  0  0
  -26.2884  -15.6254   20.0974 H   0  0  0  0  0  0
  -26.7136  -32.5540   23.1191 H   0  0  0  0  0  0
  -25.0087  -33.9800   25.0505 H   0  0  0  0  0  0
  -22.6863  -31.3138   21.4181 H   0  0  0  0  0  0
  -23.3729  -35.9665   23.3314 H   0  0  0  0  0  0
  -24.3577  -36.8916   22.2049 H   0  0  0  0  0  0
  -23.7248  -37.6535   23.6640 H   0  0  0  0  0  0
  -26.0424  -31.6112   20.5970 H   0  0  0  0  0  0
  -26.8157  -30.8890   21.9815 H   0  0  0  0  0  0
  -28.0924  -29.1185   21.1492 H   0  0  0  0  0  0
  -25.9993  -25.9963   18.9954 H   0  0  0  0  0  0
  -23.9647  -27.3089   19.0359 H   0  0  0  0  0  0
  -23.7111  -30.6141   19.4088 H   0  0  0  0  0  0
  -22.7263  -29.2576   19.8671 H   0  0  0  0  0  0
  -25.1274  -36.1981   25.0828 H   0  0  0  0  0  0
  -20.9962  -28.3230   24.1426 H   0  0  0  0  0  0
  -20.5648  -26.2288   23.3594 H   0  0  0  0  0  0
  -21.6635  -26.7433   22.1210 H   0  0  0  0  0  0
  -19.6891  -25.6302   21.1228 H   0  0  0  0  0  0
  -19.6666  -27.3197   20.6733 H   0  0  0  0  0  0
  -17.4183  -26.6676   21.4029 H   0  0  0  0  0  0
  -18.0326  -26.0066   22.9016 H   0  0  0  0  0  0
  -19.7939  -30.7258   24.2276 H   0  0  0  0  0  0
  -17.5022  -31.6265   24.5175 H   0  0  0  0  0  0
  -15.5353  -30.3001   23.7637 H   0  0  0  0  0  0
  -15.8669  -28.0833   22.7047 H   0  0  0  0  0  0
  -24.5920  -30.7069   25.7858 H   0  0  0  0  0  0
  -24.8960  -32.2865   26.4979 H   0  0  0  0  0  0
  -25.8121  -30.8879   27.0246 H   0  0  0  0  0  0
  -26.2841  -29.6821   24.1155 H   0  0  0  0  0  0
  -27.4064  -29.7277   25.4570 H   0  0  0  0  0  0
  -27.8687  -30.4368   23.9266 H   0  0  0  0  0  0
  -27.2671  -33.3611   26.2127 H   0  0  0  0  0  0
  -28.3849  -32.6919   25.0330 H   0  0  0  0  0  0
  -28.0748  -31.8433   26.5395 H   0  0  0  0  0  0
  -28.2601  -38.0104   24.7498 H   0  0  0  0  0  0
  -28.1060  -36.2629   24.6298 H   0  0  0  0  0  0
  -27.2296  -37.1481   25.8873 H   0  0  0  0  0  0
  -20.9297  -29.8792   21.6974 H   0  0  0  0  0  0
  -26.0168  -38.2876   24.1418 H   0  0  0  0  0  0
  -28.7641  -16.1175   19.6378 H   0  0  0  0  0  0
  -30.9058  -17.2684   23.1799 H   0  0  0  0  0  0
  -28.4439  -23.8051   23.9316 H   0  0  0  0  0  0
  -27.2357  -18.2549   17.0019 H   0  0  0  0  0  0
  -27.5466  -16.7101   17.7973 H   0  0  0  0  0  0
  -28.8574  -17.8835   17.5811 H   0  0  0  0  0  0
  -28.5849  -22.2931   25.6125 H   0  0  0  0  0  0
  -30.0472  -21.3070   25.5982 H   0  0  0  0  0  0
  -28.5271  -20.6491   24.9845 H   0  0  0  0  0  0
  -27.5232  -26.0441   22.5881 H   0  0  0  0  0  0
  -26.6807  -24.5424   22.9438 H   0  0  0  0  0  0
  -26.1278  -25.5257   21.6430 H   0  0  0  0  0  0
  -26.8667  -22.5785   21.4436 H   0  0  0  0  0  0
  -27.8345  -22.6075   19.9681 H   0  0  0  0  0  0
  -26.3294  -23.5065   20.0626 H   0  0  0  0  0  0
  -29.8781  -23.3526   21.2330 H   0  0  0  0  0  0
  -29.8821  -24.8398   22.1281 H   0  0  0  0  0  0
  -31.4185  -21.3074   23.1429 H   0  0  0  0  0  0
  -30.3525  -21.2707   21.7793 H   0  0  0  0  0  0
  -27.8198  -25.0557   19.0326 H   0  0  0  0  0  0
  -29.4036  -25.0467   19.6282 H   0  0  0  0  0  0
  -26.3589  -19.4678   20.2001 H   0  0  0  0  0  0
  -29.6916  -14.6828   22.2924 H   0  0  0  0  0  0
  -28.2688  -20.7663   22.1357 H   0  0  0  0  0  0
  1 25  1  0  0  0
  1 30  2  0  0  0
  1 89  1  0  0  0
  2  3  1  0  0  0
  2 25  1  0  0  0
  2 92  1  0  0  0
  2 93  1  0  0  0
  3  4  1  0  0  0
  3 94  1  0  0  0
  3 95  1  0  0  0
  4  5  1  0  0  0
  4 96  1  0  0  0
  4 97  1  0  0  0
  5  6  1  0  0  0
  5 26  1  0  0  0
  5 98  1  0  0  0
  6 25  1  0  0  0
  6 99  1  0  0  0
  6100  1  0  0  0
  7  8  2  0  0  0
  7 26  1  0  0  0
  7 29  1  0  0  0
  8  9  1  0  0  0
  8 22  1  0  0  0
  9 10  1  0  0  0
  9 27  2  0  0  0
 10 11  2  0  0  0
 10 15  1  0  0  0
 11 12  1  0  0  0
 11101  1  0  0  0
 12 13  2  0  0  0
 12102  1  0  0  0
 13 14  1  0  0  0
 13 31  1  0  0  0
 14 15  2  0  0  0
 14103  1  0  0  0
 15104  1  0  0  0
 16 17  2  0  0  0
 16 21  1  0  0  0
 16 31  1  0  0  0
 17 18  1  0  0  0
 17105  1  0  0  0
 18 19  2  0  0  0
 18106  1  0  0  0
 19 20  1  0  0  0
 19 24  1  0  0  0
 20 21  2  0  0  0
 20107  1  0  0  0
 21 23  1  0  0  0
 22 28  1  0  0  0
 22 32  2  0  0  0
 26 27  1  0  0  0
 28108  1  0  0  0
 28109  1  0  0  0
 29110  1  0  0  0
 29111  1  0  0  0
 33 34  1  0  0  0
 33 66  1  0  0  0
 33 70  2  0  0  0
 34 36  1  0  0  0
 34 59  1  0  0  0
 34112  1  0  0  0
 35 44  2  0  0  0
 35 45  1  0  0  0
 35 68  1  0  0  0
 36 56  1  0  0  0
 36113  1  0  0  0
 37 39  1  0  0  0
 37 47  1  0  0  0
 37 66  1  0  0  0
 37114  1  0  0  0
 38 43  2  0  0  0
 38 46  1  0  0  0
 38 47  1  0  0  0
 39 64  1  0  0  0
 39 67  2  0  0  0
 40 52  1  0  0  0
 40 53  2  0  0  0
 40 58  1  0  0  0
 41115  1  0  0  0
 41116  1  0  0  0
 41117  1  0  0  0
 41 48  1  0  0  0
 42 43  1  0  0  0
 42 66  1  0  0  0
 42118  1  0  0  0
 42119  1  0  0  0
 43 44  1  0  0  0
 44120  1  0  0  0
 45 46  2  0  0  0
 45121  1  0  0  0
 46122  1  0  0  0
 47123  1  0  0  0
 47124  1  0  0  0
 48 56  1  0  0  0
 48 65  1  0  0  0
 48125  1  0  0  0
 49 50  1  0  0  0
 49 53  1  0  0  0
 49 64  1  0  0  0
 49126  1  0  0  0
 50 51  1  0  0  0
 50127  1  0  0  0
 50128  1  0  0  0
 51 52  1  0  0  0
 51129  1  0  0  0
 51130  1  0  0  0
 52131  1  0  0  0
 52132  1  0  0  0
 53 54  1  0  0  0
 54 55  2  0  0  0
 54133  1  0  0  0
 55 57  1  0  0  0
 55134  1  0  0  0
 56 69  2  0  0  0
 57 58  2  0  0  0
 57135  1  0  0  0
 58136  1  0  0  0
 59 60  1  0  0  0
 59 61  1  0  0  0
 59 62  1  0  0  0
 60137  1  0  0  0
 60138  1  0  0  0
 60139  1  0  0  0
 61140  1  0  0  0
 61141  1  0  0  0
 61142  1  0  0  0
 62143  1  0  0  0
 62144  1  0  0  0
 62145  1  0  0  0
 63 65  1  0  0  0
 63146  1  0  0  0
 63147  1  0  0  0
 63148  1  0  0  0
 64149  1  0  0  0
 65150  1  0  0  0
 68 86  1  0  0  0
 71 73  2  0  0  0
 71 74  1  0  0  0
 71151  1  0  0  0
 72 74  2  0  0  0
 72 75  1  0  0  0
 72152  1  0  0  0
 73 76  1  0  0  0
 73 78  1  0  0  0
 74 89  1  0  0  0
 75 76  2  0  0  0
 75 91  1  0  0  0
 76 90  1  0  0  0
 77 79  2  0  0  0
 77 84  1  0  0  0
 77153  1  0  0  0
 78 80  1  0  0  0
 78 88  2  0  0  0
 79 81  1  0  0  0
 79 85  1  0  0  0
 80154  1  0  0  0
 80155  1  0  0  0
 80156  1  0  0  0
 81157  1  0  0  0
 81158  1  0  0  0
 81159  1  0  0  0
 82160  1  0  0  0
 82161  1  0  0  0
 82162  1  0  0  0
 82 87  1  0  0  0
 83 87  1  0  0  0
 83163  1  0  0  0
 83164  1  0  0  0
 83165  1  0  0  0
 84 87  1  0  0  0
 84166  1  0  0  0
 84167  1  0  0  0
 85 91  1  0  0  0
 85168  1  0  0  0
 85169  1  0  0  0
 86 87  1  0  0  0
 86170  1  0  0  0
 86171  1  0  0  0
 88172  1  0  0  0
 89173  1  0  0  0
 90174  1  0  0  0
M  ISO  4   1 100  68 101  86 101  89 100
M  END
> <chiral flag>
0

> <version>
0

> <s_m_source_file>
/data/baiqing/PycharmProjects/Reinvent-master-3.2/result/LINK_invent/BTK/process_docking_weight1_custom_product_contain_oxygen_bond_distance_aromatic_linkinvent_7_9_3/rearranged_h_0143.sdf

> <i_m_source_file_index>
50

> <r_mmod_Potential_Energy-OPLS-2005>
33.454402923584

> <r_mmod_Stretch_Energy-OPLS-2005>
41.4127388000488

> <r_mmod_Bend_Energy-OPLS-2005>
127.438400268555

> <r_mmod_Torsional_Energy-OPLS-2005>
278.322784423828

> <r_mmod_Improper_Torsional_Energy-OPLS-2005>
5.76526689529419

> <r_mmod_Van_der_Waal_Energy-OPLS-2005>
169.395446777344

> <r_mmod_Electrostatic_Energy-OPLS-2005>
-387.956207275391

> <r_mmod_Solvation_Energy-OPLS-2005>
-210.248229980469

> <b_mmod_Minimization_Converged-OPLS-2005>
0

> <r_mmod_RMS_Derivative-OPLS-2005>
1.62712943553925

$$$$
50
                    3D
 Structure written by MMmdl.
159167  0  0  1  0            999 V2000
  -30.6859  -14.4437   20.6202 C   0  0  0  0  0  0
  -30.4327  -12.3059   19.4065 C   0  0  0  0  0  0
  -29.4938  -12.5208   18.2002 C   0  0  0  0  0  0
  -28.0138  -12.3808   18.6125 C   0  0  0  0  0  0
  -27.6681  -13.1988   19.8852 C   0  0  2  0  0  0
  -28.7084  -12.9203   20.9921 C   0  0  0  0  0  0
  -25.2619  -13.8153   20.5685 C   0  0  0  0  0  0
  -24.1853  -13.0441   20.9168 C   0  0  0  0  0  0
  -24.6392  -11.6902   20.8734 C   0  0  0  0  0  0
  -23.9052  -10.4293   21.0403 C   0  0  0  0  0  0
  -24.3606   -9.4211   21.9184 C   0  0  0  0  0  0
  -23.6287   -8.2245   22.0753 C   0  0  0  0  0  0
  -22.4270   -8.0280   21.3542 C   0  0  0  0  0  0
  -21.9902   -9.0253   20.4647 C   0  0  0  0  0  0
  -22.7224  -10.2136   20.3054 C   0  0  0  0  0  0
  -21.6851   -6.0736   22.5278 C   0  0  0  0  0  0
  -21.4013   -6.5641   23.8211 C   0  0  0  0  0  0
  -21.3659   -5.6793   24.9173 C   0  0  0  0  0  0
  -21.6041   -4.3056   24.7225 C   0  0  0  0  0  0
  -21.8821   -3.8148   23.4345 C   0  0  0  0  0  0
  -21.9193   -4.6964   22.3400 C   0  0  0  0  0  0
  -22.7878  -13.5246   21.1839 C   0  0  0  0  0  0
  -22.1663   -4.2150   21.0978 F   0  0  0  0  0  0
  -21.5628   -3.4540   25.7738 F   0  0  0  0  0  0
  -30.0427  -13.2547   20.4604 N   0  0  0  0  0  0
  -26.3058  -12.9304   20.3417 N   0  0  0  0  0  0
  -25.9317  -11.6466   20.5770 N   0  0  0  0  0  0
  -22.0515  -12.8242   22.0398 N   0  0  0  0  0  0
  -25.4355  -15.1868   20.4068 N   0  0  0  0  0  0
  -31.7763  -14.6849   20.0922 O   0  0  0  0  0  0
  -21.6635   -6.8877   21.4240 O   0  0  0  0  0  0
  -22.3562  -14.5553   20.6692 O   0  0  0  0  0  0
  -24.6128  -31.8697   23.2107 C   0  0  0  0  0  0
  -25.9033  -32.4827   23.8397 C   0  0  1  0  0  0
  -27.2398  -27.4515   20.0985 C   0  0  0  0  0  0
  -25.5902  -33.8624   24.2335 N   0  0  0  0  0  0
  -23.4002  -30.4901   21.5514 C   0  0  2  0  0  0
  -24.8491  -28.9506   20.1227 C   0  0  0  0  0  0
  -22.7399  -29.4659   22.5015 C   0  0  0  0  0  0
  -18.0269  -28.1363   22.8491 C   0  0  0  0  0  0
  -24.1490  -36.7314   23.2639 C   0  0  0  0  0  0
  -25.9260  -30.8373   21.3628 C   0  0  0  0  0  0
  -26.0060  -29.4685   20.7200 C   0  0  0  0  0  0
  -27.2063  -28.7236   20.7102 C   0  0  0  0  0  0
  -26.0715  -26.9381   19.5025 C   0  0  0  0  0  0
  -24.8743  -27.6814   19.5149 C   0  0  0  0  0  0
  -23.6095  -29.8170   20.1677 C   0  0  0  0  0  0
  -25.4107  -36.3112   24.0339 C   0  0  1  0  0  0
  -20.5855  -28.3647   23.1327 C   0  0  2  0  0  0
  -20.6761  -26.9388   22.5415 C   0  0  0  0  0  0
  -19.5742  -26.6376   21.5205 C   0  0  0  0  0  0
  -18.1918  -26.7911   22.1615 C   0  0  0  0  0  0
  -19.1516  -28.8820   23.2906 C   0  0  0  0  0  0
  -18.9449  -30.1430   23.8910 C   0  0  0  0  0  0
  -17.6455  -30.6576   24.0554 C   0  0  0  0  0  0
  -25.9030  -34.9477   23.5132 C   0  0  0  0  0  0
  -16.5344  -29.9074   23.6320 C   0  0  0  0  0  0
  -16.7258  -28.6490   23.0344 C   0  0  0  0  0  0
  -26.4467  -31.6599   25.0715 C   0  0  0  0  0  0
  -25.3739  -31.3694   26.1471 C   0  0  0  0  0  0
  -27.0295  -30.3048   24.6064 C   0  0  0  0  0  0
  -27.6051  -32.4310   25.7476 C   0  0  0  0  0  0
  -27.5580  -37.1812   24.8465 C   0  0  0  0  0  0
  -21.4130  -29.3019   22.3744 N   0  0  0  0  0  0
  -26.4294  -37.3793   23.9406 N   0  0  0  0  0  0
  -24.6644  -31.0798   22.1006 N   0  0  0  0  0  0
  -23.4176  -28.8214   23.3066 O   0  0  0  0  0  0
  -28.4102  -26.7402   20.0056 O   0  0  0  0  0  0
  -26.5590  -34.8927   22.4690 O   0  0  0  0  0  0
  -23.5326  -32.1446   23.7515 O   0  0  0  0  0  0
  -29.0289  -18.9077   22.1367 C   0  0  0  0  0  0
  -30.8875  -17.5350   20.5573 C   0  0  0  0  0  0
  -29.0651  -17.4885   22.1965 C   0  0  0  0  0  0
  -29.9062  -19.6422   21.3096 C   0  0  0  0  0  0
  -30.0018  -16.7796   21.3718 C   0  0  0  0  0  0
  -30.8491  -18.9429   20.5366 C   0  0  0  0  0  0
  -28.0943  -16.7984   23.1208 C   0  0  0  0  0  0
  -28.9337  -21.9408   21.4808 C   0  0  0  0  0  0
  -27.3803  -17.6362   24.1781 C   0  0  0  0  0  0
  -29.3108  -23.4239   21.6237 C   0  0  0  0  0  0
  -28.5480  -24.3848   20.6808 C   0  0  0  0  0  0
  -28.7050  -25.8652   21.0922 C   0  0  0  0  0  0
  -29.9396  -21.0683   21.2834 N   0  0  0  0  0  0
  -30.0133  -15.3395   21.3730 N   0  0  0  0  0  0
  -27.8567  -15.5882   23.0941 O   0  0  0  0  0  0
  -27.7487  -21.6069   21.5511 O   0  0  0  0  0  0
  -31.7237  -19.6305   19.7621 F   0  0  0  0  0  0
  -31.4740  -12.4269   19.1018 H   0  0  0  0  0  0
  -30.3521  -11.2829   19.7769 H   0  0  0  0  0  0
  -29.7289  -11.8078   17.4090 H   0  0  0  0  0  0
  -29.6628  -13.5119   17.7763 H   0  0  0  0  0  0
  -27.8173  -11.3227   18.7901 H   0  0  0  0  0  0
  -27.3638  -12.6750   17.7879 H   0  0  0  0  0  0
  -27.7290  -14.2548   19.6215 H   0  0  0  0  0  0
  -28.6850  -11.8649   21.2681 H   0  0  0  0  0  0
  -28.4609  -13.4458   21.9118 H   0  0  0  0  0  0
  -25.2753   -9.5691   22.4757 H   0  0  0  0  0  0
  -23.9999   -7.4636   22.7471 H   0  0  0  0  0  0
  -21.0833   -8.8767   19.8953 H   0  0  0  0  0  0
  -22.3679  -10.9674   19.6164 H   0  0  0  0  0  0
  -21.2007   -7.6150   23.9715 H   0  0  0  0  0  0
  -21.1478   -6.0524   25.9076 H   0  0  0  0  0  0
  -22.0602   -2.7611   23.2844 H   0  0  0  0  0  0
  -22.4120  -11.9892   22.4772 H   0  0  0  0  0  0
  -21.1139  -13.1279   22.2611 H   0  0  0  0  0  0
  -24.6755  -15.8485   20.5188 H   0  0  0  0  0  0
  -26.3034  -15.6220   20.1220 H   0  0  0  0  0  0
  -26.7109  -32.5551   23.1170 H   0  0  0  0  0  0
  -25.0068  -33.9785   25.0492 H   0  0  0  0  0  0
  -22.6879  -31.3054   21.4106 H   0  0  0  0  0  0
  -23.3743  -35.9660   23.3313 H   0  0  0  0  0  0
  -24.3585  -36.8911   22.2052 H   0  0  0  0  0  0
  -23.7252  -37.6528   23.6641 H   0  0  0  0  0  0
  -26.0323  -31.6004   20.5904 H   0  0  0  0  0  0
  -26.8164  -30.8968   21.9766 H   0  0  0  0  0  0
  -28.1055  -29.1261   21.1557 H   0  0  0  0  0  0
  -26.0942  -25.9712   19.0197 H   0  0  0  0  0  0
  -23.9861  -27.2760   19.0501 H   0  0  0  0  0  0
  -23.7166  -30.5899   19.4057 H   0  0  0  0  0  0
  -22.7341  -29.2351   19.8747 H   0  0  0  0  0  0
  -25.1283  -36.1979   25.0832 H   0  0  0  0  0  0
  -20.9939  -28.3210   24.1451 H   0  0  0  0  0  0
  -20.5661  -26.2254   23.3598 H   0  0  0  0  0  0
  -21.6636  -26.7435   22.1212 H   0  0  0  0  0  0
  -19.6906  -25.6292   21.1219 H   0  0  0  0  0  0
  -19.6685  -27.3200   20.6747 H   0  0  0  0  0  0
  -17.4192  -26.6660   21.4013 H   0  0  0  0  0  0
  -18.0318  -26.0041   22.9001 H   0  0  0  0  0  0
  -19.7931  -30.7230   24.2289 H   0  0  0  0  0  0
  -17.5014  -31.6257   24.5151 H   0  0  0  0  0  0
  -15.5346  -30.2978   23.7639 H   0  0  0  0  0  0
  -15.8658  -28.0812   22.7051 H   0  0  0  0  0  0
  -24.5910  -30.7039   25.7808 H   0  0  0  0  0  0
  -24.8930  -32.2852   26.4928 H   0  0  0  0  0  0
  -25.8105  -30.8859   27.0220 H   0  0  0  0  0  0
  -26.2831  -29.6811   24.1134 H   0  0  0  0  0  0
  -27.4100  -29.7277   25.4500 H   0  0  0  0  0  0
  -27.8649  -30.4373   23.9182 H   0  0  0  0  0  0
  -27.2672  -33.3600   26.2079 H   0  0  0  0  0  0
  -28.3851  -32.6884   25.0292 H   0  0  0  0  0  0
  -28.0731  -31.8413   26.5368 H   0  0  0  0  0  0
  -28.2608  -38.0102   24.7507 H   0  0  0  0  0  0
  -28.1066  -36.2634   24.6297 H   0  0  0  0  0  0
  -27.2298  -37.1471   25.8870 H   0  0  0  0  0  0
  -20.9291  -29.8740   21.6965 H   0  0  0  0  0  0
  -26.0185  -38.2872   24.1403 H   0  0  0  0  0  0
  -28.3299  -19.4595   22.7451 H   0  0  0  0  0  0
  -31.6204  -17.0617   19.9244 H   0  0  0  0  0  0
  -28.0879  -18.2751   24.7058 H   0  0  0  0  0  0
  -26.8984  -16.9896   24.9108 H   0  0  0  0  0  0
  -26.6154  -18.2585   23.7150 H   0  0  0  0  0  0
  -30.3852  -23.5544   21.4886 H   0  0  0  0  0  0
  -29.1045  -23.6985   22.6588 H   0  0  0  0  0  0
  -27.4870  -24.1344   20.6406 H   0  0  0  0  0  0
  -28.9321  -24.2483   19.6690 H   0  0  0  0  0  0
  -29.7406  -26.0576   21.3742 H   0  0  0  0  0  0
  -28.1020  -26.0856   21.9756 H   0  0  0  0  0  0
  -30.8399  -21.4688   21.0562 H   0  0  0  0  0  0
  -29.2349  -14.9283   21.8740 H   0  0  0  0  0  0
  1 25  1  0  0  0
  1 30  2  0  0  0
  1 84  1  0  0  0
  2  3  1  0  0  0
  2 25  1  0  0  0
  2 88  1  0  0  0
  2 89  1  0  0  0
  3  4  1  0  0  0
  3 90  1  0  0  0
  3 91  1  0  0  0
  4  5  1  0  0  0
  4 92  1  0  0  0
  4 93  1  0  0  0
  5  6  1  0  0  0
  5 26  1  0  0  0
  5 94  1  0  0  0
  6 25  1  0  0  0
  6 95  1  0  0  0
  6 96  1  0  0  0
  7  8  2  0  0  0
  7 26  1  0  0  0
  7 29  1  0  0  0
  8  9  1  0  0  0
  8 22  1  0  0  0
  9 10  1  0  0  0
  9 27  2  0  0  0
 10 11  2  0  0  0
 10 15  1  0  0  0
 11 12  1  0  0  0
 11 97  1  0  0  0
 12 13  2  0  0  0
 12 98  1  0  0  0
 13 14  1  0  0  0
 13 31  1  0  0  0
 14 15  2  0  0  0
 14 99  1  0  0  0
 15100  1  0  0  0
 16 17  2  0  0  0
 16 21  1  0  0  0
 16 31  1  0  0  0
 17 18  1  0  0  0
 17101  1  0  0  0
 18 19  2  0  0  0
 18102  1  0  0  0
 19 20  1  0  0  0
 19 24  1  0  0  0
 20 21  2  0  0  0
 20103  1  0  0  0
 21 23  1  0  0  0
 22 28  1  0  0  0
 22 32  2  0  0  0
 26 27  1  0  0  0
 28104  1  0  0  0
 28105  1  0  0  0
 29106  1  0  0  0
 29107  1  0  0  0
 33 34  1  0  0  0
 33 66  1  0  0  0
 33 70  2  0  0  0
 34 36  1  0  0  0
 34 59  1  0  0  0
 34108  1  0  0  0
 35 44  2  0  0  0
 35 45  1  0  0  0
 35 68  1  0  0  0
 36 56  1  0  0  0
 36109  1  0  0  0
 37 39  1  0  0  0
 37 47  1  0  0  0
 37 66  1  0  0  0
 37110  1  0  0  0
 38 43  2  0  0  0
 38 46  1  0  0  0
 38 47  1  0  0  0
 39 64  1  0  0  0
 39 67  2  0  0  0
 40 52  1  0  0  0
 40 53  2  0  0  0
 40 58  1  0  0  0
 41111  1  0  0  0
 41112  1  0  0  0
 41113  1  0  0  0
 41 48  1  0  0  0
 42 43  1  0  0  0
 42 66  1  0  0  0
 42114  1  0  0  0
 42115  1  0  0  0
 43 44  1  0  0  0
 44116  1  0  0  0
 45 46  2  0  0  0
 45117  1  0  0  0
 46118  1  0  0  0
 47119  1  0  0  0
 47120  1  0  0  0
 48 56  1  0  0  0
 48 65  1  0  0  0
 48121  1  0  0  0
 49 50  1  0  0  0
 49 53  1  0  0  0
 49 64  1  0  0  0
 49122  1  0  0  0
 50 51  1  0  0  0
 50123  1  0  0  0
 50124  1  0  0  0
 51 52  1  0  0  0
 51125  1  0  0  0
 51126  1  0  0  0
 52127  1  0  0  0
 52128  1  0  0  0
 53 54  1  0  0  0
 54 55  2  0  0  0
 54129  1  0  0  0
 55 57  1  0  0  0
 55130  1  0  0  0
 56 69  2  0  0  0
 57 58  2  0  0  0
 57131  1  0  0  0
 58132  1  0  0  0
 59 60  1  0  0  0
 59 61  1  0  0  0
 59 62  1  0  0  0
 60133  1  0  0  0
 60134  1  0  0  0
 60135  1  0  0  0
 61136  1  0  0  0
 61137  1  0  0  0
 61138  1  0  0  0
 62139  1  0  0  0
 62140  1  0  0  0
 62141  1  0  0  0
 63 65  1  0  0  0
 63142  1  0  0  0
 63143  1  0  0  0
 63144  1  0  0  0
 64145  1  0  0  0
 65146  1  0  0  0
 68 82  1  0  0  0
 71 73  2  0  0  0
 71 74  1  0  0  0
 71147  1  0  0  0
 72 75  2  0  0  0
 72 76  1  0  0  0
 72148  1  0  0  0
 73 75  1  0  0  0
 73 77  1  0  0  0
 74 76  2  0  0  0
 74 83  1  0  0  0
 75 84  1  0  0  0
 76 87  1  0  0  0
 77 79  1  0  0  0
 77 85  2  0  0  0
 78 80  1  0  0  0
 78 83  1  0  0  0
 78 86  2  0  0  0
 79149  1  0  0  0
 79150  1  0  0  0
 79151  1  0  0  0
 80 81  1  0  0  0
 80152  1  0  0  0
 80153  1  0  0  0
 81 82  1  0  0  0
 81154  1  0  0  0
 81155  1  0  0  0
 82156  1  0  0  0
 82157  1  0  0  0
 83158  1  0  0  0
 84159  1  0  0  0
M  ISO  4   1 100  68 101  82 101  84 100
M  END
> <chiral flag>
0

> <version>
0

> <s_m_source_file>
/data/baiqing/PycharmProjects/Reinvent-master-3.2/result/LINK_invent/BTK/process_docking_weight1_custom_product_contain_oxygen_bond_distance_aromatic_linkinvent_7_9_3/rearranged_h_0143.sdf

> <i_m_source_file_index>
51

> <r_mmod_Potential_Energy-OPLS-2005>
-78.9712142944336

> <r_mmod_Stretch_Energy-OPLS-2005>
40.4396476745605

> <r_mmod_Bend_Energy-OPLS-2005>
105.77311706543

> <r_mmod_Torsional_Energy-OPLS-2005>
276.115509033203

> <r_mmod_Improper_Torsional_Energy-OPLS-2005>
3.02706551551819

> <r_mmod_Van_der_Waal_Energy-OPLS-2005>
161.748580932617

> <r_mmod_Electrostatic_Energy-OPLS-2005>
-456.97265625

> <r_mmod_Solvation_Energy-OPLS-2005>
-217.8056640625

> <b_mmod_Minimization_Converged-OPLS-2005>
0

> <r_mmod_RMS_Derivative-OPLS-2005>
0.777822017669678

$$$$
51
                    3D
 Structure written by MMmdl.
161170  0  0  1  0            999 V2000
  -30.6443  -14.7466   20.2978 C   0  0  0  0  0  0
  -30.4320  -12.4167   19.4837 C   0  0  0  0  0  0
  -29.5137  -12.3780   18.2451 C   0  0  0  0  0  0
  -28.0304  -12.2593   18.6605 C   0  0  0  0  0  0
  -27.6244  -13.1890   19.8357 C   0  0  2  0  0  0
  -28.6876  -13.2390   20.9497 C   0  0  0  0  0  0
  -25.2525  -13.8077   20.5787 C   0  0  0  0  0  0
  -24.1775  -13.0388   20.9263 C   0  0  0  0  0  0
  -24.6316  -11.6848   20.8823 C   0  0  0  0  0  0
  -23.8995  -10.4263   21.0458 C   0  0  0  0  0  0
  -24.3573   -9.4181   21.9216 C   0  0  0  0  0  0
  -23.6267   -8.2213   22.0763 C   0  0  0  0  0  0
  -22.4252   -8.0263   21.3544 C   0  0  0  0  0  0
  -21.9877   -9.0237   20.4649 C   0  0  0  0  0  0
  -22.7191  -10.2121   20.3078 C   0  0  0  0  0  0
  -21.6843   -6.0727   22.5276 C   0  0  0  0  0  0
  -21.4009   -6.5634   23.8209 C   0  0  0  0  0  0
  -21.3653   -5.6787   24.9170 C   0  0  0  0  0  0
  -21.6044   -4.3052   24.7221 C   0  0  0  0  0  0
  -21.8825   -3.8143   23.4343 C   0  0  0  0  0  0
  -21.9193   -4.6958   22.3398 C   0  0  0  0  0  0
  -22.7810  -13.5220   21.1887 C   0  0  0  0  0  0
  -22.1666   -4.2145   21.0976 F   0  0  0  0  0  0
  -21.5622   -3.4536   25.7734 F   0  0  0  0  0  0
  -29.9858  -13.5383   20.3338 N   0  0  0  0  0  0
  -26.2877  -12.9163   20.3370 N   0  0  0  0  0  0
  -25.9230  -11.6366   20.5879 N   0  0  0  0  0  0
  -22.0431  -12.8232   22.0435 N   0  0  0  0  0  0
  -25.4267  -15.1811   20.4229 N   0  0  0  0  0  0
  -31.8765  -14.7353   20.3253 O   0  0  0  0  0  0
  -21.6623   -6.8862   21.4236 O   0  0  0  0  0  0
  -22.3526  -14.5532   20.6718 O   0  0  0  0  0  0
  -24.6234  -31.8597   23.1999 C   0  0  0  0  0  0
  -25.9087  -32.4776   23.8335 C   0  0  1  0  0  0
  -27.2386  -27.3292   20.1238 C   0  0  0  0  0  0
  -25.5909  -33.8576   24.2272 N   0  0  0  0  0  0
  -23.4175  -30.4781   21.5422 C   0  0  2  0  0  0
  -24.8658  -28.9270   20.1110 C   0  0  0  0  0  0
  -22.7461  -29.4610   22.4946 C   0  0  0  0  0  0
  -18.0280  -28.1375   22.8488 C   0  0  0  0  0  0
  -24.1485  -36.7296   23.2643 C   0  0  0  0  0  0
  -25.9536  -30.7941   21.3668 C   0  0  0  0  0  0
  -26.0283  -29.4190   20.7148 C   0  0  0  0  0  0
  -27.2115  -28.6293   20.7126 C   0  0  0  0  0  0
  -26.0514  -26.8745   19.5077 C   0  0  0  0  0  0
  -24.8791  -27.6605   19.5000 C   0  0  0  0  0  0
  -23.6311  -29.8050   20.1587 C   0  0  0  0  0  0
  -25.4109  -36.3084   24.0332 C   0  0  1  0  0  0
  -20.5875  -28.3677   23.1297 C   0  0  2  0  0  0
  -20.6763  -26.9403   22.5417 C   0  0  0  0  0  0
  -19.5744  -26.6378   21.5213 C   0  0  0  0  0  0
  -18.1923  -26.7917   22.1624 C   0  0  0  0  0  0
  -19.1530  -28.8843   23.2884 C   0  0  0  0  0  0
  -18.9455  -30.1444   23.8901 C   0  0  0  0  0  0
  -17.6457  -30.6579   24.0562 C   0  0  0  0  0  0
  -25.9047  -34.9453   23.5107 C   0  0  0  0  0  0
  -16.5348  -29.9082   23.6323 C   0  0  0  0  0  0
  -16.7268  -28.6497   23.0351 C   0  0  0  0  0  0
  -26.4481  -31.6581   25.0700 C   0  0  0  0  0  0
  -25.3723  -31.3712   26.1437 C   0  0  0  0  0  0
  -27.0325  -30.3011   24.6132 C   0  0  0  0  0  0
  -27.6044  -32.4318   25.7470 C   0  0  0  0  0  0
  -27.5575  -37.1802   24.8466 C   0  0  0  0  0  0
  -21.4175  -29.3034   22.3697 N   0  0  0  0  0  0
  -26.4288  -37.3778   23.9408 N   0  0  0  0  0  0
  -24.6836  -31.0608   22.0943 N   0  0  0  0  0  0
  -23.4191  -28.8161   23.3029 O   0  0  0  0  0  0
  -28.4022  -26.5534   20.2032 O   0  0  0  0  0  0
  -26.5622  -34.8925   22.4679 O   0  0  0  0  0  0
  -23.5403  -32.1392   23.7338 O   0  0  0  0  0  0
  -31.1211  -18.3965   20.3946 C   0  0  0  0  0  0
  -30.0446  -17.5318   20.3389 C   0  0  0  0  0  0
  -29.4865  -20.0258   20.6142 C   0  0  0  0  0  0
  -28.8032  -24.3177   22.1157 C   0  0  0  0  0  0
  -27.1787  -23.0916   20.5740 C   0  0  0  0  0  0
  -27.5111  -21.6444   21.0041 C   0  0  0  0  0  0
  -29.4409  -22.6656   20.2304 C   0  0  0  0  0  0
  -28.4982  -23.8775   20.6611 C   0  0  2  0  0  0
  -27.7451  -25.1150   22.8731 C   0  0  0  0  0  0
  -28.9009  -16.0408   18.6356 C   0  0  0  0  0  0
  -28.5439  -25.1688   19.7002 C   0  0  0  0  0  0
  -30.0127  -16.1117   19.6959 C   0  0  1  0  0  0
  -30.7977  -19.7736   20.5161 N   0  0  0  0  0  0
  -28.8910  -21.3314   20.6285 N   0  0  0  0  0  0
  -29.8751  -24.0587   22.6710 O   0  0  0  0  0  0
  -28.5757  -18.4843   20.6702 S   0  0  0  0  0  0
  -31.4739  -12.5196   19.1758 H   0  0  0  0  0  0
  -30.3741  -11.4779   20.0364 H   0  0  0  0  0  0
  -29.7799  -11.5205   17.6256 H   0  0  0  0  0  0
  -29.6879  -13.2441   17.6128 H   0  0  0  0  0  0
  -27.8737  -11.2218   18.9571 H   0  0  0  0  0  0
  -27.3794  -12.4259   17.8018 H   0  0  0  0  0  0
  -27.5411  -14.1679   19.4072 H   0  0  0  0  0  0
  -28.7322  -12.2917   21.4886 H   0  0  0  0  0  0
  -28.4345  -14.0064   21.6827 H   0  0  0  0  0  0
  -25.2721   -9.5666   22.4786 H   0  0  0  0  0  0
  -23.9988   -7.4598   22.7471 H   0  0  0  0  0  0
  -21.0813   -8.8756   19.8945 H   0  0  0  0  0  0
  -22.3664  -10.9671   19.6191 H   0  0  0  0  0  0
  -21.2005   -7.6144   23.9712 H   0  0  0  0  0  0
  -21.1465   -6.0515   25.9071 H   0  0  0  0  0  0
  -22.0611   -2.7606   23.2841 H   0  0  0  0  0  0
  -22.4028  -11.9886   22.4823 H   0  0  0  0  0  0
  -21.1052  -13.1277   22.2635 H   0  0  0  0  0  0
  -24.6664  -15.8395   20.5535 H   0  0  0  0  0  0
  -26.2908  -15.6246   20.1412 H   0  0  0  0  0  0
  -26.7159  -32.5449   23.1090 H   0  0  0  0  0  0
  -25.0048  -33.9723   25.0412 H   0  0  0  0  0  0
  -22.7108  -31.2974   21.3960 H   0  0  0  0  0  0
  -23.3745  -35.9631   23.3309 H   0  0  0  0  0  0
  -24.3578  -36.8911   22.2056 H   0  0  0  0  0  0
  -23.7239  -37.6501   23.6663 H   0  0  0  0  0  0
  -26.0769  -31.5552   20.5950 H   0  0  0  0  0  0
  -26.8375  -30.8498   21.9906 H   0  0  0  0  0  0
  -28.1048  -29.0055   21.1911 H   0  0  0  0  0  0
  -25.9985  -25.9004   19.0467 H   0  0  0  0  0  0
  -23.9849  -27.2751   19.0300 H   0  0  0  0  0  0
  -23.7471  -30.5789   19.3989 H   0  0  0  0  0  0
  -22.7524  -29.2299   19.8596 H   0  0  0  0  0  0
  -25.1287  -36.1940   25.0824 H   0  0  0  0  0  0
  -20.9961  -28.3244   24.1421 H   0  0  0  0  0  0
  -20.5649  -26.2290   23.3612 H   0  0  0  0  0  0
  -21.6634  -26.7425   22.1221 H   0  0  0  0  0  0
  -19.6906  -25.6290   21.1240 H   0  0  0  0  0  0
  -19.6677  -27.3189   20.6743 H   0  0  0  0  0  0
  -17.4190  -26.6668   21.4027 H   0  0  0  0  0  0
  -18.0324  -26.0055   22.9017 H   0  0  0  0  0  0
  -19.7934  -30.7253   24.2276 H   0  0  0  0  0  0
  -17.5015  -31.6259   24.5162 H   0  0  0  0  0  0
  -15.5350  -30.2988   23.7637 H   0  0  0  0  0  0
  -15.8668  -28.0812   22.7072 H   0  0  0  0  0  0
  -24.5896  -30.7062   25.7770 H   0  0  0  0  0  0
  -24.8917  -32.2875   26.4872 H   0  0  0  0  0  0
  -25.8057  -30.8884   27.0205 H   0  0  0  0  0  0
  -26.2890  -29.6761   24.1171 H   0  0  0  0  0  0
  -27.4058  -29.7258   25.4613 H   0  0  0  0  0  0
  -27.8739  -30.4309   23.9322 H   0  0  0  0  0  0
  -27.2654  -33.3617   26.2047 H   0  0  0  0  0  0
  -28.3852  -32.6882   25.0296 H   0  0  0  0  0  0
  -28.0718  -31.8444   26.5384 H   0  0  0  0  0  0
  -28.2599  -38.0093   24.7505 H   0  0  0  0  0  0
  -28.1064  -36.2624   24.6299 H   0  0  0  0  0  0
  -27.2296  -37.1461   25.8871 H   0  0  0  0  0  0
  -20.9350  -29.8770   21.6919 H   0  0  0  0  0  0
  -26.0171  -38.2856   24.1403 H   0  0  0  0  0  0
  -32.1510  -18.1381   20.1897 H   0  0  0  0  0  0
  -26.3653  -23.5135   21.1645 H   0  0  0  0  0  0
  -26.8308  -23.0784   19.5404 H   0  0  0  0  0  0
  -26.8138  -20.9374   20.5520 H   0  0  0  0  0  0
  -27.4147  -21.5405   22.0864 H   0  0  0  0  0  0
  -30.4520  -22.7799   20.6247 H   0  0  0  0  0  0
  -29.5504  -22.6649   19.1451 H   0  0  0  0  0  0
  -26.9501  -25.4496   22.2082 H   0  0  0  0  0  0
  -28.1953  -25.9943   23.3330 H   0  0  0  0  0  0
  -27.3047  -24.5016   23.6583 H   0  0  0  0  0  0
  -29.0370  -16.8332   17.8981 H   0  0  0  0  0  0
  -27.9151  -16.2047   19.0649 H   0  0  0  0  0  0
  -28.9036  -15.1195   18.0677 H   0  0  0  0  0  0
  -27.9116  -25.0094   18.8292 H   0  0  0  0  0  0
  -29.5446  -25.1714   19.2674 H   0  0  0  0  0  0
  -30.8243  -16.2428   18.9775 H   0  0  0  0  0  0
  1 25  1  0  0  0
  1 30  2  0  0  0
  1 82  1  0  0  0
  2  3  1  0  0  0
  2 25  1  0  0  0
  2 87  1  0  0  0
  2 88  1  0  0  0
  3  4  1  0  0  0
  3 89  1  0  0  0
  3 90  1  0  0  0
  4  5  1  0  0  0
  4 91  1  0  0  0
  4 92  1  0  0  0
  5  6  1  0  0  0
  5 26  1  0  0  0
  5 93  1  0  0  0
  6 25  1  0  0  0
  6 94  1  0  0  0
  6 95  1  0  0  0
  7  8  2  0  0  0
  7 26  1  0  0  0
  7 29  1  0  0  0
  8  9  1  0  0  0
  8 22  1  0  0  0
  9 10  1  0  0  0
  9 27  2  0  0  0
 10 11  2  0  0  0
 10 15  1  0  0  0
 11 12  1  0  0  0
 11 96  1  0  0  0
 12 13  2  0  0  0
 12 97  1  0  0  0
 13 14  1  0  0  0
 13 31  1  0  0  0
 14 15  2  0  0  0
 14 98  1  0  0  0
 15 99  1  0  0  0
 16 17  2  0  0  0
 16 21  1  0  0  0
 16 31  1  0  0  0
 17 18  1  0  0  0
 17100  1  0  0  0
 18 19  2  0  0  0
 18101  1  0  0  0
 19 20  1  0  0  0
 19 24  1  0  0  0
 20 21  2  0  0  0
 20102  1  0  0  0
 21 23  1  0  0  0
 22 28  1  0  0  0
 22 32  2  0  0  0
 26 27  1  0  0  0
 28103  1  0  0  0
 28104  1  0  0  0
 29105  1  0  0  0
 29106  1  0  0  0
 33 34  1  0  0  0
 33 66  1  0  0  0
 33 70  2  0  0  0
 34 36  1  0  0  0
 34 59  1  0  0  0
 34107  1  0  0  0
 35 44  2  0  0  0
 35 45  1  0  0  0
 35 68  1  0  0  0
 36 56  1  0  0  0
 36108  1  0  0  0
 37 39  1  0  0  0
 37 47  1  0  0  0
 37 66  1  0  0  0
 37109  1  0  0  0
 38 43  2  0  0  0
 38 46  1  0  0  0
 38 47  1  0  0  0
 39 64  1  0  0  0
 39 67  2  0  0  0
 40 52  1  0  0  0
 40 53  2  0  0  0
 40 58  1  0  0  0
 41110  1  0  0  0
 41111  1  0  0  0
 41112  1  0  0  0
 41 48  1  0  0  0
 42 43  1  0  0  0
 42 66  1  0  0  0
 42113  1  0  0  0
 42114  1  0  0  0
 43 44  1  0  0  0
 44115  1  0  0  0
 45 46  2  0  0  0
 45116  1  0  0  0
 46117  1  0  0  0
 47118  1  0  0  0
 47119  1  0  0  0
 48 56  1  0  0  0
 48 65  1  0  0  0
 48120  1  0  0  0
 49 50  1  0  0  0
 49 53  1  0  0  0
 49 64  1  0  0  0
 49121  1  0  0  0
 50 51  1  0  0  0
 50122  1  0  0  0
 50123  1  0  0  0
 51 52  1  0  0  0
 51124  1  0  0  0
 51125  1  0  0  0
 52126  1  0  0  0
 52127  1  0  0  0
 53 54  1  0  0  0
 54 55  2  0  0  0
 54128  1  0  0  0
 55 57  1  0  0  0
 55129  1  0  0  0
 56 69  2  0  0  0
 57 58  2  0  0  0
 57130  1  0  0  0
 58131  1  0  0  0
 59 60  1  0  0  0
 59 61  1  0  0  0
 59 62  1  0  0  0
 60132  1  0  0  0
 60133  1  0  0  0
 60134  1  0  0  0
 61135  1  0  0  0
 61136  1  0  0  0
 61137  1  0  0  0
 62138  1  0  0  0
 62139  1  0  0  0
 62140  1  0  0  0
 63 65  1  0  0  0
 63141  1  0  0  0
 63142  1  0  0  0
 63143  1  0  0  0
 64144  1  0  0  0
 65145  1  0  0  0
 68 81  1  0  0  0
 71 72  2  0  0  0
 71 83  1  0  0  0
 71146  1  0  0  0
 72 82  1  0  0  0
 72 86  1  0  0  0
 73 83  2  0  0  0
 73 84  1  0  0  0
 73 86  1  0  0  0
 74 79  1  0  0  0
 74 85  2  0  0  0
 74 78  1  0  0  0
 75 76  1  0  0  0
 75 78  1  0  0  0
 75147  1  0  0  0
 75148  1  0  0  0
 76 84  1  0  0  0
 76149  1  0  0  0
 76150  1  0  0  0
 77 78  1  0  0  0
 77 84  1  0  0  0
 77151  1  0  0  0
 77152  1  0  0  0
 78 81  1  0  0  0
 79153  1  0  0  0
 79154  1  0  0  0
 79155  1  0  0  0
 80156  1  0  0  0
 80157  1  0  0  0
 80158  1  0  0  0
 80 82  1  0  0  0
 81159  1  0  0  0
 81160  1  0  0  0
 82161  1  0  0  0
M  ISO  4   1 100  68 101  81 101  82 100
M  END
> <chiral flag>
0

> <version>
0

> <s_m_source_file>
/data/baiqing/PycharmProjects/Reinvent-master-3.2/result/LINK_invent/BTK/process_docking_weight1_custom_product_contain_oxygen_bond_distance_aromatic_linkinvent_7_9_3/rearranged_h_0143.sdf

> <i_m_source_file_index>
52

> <r_mmod_Potential_Energy-OPLS-2005>
303.756927490234

> <r_mmod_Stretch_Energy-OPLS-2005>
88.6119384765625

> <r_mmod_Bend_Energy-OPLS-2005>
244.489105224609

> <r_mmod_Torsional_Energy-OPLS-2005>
264.060852050781

> <r_mmod_Improper_Torsional_Energy-OPLS-2005>
17.4697418212891

> <r_mmod_Van_der_Waal_Energy-OPLS-2005>
122.891044616699

> <r_mmod_Electrostatic_Energy-OPLS-2005>
-293.927368164062

> <r_mmod_Solvation_Energy-OPLS-2005>
-230.361938476562

> <b_mmod_Minimization_Converged-OPLS-2005>
0

> <r_mmod_RMS_Derivative-OPLS-2005>
0.879457771778107

$$$$
52
                    3D
 Structure written by MMmdl.
164172  0  0  1  0            999 V2000
  -30.7338  -14.4482   20.5583 C   0  0  0  0  0  0
  -30.4169  -12.2883   19.4091 C   0  0  0  0  0  0
  -29.4776  -12.4328   18.1937 C   0  0  0  0  0  0
  -28.0008  -12.3188   18.6235 C   0  0  0  0  0  0
  -27.6534  -13.1891   19.8601 C   0  0  2  0  0  0
  -28.7065  -13.0185   20.9760 C   0  0  0  0  0  0
  -25.2608  -13.8150   20.5692 C   0  0  0  0  0  0
  -24.1839  -13.0453   20.9215 C   0  0  0  0  0  0
  -24.6378  -11.6912   20.8814 C   0  0  0  0  0  0
  -23.9052  -10.4294   21.0467 C   0  0  0  0  0  0
  -24.3578   -9.4229   21.9282 C   0  0  0  0  0  0
  -23.6265   -8.2255   22.0802 C   0  0  0  0  0  0
  -22.4286   -8.0268   21.3539 C   0  0  0  0  0  0
  -21.9949   -9.0230   20.4610 C   0  0  0  0  0  0
  -22.7275  -10.2116   20.3045 C   0  0  0  0  0  0
  -21.6860   -6.0723   22.5269 C   0  0  0  0  0  0
  -21.4032   -6.5618   23.8209 C   0  0  0  0  0  0
  -21.3655   -5.6764   24.9169 C   0  0  0  0  0  0
  -21.6032   -4.3026   24.7223 C   0  0  0  0  0  0
  -21.8816   -3.8126   23.4344 C   0  0  0  0  0  0
  -21.9198   -4.6947   22.3402 C   0  0  0  0  0  0
  -22.7861  -13.5269   21.1829 C   0  0  0  0  0  0
  -22.1670   -4.2135   21.0986 F   0  0  0  0  0  0
  -21.5610   -3.4515   25.7735 F   0  0  0  0  0  0
  -30.0258  -13.3008   20.3945 N   0  0  0  0  0  0
  -26.3000  -12.9252   20.3373 N   0  0  0  0  0  0
  -25.9294  -11.6443   20.5864 N   0  0  0  0  0  0
  -22.0518  -12.8246   22.0397 N   0  0  0  0  0  0
  -25.4363  -15.1844   20.4050 N   0  0  0  0  0  0
  -31.9082  -14.5813   20.2125 O   0  0  0  0  0  0
  -21.6653   -6.8856   21.4220 O   0  0  0  0  0  0
  -22.3531  -14.5566   20.6667 O   0  0  0  0  0  0
  -24.6118  -31.8696   23.2140 C   0  0  0  0  0  0
  -25.9029  -32.4816   23.8426 C   0  0  1  0  0  0
  -27.2317  -27.4579   20.0783 C   0  0  0  0  0  0
  -25.5893  -33.8618   24.2366 N   0  0  0  0  0  0
  -23.3965  -30.4968   21.5554 C   0  0  2  0  0  0
  -24.8371  -28.9662   20.1189 C   0  0  0  0  0  0
  -22.7382  -29.4689   22.5011 C   0  0  0  0  0  0
  -18.0262  -28.1358   22.8489 C   0  0  0  0  0  0
  -24.1499  -36.7329   23.2639 C   0  0  0  0  0  0
  -25.9246  -30.8422   21.3632 C   0  0  0  0  0  0
  -25.9984  -29.4791   20.7085 C   0  0  0  0  0  0
  -27.1939  -28.7307   20.6887 C   0  0  0  0  0  0
  -26.0444  -26.9519   19.4936 C   0  0  0  0  0  0
  -24.8530  -27.6993   19.5150 C   0  0  0  0  0  0
  -23.6013  -29.8320   20.1693 C   0  0  0  0  0  0
  -25.4106  -36.3117   24.0352 C   0  0  1  0  0  0
  -20.5847  -28.3653   23.1322 C   0  0  2  0  0  0
  -20.6771  -26.9398   22.5421 C   0  0  0  0  0  0
  -19.5763  -26.6385   21.5206 C   0  0  0  0  0  0
  -18.1927  -26.7902   22.1613 C   0  0  0  0  0  0
  -19.1507  -28.8816   23.2897 C   0  0  0  0  0  0
  -18.9443  -30.1407   23.8925 C   0  0  0  0  0  0
  -17.6458  -30.6574   24.0564 C   0  0  0  0  0  0
  -25.9031  -34.9470   23.5161 C   0  0  0  0  0  0
  -16.5345  -29.9087   23.6315 C   0  0  0  0  0  0
  -16.7250  -28.6490   23.0351 C   0  0  0  0  0  0
  -26.4472  -31.6559   25.0719 C   0  0  0  0  0  0
  -25.3769  -31.3658   26.1494 C   0  0  0  0  0  0
  -27.0301  -30.3011   24.6048 C   0  0  0  0  0  0
  -27.6055  -32.4262   25.7461 C   0  0  0  0  0  0
  -27.5588  -37.1820   24.8463 C   0  0  0  0  0  0
  -21.4115  -29.3039   22.3745 N   0  0  0  0  0  0
  -26.4301  -37.3790   23.9403 N   0  0  0  0  0  0
  -24.6629  -31.0827   22.1029 N   0  0  0  0  0  0
  -23.4162  -28.8232   23.3041 O   0  0  0  0  0  0
  -28.4310  -26.7740   20.0811 O   0  0  0  0  0  0
  -26.5594  -34.8911   22.4724 O   0  0  0  0  0  0
  -23.5314  -32.1441   23.7544 O   0  0  0  0  0  0
  -27.7005  -17.7337   18.0361 C   0  0  0  0  0  0
  -29.4179  -16.0766   18.5025 C   0  0  0  0  0  0
  -28.3619  -17.2686   20.3434 C   0  0  0  0  0  0
  -28.6202  -16.7740   17.5774 C   0  0  0  0  0  0
  -27.5979  -18.0142   19.4129 C   0  0  0  0  0  0
  -29.2651  -16.2797   19.8972 C   0  0  0  0  0  0
  -26.9057  -19.9891   20.7182 C   0  0  0  0  0  0
  -28.7502  -16.4963   16.0925 C   0  0  0  0  0  0
  -25.8190  -21.0655   20.8247 C   0  0  0  0  0  0
  -26.3328  -22.4464   21.2887 C   0  0  0  0  0  0
  -27.2282  -23.1820   20.2648 C   0  0  0  0  0  0
  -28.4516  -25.3889   19.7243 C   0  0  0  0  0  0
  -27.7875  -24.5082   20.8146 C   0  0  2  0  0  0
  -26.6917  -19.0282   19.8068 N   0  0  0  0  0  0
  -30.0174  -15.5413   20.8584 N   0  0  0  0  0  0
  -27.9034  -20.0365   21.4428 O   0  0  0  0  0  0
  -28.7506  -24.1965   21.8076 O   0  0  0  0  0  0
  -31.4578  -12.3861   19.0952 H   0  0  0  0  0  0
  -30.3260  -11.2921   19.8448 H   0  0  0  0  0  0
  -29.7063  -11.6611   17.4587 H   0  0  0  0  0  0
  -29.6400  -13.3776   17.6795 H   0  0  0  0  0  0
  -27.8117  -11.2693   18.8542 H   0  0  0  0  0  0
  -27.3429  -12.5712   17.7902 H   0  0  0  0  0  0
  -27.6705  -14.2206   19.5223 H   0  0  0  0  0  0
  -28.6904  -12.0019   21.3720 H   0  0  0  0  0  0
  -28.4856  -13.6759   21.8198 H   0  0  0  0  0  0
  -25.2652   -9.5736   22.4971 H   0  0  0  0  0  0
  -23.9933   -7.4649   22.7550 H   0  0  0  0  0  0
  -21.0906   -8.8736   19.8867 H   0  0  0  0  0  0
  -22.3779  -10.9640   19.6134 H   0  0  0  0  0  0
  -21.2050   -7.6129   23.9711 H   0  0  0  0  0  0
  -21.1470   -6.0503   25.9060 H   0  0  0  0  0  0
  -22.0608   -2.7589   23.2857 H   0  0  0  0  0  0
  -22.4193  -11.9954   22.4823 H   0  0  0  0  0  0
  -21.1156  -13.1290   22.2652 H   0  0  0  0  0  0
  -24.6822  -15.8500   20.5250 H   0  0  0  0  0  0
  -26.3000  -15.6133   20.0951 H   0  0  0  0  0  0
  -26.7094  -32.5532   23.1185 H   0  0  0  0  0  0
  -25.0038  -33.9789   25.0509 H   0  0  0  0  0  0
  -22.6838  -31.3128   21.4198 H   0  0  0  0  0  0
  -23.3744  -35.9683   23.3300 H   0  0  0  0  0  0
  -24.3624  -36.8932   22.2061 H   0  0  0  0  0  0
  -23.7279  -37.6548   23.6643 H   0  0  0  0  0  0
  -26.0390  -31.6091   20.5968 H   0  0  0  0  0  0
  -26.8140  -30.8903   21.9813 H   0  0  0  0  0  0
  -28.0908  -29.1276   21.1432 H   0  0  0  0  0  0
  -26.0066  -25.9844   19.0177 H   0  0  0  0  0  0
  -23.9555  -27.2958   19.0654 H   0  0  0  0  0  0
  -23.7086  -30.6085   19.4114 H   0  0  0  0  0  0
  -22.7249  -29.2519   19.8740 H   0  0  0  0  0  0
  -25.1283  -36.2002   25.0848 H   0  0  0  0  0  0
  -20.9917  -28.3231   24.1452 H   0  0  0  0  0  0
  -20.5683  -26.2268   23.3604 H   0  0  0  0  0  0
  -21.6644  -26.7475   22.1218 H   0  0  0  0  0  0
  -19.6951  -25.6309   21.1206 H   0  0  0  0  0  0
  -19.6696  -27.3222   20.6752 H   0  0  0  0  0  0
  -17.4208  -26.6616   21.4007 H   0  0  0  0  0  0
  -18.0344  -26.0026   22.8994 H   0  0  0  0  0  0
  -19.7921  -30.7183   24.2332 H   0  0  0  0  0  0
  -17.5029  -31.6264   24.5154 H   0  0  0  0  0  0
  -15.5349  -30.3030   23.7599 H   0  0  0  0  0  0
  -15.8634  -28.0818   22.7085 H   0  0  0  0  0  0
  -24.5944  -30.6975   25.7875 H   0  0  0  0  0  0
  -24.8953  -32.2810   26.4942 H   0  0  0  0  0  0
  -25.8154  -30.8859   27.0254 H   0  0  0  0  0  0
  -26.2856  -29.6777   24.1079 H   0  0  0  0  0  0
  -27.4093  -29.7197   25.4461 H   0  0  0  0  0  0
  -27.8673  -30.4347   23.9192 H   0  0  0  0  0  0
  -27.2685  -33.3549   26.2069 H   0  0  0  0  0  0
  -28.3835  -32.6831   25.0262 H   0  0  0  0  0  0
  -28.0758  -31.8373   26.5340 H   0  0  0  0  0  0
  -28.2604  -38.0116   24.7495 H   0  0  0  0  0  0
  -28.1075  -36.2645   24.6291 H   0  0  0  0  0  0
  -27.2310  -37.1483   25.8866 H   0  0  0  0  0  0
  -20.9259  -29.8743   21.6968 H   0  0  0  0  0  0
  -26.0189  -38.2876   24.1365 H   0  0  0  0  0  0
  -27.0981  -18.2793   17.3213 H   0  0  0  0  0  0
  -30.1504  -15.3827   18.1200 H   0  0  0  0  0  0
  -28.2533  -17.4545   21.4030 H   0  0  0  0  0  0
  -27.8979  -15.9155   15.7388 H   0  0  0  0  0  0
  -29.6589  -15.9385   15.8657 H   0  0  0  0  0  0
  -28.7843  -17.4277   15.5283 H   0  0  0  0  0  0
  -25.0764  -20.7031   21.5386 H   0  0  0  0  0  0
  -25.3045  -21.1674   19.8670 H   0  0  0  0  0  0
  -26.8548  -22.3292   22.2384 H   0  0  0  0  0  0
  -25.4732  -23.0792   21.5157 H   0  0  0  0  0  0
  -26.6250  -23.3875   19.3789 H   0  0  0  0  0  0
  -28.0472  -22.5450   19.9261 H   0  0  0  0  0  0
  -27.9845  -25.2531   18.7495 H   0  0  0  0  0  0
  -29.4877  -25.0865   19.5703 H   0  0  0  0  0  0
  -26.9696  -25.0547   21.2851 H   0  0  0  0  0  0
  -25.8672  -19.1413   19.2329 H   0  0  0  0  0  0
  -30.4627  -16.1343   21.5429 H   0  0  0  0  0  0
  -28.3188  -23.6624   22.4660 H   0  0  0  0  0  0
  1 25  1  0  0  0
  1 30  2  0  0  0
  1 85  1  0  0  0
  2  3  1  0  0  0
  2 25  1  0  0  0
  2 88  1  0  0  0
  2 89  1  0  0  0
  3  4  1  0  0  0
  3 90  1  0  0  0
  3 91  1  0  0  0
  4  5  1  0  0  0
  4 92  1  0  0  0
  4 93  1  0  0  0
  5  6  1  0  0  0
  5 26  1  0  0  0
  5 94  1  0  0  0
  6 25  1  0  0  0
  6 95  1  0  0  0
  6 96  1  0  0  0
  7  8  2  0  0  0
  7 26  1  0  0  0
  7 29  1  0  0  0
  8  9  1  0  0  0
  8 22  1  0  0  0
  9 10  1  0  0  0
  9 27  2  0  0  0
 10 11  2  0  0  0
 10 15  1  0  0  0
 11 12  1  0  0  0
 11 97  1  0  0  0
 12 13  2  0  0  0
 12 98  1  0  0  0
 13 14  1  0  0  0
 13 31  1  0  0  0
 14 15  2  0  0  0
 14 99  1  0  0  0
 15100  1  0  0  0
 16 17  2  0  0  0
 16 21  1  0  0  0
 16 31  1  0  0  0
 17 18  1  0  0  0
 17101  1  0  0  0
 18 19  2  0  0  0
 18102  1  0  0  0
 19 20  1  0  0  0
 19 24  1  0  0  0
 20 21  2  0  0  0
 20103  1  0  0  0
 21 23  1  0  0  0
 22 28  1  0  0  0
 22 32  2  0  0  0
 26 27  1  0  0  0
 28104  1  0  0  0
 28105  1  0  0  0
 29106  1  0  0  0
 29107  1  0  0  0
 33 34  1  0  0  0
 33 66  1  0  0  0
 33 70  2  0  0  0
 34 36  1  0  0  0
 34 59  1  0  0  0
 34108  1  0  0  0
 35 44  2  0  0  0
 35 45  1  0  0  0
 35 68  1  0  0  0
 36 56  1  0  0  0
 36109  1  0  0  0
 37 39  1  0  0  0
 37 47  1  0  0  0
 37 66  1  0  0  0
 37110  1  0  0  0
 38 43  2  0  0  0
 38 46  1  0  0  0
 38 47  1  0  0  0
 39 64  1  0  0  0
 39 67  2  0  0  0
 40 52  1  0  0  0
 40 53  2  0  0  0
 40 58  1  0  0  0
 41111  1  0  0  0
 41112  1  0  0  0
 41113  1  0  0  0
 41 48  1  0  0  0
 42 43  1  0  0  0
 42 66  1  0  0  0
 42114  1  0  0  0
 42115  1  0  0  0
 43 44  1  0  0  0
 44116  1  0  0  0
 45 46  2  0  0  0
 45117  1  0  0  0
 46118  1  0  0  0
 47119  1  0  0  0
 47120  1  0  0  0
 48 56  1  0  0  0
 48 65  1  0  0  0
 48121  1  0  0  0
 49 50  1  0  0  0
 49 53  1  0  0  0
 49 64  1  0  0  0
 49122  1  0  0  0
 50 51  1  0  0  0
 50123  1  0  0  0
 50124  1  0  0  0
 51 52  1  0  0  0
 51125  1  0  0  0
 51126  1  0  0  0
 52127  1  0  0  0
 52128  1  0  0  0
 53 54  1  0  0  0
 54 55  2  0  0  0
 54129  1  0  0  0
 55 57  1  0  0  0
 55130  1  0  0  0
 56 69  2  0  0  0
 57 58  2  0  0  0
 57131  1  0  0  0
 58132  1  0  0  0
 59 60  1  0  0  0
 59 61  1  0  0  0
 59 62  1  0  0  0
 60133  1  0  0  0
 60134  1  0  0  0
 60135  1  0  0  0
 61136  1  0  0  0
 61137  1  0  0  0
 61138  1  0  0  0
 62139  1  0  0  0
 62140  1  0  0  0
 62141  1  0  0  0
 63 65  1  0  0  0
 63142  1  0  0  0
 63143  1  0  0  0
 63144  1  0  0  0
 64145  1  0  0  0
 65146  1  0  0  0
 68 82  1  0  0  0
 71 74  2  0  0  0
 71 75  1  0  0  0
 71147  1  0  0  0
 72 74  1  0  0  0
 72 76  2  0  0  0
 72148  1  0  0  0
 73 75  2  0  0  0
 73 76  1  0  0  0
 73149  1  0  0  0
 74 78  1  0  0  0
 75 84  1  0  0  0
 76 85  1  0  0  0
 77 79  1  0  0  0
 77 84  1  0  0  0
 77 86  2  0  0  0
 78150  1  0  0  0
 78151  1  0  0  0
 78152  1  0  0  0
 79 80  1  0  0  0
 79153  1  0  0  0
 79154  1  0  0  0
 80 81  1  0  0  0
 80155  1  0  0  0
 80156  1  0  0  0
 81 83  1  0  0  0
 81157  1  0  0  0
 81158  1  0  0  0
 82 83  1  0  0  0
 82159  1  0  0  0
 82160  1  0  0  0
 83 87  1  0  0  0
 83161  1  0  0  0
 84162  1  0  0  0
 85163  1  0  0  0
 87164  1  0  0  0
M  ISO  4   1 100  68 101  82 101  85 100
M  END
> <chiral flag>
0

> <version>
0

> <s_m_source_file>
/data/baiqing/PycharmProjects/Reinvent-master-3.2/result/LINK_invent/BTK/process_docking_weight1_custom_product_contain_oxygen_bond_distance_aromatic_linkinvent_7_9_3/rearranged_h_0143.sdf

> <i_m_source_file_index>
53

> <r_mmod_Potential_Energy-OPLS-2005>
-32.6302490234375

> <r_mmod_Stretch_Energy-OPLS-2005>
33.2662048339844

> <r_mmod_Bend_Energy-OPLS-2005>
100.767303466797

> <r_mmod_Torsional_Energy-OPLS-2005>
270.309478759766

> <r_mmod_Improper_Torsional_Energy-OPLS-2005>
9.57343482971191

> <r_mmod_Van_der_Waal_Energy-OPLS-2005>
154.069519042969

> <r_mmod_Electrostatic_Energy-OPLS-2005>
-378.951324462891

> <r_mmod_Solvation_Energy-OPLS-2005>
-239.5556640625

> <b_mmod_Minimization_Converged-OPLS-2005>
0

> <r_mmod_RMS_Derivative-OPLS-2005>
2.80636239051819

$$$$
53
                    3D
 Structure written by MMmdl.
171180  0  0  1  0            999 V2000
  -30.6645  -14.4587   20.5750 C   0  0  0  0  0  0
  -30.4339  -12.2985   19.4089 C   0  0  0  0  0  0
  -29.5000  -12.5100   18.1978 C   0  0  0  0  0  0
  -28.0181  -12.3670   18.6064 C   0  0  0  0  0  0
  -27.6630  -13.1927   19.8715 C   0  0  2  0  0  0
  -28.7013  -12.9396   20.9862 C   0  0  0  0  0  0
  -25.2629  -13.8137   20.5655 C   0  0  0  0  0  0
  -24.1847  -13.0435   20.9111 C   0  0  0  0  0  0
  -24.6360  -11.6893   20.8626 C   0  0  0  0  0  0
  -23.9008  -10.4296   21.0346 C   0  0  0  0  0  0
  -24.3565   -9.4227   21.9135 C   0  0  0  0  0  0
  -23.6253   -8.2255   22.0746 C   0  0  0  0  0  0
  -22.4242   -8.0275   21.3544 C   0  0  0  0  0  0
  -21.9844   -9.0222   20.4637 C   0  0  0  0  0  0
  -22.7157  -10.2114   20.3017 C   0  0  0  0  0  0
  -21.6850   -6.0720   22.5271 C   0  0  0  0  0  0
  -21.4028   -6.5616   23.8206 C   0  0  0  0  0  0
  -21.3657   -5.6782   24.9159 C   0  0  0  0  0  0
  -21.6049   -4.3041   24.7228 C   0  0  0  0  0  0
  -21.8817   -3.8126   23.4348 C   0  0  0  0  0  0
  -21.9201   -4.6943   22.3395 C   0  0  0  0  0  0
  -22.7886  -13.5255   21.1854 C   0  0  0  0  0  0
  -22.1662   -4.2117   21.0977 F   0  0  0  0  0  0
  -21.5618   -3.4532   25.7735 F   0  0  0  0  0  0
  -30.0374  -13.2593   20.4493 N   0  0  0  0  0  0
  -26.3011  -12.9262   20.3284 N   0  0  0  0  0  0
  -25.9265  -11.6438   20.5638 N   0  0  0  0  0  0
  -22.0544  -12.8195   22.0395 N   0  0  0  0  0  0
  -25.4449  -15.1855   20.4180 N   0  0  0  0  0  0
  -31.7731  -14.6967   20.0827 O   0  0  0  0  0  0
  -21.6634   -6.8860   21.4241 O   0  0  0  0  0  0
  -22.3561  -14.5592   20.6773 O   0  0  0  0  0  0
  -24.6161  -31.8675   23.2090 C   0  0  0  0  0  0
  -25.9053  -32.4820   23.8382 C   0  0  1  0  0  0
  -27.2336  -27.4133   20.0718 C   0  0  0  0  0  0
  -25.5902  -33.8615   24.2316 N   0  0  0  0  0  0
  -23.4053  -30.4931   21.5492 C   0  0  2  0  0  0
  -24.8470  -28.9549   20.1188 C   0  0  0  0  0  0
  -22.7408  -29.4662   22.4955 C   0  0  0  0  0  0
  -18.0271  -28.1377   22.8491 C   0  0  0  0  0  0
  -24.1491  -36.7326   23.2635 C   0  0  0  0  0  0
  -25.9386  -30.8213   21.3677 C   0  0  0  0  0  0
  -26.0116  -29.4541   20.7142 C   0  0  0  0  0  0
  -27.2026  -28.6885   20.6920 C   0  0  0  0  0  0
  -26.0387  -26.9316   19.4844 C   0  0  0  0  0  0
  -24.8571  -27.6924   19.5076 C   0  0  0  0  0  0
  -23.6154  -29.8304   20.1640 C   0  0  0  0  0  0
  -25.4110  -36.3109   24.0329 C   0  0  1  0  0  0
  -20.5862  -28.3672   23.1303 C   0  0  2  0  0  0
  -20.6770  -26.9406   22.5411 C   0  0  0  0  0  0
  -19.5751  -26.6387   21.5209 C   0  0  0  0  0  0
  -18.1925  -26.7926   22.1623 C   0  0  0  0  0  0
  -19.1521  -28.8838   23.2901 C   0  0  0  0  0  0
  -18.9456  -30.1436   23.8918 C   0  0  0  0  0  0
  -17.6459  -30.6586   24.0567 C   0  0  0  0  0  0
  -25.9032  -34.9470   23.5121 C   0  0  0  0  0  0
  -16.5348  -29.9090   23.6327 C   0  0  0  0  0  0
  -16.7263  -28.6502   23.0346 C   0  0  0  0  0  0
  -26.4475  -31.6602   25.0711 C   0  0  0  0  0  0
  -25.3738  -31.3714   26.1457 C   0  0  0  0  0  0
  -27.0310  -30.3042   24.6106 C   0  0  0  0  0  0
  -27.6047  -32.4316   25.7482 C   0  0  0  0  0  0
  -27.5586  -37.1819   24.8460 C   0  0  0  0  0  0
  -21.4127  -29.3045   22.3703 N   0  0  0  0  0  0
  -26.4302  -37.3795   23.9399 N   0  0  0  0  0  0
  -24.6724  -31.0740   22.1005 N   0  0  0  0  0  0
  -23.4168  -28.8181   23.2994 O   0  0  0  0  0  0
  -28.4275  -26.7090   20.0538 O   0  0  0  0  0  0
  -26.5598  -34.8930   22.4681 O   0  0  0  0  0  0
  -23.5350  -32.1430   23.7474 O   0  0  0  0  0  0
  -29.0213  -17.0506   19.7146 C   0  0  0  0  0  0
  -29.6318  -18.8324   20.8717 C   0  0  0  0  0  0
  -28.9057  -18.4790   19.7578 C   0  0  0  0  0  0
  -29.7781  -16.6747   20.7883 C   0  0  0  0  0  0
  -28.7321  -24.3245   20.6276 C   0  0  0  0  0  0
  -28.2554  -19.0819   16.2978 C   0  0  0  0  0  0
  -27.3517  -17.9921   16.8558 C   0  0  0  0  0  0
  -28.9982  -19.6446   17.5151 C   0  0  0  0  0  0
  -26.9254  -18.5475   18.2150 C   0  0  0  0  0  0
  -28.1294  -19.3706   18.7733 C   0  0  0  0  0  0
  -27.9899  -22.4139   22.0994 C   0  0  0  0  0  0
  -26.4257  -23.2953   20.3581 C   0  0  0  0  0  0
  -28.5002  -25.3682   19.5097 C   0  0  0  0  0  0
  -27.5646  -20.6797   19.4330 C   0  0  0  0  0  0
  -28.4912  -21.9138   19.6774 C   0  0  0  0  0  0
  -27.9138  -22.9893   20.6630 C   0  0  0  0  0  0
  -29.9419  -15.3961   21.2101 N   0  0  0  0  0  0
  -29.6069  -24.5417   21.4730 O   0  0  0  0  0  0
  -30.1495  -17.7465   21.5262 O   0  0  0  0  0  0
  -31.4776  -12.4155   19.1061 H   0  0  0  0  0  0
  -30.3459  -11.2799   19.7887 H   0  0  0  0  0  0
  -29.7430  -11.7941   17.4101 H   0  0  0  0  0  0
  -29.6714  -13.5022   17.7742 H   0  0  0  0  0  0
  -27.8238  -11.3091   18.7877 H   0  0  0  0  0  0
  -27.3733  -12.6560   17.7741 H   0  0  0  0  0  0
  -27.7127  -14.2439   19.5871 H   0  0  0  0  0  0
  -28.6756  -11.8914   21.2873 H   0  0  0  0  0  0
  -28.4511  -13.4956   21.8900 H   0  0  0  0  0  0
  -25.2708   -9.5751   22.4706 H   0  0  0  0  0  0
  -23.9990   -7.4662   22.7479 H   0  0  0  0  0  0
  -21.0778   -8.8704   19.8945 H   0  0  0  0  0  0
  -22.3561  -10.9645   19.6129 H   0  0  0  0  0  0
  -21.2016   -7.6130   23.9714 H   0  0  0  0  0  0
  -21.1490   -6.0492   25.9072 H   0  0  0  0  0  0
  -22.0605   -2.7593   23.2841 H   0  0  0  0  0  0
  -22.4157  -11.9790   22.4645 H   0  0  0  0  0  0
  -21.1202  -13.1244   22.2724 H   0  0  0  0  0  0
  -24.6941  -15.8527   20.5607 H   0  0  0  0  0  0
  -26.3181  -15.6192   20.1506 H   0  0  0  0  0  0
  -26.7119  -32.5523   23.1137 H   0  0  0  0  0  0
  -25.0055  -33.9792   25.0463 H   0  0  0  0  0  0
  -22.6956  -31.3112   21.4103 H   0  0  0  0  0  0
  -23.3746  -35.9672   23.3303 H   0  0  0  0  0  0
  -24.3588  -36.8938   22.2054 H   0  0  0  0  0  0
  -23.7265  -37.6536   23.6652 H   0  0  0  0  0  0
  -26.0574  -31.5890   20.6012 H   0  0  0  0  0  0
  -26.8228  -30.8719   21.9906 H   0  0  0  0  0  0
  -28.1017  -29.0758   21.1513 H   0  0  0  0  0  0
  -25.9720  -25.9789   18.9859 H   0  0  0  0  0  0
  -23.9632  -27.2979   19.0428 H   0  0  0  0  0  0
  -23.7377  -30.6080   19.4095 H   0  0  0  0  0  0
  -22.7364  -29.2603   19.8581 H   0  0  0  0  0  0
  -25.1295  -36.1975   25.0829 H   0  0  0  0  0  0
  -20.9975  -28.3253   24.1414 H   0  0  0  0  0  0
  -20.5678  -26.2279   23.3595 H   0  0  0  0  0  0
  -21.6640  -26.7451   22.1200 H   0  0  0  0  0  0
  -19.6916  -25.6298   21.1232 H   0  0  0  0  0  0
  -19.6697  -27.3199   20.6738 H   0  0  0  0  0  0
  -17.4192  -26.6661   21.4023 H   0  0  0  0  0  0
  -18.0335  -26.0061   22.9017 H   0  0  0  0  0  0
  -19.7930  -30.7243   24.2301 H   0  0  0  0  0  0
  -17.5017  -31.6272   24.5161 H   0  0  0  0  0  0
  -15.5348  -30.3006   23.7639 H   0  0  0  0  0  0
  -15.8657  -28.0838   22.7052 H   0  0  0  0  0  0
  -24.5900  -30.7077   25.7790 H   0  0  0  0  0  0
  -24.8949  -32.2879   26.4920 H   0  0  0  0  0  0
  -25.8089  -30.8867   27.0207 H   0  0  0  0  0  0
  -26.2862  -29.6794   24.1165 H   0  0  0  0  0  0
  -27.4082  -29.7290   25.4572 H   0  0  0  0  0  0
  -27.8698  -30.4353   23.9261 H   0  0  0  0  0  0
  -27.2660  -33.3594   26.2111 H   0  0  0  0  0  0
  -28.3845  -32.6911   25.0305 H   0  0  0  0  0  0
  -28.0733  -31.8403   26.5367 H   0  0  0  0  0  0
  -28.2599  -38.0116   24.7496 H   0  0  0  0  0  0
  -28.1081  -36.2646   24.6297 H   0  0  0  0  0  0
  -27.2296  -37.1483   25.8860 H   0  0  0  0  0  0
  -20.9258  -29.8806   21.6976 H   0  0  0  0  0  0
  -26.0185  -38.2873   24.1397 H   0  0  0  0  0  0
  -28.5696  -16.3781   19.0008 H   0  0  0  0  0  0
  -29.8504  -19.7760   21.3472 H   0  0  0  0  0  0
  -27.6449  -19.8672   15.8493 H   0  0  0  0  0  0
  -28.9297  -18.7027   15.5261 H   0  0  0  0  0  0
  -26.5021  -17.7776   16.2071 H   0  0  0  0  0  0
  -27.9114  -17.0626   16.9663 H   0  0  0  0  0  0
  -29.2224  -20.6974   17.3629 H   0  0  0  0  0  0
  -29.9649  -19.1447   17.6056 H   0  0  0  0  0  0
  -26.0571  -19.1832   18.0304 H   0  0  0  0  0  0
  -26.5632  -17.7754   18.8968 H   0  0  0  0  0  0
  -27.7111  -23.1616   22.8432 H   0  0  0  0  0  0
  -28.9945  -22.0613   22.3400 H   0  0  0  0  0  0
  -27.3148  -21.5708   22.2384 H   0  0  0  0  0  0
  -26.0705  -24.1659   20.9154 H   0  0  0  0  0  0
  -25.7785  -22.4625   20.6385 H   0  0  0  0  0  0
  -26.2512  -23.4783   19.2968 H   0  0  0  0  0  0
  -27.6910  -25.0819   18.8465 H   0  0  0  0  0  0
  -29.3860  -25.3435   18.8739 H   0  0  0  0  0  0
  -27.0687  -20.3893   20.3581 H   0  0  0  0  0  0
  -26.7680  -21.0614   18.7942 H   0  0  0  0  0  0
  -28.7120  -22.3896   18.7200 H   0  0  0  0  0  0
  -29.4536  -21.5676   20.0515 H   0  0  0  0  0  0
  -29.1241  -15.0078   21.6550 H   0  0  0  0  0  0
  1 25  1  0  0  0
  1 30  2  0  0  0
  1 87  1  0  0  0
  2  3  1  0  0  0
  2 25  1  0  0  0
  2 90  1  0  0  0
  2 91  1  0  0  0
  3  4  1  0  0  0
  3 92  1  0  0  0
  3 93  1  0  0  0
  4  5  1  0  0  0
  4 94  1  0  0  0
  4 95  1  0  0  0
  5  6  1  0  0  0
  5 26  1  0  0  0
  5 96  1  0  0  0
  6 25  1  0  0  0
  6 97  1  0  0  0
  6 98  1  0  0  0
  7  8  2  0  0  0
  7 26  1  0  0  0
  7 29  1  0  0  0
  8  9  1  0  0  0
  8 22  1  0  0  0
  9 10  1  0  0  0
  9 27  2  0  0  0
 10 11  2  0  0  0
 10 15  1  0  0  0
 11 12  1  0  0  0
 11 99  1  0  0  0
 12 13  2  0  0  0
 12100  1  0  0  0
 13 14  1  0  0  0
 13 31  1  0  0  0
 14 15  2  0  0  0
 14101  1  0  0  0
 15102  1  0  0  0
 16 17  2  0  0  0
 16 21  1  0  0  0
 16 31  1  0  0  0
 17 18  1  0  0  0
 17103  1  0  0  0
 18 19  2  0  0  0
 18104  1  0  0  0
 19 20  1  0  0  0
 19 24  1  0  0  0
 20 21  2  0  0  0
 20105  1  0  0  0
 21 23  1  0  0  0
 22 28  1  0  0  0
 22 32  2  0  0  0
 26 27  1  0  0  0
 28106  1  0  0  0
 28107  1  0  0  0
 29108  1  0  0  0
 29109  1  0  0  0
 33 34  1  0  0  0
 33 66  1  0  0  0
 33 70  2  0  0  0
 34 36  1  0  0  0
 34 59  1  0  0  0
 34110  1  0  0  0
 35 44  2  0  0  0
 35 45  1  0  0  0
 35 68  1  0  0  0
 36 56  1  0  0  0
 36111  1  0  0  0
 37 39  1  0  0  0
 37 47  1  0  0  0
 37 66  1  0  0  0
 37112  1  0  0  0
 38 43  2  0  0  0
 38 46  1  0  0  0
 38 47  1  0  0  0
 39 64  1  0  0  0
 39 67  2  0  0  0
 40 52  1  0  0  0
 40 53  2  0  0  0
 40 58  1  0  0  0
 41113  1  0  0  0
 41114  1  0  0  0
 41115  1  0  0  0
 41 48  1  0  0  0
 42 43  1  0  0  0
 42 66  1  0  0  0
 42116  1  0  0  0
 42117  1  0  0  0
 43 44  1  0  0  0
 44118  1  0  0  0
 45 46  2  0  0  0
 45119  1  0  0  0
 46120  1  0  0  0
 47121  1  0  0  0
 47122  1  0  0  0
 48 56  1  0  0  0
 48 65  1  0  0  0
 48123  1  0  0  0
 49 50  1  0  0  0
 49 53  1  0  0  0
 49 64  1  0  0  0
 49124  1  0  0  0
 50 51  1  0  0  0
 50125  1  0  0  0
 50126  1  0  0  0
 51 52  1  0  0  0
 51127  1  0  0  0
 51128  1  0  0  0
 52129  1  0  0  0
 52130  1  0  0  0
 53 54  1  0  0  0
 54 55  2  0  0  0
 54131  1  0  0  0
 55 57  1  0  0  0
 55132  1  0  0  0
 56 69  2  0  0  0
 57 58  2  0  0  0
 57133  1  0  0  0
 58134  1  0  0  0
 59 60  1  0  0  0
 59 61  1  0  0  0
 59 62  1  0  0  0
 60135  1  0  0  0
 60136  1  0  0  0
 60137  1  0  0  0
 61138  1  0  0  0
 61139  1  0  0  0
 61140  1  0  0  0
 62141  1  0  0  0
 62142  1  0  0  0
 62143  1  0  0  0
 63 65  1  0  0  0
 63144  1  0  0  0
 63145  1  0  0  0
 63146  1  0  0  0
 64147  1  0  0  0
 65148  1  0  0  0
 68 83  1  0  0  0
 71 73  1  0  0  0
 71 74  2  0  0  0
 71149  1  0  0  0
 72 73  2  0  0  0
 72 89  1  0  0  0
 72150  1  0  0  0
 73 80  1  0  0  0
 74 87  1  0  0  0
 74 89  1  0  0  0
 75 83  1  0  0  0
 75 86  1  0  0  0
 75 88  2  0  0  0
 76 77  1  0  0  0
 76 78  1  0  0  0
 76151  1  0  0  0
 76152  1  0  0  0
 77 79  1  0  0  0
 77153  1  0  0  0
 77154  1  0  0  0
 78 80  1  0  0  0
 78155  1  0  0  0
 78156  1  0  0  0
 79 80  1  0  0  0
 79157  1  0  0  0
 79158  1  0  0  0
 80 84  1  0  0  0
 81159  1  0  0  0
 81160  1  0  0  0
 81161  1  0  0  0
 81 86  1  0  0  0
 82 86  1  0  0  0
 82162  1  0  0  0
 82163  1  0  0  0
 82164  1  0  0  0
 83165  1  0  0  0
 83166  1  0  0  0
 84 85  1  0  0  0
 84167  1  0  0  0
 84168  1  0  0  0
 85 86  1  0  0  0
 85169  1  0  0  0
 85170  1  0  0  0
 87171  1  0  0  0
M  ISO  4   1 100  68 101  83 101  87 100
M  END
> <chiral flag>
0

> <version>
0

> <s_m_source_file>
/data/baiqing/PycharmProjects/Reinvent-master-3.2/result/LINK_invent/BTK/process_docking_weight1_custom_product_contain_oxygen_bond_distance_aromatic_linkinvent_7_9_3/rearranged_h_0143.sdf

> <i_m_source_file_index>
54

> <r_mmod_Potential_Energy-OPLS-2005>
107.490898132324

> <r_mmod_Stretch_Energy-OPLS-2005>
46.8606338500977

> <r_mmod_Bend_Energy-OPLS-2005>
149.58903503418

> <r_mmod_Torsional_Energy-OPLS-2005>
328.954284667969

> <r_mmod_Improper_Torsional_Energy-OPLS-2005>
6.51919078826904

> <r_mmod_Van_der_Waal_Energy-OPLS-2005>
135.073623657227

> <r_mmod_Electrostatic_Energy-OPLS-2005>
-350.997497558594

> <r_mmod_Solvation_Energy-OPLS-2005>
-221.464996337891

> <b_mmod_Minimization_Converged-OPLS-2005>
0

> <r_mmod_RMS_Derivative-OPLS-2005>
3.26126146316528

$$$$
54
                    3D
 Structure written by MMmdl.
166175  0  0  1  0            999 V2000
  -30.6995  -14.5140   20.5508 C   0  0  0  0  0  0
  -30.4203  -12.3316   19.4305 C   0  0  0  0  0  0
  -29.4936  -12.4974   18.2095 C   0  0  0  0  0  0
  -28.0153  -12.3542   18.6221 C   0  0  0  0  0  0
  -27.6533  -13.2123   19.8647 C   0  0  2  0  0  0
  -28.6973  -13.0373   20.9907 C   0  0  0  0  0  0
  -25.2546  -13.8173   20.5675 C   0  0  0  0  0  0
  -24.1815  -13.0439   20.9190 C   0  0  0  0  0  0
  -24.6380  -11.6908   20.8742 C   0  0  0  0  0  0
  -23.9053  -10.4291   21.0408 C   0  0  0  0  0  0
  -24.3612   -9.4211   21.9183 C   0  0  0  0  0  0
  -23.6294   -8.2243   22.0756 C   0  0  0  0  0  0
  -22.4275   -8.0280   21.3548 C   0  0  0  0  0  0
  -21.9905   -9.0247   20.4646 C   0  0  0  0  0  0
  -22.7228  -10.2132   20.3055 C   0  0  0  0  0  0
  -21.6851   -6.0740   22.5279 C   0  0  0  0  0  0
  -21.4011   -6.5641   23.8218 C   0  0  0  0  0  0
  -21.3660   -5.6792   24.9175 C   0  0  0  0  0  0
  -21.6048   -4.3056   24.7222 C   0  0  0  0  0  0
  -21.8820   -3.8150   23.4340 C   0  0  0  0  0  0
  -21.9192   -4.6966   22.3402 C   0  0  0  0  0  0
  -22.7836  -13.5236   21.1856 C   0  0  0  0  0  0
  -22.1660   -4.2155   21.0977 F   0  0  0  0  0  0
  -21.5629   -3.4539   25.7732 F   0  0  0  0  0  0
  -30.0199  -13.3402   20.4243 N   0  0  0  0  0  0
  -26.2977  -12.9350   20.3327 N   0  0  0  0  0  0
  -25.9305  -11.6507   20.5758 N   0  0  0  0  0  0
  -22.0479  -12.8223   22.0410 N   0  0  0  0  0  0
  -25.4246  -15.1895   20.4059 N   0  0  0  0  0  0
  -31.8508  -14.6512   20.1285 O   0  0  0  0  0  0
  -21.6642   -6.8878   21.4241 O   0  0  0  0  0  0
  -22.3519  -14.5544   20.6709 O   0  0  0  0  0  0
  -24.6156  -31.8635   23.2058 C   0  0  0  0  0  0
  -25.9040  -32.4800   23.8364 C   0  0  1  0  0  0
  -27.2343  -27.4145   20.1145 C   0  0  0  0  0  0
  -25.5880  -33.8601   24.2293 N   0  0  0  0  0  0
  -23.4060  -30.4834   21.5464 C   0  0  2  0  0  0
  -24.8545  -28.9456   20.1117 C   0  0  0  0  0  0
  -22.7430  -29.4616   22.4987 C   0  0  0  0  0  0
  -18.0266  -28.1374   22.8485 C   0  0  0  0  0  0
  -24.1494  -36.7316   23.2645 C   0  0  0  0  0  0
  -25.9345  -30.8272   21.3580 C   0  0  0  0  0  0
  -26.0135  -29.4600   20.7069 C   0  0  0  0  0  0
  -27.2097  -28.7063   20.6974 C   0  0  0  0  0  0
  -26.0654  -26.9184   19.5057 C   0  0  0  0  0  0
  -24.8769  -27.6766   19.5032 C   0  0  0  0  0  0
  -23.6150  -29.8118   20.1617 C   0  0  0  0  0  0
  -25.4112  -36.3105   24.0337 C   0  0  1  0  0  0
  -20.5865  -28.3648   23.1319 C   0  0  2  0  0  0
  -20.6765  -26.9385   22.5423 C   0  0  0  0  0  0
  -19.5746  -26.6374   21.5220 C   0  0  0  0  0  0
  -18.1915  -26.7918   22.1618 C   0  0  0  0  0  0
  -19.1518  -28.8829   23.2898 C   0  0  0  0  0  0
  -18.9452  -30.1442   23.8900 C   0  0  0  0  0  0
  -17.6450  -30.6580   24.0564 C   0  0  0  0  0  0
  -25.9030  -34.9462   23.5118 C   0  0  0  0  0  0
  -16.5339  -29.9079   23.6332 C   0  0  0  0  0  0
  -16.7256  -28.6503   23.0340 C   0  0  0  0  0  0
  -26.4462  -31.6581   25.0701 C   0  0  0  0  0  0
  -25.3736  -31.3691   26.1458 C   0  0  0  0  0  0
  -27.0290  -30.3026   24.6059 C   0  0  0  0  0  0
  -27.6034  -32.4299   25.7466 C   0  0  0  0  0  0
  -27.5584  -37.1810   24.8466 C   0  0  0  0  0  0
  -21.4153  -29.3014   22.3738 N   0  0  0  0  0  0
  -26.4293  -37.3790   23.9410 N   0  0  0  0  0  0
  -24.6704  -31.0725   22.0957 N   0  0  0  0  0  0
  -23.4199  -28.8169   23.3038 O   0  0  0  0  0  0
  -28.3750  -26.6325   20.1214 O   0  0  0  0  0  0
  -26.5610  -34.8919   22.4691 O   0  0  0  0  0  0
  -23.5346  -32.1383   23.7446 O   0  0  0  0  0  0
  -32.1853  -18.3241   22.3001 C   0  0  0  0  0  0
  -31.3690  -19.4558   22.1274 C   0  0  0  0  0  0
  -31.7391  -17.0584   21.8893 C   0  0  0  0  0  0
  -29.6560  -18.0616   21.0958 C   0  0  0  0  0  0
  -30.1029  -19.3565   21.5041 C   0  0  0  0  0  0
  -30.4660  -16.9002   21.2909 C   0  0  0  0  0  0
  -29.2392  -20.5746   21.4576 C   0  0  0  0  0  0
  -30.8937  -23.4308   21.7459 C   0  0  0  0  0  0
  -30.9995  -22.3261   20.7028 C   0  0  0  0  0  0
  -29.3678  -23.2156   21.7876 C   0  0  1  0  0  0
  -28.7545  -23.1089   23.1981 C   0  0  0  0  0  0
  -27.7715  -26.1019   22.4981 C   0  0  0  0  0  0
  -28.5533  -24.1946   20.8549 C   0  0  0  0  0  0
  -28.6042  -25.7306   21.2435 C   0  0  1  0  0  0
  -29.7071  -21.8472   21.2249 N   0  0  0  0  0  0
  -29.9787  -15.5824   20.9731 N   0  0  0  0  0  0
  -27.9478  -20.4437   21.7612 N   0  3  0  0  0  0
  -31.4639  -12.4307   19.1269 H   0  0  0  0  0  0
  -30.3284  -11.3302   19.8526 H   0  0  0  0  0  0
  -29.7420  -11.7593   17.4454 H   0  0  0  0  0  0
  -29.6547  -13.4763   17.7538 H   0  0  0  0  0  0
  -27.8326  -11.2998   18.8332 H   0  0  0  0  0  0
  -27.3652  -12.6117   17.7851 H   0  0  0  0  0  0
  -27.6824  -14.2538   19.5428 H   0  0  0  0  0  0
  -28.6820  -12.0153   21.3708 H   0  0  0  0  0  0
  -28.4591  -13.6735   21.8443 H   0  0  0  0  0  0
  -25.2760   -9.5695   22.4753 H   0  0  0  0  0  0
  -24.0014   -7.4634   22.7471 H   0  0  0  0  0  0
  -21.0842   -8.8754   19.8944 H   0  0  0  0  0  0
  -22.3684  -10.9665   19.6162 H   0  0  0  0  0  0
  -21.2001   -7.6149   23.9722 H   0  0  0  0  0  0
  -21.1482   -6.0520   25.9082 H   0  0  0  0  0  0
  -22.0599   -2.7611   23.2837 H   0  0  0  0  0  0
  -22.4085  -11.9881   22.4798 H   0  0  0  0  0  0
  -21.1093  -13.1243   22.2613 H   0  0  0  0  0  0
  -24.6505  -15.8385   20.4998 H   0  0  0  0  0  0
  -26.2637  -15.6265   20.0464 H   0  0  0  0  0  0
  -26.7112  -32.5503   23.1126 H   0  0  0  0  0  0
  -25.0035  -33.9773   25.0443 H   0  0  0  0  0  0
  -22.6944  -31.2990   21.4035 H   0  0  0  0  0  0
  -23.3752  -35.9657   23.3315 H   0  0  0  0  0  0
  -24.3598  -36.8924   22.2063 H   0  0  0  0  0  0
  -23.7242  -37.6522   23.6649 H   0  0  0  0  0  0
  -26.0467  -31.5905   20.5864 H   0  0  0  0  0  0
  -26.8229  -30.8814   21.9764 H   0  0  0  0  0  0
  -28.1044  -29.0992   21.1601 H   0  0  0  0  0  0
  -26.0747  -25.9393   19.0472 H   0  0  0  0  0  0
  -23.9874  -27.2741   19.0375 H   0  0  0  0  0  0
  -23.7234  -30.5839   19.3986 H   0  0  0  0  0  0
  -22.7388  -29.2295   19.8688 H   0  0  0  0  0  0
  -25.1294  -36.1968   25.0829 H   0  0  0  0  0  0
  -20.9940  -28.3201   24.1443 H   0  0  0  0  0  0
  -20.5674  -26.2256   23.3613 H   0  0  0  0  0  0
  -21.6634  -26.7432   22.1210 H   0  0  0  0  0  0
  -19.6915  -25.6296   21.1226 H   0  0  0  0  0  0
  -19.6687  -27.3208   20.6775 H   0  0  0  0  0  0
  -17.4199  -26.6663   21.4012 H   0  0  0  0  0  0
  -18.0307  -26.0061   22.9015 H   0  0  0  0  0  0
  -19.7930  -30.7258   24.2266 H   0  0  0  0  0  0
  -17.5005  -31.6263   24.5167 H   0  0  0  0  0  0
  -15.5340  -30.2982   23.7662 H   0  0  0  0  0  0
  -15.8656  -28.0833   22.7036 H   0  0  0  0  0  0
  -24.5902  -30.7033   25.7815 H   0  0  0  0  0  0
  -24.8941  -32.2857   26.4903 H   0  0  0  0  0  0
  -25.8104  -30.8869   27.0212 H   0  0  0  0  0  0
  -26.2831  -29.6788   24.1119 H   0  0  0  0  0  0
  -27.4090  -29.7241   25.4485 H   0  0  0  0  0  0
  -27.8644  -30.4369   23.9186 H   0  0  0  0  0  0
  -27.2643  -33.3589   26.2061 H   0  0  0  0  0  0
  -28.3837  -32.6866   25.0292 H   0  0  0  0  0  0
  -28.0706  -31.8409   26.5367 H   0  0  0  0  0  0
  -28.2606  -38.0108   24.7518 H   0  0  0  0  0  0
  -28.1066  -36.2631   24.6274 H   0  0  0  0  0  0
  -27.2306  -37.1459   25.8872 H   0  0  0  0  0  0
  -20.9311  -29.8764   21.6992 H   0  0  0  0  0  0
  -26.0181  -38.2873   24.1388 H   0  0  0  0  0  0
  -33.1465  -18.4180   22.7857 H   0  0  0  0  0  0
  -31.7183  -20.3985   22.5238 H   0  0  0  0  0  0
  -32.3790  -16.2075   22.0748 H   0  0  0  0  0  0
  -28.6741  -17.9561   20.6551 H   0  0  0  0  0  0
  -31.2159  -24.3983   21.3613 H   0  0  0  0  0  0
  -31.4056  -23.1964   22.6813 H   0  0  0  0  0  0
  -31.8634  -21.6767   20.8286 H   0  0  0  0  0  0
  -30.9157  -22.6827   19.6749 H   0  0  0  0  0  0
  -27.6795  -23.2899   23.1988 H   0  0  0  0  0  0
  -29.2190  -23.8182   23.8820 H   0  0  0  0  0  0
  -28.9113  -22.1403   23.6714 H   0  0  0  0  0  0
  -28.0963  -25.5834   23.3917 H   0  0  0  0  0  0
  -26.7116  -25.8847   22.3595 H   0  0  0  0  0  0
  -27.8733  -27.1568   22.7476 H   0  0  0  0  0  0
  -27.5099  -23.8849   20.7948 H   0  0  0  0  0  0
  -28.9209  -24.0959   19.8325 H   0  0  0  0  0  0
  -29.6365  -25.9486   21.5138 H   0  0  0  0  0  0
  -28.9909  -15.4229   21.0925 H   0  0  0  0  0  0
  -27.5774  -19.5442   22.0179 H   0  0  0  0  0  0
  -27.3367  -21.2405   21.7104 H   0  0  0  0  0  0
  1 25  1  0  0  0
  1 30  2  0  0  0
  1 86  1  0  0  0
  2  3  1  0  0  0
  2 25  1  0  0  0
  2 88  1  0  0  0
  2 89  1  0  0  0
  3  4  1  0  0  0
  3 90  1  0  0  0
  3 91  1  0  0  0
  4  5  1  0  0  0
  4 92  1  0  0  0
  4 93  1  0  0  0
  5  6  1  0  0  0
  5 26  1  0  0  0
  5 94  1  0  0  0
  6 25  1  0  0  0
  6 95  1  0  0  0
  6 96  1  0  0  0
  7  8  2  0  0  0
  7 26  1  0  0  0
  7 29  1  0  0  0
  8  9  1  0  0  0
  8 22  1  0  0  0
  9 10  1  0  0  0
  9 27  2  0  0  0
 10 11  2  0  0  0
 10 15  1  0  0  0
 11 12  1  0  0  0
 11 97  1  0  0  0
 12 13  2  0  0  0
 12 98  1  0  0  0
 13 14  1  0  0  0
 13 31  1  0  0  0
 14 15  2  0  0  0
 14 99  1  0  0  0
 15100  1  0  0  0
 16 17  2  0  0  0
 16 21  1  0  0  0
 16 31  1  0  0  0
 17 18  1  0  0  0
 17101  1  0  0  0
 18 19  2  0  0  0
 18102  1  0  0  0
 19 20  1  0  0  0
 19 24  1  0  0  0
 20 21  2  0  0  0
 20103  1  0  0  0
 21 23  1  0  0  0
 22 28  1  0  0  0
 22 32  2  0  0  0
 26 27  1  0  0  0
 28104  1  0  0  0
 28105  1  0  0  0
 29106  1  0  0  0
 29107  1  0  0  0
 33 34  1  0  0  0
 33 66  1  0  0  0
 33 70  2  0  0  0
 34 36  1  0  0  0
 34 59  1  0  0  0
 34108  1  0  0  0
 35 44  2  0  0  0
 35 45  1  0  0  0
 35 68  1  0  0  0
 36 56  1  0  0  0
 36109  1  0  0  0
 37 39  1  0  0  0
 37 47  1  0  0  0
 37 66  1  0  0  0
 37110  1  0  0  0
 38 43  2  0  0  0
 38 46  1  0  0  0
 38 47  1  0  0  0
 39 64  1  0  0  0
 39 67  2  0  0  0
 40 52  1  0  0  0
 40 53  2  0  0  0
 40 58  1  0  0  0
 41111  1  0  0  0
 41112  1  0  0  0
 41113  1  0  0  0
 41 48  1  0  0  0
 42 43  1  0  0  0
 42 66  1  0  0  0
 42114  1  0  0  0
 42115  1  0  0  0
 43 44  1  0  0  0
 44116  1  0  0  0
 45 46  2  0  0  0
 45117  1  0  0  0
 46118  1  0  0  0
 47119  1  0  0  0
 47120  1  0  0  0
 48 56  1  0  0  0
 48 65  1  0  0  0
 48121  1  0  0  0
 49 50  1  0  0  0
 49 53  1  0  0  0
 49 64  1  0  0  0
 49122  1  0  0  0
 50 51  1  0  0  0
 50123  1  0  0  0
 50124  1  0  0  0
 51 52  1  0  0  0
 51125  1  0  0  0
 51126  1  0  0  0
 52127  1  0  0  0
 52128  1  0  0  0
 53 54  1  0  0  0
 54 55  2  0  0  0
 54129  1  0  0  0
 55 57  1  0  0  0
 55130  1  0  0  0
 56 69  2  0  0  0
 57 58  2  0  0  0
 57131  1  0  0  0
 58132  1  0  0  0
 59 60  1  0  0  0
 59 61  1  0  0  0
 59 62  1  0  0  0
 60133  1  0  0  0
 60134  1  0  0  0
 60135  1  0  0  0
 61136  1  0  0  0
 61137  1  0  0  0
 61138  1  0  0  0
 62139  1  0  0  0
 62140  1  0  0  0
 62141  1  0  0  0
 63 65  1  0  0  0
 63142  1  0  0  0
 63143  1  0  0  0
 63144  1  0  0  0
 64145  1  0  0  0
 65146  1  0  0  0
 68 84  1  0  0  0
 71 72  2  0  0  0
 71 73  1  0  0  0
 71147  1  0  0  0
 72 75  1  0  0  0
 72148  1  0  0  0
 73 76  2  0  0  0
 73149  1  0  0  0
 74 75  2  0  0  0
 74 76  1  0  0  0
 74150  1  0  0  0
 75 77  1  0  0  0
 76 86  1  0  0  0
 77 85  1  0  0  0
 77 87  2  0  0  0
 78 79  1  0  0  0
 78 80  1  0  0  0
 78151  1  0  0  0
 78152  1  0  0  0
 79 85  1  0  0  0
 79153  1  0  0  0
 79154  1  0  0  0
 80 81  1  0  0  0
 80 83  1  0  0  0
 80 85  1  0  0  0
 81155  1  0  0  0
 81156  1  0  0  0
 81157  1  0  0  0
 82158  1  0  0  0
 82159  1  0  0  0
 82160  1  0  0  0
 82 84  1  0  0  0
 83 84  1  0  0  0
 83161  1  0  0  0
 83162  1  0  0  0
 84163  1  0  0  0
 86164  1  0  0  0
 87165  1  0  0  0
 87166  1  0  0  0
M  CHG  1  87   1
M  ISO  4   1 100  68 101  84 101  86 100
M  END
> <chiral flag>
0

> <version>
0

> <s_m_source_file>
/data/baiqing/PycharmProjects/Reinvent-master-3.2/result/LINK_invent/BTK/process_docking_weight1_custom_product_contain_oxygen_bond_distance_aromatic_linkinvent_7_9_3/rearranged_h_0143.sdf

> <i_m_source_file_index>
55

> <r_mmod_Potential_Energy-OPLS-2005>
-23.1715850830078

> <r_mmod_Stretch_Energy-OPLS-2005>
59.256031036377

> <r_mmod_Bend_Energy-OPLS-2005>
132.499404907227

> <r_mmod_Torsional_Energy-OPLS-2005>
296.816528320312

> <r_mmod_Improper_Torsional_Energy-OPLS-2005>
7.50176906585693

> <r_mmod_Van_der_Waal_Energy-OPLS-2005>
163.860687255859

> <r_mmod_Electrostatic_Energy-OPLS-2005>
-295.29931640625

> <r_mmod_Solvation_Energy-OPLS-2005>
-406.796997070312

> <b_mmod_Minimization_Converged-OPLS-2005>
0

> <r_mmod_RMS_Derivative-OPLS-2005>
1.71418368816376

$$$$
55
                    3D
 Structure written by MMmdl.
175184  0  0  1  0            999 V2000
  -30.5878  -14.6648   20.5163 C   0  0  0  0  0  0
  -30.4499  -12.4124   19.4533 C   0  0  0  0  0  0
  -29.5146  -12.5203   18.2265 C   0  0  0  0  0  0
  -28.0355  -12.3539   18.6345 C   0  0  0  0  0  0
  -27.6577  -13.2142   19.8703 C   0  0  2  0  0  0
  -28.7009  -13.0466   20.9973 C   0  0  0  0  0  0
  -25.2581  -13.8171   20.5700 C   0  0  0  0  0  0
  -24.1841  -13.0440   20.9201 C   0  0  0  0  0  0
  -24.6401  -11.6907   20.8738 C   0  0  0  0  0  0
  -23.9074  -10.4290   21.0397 C   0  0  0  0  0  0
  -24.3626   -9.4208   21.9180 C   0  0  0  0  0  0
  -23.6297   -8.2252   22.0753 C   0  0  0  0  0  0
  -22.4280   -8.0289   21.3546 C   0  0  0  0  0  0
  -21.9920   -9.0260   20.4644 C   0  0  0  0  0  0
  -22.7248  -10.2138   20.3049 C   0  0  0  0  0  0
  -21.6851   -6.0741   22.5281 C   0  0  0  0  0  0
  -21.4010   -6.5636   23.8217 C   0  0  0  0  0  0
  -21.3660   -5.6785   24.9176 C   0  0  0  0  0  0
  -21.6046   -4.3051   24.7221 C   0  0  0  0  0  0
  -21.8820   -3.8149   23.4339 C   0  0  0  0  0  0
  -21.9196   -4.6972   22.3398 C   0  0  0  0  0  0
  -22.7858  -13.5239   21.1862 C   0  0  0  0  0  0
  -22.1662   -4.2158   21.0978 F   0  0  0  0  0  0
  -21.5637   -3.4540   25.7738 F   0  0  0  0  0  0
  -30.0155  -13.4180   20.4451 N   0  0  0  0  0  0
  -26.3009  -12.9339   20.3341 N   0  0  0  0  0  0
  -25.9326  -11.6493   20.5748 N   0  0  0  0  0  0
  -22.0484  -12.8229   22.0407 N   0  0  0  0  0  0
  -25.4295  -15.1895   20.4132 N   0  0  0  0  0  0
  -31.7255  -14.8731   20.0808 O   0  0  0  0  0  0
  -21.6637   -6.8890   21.4248 O   0  0  0  0  0  0
  -22.3546  -14.5552   20.6716 O   0  0  0  0  0  0
  -24.6270  -31.8585   23.2005 C   0  0  0  0  0  0
  -25.9115  -32.4773   23.8333 C   0  0  1  0  0  0
  -27.2269  -27.3030   20.1263 C   0  0  0  0  0  0
  -25.5928  -33.8576   24.2266 N   0  0  0  0  0  0
  -23.4211  -30.4804   21.5437 C   0  0  2  0  0  0
  -24.8682  -28.9277   20.1166 C   0  0  0  0  0  0
  -22.7468  -29.4630   22.4941 C   0  0  0  0  0  0
  -18.0284  -28.1397   22.8485 C   0  0  0  0  0  0
  -24.1486  -36.7283   23.2640 C   0  0  0  0  0  0
  -25.9627  -30.7850   21.3728 C   0  0  0  0  0  0
  -26.0374  -29.4087   20.7192 C   0  0  0  0  0  0
  -27.2202  -28.6096   20.7094 C   0  0  0  0  0  0
  -26.0362  -26.8778   19.4968 C   0  0  0  0  0  0
  -24.8706  -27.6683   19.4963 C   0  0  0  0  0  0
  -23.6370  -29.8103   20.1611 C   0  0  0  0  0  0
  -25.4116  -36.3082   24.0324 C   0  0  1  0  0  0
  -20.5886  -28.3700   23.1281 C   0  0  2  0  0  0
  -20.6776  -26.9421   22.5414 C   0  0  0  0  0  0
  -19.5753  -26.6392   21.5215 C   0  0  0  0  0  0
  -18.1927  -26.7940   22.1618 C   0  0  0  0  0  0
  -19.1537  -28.8863   23.2881 C   0  0  0  0  0  0
  -18.9461  -30.1464   23.8901 C   0  0  0  0  0  0
  -17.6462  -30.6598   24.0568 C   0  0  0  0  0  0
  -25.9054  -34.9449   23.5096 C   0  0  0  0  0  0
  -16.5352  -29.9095   23.6339 C   0  0  0  0  0  0
  -16.7272  -28.6514   23.0355 C   0  0  0  0  0  0
  -26.4496  -31.6586   25.0709 C   0  0  0  0  0  0
  -25.3722  -31.3722   26.1428 C   0  0  0  0  0  0
  -27.0344  -30.3005   24.6177 C   0  0  0  0  0  0
  -27.6045  -32.4327   25.7494 C   0  0  0  0  0  0
  -27.5580  -37.1800   24.8467 C   0  0  0  0  0  0
  -21.4182  -29.3047   22.3672 N   0  0  0  0  0  0
  -26.4294  -37.3776   23.9411 N   0  0  0  0  0  0
  -24.6892  -31.0584   22.0962 N   0  0  0  0  0  0
  -23.4186  -28.8167   23.3028 O   0  0  0  0  0  0
  -28.3601  -26.4725   20.1349 O   0  0  0  0  0  0
  -26.5626  -34.8921   22.4665 O   0  0  0  0  0  0
  -23.5434  -32.1390   23.7331 O   0  0  0  0  0  0
  -30.1018  -19.3467   19.8720 C   0  0  0  0  0  0
  -30.4148  -17.9548   20.0035 C   0  0  0  0  0  0
  -28.6267  -17.7596   21.5716 C   0  0  0  0  0  0
  -29.0344  -19.9989   20.5676 C   0  0  0  0  0  0
  -28.2828  -19.1552   21.4738 C   0  0  0  0  0  0
  -29.6587  -17.1105   20.8519 C   0  0  0  0  0  0
  -30.9184  -24.0464   21.9376 C   0  0  0  0  0  0
  -30.7414  -24.7049   20.5602 C   0  0  0  0  0  0
  -30.0836  -22.7571   21.8975 C   0  0  0  0  0  0
  -29.4622  -24.0848   19.9602 C   0  0  2  0  0  0
  -29.5436  -24.0862   18.4194 C   0  0  0  0  0  0
  -26.6128  -18.6306   23.4006 C   0  0  0  0  0  0
  -25.8239  -19.8189   21.3954 C   0  0  0  0  0  0
  -27.3416  -20.9397   23.1021 C   0  0  0  0  0  0
  -28.6595  -21.5009   20.1660 C   0  0  0  0  0  0
  -28.2243  -25.0095   20.4063 C   0  0  0  0  0  0
  -27.0544  -19.6447   22.3105 C   0  0  0  0  0  0
  -29.7762  -15.6526   21.0142 N   0  0  0  0  0  0
  -29.5941  -22.6525   20.5087 N   0  3  2  0  0  0
  -31.4882  -12.5597   19.1505 H   0  0  0  0  0  0
  -30.4062  -11.4115   19.8847 H   0  0  0  0  0  0
  -29.7827  -11.7695   17.4818 H   0  0  0  0  0  0
  -29.6531  -13.4896   17.7453 H   0  0  0  0  0  0
  -27.8708  -11.2989   18.8549 H   0  0  0  0  0  0
  -27.3836  -12.5932   17.7943 H   0  0  0  0  0  0
  -27.6811  -14.2545   19.5454 H   0  0  0  0  0  0
  -28.7180  -12.0129   21.3464 H   0  0  0  0  0  0
  -28.4348  -13.6430   21.8708 H   0  0  0  0  0  0
  -25.2768   -9.5692   22.4761 H   0  0  0  0  0  0
  -24.0013   -7.4639   22.7458 H   0  0  0  0  0  0
  -21.0868   -8.8764   19.8936 H   0  0  0  0  0  0
  -22.3699  -10.9680   19.6159 H   0  0  0  0  0  0
  -21.1983   -7.6137   23.9729 H   0  0  0  0  0  0
  -21.1488   -6.0509   25.9083 H   0  0  0  0  0  0
  -22.0598   -2.7615   23.2835 H   0  0  0  0  0  0
  -22.4090  -11.9885   22.4797 H   0  0  0  0  0  0
  -21.1096  -13.1244   22.2588 H   0  0  0  0  0  0
  -24.6625  -15.8422   20.5273 H   0  0  0  0  0  0
  -26.2787  -15.6303   20.0842 H   0  0  0  0  0  0
  -26.7182  -32.5438   23.1080 H   0  0  0  0  0  0
  -25.0075  -33.9719   25.0410 H   0  0  0  0  0  0
  -22.7167  -31.3018   21.3970 H   0  0  0  0  0  0
  -23.3756  -35.9608   23.3305 H   0  0  0  0  0  0
  -24.3569  -36.8905   22.2054 H   0  0  0  0  0  0
  -23.7230  -37.6478   23.6663 H   0  0  0  0  0  0
  -26.0933  -31.5468   20.6028 H   0  0  0  0  0  0
  -26.8430  -30.8370   22.0018 H   0  0  0  0  0  0
  -28.1204  -28.9797   21.1793 H   0  0  0  0  0  0
  -25.9872  -25.9278   18.9862 H   0  0  0  0  0  0
  -23.9762  -27.2987   19.0139 H   0  0  0  0  0  0
  -23.7571  -30.5837   19.4017 H   0  0  0  0  0  0
  -22.7567  -29.2395   19.8602 H   0  0  0  0  0  0
  -25.1304  -36.1928   25.0816 H   0  0  0  0  0  0
  -20.9975  -28.3283   24.1403 H   0  0  0  0  0  0
  -20.5684  -26.2312   23.3617 H   0  0  0  0  0  0
  -21.6646  -26.7459   22.1204 H   0  0  0  0  0  0
  -19.6917  -25.6297   21.1255 H   0  0  0  0  0  0
  -19.6698  -27.3202   20.6742 H   0  0  0  0  0  0
  -17.4202  -26.6697   21.4013 H   0  0  0  0  0  0
  -18.0318  -26.0082   22.9012 H   0  0  0  0  0  0
  -19.7934  -30.7283   24.2269 H   0  0  0  0  0  0
  -17.5014  -31.6278   24.5166 H   0  0  0  0  0  0
  -15.5354  -30.3000   23.7663 H   0  0  0  0  0  0
  -15.8669  -28.0839   22.7070 H   0  0  0  0  0  0
  -24.5913  -30.7058   25.7750 H   0  0  0  0  0  0
  -24.8897  -32.2886   26.4833 H   0  0  0  0  0  0
  -25.8040  -30.8913   27.0212 H   0  0  0  0  0  0
  -26.2920  -29.6749   24.1205 H   0  0  0  0  0  0
  -27.4034  -29.7272   25.4692 H   0  0  0  0  0  0
  -27.8790  -30.4284   23.9404 H   0  0  0  0  0  0
  -27.2643  -33.3629   26.2058 H   0  0  0  0  0  0
  -28.3865  -32.6884   25.0334 H   0  0  0  0  0  0
  -28.0694  -31.8458   26.5425 H   0  0  0  0  0  0
  -28.2598  -38.0098   24.7520 H   0  0  0  0  0  0
  -28.1074  -36.2627   24.6292 H   0  0  0  0  0  0
  -27.2293  -37.1454   25.8870 H   0  0  0  0  0  0
  -20.9364  -29.8754   21.6863 H   0  0  0  0  0  0
  -26.0170  -38.2846   24.1422 H   0  0  0  0  0  0
  -30.6820  -19.9177   19.1604 H   0  0  0  0  0  0
  -31.2160  -17.5382   19.4096 H   0  0  0  0  0  0
  -28.0618  -17.1000   22.2081 H   0  0  0  0  0  0
  -30.5594  -24.7029   22.7314 H   0  0  0  0  0  0
  -31.9697  -23.8401   22.1424 H   0  0  0  0  0  0
  -31.6072  -24.4548   19.9444 H   0  0  0  0  0  0
  -30.7186  -25.7937   20.6221 H   0  0  0  0  0  0
  -29.2576  -22.8562   22.5974 H   0  0  0  0  0  0
  -30.6654  -21.8791   22.1823 H   0  0  0  0  0  0
  -29.6292  -25.1041   18.0359 H   0  0  0  0  0  0
  -28.6514  -23.6508   17.9677 H   0  0  0  0  0  0
  -30.4057  -23.5297   18.0500 H   0  0  0  0  0  0
  -26.2102  -17.7097   22.9774 H   0  0  0  0  0  0
  -25.8102  -19.0282   24.0222 H   0  0  0  0  0  0
  -27.4328  -18.3753   24.0729 H   0  0  0  0  0  0
  -25.5588  -18.8734   20.9201 H   0  0  0  0  0  0
  -25.9647  -20.5386   20.5945 H   0  0  0  0  0  0
  -24.9535  -20.1491   21.9652 H   0  0  0  0  0  0
  -28.2852  -20.8707   23.6445 H   0  0  0  0  0  0
  -26.5667  -21.1330   23.8454 H   0  0  0  0  0  0
  -27.3491  -21.8378   22.4981 H   0  0  0  0  0  0
  -27.6573  -21.7762   20.4645 H   0  0  0  0  0  0
  -28.5878  -21.4880   19.0782 H   0  0  0  0  0  0
  -28.0739  -24.9073   21.4817 H   0  0  0  0  0  0
  -27.3242  -24.5979   19.9538 H   0  0  0  0  0  0
  -28.9793  -15.2444   21.4793 H   0  0  0  0  0  0
  -30.4309  -22.3406   20.0396 H   0  0  0  0  0  0
  1 25  1  0  0  0
  1 30  2  0  0  0
  1 88  1  0  0  0
  2  3  1  0  0  0
  2 25  1  0  0  0
  2 90  1  0  0  0
  2 91  1  0  0  0
  3  4  1  0  0  0
  3 92  1  0  0  0
  3 93  1  0  0  0
  4  5  1  0  0  0
  4 94  1  0  0  0
  4 95  1  0  0  0
  5  6  1  0  0  0
  5 26  1  0  0  0
  5 96  1  0  0  0
  6 25  1  0  0  0
  6 97  1  0  0  0
  6 98  1  0  0  0
  7  8  2  0  0  0
  7 26  1  0  0  0
  7 29  1  0  0  0
  8  9  1  0  0  0
  8 22  1  0  0  0
  9 10  1  0  0  0
  9 27  2  0  0  0
 10 11  2  0  0  0
 10 15  1  0  0  0
 11 12  1  0  0  0
 11 99  1  0  0  0
 12 13  2  0  0  0
 12100  1  0  0  0
 13 14  1  0  0  0
 13 31  1  0  0  0
 14 15  2  0  0  0
 14101  1  0  0  0
 15102  1  0  0  0
 16 17  2  0  0  0
 16 21  1  0  0  0
 16 31  1  0  0  0
 17 18  1  0  0  0
 17103  1  0  0  0
 18 19  2  0  0  0
 18104  1  0  0  0
 19 20  1  0  0  0
 19 24  1  0  0  0
 20 21  2  0  0  0
 20105  1  0  0  0
 21 23  1  0  0  0
 22 28  1  0  0  0
 22 32  2  0  0  0
 26 27  1  0  0  0
 28106  1  0  0  0
 28107  1  0  0  0
 29108  1  0  0  0
 29109  1  0  0  0
 33 34  1  0  0  0
 33 66  1  0  0  0
 33 70  2  0  0  0
 34 36  1  0  0  0
 34 59  1  0  0  0
 34110  1  0  0  0
 35 44  2  0  0  0
 35 45  1  0  0  0
 35 68  1  0  0  0
 36 56  1  0  0  0
 36111  1  0  0  0
 37 39  1  0  0  0
 37 47  1  0  0  0
 37 66  1  0  0  0
 37112  1  0  0  0
 38 43  2  0  0  0
 38 46  1  0  0  0
 38 47  1  0  0  0
 39 64  1  0  0  0
 39 67  2  0  0  0
 40 52  1  0  0  0
 40 53  2  0  0  0
 40 58  1  0  0  0
 41113  1  0  0  0
 41114  1  0  0  0
 41115  1  0  0  0
 41 48  1  0  0  0
 42 43  1  0  0  0
 42 66  1  0  0  0
 42116  1  0  0  0
 42117  1  0  0  0
 43 44  1  0  0  0
 44118  1  0  0  0
 45 46  2  0  0  0
 45119  1  0  0  0
 46120  1  0  0  0
 47121  1  0  0  0
 47122  1  0  0  0
 48 56  1  0  0  0
 48 65  1  0  0  0
 48123  1  0  0  0
 49 50  1  0  0  0
 49 53  1  0  0  0
 49 64  1  0  0  0
 49124  1  0  0  0
 50 51  1  0  0  0
 50125  1  0  0  0
 50126  1  0  0  0
 51 52  1  0  0  0
 51127  1  0  0  0
 51128  1  0  0  0
 52129  1  0  0  0
 52130  1  0  0  0
 53 54  1  0  0  0
 54 55  2  0  0  0
 54131  1  0  0  0
 55 57  1  0  0  0
 55132  1  0  0  0
 56 69  2  0  0  0
 57 58  2  0  0  0
 57133  1  0  0  0
 58134  1  0  0  0
 59 60  1  0  0  0
 59 61  1  0  0  0
 59 62  1  0  0  0
 60135  1  0  0  0
 60136  1  0  0  0
 60137  1  0  0  0
 61138  1  0  0  0
 61139  1  0  0  0
 61140  1  0  0  0
 62141  1  0  0  0
 62142  1  0  0  0
 62143  1  0  0  0
 63 65  1  0  0  0
 63144  1  0  0  0
 63145  1  0  0  0
 63146  1  0  0  0
 64147  1  0  0  0
 65148  1  0  0  0
 68 86  1  0  0  0
 71 72  2  0  0  0
 71 74  1  0  0  0
 71149  1  0  0  0
 72 76  1  0  0  0
 72150  1  0  0  0
 73 75  1  0  0  0
 73 76  2  0  0  0
 73151  1  0  0  0
 74 75  2  0  0  0
 74 85  1  0  0  0
 75 87  1  0  0  0
 76 88  1  0  0  0
 77 78  1  0  0  0
 77 79  1  0  0  0
 77152  1  0  0  0
 77153  1  0  0  0
 78 80  1  0  0  0
 78154  1  0  0  0
 78155  1  0  0  0
 79 89  1  0  0  0
 79156  1  0  0  0
 79157  1  0  0  0
 80 81  1  0  0  0
 80 86  1  0  0  0
 80 89  1  0  0  0
 81158  1  0  0  0
 81159  1  0  0  0
 81160  1  0  0  0
 82161  1  0  0  0
 82162  1  0  0  0
 82163  1  0  0  0
 82 87  1  0  0  0
 83 87  1  0  0  0
 83164  1  0  0  0
 83165  1  0  0  0
 83166  1  0  0  0
 84 87  1  0  0  0
 84167  1  0  0  0
 84168  1  0  0  0
 84169  1  0  0  0
 85170  1  0  0  0
 85171  1  0  0  0
 85 89  1  0  0  0
 86172  1  0  0  0
 86173  1  0  0  0
 88174  1  0  0  0
 89175  1  0  0  0
M  CHG  1  89   1
M  ISO  4   1 100  68 101  86 101  88 100
M  END
> <chiral flag>
0

> <version>
0

> <s_m_source_file>
/data/baiqing/PycharmProjects/Reinvent-master-3.2/result/LINK_invent/BTK/process_docking_weight1_custom_product_contain_oxygen_bond_distance_aromatic_linkinvent_7_9_3/rearranged_h_0143.sdf

> <i_m_source_file_index>
56

> <r_mmod_Potential_Energy-OPLS-2005>
163.761352539062

> <r_mmod_Stretch_Energy-OPLS-2005>
105.651184082031

> <r_mmod_Bend_Energy-OPLS-2005>
231.527420043945

> <r_mmod_Torsional_Energy-OPLS-2005>
295.164276123047

> <r_mmod_Improper_Torsional_Energy-OPLS-2005>
4.0182056427002

> <r_mmod_Van_der_Waal_Energy-OPLS-2005>
144.889724731445

> <r_mmod_Electrostatic_Energy-OPLS-2005>
-267.917236328125

> <r_mmod_Solvation_Energy-OPLS-2005>
-403.182281494141

> <b_mmod_Minimization_Converged-OPLS-2005>
0

> <r_mmod_RMS_Derivative-OPLS-2005>
1.13092494010925

$$$$
56
                    3D
 Structure written by MMmdl.
159167  0  0  1  0            999 V2000
  -30.7528  -14.3473   20.7218 C   0  0  0  0  0  0
  -30.4317  -12.2983   19.3792 C   0  0  0  0  0  0
  -29.4838  -12.5282   18.1873 C   0  0  0  0  0  0
  -28.0122  -12.3675   18.6125 C   0  0  0  0  0  0
  -27.6709  -13.1922   19.8792 C   0  0  2  0  0  0
  -28.7057  -12.9123   20.9897 C   0  0  0  0  0  0
  -25.2630  -13.8125   20.5623 C   0  0  0  0  0  0
  -24.1859  -13.0432   20.9124 C   0  0  0  0  0  0
  -24.6389  -11.6890   20.8697 C   0  0  0  0  0  0
  -23.9038  -10.4296   21.0386 C   0  0  0  0  0  0
  -24.3596   -9.4224   21.9164 C   0  0  0  0  0  0
  -23.6292   -8.2251   22.0739 C   0  0  0  0  0  0
  -22.4272   -8.0279   21.3530 C   0  0  0  0  0  0
  -21.9893   -9.0250   20.4632 C   0  0  0  0  0  0
  -22.7212  -10.2132   20.3044 C   0  0  0  0  0  0
  -21.6861   -6.0737   22.5272 C   0  0  0  0  0  0
  -21.4021   -6.5640   23.8208 C   0  0  0  0  0  0
  -21.3656   -5.6791   24.9166 C   0  0  0  0  0  0
  -21.6045   -4.3058   24.7222 C   0  0  0  0  0  0
  -21.8828   -3.8145   23.4346 C   0  0  0  0  0  0
  -21.9206   -4.6962   22.3403 C   0  0  0  0  0  0
  -22.7883  -13.5238   21.1812 C   0  0  0  0  0  0
  -22.1669   -4.2145   21.0981 F   0  0  0  0  0  0
  -21.5623   -3.4542   25.7736 F   0  0  0  0  0  0
  -30.0576  -13.2092   20.4699 N   0  0  0  0  0  0
  -26.3065  -12.9277   20.3343 N   0  0  0  0  0  0
  -25.9318  -11.6448   20.5724 N   0  0  0  0  0  0
  -22.0536  -12.8232   22.0376 N   0  0  0  0  0  0
  -25.4404  -15.1839   20.4050 N   0  0  0  0  0  0
  -31.7239  -14.7246   20.0567 O   0  0  0  0  0  0
  -21.6651   -6.8871   21.4227 O   0  0  0  0  0  0
  -22.3580  -14.5577   20.6710 O   0  0  0  0  0  0
  -24.6082  -31.8690   23.2115 C   0  0  0  0  0  0
  -25.8988  -32.4826   23.8404 C   0  0  1  0  0  0
  -27.2381  -27.4708   20.0856 C   0  0  0  0  0  0
  -25.5851  -33.8625   24.2330 N   0  0  0  0  0  0
  -23.3937  -30.4936   21.5516 C   0  0  2  0  0  0
  -24.8406  -28.9609   20.1189 C   0  0  0  0  0  0
  -22.7372  -29.4671   22.5011 C   0  0  0  0  0  0
  -18.0278  -28.1348   22.8494 C   0  0  0  0  0  0
  -24.1489  -36.7333   23.2642 C   0  0  0  0  0  0
  -25.9175  -30.8486   21.3550 C   0  0  0  0  0  0
  -25.9990  -29.4842   20.7047 C   0  0  0  0  0  0
  -27.2016  -28.7486   20.6804 C   0  0  0  0  0  0
  -26.0590  -26.9476   19.5062 C   0  0  0  0  0  0
  -24.8634  -27.6902   19.5190 C   0  0  0  0  0  0
  -23.6001  -29.8231   20.1675 C   0  0  0  0  0  0
  -25.4114  -36.3125   24.0339 C   0  0  1  0  0  0
  -20.5849  -28.3640   23.1336 C   0  0  2  0  0  0
  -20.6768  -26.9377   22.5418 C   0  0  0  0  0  0
  -19.5755  -26.6372   21.5208 C   0  0  0  0  0  0
  -18.1947  -26.7899   22.1613 C   0  0  0  0  0  0
  -19.1517  -28.8809   23.2915 C   0  0  0  0  0  0
  -18.9430  -30.1417   23.8918 C   0  0  0  0  0  0
  -17.6424  -30.6544   24.0564 C   0  0  0  0  0  0
  -25.9030  -34.9481   23.5138 C   0  0  0  0  0  0
  -16.5327  -29.9045   23.6301 C   0  0  0  0  0  0
  -16.7262  -28.6470   23.0317 C   0  0  0  0  0  0
  -26.4446  -31.6595   25.0707 C   0  0  0  0  0  0
  -25.3741  -31.3656   26.1468 C   0  0  0  0  0  0
  -27.0267  -30.3059   24.6019 C   0  0  0  0  0  0
  -27.6036  -32.4306   25.7455 C   0  0  0  0  0  0
  -27.5590  -37.1821   24.8467 C   0  0  0  0  0  0
  -21.4104  -29.3029   22.3751 N   0  0  0  0  0  0
  -26.4305  -37.3805   23.9401 N   0  0  0  0  0  0
  -24.6583  -31.0832   22.0991 N   0  0  0  0  0  0
  -23.4171  -28.8211   23.3031 O   0  0  0  0  0  0
  -28.4310  -26.7881   20.0652 O   0  0  0  0  0  0
  -26.5607  -34.8916   22.4712 O   0  0  0  0  0  0
  -23.5290  -32.1420   23.7548 O   0  0  0  0  0  0
  -29.5400  -17.1897   21.2638 C   0  0  0  0  0  0
  -30.0447  -19.0868   22.7083 C   0  0  0  0  0  0
  -30.9684  -16.8876   23.2212 C   0  0  0  0  0  0
  -29.3685  -18.5548   21.5835 C   0  0  0  0  0  0
  -30.3343  -16.3531   22.0818 C   0  0  0  0  0  0
  -30.8333  -18.2548   23.5244 C   0  0  0  0  0  0
  -28.4572  -24.5112   19.1552 C   0  0  0  0  0  0
  -27.7897  -20.4155   21.0585 C   0  0  0  0  0  0
  -28.4166  -23.0022   19.3833 C   0  0  0  0  0  0
  -28.3762  -25.4017   20.4017 C   0  0  0  0  0  0
  -26.9021  -20.9813   19.9451 C   0  0  0  0  0  0
  -27.0080  -22.5099   19.7784 C   0  0  0  0  0  0
  -28.5207  -19.3323   20.7434 N   0  0  0  0  0  0
  -30.3830  -14.9576   21.8545 N   0  0  0  0  0  0
  -28.5495  -24.9779   18.0163 O   0  0  0  0  0  0
  -27.7896  -20.9562   22.1668 O   0  0  0  0  0  0
  -31.4440  -18.7670   24.6192 F   0  0  0  0  0  0
  -31.4674  -12.4367   19.0623 H   0  0  0  0  0  0
  -30.3620  -11.2667   19.7271 H   0  0  0  0  0  0
  -29.7175  -11.8330   17.3793 H   0  0  0  0  0  0
  -29.6374  -13.5310   17.7860 H   0  0  0  0  0  0
  -27.8329  -11.3080   18.8028 H   0  0  0  0  0  0
  -27.3482  -12.6442   17.7928 H   0  0  0  0  0  0
  -27.7371  -14.2475   19.6107 H   0  0  0  0  0  0
  -28.6639  -11.8626   21.2870 H   0  0  0  0  0  0
  -28.4373  -13.4684   21.8885 H   0  0  0  0  0  0
  -25.2734   -9.5734   22.4734 H   0  0  0  0  0  0
  -24.0019   -7.4652   22.7461 H   0  0  0  0  0  0
  -21.0825   -8.8763   19.8943 H   0  0  0  0  0  0
  -22.3651  -10.9667   19.6166 H   0  0  0  0  0  0
  -21.2011   -7.6146   23.9715 H   0  0  0  0  0  0
  -21.1461   -6.0510   25.9068 H   0  0  0  0  0  0
  -22.0614   -2.7605   23.2849 H   0  0  0  0  0  0
  -22.4149  -11.9880   22.4748 H   0  0  0  0  0  0
  -21.1162  -13.1255   22.2604 H   0  0  0  0  0  0
  -24.6861  -15.8491   20.5344 H   0  0  0  0  0  0
  -26.3114  -15.6188   20.1280 H   0  0  0  0  0  0
  -26.7056  -32.5562   23.1177 H   0  0  0  0  0  0
  -24.9982  -33.9808   25.0457 H   0  0  0  0  0  0
  -22.6798  -31.3085   21.4145 H   0  0  0  0  0  0
  -23.3737  -35.9680   23.3326 H   0  0  0  0  0  0
  -24.3584  -36.8926   22.2049 H   0  0  0  0  0  0
  -23.7239  -37.6547   23.6646 H   0  0  0  0  0  0
  -26.0201  -31.6158   20.5861 H   0  0  0  0  0  0
  -26.8065  -30.9062   21.9694 H   0  0  0  0  0  0
  -28.1014  -29.1562   21.1209 H   0  0  0  0  0  0
  -26.0539  -25.9815   19.0233 H   0  0  0  0  0  0
  -23.9710  -27.2832   19.0636 H   0  0  0  0  0  0
  -23.7044  -30.5938   19.4033 H   0  0  0  0  0  0
  -22.7245  -29.2424   19.8730 H   0  0  0  0  0  0
  -25.1288  -36.2020   25.0831 H   0  0  0  0  0  0
  -20.9957  -28.3195   24.1447 H   0  0  0  0  0  0
  -21.6637  -26.7433   22.1197 H   0  0  0  0  0  0
  -20.5663  -26.2237   23.3598 H   0  0  0  0  0  0
  -19.6927  -25.6300   21.1231 H   0  0  0  0  0  0
  -19.6666  -27.3191   20.6742 H   0  0  0  0  0  0
  -17.4231  -26.6646   21.4000 H   0  0  0  0  0  0
  -18.0325  -26.0022   22.8974 H   0  0  0  0  0  0
  -19.7906  -30.7231   24.2281 H   0  0  0  0  0  0
  -17.4956  -31.6223   24.5144 H   0  0  0  0  0  0
  -15.5320  -30.2946   23.7569 H   0  0  0  0  0  0
  -15.8672  -28.0807   22.6984 H   0  0  0  0  0  0
  -24.5915  -30.7004   25.7798 H   0  0  0  0  0  0
  -24.8931  -32.2789   26.4980 H   0  0  0  0  0  0
  -25.8120  -30.8780   27.0187 H   0  0  0  0  0  0
  -26.2776  -29.6817   24.1132 H   0  0  0  0  0  0
  -27.4136  -29.7284   25.4424 H   0  0  0  0  0  0
  -27.8568  -30.4403   23.9079 H   0  0  0  0  0  0
  -27.2668  -33.3584   26.2091 H   0  0  0  0  0  0
  -28.3810  -32.6900   25.0255 H   0  0  0  0  0  0
  -28.0752  -31.8396   26.5316 H   0  0  0  0  0  0
  -28.2621  -38.0107   24.7508 H   0  0  0  0  0  0
  -28.1067  -36.2636   24.6309 H   0  0  0  0  0  0
  -27.2304  -37.1490   25.8869 H   0  0  0  0  0  0
  -20.9268  -29.8759   21.6983 H   0  0  0  0  0  0
  -26.0206  -38.2892   24.1392 H   0  0  0  0  0  0
  -29.0214  -16.7721   20.4129 H   0  0  0  0  0  0
  -29.9637  -20.1299   22.9732 H   0  0  0  0  0  0
  -31.5553  -16.2555   23.8726 H   0  0  0  0  0  0
  -29.1430  -22.7537   20.1573 H   0  0  0  0  0  0
  -28.7476  -22.5027   18.4725 H   0  0  0  0  0  0
  -27.4755  -25.1685   20.9702 H   0  0  0  0  0  0
  -29.2219  -25.1683   21.0491 H   0  0  0  0  0  0
  -25.8701  -20.7250   20.1877 H   0  0  0  0  0  0
  -27.1238  -20.4896   18.9970 H   0  0  0  0  0  0
  -26.2931  -22.8219   19.0142 H   0  0  0  0  0  0
  -26.6860  -22.9896   20.7043 H   0  0  0  0  0  0
  -28.3654  -18.9709   19.8124 H   0  0  0  0  0  0
  -29.7578  -14.4088   22.4255 H   0  0  0  0  0  0
  1 25  1  0  0  0
  1 30  2  0  0  0
  1 84  1  0  0  0
  2  3  1  0  0  0
  2 25  1  0  0  0
  2 88  1  0  0  0
  2 89  1  0  0  0
  3  4  1  0  0  0
  3 90  1  0  0  0
  3 91  1  0  0  0
  4  5  1  0  0  0
  4 92  1  0  0  0
  4 93  1  0  0  0
  5  6  1  0  0  0
  5 26  1  0  0  0
  5 94  1  0  0  0
  6 25  1  0  0  0
  6 95  1  0  0  0
  6 96  1  0  0  0
  7  8  2  0  0  0
  7 26  1  0  0  0
  7 29  1  0  0  0
  8  9  1  0  0  0
  8 22  1  0  0  0
  9 10  1  0  0  0
  9 27  2  0  0  0
 10 11  2  0  0  0
 10 15  1  0  0  0
 11 12  1  0  0  0
 11 97  1  0  0  0
 12 13  2  0  0  0
 12 98  1  0  0  0
 13 14  1  0  0  0
 13 31  1  0  0  0
 14 15  2  0  0  0
 14 99  1  0  0  0
 15100  1  0  0  0
 16 17  2  0  0  0
 16 21  1  0  0  0
 16 31  1  0  0  0
 17 18  1  0  0  0
 17101  1  0  0  0
 18 19  2  0  0  0
 18102  1  0  0  0
 19 20  1  0  0  0
 19 24  1  0  0  0
 20 21  2  0  0  0
 20103  1  0  0  0
 21 23  1  0  0  0
 22 28  1  0  0  0
 22 32  2  0  0  0
 26 27  1  0  0  0
 28104  1  0  0  0
 28105  1  0  0  0
 29106  1  0  0  0
 29107  1  0  0  0
 33 34  1  0  0  0
 33 66  1  0  0  0
 33 70  2  0  0  0
 34 36  1  0  0  0
 34 59  1  0  0  0
 34108  1  0  0  0
 35 44  2  0  0  0
 35 45  1  0  0  0
 35 68  1  0  0  0
 36 56  1  0  0  0
 36109  1  0  0  0
 37 39  1  0  0  0
 37 47  1  0  0  0
 37 66  1  0  0  0
 37110  1  0  0  0
 38 43  2  0  0  0
 38 46  1  0  0  0
 38 47  1  0  0  0
 39 64  1  0  0  0
 39 67  2  0  0  0
 40 52  1  0  0  0
 40 53  2  0  0  0
 40 58  1  0  0  0
 41111  1  0  0  0
 41112  1  0  0  0
 41113  1  0  0  0
 41 48  1  0  0  0
 42 43  1  0  0  0
 42 66  1  0  0  0
 42114  1  0  0  0
 42115  1  0  0  0
 43 44  1  0  0  0
 44116  1  0  0  0
 45 46  2  0  0  0
 45117  1  0  0  0
 46118  1  0  0  0
 47119  1  0  0  0
 47120  1  0  0  0
 48 56  1  0  0  0
 48 65  1  0  0  0
 48121  1  0  0  0
 49 50  1  0  0  0
 49 53  1  0  0  0
 49 64  1  0  0  0
 49122  1  0  0  0
 50 51  1  0  0  0
 50123  1  0  0  0
 50124  1  0  0  0
 51 52  1  0  0  0
 51125  1  0  0  0
 51126  1  0  0  0
 52127  1  0  0  0
 52128  1  0  0  0
 53 54  1  0  0  0
 54 55  2  0  0  0
 54129  1  0  0  0
 55 57  1  0  0  0
 55130  1  0  0  0
 56 69  2  0  0  0
 57 58  2  0  0  0
 57131  1  0  0  0
 58132  1  0  0  0
 59 60  1  0  0  0
 59 61  1  0  0  0
 59 62  1  0  0  0
 60133  1  0  0  0
 60134  1  0  0  0
 60135  1  0  0  0
 61136  1  0  0  0
 61137  1  0  0  0
 61138  1  0  0  0
 62139  1  0  0  0
 62140  1  0  0  0
 62141  1  0  0  0
 63 65  1  0  0  0
 63142  1  0  0  0
 63143  1  0  0  0
 63144  1  0  0  0
 64145  1  0  0  0
 65146  1  0  0  0
 68 80  1  0  0  0
 71 74  2  0  0  0
 71 75  1  0  0  0
 71147  1  0  0  0
 72 74  1  0  0  0
 72 76  2  0  0  0
 72148  1  0  0  0
 73 75  2  0  0  0
 73 76  1  0  0  0
 73149  1  0  0  0
 74 83  1  0  0  0
 75 84  1  0  0  0
 76 87  1  0  0  0
 77 79  1  0  0  0
 77 80  1  0  0  0
 77 85  2  0  0  0
 78 81  1  0  0  0
 78 83  1  0  0  0
 78 86  2  0  0  0
 79 82  1  0  0  0
 79150  1  0  0  0
 79151  1  0  0  0
 80152  1  0  0  0
 80153  1  0  0  0
 81 82  1  0  0  0
 81154  1  0  0  0
 81155  1  0  0  0
 82156  1  0  0  0
 82157  1  0  0  0
 83158  1  0  0  0
 84159  1  0  0  0
M  ISO  4   1 100  68 101  80 101  84 100
M  END
> <chiral flag>
0

> <version>
0

> <s_m_source_file>
/data/baiqing/PycharmProjects/Reinvent-master-3.2/result/LINK_invent/BTK/process_docking_weight1_custom_product_contain_oxygen_bond_distance_aromatic_linkinvent_7_9_3/rearranged_h_0143.sdf

> <i_m_source_file_index>
57

> <r_mmod_Potential_Energy-OPLS-2005>
-37.2622680664062

> <r_mmod_Stretch_Energy-OPLS-2005>
32.2795562744141

> <r_mmod_Bend_Energy-OPLS-2005>
92.9004592895508

> <r_mmod_Torsional_Energy-OPLS-2005>
254.906051635742

> <r_mmod_Improper_Torsional_Energy-OPLS-2005>
5.24450826644897

> <r_mmod_Van_der_Waal_Energy-OPLS-2005>
152.425415039062

> <r_mmod_Electrostatic_Energy-OPLS-2005>
-331.842956542969

> <r_mmod_Solvation_Energy-OPLS-2005>
-251.403854370117

> <b_mmod_Minimization_Converged-OPLS-2005>
0

> <r_mmod_RMS_Derivative-OPLS-2005>
2.22191166877747

$$$$
57
                    3D
 Structure written by MMmdl.
155164  0  0  1  0            999 V2000
  -30.6698  -14.5239   20.5346 C   0  0  0  0  0  0
  -30.4273  -12.3255   19.4346 C   0  0  0  0  0  0
  -29.5014  -12.5025   18.2124 C   0  0  0  0  0  0
  -28.0217  -12.3581   18.6216 C   0  0  0  0  0  0
  -27.6592  -13.2074   19.8696 C   0  0  2  0  0  0
  -28.7009  -13.0114   20.9949 C   0  0  0  0  0  0
  -25.2582  -13.8157   20.5668 C   0  0  0  0  0  0
  -24.1837  -13.0437   20.9179 C   0  0  0  0  0  0
  -24.6389  -11.6903   20.8727 C   0  0  0  0  0  0
  -23.9055  -10.4292   21.0400 C   0  0  0  0  0  0
  -24.3608   -9.4210   21.9177 C   0  0  0  0  0  0
  -23.6286   -8.2246   22.0753 C   0  0  0  0  0  0
  -22.4267   -8.0281   21.3549 C   0  0  0  0  0  0
  -21.9897   -9.0255   20.4650 C   0  0  0  0  0  0
  -22.7225  -10.2133   20.3054 C   0  0  0  0  0  0
  -21.6853   -6.0730   22.5277 C   0  0  0  0  0  0
  -21.4017   -6.5633   23.8210 C   0  0  0  0  0  0
  -21.3659   -5.6789   24.9174 C   0  0  0  0  0  0
  -21.6042   -4.3053   24.7227 C   0  0  0  0  0  0
  -21.8818   -3.8142   23.4349 C   0  0  0  0  0  0
  -21.9195   -4.6958   22.3405 C   0  0  0  0  0  0
  -22.7861  -13.5241   21.1842 C   0  0  0  0  0  0
  -22.1662   -4.2141   21.0981 F   0  0  0  0  0  0
  -21.5629   -3.4537   25.7742 F   0  0  0  0  0  0
  -30.0284  -13.3245   20.4404 N   0  0  0  0  0  0
  -26.3010  -12.9322   20.3326 N   0  0  0  0  0  0
  -25.9312  -11.6486   20.5742 N   0  0  0  0  0  0
  -22.0497  -12.8246   22.0403 N   0  0  0  0  0  0
  -25.4302  -15.1872   20.4053 N   0  0  0  0  0  0
  -31.8178  -14.6836   20.1097 O   0  0  0  0  0  0
  -21.6638   -6.8873   21.4240 O   0  0  0  0  0  0
  -22.3553  -14.5549   20.6690 O   0  0  0  0  0  0
  -24.6172  -31.8660   23.2075 C   0  0  0  0  0  0
  -25.9051  -32.4809   23.8386 C   0  0  1  0  0  0
  -27.2310  -27.4072   20.1098 C   0  0  0  0  0  0
  -25.5893  -33.8607   24.2313 N   0  0  0  0  0  0
  -23.4076  -30.4890   21.5481 C   0  0  2  0  0  0
  -24.8554  -28.9529   20.1119 C   0  0  0  0  0  0
  -22.7431  -29.4652   22.4972 C   0  0  0  0  0  0
  -18.0280  -28.1385   22.8494 C   0  0  0  0  0  0
  -24.1486  -36.7311   23.2640 C   0  0  0  0  0  0
  -25.9391  -30.8244   21.3651 C   0  0  0  0  0  0
  -26.0176  -29.4583   20.7093 C   0  0  0  0  0  0
  -27.2123  -28.6955   20.6994 C   0  0  0  0  0  0
  -26.0548  -26.9263   19.4965 C   0  0  0  0  0  0
  -24.8708  -27.6879   19.4988 C   0  0  0  0  0  0
  -23.6175  -29.8214   20.1630 C   0  0  0  0  0  0
  -25.4103  -36.3102   24.0341 C   0  0  1  0  0  0
  -20.5874  -28.3675   23.1313 C   0  0  2  0  0  0
  -20.6769  -26.9404   22.5426 C   0  0  0  0  0  0
  -19.5746  -26.6388   21.5222 C   0  0  0  0  0  0
  -18.1924  -26.7931   22.1627 C   0  0  0  0  0  0
  -19.1531  -28.8846   23.2903 C   0  0  0  0  0  0
  -18.9454  -30.1452   23.8912 C   0  0  0  0  0  0
  -17.6455  -30.6585   24.0573 C   0  0  0  0  0  0
  -25.9035  -34.9469   23.5126 C   0  0  0  0  0  0
  -16.5348  -29.9088   23.6326 C   0  0  0  0  0  0
  -16.7270  -28.6509   23.0341 C   0  0  0  0  0  0
  -26.4466  -31.6597   25.0729 C   0  0  0  0  0  0
  -25.3721  -31.3724   26.1476 C   0  0  0  0  0  0
  -27.0302  -30.3034   24.6134 C   0  0  0  0  0  0
  -27.6048  -32.4319   25.7480 C   0  0  0  0  0  0
  -27.5580  -37.1805   24.8460 C   0  0  0  0  0  0
  -21.4157  -29.3035   22.3711 N   0  0  0  0  0  0
  -26.4288  -37.3786   23.9413 N   0  0  0  0  0  0
  -24.6728  -31.0744   22.0983 N   0  0  0  0  0  0
  -23.4192  -28.8202   23.3030 O   0  0  0  0  0  0
  -28.3641  -26.6126   20.1349 O   0  0  0  0  0  0
  -26.5604  -34.8924   22.4693 O   0  0  0  0  0  0
  -23.5356  -32.1421   23.7454 O   0  0  0  0  0  0
  -31.4420  -19.0162   20.4779 C   0  0  0  0  0  0
  -31.3324  -17.6100   20.6330 C   0  0  0  0  0  0
  -28.9079  -17.8030   20.8677 C   0  0  0  0  0  0
  -30.2721  -19.7981   20.5139 C   0  0  0  0  0  0
  -29.0399  -19.2043   20.7085 C   0  0  0  0  0  0
  -30.0678  -16.9772   20.8165 C   0  0  0  0  0  0
  -28.0143  -22.7458   20.3903 C   0  0  0  0  0  0
  -30.1243  -21.3036   20.3674 C   0  0  0  0  0  0
  -27.9653  -20.2694   20.7108 C   0  0  0  0  0  0
  -28.7480  -24.0782   20.0564 C   0  0  0  0  0  0
  -28.1994  -25.3369   20.8116 C   0  0  0  0  0  0
  -28.6721  -21.5553   20.4835 N   0  0  0  0  0  0
  -29.9021  -15.5526   20.9754 N   0  0  0  0  0  0
  -26.7879  -22.7847   20.5341 O   0  0  0  0  0  0
  -31.4723  -12.4248   19.1363 H   0  0  0  0  0  0
  -30.3306  -11.3197   19.8461 H   0  0  0  0  0  0
  -29.7496  -11.7710   17.4424 H   0  0  0  0  0  0
  -29.6657  -13.4840   17.7645 H   0  0  0  0  0  0
  -27.8374  -11.3028   18.8265 H   0  0  0  0  0  0
  -27.3730  -12.6220   17.7852 H   0  0  0  0  0  0
  -27.6959  -14.2511   19.5572 H   0  0  0  0  0  0
  -28.6855  -11.9800   21.3506 H   0  0  0  0  0  0
  -28.4585  -13.6228   21.8657 H   0  0  0  0  0  0
  -25.2755   -9.5687   22.4750 H   0  0  0  0  0  0
  -23.9997   -7.4637   22.7470 H   0  0  0  0  0  0
  -21.0828   -8.8769   19.8960 H   0  0  0  0  0  0
  -22.3677  -10.9671   19.6163 H   0  0  0  0  0  0
  -21.2008   -7.6141   23.9711 H   0  0  0  0  0  0
  -21.1481   -6.0520   25.9077 H   0  0  0  0  0  0
  -22.0598   -2.7604   23.2854 H   0  0  0  0  0  0
  -22.4105  -11.9911   22.4805 H   0  0  0  0  0  0
  -21.1116  -13.1282   22.2603 H   0  0  0  0  0  0
  -24.6583  -15.8382   20.5007 H   0  0  0  0  0  0
  -26.2687  -15.6197   20.0402 H   0  0  0  0  0  0
  -26.7129  -32.5512   23.1153 H   0  0  0  0  0  0
  -25.0031  -33.9760   25.0450 H   0  0  0  0  0  0
  -22.6977  -31.3065   21.4079 H   0  0  0  0  0  0
  -23.3741  -35.9652   23.3309 H   0  0  0  0  0  0
  -24.3583  -36.8916   22.2054 H   0  0  0  0  0  0
  -23.7247  -37.6521   23.6652 H   0  0  0  0  0  0
  -26.0580  -31.5913   20.5985 H   0  0  0  0  0  0
  -26.8239  -30.8748   21.9880 H   0  0  0  0  0  0
  -28.1081  -29.0786   21.1678 H   0  0  0  0  0  0
  -26.0507  -25.9518   19.0279 H   0  0  0  0  0  0
  -23.9787  -27.2930   19.0327 H   0  0  0  0  0  0
  -23.7266  -30.5965   19.4036 H   0  0  0  0  0  0
  -22.7409  -29.2425   19.8671 H   0  0  0  0  0  0
  -25.1278  -36.1967   25.0834 H   0  0  0  0  0  0
  -20.9971  -28.3246   24.1431 H   0  0  0  0  0  0
  -20.5669  -26.2280   23.3618 H   0  0  0  0  0  0
  -21.6639  -26.7443   22.1220 H   0  0  0  0  0  0
  -19.6904  -25.6302   21.1243 H   0  0  0  0  0  0
  -19.6686  -27.3207   20.6760 H   0  0  0  0  0  0
  -17.4198  -26.6691   21.4025 H   0  0  0  0  0  0
  -18.0312  -26.0072   22.9018 H   0  0  0  0  0  0
  -19.7930  -30.7269   24.2283 H   0  0  0  0  0  0
  -17.5007  -31.6262   24.5179 H   0  0  0  0  0  0
  -15.5348  -30.2990   23.7642 H   0  0  0  0  0  0
  -15.8673  -28.0837   22.7033 H   0  0  0  0  0  0
  -24.5883  -30.7081   25.7818 H   0  0  0  0  0  0
  -24.8922  -32.2887   26.4927 H   0  0  0  0  0  0
  -25.8058  -30.8891   27.0238 H   0  0  0  0  0  0
  -26.2863  -29.6795   24.1165 H   0  0  0  0  0  0
  -27.4031  -29.7276   25.4615 H   0  0  0  0  0  0
  -27.8714  -30.4346   23.9323 H   0  0  0  0  0  0
  -27.2674  -33.3605   26.2101 H   0  0  0  0  0  0
  -28.3825  -32.6902   25.0281 H   0  0  0  0  0  0
  -28.0755  -31.8419   26.5354 H   0  0  0  0  0  0
  -28.2604  -38.0095   24.7503 H   0  0  0  0  0  0
  -28.1068  -36.2629   24.6284 H   0  0  0  0  0  0
  -27.2308  -37.1465   25.8866 H   0  0  0  0  0  0
  -20.9321  -29.8743   21.6920 H   0  0  0  0  0  0
  -26.0178  -38.2868   24.1402 H   0  0  0  0  0  0
  -32.4095  -19.4775   20.3364 H   0  0  0  0  0  0
  -32.2439  -17.0316   20.6134 H   0  0  0  0  0  0
  -27.9276  -17.3715   21.0161 H   0  0  0  0  0  0
  -30.5053  -21.6348   19.4005 H   0  0  0  0  0  0
  -30.6716  -21.8178   21.1585 H   0  0  0  0  0  0
  -27.4387  -20.2780   21.6661 H   0  0  0  0  0  0
  -27.2425  -20.0786   19.9164 H   0  0  0  0  0  0
  -28.6223  -24.2327   18.9852 H   0  0  0  0  0  0
  -29.8204  -23.9885   20.2256 H   0  0  0  0  0  0
  -28.7332  -25.4171   21.7590 H   0  0  0  0  0  0
  -27.1603  -25.1849   21.1072 H   0  0  0  0  0  0
  -28.9870  -15.2585   21.2797 H   0  0  0  0  0  0
  1 25  1  0  0  0
  1 30  2  0  0  0
  1 83  1  0  0  0
  2  3  1  0  0  0
  2 25  1  0  0  0
  2 85  1  0  0  0
  2 86  1  0  0  0
  3  4  1  0  0  0
  3 87  1  0  0  0
  3 88  1  0  0  0
  4  5  1  0  0  0
  4 89  1  0  0  0
  4 90  1  0  0  0
  5  6  1  0  0  0
  5 26  1  0  0  0
  5 91  1  0  0  0
  6 25  1  0  0  0
  6 92  1  0  0  0
  6 93  1  0  0  0
  7  8  2  0  0  0
  7 26  1  0  0  0
  7 29  1  0  0  0
  8  9  1  0  0  0
  8 22  1  0  0  0
  9 10  1  0  0  0
  9 27  2  0  0  0
 10 11  2  0  0  0
 10 15  1  0  0  0
 11 12  1  0  0  0
 11 94  1  0  0  0
 12 13  2  0  0  0
 12 95  1  0  0  0
 13 14  1  0  0  0
 13 31  1  0  0  0
 14 15  2  0  0  0
 14 96  1  0  0  0
 15 97  1  0  0  0
 16 17  2  0  0  0
 16 21  1  0  0  0
 16 31  1  0  0  0
 17 18  1  0  0  0
 17 98  1  0  0  0
 18 19  2  0  0  0
 18 99  1  0  0  0
 19 20  1  0  0  0
 19 24  1  0  0  0
 20 21  2  0  0  0
 20100  1  0  0  0
 21 23  1  0  0  0
 22 28  1  0  0  0
 22 32  2  0  0  0
 26 27  1  0  0  0
 28101  1  0  0  0
 28102  1  0  0  0
 29103  1  0  0  0
 29104  1  0  0  0
 33 34  1  0  0  0
 33 66  1  0  0  0
 33 70  2  0  0  0
 34 36  1  0  0  0
 34 59  1  0  0  0
 34105  1  0  0  0
 35 44  2  0  0  0
 35 45  1  0  0  0
 35 68  1  0  0  0
 36 56  1  0  0  0
 36106  1  0  0  0
 37 39  1  0  0  0
 37 47  1  0  0  0
 37 66  1  0  0  0
 37107  1  0  0  0
 38 43  2  0  0  0
 38 46  1  0  0  0
 38 47  1  0  0  0
 39 64  1  0  0  0
 39 67  2  0  0  0
 40 52  1  0  0  0
 40 53  2  0  0  0
 40 58  1  0  0  0
 41108  1  0  0  0
 41109  1  0  0  0
 41110  1  0  0  0
 41 48  1  0  0  0
 42 43  1  0  0  0
 42 66  1  0  0  0
 42111  1  0  0  0
 42112  1  0  0  0
 43 44  1  0  0  0
 44113  1  0  0  0
 45 46  2  0  0  0
 45114  1  0  0  0
 46115  1  0  0  0
 47116  1  0  0  0
 47117  1  0  0  0
 48 56  1  0  0  0
 48 65  1  0  0  0
 48118  1  0  0  0
 49 50  1  0  0  0
 49 53  1  0  0  0
 49 64  1  0  0  0
 49119  1  0  0  0
 50 51  1  0  0  0
 50120  1  0  0  0
 50121  1  0  0  0
 51 52  1  0  0  0
 51122  1  0  0  0
 51123  1  0  0  0
 52124  1  0  0  0
 52125  1  0  0  0
 53 54  1  0  0  0
 54 55  2  0  0  0
 54126  1  0  0  0
 55 57  1  0  0  0
 55127  1  0  0  0
 56 69  2  0  0  0
 57 58  2  0  0  0
 57128  1  0  0  0
 58129  1  0  0  0
 59 60  1  0  0  0
 59 61  1  0  0  0
 59 62  1  0  0  0
 60130  1  0  0  0
 60131  1  0  0  0
 60132  1  0  0  0
 61133  1  0  0  0
 61134  1  0  0  0
 61135  1  0  0  0
 62136  1  0  0  0
 62137  1  0  0  0
 62138  1  0  0  0
 63 65  1  0  0  0
 63139  1  0  0  0
 63140  1  0  0  0
 63141  1  0  0  0
 64142  1  0  0  0
 65143  1  0  0  0
 68 81  1  0  0  0
 71 72  2  0  0  0
 71 74  1  0  0  0
 71144  1  0  0  0
 72 76  1  0  0  0
 72145  1  0  0  0
 73 75  1  0  0  0
 73 76  2  0  0  0
 73146  1  0  0  0
 74 75  2  0  0  0
 74 78  1  0  0  0
 75 79  1  0  0  0
 76 83  1  0  0  0
 77 80  1  0  0  0
 77 82  1  0  0  0
 77 84  2  0  0  0
 78 82  1  0  0  0
 78147  1  0  0  0
 78148  1  0  0  0
 79 82  1  0  0  0
 79149  1  0  0  0
 79150  1  0  0  0
 80 81  1  0  0  0
 80151  1  0  0  0
 80152  1  0  0  0
 81153  1  0  0  0
 81154  1  0  0  0
 83155  1  0  0  0
M  ISO  4   1 100  68 101  81 101  83 100
M  END
> <chiral flag>
0

> <version>
0

> <s_m_source_file>
/data/baiqing/PycharmProjects/Reinvent-master-3.2/result/LINK_invent/BTK/process_docking_weight1_custom_product_contain_oxygen_bond_distance_aromatic_linkinvent_7_9_3/rearranged_h_0143.sdf

> <i_m_source_file_index>
58

> <r_mmod_Potential_Energy-OPLS-2005>
-25.6879806518555

> <r_mmod_Stretch_Energy-OPLS-2005>
49.4205474853516

> <r_mmod_Bend_Energy-OPLS-2005>
148.472259521484

> <r_mmod_Torsional_Energy-OPLS-2005>
241.059951782227

> <r_mmod_Improper_Torsional_Energy-OPLS-2005>
4.45749616622925

> <r_mmod_Van_der_Waal_Energy-OPLS-2005>
149.147491455078

> <r_mmod_Electrostatic_Energy-OPLS-2005>
-402.364837646484

> <r_mmod_Solvation_Energy-OPLS-2005>
-235.971466064453

> <b_mmod_Minimization_Converged-OPLS-2005>
0

> <r_mmod_RMS_Derivative-OPLS-2005>
0.720223724842072

$$$$
58
                    3D
 Structure written by MMmdl.
169178  0  0  1  0            999 V2000
  -30.7485  -14.5378   20.5413 C   0  0  0  0  0  0
  -30.3848  -12.3426   19.4428 C   0  0  0  0  0  0
  -29.4753  -12.5005   18.2083 C   0  0  0  0  0  0
  -28.0008  -12.3566   18.6253 C   0  0  0  0  0  0
  -27.6426  -13.2314   19.8580 C   0  0  2  0  0  0
  -28.6903  -13.1087   20.9886 C   0  0  0  0  0  0
  -25.2501  -13.8223   20.5696 C   0  0  0  0  0  0
  -24.1786  -13.0455   20.9212 C   0  0  0  0  0  0
  -24.6387  -11.6931   20.8756 C   0  0  0  0  0  0
  -23.9084  -10.4297   21.0415 C   0  0  0  0  0  0
  -24.3627   -9.4210   21.9192 C   0  0  0  0  0  0
  -23.6300   -8.2236   22.0764 C   0  0  0  0  0  0
  -22.4292   -8.0279   21.3548 C   0  0  0  0  0  0
  -21.9921   -9.0248   20.4650 C   0  0  0  0  0  0
  -22.7253  -10.2138   20.3066 C   0  0  0  0  0  0
  -21.6848   -6.0743   22.5279 C   0  0  0  0  0  0
  -21.4008   -6.5653   23.8222 C   0  0  0  0  0  0
  -21.3669   -5.6807   24.9173 C   0  0  0  0  0  0
  -21.6048   -4.3059   24.7226 C   0  0  0  0  0  0
  -21.8823   -3.8158   23.4348 C   0  0  0  0  0  0
  -21.9183   -4.6979   22.3394 C   0  0  0  0  0  0
  -22.7814  -13.5232   21.1864 C   0  0  0  0  0  0
  -22.1658   -4.2162   21.0982 F   0  0  0  0  0  0
  -21.5627   -3.4552   25.7739 F   0  0  0  0  0  0
  -30.0114  -13.3907   20.4131 N   0  0  0  0  0  0
  -26.2934  -12.9446   20.3345 N   0  0  0  0  0  0
  -25.9324  -11.6571   20.5803 N   0  0  0  0  0  0
  -22.0478  -12.8179   22.0418 N   0  0  0  0  0  0
  -25.4190  -15.1944   20.4096 N   0  0  0  0  0  0
  -31.8901  -14.5940   20.0803 O   0  0  0  0  0  0
  -21.6643   -6.8887   21.4242 O   0  0  0  0  0  0
  -22.3480  -14.5515   20.6725 O   0  0  0  0  0  0
  -24.6158  -31.8616   23.2056 C   0  0  0  0  0  0
  -25.9012  -32.4788   23.8379 C   0  0  1  0  0  0
  -27.2538  -27.3815   20.1425 C   0  0  0  0  0  0
  -25.5840  -33.8580   24.2302 N   0  0  0  0  0  0
  -23.4157  -30.4795   21.5389 C   0  0  2  0  0  0
  -24.8756  -28.9402   20.1123 C   0  0  0  0  0  0
  -22.7454  -29.4611   22.4909 C   0  0  0  0  0  0
  -18.0274  -28.1345   22.8380 C   0  0  0  0  0  0
  -24.1544  -36.7303   23.2660 C   0  0  0  0  0  0
  -25.9499  -30.8180   21.3692 C   0  0  0  0  0  0
  -26.0343  -29.4500   20.7091 C   0  0  0  0  0  0
  -27.2276  -28.6852   20.7014 C   0  0  0  0  0  0
  -26.0750  -26.9018   19.5214 C   0  0  0  0  0  0
  -24.8940  -27.6698   19.5072 C   0  0  0  0  0  0
  -23.6384  -29.8069   20.1559 C   0  0  0  0  0  0
  -25.4168  -36.3115   24.0345 C   0  0  1  0  0  0
  -20.5868  -28.3638   23.1259 C   0  0  2  0  0  0
  -20.6760  -26.9365   22.5386 C   0  0  0  0  0  0
  -19.5770  -26.6338   21.5128 C   0  0  0  0  0  0
  -18.1950  -26.7869   22.1537 C   0  0  0  0  0  0
  -19.1518  -28.8820   23.2783 C   0  0  0  0  0  0
  -18.9463  -30.1384   23.8845 C   0  0  0  0  0  0
  -17.6482  -30.6530   24.0535 C   0  0  0  0  0  0
  -25.9073  -34.9472   23.5151 C   0  0  0  0  0  0
  -16.5373  -29.9032   23.6310 C   0  0  0  0  0  0
  -16.7264  -28.6463   23.0298 C   0  0  0  0  0  0
  -26.4438  -31.6609   25.0751 C   0  0  0  0  0  0
  -25.3664  -31.3705   26.1492 C   0  0  0  0  0  0
  -27.0362  -30.3075   24.6166 C   0  0  0  0  0  0
  -27.6044  -32.4335   25.7460 C   0  0  0  0  0  0
  -27.5627  -37.1810   24.8462 C   0  0  0  0  0  0
  -21.4155  -29.3034   22.3669 N   0  0  0  0  0  0
  -26.4370  -37.3777   23.9377 N   0  0  0  0  0  0
  -24.6767  -31.0721   22.0965 N   0  0  0  0  0  0
  -23.4211  -28.8142   23.2955 O   0  0  0  0  0  0
  -28.4087  -26.6140   20.2400 O   0  0  0  0  0  0
  -26.5666  -34.8924   22.4729 O   0  0  0  0  0  0
  -23.5314  -32.1334   23.7442 O   0  0  0  0  0  0
  -32.8861  -18.1108   21.9375 C   0  0  0  0  0  0
  -32.1345  -16.9321   21.7811 C   0  0  0  0  0  0
  -30.1980  -18.2341   21.0260 C   0  0  0  0  0  0
  -32.3088  -19.3396   21.5862 C   0  0  0  0  0  0
  -30.9780  -19.4299   21.1785 C   0  0  0  0  0  0
  -30.8080  -16.9490   21.2710 C   0  0  0  0  0  0
  -29.6411  -21.5965   20.8159 C   0  0  0  0  0  0
  -32.0985  -21.4065   20.6892 C   0  0  0  0  0  0
  -27.5229  -25.0211   21.8896 C   0  0  0  0  0  0
  -30.6617  -25.2077   19.6334 C   0  0  0  0  0  0
  -30.3563  -24.4898   21.9861 C   0  0  0  0  0  0
  -34.4236  -20.5698   21.3195 C   0  0  0  0  0  0
  -29.6369  -22.9343   19.9767 C   0  0  0  0  0  0
  -28.3009  -25.1873   20.5599 C   0  0  2  0  0  0
  -29.7068  -24.4222   20.5756 C   0  0  0  0  0  0
  -30.7649  -20.8058   20.8017 N   0  0  0  0  0  0
  -32.9753  -20.5666   21.5132 N   0  0  0  0  0  0
  -30.1488  -15.6741   21.0136 N   0  0  0  0  0  0
  -28.5978  -21.2484   21.3819 O   0  0  0  0  0  0
  -31.4359  -12.3745   19.1464 H   0  0  0  0  0  0
  -30.2364  -11.3582   19.8888 H   0  0  0  0  0  0
  -29.7181  -11.7537   17.4503 H   0  0  0  0  0  0
  -29.6309  -13.4766   17.7442 H   0  0  0  0  0  0
  -27.8209  -11.3039   18.8488 H   0  0  0  0  0  0
  -27.3452  -12.6012   17.7906 H   0  0  0  0  0  0
  -27.6550  -14.2652   19.5073 H   0  0  0  0  0  0
  -28.6825  -12.1050   21.4165 H   0  0  0  0  0  0
  -28.4585  -13.7923   21.8062 H   0  0  0  0  0  0
  -25.2774   -9.5672   22.4770 H   0  0  0  0  0  0
  -24.0012   -7.4628   22.7482 H   0  0  0  0  0  0
  -21.0871   -8.8784   19.8935 H   0  0  0  0  0  0
  -22.3735  -10.9682   19.6175 H   0  0  0  0  0  0
  -21.2015   -7.6165   23.9721 H   0  0  0  0  0  0
  -21.1488   -6.0539   25.9082 H   0  0  0  0  0  0
  -22.0593   -2.7620   23.2845 H   0  0  0  0  0  0
  -22.4133  -11.9831   22.4746 H   0  0  0  0  0  0
  -21.1099  -13.1183   22.2687 H   0  0  0  0  0  0
  -24.6496  -15.8482   20.5153 H   0  0  0  0  0  0
  -26.2695  -15.6342   20.0803 H   0  0  0  0  0  0
  -26.7078  -32.5506   23.1155 H   0  0  0  0  0  0
  -24.9866  -33.9698   25.0365 H   0  0  0  0  0  0
  -22.7067  -31.2944   21.3901 H   0  0  0  0  0  0
  -23.3805  -35.9625   23.3304 H   0  0  0  0  0  0
  -24.3625  -36.8926   22.2060 H   0  0  0  0  0  0
  -23.7274  -37.6503   23.6692 H   0  0  0  0  0  0
  -26.0773  -31.5865   20.6037 H   0  0  0  0  0  0
  -26.8261  -30.8653   22.0040 H   0  0  0  0  0  0
  -28.1274  -29.0727   21.1621 H   0  0  0  0  0  0
  -26.0438  -25.9281   19.0547 H   0  0  0  0  0  0
  -24.0049  -27.2710   19.0369 H   0  0  0  0  0  0
  -23.7537  -30.5802   19.3941 H   0  0  0  0  0  0
  -22.7638  -29.2254   19.8616 H   0  0  0  0  0  0
  -25.1340  -36.2014   25.0826 H   0  0  0  0  0  0
  -20.9920  -28.3242   24.1377 H   0  0  0  0  0  0
  -20.5685  -26.2216   23.3563 H   0  0  0  0  0  0
  -21.6633  -26.7369   22.1189 H   0  0  0  0  0  0
  -19.6984  -25.6247   21.1153 H   0  0  0  0  0  0
  -19.6816  -27.3140   20.6669 H   0  0  0  0  0  0
  -17.4229  -26.6522   21.3957 H   0  0  0  0  0  0
  -18.0360  -26.0071   22.8996 H   0  0  0  0  0  0
  -19.7994  -30.7068   24.2313 H   0  0  0  0  0  0
  -17.5107  -31.6248   24.5076 H   0  0  0  0  0  0
  -15.5372  -30.2932   23.7718 H   0  0  0  0  0  0
  -15.8632  -28.0778   22.7059 H   0  0  0  0  0  0
  -24.5792  -30.7147   25.7747 H   0  0  0  0  0  0
  -24.8908  -32.2860   26.5014 H   0  0  0  0  0  0
  -25.7931  -30.8751   27.0217 H   0  0  0  0  0  0
  -26.2960  -29.6719   24.1329 H   0  0  0  0  0  0
  -27.4264  -29.7432   25.4636 H   0  0  0  0  0  0
  -27.8683  -30.4403   23.9261 H   0  0  0  0  0  0
  -27.2706  -33.3626   26.2036 H   0  0  0  0  0  0
  -28.3785  -32.6868   25.0219 H   0  0  0  0  0  0
  -28.0777  -31.8471   26.5331 H   0  0  0  0  0  0
  -28.2629  -38.0142   24.7539 H   0  0  0  0  0  0
  -28.1156  -36.2664   24.6271 H   0  0  0  0  0  0
  -27.2317  -37.1348   25.8864 H   0  0  0  0  0  0
  -20.9369  -29.8769   21.6867 H   0  0  0  0  0  0
  -26.0296  -38.2873   24.1365 H   0  0  0  0  0  0
  -33.9113  -18.0460   22.2737 H   0  0  0  0  0  0
  -32.6223  -15.9964   22.0178 H   0  0  0  0  0  0
  -29.1915  -18.2979   20.6436 H   0  0  0  0  0  0
  -32.1457  -22.4334   21.0352 H   0  0  0  0  0  0
  -32.4213  -21.3853   19.6470 H   0  0  0  0  0  0
  -27.5033  -23.9759   22.2016 H   0  0  0  0  0  0
  -26.4824  -25.3424   21.8151 H   0  0  0  0  0  0
  -27.9758  -25.6066   22.6912 H   0  0  0  0  0  0
  -31.6627  -24.7732   19.6135 H   0  0  0  0  0  0
  -30.7933  -26.2454   19.9346 H   0  0  0  0  0  0
  -30.2992  -25.2198   18.6029 H   0  0  0  0  0  0
  -31.3891  -24.1532   22.0024 H   0  0  0  0  0  0
  -29.8201  -23.8910   22.7206 H   0  0  0  0  0  0
  -30.3820  -25.5167   22.3537 H   0  0  0  0  0  0
  -34.7194  -19.9231   20.4912 H   0  0  0  0  0  0
  -34.9367  -20.2240   22.2201 H   0  0  0  0  0  0
  -34.7866  -21.5780   21.1048 H   0  0  0  0  0  0
  -28.7545  -22.8672   19.3395 H   0  0  0  0  0  0
  -30.4323  -22.8208   19.2411 H   0  0  0  0  0  0
  -27.7093  -24.7336   19.7716 H   0  0  0  0  0  0
  -29.1486  -15.6380   21.1345 H   0  0  0  0  0  0
  1 25  1  0  0  0
  1 30  2  0  0  0
  1 88  1  0  0  0
  2  3  1  0  0  0
  2 25  1  0  0  0
  2 90  1  0  0  0
  2 91  1  0  0  0
  3  4  1  0  0  0
  3 92  1  0  0  0
  3 93  1  0  0  0
  4  5  1  0  0  0
  4 94  1  0  0  0
  4 95  1  0  0  0
  5  6  1  0  0  0
  5 26  1  0  0  0
  5 96  1  0  0  0
  6 25  1  0  0  0
  6 97  1  0  0  0
  6 98  1  0  0  0
  7  8  2  0  0  0
  7 26  1  0  0  0
  7 29  1  0  0  0
  8  9  1  0  0  0
  8 22  1  0  0  0
  9 10  1  0  0  0
  9 27  2  0  0  0
 10 11  2  0  0  0
 10 15  1  0  0  0
 11 12  1  0  0  0
 11 99  1  0  0  0
 12 13  2  0  0  0
 12100  1  0  0  0
 13 14  1  0  0  0
 13 31  1  0  0  0
 14 15  2  0  0  0
 14101  1  0  0  0
 15102  1  0  0  0
 16 17  2  0  0  0
 16 21  1  0  0  0
 16 31  1  0  0  0
 17 18  1  0  0  0
 17103  1  0  0  0
 18 19  2  0  0  0
 18104  1  0  0  0
 19 20  1  0  0  0
 19 24  1  0  0  0
 20 21  2  0  0  0
 20105  1  0  0  0
 21 23  1  0  0  0
 22 28  1  0  0  0
 22 32  2  0  0  0
 26 27  1  0  0  0
 28106  1  0  0  0
 28107  1  0  0  0
 29108  1  0  0  0
 29109  1  0  0  0
 33 34  1  0  0  0
 33 66  1  0  0  0
 33 70  2  0  0  0
 34 36  1  0  0  0
 34 59  1  0  0  0
 34110  1  0  0  0
 35 44  2  0  0  0
 35 45  1  0  0  0
 35 68  1  0  0  0
 36 56  1  0  0  0
 36111  1  0  0  0
 37 39  1  0  0  0
 37 47  1  0  0  0
 37 66  1  0  0  0
 37112  1  0  0  0
 38 43  2  0  0  0
 38 46  1  0  0  0
 38 47  1  0  0  0
 39 64  1  0  0  0
 39 67  2  0  0  0
 40 52  1  0  0  0
 40 53  2  0  0  0
 40 58  1  0  0  0
 41113  1  0  0  0
 41114  1  0  0  0
 41115  1  0  0  0
 41 48  1  0  0  0
 42 43  1  0  0  0
 42 66  1  0  0  0
 42116  1  0  0  0
 42117  1  0  0  0
 43 44  1  0  0  0
 44118  1  0  0  0
 45 46  2  0  0  0
 45119  1  0  0  0
 46120  1  0  0  0
 47121  1  0  0  0
 47122  1  0  0  0
 48 56  1  0  0  0
 48 65  1  0  0  0
 48123  1  0  0  0
 49 50  1  0  0  0
 49 53  1  0  0  0
 49 64  1  0  0  0
 49124  1  0  0  0
 50 51  1  0  0  0
 50125  1  0  0  0
 50126  1  0  0  0
 51 52  1  0  0  0
 51127  1  0  0  0
 51128  1  0  0  0
 52129  1  0  0  0
 52130  1  0  0  0
 53 54  1  0  0  0
 54 55  2  0  0  0
 54131  1  0  0  0
 55 57  1  0  0  0
 55132  1  0  0  0
 56 69  2  0  0  0
 57 58  2  0  0  0
 57133  1  0  0  0
 58134  1  0  0  0
 59 60  1  0  0  0
 59 61  1  0  0  0
 59 62  1  0  0  0
 60135  1  0  0  0
 60136  1  0  0  0
 60137  1  0  0  0
 61138  1  0  0  0
 61139  1  0  0  0
 61140  1  0  0  0
 62141  1  0  0  0
 62142  1  0  0  0
 62143  1  0  0  0
 63 65  1  0  0  0
 63144  1  0  0  0
 63145  1  0  0  0
 63146  1  0  0  0
 64147  1  0  0  0
 65148  1  0  0  0
 68 84  1  0  0  0
 71 72  2  0  0  0
 71 74  1  0  0  0
 71149  1  0  0  0
 72 76  1  0  0  0
 72150  1  0  0  0
 73 75  1  0  0  0
 73 76  2  0  0  0
 73151  1  0  0  0
 74 75  2  0  0  0
 74 87  1  0  0  0
 75 86  1  0  0  0
 76 88  1  0  0  0
 77 83  1  0  0  0
 77 86  1  0  0  0
 77 89  2  0  0  0
 78 86  1  0  0  0
 78 87  1  0  0  0
 78152  1  0  0  0
 78153  1  0  0  0
 79154  1  0  0  0
 79155  1  0  0  0
 79156  1  0  0  0
 79 84  1  0  0  0
 80157  1  0  0  0
 80158  1  0  0  0
 80159  1  0  0  0
 80 85  1  0  0  0
 81 85  1  0  0  0
 81160  1  0  0  0
 81161  1  0  0  0
 81162  1  0  0  0
 82 87  1  0  0  0
 82163  1  0  0  0
 82164  1  0  0  0
 82165  1  0  0  0
 83 85  1  0  0  0
 83166  1  0  0  0
 83167  1  0  0  0
 84 85  1  0  0  0
 84168  1  0  0  0
 88169  1  0  0  0
M  ISO  4   1 100  68 101  84 101  88 100
M  END
> <chiral flag>
0

> <version>
0

> <s_m_source_file>
/data/baiqing/PycharmProjects/Reinvent-master-3.2/result/LINK_invent/BTK/process_docking_weight1_custom_product_contain_oxygen_bond_distance_aromatic_linkinvent_7_9_3/rearranged_h_0143.sdf

> <i_m_source_file_index>
59

> <r_mmod_Potential_Energy-OPLS-2005>
168.423126220703

> <r_mmod_Stretch_Energy-OPLS-2005>
77.6821517944336

> <r_mmod_Bend_Energy-OPLS-2005>
215.410705566406

> <r_mmod_Torsional_Energy-OPLS-2005>
276.793609619141

> <r_mmod_Improper_Torsional_Energy-OPLS-2005>
10.3450775146484

> <r_mmod_Van_der_Waal_Energy-OPLS-2005>
161.744689941406

> <r_mmod_Electrostatic_Energy-OPLS-2005>
-368.253112792969

> <r_mmod_Solvation_Energy-OPLS-2005>
-236.340103149414

> <b_mmod_Minimization_Converged-OPLS-2005>
0

> <r_mmod_RMS_Derivative-OPLS-2005>
6.36801671981812

$$$$
59
                    3D
 Structure written by MMmdl.
171179  0  0  1  0            999 V2000
  -30.7407  -14.4251   20.5723 C   0  0  0  0  0  0
  -30.4076  -12.2751   19.4260 C   0  0  0  0  0  0
  -29.4899  -12.4977   18.2076 C   0  0  0  0  0  0
  -28.0103  -12.3716   18.6174 C   0  0  0  0  0  0
  -27.6617  -13.2102   19.8773 C   0  0  2  0  0  0
  -28.7017  -12.9912   21.0001 C   0  0  0  0  0  0
  -25.2580  -13.8177   20.5689 C   0  0  0  0  0  0
  -24.1833  -13.0446   20.9175 C   0  0  0  0  0  0
  -24.6391  -11.6914   20.8728 C   0  0  0  0  0  0
  -23.9059  -10.4295   21.0397 C   0  0  0  0  0  0
  -24.3610   -9.4210   21.9177 C   0  0  0  0  0  0
  -23.6288   -8.2245   22.0751 C   0  0  0  0  0  0
  -22.4273   -8.0279   21.3541 C   0  0  0  0  0  0
  -21.9907   -9.0249   20.4642 C   0  0  0  0  0  0
  -22.7231  -10.2131   20.3048 C   0  0  0  0  0  0
  -21.6852   -6.0733   22.5278 C   0  0  0  0  0  0
  -21.4015   -6.5636   23.8210 C   0  0  0  0  0  0
  -21.3661   -5.6789   24.9173 C   0  0  0  0  0  0
  -21.6044   -4.3053   24.7224 C   0  0  0  0  0  0
  -21.8820   -3.8144   23.4346 C   0  0  0  0  0  0
  -21.9193   -4.6960   22.3401 C   0  0  0  0  0  0
  -22.7855  -13.5236   21.1839 C   0  0  0  0  0  0
  -22.1661   -4.2146   21.0978 F   0  0  0  0  0  0
  -21.5630   -3.4537   25.7738 F   0  0  0  0  0  0
  -30.0383  -13.2676   20.4486 N   0  0  0  0  0  0
  -26.3022  -12.9354   20.3384 N   0  0  0  0  0  0
  -25.9321  -11.6506   20.5772 N   0  0  0  0  0  0
  -22.0497  -12.8228   22.0395 N   0  0  0  0  0  0
  -25.4300  -15.1894   20.4100 N   0  0  0  0  0  0
  -31.8633  -14.5512   20.0812 O   0  0  0  0  0  0
  -21.6640   -6.8875   21.4240 O   0  0  0  0  0  0
  -22.3541  -14.5543   20.6690 O   0  0  0  0  0  0
  -24.6096  -31.8709   23.2124 C   0  0  0  0  0  0
  -25.9007  -32.4838   23.8411 C   0  0  1  0  0  0
  -27.2367  -27.4685   20.0992 C   0  0  0  0  0  0
  -25.5882  -33.8634   24.2348 N   0  0  0  0  0  0
  -23.3975  -30.4920   21.5516 C   0  0  2  0  0  0
  -24.8467  -28.9611   20.1150 C   0  0  0  0  0  0
  -22.7389  -29.4660   22.5010 C   0  0  0  0  0  0
  -18.0266  -28.1378   22.8497 C   0  0  0  0  0  0
  -24.1485  -36.7322   23.2640 C   0  0  0  0  0  0
  -25.9202  -30.8462   21.3615 C   0  0  0  0  0  0
  -26.0002  -29.4805   20.7164 C   0  0  0  0  0  0
  -27.1985  -28.7379   20.7155 C   0  0  0  0  0  0
  -26.0771  -26.9615   19.4814 C   0  0  0  0  0  0
  -24.8768  -27.6977   19.4971 C   0  0  0  0  0  0
  -23.6049  -29.8213   20.1662 C   0  0  0  0  0  0
  -25.4105  -36.3123   24.0346 C   0  0  1  0  0  0
  -20.5852  -28.3657   23.1334 C   0  0  2  0  0  0
  -20.6759  -26.9402   22.5422 C   0  0  0  0  0  0
  -19.5740  -26.6388   21.5213 C   0  0  0  0  0  0
  -18.1915  -26.7928   22.1622 C   0  0  0  0  0  0
  -19.1515  -28.8835   23.2909 C   0  0  0  0  0  0
  -18.9449  -30.1439   23.8921 C   0  0  0  0  0  0
  -17.6456  -30.6587   24.0567 C   0  0  0  0  0  0
  -25.9033  -34.9484   23.5145 C   0  0  0  0  0  0
  -16.5346  -29.9092   23.6328 C   0  0  0  0  0  0
  -16.7257  -28.6507   23.0353 C   0  0  0  0  0  0
  -26.4454  -31.6594   25.0717 C   0  0  0  0  0  0
  -25.3730  -31.3682   26.1471 C   0  0  0  0  0  0
  -27.0284  -30.3045   24.6054 C   0  0  0  0  0  0
  -27.6035  -32.4304   25.7477 C   0  0  0  0  0  0
  -27.5580  -37.1815   24.8467 C   0  0  0  0  0  0
  -21.4123  -29.3024   22.3746 N   0  0  0  0  0  0
  -26.4299  -37.3799   23.9404 N   0  0  0  0  0  0
  -24.6602  -31.0836   22.1011 N   0  0  0  0  0  0
  -23.4176  -28.8214   23.3052 O   0  0  0  0  0  0
  -28.3789  -26.7074   20.0827 O   0  0  0  0  0  0
  -26.5589  -34.8928   22.4707 O   0  0  0  0  0  0
  -23.5297  -32.1451   23.7533 O   0  0  0  0  0  0
  -31.5347  -17.4059   20.5039 C   0  0  0  0  0  0
  -29.3859  -17.7502   21.5785 C   0  0  0  0  0  0
  -31.7146  -18.7964   20.3746 C   0  0  0  0  0  0
  -30.7143  -19.6825   20.8346 C   0  0  0  0  0  0
  -30.3609  -16.8549   21.0811 C   0  0  0  0  0  0
  -29.5646  -19.1495   21.4725 C   0  0  0  0  0  0
  -28.0419  -25.0241   21.8411 C   0  0  0  0  0  0
  -28.6664  -20.7261   23.0924 C   0  0  0  0  0  0
  -32.9925  -19.3096   19.7276 C   0  0  0  0  0  0
  -30.8817  -21.1910   20.6557 C   0  0  0  0  0  0
  -26.5425  -24.6328   23.8342 C   0  0  0  0  0  0
  -28.7913  -25.6445   24.2215 C   0  0  0  0  0  0
  -28.8122  -26.2831   21.3809 C   0  0  0  0  0  0
  -27.8017  -21.9834   23.2063 C   0  0  0  0  0  0
  -28.6568  -23.2288   23.5588 C   0  0  0  0  0  0
  -28.0096  -24.6332   23.3482 C   0  0  0  0  0  0
  -28.5616  -20.0225   21.9561 N   0  0  0  0  0  0
  -30.0961  -15.4461   21.1727 N   0  0  0  0  0  0
  -27.4639  -24.3187   21.0074 O   0  0  0  0  0  0
  -29.4102  -20.4006   24.0219 O   0  0  0  0  0  0
  -31.4553  -12.3393   19.1265 H   0  0  0  0  0  0
  -30.2798  -11.2669   19.8226 H   0  0  0  0  0  0
  -29.7222  -11.7745   17.4245 H   0  0  0  0  0  0
  -29.6730  -13.4842   17.7787 H   0  0  0  0  0  0
  -27.8101  -11.3168   18.8073 H   0  0  0  0  0  0
  -27.3645  -12.6571   17.7861 H   0  0  0  0  0  0
  -27.7082  -14.2589   19.5826 H   0  0  0  0  0  0
  -28.6639  -11.9601   21.3541 H   0  0  0  0  0  0
  -28.4709  -13.6055   21.8712 H   0  0  0  0  0  0
  -25.2756   -9.5691   22.4749 H   0  0  0  0  0  0
  -23.9998   -7.4641   22.7473 H   0  0  0  0  0  0
  -21.0839   -8.8760   19.8949 H   0  0  0  0  0  0
  -22.3684  -10.9664   19.6153 H   0  0  0  0  0  0
  -21.2006   -7.6143   23.9713 H   0  0  0  0  0  0
  -21.1483   -6.0520   25.9075 H   0  0  0  0  0  0
  -22.0599   -2.7607   23.2846 H   0  0  0  0  0  0
  -22.4114  -11.9888   22.4779 H   0  0  0  0  0  0
  -21.1113  -13.1248   22.2597 H   0  0  0  0  0  0
  -24.6638  -15.8452   20.5160 H   0  0  0  0  0  0
  -26.2844  -15.6279   20.0890 H   0  0  0  0  0  0
  -26.7087  -32.5580   23.1191 H   0  0  0  0  0  0
  -25.0023  -33.9803   25.0486 H   0  0  0  0  0  0
  -22.6848  -31.3076   21.4120 H   0  0  0  0  0  0
  -23.3745  -35.9656   23.3325 H   0  0  0  0  0  0
  -24.3578  -36.8915   22.2049 H   0  0  0  0  0  0
  -23.7241  -37.6536   23.6644 H   0  0  0  0  0  0
  -26.0223  -31.6083   20.5880 H   0  0  0  0  0  0
  -26.8122  -30.9080   21.9732 H   0  0  0  0  0  0
  -28.0885  -29.1399   21.1789 H   0  0  0  0  0  0
  -26.1037  -25.9909   19.0059 H   0  0  0  0  0  0
  -23.9903  -27.2923   19.0289 H   0  0  0  0  0  0
  -23.7070  -30.5949   19.4043 H   0  0  0  0  0  0
  -22.7322  -29.2345   19.8751 H   0  0  0  0  0  0
  -25.1281  -36.1993   25.0839 H   0  0  0  0  0  0
  -20.9938  -28.3225   24.1457 H   0  0  0  0  0  0
  -20.5677  -26.2264   23.3602 H   0  0  0  0  0  0
  -21.6628  -26.7456   22.1210 H   0  0  0  0  0  0
  -19.6909  -25.6306   21.1227 H   0  0  0  0  0  0
  -19.6684  -27.3215   20.6758 H   0  0  0  0  0  0
  -17.4186  -26.6675   21.4023 H   0  0  0  0  0  0
  -18.0309  -26.0064   22.9011 H   0  0  0  0  0  0
  -19.7928  -30.7235   24.2305 H   0  0  0  0  0  0
  -17.5018  -31.6272   24.5163 H   0  0  0  0  0  0
  -15.5351  -30.3005   23.7647 H   0  0  0  0  0  0
  -15.8648  -28.0836   22.7063 H   0  0  0  0  0  0
  -24.5900  -30.7039   25.7802 H   0  0  0  0  0  0
  -24.8922  -32.2829   26.4946 H   0  0  0  0  0  0
  -25.8078  -30.8827   27.0215 H   0  0  0  0  0  0
  -26.2818  -29.6815   24.1119 H   0  0  0  0  0  0
  -27.4089  -29.7259   25.4483 H   0  0  0  0  0  0
  -27.8635  -30.4387   23.9171 H   0  0  0  0  0  0
  -27.2664  -33.3592   26.2086 H   0  0  0  0  0  0
  -28.3827  -32.6880   25.0293 H   0  0  0  0  0  0
  -28.0724  -31.8407   26.5367 H   0  0  0  0  0  0
  -28.2604  -38.0104   24.7510 H   0  0  0  0  0  0
  -28.1065  -36.2639   24.6300 H   0  0  0  0  0  0
  -27.2296  -37.1475   25.8868 H   0  0  0  0  0  0
  -20.9278  -29.8734   21.6966 H   0  0  0  0  0  0
  -26.0199  -38.2882   24.1394 H   0  0  0  0  0  0
  -32.3315  -16.7862   20.1284 H   0  0  0  0  0  0
  -28.4856  -17.3668   22.0381 H   0  0  0  0  0  0
  -33.7400  -18.5215   19.6305 H   0  0  0  0  0  0
  -33.4386  -20.1072   20.3226 H   0  0  0  0  0  0
  -32.7855  -19.6963   18.7292 H   0  0  0  0  0  0
  -31.4677  -21.4381   19.7716 H   0  0  0  0  0  0
  -31.3797  -21.6194   21.5256 H   0  0  0  0  0  0
  -29.9250  -21.6973   20.5293 H   0  0  0  0  0  0
  -26.1080  -25.6325   23.7879 H   0  0  0  0  0  0
  -26.4681  -24.2928   24.8677 H   0  0  0  0  0  0
  -25.9068  -23.9845   23.2299 H   0  0  0  0  0  0
  -28.3591  -26.6455   24.1824 H   0  0  0  0  0  0
  -29.8396  -25.7136   23.9275 H   0  0  0  0  0  0
  -28.7777  -25.3511   25.2725 H   0  0  0  0  0  0
  -29.8731  -26.0381   21.3327 H   0  0  0  0  0  0
  -28.7052  -27.0942   22.0990 H   0  0  0  0  0  0
  -27.0409  -21.8158   23.9694 H   0  0  0  0  0  0
  -27.2688  -22.1300   22.2677 H   0  0  0  0  0  0
  -29.5904  -23.1918   22.9925 H   0  0  0  0  0  0
  -28.9631  -23.1235   24.6006 H   0  0  0  0  0  0
  -27.8766  -20.3422   21.2845 H   0  0  0  0  0  0
  -29.2103  -15.1903   21.5814 H   0  0  0  0  0  0
  1 25  1  0  0  0
  1 30  2  0  0  0
  1 88  1  0  0  0
  2  3  1  0  0  0
  2 25  1  0  0  0
  2 91  1  0  0  0
  2 92  1  0  0  0
  3  4  1  0  0  0
  3 93  1  0  0  0
  3 94  1  0  0  0
  4  5  1  0  0  0
  4 95  1  0  0  0
  4 96  1  0  0  0
  5  6  1  0  0  0
  5 26  1  0  0  0
  5 97  1  0  0  0
  6 25  1  0  0  0
  6 98  1  0  0  0
  6 99  1  0  0  0
  7  8  2  0  0  0
  7 26  1  0  0  0
  7 29  1  0  0  0
  8  9  1  0  0  0
  8 22  1  0  0  0
  9 10  1  0  0  0
  9 27  2  0  0  0
 10 11  2  0  0  0
 10 15  1  0  0  0
 11 12  1  0  0  0
 11100  1  0  0  0
 12 13  2  0  0  0
 12101  1  0  0  0
 13 14  1  0  0  0
 13 31  1  0  0  0
 14 15  2  0  0  0
 14102  1  0  0  0
 15103  1  0  0  0
 16 17  2  0  0  0
 16 21  1  0  0  0
 16 31  1  0  0  0
 17 18  1  0  0  0
 17104  1  0  0  0
 18 19  2  0  0  0
 18105  1  0  0  0
 19 20  1  0  0  0
 19 24  1  0  0  0
 20 21  2  0  0  0
 20106  1  0  0  0
 21 23  1  0  0  0
 22 28  1  0  0  0
 22 32  2  0  0  0
 26 27  1  0  0  0
 28107  1  0  0  0
 28108  1  0  0  0
 29109  1  0  0  0
 29110  1  0  0  0
 33 34  1  0  0  0
 33 66  1  0  0  0
 33 70  2  0  0  0
 34 36  1  0  0  0
 34 59  1  0  0  0
 34111  1  0  0  0
 35 44  2  0  0  0
 35 45  1  0  0  0
 35 68  1  0  0  0
 36 56  1  0  0  0
 36112  1  0  0  0
 37 39  1  0  0  0
 37 47  1  0  0  0
 37 66  1  0  0  0
 37113  1  0  0  0
 38 43  2  0  0  0
 38 46  1  0  0  0
 38 47  1  0  0  0
 39 64  1  0  0  0
 39 67  2  0  0  0
 40 52  1  0  0  0
 40 53  2  0  0  0
 40 58  1  0  0  0
 41114  1  0  0  0
 41115  1  0  0  0
 41116  1  0  0  0
 41 48  1  0  0  0
 42 43  1  0  0  0
 42 66  1  0  0  0
 42117  1  0  0  0
 42118  1  0  0  0
 43 44  1  0  0  0
 44119  1  0  0  0
 45 46  2  0  0  0
 45120  1  0  0  0
 46121  1  0  0  0
 47122  1  0  0  0
 47123  1  0  0  0
 48 56  1  0  0  0
 48 65  1  0  0  0
 48124  1  0  0  0
 49 50  1  0  0  0
 49 53  1  0  0  0
 49 64  1  0  0  0
 49125  1  0  0  0
 50 51  1  0  0  0
 50126  1  0  0  0
 50127  1  0  0  0
 51 52  1  0  0  0
 51128  1  0  0  0
 51129  1  0  0  0
 52130  1  0  0  0
 52131  1  0  0  0
 53 54  1  0  0  0
 54 55  2  0  0  0
 54132  1  0  0  0
 55 57  1  0  0  0
 55133  1  0  0  0
 56 69  2  0  0  0
 57 58  2  0  0  0
 57134  1  0  0  0
 58135  1  0  0  0
 59 60  1  0  0  0
 59 61  1  0  0  0
 59 62  1  0  0  0
 60136  1  0  0  0
 60137  1  0  0  0
 60138  1  0  0  0
 61139  1  0  0  0
 61140  1  0  0  0
 61141  1  0  0  0
 62142  1  0  0  0
 62143  1  0  0  0
 62144  1  0  0  0
 63 65  1  0  0  0
 63145  1  0  0  0
 63146  1  0  0  0
 63147  1  0  0  0
 64148  1  0  0  0
 65149  1  0  0  0
 68 83  1  0  0  0
 71 73  2  0  0  0
 71 75  1  0  0  0
 71150  1  0  0  0
 72 75  2  0  0  0
 72 76  1  0  0  0
 72151  1  0  0  0
 73 74  1  0  0  0
 73 79  1  0  0  0
 74 76  2  0  0  0
 74 80  1  0  0  0
 75 88  1  0  0  0
 76 87  1  0  0  0
 77 83  1  0  0  0
 77 86  1  0  0  0
 77 89  2  0  0  0
 78 84  1  0  0  0
 78 87  1  0  0  0
 78 90  2  0  0  0
 79152  1  0  0  0
 79153  1  0  0  0
 79154  1  0  0  0
 80155  1  0  0  0
 80156  1  0  0  0
 80157  1  0  0  0
 81158  1  0  0  0
 81159  1  0  0  0
 81160  1  0  0  0
 81 86  1  0  0  0
 82 86  1  0  0  0
 82161  1  0  0  0
 82162  1  0  0  0
 82163  1  0  0  0
 83164  1  0  0  0
 83165  1  0  0  0
 84 85  1  0  0  0
 84166  1  0  0  0
 84167  1  0  0  0
 85 86  1  0  0  0
 85168  1  0  0  0
 85169  1  0  0  0
 87170  1  0  0  0
 88171  1  0  0  0
M  ISO  4   1 100  68 101  83 101  88 100
M  END
> <chiral flag>
0

> <version>
0

> <s_m_source_file>
/data/baiqing/PycharmProjects/Reinvent-master-3.2/result/LINK_invent/BTK/process_docking_weight1_custom_product_contain_oxygen_bond_distance_aromatic_linkinvent_7_9_3/rearranged_h_0143.sdf

> <i_m_source_file_index>
60

> <r_mmod_Potential_Energy-OPLS-2005>
-6.43896389007568

> <r_mmod_Stretch_Energy-OPLS-2005>
39.6138038635254

> <r_mmod_Bend_Energy-OPLS-2005>
101.351013183594

> <r_mmod_Torsional_Energy-OPLS-2005>
286.505096435547

> <r_mmod_Improper_Torsional_Energy-OPLS-2005>
3.97613739967346

> <r_mmod_Van_der_Waal_Energy-OPLS-2005>
169.240753173828

> <r_mmod_Electrostatic_Energy-OPLS-2005>
-383.436279296875

> <r_mmod_Solvation_Energy-OPLS-2005>
-234.375213623047

> <b_mmod_Minimization_Converged-OPLS-2005>
0

> <r_mmod_RMS_Derivative-OPLS-2005>
0.832155704498291

$$$$
60
                    3D
 Structure written by MMmdl.
168176  0  0  1  0            999 V2000
  -30.6795  -14.5436   20.5434 C   0  0  0  0  0  0
  -30.4407  -12.3528   19.4393 C   0  0  0  0  0  0
  -29.5045  -12.5178   18.2228 C   0  0  0  0  0  0
  -28.0399  -12.3186   18.6483 C   0  0  0  0  0  0
  -27.6654  -13.1914   19.8747 C   0  0  2  0  0  0
  -28.7066  -13.0215   21.0052 C   0  0  0  0  0  0
  -25.2634  -13.8089   20.5575 C   0  0  0  0  0  0
  -24.1875  -13.0425   20.9153 C   0  0  0  0  0  0
  -24.6391  -11.6874   20.8725 C   0  0  0  0  0  0
  -23.9040  -10.4276   21.0418 C   0  0  0  0  0  0
  -24.3624   -9.4178   21.9168 C   0  0  0  0  0  0
  -23.6294   -8.2214   22.0718 C   0  0  0  0  0  0
  -22.4256   -8.0288   21.3543 C   0  0  0  0  0  0
  -21.9872   -9.0274   20.4673 C   0  0  0  0  0  0
  -22.7204  -10.2158   20.3094 C   0  0  0  0  0  0
  -21.6840   -6.0742   22.5283 C   0  0  0  0  0  0
  -21.4020   -6.5628   23.8215 C   0  0  0  0  0  0
  -21.3655   -5.6788   24.9170 C   0  0  0  0  0  0
  -21.6042   -4.3045   24.7214 C   0  0  0  0  0  0
  -21.8822   -3.8155   23.4341 C   0  0  0  0  0  0
  -21.9199   -4.6963   22.3403 C   0  0  0  0  0  0
  -22.7912  -13.5269   21.1833 C   0  0  0  0  0  0
  -22.1655   -4.2170   21.0976 F   0  0  0  0  0  0
  -21.5637   -3.4529   25.7721 F   0  0  0  0  0  0
  -30.0388  -13.3421   20.4571 N   0  0  0  0  0  0
  -26.3057  -12.9233   20.3341 N   0  0  0  0  0  0
  -25.9320  -11.6403   20.5772 N   0  0  0  0  0  0
  -22.0564  -12.8351   22.0478 N   0  0  0  0  0  0
  -25.4463  -15.1797   20.3893 N   0  0  0  0  0  0
  -31.8096  -14.7206   20.0720 O   0  0  0  0  0  0
  -21.6622   -6.8881   21.4239 O   0  0  0  0  0  0
  -22.3599  -14.5560   20.6667 O   0  0  0  0  0  0
  -24.6165  -31.8696   23.2107 C   0  0  0  0  0  0
  -25.9075  -32.4810   23.8407 C   0  0  1  0  0  0
  -27.2312  -27.4126   20.0791 C   0  0  0  0  0  0
  -25.5939  -33.8615   24.2316 N   0  0  0  0  0  0
  -23.4038  -30.4929   21.5521 C   0  0  2  0  0  0
  -24.8462  -28.9577   20.1170 C   0  0  0  0  0  0
  -22.7432  -29.4660   22.4995 C   0  0  0  0  0  0
  -18.0279  -28.1394   22.8464 C   0  0  0  0  0  0
  -24.1507  -36.7318   23.2625 C   0  0  0  0  0  0
  -25.9404  -30.8185   21.3793 C   0  0  0  0  0  0
  -26.0100  -29.4579   20.7115 C   0  0  0  0  0  0
  -27.2010  -28.6919   20.6892 C   0  0  0  0  0  0
  -26.0358  -26.9246   19.4985 C   0  0  0  0  0  0
  -24.8543  -27.6909   19.5108 C   0  0  0  0  0  0
  -23.6133  -29.8312   20.1658 C   0  0  0  0  0  0
  -25.4122  -36.3103   24.0326 C   0  0  1  0  0  0
  -20.5874  -28.3675   23.1328 C   0  0  2  0  0  0
  -20.6771  -26.9391   22.5482 C   0  0  0  0  0  0
  -19.5785  -26.6373   21.5236 C   0  0  0  0  0  0
  -18.1929  -26.7949   22.1577 C   0  0  0  0  0  0
  -19.1533  -28.8847   23.2889 C   0  0  0  0  0  0
  -18.9449  -30.1451   23.8917 C   0  0  0  0  0  0
  -17.6454  -30.6577   24.0572 C   0  0  0  0  0  0
  -25.9052  -34.9475   23.5107 C   0  0  0  0  0  0
  -16.5343  -29.9082   23.6324 C   0  0  0  0  0  0
  -16.7273  -28.6506   23.0320 C   0  0  0  0  0  0
  -26.4477  -31.6626   25.0778 C   0  0  0  0  0  0
  -25.3725  -31.3972   26.1563 C   0  0  0  0  0  0
  -27.0165  -30.2958   24.6312 C   0  0  0  0  0  0
  -27.6135  -32.4332   25.7413 C   0  0  0  0  0  0
  -27.5643  -37.1747   24.8414 C   0  0  0  0  0  0
  -21.4161  -29.3018   22.3721 N   0  0  0  0  0  0
  -26.4305  -37.3798   23.9438 N   0  0  0  0  0  0
  -24.6703  -31.0765   22.1035 N   0  0  0  0  0  0
  -23.4196  -28.8207   23.3047 O   0  0  0  0  0  0
  -28.4189  -26.6991   20.0945 O   0  0  0  0  0  0
  -26.5589  -34.8926   22.4655 O   0  0  0  0  0  0
  -23.5355  -32.1459   23.7498 O   0  0  0  0  0  0
  -28.6001  -17.7232   18.3109 C   0  0  0  0  0  0
  -29.1107  -16.6244   19.0181 C   0  0  0  0  0  0
  -28.6383  -18.9910   18.9120 C   0  0  0  0  0  0
  -29.6397  -16.7884   20.3180 C   0  0  0  0  0  0
  -29.2438  -19.1319   20.1689 C   0  0  0  0  0  0
  -28.5161  -24.1867   20.2201 C   0  0  0  0  0  0
  -26.6682  -22.7083   18.2144 C   0  0  0  0  0  0
  -31.3681  -23.0559   20.6433 C   0  0  0  0  0  0
  -31.1583  -21.8125   18.4444 C   0  0  0  0  0  0
  -28.5607  -25.4758   19.3356 C   0  0  0  0  0  0
  -28.2166  -22.6945   18.2120 C   0  0  0  0  0  0
  -28.5285  -21.5561   20.5177 C   0  0  0  0  0  0
  -30.5231  -22.8903   19.3542 C   0  0  0  0  0  0
  -28.9539  -22.7991   19.5919 C   0  0  2  0  0  0
  -29.7030  -18.0465   20.8612 N   0  0  0  0  0  0
  -29.9608  -15.5861   21.0421 N   0  0  0  0  0  0
  -29.4548  -20.4111   20.7269 N   0  0  0  0  0  0
  -28.1540  -24.2755   21.3979 O   0  0  0  0  0  0
  -31.4822  -12.4749   19.1344 H   0  0  0  0  0  0
  -30.3746  -11.3443   19.8475 H   0  0  0  0  0  0
  -29.7715  -11.8073   17.4392 H   0  0  0  0  0  0
  -29.6262  -13.5096   17.7874 H   0  0  0  0  0  0
  -27.9140  -11.2640   18.8968 H   0  0  0  0  0  0
  -27.3681  -12.5195   17.8156 H   0  0  0  0  0  0
  -27.6907  -14.2245   19.5415 H   0  0  0  0  0  0
  -28.6975  -11.9945   21.3716 H   0  0  0  0  0  0
  -28.4533  -13.6414   21.8671 H   0  0  0  0  0  0
  -25.2779   -9.5654   22.4714 H   0  0  0  0  0  0
  -24.0025   -7.4587   22.7407 H   0  0  0  0  0  0
  -21.0786   -8.8838   19.9019 H   0  0  0  0  0  0
  -22.3632  -10.9729   19.6257 H   0  0  0  0  0  0
  -21.2001   -7.6130   23.9738 H   0  0  0  0  0  0
  -21.1473   -6.0489   25.9074 H   0  0  0  0  0  0
  -22.0613   -2.7612   23.2829 H   0  0  0  0  0  0
  -22.4172  -12.0072   22.4981 H   0  0  0  0  0  0
  -21.1245  -13.1520   22.2764 H   0  0  0  0  0  0
  -24.6860  -15.8451   20.4710 H   0  0  0  0  0  0
  -26.3036  -15.5989   20.0515 H   0  0  0  0  0  0
  -26.7137  -32.5477   23.1154 H   0  0  0  0  0  0
  -25.0153  -33.9790   25.0502 H   0  0  0  0  0  0
  -22.6917  -31.3102   21.4170 H   0  0  0  0  0  0
  -23.3792  -35.9623   23.3215 H   0  0  0  0  0  0
  -24.3630  -36.9012   22.2059 H   0  0  0  0  0  0
  -23.7226  -37.6484   23.6689 H   0  0  0  0  0  0
  -26.0908  -31.5972   20.6294 H   0  0  0  0  0  0
  -26.8120  -30.8391   22.0235 H   0  0  0  0  0  0
  -28.1017  -29.0828   21.1414 H   0  0  0  0  0  0
  -25.9747  -25.9503   19.0404 H   0  0  0  0  0  0
  -23.9521  -27.2987   19.0620 H   0  0  0  0  0  0
  -23.7330  -30.6099   19.4116 H   0  0  0  0  0  0
  -22.7334  -29.2611   19.8614 H   0  0  0  0  0  0
  -25.1286  -36.1950   25.0811 H   0  0  0  0  0  0
  -20.9940  -28.3279   24.1464 H   0  0  0  0  0  0
  -20.5626  -26.2291   23.3688 H   0  0  0  0  0  0
  -21.6663  -26.7411   22.1334 H   0  0  0  0  0  0
  -19.6950  -25.6273   21.1288 H   0  0  0  0  0  0
  -19.6779  -27.3174   20.6761 H   0  0  0  0  0  0
  -17.4242  -26.6749   21.3922 H   0  0  0  0  0  0
  -18.0252  -26.0083   22.8948 H   0  0  0  0  0  0
  -19.7921  -30.7260   24.2316 H   0  0  0  0  0  0
  -17.4995  -31.6246   24.5199 H   0  0  0  0  0  0
  -15.5346  -30.2977   23.7646 H   0  0  0  0  0  0
  -15.8674  -28.0837   22.7017 H   0  0  0  0  0  0
  -24.5908  -30.7223   25.8083 H   0  0  0  0  0  0
  -24.8881  -32.3200   26.4760 H   0  0  0  0  0  0
  -25.8059  -30.9432   27.0470 H   0  0  0  0  0  0
  -26.2677  -29.6811   24.1301 H   0  0  0  0  0  0
  -27.3653  -29.7202   25.4895 H   0  0  0  0  0  0
  -27.8696  -30.4085   23.9623 H   0  0  0  0  0  0
  -27.2827  -33.3613   26.2096 H   0  0  0  0  0  0
  -28.3812  -32.6937   25.0111 H   0  0  0  0  0  0
  -28.0955  -31.8408   26.5198 H   0  0  0  0  0  0
  -28.2627  -38.0087   24.7534 H   0  0  0  0  0  0
  -28.1170  -36.2626   24.6068 H   0  0  0  0  0  0
  -27.2418  -37.1228   25.8833 H   0  0  0  0  0  0
  -20.9344  -29.8708   21.6904 H   0  0  0  0  0  0
  -26.0199  -38.2858   24.1545 H   0  0  0  0  0  0
  -28.1801  -17.5881   17.3251 H   0  0  0  0  0  0
  -29.0607  -15.6490   18.5462 H   0  0  0  0  0  0
  -28.2487  -19.8348   18.3730 H   0  0  0  0  0  0
  -26.2983  -22.7783   17.1914 H   0  0  0  0  0  0
  -26.2360  -23.5457   18.7595 H   0  0  0  0  0  0
  -26.2538  -21.7906   18.6285 H   0  0  0  0  0  0
  -32.4328  -22.9472   20.4292 H   0  0  0  0  0  0
  -31.1214  -22.3142   21.4023 H   0  0  0  0  0  0
  -31.2398  -24.0398   21.0988 H   0  0  0  0  0  0
  -32.1695  -22.1057   18.1635 H   0  0  0  0  0  0
  -30.6266  -21.6733   17.5050 H   0  0  0  0  0  0
  -31.2404  -20.8411   18.9262 H   0  0  0  0  0  0
  -27.8425  -25.4065   18.5225 H   0  0  0  0  0  0
  -29.5268  -25.5328   18.8396 H   0  0  0  0  0  0
  -28.5544  -23.4970   17.5531 H   0  0  0  0  0  0
  -28.5142  -21.7923   17.6909 H   0  0  0  0  0  0
  -27.5524  -21.1718   20.2213 H   0  0  0  0  0  0
  -28.3904  -21.9156   21.5376 H   0  0  0  0  0  0
  -30.7096  -23.8048   18.7898 H   0  0  0  0  0  0
  -29.2347  -15.2989   21.6830 H   0  0  0  0  0  0
  -29.9563  -20.4201   21.6082 H   0  0  0  0  0  0
  1 25  1  0  0  0
  1 30  2  0  0  0
  1 86  1  0  0  0
  2  3  1  0  0  0
  2 25  1  0  0  0
  2 89  1  0  0  0
  2 90  1  0  0  0
  3  4  1  0  0  0
  3 91  1  0  0  0
  3 92  1  0  0  0
  4  5  1  0  0  0
  4 93  1  0  0  0
  4 94  1  0  0  0
  5  6  1  0  0  0
  5 26  1  0  0  0
  5 95  1  0  0  0
  6 25  1  0  0  0
  6 96  1  0  0  0
  6 97  1  0  0  0
  7  8  2  0  0  0
  7 26  1  0  0  0
  7 29  1  0  0  0
  8  9  1  0  0  0
  8 22  1  0  0  0
  9 10  1  0  0  0
  9 27  2  0  0  0
 10 11  2  0  0  0
 10 15  1  0  0  0
 11 12  1  0  0  0
 11 98  1  0  0  0
 12 13  2  0  0  0
 12 99  1  0  0  0
 13 14  1  0  0  0
 13 31  1  0  0  0
 14 15  2  0  0  0
 14100  1  0  0  0
 15101  1  0  0  0
 16 17  2  0  0  0
 16 21  1  0  0  0
 16 31  1  0  0  0
 17 18  1  0  0  0
 17102  1  0  0  0
 18 19  2  0  0  0
 18103  1  0  0  0
 19 20  1  0  0  0
 19 24  1  0  0  0
 20 21  2  0  0  0
 20104  1  0  0  0
 21 23  1  0  0  0
 22 28  1  0  0  0
 22 32  2  0  0  0
 26 27  1  0  0  0
 28105  1  0  0  0
 28106  1  0  0  0
 29107  1  0  0  0
 29108  1  0  0  0
 33 34  1  0  0  0
 33 66  1  0  0  0
 33 70  2  0  0  0
 34 36  1  0  0  0
 34 59  1  0  0  0
 34109  1  0  0  0
 35 44  2  0  0  0
 35 45  1  0  0  0
 35 68  1  0  0  0
 36 56  1  0  0  0
 36110  1  0  0  0
 37 39  1  0  0  0
 37 47  1  0  0  0
 37 66  1  0  0  0
 37111  1  0  0  0
 38 43  2  0  0  0
 38 46  1  0  0  0
 38 47  1  0  0  0
 39 64  1  0  0  0
 39 67  2  0  0  0
 40 52  1  0  0  0
 40 53  2  0  0  0
 40 58  1  0  0  0
 41112  1  0  0  0
 41113  1  0  0  0
 41114  1  0  0  0
 41 48  1  0  0  0
 42 43  1  0  0  0
 42 66  1  0  0  0
 42115  1  0  0  0
 42116  1  0  0  0
 43 44  1  0  0  0
 44117  1  0  0  0
 45 46  2  0  0  0
 45118  1  0  0  0
 46119  1  0  0  0
 47120  1  0  0  0
 47121  1  0  0  0
 48 56  1  0  0  0
 48 65  1  0  0  0
 48122  1  0  0  0
 49 50  1  0  0  0
 49 53  1  0  0  0
 49 64  1  0  0  0
 49123  1  0  0  0
 50 51  1  0  0  0
 50124  1  0  0  0
 50125  1  0  0  0
 51 52  1  0  0  0
 51126  1  0  0  0
 51127  1  0  0  0
 52128  1  0  0  0
 52129  1  0  0  0
 53 54  1  0  0  0
 54 55  2  0  0  0
 54130  1  0  0  0
 55 57  1  0  0  0
 55131  1  0  0  0
 56 69  2  0  0  0
 57 58  2  0  0  0
 57132  1  0  0  0
 58133  1  0  0  0
 59 60  1  0  0  0
 59 61  1  0  0  0
 59 62  1  0  0  0
 60134  1  0  0  0
 60135  1  0  0  0
 60136  1  0  0  0
 61137  1  0  0  0
 61138  1  0  0  0
 61139  1  0  0  0
 62140  1  0  0  0
 62141  1  0  0  0
 62142  1  0  0  0
 63 65  1  0  0  0
 63143  1  0  0  0
 63144  1  0  0  0
 63145  1  0  0  0
 64146  1  0  0  0
 65147  1  0  0  0
 68 80  1  0  0  0
 71 72  2  0  0  0
 71 73  1  0  0  0
 71148  1  0  0  0
 72 74  1  0  0  0
 72149  1  0  0  0
 73 75  2  0  0  0
 73150  1  0  0  0
 74 85  2  0  0  0
 74 86  1  0  0  0
 75 85  1  0  0  0
 75 87  1  0  0  0
 76 80  1  0  0  0
 76 88  2  0  0  0
 76 84  1  0  0  0
 77 81  1  0  0  0
 77151  1  0  0  0
 77152  1  0  0  0
 77153  1  0  0  0
 78154  1  0  0  0
 78155  1  0  0  0
 78156  1  0  0  0
 78 83  1  0  0  0
 79 83  1  0  0  0
 79157  1  0  0  0
 79158  1  0  0  0
 79159  1  0  0  0
 80160  1  0  0  0
 80161  1  0  0  0
 81162  1  0  0  0
 81163  1  0  0  0
 81 84  1  0  0  0
 82 84  1  0  0  0
 82 87  1  0  0  0
 82164  1  0  0  0
 82165  1  0  0  0
 83 84  1  0  0  0
 83166  1  0  0  0
 86167  1  0  0  0
 87168  1  0  0  0
M  ISO  4   1 100  68 101  80 101  86 100
M  END
> <chiral flag>
0

> <version>
0

> <s_m_source_file>
/data/baiqing/PycharmProjects/Reinvent-master-3.2/result/LINK_invent/BTK/process_docking_weight1_custom_product_contain_oxygen_bond_distance_aromatic_linkinvent_7_9_3/rearranged_h_0143.sdf

> <i_m_source_file_index>
61

> <r_mmod_Potential_Energy-OPLS-2005>
-33.0323829650879

> <r_mmod_Stretch_Energy-OPLS-2005>
65.8919830322266

> <r_mmod_Bend_Energy-OPLS-2005>
147.096160888672

> <r_mmod_Torsional_Energy-OPLS-2005>
271.208679199219

> <r_mmod_Improper_Torsional_Energy-OPLS-2005>
8.76987266540527

> <r_mmod_Van_der_Waal_Energy-OPLS-2005>
166.137954711914

> <r_mmod_Electrostatic_Energy-OPLS-2005>
-473.654724121094

> <r_mmod_Solvation_Energy-OPLS-2005>
-240.029861450195

> <b_mmod_Minimization_Converged-OPLS-2005>
0

> <r_mmod_RMS_Derivative-OPLS-2005>
6.65304660797119

$$$$
61
                    3D
 Structure written by MMmdl.
157166  0  0  1  0            999 V2000
  -30.6597  -14.5822   20.5019 C   0  0  0  0  0  0
  -30.4283  -12.3546   19.4528 C   0  0  0  0  0  0
  -29.5048  -12.5019   18.2239 C   0  0  0  0  0  0
  -28.0266  -12.3516   18.6335 C   0  0  0  0  0  0
  -27.6563  -13.2168   19.8682 C   0  0  2  0  0  0
  -28.6993  -13.0590   20.9986 C   0  0  0  0  0  0
  -25.2567  -13.8178   20.5689 C   0  0  0  0  0  0
  -24.1829  -13.0443   20.9184 C   0  0  0  0  0  0
  -24.6397  -11.6914   20.8737 C   0  0  0  0  0  0
  -23.9066  -10.4294   21.0402 C   0  0  0  0  0  0
  -24.3618   -9.4209   21.9180 C   0  0  0  0  0  0
  -23.6290   -8.2245   22.0752 C   0  0  0  0  0  0
  -22.4272   -8.0283   21.3546 C   0  0  0  0  0  0
  -21.9906   -9.0258   20.4649 C   0  0  0  0  0  0
  -22.7237  -10.2136   20.3055 C   0  0  0  0  0  0
  -21.6854   -6.0734   22.5278 C   0  0  0  0  0  0
  -21.4016   -6.5638   23.8212 C   0  0  0  0  0  0
  -21.3658   -5.6792   24.9173 C   0  0  0  0  0  0
  -21.6043   -4.3054   24.7225 C   0  0  0  0  0  0
  -21.8820   -3.8147   23.4348 C   0  0  0  0  0  0
  -21.9193   -4.6961   22.3402 C   0  0  0  0  0  0
  -22.7850  -13.5235   21.1847 C   0  0  0  0  0  0
  -22.1660   -4.2148   21.0980 F   0  0  0  0  0  0
  -21.5628   -3.4540   25.7739 F   0  0  0  0  0  0
  -30.0223  -13.3743   20.4385 N   0  0  0  0  0  0
  -26.3004  -12.9363   20.3343 N   0  0  0  0  0  0
  -25.9328  -11.6515   20.5765 N   0  0  0  0  0  0
  -22.0492  -12.8231   22.0407 N   0  0  0  0  0  0
  -25.4288  -15.1901   20.4111 N   0  0  0  0  0  0
  -31.8168  -14.7212   20.0943 O   0  0  0  0  0  0
  -21.6639   -6.8878   21.4241 O   0  0  0  0  0  0
  -22.3534  -14.5540   20.6694 O   0  0  0  0  0  0
  -24.6221  -31.8633   23.2065 C   0  0  0  0  0  0
  -25.9087  -32.4798   23.8377 C   0  0  1  0  0  0
  -27.2217  -27.3626   20.1108 C   0  0  0  0  0  0
  -25.5918  -33.8596   24.2308 N   0  0  0  0  0  0
  -23.4142  -30.4881   21.5481 C   0  0  2  0  0  0
  -24.8622  -28.9538   20.1071 C   0  0  0  0  0  0
  -22.7459  -29.4635   22.4949 C   0  0  0  0  0  0
  -18.0287  -28.1379   22.8487 C   0  0  0  0  0  0
  -24.1490  -36.7303   23.2638 C   0  0  0  0  0  0
  -25.9520  -30.8070   21.3733 C   0  0  0  0  0  0
  -26.0285  -29.4391   20.7141 C   0  0  0  0  0  0
  -27.2149  -28.6531   20.7111 C   0  0  0  0  0  0
  -26.0437  -26.9293   19.4641 C   0  0  0  0  0  0
  -24.8692  -27.7019   19.4731 C   0  0  0  0  0  0
  -23.6268  -29.8270   20.1611 C   0  0  0  0  0  0
  -25.4113  -36.3096   24.0333 C   0  0  1  0  0  0
  -20.5884  -28.3679   23.1289 C   0  0  2  0  0  0
  -20.6778  -26.9406   22.5410 C   0  0  0  0  0  0
  -19.5753  -26.6383   21.5211 C   0  0  0  0  0  0
  -18.1933  -26.7923   22.1623 C   0  0  0  0  0  0
  -19.1538  -28.8846   23.2886 C   0  0  0  0  0  0
  -18.9462  -30.1450   23.8899 C   0  0  0  0  0  0
  -17.6462  -30.6581   24.0564 C   0  0  0  0  0  0
  -25.9043  -34.9460   23.5118 C   0  0  0  0  0  0
  -16.5354  -29.9082   23.6325 C   0  0  0  0  0  0
  -16.7275  -28.6499   23.0346 C   0  0  0  0  0  0
  -26.4486  -31.6589   25.0727 C   0  0  0  0  0  0
  -25.3734  -31.3718   26.1462 C   0  0  0  0  0  0
  -27.0319  -30.3017   24.6150 C   0  0  0  0  0  0
  -27.6057  -32.4310   25.7491 C   0  0  0  0  0  0
  -27.5574  -37.1816   24.8469 C   0  0  0  0  0  0
  -21.4177  -29.3038   22.3687 N   0  0  0  0  0  0
  -26.4300  -37.3777   23.9392 N   0  0  0  0  0  0
  -24.6811  -31.0680   22.1000 N   0  0  0  0  0  0
  -23.4200  -28.8171   23.3011 O   0  0  0  0  0  0
  -28.3120  -26.4958   20.1668 O   0  0  0  0  0  0
  -26.5605  -34.8918   22.4681 O   0  0  0  0  0  0
  -23.5394  -32.1414   23.7416 O   0  0  0  0  0  0
  -30.6984  -19.0040   19.4811 C   0  0  0  0  0  0
  -30.8522  -17.5805   19.6149 C   0  0  0  0  0  0
  -29.7868  -19.5726   20.3405 C   0  0  0  0  0  0
  -30.0520  -16.9887   20.5698 C   0  0  0  0  0  0
  -29.1997  -23.3033   19.4594 C   0  0  0  0  0  0
  -28.3772  -22.8620   21.7468 C   0  0  0  0  0  0
  -29.9753  -21.9406   19.5147 C   0  0  0  0  0  0
  -29.1517  -21.5115   21.7839 C   0  0  0  0  0  0
  -28.9735  -23.9802   20.8378 C   0  0  0  0  0  0
  -28.0085  -25.2388   20.8629 C   0  0  0  0  0  0
  -29.4071  -20.9508   20.4520 N   0  0  0  0  0  0
  -29.9082  -15.6506   20.8969 N   0  0  0  0  0  0
  -30.2058  -24.3943   21.4073 O   0  0  0  0  0  0
  -29.1015  -18.2751   21.3373 S   0  0  0  0  0  0
  -31.4733  -12.4544   19.1544 H   0  0  0  0  0  0
  -30.3379  -11.3572   19.8855 H   0  0  0  0  0  0
  -29.7605  -11.7575   17.4688 H   0  0  0  0  0  0
  -29.6607  -13.4764   17.7586 H   0  0  0  0  0  0
  -27.8534  -11.2981   18.8562 H   0  0  0  0  0  0
  -27.3754  -12.5947   17.7931 H   0  0  0  0  0  0
  -27.6813  -14.2551   19.5367 H   0  0  0  0  0  0
  -28.6939  -12.0387   21.3847 H   0  0  0  0  0  0
  -28.4543  -13.6984   21.8479 H   0  0  0  0  0  0
  -25.2763   -9.5683   22.4753 H   0  0  0  0  0  0
  -24.0002   -7.4635   22.7468 H   0  0  0  0  0  0
  -21.0836   -8.8777   19.8956 H   0  0  0  0  0  0
  -22.3695  -10.9674   19.6163 H   0  0  0  0  0  0
  -21.2010   -7.6147   23.9714 H   0  0  0  0  0  0
  -21.1478   -6.0522   25.9076 H   0  0  0  0  0  0
  -22.0601   -2.7607   23.2850 H   0  0  0  0  0  0
  -22.4106  -11.9895   22.4803 H   0  0  0  0  0  0
  -21.1109  -13.1256   22.2609 H   0  0  0  0  0  0
  -24.6639  -15.8468   20.5218 H   0  0  0  0  0  0
  -26.2815  -15.6287   20.0876 H   0  0  0  0  0  0
  -26.7155  -32.5486   23.1131 H   0  0  0  0  0  0
  -25.0076  -33.9750   25.0458 H   0  0  0  0  0  0
  -22.7058  -31.3074   21.4090 H   0  0  0  0  0  0
  -23.3729  -35.9665   23.3359 H   0  0  0  0  0  0
  -24.3571  -36.8857   22.2040 H   0  0  0  0  0  0
  -23.7281  -37.6543   23.6614 H   0  0  0  0  0  0
  -26.0790  -31.5732   20.6071 H   0  0  0  0  0  0
  -26.8340  -30.8545   22.0001 H   0  0  0  0  0  0
  -28.1073  -29.0141   21.2030 H   0  0  0  0  0  0
  -26.0197  -25.9729   18.9613 H   0  0  0  0  0  0
  -23.9782  -27.3276   18.9877 H   0  0  0  0  0  0
  -23.7409  -30.6060   19.4062 H   0  0  0  0  0  0
  -22.7482  -29.2534   19.8599 H   0  0  0  0  0  0
  -25.1296  -36.1963   25.0827 H   0  0  0  0  0  0
  -20.9980  -28.3255   24.1407 H   0  0  0  0  0  0
  -20.5680  -26.2288   23.3608 H   0  0  0  0  0  0
  -21.6647  -26.7440   22.1203 H   0  0  0  0  0  0
  -19.6917  -25.6296   21.1232 H   0  0  0  0  0  0
  -19.6687  -27.3199   20.6746 H   0  0  0  0  0  0
  -17.4202  -26.6670   21.4026 H   0  0  0  0  0  0
  -18.0334  -26.0063   22.9018 H   0  0  0  0  0  0
  -19.7939  -30.7266   24.2267 H   0  0  0  0  0  0
  -17.5017  -31.6260   24.5168 H   0  0  0  0  0  0
  -15.5353  -30.2984   23.7643 H   0  0  0  0  0  0
  -15.8677  -28.0818   22.7055 H   0  0  0  0  0  0
  -24.5914  -30.7056   25.7799 H   0  0  0  0  0  0
  -24.8919  -32.2881   26.4886 H   0  0  0  0  0  0
  -25.8072  -30.8903   27.0235 H   0  0  0  0  0  0
  -26.2882  -29.6779   24.1178 H   0  0  0  0  0  0
  -27.4034  -29.7255   25.4634 H   0  0  0  0  0  0
  -27.8744  -30.4310   23.9353 H   0  0  0  0  0  0
  -27.2674  -33.3597   26.2097 H   0  0  0  0  0  0
  -28.3852  -32.6888   25.0310 H   0  0  0  0  0  0
  -28.0742  -31.8418   26.5385 H   0  0  0  0  0  0
  -28.2630  -38.0072   24.7458 H   0  0  0  0  0  0
  -28.1029  -36.2603   24.6369 H   0  0  0  0  0  0
  -27.2283  -37.1562   25.8872 H   0  0  0  0  0  0
  -20.9348  -29.8762   21.6904 H   0  0  0  0  0  0
  -26.0189  -38.2865   24.1353 H   0  0  0  0  0  0
  -31.2765  -19.5509   18.7507 H   0  0  0  0  0  0
  -31.5410  -17.0462   18.9763 H   0  0  0  0  0  0
  -28.2276  -23.1241   18.9976 H   0  0  0  0  0  0
  -29.7150  -23.9933   18.7896 H   0  0  0  0  0  0
  -28.2663  -23.2335   22.7669 H   0  0  0  0  0  0
  -27.3608  -22.6484   21.4109 H   0  0  0  0  0  0
  -31.0154  -22.1243   19.7884 H   0  0  0  0  0  0
  -29.9962  -21.5172   18.5094 H   0  0  0  0  0  0
  -28.5822  -20.8038   22.3869 H   0  0  0  0  0  0
  -30.1054  -21.6475   22.2962 H   0  0  0  0  0  0
  -27.8499  -25.5142   21.9072 H   0  0  0  0  0  0
  -27.0424  -24.8578   20.5351 H   0  0  0  0  0  0
  -29.0445  -15.4057   21.3577 H   0  0  0  0  0  0
  -30.7733  -23.6339   21.4509 H   0  0  0  0  0  0
  1 25  1  0  0  0
  1 30  2  0  0  0
  1 82  1  0  0  0
  2  3  1  0  0  0
  2 25  1  0  0  0
  2 85  1  0  0  0
  2 86  1  0  0  0
  3  4  1  0  0  0
  3 87  1  0  0  0
  3 88  1  0  0  0
  4  5  1  0  0  0
  4 89  1  0  0  0
  4 90  1  0  0  0
  5  6  1  0  0  0
  5 26  1  0  0  0
  5 91  1  0  0  0
  6 25  1  0  0  0
  6 92  1  0  0  0
  6 93  1  0  0  0
  7  8  2  0  0  0
  7 26  1  0  0  0
  7 29  1  0  0  0
  8  9  1  0  0  0
  8 22  1  0  0  0
  9 10  1  0  0  0
  9 27  2  0  0  0
 10 11  2  0  0  0
 10 15  1  0  0  0
 11 12  1  0  0  0
 11 94  1  0  0  0
 12 13  2  0  0  0
 12 95  1  0  0  0
 13 14  1  0  0  0
 13 31  1  0  0  0
 14 15  2  0  0  0
 14 96  1  0  0  0
 15 97  1  0  0  0
 16 17  2  0  0  0
 16 21  1  0  0  0
 16 31  1  0  0  0
 17 18  1  0  0  0
 17 98  1  0  0  0
 18 19  2  0  0  0
 18 99  1  0  0  0
 19 20  1  0  0  0
 19 24  1  0  0  0
 20 21  2  0  0  0
 20100  1  0  0  0
 21 23  1  0  0  0
 22 28  1  0  0  0
 22 32  2  0  0  0
 26 27  1  0  0  0
 28101  1  0  0  0
 28102  1  0  0  0
 29103  1  0  0  0
 29104  1  0  0  0
 33 34  1  0  0  0
 33 66  1  0  0  0
 33 70  2  0  0  0
 34 36  1  0  0  0
 34 59  1  0  0  0
 34105  1  0  0  0
 35 44  2  0  0  0
 35 45  1  0  0  0
 35 68  1  0  0  0
 36 56  1  0  0  0
 36106  1  0  0  0
 37 39  1  0  0  0
 37 47  1  0  0  0
 37 66  1  0  0  0
 37107  1  0  0  0
 38 43  2  0  0  0
 38 46  1  0  0  0
 38 47  1  0  0  0
 39 64  1  0  0  0
 39 67  2  0  0  0
 40 52  1  0  0  0
 40 53  2  0  0  0
 40 58  1  0  0  0
 41108  1  0  0  0
 41109  1  0  0  0
 41110  1  0  0  0
 41 48  1  0  0  0
 42 43  1  0  0  0
 42 66  1  0  0  0
 42111  1  0  0  0
 42112  1  0  0  0
 43 44  1  0  0  0
 44113  1  0  0  0
 45 46  2  0  0  0
 45114  1  0  0  0
 46115  1  0  0  0
 47116  1  0  0  0
 47117  1  0  0  0
 48 56  1  0  0  0
 48 65  1  0  0  0
 48118  1  0  0  0
 49 50  1  0  0  0
 49 53  1  0  0  0
 49 64  1  0  0  0
 49119  1  0  0  0
 50 51  1  0  0  0
 50120  1  0  0  0
 50121  1  0  0  0
 51 52  1  0  0  0
 51122  1  0  0  0
 51123  1  0  0  0
 52124  1  0  0  0
 52125  1  0  0  0
 53 54  1  0  0  0
 54 55  2  0  0  0
 54126  1  0  0  0
 55 57  1  0  0  0
 55127  1  0  0  0
 56 69  2  0  0  0
 57 58  2  0  0  0
 57128  1  0  0  0
 58129  1  0  0  0
 59 60  1  0  0  0
 59 61  1  0  0  0
 59 62  1  0  0  0
 60130  1  0  0  0
 60131  1  0  0  0
 60132  1  0  0  0
 61133  1  0  0  0
 61134  1  0  0  0
 61135  1  0  0  0
 62136  1  0  0  0
 62137  1  0  0  0
 62138  1  0  0  0
 63 65  1  0  0  0
 63139  1  0  0  0
 63140  1  0  0  0
 63141  1  0  0  0
 64142  1  0  0  0
 65143  1  0  0  0
 68 80  1  0  0  0
 71 72  1  0  0  0
 71 73  2  0  0  0
 71144  1  0  0  0
 72 74  2  0  0  0
 72145  1  0  0  0
 73 81  1  0  0  0
 73 84  1  0  0  0
 74 82  1  0  0  0
 74 84  1  0  0  0
 75 77  1  0  0  0
 75 79  1  0  0  0
 75146  1  0  0  0
 75147  1  0  0  0
 76 78  1  0  0  0
 76 79  1  0  0  0
 76148  1  0  0  0
 76149  1  0  0  0
 77 81  1  0  0  0
 77150  1  0  0  0
 77151  1  0  0  0
 78 81  1  0  0  0
 78152  1  0  0  0
 78153  1  0  0  0
 79 80  1  0  0  0
 79 83  1  0  0  0
 80154  1  0  0  0
 80155  1  0  0  0
 82156  1  0  0  0
 83157  1  0  0  0
M  ISO  4   1 100  68 101  80 101  82 100
M  END
> <chiral flag>
0

> <version>
0

> <s_m_source_file>
/data/baiqing/PycharmProjects/Reinvent-master-3.2/result/LINK_invent/BTK/process_docking_weight1_custom_product_contain_oxygen_bond_distance_aromatic_linkinvent_7_9_3/rearranged_h_0143.sdf

> <i_m_source_file_index>
62

> <r_mmod_Potential_Energy-OPLS-2005>
62.7201538085938

> <r_mmod_Stretch_Energy-OPLS-2005>
59.7562866210938

> <r_mmod_Bend_Energy-OPLS-2005>
127.791145324707

> <r_mmod_Torsional_Energy-OPLS-2005>
285.614837646484

> <r_mmod_Improper_Torsional_Energy-OPLS-2005>
6.51502466201782

> <r_mmod_Van_der_Waal_Energy-OPLS-2005>
134.67643737793

> <r_mmod_Electrostatic_Energy-OPLS-2005>
-349.235748291016

> <r_mmod_Solvation_Energy-OPLS-2005>
-238.110229492188

> <b_mmod_Minimization_Converged-OPLS-2005>
0

> <r_mmod_RMS_Derivative-OPLS-2005>
0.401620537042618

$$$$
62
                    3D
 Structure written by MMmdl.
168177  0  0  1  0            999 V2000
  -30.6141  -14.7387   20.3870 C   0  0  0  0  0  0
  -30.4172  -12.4416   19.4615 C   0  0  0  0  0  0
  -29.4961  -12.5117   18.2251 C   0  0  0  0  0  0
  -28.0208  -12.3491   18.6410 C   0  0  0  0  0  0
  -27.6348  -13.2434   19.8491 C   0  0  2  0  0  0
  -28.6853  -13.1840   20.9784 C   0  0  0  0  0  0
  -25.2463  -13.8265   20.5779 C   0  0  0  0  0  0
  -24.1779  -13.0459   20.9294 C   0  0  0  0  0  0
  -24.6382  -11.6944   20.8790 C   0  0  0  0  0  0
  -23.9054  -10.4308   21.0391 C   0  0  0  0  0  0
  -24.3605   -9.4210   21.9146 C   0  0  0  0  0  0
  -23.6282   -8.2241   22.0727 C   0  0  0  0  0  0
  -22.4259   -8.0279   21.3529 C   0  0  0  0  0  0
  -21.9899   -9.0252   20.4630 C   0  0  0  0  0  0
  -22.7230  -10.2127   20.3036 C   0  0  0  0  0  0
  -21.6859   -6.0708   22.5275 C   0  0  0  0  0  0
  -21.4003   -6.5614   23.8204 C   0  0  0  0  0  0
  -21.3651   -5.6772   24.9176 C   0  0  0  0  0  0
  -21.6056   -4.3036   24.7236 C   0  0  0  0  0  0
  -21.8826   -3.8123   23.4362 C   0  0  0  0  0  0
  -21.9194   -4.6935   22.3410 C   0  0  0  0  0  0
  -22.7794  -13.5195   21.1962 C   0  0  0  0  0  0
  -22.1668   -4.2119   21.0985 F   0  0  0  0  0  0
  -21.5631   -3.4532   25.7748 F   0  0  0  0  0  0
  -29.9800  -13.5187   20.3801 N   0  0  0  0  0  0
  -26.2894  -12.9482   20.3341 N   0  0  0  0  0  0
  -25.9318  -11.6612   20.5808 N   0  0  0  0  0  0
  -22.0473  -12.8116   22.0505 N   0  0  0  0  0  0
  -25.4103  -15.1981   20.4176 N   0  0  0  0  0  0
  -31.8306  -14.7710   20.1808 O   0  0  0  0  0  0
  -21.6641   -6.8848   21.4231 O   0  0  0  0  0  0
  -22.3444  -14.5486   20.6815 O   0  0  0  0  0  0
  -24.6302  -31.8534   23.1921 C   0  0  0  0  0  0
  -25.9109  -32.4753   23.8308 C   0  0  1  0  0  0
  -27.2263  -27.2480   20.1232 C   0  0  0  0  0  0
  -25.5892  -33.8543   24.2216 N   0  0  0  0  0  0
  -23.4297  -30.4661   21.5396 C   0  0  2  0  0  0
  -24.8761  -28.9065   20.1077 C   0  0  0  0  0  0
  -22.7513  -29.4553   22.4977 C   0  0  0  0  0  0
  -18.0316  -28.1378   22.8445 C   0  0  0  0  0  0
  -24.1491  -36.7288   23.2640 C   0  0  0  0  0  0
  -25.9714  -30.7563   21.3752 C   0  0  0  0  0  0
  -26.0425  -29.3751   20.7228 C   0  0  0  0  0  0
  -27.2163  -28.5557   20.7200 C   0  0  0  0  0  0
  -26.0348  -26.8459   19.4799 C   0  0  0  0  0  0
  -24.8789  -27.6535   19.4734 C   0  0  0  0  0  0
  -23.6443  -29.7893   20.1599 C   0  0  0  0  0  0
  -25.4126  -36.3069   24.0317 C   0  0  1  0  0  0
  -20.5896  -28.3723   23.1317 C   0  0  2  0  0  0
  -20.6799  -26.9458   22.5422 C   0  0  0  0  0  0
  -19.5818  -26.6414   21.5192 C   0  0  0  0  0  0
  -18.1980  -26.7943   22.1544 C   0  0  0  0  0  0
  -19.1537  -28.8868   23.2865 C   0  0  0  0  0  0
  -18.9444  -30.1447   23.8911 C   0  0  0  0  0  0
  -17.6439  -30.6557   24.0578 C   0  0  0  0  0  0
  -25.9056  -34.9445   23.5072 C   0  0  0  0  0  0
  -16.5349  -29.9037   23.6351 C   0  0  0  0  0  0
  -16.7288  -28.6487   23.0288 C   0  0  0  0  0  0
  -26.4478  -31.6581   25.0703 C   0  0  0  0  0  0
  -25.3689  -31.3712   26.1410 C   0  0  0  0  0  0
  -27.0321  -30.3005   24.6179 C   0  0  0  0  0  0
  -27.6030  -32.4331   25.7494 C   0  0  0  0  0  0
  -27.5577  -37.1799   24.8458 C   0  0  0  0  0  0
  -21.4226  -29.3068   22.3733 N   0  0  0  0  0  0
  -26.4307  -37.3765   23.9389 N   0  0  0  0  0  0
  -24.6960  -31.0453   22.0919 N   0  0  0  0  0  0
  -23.4194  -28.8117   23.3120 O   0  0  0  0  0  0
  -28.3595  -26.4027   20.1947 O   0  0  0  0  0  0
  -26.5651  -34.8909   22.4660 O   0  0  0  0  0  0
  -23.5438  -32.1380   23.7183 O   0  0  0  0  0  0
  -31.1038  -17.1322   18.6104 C   0  0  0  0  0  0
  -31.4890  -18.3434   18.1178 C   0  0  0  0  0  0
  -30.2101  -17.2067   19.7317 C   0  0  0  0  0  0
  -29.7847  -18.5572   19.9663 C   0  0  0  0  0  0
  -28.5901  -22.1983   20.3137 C   0  0  0  0  0  0
  -28.3557  -19.6399   23.2951 C   0  0  0  0  0  0
  -29.2336  -18.8367   22.3673 C   0  0  0  0  0  0
  -28.2986  -21.0037   22.6223 C   0  0  0  0  0  0
  -28.7867  -19.2260   20.9551 C   0  0  2  0  0  0
  -28.1676  -20.8018   21.0801 C   0  0  2  0  0  0
  -26.6616  -20.6340   20.7387 C   0  0  0  0  0  0
  -29.4144  -24.0426   21.9219 C   0  0  0  0  0  0
  -26.9199  -23.9242   21.4646 C   0  0  0  0  0  0
  -28.4130  -24.9466   19.7797 C   0  0  0  0  0  0
  -28.3277  -23.7301   20.8631 C   0  0  0  0  0  0
  -29.8574  -15.9158   20.3899 N   0  0  0  0  0  0
  -29.0755  -22.1138   19.1877 O   0  0  0  0  0  0
  -30.7330  -19.6378   18.9704 S   0  0  0  0  0  0
  -31.4581  -12.5564   19.1573 H   0  0  0  0  0  0
  -30.3560  -11.4652   19.9465 H   0  0  0  0  0  0
  -29.7701  -11.7449   17.4991 H   0  0  0  0  0  0
  -29.6265  -13.4704   17.7198 H   0  0  0  0  0  0
  -27.8571  -11.3010   18.8902 H   0  0  0  0  0  0
  -27.3688  -12.5726   17.7964 H   0  0  0  0  0  0
  -27.6278  -14.2641   19.4702 H   0  0  0  0  0  0
  -28.7182  -12.1928   21.4349 H   0  0  0  0  0  0
  -28.4430  -13.8877   21.7745 H   0  0  0  0  0  0
  -25.2751   -9.5697   22.4718 H   0  0  0  0  0  0
  -24.0000   -7.4633   22.7438 H   0  0  0  0  0  0
  -21.0837   -8.8772   19.8935 H   0  0  0  0  0  0
  -22.3681  -10.9656   19.6153 H   0  0  0  0  0  0
  -21.1986   -7.6123   23.9700 H   0  0  0  0  0  0
  -21.1466   -6.0504   25.9066 H   0  0  0  0  0  0
  -22.0615   -2.7592   23.2891 H   0  0  0  0  0  0
  -22.4083  -11.9722   22.4800 H   0  0  0  0  0  0
  -21.1095  -13.1113   22.2765 H   0  0  0  0  0  0
  -24.6427  -15.8506   20.5340 H   0  0  0  0  0  0
  -26.2447  -15.6365   20.0514 H   0  0  0  0  0  0
  -26.7164  -32.5395   23.1036 H   0  0  0  0  0  0
  -25.0012  -33.9697   25.0341 H   0  0  0  0  0  0
  -22.7248  -31.2844   21.3909 H   0  0  0  0  0  0
  -23.3753  -35.9621   23.3328 H   0  0  0  0  0  0
  -24.3563  -36.8892   22.2046 H   0  0  0  0  0  0
  -23.7253  -37.6493   23.6669 H   0  0  0  0  0  0
  -26.1094  -31.5100   20.6000 H   0  0  0  0  0  0
  -26.8496  -30.8102   22.0062 H   0  0  0  0  0  0
  -28.1141  -28.9049   21.2104 H   0  0  0  0  0  0
  -25.9616  -25.8911   18.9854 H   0  0  0  0  0  0
  -23.9857  -27.2963   18.9792 H   0  0  0  0  0  0
  -23.7629  -30.5569   19.3933 H   0  0  0  0  0  0
  -22.7654  -29.2110   19.8677 H   0  0  0  0  0  0
  -25.1316  -36.1931   25.0816 H   0  0  0  0  0  0
  -20.9914  -28.3269   24.1462 H   0  0  0  0  0  0
  -20.5665  -26.2369   23.3630 H   0  0  0  0  0  0
  -21.6698  -26.7490   22.1274 H   0  0  0  0  0  0
  -19.6979  -25.6309   21.1306 H   0  0  0  0  0  0
  -19.6802  -27.3210   20.6703 H   0  0  0  0  0  0
  -17.4340  -26.6760   21.3863 H   0  0  0  0  0  0
  -18.0298  -25.9995   22.8833 H   0  0  0  0  0  0
  -19.7913  -30.7270   24.2326 H   0  0  0  0  0  0
  -17.4977  -31.6225   24.5194 H   0  0  0  0  0  0
  -15.5347  -30.2905   23.7710 H   0  0  0  0  0  0
  -15.8708  -28.0835   22.6922 H   0  0  0  0  0  0
  -24.5890  -30.7047   25.7707 H   0  0  0  0  0  0
  -24.8856  -32.2872   26.4829 H   0  0  0  0  0  0
  -25.7998  -30.8886   27.0194 H   0  0  0  0  0  0
  -26.2892  -29.6774   24.1184 H   0  0  0  0  0  0
  -27.3978  -29.7256   25.4698 H   0  0  0  0  0  0
  -27.8793  -30.4297   23.9438 H   0  0  0  0  0  0
  -27.2648  -33.3648   26.2057 H   0  0  0  0  0  0
  -28.3869  -32.6862   25.0339 H   0  0  0  0  0  0
  -28.0686  -31.8463   26.5427 H   0  0  0  0  0  0
  -28.2590  -38.0091   24.7503 H   0  0  0  0  0  0
  -28.1071  -36.2622   24.6320 H   0  0  0  0  0  0
  -27.2275  -37.1492   25.8849 H   0  0  0  0  0  0
  -20.9454  -29.8845   21.6951 H   0  0  0  0  0  0
  -26.0184  -38.2839   24.1387 H   0  0  0  0  0  0
  -31.4642  -16.1993   18.1982 H   0  0  0  0  0  0
  -32.1847  -18.5538   17.3117 H   0  0  0  0  0  0
  -28.7471  -19.6769   24.3116 H   0  0  0  0  0  0
  -27.3633  -19.1914   23.3437 H   0  0  0  0  0  0
  -29.1350  -17.7655   22.5477 H   0  0  0  0  0  0
  -30.2819  -19.0971   22.5202 H   0  0  0  0  0  0
  -29.2396  -21.4974   22.8568 H   0  0  0  0  0  0
  -27.4898  -21.5688   23.0813 H   0  0  0  0  0  0
  -27.9058  -18.6039   20.7997 H   0  0  0  0  0  0
  -26.0804  -21.5402   20.8839 H   0  0  0  0  0  0
  -26.1824  -19.8747   21.3545 H   0  0  0  0  0  0
  -26.5276  -20.3414   19.6964 H   0  0  0  0  0  0
  -29.1871  -23.6175   22.8975 H   0  0  0  0  0  0
  -29.5339  -25.1129   22.0827 H   0  0  0  0  0  0
  -30.3921  -23.6687   21.6138 H   0  0  0  0  0  0
  -26.7054  -23.3099   22.3316 H   0  0  0  0  0  0
  -26.1497  -23.7505   20.7114 H   0  0  0  0  0  0
  -26.7904  -24.9530   21.8004 H   0  0  0  0  0  0
  -27.7174  -24.7509   18.9665 H   0  0  0  0  0  0
  -29.3855  -24.8560   19.2933 H   0  0  0  0  0  0
  -28.9024  -15.8260   20.7005 H   0  0  0  0  0  0
  1 25  1  0  0  0
  1 30  2  0  0  0
  1 86  1  0  0  0
  2  3  1  0  0  0
  2 25  1  0  0  0
  2 89  1  0  0  0
  2 90  1  0  0  0
  3  4  1  0  0  0
  3 91  1  0  0  0
  3 92  1  0  0  0
  4  5  1  0  0  0
  4 93  1  0  0  0
  4 94  1  0  0  0
  5  6  1  0  0  0
  5 26  1  0  0  0
  5 95  1  0  0  0
  6 25  1  0  0  0
  6 96  1  0  0  0
  6 97  1  0  0  0
  7  8  2  0  0  0
  7 26  1  0  0  0
  7 29  1  0  0  0
  8  9  1  0  0  0
  8 22  1  0  0  0
  9 10  1  0  0  0
  9 27  2  0  0  0
 10 11  2  0  0  0
 10 15  1  0  0  0
 11 12  1  0  0  0
 11 98  1  0  0  0
 12 13  2  0  0  0
 12 99  1  0  0  0
 13 14  1  0  0  0
 13 31  1  0  0  0
 14 15  2  0  0  0
 14100  1  0  0  0
 15101  1  0  0  0
 16 17  2  0  0  0
 16 21  1  0  0  0
 16 31  1  0  0  0
 17 18  1  0  0  0
 17102  1  0  0  0
 18 19  2  0  0  0
 18103  1  0  0  0
 19 20  1  0  0  0
 19 24  1  0  0  0
 20 21  2  0  0  0
 20104  1  0  0  0
 21 23  1  0  0  0
 22 28  1  0  0  0
 22 32  2  0  0  0
 26 27  1  0  0  0
 28105  1  0  0  0
 28106  1  0  0  0
 29107  1  0  0  0
 29108  1  0  0  0
 33 34  1  0  0  0
 33 66  1  0  0  0
 33 70  2  0  0  0
 34 36  1  0  0  0
 34 59  1  0  0  0
 34109  1  0  0  0
 35 44  2  0  0  0
 35 45  1  0  0  0
 35 68  1  0  0  0
 36 56  1  0  0  0
 36110  1  0  0  0
 37 39  1  0  0  0
 37 47  1  0  0  0
 37 66  1  0  0  0
 37111  1  0  0  0
 38 43  2  0  0  0
 38 46  1  0  0  0
 38 47  1  0  0  0
 39 64  1  0  0  0
 39 67  2  0  0  0
 40 52  1  0  0  0
 40 53  2  0  0  0
 40 58  1  0  0  0
 41112  1  0  0  0
 41113  1  0  0  0
 41114  1  0  0  0
 41 48  1  0  0  0
 42 43  1  0  0  0
 42 66  1  0  0  0
 42115  1  0  0  0
 42116  1  0  0  0
 43 44  1  0  0  0
 44117  1  0  0  0
 45 46  2  0  0  0
 45118  1  0  0  0
 46119  1  0  0  0
 47120  1  0  0  0
 47121  1  0  0  0
 48 56  1  0  0  0
 48 65  1  0  0  0
 48122  1  0  0  0
 49 50  1  0  0  0
 49 53  1  0  0  0
 49 64  1  0  0  0
 49123  1  0  0  0
 50 51  1  0  0  0
 50124  1  0  0  0
 50125  1  0  0  0
 51 52  1  0  0  0
 51126  1  0  0  0
 51127  1  0  0  0
 52128  1  0  0  0
 52129  1  0  0  0
 53 54  1  0  0  0
 54 55  2  0  0  0
 54130  1  0  0  0
 55 57  1  0  0  0
 55131  1  0  0  0
 56 69  2  0  0  0
 57 58  2  0  0  0
 57132  1  0  0  0
 58133  1  0  0  0
 59 60  1  0  0  0
 59 61  1  0  0  0
 59 62  1  0  0  0
 60134  1  0  0  0
 60135  1  0  0  0
 60136  1  0  0  0
 61137  1  0  0  0
 61138  1  0  0  0
 61139  1  0  0  0
 62140  1  0  0  0
 62141  1  0  0  0
 62142  1  0  0  0
 63 65  1  0  0  0
 63143  1  0  0  0
 63144  1  0  0  0
 63145  1  0  0  0
 64146  1  0  0  0
 65147  1  0  0  0
 68 84  1  0  0  0
 71 72  2  0  0  0
 71 73  1  0  0  0
 71148  1  0  0  0
 72 88  1  0  0  0
 72149  1  0  0  0
 73 74  2  0  0  0
 73 86  1  0  0  0
 74 88  1  0  0  0
 74 79  1  0  0  0
 75 85  1  0  0  0
 75 87  2  0  0  0
 75 80  1  0  0  0
 76 77  1  0  0  0
 76 78  1  0  0  0
 76150  1  0  0  0
 76151  1  0  0  0
 77 79  1  0  0  0
 77152  1  0  0  0
 77153  1  0  0  0
 78 80  1  0  0  0
 78154  1  0  0  0
 78155  1  0  0  0
 79 80  1  0  0  0
 79156  1  0  0  0
 80 81  1  0  0  0
 81157  1  0  0  0
 81158  1  0  0  0
 81159  1  0  0  0
 82160  1  0  0  0
 82161  1  0  0  0
 82162  1  0  0  0
 82 85  1  0  0  0
 83 85  1  0  0  0
 83163  1  0  0  0
 83164  1  0  0  0
 83165  1  0  0  0
 84 85  1  0  0  0
 84166  1  0  0  0
 84167  1  0  0  0
 86168  1  0  0  0
M  ISO  4   1 100  68 101  84 101  86 100
M  END
> <chiral flag>
0

> <version>
0

> <s_m_source_file>
/data/baiqing/PycharmProjects/Reinvent-master-3.2/result/LINK_invent/BTK/process_docking_weight1_custom_product_contain_oxygen_bond_distance_aromatic_linkinvent_7_9_3/rearranged_h_0143.sdf

> <i_m_source_file_index>
63

> <r_mmod_Potential_Energy-OPLS-2005>
457.84716796875

> <r_mmod_Stretch_Energy-OPLS-2005>
181.828750610352

> <r_mmod_Bend_Energy-OPLS-2005>
310.413818359375

> <r_mmod_Torsional_Energy-OPLS-2005>
287.608245849609

> <r_mmod_Improper_Torsional_Energy-OPLS-2005>
6.81676578521729

> <r_mmod_Van_der_Waal_Energy-OPLS-2005>
130.974563598633

> <r_mmod_Electrostatic_Energy-OPLS-2005>
-334.001953125

> <r_mmod_Solvation_Energy-OPLS-2005>
-213.678894042969

> <b_mmod_Minimization_Converged-OPLS-2005>
0

> <r_mmod_RMS_Derivative-OPLS-2005>
4.82025194168091

$$$$
63
                    3D
 Structure written by MMmdl.
162170  0  0  1  0            999 V2000
  -30.7028  -14.4863   20.5897 C   0  0  0  0  0  0
  -30.4241  -12.3261   19.4199 C   0  0  0  0  0  0
  -29.4941  -12.5050   18.2044 C   0  0  0  0  0  0
  -28.0179  -12.3496   18.6217 C   0  0  0  0  0  0
  -27.6561  -13.2059   19.8637 C   0  0  2  0  0  0
  -28.6971  -13.0126   20.9874 C   0  0  0  0  0  0
  -25.2573  -13.8158   20.5667 C   0  0  0  0  0  0
  -24.1825  -13.0440   20.9176 C   0  0  0  0  0  0
  -24.6366  -11.6903   20.8705 C   0  0  0  0  0  0
  -23.9025  -10.4296   21.0401 C   0  0  0  0  0  0
  -24.3585   -9.4218   21.9185 C   0  0  0  0  0  0
  -23.6280   -8.2242   22.0749 C   0  0  0  0  0  0
  -22.4260   -8.0268   21.3547 C   0  0  0  0  0  0
  -21.9888   -9.0236   20.4654 C   0  0  0  0  0  0
  -22.7194  -10.2128   20.3065 C   0  0  0  0  0  0
  -21.6849   -6.0729   22.5281 C   0  0  0  0  0  0
  -21.4010   -6.5630   23.8209 C   0  0  0  0  0  0
  -21.3669   -5.6780   24.9180 C   0  0  0  0  0  0
  -21.6047   -4.3051   24.7219 C   0  0  0  0  0  0
  -21.8816   -3.8142   23.4335 C   0  0  0  0  0  0
  -21.9191   -4.6955   22.3401 C   0  0  0  0  0  0
  -22.7843  -13.5238   21.1841 C   0  0  0  0  0  0
  -22.1657   -4.2153   21.0975 F   0  0  0  0  0  0
  -21.5641   -3.4525   25.7727 F   0  0  0  0  0  0
  -30.0232  -13.3195   20.4280 N   0  0  0  0  0  0
  -26.2982  -12.9319   20.3289 N   0  0  0  0  0  0
  -25.9283  -11.6475   20.5701 N   0  0  0  0  0  0
  -22.0448  -12.8256   22.0390 N   0  0  0  0  0  0
  -25.4306  -15.1875   20.4081 N   0  0  0  0  0  0
  -31.8528  -14.6492   20.1664 O   0  0  0  0  0  0
  -21.6628   -6.8865   21.4243 O   0  0  0  0  0  0
  -22.3544  -14.5550   20.6693 O   0  0  0  0  0  0
  -24.6123  -31.8680   23.2099 C   0  0  0  0  0  0
  -25.9024  -32.4817   23.8395 C   0  0  1  0  0  0
  -27.2256  -27.4249   20.1375 C   0  0  0  0  0  0
  -25.5899  -33.8617   24.2339 N   0  0  0  0  0  0
  -23.4008  -30.4927   21.5465 C   0  0  2  0  0  0
  -24.8526  -28.9618   20.1054 C   0  0  0  0  0  0
  -22.7397  -29.4649   22.4936 C   0  0  0  0  0  0
  -18.0276  -28.1383   22.8479 C   0  0  0  0  0  0
  -24.1488  -36.7319   23.2626 C   0  0  0  0  0  0
  -25.9259  -30.8400   21.3585 C   0  0  0  0  0  0
  -26.0076  -29.4728   20.7107 C   0  0  0  0  0  0
  -27.1989  -28.7135   20.7211 C   0  0  0  0  0  0
  -26.0687  -26.9402   19.4967 C   0  0  0  0  0  0
  -24.8808  -27.6985   19.4861 C   0  0  0  0  0  0
  -23.6132  -29.8293   20.1578 C   0  0  0  0  0  0
  -25.4098  -36.3112   24.0340 C   0  0  1  0  0  0
  -20.5868  -28.3665   23.1309 C   0  0  2  0  0  0
  -20.6771  -26.9396   22.5425 C   0  0  0  0  0  0
  -19.5758  -26.6390   21.5211 C   0  0  0  0  0  0
  -18.1930  -26.7932   22.1609 C   0  0  0  0  0  0
  -19.1524  -28.8839   23.2894 C   0  0  0  0  0  0
  -18.9454  -30.1447   23.8900 C   0  0  0  0  0  0
  -17.6454  -30.6583   24.0562 C   0  0  0  0  0  0
  -25.9025  -34.9477   23.5136 C   0  0  0  0  0  0
  -16.5347  -29.9076   23.6337 C   0  0  0  0  0  0
  -16.7267  -28.6506   23.0330 C   0  0  0  0  0  0
  -26.4485  -31.6568   25.0693 C   0  0  0  0  0  0
  -25.3782  -31.3691   26.1475 C   0  0  0  0  0  0
  -27.0276  -30.2998   24.6027 C   0  0  0  0  0  0
  -27.6093  -32.4254   25.7437 C   0  0  0  0  0  0
  -27.5603  -37.1780   24.8430 C   0  0  0  0  0  0
  -21.4126  -29.3019   22.3683 N   0  0  0  0  0  0
  -26.4270  -37.3810   23.9448 N   0  0  0  0  0  0
  -24.6645  -31.0808   22.0982 N   0  0  0  0  0  0
  -23.4171  -28.8202   23.2984 O   0  0  0  0  0  0
  -28.3574  -26.6369   20.2079 O   0  0  0  0  0  0
  -26.5587  -34.8931   22.4696 O   0  0  0  0  0  0
  -23.5320  -32.1416   23.7513 O   0  0  0  0  0  0
  -31.6136  -18.5092   22.8374 C   0  0  0  0  0  0
  -30.6515  -18.9663   21.9715 C   0  0  0  0  0  0
  -30.4884  -16.7296   21.5808 C   0  0  0  0  0  0
  -30.4825  -20.4185   21.7370 C   0  0  0  0  0  0
  -29.7911  -21.0537   20.7663 C   0  0  0  0  0  0
  -29.9716  -25.6835   21.6564 C   0  0  0  0  0  0
  -27.7470  -26.1986   22.6041 C   0  0  0  0  0  0
  -29.8641  -22.5789   20.5698 C   0  0  0  0  0  0
  -27.8907  -24.2815   20.9841 C   0  0  0  0  0  0
  -28.6489  -23.3679   19.9722 C   0  0  2  0  0  0
  -28.4684  -25.7023   21.3231 C   0  0  0  0  0  0
  -29.9858  -17.9431   21.2683 N   0  0  0  0  0  0
  -29.9718  -15.5288   21.0344 N   0  0  0  0  0  0
  -27.7232  -22.4833   19.2319 N   0  3  0  0  0  0
  -31.7798  -16.7784   22.7787 S   0  0  0  0  0  0
  -31.4663  -12.4365   19.1142 H   0  0  0  0  0  0
  -30.3345  -11.3178   19.8262 H   0  0  0  0  0  0
  -29.7430  -11.7805   17.4275 H   0  0  0  0  0  0
  -29.6489  -13.4896   17.7618 H   0  0  0  0  0  0
  -27.8471  -11.2954   18.8399 H   0  0  0  0  0  0
  -27.3615  -12.5976   17.7863 H   0  0  0  0  0  0
  -27.6942  -14.2474   19.5426 H   0  0  0  0  0  0
  -28.6784  -11.9851   21.3525 H   0  0  0  0  0  0
  -28.4527  -13.6336   21.8504 H   0  0  0  0  0  0
  -25.2730   -9.5723   22.4753 H   0  0  0  0  0  0
  -24.0009   -7.4629   22.7450 H   0  0  0  0  0  0
  -21.0827   -8.8750   19.8947 H   0  0  0  0  0  0
  -22.3641  -10.9666   19.6176 H   0  0  0  0  0  0
  -21.1992   -7.6130   23.9716 H   0  0  0  0  0  0
  -21.1504   -6.0512   25.9089 H   0  0  0  0  0  0
  -22.0589   -2.7601   23.2829 H   0  0  0  0  0  0
  -22.3999  -11.9907   22.4827 H   0  0  0  0  0  0
  -21.1063  -13.1338   22.2508 H   0  0  0  0  0  0
  -24.6679  -15.8464   20.5236 H   0  0  0  0  0  0
  -26.2792  -15.6268   20.0734 H   0  0  0  0  0  0
  -26.7083  -32.5554   23.1155 H   0  0  0  0  0  0
  -25.0072  -33.9786   25.0499 H   0  0  0  0  0  0
  -22.6867  -31.3081   21.4107 H   0  0  0  0  0  0
  -23.3759  -35.9636   23.3242 H   0  0  0  0  0  0
  -24.3604  -36.8976   22.2050 H   0  0  0  0  0  0
  -23.7219  -37.6507   23.6653 H   0  0  0  0  0  0
  -26.0266  -31.6054   20.5880 H   0  0  0  0  0  0
  -26.8172  -30.9035   21.9699 H   0  0  0  0  0  0
  -28.0849  -29.0930   21.2104 H   0  0  0  0  0  0
  -26.0805  -25.9724   19.0181 H   0  0  0  0  0  0
  -23.9973  -27.3052   19.0026 H   0  0  0  0  0  0
  -23.7219  -30.6106   19.4041 H   0  0  0  0  0  0
  -22.7375  -29.2534   19.8553 H   0  0  0  0  0  0
  -25.1255  -36.1964   25.0827 H   0  0  0  0  0  0
  -20.9973  -28.3260   24.1426 H   0  0  0  0  0  0
  -20.5676  -26.2264   23.3610 H   0  0  0  0  0  0
  -21.6646  -26.7446   22.1227 H   0  0  0  0  0  0
  -19.6923  -25.6306   21.1228 H   0  0  0  0  0  0
  -19.6719  -27.3218   20.6753 H   0  0  0  0  0  0
  -17.4206  -26.6674   21.4006 H   0  0  0  0  0  0
  -18.0333  -26.0077   22.9009 H   0  0  0  0  0  0
  -19.7930  -30.7266   24.2256 H   0  0  0  0  0  0
  -17.5013  -31.6261   24.5168 H   0  0  0  0  0  0
  -15.5342  -30.2970   23.7672 H   0  0  0  0  0  0
  -15.8670  -28.0833   22.7017 H   0  0  0  0  0  0
  -24.5909  -30.7085   25.7830 H   0  0  0  0  0  0
  -24.9033  -32.2857   26.4978 H   0  0  0  0  0  0
  -25.8157  -30.8813   27.0193 H   0  0  0  0  0  0
  -26.2777  -29.6773   24.1125 H   0  0  0  0  0  0
  -27.4098  -29.7222   25.4456 H   0  0  0  0  0  0
  -27.8605  -30.4301   23.9110 H   0  0  0  0  0  0
  -27.2755  -33.3554   26.2049 H   0  0  0  0  0  0
  -28.3887  -32.6798   25.0241 H   0  0  0  0  0  0
  -28.0776  -31.8341   26.5317 H   0  0  0  0  0  0
  -28.2513  -38.0178   24.7623 H   0  0  0  0  0  0
  -28.1194  -36.2725   24.6028 H   0  0  0  0  0  0
  -27.2363  -37.1177   25.8831 H   0  0  0  0  0  0
  -20.9255  -29.8692   21.6886 H   0  0  0  0  0  0
  -26.0151  -38.2856   24.1558 H   0  0  0  0  0  0
  -32.2644  -19.0895   23.4777 H   0  0  0  0  0  0
  -31.0303  -21.0432   22.4295 H   0  0  0  0  0  0
  -29.2248  -20.4643   20.0617 H   0  0  0  0  0  0
  -30.1994  -24.9956   22.4714 H   0  0  0  0  0  0
  -30.3092  -26.6674   21.9835 H   0  0  0  0  0  0
  -30.5814  -25.4083   20.7964 H   0  0  0  0  0  0
  -27.9272  -25.5301   23.4481 H   0  0  0  0  0  0
  -26.6656  -26.2448   22.4740 H   0  0  0  0  0  0
  -28.0905  -27.1873   22.9068 H   0  0  0  0  0  0
  -30.7097  -22.7451   19.9009 H   0  0  0  0  0  0
  -30.1729  -23.0161   21.5165 H   0  0  0  0  0  0
  -27.7654  -23.7112   21.9061 H   0  0  0  0  0  0
  -26.8738  -24.4390   20.6268 H   0  0  0  0  0  0
  -29.0505  -24.0426   19.2139 H   0  0  0  0  0  0
  -28.9766  -15.3951   21.1064 H   0  0  0  0  0  0
  -27.2755  -21.8223   19.8422 H   0  0  0  0  0  0
  -28.2224  -21.9835   18.5178 H   0  0  0  0  0  0
  -27.0095  -23.0229   18.7738 H   0  0  0  0  0  0
  1 25  1  0  0  0
  1 30  2  0  0  0
  1 83  1  0  0  0
  2  3  1  0  0  0
  2 25  1  0  0  0
  2 86  1  0  0  0
  2 87  1  0  0  0
  3  4  1  0  0  0
  3 88  1  0  0  0
  3 89  1  0  0  0
  4  5  1  0  0  0
  4 90  1  0  0  0
  4 91  1  0  0  0
  5  6  1  0  0  0
  5 26  1  0  0  0
  5 92  1  0  0  0
  6 25  1  0  0  0
  6 93  1  0  0  0
  6 94  1  0  0  0
  7  8  2  0  0  0
  7 26  1  0  0  0
  7 29  1  0  0  0
  8  9  1  0  0  0
  8 22  1  0  0  0
  9 10  1  0  0  0
  9 27  2  0  0  0
 10 11  2  0  0  0
 10 15  1  0  0  0
 11 12  1  0  0  0
 11 95  1  0  0  0
 12 13  2  0  0  0
 12 96  1  0  0  0
 13 14  1  0  0  0
 13 31  1  0  0  0
 14 15  2  0  0  0
 14 97  1  0  0  0
 15 98  1  0  0  0
 16 17  2  0  0  0
 16 21  1  0  0  0
 16 31  1  0  0  0
 17 18  1  0  0  0
 17 99  1  0  0  0
 18 19  2  0  0  0
 18100  1  0  0  0
 19 20  1  0  0  0
 19 24  1  0  0  0
 20 21  2  0  0  0
 20101  1  0  0  0
 21 23  1  0  0  0
 22 28  1  0  0  0
 22 32  2  0  0  0
 26 27  1  0  0  0
 28102  1  0  0  0
 28103  1  0  0  0
 29104  1  0  0  0
 29105  1  0  0  0
 33 34  1  0  0  0
 33 66  1  0  0  0
 33 70  2  0  0  0
 34 36  1  0  0  0
 34 59  1  0  0  0
 34106  1  0  0  0
 35 44  2  0  0  0
 35 45  1  0  0  0
 35 68  1  0  0  0
 36 56  1  0  0  0
 36107  1  0  0  0
 37 39  1  0  0  0
 37 47  1  0  0  0
 37 66  1  0  0  0
 37108  1  0  0  0
 38 43  2  0  0  0
 38 46  1  0  0  0
 38 47  1  0  0  0
 39 64  1  0  0  0
 39 67  2  0  0  0
 40 52  1  0  0  0
 40 53  2  0  0  0
 40 58  1  0  0  0
 41109  1  0  0  0
 41110  1  0  0  0
 41111  1  0  0  0
 41 48  1  0  0  0
 42 43  1  0  0  0
 42 66  1  0  0  0
 42112  1  0  0  0
 42113  1  0  0  0
 43 44  1  0  0  0
 44114  1  0  0  0
 45 46  2  0  0  0
 45115  1  0  0  0
 46116  1  0  0  0
 47117  1  0  0  0
 47118  1  0  0  0
 48 56  1  0  0  0
 48 65  1  0  0  0
 48119  1  0  0  0
 49 50  1  0  0  0
 49 53  1  0  0  0
 49 64  1  0  0  0
 49120  1  0  0  0
 50 51  1  0  0  0
 50121  1  0  0  0
 50122  1  0  0  0
 51 52  1  0  0  0
 51123  1  0  0  0
 51124  1  0  0  0
 52125  1  0  0  0
 52126  1  0  0  0
 53 54  1  0  0  0
 54 55  2  0  0  0
 54127  1  0  0  0
 55 57  1  0  0  0
 55128  1  0  0  0
 56 69  2  0  0  0
 57 58  2  0  0  0
 57129  1  0  0  0
 58130  1  0  0  0
 59 60  1  0  0  0
 59 61  1  0  0  0
 59 62  1  0  0  0
 60131  1  0  0  0
 60132  1  0  0  0
 60133  1  0  0  0
 61134  1  0  0  0
 61135  1  0  0  0
 61136  1  0  0  0
 62137  1  0  0  0
 62138  1  0  0  0
 62139  1  0  0  0
 63 65  1  0  0  0
 63140  1  0  0  0
 63141  1  0  0  0
 63142  1  0  0  0
 64143  1  0  0  0
 65144  1  0  0  0
 68 81  1  0  0  0
 71 72  2  0  0  0
 71 85  1  0  0  0
 71145  1  0  0  0
 72 74  1  0  0  0
 72 82  1  0  0  0
 73 82  2  0  0  0
 73 83  1  0  0  0
 73 85  1  0  0  0
 74 75  2  0  0  0
 74146  1  0  0  0
 75 78  1  0  0  0
 75147  1  0  0  0
 76148  1  0  0  0
 76149  1  0  0  0
 76150  1  0  0  0
 76 81  1  0  0  0
 77 81  1  0  0  0
 77151  1  0  0  0
 77152  1  0  0  0
 77153  1  0  0  0
 78 80  1  0  0  0
 78154  1  0  0  0
 78155  1  0  0  0
 79 80  1  0  0  0
 79 81  1  0  0  0
 79156  1  0  0  0
 79157  1  0  0  0
 80 84  1  0  0  0
 80158  1  0  0  0
 83159  1  0  0  0
 84160  1  0  0  0
 84161  1  0  0  0
 84162  1  0  0  0
M  CHG  1  84   1
M  ISO  4   1 100  68 101  81 101  83 100
M  END
> <chiral flag>
0

> <version>
0

> <s_m_source_file>
/data/baiqing/PycharmProjects/Reinvent-master-3.2/result/LINK_invent/BTK/process_docking_weight1_custom_product_contain_oxygen_bond_distance_aromatic_linkinvent_7_9_3/rearranged_h_0143.sdf

> <i_m_source_file_index>
64

> <r_mmod_Potential_Energy-OPLS-2005>
-287.239013671875

> <r_mmod_Stretch_Energy-OPLS-2005>
41.8130226135254

> <r_mmod_Bend_Energy-OPLS-2005>
121.26318359375

> <r_mmod_Torsional_Energy-OPLS-2005>
267.387756347656

> <r_mmod_Improper_Torsional_Energy-OPLS-2005>
6.42626333236694

> <r_mmod_Van_der_Waal_Energy-OPLS-2005>
129.775619506836

> <r_mmod_Electrostatic_Energy-OPLS-2005>
-393.496551513672

> <r_mmod_Solvation_Energy-OPLS-2005>
-479.633209228516

> <b_mmod_Minimization_Converged-OPLS-2005>
0

> <r_mmod_RMS_Derivative-OPLS-2005>
2.84705901145935

$$$$
64
                    3D
 Structure written by MMmdl.
175184  0  0  1  0            999 V2000
  -30.5393  -14.9681   20.3783 C   0  0  0  0  0  0
  -30.4276  -12.5795   19.5248 C   0  0  0  0  0  0
  -29.5268  -12.5343   18.2685 C   0  0  0  0  0  0
  -28.0579  -12.3186   18.6789 C   0  0  0  0  0  0
  -27.6284  -13.2563   19.8379 C   0  0  2  0  0  0
  -28.6631  -13.3078   20.9832 C   0  0  0  0  0  0
  -25.2459  -13.8245   20.5695 C   0  0  0  0  0  0
  -24.1760  -13.0416   20.9181 C   0  0  0  0  0  0
  -24.6397  -11.6934   20.8714 C   0  0  0  0  0  0
  -23.9093  -10.4289   21.0395 C   0  0  0  0  0  0
  -24.3630   -9.4211   21.9180 C   0  0  0  0  0  0
  -23.6292   -8.2249   22.0766 C   0  0  0  0  0  0
  -22.4287   -8.0276   21.3546 C   0  0  0  0  0  0
  -21.9923   -9.0254   20.4657 C   0  0  0  0  0  0
  -22.7265  -10.2129   20.3049 C   0  0  0  0  0  0
  -21.6858   -6.0726   22.5277 C   0  0  0  0  0  0
  -21.4022   -6.5637   23.8205 C   0  0  0  0  0  0
  -21.3657   -5.6794   24.9176 C   0  0  0  0  0  0
  -21.6037   -4.3054   24.7237 C   0  0  0  0  0  0
  -21.8823   -3.8140   23.4364 C   0  0  0  0  0  0
  -21.9195   -4.6952   22.3406 C   0  0  0  0  0  0
  -22.7798  -13.5207   21.1852 C   0  0  0  0  0  0
  -22.1664   -4.2128   21.0986 F   0  0  0  0  0  0
  -21.5625   -3.4542   25.7753 F   0  0  0  0  0  0
  -29.9527  -13.6992   20.3963 N   0  0  0  0  0  0
  -26.2878  -12.9483   20.3235 N   0  0  0  0  0  0
  -25.9323  -11.6610   20.5700 N   0  0  0  0  0  0
  -22.0462  -12.8174   22.0434 N   0  0  0  0  0  0
  -25.4122  -15.1957   20.4177 N   0  0  0  0  0  0
  -31.7278  -15.0186   20.0408 O   0  0  0  0  0  0
  -21.6651   -6.8876   21.4243 O   0  0  0  0  0  0
  -22.3480  -14.5502   20.6712 O   0  0  0  0  0  0
  -24.6499  -31.8415   23.1725 C   0  0  0  0  0  0
  -25.9212  -32.4693   23.8175 C   0  0  1  0  0  0
  -27.2562  -27.1264   20.1411 C   0  0  0  0  0  0
  -25.5879  -33.8495   24.2041 N   0  0  0  0  0  0
  -23.4579  -30.4531   21.5224 C   0  0  2  0  0  0
  -24.9159  -28.8783   20.1148 C   0  0  0  0  0  0
  -22.7603  -29.4567   22.4854 C   0  0  0  0  0  0
  -18.0289  -28.1372   22.8454 C   0  0  0  0  0  0
  -24.1485  -36.7298   23.2662 C   0  0  0  0  0  0
  -26.0169  -30.7224   21.3675 C   0  0  0  0  0  0
  -26.0984  -29.3319   20.7105 C   0  0  0  0  0  0
  -27.2668  -28.4743   20.6983 C   0  0  0  0  0  0
  -26.0206  -26.7624   19.5579 C   0  0  0  0  0  0
  -24.8881  -27.6053   19.5339 C   0  0  0  0  0  0
  -23.6816  -29.7610   20.1523 C   0  0  0  0  0  0
  -25.4110  -36.2990   24.0265 C   0  0  1  0  0  0
  -20.5912  -28.3730   23.1190 C   0  0  2  0  0  0
  -20.6792  -26.9406   22.5396 C   0  0  0  0  0  0
  -19.5785  -26.6324   21.5198 C   0  0  0  0  0  0
  -18.1939  -26.7912   22.1569 C   0  0  0  0  0  0
  -19.1547  -28.8861   23.2802 C   0  0  0  0  0  0
  -18.9467  -30.1449   23.8837 C   0  0  0  0  0  0
  -17.6470  -30.6580   24.0517 C   0  0  0  0  0  0
  -25.9062  -34.9399   23.4952 C   0  0  0  0  0  0
  -16.5350  -29.9064   23.6344 C   0  0  0  0  0  0
  -16.7271  -28.6477   23.0365 C   0  0  0  0  0  0
  -26.4441  -31.6633   25.0686 C   0  0  0  0  0  0
  -25.3556  -31.3919   26.1332 C   0  0  0  0  0  0
  -27.0378  -30.3012   24.6411 C   0  0  0  0  0  0
  -27.5853  -32.4523   25.7493 C   0  0  0  0  0  0
  -27.5558  -37.1739   24.8411 C   0  0  0  0  0  0
  -21.4289  -29.3082   22.3596 N   0  0  0  0  0  0
  -26.4256  -37.3681   23.9388 N   0  0  0  0  0  0
  -24.7280  -31.0276   22.0754 N   0  0  0  0  0  0
  -23.4228  -28.8134   23.3022 O   0  0  0  0  0  0
  -28.3435  -26.1730   20.2822 O   0  0  0  0  0  0
  -26.5732  -34.8900   22.4587 O   0  0  0  0  0  0
  -23.5589  -32.1315   23.6890 O   0  0  0  0  0  0
  -29.9672  -18.8330   17.8975 C   0  0  0  0  0  0
  -30.0083  -17.6233   18.6151 C   0  0  0  0  0  0
  -29.5497  -18.9295   20.6125 C   0  0  0  0  0  0
  -29.8012  -20.0934   18.5197 C   0  0  0  0  0  0
  -29.5642  -20.2638   19.9123 C   0  0  0  0  0  0
  -29.8158  -17.5793   20.0085 C   0  0  0  0  0  0
  -30.1782  -21.3021   17.7010 C   0  0  0  0  0  0
  -31.3695  -21.9392   18.4031 C   0  0  0  0  0  0
  -31.1114  -22.2234   19.9074 C   0  0  0  0  0  0
  -29.6789  -21.8779   20.4621 C   0  0  1  0  0  0
  -30.8711  -21.1699   22.7279 C   0  0  0  0  0  0
  -28.3834  -21.4910   22.6847 C   0  0  0  0  0  0
  -29.9519  -23.4302   22.5527 C   0  0  0  0  0  0
  -30.1933  -25.2540   19.3039 C   0  0  0  0  0  0
  -28.1080  -24.9215   18.1334 C   0  0  0  0  0  0
  -28.5964  -23.1645   19.9824 C   0  0  0  0  0  0
  -29.7199  -21.9728   22.0601 C   0  0  0  0  0  0
  -28.7332  -24.8431   19.5392 C   0  0  0  0  0  0
  -29.7940  -16.1643   20.6255 N   0  0  0  0  0  0
  -31.4729  -12.6871   19.2356 H   0  0  0  0  0  0
  -30.3701  -11.6305   20.0606 H   0  0  0  0  0  0
  -29.8477  -11.7402   17.5909 H   0  0  0  0  0  0
  -29.6242  -13.4714   17.7179 H   0  0  0  0  0  0
  -27.9544  -11.2762   18.9847 H   0  0  0  0  0  0
  -27.4016  -12.4455   17.8169 H   0  0  0  0  0  0
  -27.5866  -14.2556   19.4004 H   0  0  0  0  0  0
  -28.7322  -12.3479   21.4963 H   0  0  0  0  0  0
  -28.3537  -14.0364   21.7345 H   0  0  0  0  0  0
  -25.2777   -9.5673   22.4762 H   0  0  0  0  0  0
  -23.9985   -7.4654   22.7499 H   0  0  0  0  0  0
  -21.0847   -8.8777   19.8968 H   0  0  0  0  0  0
  -22.3723  -10.9656   19.6146 H   0  0  0  0  0  0
  -21.2021   -7.6150   23.9700 H   0  0  0  0  0  0
  -21.1474   -6.0537   25.9075 H   0  0  0  0  0  0
  -22.0602   -2.7597   23.2879 H   0  0  0  0  0  0
  -22.4125  -11.9839   22.4779 H   0  0  0  0  0  0
  -21.1086  -13.1195   22.2666 H   0  0  0  0  0  0
  -24.6410  -15.8456   20.5236 H   0  0  0  0  0  0
  -26.2689  -15.6445   20.1178 H   0  0  0  0  0  0
  -26.7342  -32.5307   23.0972 H   0  0  0  0  0  0
  -24.9796  -33.9587   25.0019 H   0  0  0  0  0  0
  -22.7663  -31.2782   21.3478 H   0  0  0  0  0  0
  -23.3689  -35.9677   23.3273 H   0  0  0  0  0  0
  -24.3569  -36.9052   22.2098 H   0  0  0  0  0  0
  -23.7337  -37.6473   23.6841 H   0  0  0  0  0  0
  -26.1726  -31.4778   20.5955 H   0  0  0  0  0  0
  -26.8857  -30.7804   22.0136 H   0  0  0  0  0  0
  -28.1850  -28.8209   21.1583 H   0  0  0  0  0  0
  -25.8523  -25.7629   19.1989 H   0  0  0  0  0  0
  -23.9689  -27.2197   19.1170 H   0  0  0  0  0  0
  -23.7784  -30.5100   19.3658 H   0  0  0  0  0  0
  -22.8087  -29.1649   19.8751 H   0  0  0  0  0  0
  -25.1289  -36.1754   25.0744 H   0  0  0  0  0  0
  -20.9945  -28.3334   24.1327 H   0  0  0  0  0  0
  -20.5686  -26.2305   23.3601 H   0  0  0  0  0  0
  -21.6660  -26.7410   22.1191 H   0  0  0  0  0  0
  -19.6954  -25.6200   21.1304 H   0  0  0  0  0  0
  -19.6777  -27.3061   20.6669 H   0  0  0  0  0  0
  -17.4211  -26.6623   21.3961 H   0  0  0  0  0  0
  -18.0317  -26.0034   22.8943 H   0  0  0  0  0  0
  -19.7951  -30.7228   24.2208 H   0  0  0  0  0  0
  -17.5047  -31.6282   24.5094 H   0  0  0  0  0  0
  -15.5348  -30.2940   23.7778 H   0  0  0  0  0  0
  -15.8643  -28.0800   22.7154 H   0  0  0  0  0  0
  -24.5635  -30.7396   25.7621 H   0  0  0  0  0  0
  -24.8828  -32.3159   26.4692 H   0  0  0  0  0  0
  -25.7693  -30.9086   27.0198 H   0  0  0  0  0  0
  -26.3045  -29.6621   24.1469 H   0  0  0  0  0  0
  -27.3978  -29.7446   25.5084 H   0  0  0  0  0  0
  -27.8930  -30.4164   23.9740 H   0  0  0  0  0  0
  -27.2307  -33.3845   26.1914 H   0  0  0  0  0  0
  -28.3701  -32.7135   25.0383 H   0  0  0  0  0  0
  -28.0496  -31.8849   26.5555 H   0  0  0  0  0  0
  -28.2410  -38.0186   24.7512 H   0  0  0  0  0  0
  -28.1192  -36.2672   24.6119 H   0  0  0  0  0  0
  -27.2296  -37.1250   25.8817 H   0  0  0  0  0  0
  -20.9546  -29.8830   21.6780 H   0  0  0  0  0  0
  -26.0096  -38.2706   24.1441 H   0  0  0  0  0  0
  -30.1580  -18.7921   16.8339 H   0  0  0  0  0  0
  -30.1993  -16.7136   18.0632 H   0  0  0  0  0  0
  -29.3927  -18.9318   21.6772 H   0  0  0  0  0  0
  -29.3508  -21.9955   17.5797 H   0  0  0  0  0  0
  -30.4716  -21.0211   16.6903 H   0  0  0  0  0  0
  -31.7177  -22.8101   17.8529 H   0  0  0  0  0  0
  -32.1873  -21.2168   18.3413 H   0  0  0  0  0  0
  -31.4522  -23.2170   20.1640 H   0  0  0  0  0  0
  -31.8344  -21.5886   20.4151 H   0  0  0  0  0  0
  -30.9792  -20.1535   22.3674 H   0  0  0  0  0  0
  -30.7293  -21.1046   23.8081 H   0  0  0  0  0  0
  -31.8398  -21.6502   22.5893 H   0  0  0  0  0  0
  -28.3284  -21.7506   23.7443 H   0  0  0  0  0  0
  -28.2482  -20.4161   22.6144 H   0  0  0  0  0  0
  -27.4985  -21.9293   22.2298 H   0  0  0  0  0  0
  -30.8211  -23.9014   22.0962 H   0  0  0  0  0  0
  -30.1400  -23.4612   23.6278 H   0  0  0  0  0  0
  -29.0938  -24.0788   22.3773 H   0  0  0  0  0  0
  -30.7306  -24.5593   18.6686 H   0  0  0  0  0  0
  -30.7434  -25.3852   20.2344 H   0  0  0  0  0  0
  -30.2324  -26.2080   18.7787 H   0  0  0  0  0  0
  -28.6530  -24.2795   17.4430 H   0  0  0  0  0  0
  -28.1291  -25.9282   17.7169 H   0  0  0  0  0  0
  -27.0778  -24.5744   18.1315 H   0  0  0  0  0  0
  -27.7374  -23.1713   20.6420 H   0  0  0  0  0  0
  -28.1451  -22.7195   19.1036 H   0  0  0  0  0  0
  -28.9462  -15.9745   21.1397 H   0  0  0  0  0  0
  1 25  1  0  0  0
  1 30  2  0  0  0
  1 89  1  0  0  0
  2  3  1  0  0  0
  2 25  1  0  0  0
  2 90  1  0  0  0
  2 91  1  0  0  0
  3  4  1  0  0  0
  3 92  1  0  0  0
  3 93  1  0  0  0
  4  5  1  0  0  0
  4 94  1  0  0  0
  4 95  1  0  0  0
  5  6  1  0  0  0
  5 26  1  0  0  0
  5 96  1  0  0  0
  6 25  1  0  0  0
  6 97  1  0  0  0
  6 98  1  0  0  0
  7  8  2  0  0  0
  7 26  1  0  0  0
  7 29  1  0  0  0
  8  9  1  0  0  0
  8 22  1  0  0  0
  9 10  1  0  0  0
  9 27  2  0  0  0
 10 11  2  0  0  0
 10 15  1  0  0  0
 11 12  1  0  0  0
 11 99  1  0  0  0
 12 13  2  0  0  0
 12100  1  0  0  0
 13 14  1  0  0  0
 13 31  1  0  0  0
 14 15  2  0  0  0
 14101  1  0  0  0
 15102  1  0  0  0
 16 17  2  0  0  0
 16 21  1  0  0  0
 16 31  1  0  0  0
 17 18  1  0  0  0
 17103  1  0  0  0
 18 19  2  0  0  0
 18104  1  0  0  0
 19 20  1  0  0  0
 19 24  1  0  0  0
 20 21  2  0  0  0
 20105  1  0  0  0
 21 23  1  0  0  0
 22 28  1  0  0  0
 22 32  2  0  0  0
 26 27  1  0  0  0
 28106  1  0  0  0
 28107  1  0  0  0
 29108  1  0  0  0
 29109  1  0  0  0
 33 34  1  0  0  0
 33 66  1  0  0  0
 33 70  2  0  0  0
 34 36  1  0  0  0
 34 59  1  0  0  0
 34110  1  0  0  0
 35 44  2  0  0  0
 35 45  1  0  0  0
 35 68  1  0  0  0
 36 56  1  0  0  0
 36111  1  0  0  0
 37 39  1  0  0  0
 37 47  1  0  0  0
 37 66  1  0  0  0
 37112  1  0  0  0
 38 43  2  0  0  0
 38 46  1  0  0  0
 38 47  1  0  0  0
 39 64  1  0  0  0
 39 67  2  0  0  0
 40 52  1  0  0  0
 40 53  2  0  0  0
 40 58  1  0  0  0
 41113  1  0  0  0
 41114  1  0  0  0
 41115  1  0  0  0
 41 48  1  0  0  0
 42 43  1  0  0  0
 42 66  1  0  0  0
 42116  1  0  0  0
 42117  1  0  0  0
 43 44  1  0  0  0
 44118  1  0  0  0
 45 46  2  0  0  0
 45119  1  0  0  0
 46120  1  0  0  0
 47121  1  0  0  0
 47122  1  0  0  0
 48 56  1  0  0  0
 48 65  1  0  0  0
 48123  1  0  0  0
 49 50  1  0  0  0
 49 53  1  0  0  0
 49 64  1  0  0  0
 49124  1  0  0  0
 50 51  1  0  0  0
 50125  1  0  0  0
 50126  1  0  0  0
 51 52  1  0  0  0
 51127  1  0  0  0
 51128  1  0  0  0
 52129  1  0  0  0
 52130  1  0  0  0
 53 54  1  0  0  0
 54 55  2  0  0  0
 54131  1  0  0  0
 55 57  1  0  0  0
 55132  1  0  0  0
 56 69  2  0  0  0
 57 58  2  0  0  0
 57133  1  0  0  0
 58134  1  0  0  0
 59 60  1  0  0  0
 59 61  1  0  0  0
 59 62  1  0  0  0
 60135  1  0  0  0
 60136  1  0  0  0
 60137  1  0  0  0
 61138  1  0  0  0
 61139  1  0  0  0
 61140  1  0  0  0
 62141  1  0  0  0
 62142  1  0  0  0
 62143  1  0  0  0
 63 65  1  0  0  0
 63144  1  0  0  0
 63145  1  0  0  0
 63146  1  0  0  0
 64147  1  0  0  0
 65148  1  0  0  0
 68 88  1  0  0  0
 71 72  2  0  0  0
 71 74  1  0  0  0
 71149  1  0  0  0
 72 76  1  0  0  0
 72150  1  0  0  0
 73 75  1  0  0  0
 73 76  2  0  0  0
 73151  1  0  0  0
 74 75  2  0  0  0
 74 77  1  0  0  0
 75 80  1  0  0  0
 76 89  1  0  0  0
 77 78  1  0  0  0
 77152  1  0  0  0
 77153  1  0  0  0
 78 79  1  0  0  0
 78154  1  0  0  0
 78155  1  0  0  0
 79 80  1  0  0  0
 79156  1  0  0  0
 79157  1  0  0  0
 80 86  1  0  0  0
 80 87  1  0  0  0
 81158  1  0  0  0
 81159  1  0  0  0
 81160  1  0  0  0
 81 87  1  0  0  0
 82 87  1  0  0  0
 82161  1  0  0  0
 82162  1  0  0  0
 82163  1  0  0  0
 83 87  1  0  0  0
 83164  1  0  0  0
 83165  1  0  0  0
 83166  1  0  0  0
 84167  1  0  0  0
 84168  1  0  0  0
 84169  1  0  0  0
 84 88  1  0  0  0
 85 88  1  0  0  0
 85170  1  0  0  0
 85171  1  0  0  0
 85172  1  0  0  0
 86 88  1  0  0  0
 86173  1  0  0  0
 86174  1  0  0  0
 89175  1  0  0  0
M  ISO  4   1 100  68 101  88 101  89 100
M  END
> <chiral flag>
0

> <version>
0

> <s_m_source_file>
/data/baiqing/PycharmProjects/Reinvent-master-3.2/result/LINK_invent/BTK/process_docking_weight1_custom_product_contain_oxygen_bond_distance_aromatic_linkinvent_7_9_3/rearranged_h_0143.sdf

> <i_m_source_file_index>
65

> <r_mmod_Potential_Energy-OPLS-2005>
885.335998535156

> <r_mmod_Stretch_Energy-OPLS-2005>
366.038879394531

> <r_mmod_Bend_Energy-OPLS-2005>
412.389739990234

> <r_mmod_Torsional_Energy-OPLS-2005>
320.209503173828

> <r_mmod_Improper_Torsional_Energy-OPLS-2005>
8.23888778686523

> <r_mmod_Van_der_Waal_Energy-OPLS-2005>
178.297607421875

> <r_mmod_Electrostatic_Energy-OPLS-2005>
-412.964141845703

> <r_mmod_Solvation_Energy-OPLS-2005>
-191.445648193359

> <b_mmod_Minimization_Converged-OPLS-2005>
0

> <r_mmod_RMS_Derivative-OPLS-2005>
7.1999888420105

$$$$
65
                    3D
 Structure written by MMmdl.
174183  0  0  1  0            999 V2000
  -30.8408  -14.2488   20.7782 C   0  0  0  0  0  0
  -30.4063  -12.2829   19.3577 C   0  0  0  0  0  0
  -29.4655  -12.5451   18.1728 C   0  0  0  0  0  0
  -27.9978  -12.3846   18.6036 C   0  0  0  0  0  0
  -27.6654  -13.2032   19.8766 C   0  0  2  0  0  0
  -28.7036  -12.9421   20.9883 C   0  0  0  0  0  0
  -25.2603  -13.8167   20.5679 C   0  0  0  0  0  0
  -24.1847  -13.0444   20.9169 C   0  0  0  0  0  0
  -24.6398  -11.6911   20.8734 C   0  0  0  0  0  0
  -23.9065  -10.4296   21.0408 C   0  0  0  0  0  0
  -24.3618   -9.4211   21.9189 C   0  0  0  0  0  0
  -23.6294   -8.2246   22.0758 C   0  0  0  0  0  0
  -22.4276   -8.0284   21.3547 C   0  0  0  0  0  0
  -21.9914   -9.0258   20.4647 C   0  0  0  0  0  0
  -22.7242  -10.2138   20.3057 C   0  0  0  0  0  0
  -21.6851   -6.0739   22.5282 C   0  0  0  0  0  0
  -21.4012   -6.5643   23.8217 C   0  0  0  0  0  0
  -21.3660   -5.6797   24.9179 C   0  0  0  0  0  0
  -21.6045   -4.3059   24.7230 C   0  0  0  0  0  0
  -21.8819   -3.8149   23.4351 C   0  0  0  0  0  0
  -21.9191   -4.6965   22.3407 C   0  0  0  0  0  0
  -22.7868  -13.5238   21.1840 C   0  0  0  0  0  0
  -22.1657   -4.2150   21.0984 F   0  0  0  0  0  0
  -21.5635   -3.4544   25.7744 F   0  0  0  0  0  0
  -30.0559  -13.1924   20.4541 N   0  0  0  0  0  0
  -26.3044  -12.9336   20.3384 N   0  0  0  0  0  0
  -25.9322  -11.6492   20.5760 N   0  0  0  0  0  0
  -22.0514  -12.8222   22.0395 N   0  0  0  0  0  0
  -25.4336  -15.1882   20.4088 N   0  0  0  0  0  0
  -31.7522  -14.6735   20.0574 O   0  0  0  0  0  0
  -21.6638   -6.8881   21.4242 O   0  0  0  0  0  0
  -22.3548  -14.5544   20.6693 O   0  0  0  0  0  0
  -24.6080  -31.8725   23.2143 C   0  0  0  0  0  0
  -25.9001  -32.4850   23.8420 C   0  0  1  0  0  0
  -27.2451  -27.4998   20.0766 C   0  0  0  0  0  0
  -25.5883  -33.8648   24.2354 N   0  0  0  0  0  0
  -23.3935  -30.4935   21.5537 C   0  0  2  0  0  0
  -24.8416  -28.9588   20.1246 C   0  0  0  0  0  0
  -22.7370  -29.4677   22.5035 C   0  0  0  0  0  0
  -18.0260  -28.1382   22.8499 C   0  0  0  0  0  0
  -24.1484  -36.7324   23.2635 C   0  0  0  0  0  0
  -25.9147  -30.8538   21.3597 C   0  0  0  0  0  0
  -25.9951  -29.4887   20.7166 C   0  0  0  0  0  0
  -27.1997  -28.7615   20.7011 C   0  0  0  0  0  0
  -26.0768  -26.9538   19.5107 C   0  0  0  0  0  0
  -24.8717  -27.6841   19.5274 C   0  0  0  0  0  0
  -23.5999  -29.8190   20.1702 C   0  0  0  0  0  0
  -25.4104  -36.3132   24.0343 C   0  0  1  0  0  0
  -20.5841  -28.3655   23.1348 C   0  0  2  0  0  0
  -20.6750  -26.9398   22.5435 C   0  0  0  0  0  0
  -19.5737  -26.6391   21.5220 C   0  0  0  0  0  0
  -18.1907  -26.7938   22.1614 C   0  0  0  0  0  0
  -19.1506  -28.8835   23.2921 C   0  0  0  0  0  0
  -18.9437  -30.1445   23.8926 C   0  0  0  0  0  0
  -17.6439  -30.6589   24.0573 C   0  0  0  0  0  0
  -25.9030  -34.9495   23.5144 C   0  0  0  0  0  0
  -16.5330  -29.9094   23.6324 C   0  0  0  0  0  0
  -16.7250  -28.6512   23.0345 C   0  0  0  0  0  0
  -26.4459  -31.6611   25.0720 C   0  0  0  0  0  0
  -25.3744  -31.3676   26.1474 C   0  0  0  0  0  0
  -27.0284  -30.3065   24.6054 C   0  0  0  0  0  0
  -27.6046  -32.4320   25.7477 C   0  0  0  0  0  0
  -27.5594  -37.1802   24.8452 C   0  0  0  0  0  0
  -21.4107  -29.3024   22.3758 N   0  0  0  0  0  0
  -26.4290  -37.3817   23.9423 N   0  0  0  0  0  0
  -24.6565  -31.0865   22.1020 N   0  0  0  0  0  0
  -23.4161  -28.8230   23.3070 O   0  0  0  0  0  0
  -28.4249  -26.8168   19.9746 O   0  0  0  0  0  0
  -26.5591  -34.8939   22.4705 O   0  0  0  0  0  0
  -23.5288  -32.1457   23.7570 O   0  0  0  0  0  0
  -31.4960  -21.7143   20.4527 C   0  0  0  0  0  0
  -31.8011  -23.0677   20.2366 C   0  0  0  0  0  0
  -28.9869  -18.3392   23.2642 C   0  0  0  0  0  0
  -29.4050  -15.9699   23.6574 C   0  0  0  0  0  0
  -30.1916  -23.1211   18.4072 C   0  0  0  0  0  0
  -30.2441  -17.0344   21.6330 C   0  0  0  0  0  0
  -30.5133  -21.0576   19.6765 C   0  0  0  0  0  0
  -28.8403  -17.1925   24.0696 C   0  0  0  0  0  0
  -29.8775  -21.7619   18.6181 C   0  0  0  0  0  0
  -31.1135  -23.7881   19.2385 C   0  0  0  0  0  0
  -29.6860  -18.2658   22.0427 C   0  0  0  0  0  0
  -30.1145  -15.8795   22.4380 C   0  0  0  0  0  0
  -30.1752  -19.6358   20.0187 C   0  0  0  0  0  0
  -31.2941  -26.0997   20.0270 C   0  0  0  0  0  0
  -28.0948  -17.2692   25.3869 C   0  0  0  0  0  0
  -28.8246  -21.1165   17.7271 C   0  0  0  0  0  0
  -31.3196  -13.7988   23.1028 C   0  0  0  0  0  0
  -30.7697  -27.4841   19.6584 C   0  0  0  0  0  0
  -29.3493  -27.4236   19.0655 C   0  0  0  0  0  0
  -29.8772  -19.4660   21.3157 N   0  0  0  0  0  0
  -31.2776  -25.1791   19.0490 N   0  0  0  0  0  0
  -30.7188  -14.6433   22.0637 N   0  0  0  0  0  0
  -30.1321  -18.7548   19.1559 O   0  0  0  0  0  0
  -31.7325  -25.9001   21.1630 O   0  0  0  0  0  0
  -31.4465  -12.3922   19.0446 H   0  0  0  0  0  0
  -30.3064  -11.2519   19.7005 H   0  0  0  0  0  0
  -29.6915  -11.8623   17.3527 H   0  0  0  0  0  0
  -29.6281  -13.5534   17.7881 H   0  0  0  0  0  0
  -27.8135  -11.3246   18.7836 H   0  0  0  0  0  0
  -27.3328  -12.6738   17.7887 H   0  0  0  0  0  0
  -27.7258  -14.2580   19.6071 H   0  0  0  0  0  0
  -28.6454  -11.9089   21.3332 H   0  0  0  0  0  0
  -28.4615  -13.5595   21.8538 H   0  0  0  0  0  0
  -25.2763   -9.5687   22.4764 H   0  0  0  0  0  0
  -24.0005   -7.4639   22.7476 H   0  0  0  0  0  0
  -21.0850   -8.8775   19.8949 H   0  0  0  0  0  0
  -22.3703  -10.9678   19.6164 H   0  0  0  0  0  0
  -21.2001   -7.6150   23.9717 H   0  0  0  0  0  0
  -21.1483   -6.0529   25.9083 H   0  0  0  0  0  0
  -22.0599   -2.7611   23.2854 H   0  0  0  0  0  0
  -22.4122  -11.9866   22.4760 H   0  0  0  0  0  0
  -21.1135  -13.1248   22.2615 H   0  0  0  0  0  0
  -24.6742  -15.8500   20.5263 H   0  0  0  0  0  0
  -26.3011  -15.6267   20.1256 H   0  0  0  0  0  0
  -26.7075  -32.5596   23.1198 H   0  0  0  0  0  0
  -25.0045  -33.9823   25.0504 H   0  0  0  0  0  0
  -22.6796  -31.3081   21.4138 H   0  0  0  0  0  0
  -23.3766  -35.9634   23.3274 H   0  0  0  0  0  0
  -24.3585  -36.8964   22.2055 H   0  0  0  0  0  0
  -23.7205  -37.6508   23.6666 H   0  0  0  0  0  0
  -26.0148  -31.6175   20.5874 H   0  0  0  0  0  0
  -26.8074  -30.9145   21.9703 H   0  0  0  0  0  0
  -28.0961  -29.1740   21.1433 H   0  0  0  0  0  0
  -26.1095  -25.9832   19.0357 H   0  0  0  0  0  0
  -23.9825  -27.2667   19.0752 H   0  0  0  0  0  0
  -23.7028  -30.5900   19.4056 H   0  0  0  0  0  0
  -22.7268  -29.2315   19.8802 H   0  0  0  0  0  0
  -25.1266  -36.2006   25.0835 H   0  0  0  0  0  0
  -20.9928  -28.3223   24.1471 H   0  0  0  0  0  0
  -20.5656  -26.2259   23.3611 H   0  0  0  0  0  0
  -21.6626  -26.7454   22.1231 H   0  0  0  0  0  0
  -19.6898  -25.6310   21.1233 H   0  0  0  0  0  0
  -19.6688  -27.3216   20.6762 H   0  0  0  0  0  0
  -17.4190  -26.6719   21.3995 H   0  0  0  0  0  0
  -18.0275  -26.0066   22.8989 H   0  0  0  0  0  0
  -19.7912  -30.7255   24.2307 H   0  0  0  0  0  0
  -17.4995  -31.6268   24.5180 H   0  0  0  0  0  0
  -15.5332  -30.3005   23.7635 H   0  0  0  0  0  0
  -15.8651  -28.0844   22.7037 H   0  0  0  0  0  0
  -24.5943  -30.6996   25.7805 H   0  0  0  0  0  0
  -24.8904  -32.2809   26.4939 H   0  0  0  0  0  0
  -25.8124  -30.8843   27.0215 H   0  0  0  0  0  0
  -26.2803  -29.6828   24.1146 H   0  0  0  0  0  0
  -27.4108  -29.7298   25.4486 H   0  0  0  0  0  0
  -27.8615  -30.4398   23.9149 H   0  0  0  0  0  0
  -27.2670  -33.3596   26.2113 H   0  0  0  0  0  0
  -28.3822  -32.6918   25.0281 H   0  0  0  0  0  0
  -28.0756  -31.8411   26.5343 H   0  0  0  0  0  0
  -28.2578  -38.0136   24.7578 H   0  0  0  0  0  0
  -28.1128  -36.2677   24.6178 H   0  0  0  0  0  0
  -27.2326  -37.1333   25.8854 H   0  0  0  0  0  0
  -20.9265  -29.8731   21.6969 H   0  0  0  0  0  0
  -26.0188  -38.2888   24.1473 H   0  0  0  0  0  0
  -32.0131  -21.1833   21.2403 H   0  0  0  0  0  0
  -32.5398  -23.5460   20.8639 H   0  0  0  0  0  0
  -28.5693  -19.2814   23.5933 H   0  0  0  0  0  0
  -29.2904  -15.0992   24.2882 H   0  0  0  0  0  0
  -29.6777  -23.6710   17.6302 H   0  0  0  0  0  0
  -30.8225  -16.9870   20.7228 H   0  0  0  0  0  0
  -27.7562  -18.2838   25.6000 H   0  0  0  0  0  0
  -28.7393  -16.9514   26.2071 H   0  0  0  0  0  0
  -27.2204  -16.6181   25.3683 H   0  0  0  0  0  0
  -28.3472  -21.8475   17.0738 H   0  0  0  0  0  0
  -28.0385  -20.6510   18.3224 H   0  0  0  0  0  0
  -29.2760  -20.3530   17.0932 H   0  0  0  0  0  0
  -31.7124  -14.4008   23.9228 H   0  0  0  0  0  0
  -32.1515  -13.2055   22.7174 H   0  0  0  0  0  0
  -30.5782  -13.1094   23.5080 H   0  0  0  0  0  0
  -31.4553  -27.9425   18.9448 H   0  0  0  0  0  0
  -30.7718  -28.1203   20.5439 H   0  0  0  0  0  0
  -29.3409  -26.8498   18.1382 H   0  0  0  0  0  0
  -29.0534  -28.4349   18.7780 H   0  0  0  0  0  0
  -29.8057  -20.3246   21.8427 H   0  0  0  0  0  0
  -30.9824  -25.5277   18.1479 H   0  0  0  0  0  0
  1 25  1  0  0  0
  1 30  2  0  0  0
  1 92  1  0  0  0
  2  3  1  0  0  0
  2 25  1  0  0  0
  2 95  1  0  0  0
  2 96  1  0  0  0
  3  4  1  0  0  0
  3 97  1  0  0  0
  3 98  1  0  0  0
  4  5  1  0  0  0
  4 99  1  0  0  0
  4100  1  0  0  0
  5  6  1  0  0  0
  5 26  1  0  0  0
  5101  1  0  0  0
  6 25  1  0  0  0
  6102  1  0  0  0
  6103  1  0  0  0
  7  8  2  0  0  0
  7 26  1  0  0  0
  7 29  1  0  0  0
  8  9  1  0  0  0
  8 22  1  0  0  0
  9 10  1  0  0  0
  9 27  2  0  0  0
 10 11  2  0  0  0
 10 15  1  0  0  0
 11 12  1  0  0  0
 11104  1  0  0  0
 12 13  2  0  0  0
 12105  1  0  0  0
 13 14  1  0  0  0
 13 31  1  0  0  0
 14 15  2  0  0  0
 14106  1  0  0  0
 15107  1  0  0  0
 16 17  2  0  0  0
 16 21  1  0  0  0
 16 31  1  0  0  0
 17 18  1  0  0  0
 17108  1  0  0  0
 18 19  2  0  0  0
 18109  1  0  0  0
 19 20  1  0  0  0
 19 24  1  0  0  0
 20 21  2  0  0  0
 20110  1  0  0  0
 21 23  1  0  0  0
 22 28  1  0  0  0
 22 32  2  0  0  0
 26 27  1  0  0  0
 28111  1  0  0  0
 28112  1  0  0  0
 29113  1  0  0  0
 29114  1  0  0  0
 33 34  1  0  0  0
 33 66  1  0  0  0
 33 70  2  0  0  0
 34 36  1  0  0  0
 34 59  1  0  0  0
 34115  1  0  0  0
 35 44  2  0  0  0
 35 45  1  0  0  0
 35 68  1  0  0  0
 36 56  1  0  0  0
 36116  1  0  0  0
 37 39  1  0  0  0
 37 47  1  0  0  0
 37 66  1  0  0  0
 37117  1  0  0  0
 38 43  2  0  0  0
 38 46  1  0  0  0
 38 47  1  0  0  0
 39 64  1  0  0  0
 39 67  2  0  0  0
 40 52  1  0  0  0
 40 53  2  0  0  0
 40 58  1  0  0  0
 41118  1  0  0  0
 41119  1  0  0  0
 41120  1  0  0  0
 41 48  1  0  0  0
 42 43  1  0  0  0
 42 66  1  0  0  0
 42121  1  0  0  0
 42122  1  0  0  0
 43 44  1  0  0  0
 44123  1  0  0  0
 45 46  2  0  0  0
 45124  1  0  0  0
 46125  1  0  0  0
 47126  1  0  0  0
 47127  1  0  0  0
 48 56  1  0  0  0
 48 65  1  0  0  0
 48128  1  0  0  0
 49 50  1  0  0  0
 49 53  1  0  0  0
 49 64  1  0  0  0
 49129  1  0  0  0
 50 51  1  0  0  0
 50130  1  0  0  0
 50131  1  0  0  0
 51 52  1  0  0  0
 51132  1  0  0  0
 51133  1  0  0  0
 52134  1  0  0  0
 52135  1  0  0  0
 53 54  1  0  0  0
 54 55  2  0  0  0
 54136  1  0  0  0
 55 57  1  0  0  0
 55137  1  0  0  0
 56 69  2  0  0  0
 57 58  2  0  0  0
 57138  1  0  0  0
 58139  1  0  0  0
 59 60  1  0  0  0
 59 61  1  0  0  0
 59 62  1  0  0  0
 60140  1  0  0  0
 60141  1  0  0  0
 60142  1  0  0  0
 61143  1  0  0  0
 61144  1  0  0  0
 61145  1  0  0  0
 62146  1  0  0  0
 62147  1  0  0  0
 62148  1  0  0  0
 63 65  1  0  0  0
 63149  1  0  0  0
 63150  1  0  0  0
 63151  1  0  0  0
 64152  1  0  0  0
 65153  1  0  0  0
 68 89  1  0  0  0
 71 72  2  0  0  0
 71 77  1  0  0  0
 71154  1  0  0  0
 72 80  1  0  0  0
 72155  1  0  0  0
 73 78  2  0  0  0
 73 81  1  0  0  0
 73156  1  0  0  0
 74 78  1  0  0  0
 74 82  2  0  0  0
 74157  1  0  0  0
 75 79  1  0  0  0
 75 80  2  0  0  0
 75158  1  0  0  0
 76 81  2  0  0  0
 76 82  1  0  0  0
 76159  1  0  0  0
 77 79  2  0  0  0
 77 83  1  0  0  0
 78 85  1  0  0  0
 79 86  1  0  0  0
 80 91  1  0  0  0
 81 90  1  0  0  0
 82 92  1  0  0  0
 83 90  1  0  0  0
 83 93  2  0  0  0
 84 88  1  0  0  0
 84 91  1  0  0  0
 84 94  2  0  0  0
 85160  1  0  0  0
 85161  1  0  0  0
 85162  1  0  0  0
 86163  1  0  0  0
 86164  1  0  0  0
 86165  1  0  0  0
 87 92  1  0  0  0
 87166  1  0  0  0
 87167  1  0  0  0
 87168  1  0  0  0
 88 89  1  0  0  0
 88169  1  0  0  0
 88170  1  0  0  0
 89171  1  0  0  0
 89172  1  0  0  0
 90173  1  0  0  0
 91174  1  0  0  0
M  ISO  4   1 100  68 101  89 101  92 100
M  END
> <chiral flag>
0

> <version>
0

> <s_m_source_file>
/data/baiqing/PycharmProjects/Reinvent-master-3.2/result/LINK_invent/BTK/process_docking_weight1_custom_product_contain_oxygen_bond_distance_aromatic_linkinvent_7_9_3/rearranged_h_0143.sdf

> <i_m_source_file_index>
66

> <r_mmod_Potential_Energy-OPLS-2005>
150.943374633789

> <r_mmod_Stretch_Energy-OPLS-2005>
34.2791976928711

> <r_mmod_Bend_Energy-OPLS-2005>
92.6452484130859

> <r_mmod_Torsional_Energy-OPLS-2005>
381.754791259766

> <r_mmod_Improper_Torsional_Energy-OPLS-2005>
7.45406723022461

> <r_mmod_Van_der_Waal_Energy-OPLS-2005>
183.948501586914

> <r_mmod_Electrostatic_Energy-OPLS-2005>
-326.087219238281

> <r_mmod_Solvation_Energy-OPLS-2005>
-232.773681640625

> <b_mmod_Minimization_Converged-OPLS-2005>
0

> <r_mmod_RMS_Derivative-OPLS-2005>
0.628825902938843

$$$$
66
                    3D
 Structure written by MMmdl.
166174  0  0  1  0            999 V2000
  -30.7250  -14.4852   20.5155 C   0  0  0  0  0  0
  -30.4165  -12.2942   19.4444 C   0  0  0  0  0  0
  -29.5021  -12.4846   18.2151 C   0  0  0  0  0  0
  -28.0225  -12.3563   18.6266 C   0  0  0  0  0  0
  -27.6625  -13.2148   19.8693 C   0  0  2  0  0  0
  -28.7057  -13.0400   20.9983 C   0  0  0  0  0  0
  -25.2602  -13.8175   20.5695 C   0  0  0  0  0  0
  -24.1848  -13.0451   20.9184 C   0  0  0  0  0  0
  -24.6408  -11.6921   20.8736 C   0  0  0  0  0  0
  -23.9073  -10.4304   21.0400 C   0  0  0  0  0  0
  -24.3622   -9.4212   21.9178 C   0  0  0  0  0  0
  -23.6297   -8.2249   22.0755 C   0  0  0  0  0  0
  -22.4273   -8.0287   21.3555 C   0  0  0  0  0  0
  -21.9911   -9.0261   20.4651 C   0  0  0  0  0  0
  -22.7242  -10.2139   20.3053 C   0  0  0  0  0  0
  -21.6850   -6.0736   22.5278 C   0  0  0  0  0  0
  -21.4012   -6.5637   23.8206 C   0  0  0  0  0  0
  -21.3664   -5.6784   24.9164 C   0  0  0  0  0  0
  -21.6045   -4.3051   24.7212 C   0  0  0  0  0  0
  -21.8817   -3.8149   23.4333 C   0  0  0  0  0  0
  -21.9192   -4.6971   22.3388 C   0  0  0  0  0  0
  -22.7865  -13.5248   21.1832 C   0  0  0  0  0  0
  -22.1662   -4.2158   21.0969 F   0  0  0  0  0  0
  -21.5637   -3.4532   25.7731 F   0  0  0  0  0  0
  -30.0360  -13.3144   20.4369 N   0  0  0  0  0  0
  -26.3042  -12.9363   20.3349 N   0  0  0  0  0  0
  -25.9339  -11.6517   20.5761 N   0  0  0  0  0  0
  -22.0494  -12.8258   22.0391 N   0  0  0  0  0  0
  -25.4350  -15.1883   20.4097 N   0  0  0  0  0  0
  -31.8975  -14.5703   20.1435 O   0  0  0  0  0  0
  -21.6640   -6.8887   21.4241 O   0  0  0  0  0  0
  -22.3565  -14.5558   20.6687 O   0  0  0  0  0  0
  -24.6209  -31.8697   23.2141 C   0  0  0  0  0  0
  -25.9094  -32.4838   23.8427 C   0  0  1  0  0  0
  -27.2139  -27.4050   20.0834 C   0  0  0  0  0  0
  -25.5928  -33.8631   24.2351 N   0  0  0  0  0  0
  -23.4060  -30.5017   21.5566 C   0  0  2  0  0  0
  -24.8435  -28.9804   20.1097 C   0  0  0  0  0  0
  -22.7442  -29.4682   22.4978 C   0  0  0  0  0  0
  -18.0290  -28.1383   22.8494 C   0  0  0  0  0  0
  -24.1479  -36.7331   23.2632 C   0  0  0  0  0  0
  -25.9424  -30.8277   21.3713 C   0  0  0  0  0  0
  -26.0125  -29.4663   20.7077 C   0  0  0  0  0  0
  -27.1987  -28.6888   20.6896 C   0  0  0  0  0  0
  -26.0200  -26.9697   19.4571 C   0  0  0  0  0  0
  -24.8433  -27.7298   19.4827 C   0  0  0  0  0  0
  -23.6119  -29.8530   20.1658 C   0  0  0  0  0  0
  -25.4098  -36.3119   24.0330 C   0  0  1  0  0  0
  -20.5881  -28.3678   23.1306 C   0  0  2  0  0  0
  -20.6775  -26.9408   22.5409 C   0  0  0  0  0  0
  -19.5742  -26.6387   21.5216 C   0  0  0  0  0  0
  -18.1927  -26.7929   22.1634 C   0  0  0  0  0  0
  -19.1538  -28.8843   23.2903 C   0  0  0  0  0  0
  -18.9459  -30.1452   23.8908 C   0  0  0  0  0  0
  -17.6457  -30.6580   24.0568 C   0  0  0  0  0  0
  -25.9035  -34.9484   23.5135 C   0  0  0  0  0  0
  -16.5351  -29.9079   23.6327 C   0  0  0  0  0  0
  -16.7280  -28.6503   23.0335 C   0  0  0  0  0  0
  -26.4486  -31.6610   25.0762 C   0  0  0  0  0  0
  -25.3738  -31.3732   26.1503 C   0  0  0  0  0  0
  -27.0306  -30.3039   24.6154 C   0  0  0  0  0  0
  -27.6056  -32.4330   25.7529 C   0  0  0  0  0  0
  -27.5582  -37.1824   24.8461 C   0  0  0  0  0  0
  -21.4167  -29.3053   22.3709 N   0  0  0  0  0  0
  -26.4292  -37.3801   23.9402 N   0  0  0  0  0  0
  -24.6757  -31.0789   22.1055 N   0  0  0  0  0  0
  -23.4211  -28.8195   23.2998 O   0  0  0  0  0  0
  -28.3749  -26.6300   20.1354 O   0  0  0  0  0  0
  -26.5585  -34.8936   22.4690 O   0  0  0  0  0  0
  -23.5393  -32.1457   23.7522 O   0  0  0  0  0  0
  -29.7199  -18.0382   20.9988 C   0  0  0  0  0  0
  -31.0170  -18.9994   19.3327 C   0  0  0  0  0  0
  -30.1516  -19.2643   20.3681 C   0  0  0  0  0  0
  -30.2654  -16.8795   20.4783 C   0  0  0  0  0  0
  -29.6468  -20.6099   20.7533 C   0  0  0  0  0  0
  -29.8852  -23.2022   21.0193 C   0  0  0  0  0  0
  -31.0478  -22.7020   17.7621 C   0  0  0  0  0  0
  -31.8889  -21.8397   20.4713 C   0  0  0  0  0  0
  -27.2579  -24.5111   20.8324 C   0  0  0  0  0  0
  -28.1669  -24.9256   18.4163 C   0  0  0  0  0  0
  -29.7617  -24.6278   20.3826 C   0  0  0  0  0  0
  -30.0065  -22.0377   18.6880 C   0  0  0  0  0  0
  -30.3544  -21.9256   20.2103 C   0  0  1  0  0  0
  -28.3503  -25.1787   19.9384 C   0  0  0  0  0  0
  -30.0187  -15.5856   20.8693 N   0  0  0  0  0  0
  -28.6276  -20.7025   21.4464 O   0  0  0  0  0  0
  -29.7640  -23.1425   22.2489 O   0  0  0  0  0  0
  -31.3036  -17.3029   19.1250 S   0  0  0  0  0  0
  -31.4666  -12.3551   19.1528 H   0  0  0  0  0  0
  -30.2875  -11.2950   19.8647 H   0  0  0  0  0  0
  -29.7423  -11.7430   17.4516 H   0  0  0  0  0  0
  -29.6832  -13.4598   17.7589 H   0  0  0  0  0  0
  -27.8328  -11.3038   18.8400 H   0  0  0  0  0  0
  -27.3751  -12.6192   17.7887 H   0  0  0  0  0  0
  -27.6982  -14.2555   19.5464 H   0  0  0  0  0  0
  -28.6759  -12.0235   21.3931 H   0  0  0  0  0  0
  -28.4818  -13.6932   21.8429 H   0  0  0  0  0  0
  -25.2771   -9.5680   22.4747 H   0  0  0  0  0  0
  -24.0009   -7.4630   22.7465 H   0  0  0  0  0  0
  -21.0848   -8.8770   19.8948 H   0  0  0  0  0  0
  -22.3707  -10.9670   19.6150 H   0  0  0  0  0  0
  -21.2002   -7.6144   23.9713 H   0  0  0  0  0  0
  -21.1491   -6.0514   25.9067 H   0  0  0  0  0  0
  -22.0600   -2.7618   23.2818 H   0  0  0  0  0  0
  -22.4110  -11.9927   22.4794 H   0  0  0  0  0  0
  -21.1103  -13.1282   22.2562 H   0  0  0  0  0  0
  -24.6728  -15.8484   20.5166 H   0  0  0  0  0  0
  -26.2891  -15.6195   20.0794 H   0  0  0  0  0  0
  -26.7169  -32.5520   23.1194 H   0  0  0  0  0  0
  -25.0084  -33.9786   25.0495 H   0  0  0  0  0  0
  -22.6973  -31.3224   21.4279 H   0  0  0  0  0  0
  -23.3738  -35.9672   23.3304 H   0  0  0  0  0  0
  -24.3586  -36.8942   22.2049 H   0  0  0  0  0  0
  -23.7244  -37.6542   23.6643 H   0  0  0  0  0  0
  -26.0654  -31.5997   20.6107 H   0  0  0  0  0  0
  -26.8289  -30.8711   21.9925 H   0  0  0  0  0  0
  -28.0982  -29.0597   21.1604 H   0  0  0  0  0  0
  -25.9396  -26.0226   18.9500 H   0  0  0  0  0  0
  -23.9460  -27.3499   19.0144 H   0  0  0  0  0  0
  -23.7293  -30.6403   19.4200 H   0  0  0  0  0  0
  -22.7305  -29.2863   19.8594 H   0  0  0  0  0  0
  -25.1275  -36.1993   25.0824 H   0  0  0  0  0  0
  -20.9993  -28.3236   24.1415 H   0  0  0  0  0  0
  -20.5691  -26.2276   23.3595 H   0  0  0  0  0  0
  -21.6642  -26.7443   22.1185 H   0  0  0  0  0  0
  -19.6895  -25.6302   21.1227 H   0  0  0  0  0  0
  -19.6671  -27.3212   20.6752 H   0  0  0  0  0  0
  -17.4191  -26.6693   21.4035 H   0  0  0  0  0  0
  -18.0323  -26.0070   22.9026 H   0  0  0  0  0  0
  -19.7928  -30.7280   24.2266 H   0  0  0  0  0  0
  -17.5001  -31.6259   24.5181 H   0  0  0  0  0  0
  -15.5349  -30.2975   23.7642 H   0  0  0  0  0  0
  -15.8686  -28.0836   22.7008 H   0  0  0  0  0  0
  -24.5895  -30.7095   25.7847 H   0  0  0  0  0  0
  -24.8943  -32.2891   26.4963 H   0  0  0  0  0  0
  -25.8077  -30.8891   27.0260 H   0  0  0  0  0  0
  -26.2852  -29.6820   24.1174 H   0  0  0  0  0  0
  -27.4025  -29.7263   25.4629 H   0  0  0  0  0  0
  -27.8720  -30.4351   23.9346 H   0  0  0  0  0  0
  -27.2666  -33.3611   26.2147 H   0  0  0  0  0  0
  -28.3846  -32.6923   25.0349 H   0  0  0  0  0  0
  -28.0745  -31.8432   26.5420 H   0  0  0  0  0  0
  -28.2601  -38.0118   24.7502 H   0  0  0  0  0  0
  -28.1074  -36.2650   24.6281 H   0  0  0  0  0  0
  -27.2306  -37.1478   25.8867 H   0  0  0  0  0  0
  -20.9310  -29.8818   21.6975 H   0  0  0  0  0  0
  -26.0187  -38.2884   24.1392 H   0  0  0  0  0  0
  -29.0194  -18.0590   21.8225 H   0  0  0  0  0  0
  -31.4933  -19.6775   18.6390 H   0  0  0  0  0  0
  -30.6140  -22.9040   16.7817 H   0  0  0  0  0  0
  -31.9056  -22.0496   17.5995 H   0  0  0  0  0  0
  -31.4287  -23.6446   18.1474 H   0  0  0  0  0  0
  -32.1043  -21.3523   21.4242 H   0  0  0  0  0  0
  -32.3567  -22.8248   20.5161 H   0  0  0  0  0  0
  -32.4342  -21.2942   19.7063 H   0  0  0  0  0  0
  -27.2488  -23.4276   20.7160 H   0  0  0  0  0  0
  -26.2327  -24.8038   20.6375 H   0  0  0  0  0  0
  -27.4428  -24.7271   21.8859 H   0  0  0  0  0  0
  -29.1210  -24.7778   17.9122 H   0  0  0  0  0  0
  -27.7243  -25.7628   17.8815 H   0  0  0  0  0  0
  -27.5414  -24.0562   18.2180 H   0  0  0  0  0  0
  -30.4943  -24.7551   19.5920 H   0  0  0  0  0  0
  -30.1201  -25.2993   21.1633 H   0  0  0  0  0  0
  -29.7738  -21.0670   18.2526 H   0  0  0  0  0  0
  -29.0554  -22.5449   18.5938 H   0  0  0  0  0  0
  -29.1321  -15.4115   21.3180 H   0  0  0  0  0  0
  1 25  1  0  0  0
  1 30  2  0  0  0
  1 85  1  0  0  0
  2  3  1  0  0  0
  2 25  1  0  0  0
  2 89  1  0  0  0
  2 90  1  0  0  0
  3  4  1  0  0  0
  3 91  1  0  0  0
  3 92  1  0  0  0
  4  5  1  0  0  0
  4 93  1  0  0  0
  4 94  1  0  0  0
  5  6  1  0  0  0
  5 26  1  0  0  0
  5 95  1  0  0  0
  6 25  1  0  0  0
  6 96  1  0  0  0
  6 97  1  0  0  0
  7  8  2  0  0  0
  7 26  1  0  0  0
  7 29  1  0  0  0
  8  9  1  0  0  0
  8 22  1  0  0  0
  9 10  1  0  0  0
  9 27  2  0  0  0
 10 11  2  0  0  0
 10 15  1  0  0  0
 11 12  1  0  0  0
 11 98  1  0  0  0
 12 13  2  0  0  0
 12 99  1  0  0  0
 13 14  1  0  0  0
 13 31  1  0  0  0
 14 15  2  0  0  0
 14100  1  0  0  0
 15101  1  0  0  0
 16 17  2  0  0  0
 16 21  1  0  0  0
 16 31  1  0  0  0
 17 18  1  0  0  0
 17102  1  0  0  0
 18 19  2  0  0  0
 18103  1  0  0  0
 19 20  1  0  0  0
 19 24  1  0  0  0
 20 21  2  0  0  0
 20104  1  0  0  0
 21 23  1  0  0  0
 22 28  1  0  0  0
 22 32  2  0  0  0
 26 27  1  0  0  0
 28105  1  0  0  0
 28106  1  0  0  0
 29107  1  0  0  0
 29108  1  0  0  0
 33 34  1  0  0  0
 33 66  1  0  0  0
 33 70  2  0  0  0
 34 36  1  0  0  0
 34 59  1  0  0  0
 34109  1  0  0  0
 35 44  2  0  0  0
 35 45  1  0  0  0
 35 68  1  0  0  0
 36 56  1  0  0  0
 36110  1  0  0  0
 37 39  1  0  0  0
 37 47  1  0  0  0
 37 66  1  0  0  0
 37111  1  0  0  0
 38 43  2  0  0  0
 38 46  1  0  0  0
 38 47  1  0  0  0
 39 64  1  0  0  0
 39 67  2  0  0  0
 40 52  1  0  0  0
 40 53  2  0  0  0
 40 58  1  0  0  0
 41112  1  0  0  0
 41113  1  0  0  0
 41114  1  0  0  0
 41 48  1  0  0  0
 42 43  1  0  0  0
 42 66  1  0  0  0
 42115  1  0  0  0
 42116  1  0  0  0
 43 44  1  0  0  0
 44117  1  0  0  0
 45 46  2  0  0  0
 45118  1  0  0  0
 46119  1  0  0  0
 47120  1  0  0  0
 47121  1  0  0  0
 48 56  1  0  0  0
 48 65  1  0  0  0
 48122  1  0  0  0
 49 50  1  0  0  0
 49 53  1  0  0  0
 49 64  1  0  0  0
 49123  1  0  0  0
 50 51  1  0  0  0
 50124  1  0  0  0
 50125  1  0  0  0
 51 52  1  0  0  0
 51126  1  0  0  0
 51127  1  0  0  0
 52128  1  0  0  0
 52129  1  0  0  0
 53 54  1  0  0  0
 54 55  2  0  0  0
 54130  1  0  0  0
 55 57  1  0  0  0
 55131  1  0  0  0
 56 69  2  0  0  0
 57 58  2  0  0  0
 57132  1  0  0  0
 58133  1  0  0  0
 59 60  1  0  0  0
 59 61  1  0  0  0
 59 62  1  0  0  0
 60134  1  0  0  0
 60135  1  0  0  0
 60136  1  0  0  0
 61137  1  0  0  0
 61138  1  0  0  0
 61139  1  0  0  0
 62140  1  0  0  0
 62141  1  0  0  0
 62142  1  0  0  0
 63 65  1  0  0  0
 63143  1  0  0  0
 63144  1  0  0  0
 63145  1  0  0  0
 64146  1  0  0  0
 65147  1  0  0  0
 68 84  1  0  0  0
 71 73  1  0  0  0
 71 74  2  0  0  0
 71148  1  0  0  0
 72 73  2  0  0  0
 72 88  1  0  0  0
 72149  1  0  0  0
 73 75  1  0  0  0
 74 85  1  0  0  0
 74 88  1  0  0  0
 75 86  2  0  0  0
 75 83  1  0  0  0
 76 81  1  0  0  0
 76 83  1  0  0  0
 76 87  2  0  0  0
 77 82  1  0  0  0
 77150  1  0  0  0
 77151  1  0  0  0
 77152  1  0  0  0
 78153  1  0  0  0
 78154  1  0  0  0
 78155  1  0  0  0
 78 83  1  0  0  0
 79156  1  0  0  0
 79157  1  0  0  0
 79158  1  0  0  0
 79 84  1  0  0  0
 80 84  1  0  0  0
 80159  1  0  0  0
 80160  1  0  0  0
 80161  1  0  0  0
 81 84  1  0  0  0
 81162  1  0  0  0
 81163  1  0  0  0
 82 83  1  0  0  0
 82164  1  0  0  0
 82165  1  0  0  0
 85166  1  0  0  0
M  ISO  4   1 100  68 101  84 101  85 100
M  END
> <chiral flag>
0

> <version>
0

> <s_m_source_file>
/data/baiqing/PycharmProjects/Reinvent-master-3.2/result/LINK_invent/BTK/process_docking_weight1_custom_product_contain_oxygen_bond_distance_aromatic_linkinvent_7_9_3/rearranged_h_0143.sdf

> <i_m_source_file_index>
67

> <r_mmod_Potential_Energy-OPLS-2005>
126.764144897461

> <r_mmod_Stretch_Energy-OPLS-2005>
63.7789878845215

> <r_mmod_Bend_Energy-OPLS-2005>
144.946838378906

> <r_mmod_Torsional_Energy-OPLS-2005>
251.91633605957

> <r_mmod_Improper_Torsional_Energy-OPLS-2005>
6.93248176574707

> <r_mmod_Van_der_Waal_Energy-OPLS-2005>
181.665573120117

> <r_mmod_Electrostatic_Energy-OPLS-2005>
-314.520568847656

> <r_mmod_Solvation_Energy-OPLS-2005>
-230.535247802734

> <b_mmod_Minimization_Converged-OPLS-2005>
0

> <r_mmod_RMS_Derivative-OPLS-2005>
2.17868661880493

$$$$
67
                    3D
 Structure written by MMmdl.
158167  0  0  1  0            999 V2000
  -30.6565  -14.5878   20.4908 C   0  0  0  0  0  0
  -30.4238  -12.3566   19.4459 C   0  0  0  0  0  0
  -29.5024  -12.4972   18.2151 C   0  0  0  0  0  0
  -28.0227  -12.3519   18.6248 C   0  0  0  0  0  0
  -27.6524  -13.2175   19.8596 C   0  0  2  0  0  0
  -28.6958  -13.0689   20.9898 C   0  0  0  0  0  0
  -25.2566  -13.8167   20.5678 C   0  0  0  0  0  0
  -24.1838  -13.0432   20.9183 C   0  0  0  0  0  0
  -24.6404  -11.6903   20.8722 C   0  0  0  0  0  0
  -23.9074  -10.4287   21.0391 C   0  0  0  0  0  0
  -24.3630   -9.4206   21.9168 C   0  0  0  0  0  0
  -23.6301   -8.2243   22.0748 C   0  0  0  0  0  0
  -22.4277   -8.0280   21.3544 C   0  0  0  0  0  0
  -21.9914   -9.0255   20.4646 C   0  0  0  0  0  0
  -22.7244  -10.2131   20.3048 C   0  0  0  0  0  0
  -21.6857   -6.0732   22.5277 C   0  0  0  0  0  0
  -21.4014   -6.5640   23.8206 C   0  0  0  0  0  0
  -21.3655   -5.6792   24.9169 C   0  0  0  0  0  0
  -21.6043   -4.3053   24.7223 C   0  0  0  0  0  0
  -21.8823   -3.8148   23.4342 C   0  0  0  0  0  0
  -21.9196   -4.6962   22.3399 C   0  0  0  0  0  0
  -22.7862  -13.5224   21.1842 C   0  0  0  0  0  0
  -22.1667   -4.2152   21.0973 F   0  0  0  0  0  0
  -21.5629   -3.4537   25.7735 F   0  0  0  0  0  0
  -30.0143  -13.3833   20.4238 N   0  0  0  0  0  0
  -26.2994  -12.9353   20.3291 N   0  0  0  0  0  0
  -25.9328  -11.6505   20.5731 N   0  0  0  0  0  0
  -22.0508  -12.8219   22.0401 N   0  0  0  0  0  0
  -25.4268  -15.1885   20.4085 N   0  0  0  0  0  0
  -31.8327  -14.6954   20.1365 O   0  0  0  0  0  0
  -21.6637   -6.8879   21.4240 O   0  0  0  0  0  0
  -22.3547  -14.5525   20.6681 O   0  0  0  0  0  0
  -24.6220  -31.8632   23.2033 C   0  0  0  0  0  0
  -25.9089  -32.4797   23.8350 C   0  0  1  0  0  0
  -27.2270  -27.3594   20.1079 C   0  0  0  0  0  0
  -25.5924  -33.8591   24.2298 N   0  0  0  0  0  0
  -23.4130  -30.4855   21.5446 C   0  0  2  0  0  0
  -24.8574  -28.9393   20.1096 C   0  0  0  0  0  0
  -22.7446  -29.4652   22.4946 C   0  0  0  0  0  0
  -18.0293  -28.1410   22.8508 C   0  0  0  0  0  0
  -24.1481  -36.7279   23.2642 C   0  0  0  0  0  0
  -25.9481  -30.8045   21.3668 C   0  0  0  0  0  0
  -26.0199  -29.4335   20.7122 C   0  0  0  0  0  0
  -27.2037  -28.6500   20.7064 C   0  0  0  0  0  0
  -26.0444  -26.8972   19.4898 C   0  0  0  0  0  0
  -24.8684  -27.6751   19.4937 C   0  0  0  0  0  0
  -23.6250  -29.8177   20.1598 C   0  0  0  0  0  0
  -25.4109  -36.3092   24.0342 C   0  0  1  0  0  0
  -20.5890  -28.3707   23.1311 C   0  0  2  0  0  0
  -20.6775  -26.9430   22.5439 C   0  0  0  0  0  0
  -19.5753  -26.6410   21.5232 C   0  0  0  0  0  0
  -18.1928  -26.7964   22.1627 C   0  0  0  0  0  0
  -19.1545  -28.8871   23.2912 C   0  0  0  0  0  0
  -18.9464  -30.1477   23.8927 C   0  0  0  0  0  0
  -17.6462  -30.6603   24.0594 C   0  0  0  0  0  0
  -25.9052  -34.9465   23.5117 C   0  0  0  0  0  0
  -16.5359  -29.9111   23.6332 C   0  0  0  0  0  0
  -16.7280  -28.6531   23.0351 C   0  0  0  0  0  0
  -26.4482  -31.6603   25.0707 C   0  0  0  0  0  0
  -25.3730  -31.3747   26.1449 C   0  0  0  0  0  0
  -27.0303  -30.3031   24.6132 C   0  0  0  0  0  0
  -27.6072  -32.4323   25.7453 C   0  0  0  0  0  0
  -27.5588  -37.1791   24.8468 C   0  0  0  0  0  0
  -21.4162  -29.3051   22.3685 N   0  0  0  0  0  0
  -26.4288  -37.3792   23.9433 N   0  0  0  0  0  0
  -24.6797  -31.0674   22.0959 N   0  0  0  0  0  0
  -23.4177  -28.8194   23.3026 O   0  0  0  0  0  0
  -28.3826  -26.5859   20.1634 O   0  0  0  0  0  0
  -26.5615  -34.8928   22.4680 O   0  0  0  0  0  0
  -23.5394  -32.1429   23.7386 O   0  0  0  0  0  0
  -29.2454  -18.1018   21.0803 C   0  0  0  0  0  0
  -30.6122  -19.9120   20.1882 C   0  0  0  0  0  0
  -31.2257  -17.5728   19.7850 C   0  0  0  0  0  0
  -29.4814  -19.5155   20.9279 C   0  0  0  0  0  0
  -30.1287  -17.1026   20.5524 C   0  0  0  0  0  0
  -31.4609  -18.9521   19.6077 C   0  0  0  0  0  0
  -28.3475  -24.1530   20.5302 C   0  0  0  0  0  0
  -28.4452  -25.2570   19.7325 C   0  0  0  0  0  0
  -28.6846  -20.5347   21.6889 C   0  0  0  0  0  0
  -27.9428  -24.1998   21.9756 C   0  0  0  0  0  0
  -28.6546  -22.6795   20.1553 C   0  0  0  0  0  0
  -27.7496  -22.7403   22.4021 C   0  0  0  0  0  0
  -28.4058  -21.8627   21.3932 N   0  0  0  0  0  0
  -29.8866  -15.6790   20.7919 N   0  0  0  0  0  0
  -28.2259  -20.0868   22.8580 N   0  3  0  0  0  0
  -32.5347  -19.3622   18.8920 F   0  0  0  0  0  0
  -31.4690  -12.4536   19.1471 H   0  0  0  0  0  0
  -30.3305  -11.3607   19.8817 H   0  0  0  0  0  0
  -29.7545  -11.7460   17.4652 H   0  0  0  0  0  0
  -29.6634  -13.4664   17.7403 H   0  0  0  0  0  0
  -27.8442  -11.2987   18.8436 H   0  0  0  0  0  0
  -27.3737  -12.5993   17.7835 H   0  0  0  0  0  0
  -27.6722  -14.2541   19.5227 H   0  0  0  0  0  0
  -28.6938  -12.0508   21.3815 H   0  0  0  0  0  0
  -28.4539  -13.7145   21.8360 H   0  0  0  0  0  0
  -25.2781   -9.5677   22.4734 H   0  0  0  0  0  0
  -24.0015   -7.4632   22.7466 H   0  0  0  0  0  0
  -21.0844   -8.8773   19.8954 H   0  0  0  0  0  0
  -22.3702  -10.9669   19.6159 H   0  0  0  0  0  0
  -21.2004   -7.6149   23.9712 H   0  0  0  0  0  0
  -21.1470   -6.0516   25.9069 H   0  0  0  0  0  0
  -22.0606   -2.7613   23.2836 H   0  0  0  0  0  0
  -22.4136  -11.9892   22.4805 H   0  0  0  0  0  0
  -21.1124  -13.1237   22.2594 H   0  0  0  0  0  0
  -24.6515  -15.8357   20.5033 H   0  0  0  0  0  0
  -26.2623  -15.6256   20.0421 H   0  0  0  0  0  0
  -26.7158  -32.5478   23.1099 H   0  0  0  0  0  0
  -25.0076  -33.9744   25.0444 H   0  0  0  0  0  0
  -22.7068  -31.3062   21.4039 H   0  0  0  0  0  0
  -23.3755  -35.9601   23.3302 H   0  0  0  0  0  0
  -24.3576  -36.8894   22.2060 H   0  0  0  0  0  0
  -23.7209  -37.6471   23.6649 H   0  0  0  0  0  0
  -26.0751  -31.5665   20.5972 H   0  0  0  0  0  0
  -26.8302  -30.8546   21.9938 H   0  0  0  0  0  0
  -28.1000  -29.0247   21.1798 H   0  0  0  0  0  0
  -26.0152  -25.9259   19.0183 H   0  0  0  0  0  0
  -23.9747  -27.2901   19.0229 H   0  0  0  0  0  0
  -23.7464  -30.5929   19.4027 H   0  0  0  0  0  0
  -22.7440  -29.2484   19.8570 H   0  0  0  0  0  0
  -25.1285  -36.1944   25.0835 H   0  0  0  0  0  0
  -21.0021  -28.3302   24.1418 H   0  0  0  0  0  0
  -20.5677  -26.2313   23.3637 H   0  0  0  0  0  0
  -21.6644  -26.7467   22.1241 H   0  0  0  0  0  0
  -19.6894  -25.6318   21.1265 H   0  0  0  0  0  0
  -19.6693  -27.3211   20.6754 H   0  0  0  0  0  0
  -17.4211  -26.6760   21.4011 H   0  0  0  0  0  0
  -18.0293  -26.0099   22.9002 H   0  0  0  0  0  0
  -19.7935  -30.7304   24.2298 H   0  0  0  0  0  0
  -17.5008  -31.6281   24.5197 H   0  0  0  0  0  0
  -15.5357  -30.3019   23.7625 H   0  0  0  0  0  0
  -15.8688  -28.0852   22.7051 H   0  0  0  0  0  0
  -24.5936  -30.7038   25.7796 H   0  0  0  0  0  0
  -24.8868  -32.2905   26.4826 H   0  0  0  0  0  0
  -25.8078  -30.8987   27.0248 H   0  0  0  0  0  0
  -26.2845  -29.6790   24.1187 H   0  0  0  0  0  0
  -27.4039  -29.7287   25.4620 H   0  0  0  0  0  0
  -27.8700  -30.4321   23.9301 H   0  0  0  0  0  0
  -27.2720  -33.3635   26.2034 H   0  0  0  0  0  0
  -28.3859  -32.6867   25.0248 H   0  0  0  0  0  0
  -28.0752  -31.8435   26.5356 H   0  0  0  0  0  0
  -28.2624  -38.0077   24.7545 H   0  0  0  0  0  0
  -28.1070  -36.2618   24.6249 H   0  0  0  0  0  0
  -27.2328  -37.1413   25.8879 H   0  0  0  0  0  0
  -20.9318  -29.8738   21.6880 H   0  0  0  0  0  0
  -26.0167  -38.2864   24.1447 H   0  0  0  0  0  0
  -28.3940  -17.7718   21.6592 H   0  0  0  0  0  0
  -30.8766  -20.9510   20.0899 H   0  0  0  0  0  0
  -31.9250  -16.9015   19.3143 H   0  0  0  0  0  0
  -28.7500  -25.1974   18.6964 H   0  0  0  0  0  0
  -27.0280  -24.7817   22.0988 H   0  0  0  0  0  0
  -28.7305  -24.6733   22.5615 H   0  0  0  0  0  0
  -29.6875  -22.6204   19.8195 H   0  0  0  0  0  0
  -28.0095  -22.3526   19.3384 H   0  0  0  0  0  0
  -26.6851  -22.4997   22.4482 H   0  0  0  0  0  0
  -28.1628  -22.5975   23.4020 H   0  0  0  0  0  0
  -28.9752  -15.4468   21.1561 H   0  0  0  0  0  0
  -28.4800  -19.1570   23.1516 H   0  0  0  0  0  0
  -27.6441  -20.6381   23.4638 H   0  0  0  0  0  0
  1 25  1  0  0  0
  1 30  2  0  0  0
  1 84  1  0  0  0
  2  3  1  0  0  0
  2 25  1  0  0  0
  2 87  1  0  0  0
  2 88  1  0  0  0
  3  4  1  0  0  0
  3 89  1  0  0  0
  3 90  1  0  0  0
  4  5  1  0  0  0
  4 91  1  0  0  0
  4 92  1  0  0  0
  5  6  1  0  0  0
  5 26  1  0  0  0
  5 93  1  0  0  0
  6 25  1  0  0  0
  6 94  1  0  0  0
  6 95  1  0  0  0
  7  8  2  0  0  0
  7 26  1  0  0  0
  7 29  1  0  0  0
  8  9  1  0  0  0
  8 22  1  0  0  0
  9 10  1  0  0  0
  9 27  2  0  0  0
 10 11  2  0  0  0
 10 15  1  0  0  0
 11 12  1  0  0  0
 11 96  1  0  0  0
 12 13  2  0  0  0
 12 97  1  0  0  0
 13 14  1  0  0  0
 13 31  1  0  0  0
 14 15  2  0  0  0
 14 98  1  0  0  0
 15 99  1  0  0  0
 16 17  2  0  0  0
 16 21  1  0  0  0
 16 31  1  0  0  0
 17 18  1  0  0  0
 17100  1  0  0  0
 18 19  2  0  0  0
 18101  1  0  0  0
 19 20  1  0  0  0
 19 24  1  0  0  0
 20 21  2  0  0  0
 20102  1  0  0  0
 21 23  1  0  0  0
 22 28  1  0  0  0
 22 32  2  0  0  0
 26 27  1  0  0  0
 28103  1  0  0  0
 28104  1  0  0  0
 29105  1  0  0  0
 29106  1  0  0  0
 33 34  1  0  0  0
 33 66  1  0  0  0
 33 70  2  0  0  0
 34 36  1  0  0  0
 34 59  1  0  0  0
 34107  1  0  0  0
 35 44  2  0  0  0
 35 45  1  0  0  0
 35 68  1  0  0  0
 36 56  1  0  0  0
 36108  1  0  0  0
 37 39  1  0  0  0
 37 47  1  0  0  0
 37 66  1  0  0  0
 37109  1  0  0  0
 38 43  2  0  0  0
 38 46  1  0  0  0
 38 47  1  0  0  0
 39 64  1  0  0  0
 39 67  2  0  0  0
 40 52  1  0  0  0
 40 53  2  0  0  0
 40 58  1  0  0  0
 41110  1  0  0  0
 41111  1  0  0  0
 41112  1  0  0  0
 41 48  1  0  0  0
 42 43  1  0  0  0
 42 66  1  0  0  0
 42113  1  0  0  0
 42114  1  0  0  0
 43 44  1  0  0  0
 44115  1  0  0  0
 45 46  2  0  0  0
 45116  1  0  0  0
 46117  1  0  0  0
 47118  1  0  0  0
 47119  1  0  0  0
 48 56  1  0  0  0
 48 65  1  0  0  0
 48120  1  0  0  0
 49 50  1  0  0  0
 49 53  1  0  0  0
 49 64  1  0  0  0
 49121  1  0  0  0
 50 51  1  0  0  0
 50122  1  0  0  0
 50123  1  0  0  0
 51 52  1  0  0  0
 51124  1  0  0  0
 51125  1  0  0  0
 52126  1  0  0  0
 52127  1  0  0  0
 53 54  1  0  0  0
 54 55  2  0  0  0
 54128  1  0  0  0
 55 57  1  0  0  0
 55129  1  0  0  0
 56 69  2  0  0  0
 57 58  2  0  0  0
 57130  1  0  0  0
 58131  1  0  0  0
 59 60  1  0  0  0
 59 61  1  0  0  0
 59 62  1  0  0  0
 60132  1  0  0  0
 60133  1  0  0  0
 60134  1  0  0  0
 61135  1  0  0  0
 61136  1  0  0  0
 61137  1  0  0  0
 62138  1  0  0  0
 62139  1  0  0  0
 62140  1  0  0  0
 63 65  1  0  0  0
 63141  1  0  0  0
 63142  1  0  0  0
 63143  1  0  0  0
 64144  1  0  0  0
 65145  1  0  0  0
 68 78  1  0  0  0
 71 74  2  0  0  0
 71 75  1  0  0  0
 71146  1  0  0  0
 72 74  1  0  0  0
 72 76  2  0  0  0
 72147  1  0  0  0
 73 75  2  0  0  0
 73 76  1  0  0  0
 73148  1  0  0  0
 74 79  1  0  0  0
 75 84  1  0  0  0
 76 86  1  0  0  0
 77 78  2  0  0  0
 77 80  1  0  0  0
 77 81  1  0  0  0
 78149  1  0  0  0
 79 83  1  0  0  0
 79 85  2  0  0  0
 80 82  1  0  0  0
 80150  1  0  0  0
 80151  1  0  0  0
 81 83  1  0  0  0
 81152  1  0  0  0
 81153  1  0  0  0
 82 83  1  0  0  0
 82154  1  0  0  0
 82155  1  0  0  0
 84156  1  0  0  0
 85157  1  0  0  0
 85158  1  0  0  0
M  CHG  1  85   1
M  ISO  4   1 100  68 101  78 101  84 100
M  END
> <chiral flag>
0

> <version>
0

> <s_m_source_file>
/data/baiqing/PycharmProjects/Reinvent-master-3.2/result/LINK_invent/BTK/process_docking_weight1_custom_product_contain_oxygen_bond_distance_aromatic_linkinvent_7_9_3/rearranged_h_0143.sdf

> <i_m_source_file_index>
68

> <r_mmod_Potential_Energy-OPLS-2005>
-162.573883056641

> <r_mmod_Stretch_Energy-OPLS-2005>
66.0307464599609

> <r_mmod_Bend_Energy-OPLS-2005>
153.479354858398

> <r_mmod_Torsional_Energy-OPLS-2005>
249.654190063477

> <r_mmod_Improper_Torsional_Energy-OPLS-2005>
5.64215850830078

> <r_mmod_Van_der_Waal_Energy-OPLS-2005>
156.392730712891

> <r_mmod_Electrostatic_Energy-OPLS-2005>
-411.867706298828

> <r_mmod_Solvation_Energy-OPLS-2005>
-415.372192382812

> <b_mmod_Minimization_Converged-OPLS-2005>
0

> <r_mmod_RMS_Derivative-OPLS-2005>
1.80793857574463

$$$$
68
                    3D
 Structure written by MMmdl.
162170  0  0  1  0            999 V2000
  -30.6941  -14.4626   20.6596 C   0  0  0  0  0  0
  -30.4310  -12.3404   19.4072 C   0  0  0  0  0  0
  -29.4864  -12.5338   18.2013 C   0  0  0  0  0  0
  -28.0073  -12.3961   18.6167 C   0  0  0  0  0  0
  -27.6647  -13.2097   19.8902 C   0  0  2  0  0  0
  -28.7052  -12.9498   21.0023 C   0  0  0  0  0  0
  -25.2529  -13.8173   20.5617 C   0  0  0  0  0  0
  -24.1820  -13.0450   20.9174 C   0  0  0  0  0  0
  -24.6386  -11.6927   20.8752 C   0  0  0  0  0  0
  -23.9033  -10.4318   21.0409 C   0  0  0  0  0  0
  -24.3612   -9.4239   21.9178 C   0  0  0  0  0  0
  -23.6313   -8.2259   22.0754 C   0  0  0  0  0  0
  -22.4289   -8.0290   21.3540 C   0  0  0  0  0  0
  -21.9896   -9.0257   20.4635 C   0  0  0  0  0  0
  -22.7202  -10.2151   20.3043 C   0  0  0  0  0  0
  -21.6848   -6.0749   22.5272 C   0  0  0  0  0  0
  -21.4007   -6.5639   23.8214 C   0  0  0  0  0  0
  -21.3650   -5.6769   24.9165 C   0  0  0  0  0  0
  -21.6056   -4.3037   24.7194 C   0  0  0  0  0  0
  -21.8831   -3.8146   23.4307 C   0  0  0  0  0  0
  -21.9212   -4.6979   22.3378 C   0  0  0  0  0  0
  -22.7842  -13.5255   21.1831 C   0  0  0  0  0  0
  -22.1669   -4.2171   21.0951 F   0  0  0  0  0  0
  -21.5625   -3.4515   25.7704 F   0  0  0  0  0  0
  -30.0376  -13.2873   20.4629 N   0  0  0  0  0  0
  -26.3027  -12.9369   20.3411 N   0  0  0  0  0  0
  -25.9325  -11.6515   20.5797 N   0  0  0  0  0  0
  -22.0447  -12.8294   22.0394 N   0  0  0  0  0  0
  -25.4172  -15.1896   20.3946 N   0  0  0  0  0  0
  -31.7839  -14.7227   20.1328 O   0  0  0  0  0  0
  -21.6655   -6.8889   21.4241 O   0  0  0  0  0  0
  -22.3524  -14.5552   20.6664 O   0  0  0  0  0  0
  -24.6126  -31.8679   23.2079 C   0  0  0  0  0  0
  -25.9041  -32.4813   23.8366 C   0  0  1  0  0  0
  -27.2382  -27.4450   20.0950 C   0  0  0  0  0  0
  -25.5915  -33.8615   24.2304 N   0  0  0  0  0  0
  -23.3951  -30.4899   21.5493 C   0  0  2  0  0  0
  -24.8413  -28.9541   20.1210 C   0  0  0  0  0  0
  -22.7354  -29.4660   22.4999 C   0  0  0  0  0  0
  -18.0229  -28.1398   22.8455 C   0  0  0  0  0  0
  -24.1499  -36.7317   23.2641 C   0  0  0  0  0  0
  -25.9238  -30.8330   21.3607 C   0  0  0  0  0  0
  -25.9999  -29.4688   20.7139 C   0  0  0  0  0  0
  -27.1976  -28.7191   20.7011 C   0  0  0  0  0  0
  -26.0572  -26.9477   19.4909 C   0  0  0  0  0  0
  -24.8628  -27.6901   19.5111 C   0  0  0  0  0  0
  -23.6009  -29.8141   20.1686 C   0  0  0  0  0  0
  -25.4108  -36.3102   24.0324 C   0  0  1  0  0  0
  -20.5830  -28.3632   23.1343 C   0  0  2  0  0  0
  -20.6741  -26.9356   22.5483 C   0  0  0  0  0  0
  -19.5722  -26.6338   21.5263 C   0  0  0  0  0  0
  -18.1862  -26.7955   22.1582 C   0  0  0  0  0  0
  -19.1505  -28.8799   23.2927 C   0  0  0  0  0  0
  -18.9469  -30.1365   23.8988 C   0  0  0  0  0  0
  -17.6507  -30.6552   24.0625 C   0  0  0  0  0  0
  -25.9019  -34.9476   23.5094 C   0  0  0  0  0  0
  -16.5392  -29.9129   23.6308 C   0  0  0  0  0  0
  -16.7241  -28.6557   23.0305 C   0  0  0  0  0  0
  -26.4479  -31.6579   25.0691 C   0  0  0  0  0  0
  -25.3763  -31.3672   26.1447 C   0  0  0  0  0  0
  -27.0338  -30.3031   24.6060 C   0  0  0  0  0  0
  -27.6030  -32.4313   25.7465 C   0  0  0  0  0  0
  -27.5576  -37.1817   24.8472 C   0  0  0  0  0  0
  -21.4086  -29.3017   22.3752 N   0  0  0  0  0  0
  -26.4311  -37.3775   23.9377 N   0  0  0  0  0  0
  -24.6608  -31.0782   22.0976 N   0  0  0  0  0  0
  -23.4187  -28.8215   23.3011 O   0  0  0  0  0  0
  -28.4316  -26.7483   20.1122 O   0  0  0  0  0  0
  -26.5602  -34.8935   22.4670 O   0  0  0  0  0  0
  -23.5321  -32.1424   23.7494 O   0  0  0  0  0  0
  -31.3835  -18.6423   22.5987 C   0  0  0  0  0  0
  -30.5380  -19.5330   21.9066 C   0  0  0  0  0  0
  -31.2398  -17.2503   22.4300 C   0  0  0  0  0  0
  -29.3827  -17.6473   20.8971 C   0  0  0  0  0  0
  -29.5219  -19.0516   21.0470 C   0  0  0  0  0  0
  -30.2506  -16.7436   21.5578 C   0  0  0  0  0  0
  -28.6310  -20.0070   20.3171 C   0  0  0  0  0  0
  -27.9968  -24.4122   20.7957 C   0  0  0  0  0  0
  -25.6460  -23.5820   20.9132 C   0  0  0  0  0  0
  -27.0363  -22.8911   18.9372 C   0  0  0  0  0  0
  -28.4554  -25.3787   19.6780 C   0  0  0  0  0  0
  -27.5010  -21.9153   21.2364 C   0  0  0  0  0  0
  -27.0768  -23.2022   20.4521 C   0  0  0  0  0  0
  -27.8762  -19.7062   19.3483 N   0  0  0  0  0  0
  -30.0377  -15.3400   21.4412 N   0  0  0  0  0  0
  -28.3267  -24.6325   21.9671 O   0  0  0  0  0  0
  -28.7202  -21.3022   20.7810 O   0  0  0  0  0  0
  -31.4697  -12.4727   19.0943 H   0  0  0  0  0  0
  -30.3579  -11.3207   19.7863 H   0  0  0  0  0  0
  -29.7169  -11.8043   17.4233 H   0  0  0  0  0  0
  -29.6473  -13.5170   17.7552 H   0  0  0  0  0  0
  -27.8036  -11.3386   18.7824 H   0  0  0  0  0  0
  -27.3538  -12.7091   17.7991 H   0  0  0  0  0  0
  -27.7204  -14.2661   19.6261 H   0  0  0  0  0  0
  -28.7036  -11.8981   21.2927 H   0  0  0  0  0  0
  -28.4425  -13.4910   21.9133 H   0  0  0  0  0  0
  -25.2750   -9.5772   22.4751 H   0  0  0  0  0  0
  -24.0053   -7.4668   22.7458 H   0  0  0  0  0  0
  -21.0837   -8.8763   19.8929 H   0  0  0  0  0  0
  -22.3631  -10.9718   19.6167 H   0  0  0  0  0  0
  -21.1965   -7.6138   23.9713 H   0  0  0  0  0  0
  -21.1460   -6.0490   25.9064 H   0  0  0  0  0  0
  -22.0626   -2.7620   23.2788 H   0  0  0  0  0  0
  -22.4026  -12.0037   22.4957 H   0  0  0  0  0  0
  -21.1016  -13.1307   22.2403 H   0  0  0  0  0  0
  -24.6304  -15.8261   20.4749 H   0  0  0  0  0  0
  -26.2541  -15.6363   20.0436 H   0  0  0  0  0  0
  -26.7116  -32.5508   23.1127 H   0  0  0  0  0  0
  -25.0091  -33.9758   25.0465 H   0  0  0  0  0  0
  -22.6852  -31.3062   21.4044 H   0  0  0  0  0  0
  -23.3745  -35.9678   23.3352 H   0  0  0  0  0  0
  -24.3606  -36.8897   22.2057 H   0  0  0  0  0  0
  -23.7305  -37.6543   23.6637 H   0  0  0  0  0  0
  -26.0371  -31.5933   20.5879 H   0  0  0  0  0  0
  -26.8125  -30.8852   21.9777 H   0  0  0  0  0  0
  -28.0932  -29.1157   21.1602 H   0  0  0  0  0  0
  -26.0265  -25.9942   18.9901 H   0  0  0  0  0  0
  -23.9690  -27.2881   19.0515 H   0  0  0  0  0  0
  -23.7030  -30.5786   19.3989 H   0  0  0  0  0  0
  -22.7286  -29.2219   19.8840 H   0  0  0  0  0  0
  -25.1309  -36.1945   25.0823 H   0  0  0  0  0  0
  -20.9932  -28.3185   24.1449 H   0  0  0  0  0  0
  -20.5569  -26.2260   23.3692 H   0  0  0  0  0  0
  -21.6651  -26.7477   22.1338 H   0  0  0  0  0  0
  -19.6849  -25.6245   21.1354 H   0  0  0  0  0  0
  -19.6742  -27.3078   20.6746 H   0  0  0  0  0  0
  -17.4188  -26.6760   21.3909 H   0  0  0  0  0  0
  -18.0181  -26.0149   22.9007 H   0  0  0  0  0  0
  -19.7981  -30.7075   24.2412 H   0  0  0  0  0  0
  -17.5137  -31.6222   24.5311 H   0  0  0  0  0  0
  -15.5409  -30.3093   23.7604 H   0  0  0  0  0  0
  -15.8611  -28.0931   22.6991 H   0  0  0  0  0  0
  -24.5895  -30.7072   25.7781 H   0  0  0  0  0  0
  -24.9012  -32.2836   26.4951 H   0  0  0  0  0  0
  -25.8124  -30.8784   27.0168 H   0  0  0  0  0  0
  -26.2879  -29.6738   24.1188 H   0  0  0  0  0  0
  -27.4229  -29.7296   25.4486 H   0  0  0  0  0  0
  -27.8651  -30.4383   23.9136 H   0  0  0  0  0  0
  -27.2613  -33.3573   26.2090 H   0  0  0  0  0  0
  -28.3806  -32.6945   25.0291 H   0  0  0  0  0  0
  -28.0735  -31.8429   26.5346 H   0  0  0  0  0  0
  -28.2618  -38.0090   24.7462 H   0  0  0  0  0  0
  -28.1054  -36.2621   24.6361 H   0  0  0  0  0  0
  -27.2296  -37.1525   25.8883 H   0  0  0  0  0  0
  -20.9189  -29.8817   21.7056 H   0  0  0  0  0  0
  -26.0197  -38.2863   24.1337 H   0  0  0  0  0  0
  -32.1422  -19.0318   23.2662 H   0  0  0  0  0  0
  -30.6728  -20.5970   22.0478 H   0  0  0  0  0  0
  -31.8754  -16.5818   22.9939 H   0  0  0  0  0  0
  -28.5969  -17.2533   20.2654 H   0  0  0  0  0  0
  -25.1718  -24.2876   20.2310 H   0  0  0  0  0  0
  -25.6380  -24.0411   21.9026 H   0  0  0  0  0  0
  -24.9954  -22.7089   20.9581 H   0  0  0  0  0  0
  -26.5219  -23.6640   18.3660 H   0  0  0  0  0  0
  -26.4886  -21.9687   18.7507 H   0  0  0  0  0  0
  -28.0370  -22.7645   18.5175 H   0  0  0  0  0  0
  -27.9207  -25.2554   18.7419 H   0  0  0  0  0  0
  -29.4903  -25.1237   19.4556 H   0  0  0  0  0  0
  -26.6730  -21.2024   21.2388 H   0  0  0  0  0  0
  -27.6433  -22.1512   22.2920 H   0  0  0  0  0  0
  -27.9422  -18.7269   19.1033 H   0  0  0  0  0  0
  -29.1511  -14.9981   21.7832 H   0  0  0  0  0  0
  1 25  1  0  0  0
  1 30  2  0  0  0
  1 85  1  0  0  0
  2  3  1  0  0  0
  2 25  1  0  0  0
  2 88  1  0  0  0
  2 89  1  0  0  0
  3  4  1  0  0  0
  3 90  1  0  0  0
  3 91  1  0  0  0
  4  5  1  0  0  0
  4 92  1  0  0  0
  4 93  1  0  0  0
  5  6  1  0  0  0
  5 26  1  0  0  0
  5 94  1  0  0  0
  6 25  1  0  0  0
  6 95  1  0  0  0
  6 96  1  0  0  0
  7  8  2  0  0  0
  7 26  1  0  0  0
  7 29  1  0  0  0
  8  9  1  0  0  0
  8 22  1  0  0  0
  9 10  1  0  0  0
  9 27  2  0  0  0
 10 11  2  0  0  0
 10 15  1  0  0  0
 11 12  1  0  0  0
 11 97  1  0  0  0
 12 13  2  0  0  0
 12 98  1  0  0  0
 13 14  1  0  0  0
 13 31  1  0  0  0
 14 15  2  0  0  0
 14 99  1  0  0  0
 15100  1  0  0  0
 16 17  2  0  0  0
 16 21  1  0  0  0
 16 31  1  0  0  0
 17 18  1  0  0  0
 17101  1  0  0  0
 18 19  2  0  0  0
 18102  1  0  0  0
 19 20  1  0  0  0
 19 24  1  0  0  0
 20 21  2  0  0  0
 20103  1  0  0  0
 21 23  1  0  0  0
 22 28  1  0  0  0
 22 32  2  0  0  0
 26 27  1  0  0  0
 28104  1  0  0  0
 28105  1  0  0  0
 29106  1  0  0  0
 29107  1  0  0  0
 33 34  1  0  0  0
 33 66  1  0  0  0
 33 70  2  0  0  0
 34 36  1  0  0  0
 34 59  1  0  0  0
 34108  1  0  0  0
 35 44  2  0  0  0
 35 45  1  0  0  0
 35 68  1  0  0  0
 36 56  1  0  0  0
 36109  1  0  0  0
 37 39  1  0  0  0
 37 47  1  0  0  0
 37 66  1  0  0  0
 37110  1  0  0  0
 38 43  2  0  0  0
 38 46  1  0  0  0
 38 47  1  0  0  0
 39 64  1  0  0  0
 39 67  2  0  0  0
 40 52  1  0  0  0
 40 53  2  0  0  0
 40 58  1  0  0  0
 41111  1  0  0  0
 41112  1  0  0  0
 41113  1  0  0  0
 41 48  1  0  0  0
 42 43  1  0  0  0
 42 66  1  0  0  0
 42114  1  0  0  0
 42115  1  0  0  0
 43 44  1  0  0  0
 44116  1  0  0  0
 45 46  2  0  0  0
 45117  1  0  0  0
 46118  1  0  0  0
 47119  1  0  0  0
 47120  1  0  0  0
 48 56  1  0  0  0
 48 65  1  0  0  0
 48121  1  0  0  0
 49 50  1  0  0  0
 49 53  1  0  0  0
 49 64  1  0  0  0
 49122  1  0  0  0
 50 51  1  0  0  0
 50123  1  0  0  0
 50124  1  0  0  0
 51 52  1  0  0  0
 51125  1  0  0  0
 51126  1  0  0  0
 52127  1  0  0  0
 52128  1  0  0  0
 53 54  1  0  0  0
 54 55  2  0  0  0
 54129  1  0  0  0
 55 57  1  0  0  0
 55130  1  0  0  0
 56 69  2  0  0  0
 57 58  2  0  0  0
 57131  1  0  0  0
 58132  1  0  0  0
 59 60  1  0  0  0
 59 61  1  0  0  0
 59 62  1  0  0  0
 60133  1  0  0  0
 60134  1  0  0  0
 60135  1  0  0  0
 61136  1  0  0  0
 61137  1  0  0  0
 61138  1  0  0  0
 62139  1  0  0  0
 62140  1  0  0  0
 62141  1  0  0  0
 63 65  1  0  0  0
 63142  1  0  0  0
 63143  1  0  0  0
 63144  1  0  0  0
 64145  1  0  0  0
 65146  1  0  0  0
 68 81  1  0  0  0
 71 72  2  0  0  0
 71 73  1  0  0  0
 71147  1  0  0  0
 72 75  1  0  0  0
 72148  1  0  0  0
 73 76  2  0  0  0
 73149  1  0  0  0
 74 75  2  0  0  0
 74 76  1  0  0  0
 74150  1  0  0  0
 75 77  1  0  0  0
 76 85  1  0  0  0
 77 84  2  0  0  0
 77 87  1  0  0  0
 78 81  1  0  0  0
 78 83  1  0  0  0
 78 86  2  0  0  0
 79151  1  0  0  0
 79152  1  0  0  0
 79153  1  0  0  0
 79 83  1  0  0  0
 80 83  1  0  0  0
 80154  1  0  0  0
 80155  1  0  0  0
 80156  1  0  0  0
 81157  1  0  0  0
 81158  1  0  0  0
 82 83  1  0  0  0
 82 87  1  0  0  0
 82159  1  0  0  0
 82160  1  0  0  0
 84161  1  0  0  0
 85162  1  0  0  0
M  ISO  4   1 100  68 101  81 101  85 100
M  END
> <chiral flag>
0

> <version>
0

> <s_m_source_file>
/data/baiqing/PycharmProjects/Reinvent-master-3.2/result/LINK_invent/BTK/process_docking_weight1_custom_product_contain_oxygen_bond_distance_aromatic_linkinvent_7_9_3/rearranged_h_0143.sdf

> <i_m_source_file_index>
69

> <r_mmod_Potential_Energy-OPLS-2005>
-9.01101112365723

> <r_mmod_Stretch_Energy-OPLS-2005>
42.5325775146484

> <r_mmod_Bend_Energy-OPLS-2005>
108.175552368164

> <r_mmod_Torsional_Energy-OPLS-2005>
255.019607543945

> <r_mmod_Improper_Torsional_Energy-OPLS-2005>
3.5029194355011

> <r_mmod_Van_der_Waal_Energy-OPLS-2005>
163.013824462891

> <r_mmod_Electrostatic_Energy-OPLS-2005>
-363.231231689453

> <r_mmod_Solvation_Energy-OPLS-2005>
-229.670303344727

> <b_mmod_Minimization_Converged-OPLS-2005>
0

> <r_mmod_RMS_Derivative-OPLS-2005>
5.33799934387207

$$$$
69
                    3D
 Structure written by MMmdl.
162171  0  0  1  0            999 V2000
  -30.6376  -14.5760   20.5331 C   0  0  0  0  0  0
  -30.4261  -12.3683   19.4215 C   0  0  0  0  0  0
  -29.4896  -12.5244   18.2055 C   0  0  0  0  0  0
  -28.0110  -12.3673   18.6190 C   0  0  0  0  0  0
  -27.6492  -13.2138   19.8704 C   0  0  2  0  0  0
  -28.6988  -13.0329   20.9860 C   0  0  0  0  0  0
  -25.2534  -13.8146   20.5694 C   0  0  0  0  0  0
  -24.1799  -13.0412   20.9221 C   0  0  0  0  0  0
  -24.6385  -11.6873   20.8760 C   0  0  0  0  0  0
  -23.9036  -10.4263   21.0382 C   0  0  0  0  0  0
  -24.3594   -9.4171   21.9168 C   0  0  0  0  0  0
  -23.6298   -8.2188   22.0712 C   0  0  0  0  0  0
  -22.4282   -8.0224   21.3478 C   0  0  0  0  0  0
  -21.9908   -9.0203   20.4615 C   0  0  0  0  0  0
  -22.7217  -10.2102   20.3046 C   0  0  0  0  0  0
  -21.6858   -6.0729   22.5276 C   0  0  0  0  0  0
  -21.4021   -6.5626   23.8202 C   0  0  0  0  0  0
  -21.3665   -5.6767   24.9160 C   0  0  0  0  0  0
  -21.6058   -4.3040   24.7207 C   0  0  0  0  0  0
  -21.8822   -3.8135   23.4324 C   0  0  0  0  0  0
  -21.9191   -4.6955   22.3391 C   0  0  0  0  0  0
  -22.7829  -13.5187   21.1882 C   0  0  0  0  0  0
  -22.1650   -4.2139   21.0968 F   0  0  0  0  0  0
  -21.5627   -3.4534   25.7723 F   0  0  0  0  0  0
  -30.0097  -13.3726   20.4118 N   0  0  0  0  0  0
  -26.2965  -12.9345   20.3390 N   0  0  0  0  0  0
  -25.9316  -11.6489   20.5786 N   0  0  0  0  0  0
  -22.0466  -12.8191   22.0444 N   0  0  0  0  0  0
  -25.4244  -15.1844   20.4042 N   0  0  0  0  0  0
  -31.8185  -14.7356   20.2061 O   0  0  0  0  0  0
  -21.6612   -6.8853   21.4233 O   0  0  0  0  0  0
  -22.3526  -14.5494   20.6733 O   0  0  0  0  0  0
  -24.6160  -31.8668   23.2078 C   0  0  0  0  0  0
  -25.9063  -32.4811   23.8368 C   0  0  1  0  0  0
  -27.2216  -27.3870   20.0925 C   0  0  0  0  0  0
  -25.5936  -33.8615   24.2309 N   0  0  0  0  0  0
  -23.4008  -30.4943   21.5520 C   0  0  2  0  0  0
  -24.8434  -28.9523   20.1118 C   0  0  0  0  0  0
  -22.7392  -29.4671   22.4990 C   0  0  0  0  0  0
  -18.0267  -28.1346   22.8500 C   0  0  0  0  0  0
  -24.1495  -36.7299   23.2641 C   0  0  0  0  0  0
  -25.9340  -30.8170   21.3687 C   0  0  0  0  0  0
  -26.0098  -29.4513   20.7060 C   0  0  0  0  0  0
  -27.1987  -28.6785   20.6875 C   0  0  0  0  0  0
  -26.0301  -26.9139   19.4966 C   0  0  0  0  0  0
  -24.8500  -27.6851   19.5074 C   0  0  0  0  0  0
  -23.6075  -29.8271   20.1646 C   0  0  0  0  0  0
  -25.4127  -36.3110   24.0335 C   0  0  1  0  0  0
  -20.5854  -28.3645   23.1317 C   0  0  2  0  0  0
  -20.6767  -26.9401   22.5399 C   0  0  0  0  0  0
  -19.5748  -26.6367   21.5194 C   0  0  0  0  0  0
  -18.1918  -26.7897   22.1602 C   0  0  0  0  0  0
  -19.1511  -28.8805   23.2908 C   0  0  0  0  0  0
  -18.9444  -30.1412   23.8913 C   0  0  0  0  0  0
  -17.6450  -30.6587   24.0532 C   0  0  0  0  0  0
  -25.9061  -34.9477   23.5121 C   0  0  0  0  0  0
  -16.5343  -29.9078   23.6323 C   0  0  0  0  0  0
  -16.7253  -28.6467   23.0382 C   0  0  0  0  0  0
  -26.4486  -31.6614   25.0723 C   0  0  0  0  0  0
  -25.3746  -31.3706   26.1463 C   0  0  0  0  0  0
  -27.0327  -30.3052   24.6133 C   0  0  0  0  0  0
  -27.6049  -32.4355   25.7484 C   0  0  0  0  0  0
  -27.5590  -37.1811   24.8462 C   0  0  0  0  0  0
  -21.4124  -29.3021   22.3719 N   0  0  0  0  0  0
  -26.4297  -37.3814   23.9412 N   0  0  0  0  0  0
  -24.6681  -31.0743   22.1010 N   0  0  0  0  0  0
  -23.4182  -28.8232   23.3040 O   0  0  0  0  0  0
  -28.3895  -26.6346   20.1344 O   0  0  0  0  0  0
  -26.5593  -34.8933   22.4672 O   0  0  0  0  0  0
  -23.5366  -32.1452   23.7487 O   0  0  0  0  0  0
  -31.2611  -18.3191   22.9634 C   0  0  0  0  0  0
  -30.5496  -19.4602   22.5492 C   0  0  0  0  0  0
  -31.0697  -17.0807   22.3259 C   0  0  0  0  0  0
  -29.4332  -18.1267   20.8484 C   0  0  0  0  0  0
  -29.6441  -19.4020   21.4676 C   0  0  0  0  0  0
  -30.1390  -16.9534   21.2731 C   0  0  0  0  0  0
  -29.0497  -23.2758   21.0500 C   0  0  0  0  0  0
  -31.0975  -21.2690   19.0870 C   0  0  0  0  0  0
  -29.7289  -21.9303   18.9242 C   0  0  0  0  0  0
  -31.1418  -21.9459   20.4521 C   0  0  0  0  0  0
  -29.5896  -21.9410   20.4723 C   0  0  0  0  0  0
  -28.8426  -20.6874   21.0959 C   0  0  0  0  0  0
  -27.9723  -24.0681   20.2591 C   0  0  0  0  0  0
  -28.4780  -25.3379   19.4871 C   0  0  0  0  0  0
  -29.8211  -15.6402   20.7646 N   0  0  0  0  0  0
  -29.4566  -23.7818   22.0985 O   0  0  0  0  0  0
  -31.4664  -12.4983   19.1142 H   0  0  0  0  0  0
  -30.3570  -11.3639   19.8409 H   0  0  0  0  0  0
  -29.7482  -11.7942   17.4376 H   0  0  0  0  0  0
  -29.6427  -13.5094   17.7585 H   0  0  0  0  0  0
  -27.8344  -11.3107   18.8173 H   0  0  0  0  0  0
  -27.3544  -12.6310   17.7884 H   0  0  0  0  0  0
  -27.6747  -14.2588   19.5629 H   0  0  0  0  0  0
  -28.7004  -12.0031   21.3461 H   0  0  0  0  0  0
  -28.4633  -13.6588   21.8481 H   0  0  0  0  0  0
  -25.2726   -9.5658   22.4744 H   0  0  0  0  0  0
  -24.0004   -7.4590   22.7443 H   0  0  0  0  0  0
  -21.0814   -8.8730   19.8950 H   0  0  0  0  0  0
  -22.3647  -10.9637   19.6146 H   0  0  0  0  0  0
  -21.1997   -7.6131   23.9713 H   0  0  0  0  0  0
  -21.1505   -6.0481   25.9061 H   0  0  0  0  0  0
  -22.0613   -2.7603   23.2816 H   0  0  0  0  0  0
  -22.4110  -11.9877   22.4875 H   0  0  0  0  0  0
  -21.1073  -13.1211   22.2644 H   0  0  0  0  0  0
  -24.6577  -15.8381   20.5048 H   0  0  0  0  0  0
  -26.2626  -15.6244   20.0489 H   0  0  0  0  0  0
  -26.7103  -32.5497   23.1098 H   0  0  0  0  0  0
  -25.0145  -33.9786   25.0488 H   0  0  0  0  0  0
  -22.6924  -31.3141   21.4180 H   0  0  0  0  0  0
  -23.3789  -35.9593   23.3292 H   0  0  0  0  0  0
  -24.3575  -36.8921   22.2046 H   0  0  0  0  0  0
  -23.7177  -37.6487   23.6652 H   0  0  0  0  0  0
  -26.0662  -31.5887   20.6100 H   0  0  0  0  0  0
  -26.8163  -30.8557   21.9932 H   0  0  0  0  0  0
  -28.1008  -29.0680   21.1411 H   0  0  0  0  0  0
  -25.9752  -25.9424   19.0314 H   0  0  0  0  0  0
  -23.9473  -27.2947   19.0551 H   0  0  0  0  0  0
  -23.7158  -30.6061   19.4083 H   0  0  0  0  0  0
  -22.7242  -29.2547   19.8709 H   0  0  0  0  0  0
  -25.1293  -36.1983   25.0817 H   0  0  0  0  0  0
  -20.9957  -28.3208   24.1429 H   0  0  0  0  0  0
  -20.5658  -26.2270   23.3579 H   0  0  0  0  0  0
  -21.6643  -26.7446   22.1187 H   0  0  0  0  0  0
  -19.6922  -25.6274   21.1215 H   0  0  0  0  0  0
  -19.6688  -27.3177   20.6719 H   0  0  0  0  0  0
  -17.4206  -26.6663   21.3992 H   0  0  0  0  0  0
  -18.0337  -26.0013   22.8969 H   0  0  0  0  0  0
  -19.7917  -30.7194   24.2339 H   0  0  0  0  0  0
  -17.5009  -31.6284   24.5110 H   0  0  0  0  0  0
  -15.5340  -30.2970   23.7642 H   0  0  0  0  0  0
  -15.8650  -28.0757   22.7147 H   0  0  0  0  0  0
  -24.5900  -30.7107   25.7767 H   0  0  0  0  0  0
  -24.8986  -32.2868   26.4958 H   0  0  0  0  0  0
  -25.8085  -30.8808   27.0191 H   0  0  0  0  0  0
  -26.2886  -29.6811   24.1184 H   0  0  0  0  0  0
  -27.4097  -29.7285   25.4595 H   0  0  0  0  0  0
  -27.8719  -30.4372   23.9298 H   0  0  0  0  0  0
  -27.2647  -33.3628   26.2098 H   0  0  0  0  0  0
  -28.3825  -32.6968   25.0298 H   0  0  0  0  0  0
  -28.0772  -31.8485   26.5369 H   0  0  0  0  0  0
  -28.2610  -38.0115   24.7554 H   0  0  0  0  0  0
  -28.1091  -36.2652   24.6246 H   0  0  0  0  0  0
  -27.2320  -37.1401   25.8871 H   0  0  0  0  0  0
  -20.9297  -29.8732   21.6914 H   0  0  0  0  0  0
  -26.0198  -38.2898   24.1441 H   0  0  0  0  0  0
  -31.9419  -18.3861   23.7985 H   0  0  0  0  0  0
  -30.6981  -20.3906   23.0796 H   0  0  0  0  0  0
  -31.6102  -16.2184   22.6917 H   0  0  0  0  0  0
  -28.7040  -18.0404   20.0526 H   0  0  0  0  0  0
  -31.8606  -21.6036   18.3832 H   0  0  0  0  0  0
  -31.0530  -20.1806   19.1438 H   0  0  0  0  0  0
  -28.9858  -21.3267   18.3986 H   0  0  0  0  0  0
  -29.8228  -22.9151   18.4644 H   0  0  0  0  0  0
  -31.5638  -22.9536   20.3835 H   0  0  0  0  0  0
  -31.6451  -21.3855   21.2351 H   0  0  0  0  0  0
  -28.3424  -20.9863   22.0196 H   0  0  0  0  0  0
  -28.0227  -20.3915   20.4415 H   0  0  0  0  0  0
  -27.1637  -24.3502   20.9346 H   0  0  0  0  0  0
  -27.5258  -23.3764   19.5419 H   0  0  0  0  0  0
  -28.0060  -25.3819   18.5058 H   0  0  0  0  0  0
  -29.5346  -25.1986   19.2614 H   0  0  0  0  0  0
  -28.8363  -15.4374   20.6858 H   0  0  0  0  0  0
  1 25  1  0  0  0
  1 30  2  0  0  0
  1 85  1  0  0  0
  2  3  1  0  0  0
  2 25  1  0  0  0
  2 87  1  0  0  0
  2 88  1  0  0  0
  3  4  1  0  0  0
  3 89  1  0  0  0
  3 90  1  0  0  0
  4  5  1  0  0  0
  4 91  1  0  0  0
  4 92  1  0  0  0
  5  6  1  0  0  0
  5 26  1  0  0  0
  5 93  1  0  0  0
  6 25  1  0  0  0
  6 94  1  0  0  0
  6 95  1  0  0  0
  7  8  2  0  0  0
  7 26  1  0  0  0
  7 29  1  0  0  0
  8  9  1  0  0  0
  8 22  1  0  0  0
  9 10  1  0  0  0
  9 27  2  0  0  0
 10 11  2  0  0  0
 10 15  1  0  0  0
 11 12  1  0  0  0
 11 96  1  0  0  0
 12 13  2  0  0  0
 12 97  1  0  0  0
 13 14  1  0  0  0
 13 31  1  0  0  0
 14 15  2  0  0  0
 14 98  1  0  0  0
 15 99  1  0  0  0
 16 17  2  0  0  0
 16 21  1  0  0  0
 16 31  1  0  0  0
 17 18  1  0  0  0
 17100  1  0  0  0
 18 19  2  0  0  0
 18101  1  0  0  0
 19 20  1  0  0  0
 19 24  1  0  0  0
 20 21  2  0  0  0
 20102  1  0  0  0
 21 23  1  0  0  0
 22 28  1  0  0  0
 22 32  2  0  0  0
 26 27  1  0  0  0
 28103  1  0  0  0
 28104  1  0  0  0
 29105  1  0  0  0
 29106  1  0  0  0
 33 34  1  0  0  0
 33 66  1  0  0  0
 33 70  2  0  0  0
 34 36  1  0  0  0
 34 59  1  0  0  0
 34107  1  0  0  0
 35 44  2  0  0  0
 35 45  1  0  0  0
 35 68  1  0  0  0
 36 56  1  0  0  0
 36108  1  0  0  0
 37 39  1  0  0  0
 37 47  1  0  0  0
 37 66  1  0  0  0
 37109  1  0  0  0
 38 43  2  0  0  0
 38 46  1  0  0  0
 38 47  1  0  0  0
 39 64  1  0  0  0
 39 67  2  0  0  0
 40 52  1  0  0  0
 40 53  2  0  0  0
 40 58  1  0  0  0
 41110  1  0  0  0
 41111  1  0  0  0
 41112  1  0  0  0
 41 48  1  0  0  0
 42 43  1  0  0  0
 42 66  1  0  0  0
 42113  1  0  0  0
 42114  1  0  0  0
 43 44  1  0  0  0
 44115  1  0  0  0
 45 46  2  0  0  0
 45116  1  0  0  0
 46117  1  0  0  0
 47118  1  0  0  0
 47119  1  0  0  0
 48 56  1  0  0  0
 48 65  1  0  0  0
 48120  1  0  0  0
 49 50  1  0  0  0
 49 53  1  0  0  0
 49 64  1  0  0  0
 49121  1  0  0  0
 50 51  1  0  0  0
 50122  1  0  0  0
 50123  1  0  0  0
 51 52  1  0  0  0
 51124  1  0  0  0
 51125  1  0  0  0
 52126  1  0  0  0
 52127  1  0  0  0
 53 54  1  0  0  0
 54 55  2  0  0  0
 54128  1  0  0  0
 55 57  1  0  0  0
 55129  1  0  0  0
 56 69  2  0  0  0
 57 58  2  0  0  0
 57130  1  0  0  0
 58131  1  0  0  0
 59 60  1  0  0  0
 59 61  1  0  0  0
 59 62  1  0  0  0
 60132  1  0  0  0
 60133  1  0  0  0
 60134  1  0  0  0
 61135  1  0  0  0
 61136  1  0  0  0
 61137  1  0  0  0
 62138  1  0  0  0
 62139  1  0  0  0
 62140  1  0  0  0
 63 65  1  0  0  0
 63141  1  0  0  0
 63142  1  0  0  0
 63143  1  0  0  0
 64144  1  0  0  0
 65145  1  0  0  0
 68 84  1  0  0  0
 71 72  2  0  0  0
 71 73  1  0  0  0
 71146  1  0  0  0
 72 75  1  0  0  0
 72147  1  0  0  0
 73 76  2  0  0  0
 73148  1  0  0  0
 74 75  2  0  0  0
 74 76  1  0  0  0
 74149  1  0  0  0
 75 82  1  0  0  0
 76 85  1  0  0  0
 77 81  1  0  0  0
 77 83  1  0  0  0
 77 86  2  0  0  0
 78 79  1  0  0  0
 78 80  1  0  0  0
 78150  1  0  0  0
 78151  1  0  0  0
 79 81  1  0  0  0
 79152  1  0  0  0
 79153  1  0  0  0
 80 81  1  0  0  0
 80154  1  0  0  0
 80155  1  0  0  0
 81 82  1  0  0  0
 82156  1  0  0  0
 82157  1  0  0  0
 83 84  1  0  0  0
 83158  1  0  0  0
 83159  1  0  0  0
 84160  1  0  0  0
 84161  1  0  0  0
 85162  1  0  0  0
M  ISO  4   1 100  68 101  84 101  85 100
M  END
> <chiral flag>
0

> <version>
0

> <s_m_source_file>
/data/baiqing/PycharmProjects/Reinvent-master-3.2/result/LINK_invent/BTK/process_docking_weight1_custom_product_contain_oxygen_bond_distance_aromatic_linkinvent_7_9_3/rearranged_h_0143.sdf

> <i_m_source_file_index>
70

> <r_mmod_Potential_Energy-OPLS-2005>
66.0373382568359

> <r_mmod_Stretch_Energy-OPLS-2005>
59.5640144348145

> <r_mmod_Bend_Energy-OPLS-2005>
143.367935180664

> <r_mmod_Torsional_Energy-OPLS-2005>
251.513824462891

> <r_mmod_Improper_Torsional_Energy-OPLS-2005>
7.63353490829468

> <r_mmod_Van_der_Waal_Energy-OPLS-2005>
148.825408935547

> <r_mmod_Electrostatic_Energy-OPLS-2005>
-346.547332763672

> <r_mmod_Solvation_Energy-OPLS-2005>
-226.911056518555

> <b_mmod_Minimization_Converged-OPLS-2005>
0

> <r_mmod_RMS_Derivative-OPLS-2005>
5.41873741149902

$$$$
70
                    3D
 Structure written by MMmdl.
175183  0  0  1  0            999 V2000
  -29.9420  -15.4109   20.1382 C   0  0  0  0  0  0
  -30.3654  -12.9290   19.4884 C   0  0  0  0  0  0
  -29.4962  -12.5757   18.2598 C   0  0  0  0  0  0
  -28.0440  -12.2674   18.6779 C   0  0  0  0  0  0
  -27.5302  -13.2536   19.7576 C   0  0  2  0  0  0
  -28.5145  -13.4613   20.9034 C   0  0  0  0  0  0
  -25.2087  -13.8202   20.5692 C   0  0  0  0  0  0
  -24.1487  -13.0398   20.9287 C   0  0  0  0  0  0
  -24.6177  -11.6890   20.8755 C   0  0  0  0  0  0
  -23.8920  -10.4250   21.0443 C   0  0  0  0  0  0
  -24.3515   -9.4173   21.9191 C   0  0  0  0  0  0
  -23.6254   -8.2220   22.0747 C   0  0  0  0  0  0
  -22.4260   -8.0249   21.3534 C   0  0  0  0  0  0
  -21.9844   -9.0185   20.4652 C   0  0  0  0  0  0
  -22.7110  -10.2063   20.3070 C   0  0  0  0  0  0
  -21.6844   -6.0708   22.5282 C   0  0  0  0  0  0
  -21.4013   -6.5625   23.8191 C   0  0  0  0  0  0
  -21.3651   -5.6799   24.9212 C   0  0  0  0  0  0
  -21.6045   -4.3026   24.7243 C   0  0  0  0  0  0
  -21.8822   -3.8109   23.4341 C   0  0  0  0  0  0
  -21.9180   -4.6959   22.3420 C   0  0  0  0  0  0
  -22.7547  -13.5165   21.1994 C   0  0  0  0  0  0
  -22.1659   -4.2116   21.0979 F   0  0  0  0  0  0
  -21.5626   -3.4546   25.7743 F   0  0  0  0  0  0
  -29.6599  -14.0226   20.2339 N   0  0  0  0  0  0
  -26.2291  -12.9363   20.2801 N   0  0  0  0  0  0
  -25.8972  -11.6510   20.5521 N   0  0  0  0  0  0
  -22.0257  -12.8144   22.0562 N   0  0  0  0  0  0
  -25.3881  -15.1934   20.4300 N   0  0  0  0  0  0
  -31.1797  -15.5502   19.9983 O   0  0  0  0  0  0
  -21.6608   -6.8807   21.4243 O   0  0  0  0  0  0
  -22.3233  -14.5456   20.6814 O   0  0  0  0  0  0
  -24.7437  -31.9738   23.2136 C   0  0  0  0  0  0
  -26.0062  -32.5204   23.8936 C   0  0  1  0  0  0
  -26.0258  -27.1441   21.1278 C   0  0  0  0  0  0
  -25.6754  -33.8889   24.2853 N   0  0  0  0  0  0
  -23.6229  -30.8259   21.3790 C   0  0  2  0  0  0
  -24.9567  -29.1912   19.9454 C   0  0  0  0  0  0
  -22.9364  -29.8787   22.2791 C   0  0  0  0  0  0
  -18.6368  -27.5732   22.9329 C   0  0  0  0  0  0
  -24.1491  -36.7359   23.2586 C   0  0  0  0  0  0
  -26.0942  -30.8847   21.3964 C   0  0  0  0  0  0
  -25.9961  -29.4946   20.8211 C   0  0  0  0  0  0
  -26.6441  -28.3980   21.4071 C   0  0  0  0  0  0
  -25.8332  -26.9598   19.7404 C   0  0  0  0  0  0
  -24.9803  -27.9536   19.2355 C   0  0  0  0  0  0
  -23.8196  -30.1640   19.9657 C   0  0  0  0  0  0
  -25.4133  -36.3267   24.0352 C   0  0  1  0  0  0
  -21.0722  -28.6575   22.0204 C   0  0  2  0  0  0
  -22.1874  -27.0915   21.1375 C   0  0  0  0  0  0
  -20.7257  -25.0745   21.9243 C   0  0  0  0  0  0
  -19.1057  -25.8701   22.8099 C   0  0  0  0  0  0
  -19.5603  -28.6965   22.7759 C   0  0  0  0  0  0
  -19.1829  -29.9708   23.3812 C   0  0  0  0  0  0
  -17.8809  -30.3217   23.7817 C   0  0  0  0  0  0
  -25.9205  -34.9668   23.5295 C   0  0  0  0  0  0
  -16.8808  -29.3711   23.5586 C   0  0  0  0  0  0
  -17.2626  -28.0323   23.1843 C   0  0  0  0  0  0
  -26.4766  -31.6722   25.1343 C   0  0  0  0  0  0
  -25.3829  -31.3998   26.1974 C   0  0  0  0  0  0
  -27.0492  -30.3097   24.6837 C   0  0  0  0  0  0
  -27.6238  -32.4294   25.8351 C   0  0  0  0  0  0
  -27.5577  -37.1967   24.8457 C   0  0  0  0  0  0
  -21.6831  -29.8354   21.9055 N   0  0  0  0  0  0
  -26.4265  -37.4022   23.9452 N   0  0  0  0  0  0
  -24.8458  -31.2802   22.0454 N   0  0  0  0  0  0
  -23.4674  -29.2083   23.1887 O   0  0  0  0  0  0
  -25.0506  -26.3594   21.9096 O   0  0  0  0  0  0
  -26.5364  -34.9057   22.4628 O   0  0  0  0  0  0
  -23.6422  -32.2213   23.7415 O   0  0  0  0  0  0
  -26.6253  -19.6351   18.2640 C   0  0  0  0  0  0
  -27.5566  -18.4414   18.4992 C   0  0  0  0  0  0
  -26.1221  -19.6865   20.4283 C   0  0  0  0  0  0
  -25.7723  -20.4021   19.2283 C   0  0  0  0  0  0
  -27.0576  -18.5559   20.6884 C   0  0  0  0  0  0
  -27.9004  -17.7549   19.7739 C   0  0  0  0  0  0
  -22.2315  -23.9988   19.6411 C   0  0  0  0  0  0
  -21.6330  -26.6683   23.2889 C   0  0  0  0  0  0
  -27.1019  -18.2459   22.1427 C   0  0  0  0  0  0
  -24.2215  -24.2726   17.8900 C   0  0  0  0  0  0
  -22.6038  -22.3079   17.7784 C   0  0  0  0  0  0
  -20.0187  -28.0586   19.7273 C   0  0  0  0  0  0
  -18.5940  -26.3307   20.3092 C   0  0  0  0  0  0
  -24.9295  -22.0080   19.3063 C   0  0  0  0  0  0
  -21.0747  -25.4922   19.4705 C   0  0  0  0  0  0
  -23.6257  -26.4314   23.1709 C   0  0  0  0  0  0
  -23.5090  -23.1322   18.7208 C   0  0  0  0  0  0
  -20.0820  -26.7996   20.7686 C   0  0  0  0  0  0
  -28.9281  -16.5335   20.3237 N   0  0  0  0  0  0
  -21.9474  -23.1773   20.5005 O   0  0  0  0  0  0
  -21.1429  -26.7702   24.4362 O   0  0  0  0  0  0
  -31.3538  -13.2578   19.1589 H   0  0  0  0  0  0
  -30.5344  -12.0657   20.1324 H   0  0  0  0  0  0
  -29.9167  -11.7307   17.7142 H   0  0  0  0  0  0
  -29.4981  -13.4270   17.5790 H   0  0  0  0  0  0
  -28.0014  -11.2470   19.0614 H   0  0  0  0  0  0
  -27.3937  -12.2928   17.8023 H   0  0  0  0  0  0
  -27.4207  -14.2013   19.2254 H   0  0  0  0  0  0
  -28.7379  -12.5480   21.4554 H   0  0  0  0  0  0
  -28.1099  -14.1909   21.6121 H   0  0  0  0  0  0
  -25.2688   -9.5703   22.4778 H   0  0  0  0  0  0
  -23.9984   -7.4592   22.7461 H   0  0  0  0  0  0
  -21.0772   -8.8669   19.8955 H   0  0  0  0  0  0
  -22.3552  -10.9619   19.6182 H   0  0  0  0  0  0
  -21.2013   -7.6137   23.9705 H   0  0  0  0  0  0
  -21.1492   -6.0518   25.9060 H   0  0  0  0  0  0
  -22.0599   -2.7603   23.2867 H   0  0  0  0  0  0
  -22.3859  -11.9832   22.4979 H   0  0  0  0  0  0
  -21.0846  -13.1168   22.2816 H   0  0  0  0  0  0
  -24.6398  -15.8584   20.5858 H   0  0  0  0  0  0
  -26.2565  -15.6347   20.1570 H   0  0  0  0  0  0
  -26.8498  -32.5821   23.2062 H   0  0  0  0  0  0
  -25.1457  -33.9969   25.1357 H   0  0  0  0  0  0
  -23.0241  -31.7249   21.2182 H   0  0  0  0  0  0
  -23.3808  -35.9635   23.3258 H   0  0  0  0  0  0
  -24.3568  -36.8961   22.1993 H   0  0  0  0  0  0
  -23.7115  -37.6544   23.6531 H   0  0  0  0  0  0
  -26.3062  -31.5874   20.5924 H   0  0  0  0  0  0
  -26.9979  -30.8957   22.0145 H   0  0  0  0  0  0
  -27.0820  -28.5862   22.3834 H   0  0  0  0  0  0
  -25.7650  -25.9794   19.3292 H   0  0  0  0  0  0
  -24.3663  -27.7687   18.3833 H   0  0  0  0  0  0
  -24.0769  -30.9624   19.2774 H   0  0  0  0  0  0
  -22.8923  -29.7331   19.6006 H   0  0  0  0  0  0
  -25.1259  -36.2131   25.0820 H   0  0  0  0  0  0
  -21.1800  -28.8424   23.0996 H   0  0  0  0  0  0
  -23.1820  -27.4916   21.3522 H   0  0  0  0  0  0
  -22.2858  -27.2885   20.0638 H   0  0  0  0  0  0
  -21.2226  -24.3234   22.5447 H   0  0  0  0  0  0
  -20.1708  -24.4071   21.2583 H   0  0  0  0  0  0
  -18.2213  -25.3155   22.5143 H   0  0  0  0  0  0
  -19.1408  -25.5260   23.8522 H   0  0  0  0  0  0
  -19.9218  -30.7640   23.4349 H   0  0  0  0  0  0
  -17.6562  -31.3135   24.1556 H   0  0  0  0  0  0
  -15.8554  -29.6087   23.7600 H   0  0  0  0  0  0
  -16.4832  -27.2944   23.1656 H   0  0  0  0  0  0
  -24.5743  -30.7690   25.8281 H   0  0  0  0  0  0
  -24.9403  -32.3287   26.5621 H   0  0  0  0  0  0
  -25.7951  -30.8936   27.0765 H   0  0  0  0  0  0
  -26.3043  -29.7095   24.1658 H   0  0  0  0  0  0
  -27.3802  -29.7118   25.5365 H   0  0  0  0  0  0
  -27.9213  -30.4279   24.0389 H   0  0  0  0  0  0
  -27.2748  -33.3558   26.2959 H   0  0  0  0  0  0
  -28.4236  -32.6945   25.1397 H   0  0  0  0  0  0
  -28.0709  -31.8428   26.6420 H   0  0  0  0  0  0
  -28.2598  -38.0273   24.7634 H   0  0  0  0  0  0
  -28.1080  -36.2846   24.6110 H   0  0  0  0  0  0
  -27.2343  -37.1463   25.8868 H   0  0  0  0  0  0
  -21.3731  -30.4437   21.1685 H   0  0  0  0  0  0
  -26.0132  -38.3090   24.1489 H   0  0  0  0  0  0
  -26.6371  -19.9921   17.2364 H   0  0  0  0  0  0
  -28.0730  -18.0661   17.6201 H   0  0  0  0  0  0
  -25.6407  -20.1186   21.2905 H   0  0  0  0  0  0
  -26.1501  -18.5347   22.5935 H   0  0  0  0  0  0
  -27.8928  -18.8239   22.6179 H   0  0  0  0  0  0
  -27.2309  -17.1766   22.2808 H   0  0  0  0  0  0
  -25.2894  -24.3446   18.0845 H   0  0  0  0  0  0
  -23.8889  -25.2866   18.1769 H   0  0  0  0  0  0
  -24.1629  -24.1650   16.8055 H   0  0  0  0  0  0
  -21.6389  -22.7717   17.6087 H   0  0  0  0  0  0
  -22.4078  -21.3317   18.1972 H   0  0  0  0  0  0
  -22.9508  -22.2023   16.7609 H   0  0  0  0  0  0
  -19.2962  -28.7973   20.0417 H   0  0  0  0  0  0
  -19.7332  -27.7962   18.7168 H   0  0  0  0  0  0
  -20.9439  -28.5831   19.5088 H   0  0  0  0  0  0
  -17.7997  -26.9487   20.7214 H   0  0  0  0  0  0
  -18.3493  -25.2781   20.4665 H   0  0  0  0  0  0
  -18.4285  -26.3904   19.2282 H   0  0  0  0  0  0
  -25.7665  -22.4265   18.7545 H   0  0  0  0  0  0
  -25.1461  -22.3456   20.3299 H   0  0  0  0  0  0
  -20.2933  -25.1327   18.8047 H   0  0  0  0  0  0
  -21.5669  -26.1171   18.7274 H   0  0  0  0  0  0
  -23.7639  -25.4994   23.7674 H   0  0  0  0  0  0
  -24.0375  -27.1202   23.8968 H   0  0  0  0  0  0
  -29.2860  -16.9329   21.1811 H   0  0  0  0  0  0
  1 25  1  0  0  0
  1 30  2  0  0  0
  1 89  1  0  0  0
  2  3  1  0  0  0
  2 25  1  0  0  0
  2 92  1  0  0  0
  2 93  1  0  0  0
  3  4  1  0  0  0
  3 94  1  0  0  0
  3 95  1  0  0  0
  4  5  1  0  0  0
  4 96  1  0  0  0
  4 97  1  0  0  0
  5  6  1  0  0  0
  5 26  1  0  0  0
  5 98  1  0  0  0
  6 25  1  0  0  0
  6 99  1  0  0  0
  6100  1  0  0  0
  7  8  2  0  0  0
  7 26  1  0  0  0
  7 29  1  0  0  0
  8  9  1  0  0  0
  8 22  1  0  0  0
  9 10  1  0  0  0
  9 27  2  0  0  0
 10 11  2  0  0  0
 10 15  1  0  0  0
 11 12  1  0  0  0
 11101  1  0  0  0
 12 13  2  0  0  0
 12102  1  0  0  0
 13 14  1  0  0  0
 13 31  1  0  0  0
 14 15  2  0  0  0
 14103  1  0  0  0
 15104  1  0  0  0
 16 17  2  0  0  0
 16 21  1  0  0  0
 16 31  1  0  0  0
 17 18  1  0  0  0
 17105  1  0  0  0
 18 19  2  0  0  0
 18106  1  0  0  0
 19 20  1  0  0  0
 19 24  1  0  0  0
 20 21  2  0  0  0
 20107  1  0  0  0
 21 23  1  0  0  0
 22 28  1  0  0  0
 22 32  2  0  0  0
 26 27  1  0  0  0
 28108  1  0  0  0
 28109  1  0  0  0
 29110  1  0  0  0
 29111  1  0  0  0
 33 34  1  0  0  0
 33 66  1  0  0  0
 33 70  2  0  0  0
 34 36  1  0  0  0
 34 59  1  0  0  0
 34112  1  0  0  0
 35 44  2  0  0  0
 35 45  1  0  0  0
 35 68  1  0  0  0
 36 56  1  0  0  0
 36113  1  0  0  0
 37 39  1  0  0  0
 37 47  1  0  0  0
 37 66  1  0  0  0
 37114  1  0  0  0
 38 43  2  0  0  0
 38 46  1  0  0  0
 38 47  1  0  0  0
 39 64  1  0  0  0
 39 67  2  0  0  0
 40 52  1  0  0  0
 40 53  2  0  0  0
 40 58  1  0  0  0
 41115  1  0  0  0
 41116  1  0  0  0
 41117  1  0  0  0
 41 48  1  0  0  0
 42 43  1  0  0  0
 42 66  1  0  0  0
 42118  1  0  0  0
 42119  1  0  0  0
 43 44  1  0  0  0
 44120  1  0  0  0
 45 46  2  0  0  0
 45121  1  0  0  0
 46122  1  0  0  0
 47123  1  0  0  0
 47124  1  0  0  0
 48 56  1  0  0  0
 48 65  1  0  0  0
 48125  1  0  0  0
 49 50  1  0  0  0
 49 53  1  0  0  0
 49 64  1  0  0  0
 49126  1  0  0  0
 50 51  1  0  0  0
 50127  1  0  0  0
 50128  1  0  0  0
 51 52  1  0  0  0
 51129  1  0  0  0
 51130  1  0  0  0
 52131  1  0  0  0
 52132  1  0  0  0
 53 54  1  0  0  0
 54 55  2  0  0  0
 54133  1  0  0  0
 55 57  1  0  0  0
 55134  1  0  0  0
 56 69  2  0  0  0
 57 58  2  0  0  0
 57135  1  0  0  0
 58136  1  0  0  0
 59 60  1  0  0  0
 59 61  1  0  0  0
 59 62  1  0  0  0
 60137  1  0  0  0
 60138  1  0  0  0
 60139  1  0  0  0
 61140  1  0  0  0
 61141  1  0  0  0
 61142  1  0  0  0
 62143  1  0  0  0
 62144  1  0  0  0
 62145  1  0  0  0
 63 65  1  0  0  0
 63146  1  0  0  0
 63147  1  0  0  0
 63148  1  0  0  0
 64149  1  0  0  0
 65150  1  0  0  0
 68 86  1  0  0  0
 71 72  2  0  0  0
 71 74  1  0  0  0
 71151  1  0  0  0
 72 76  1  0  0  0
 72152  1  0  0  0
 73 74  2  0  0  0
 73 75  1  0  0  0
 73153  1  0  0  0
 74 84  1  0  0  0
 75 76  2  0  0  0
 75 79  1  0  0  0
 76 89  1  0  0  0
 77 85  1  0  0  0
 77 87  1  0  0  0
 77 90  2  0  0  0
 78 86  1  0  0  0
 78 88  1  0  0  0
 78 91  2  0  0  0
 79154  1  0  0  0
 79155  1  0  0  0
 79156  1  0  0  0
 80157  1  0  0  0
 80158  1  0  0  0
 80159  1  0  0  0
 80 87  1  0  0  0
 81 87  1  0  0  0
 81160  1  0  0  0
 81161  1  0  0  0
 81162  1  0  0  0
 82163  1  0  0  0
 82164  1  0  0  0
 82165  1  0  0  0
 82 88  1  0  0  0
 83 88  1  0  0  0
 83166  1  0  0  0
 83167  1  0  0  0
 83168  1  0  0  0
 84 87  1  0  0  0
 84169  1  0  0  0
 84170  1  0  0  0
 85 88  1  0  0  0
 85171  1  0  0  0
 85172  1  0  0  0
 86173  1  0  0  0
 86174  1  0  0  0
 89175  1  0  0  0
M  ISO  4   1 100  68 101  86 101  89 100
M  END
> <chiral flag>
0

> <version>
0

> <s_m_source_file>
/data/baiqing/PycharmProjects/Reinvent-master-3.2/result/LINK_invent/BTK/process_docking_weight1_custom_product_contain_oxygen_bond_distance_aromatic_linkinvent_7_9_3/rearranged_h_0143.sdf

> <i_m_source_file_index>
71

> <r_mmod_Potential_Energy-OPLS-2005>
14923.7529296875

> <r_mmod_Stretch_Energy-OPLS-2005>
6855.353515625

> <r_mmod_Bend_Energy-OPLS-2005>
1587.73510742188

> <r_mmod_Torsional_Energy-OPLS-2005>
596.202209472656

> <r_mmod_Improper_Torsional_Energy-OPLS-2005>
40.694522857666

> <r_mmod_Van_der_Waal_Energy-OPLS-2005>
2422.34423828125

> <r_mmod_Electrostatic_Energy-OPLS-2005>
-388.638549804688

> <r_mmod_Solvation_Energy-OPLS-2005>
-211.276641845703

> <b_mmod_Minimization_Converged-OPLS-2005>
0

> <r_mmod_RMS_Derivative-OPLS-2005>
55.6220092773438

$$$$
71
                    3D
 Structure written by MMmdl.
161170  0  0  1  0            999 V2000
  -30.6763  -14.5115   20.4970 C   0  0  0  0  0  0
  -30.4224  -12.3034   19.4466 C   0  0  0  0  0  0
  -29.5047  -12.4858   18.2185 C   0  0  0  0  0  0
  -28.0215  -12.3613   18.6222 C   0  0  0  0  0  0
  -27.6615  -13.2119   19.8706 C   0  0  2  0  0  0
  -28.7018  -13.0254   20.9999 C   0  0  0  0  0  0
  -25.2606  -13.8184   20.5665 C   0  0  0  0  0  0
  -24.1849  -13.0456   20.9145 C   0  0  0  0  0  0
  -24.6412  -11.6928   20.8723 C   0  0  0  0  0  0
  -23.9077  -10.4316   21.0402 C   0  0  0  0  0  0
  -24.3637   -9.4234   21.9181 C   0  0  0  0  0  0
  -23.6307   -8.2274   22.0757 C   0  0  0  0  0  0
  -22.4284   -8.0316   21.3550 C   0  0  0  0  0  0
  -21.9911   -9.0298   20.4657 C   0  0  0  0  0  0
  -22.7245  -10.2167   20.3061 C   0  0  0  0  0  0
  -21.6870   -6.0752   22.5276 C   0  0  0  0  0  0
  -21.4030   -6.5646   23.8208 C   0  0  0  0  0  0
  -21.3645   -5.6790   24.9166 C   0  0  0  0  0  0
  -21.6033   -4.3055   24.7207 C   0  0  0  0  0  0
  -21.8831   -3.8156   23.4325 C   0  0  0  0  0  0
  -21.9202   -4.6980   22.3386 C   0  0  0  0  0  0
  -22.7874  -13.5260   21.1818 C   0  0  0  0  0  0
  -22.1677   -4.2171   21.0959 F   0  0  0  0  0  0
  -21.5607   -3.4529   25.7712 F   0  0  0  0  0  0
  -30.0326  -13.3130   20.4438 N   0  0  0  0  0  0
  -26.3039  -12.9356   20.3342 N   0  0  0  0  0  0
  -25.9341  -11.6515   20.5756 N   0  0  0  0  0  0
  -22.0521  -12.8266   22.0370 N   0  0  0  0  0  0
  -25.4327  -15.1904   20.4095 N   0  0  0  0  0  0
  -31.8328  -14.6661   20.0946 O   0  0  0  0  0  0
  -21.6655   -6.8911   21.4243 O   0  0  0  0  0  0
  -22.3565  -14.5581   20.6682 O   0  0  0  0  0  0
  -24.6170  -31.8660   23.2067 C   0  0  0  0  0  0
  -25.9054  -32.4814   23.8376 C   0  0  1  0  0  0
  -27.2392  -27.4141   20.1084 C   0  0  0  0  0  0
  -25.5898  -33.8609   24.2314 N   0  0  0  0  0  0
  -23.4079  -30.4859   21.5478 C   0  0  2  0  0  0
  -24.8573  -28.9452   20.1184 C   0  0  0  0  0  0
  -22.7435  -29.4642   22.4989 C   0  0  0  0  0  0
  -18.0274  -28.1389   22.8498 C   0  0  0  0  0  0
  -24.1485  -36.7298   23.2639 C   0  0  0  0  0  0
  -25.9386  -30.8254   21.3630 C   0  0  0  0  0  0
  -26.0188  -29.4572   20.7114 C   0  0  0  0  0  0
  -27.2165  -28.7017   20.6985 C   0  0  0  0  0  0
  -26.0618  -26.9175   19.5125 C   0  0  0  0  0  0
  -24.8740  -27.6743   19.5157 C   0  0  0  0  0  0
  -23.6194  -29.8143   20.1652 C   0  0  0  0  0  0
  -25.4110  -36.3102   24.0337 C   0  0  1  0  0  0
  -20.5867  -28.3669   23.1320 C   0  0  2  0  0  0
  -20.6759  -26.9403   22.5416 C   0  0  0  0  0  0
  -19.5735  -26.6387   21.5213 C   0  0  0  0  0  0
  -18.1914  -26.7935   22.1627 C   0  0  0  0  0  0
  -19.1525  -28.8848   23.2902 C   0  0  0  0  0  0
  -18.9453  -30.1458   23.8914 C   0  0  0  0  0  0
  -17.6452  -30.6592   24.0572 C   0  0  0  0  0  0
  -25.9042  -34.9469   23.5126 C   0  0  0  0  0  0
  -16.5343  -29.9094   23.6325 C   0  0  0  0  0  0
  -16.7267  -28.6509   23.0349 C   0  0  0  0  0  0
  -26.4477  -31.6605   25.0716 C   0  0  0  0  0  0
  -25.3733  -31.3729   26.1466 C   0  0  0  0  0  0
  -27.0310  -30.3045   24.6104 C   0  0  0  0  0  0
  -27.6063  -32.4325   25.7460 C   0  0  0  0  0  0
  -27.5581  -37.1804   24.8468 C   0  0  0  0  0  0
  -21.4158  -29.3022   22.3727 N   0  0  0  0  0  0
  -26.4294  -37.3788   23.9406 N   0  0  0  0  0  0
  -24.6728  -31.0739   22.0978 N   0  0  0  0  0  0
  -23.4191  -28.8193   23.3052 O   0  0  0  0  0  0
  -28.3843  -26.6443   20.0948 O   0  0  0  0  0  0
  -26.5605  -34.8932   22.4693 O   0  0  0  0  0  0
  -23.5356  -32.1428   23.7438 O   0  0  0  0  0  0
  -29.6863  -17.8972   17.8877 C   0  0  0  0  0  0
  -29.8273  -16.7313   18.6541 C   0  0  0  0  0  0
  -29.6819  -18.0704   20.6800 C   0  0  0  0  0  0
  -29.5562  -19.1636   18.4942 C   0  0  0  0  0  0
  -29.5582  -19.2709   19.9165 C   0  0  0  0  0  0
  -29.8326  -16.7943   20.0647 C   0  0  0  0  0  0
  -28.6572  -24.1418   20.1066 C   0  0  0  0  0  0
  -30.5020  -22.6409   21.1256 C   0  0  0  0  0  0
  -30.7996  -21.2095   20.6535 C   0  0  0  0  0  0
  -28.4708  -21.5165   20.3767 C   0  0  0  0  0  0
  -28.9862  -22.8703   20.9435 C   0  0  2  0  0  0
  -29.4246  -20.3526   17.5529 C   0  0  0  0  0  0
  -28.3077  -25.4350   20.8893 C   0  0  0  0  0  0
  -29.5228  -20.5130   20.6064 N   0  0  0  0  0  0
  -29.9134  -15.5784   20.8287 N   0  0  0  0  0  0
  -28.6750  -24.1213   18.8718 O   0  0  0  0  0  0
  -31.4713  -12.3851   19.1538 H   0  0  0  0  0  0
  -30.3071  -11.3026   19.8675 H   0  0  0  0  0  0
  -29.7480  -11.7419   17.4590 H   0  0  0  0  0  0
  -29.6835  -13.4591   17.7595 H   0  0  0  0  0  0
  -27.8205  -11.3078   18.8201 H   0  0  0  0  0  0
  -27.3831  -12.6378   17.7818 H   0  0  0  0  0  0
  -27.6952  -14.2543   19.5546 H   0  0  0  0  0  0
  -28.6721  -12.0036   21.3826 H   0  0  0  0  0  0
  -28.4707  -13.6672   21.8508 H   0  0  0  0  0  0
  -25.2793   -9.5711   22.4738 H   0  0  0  0  0  0
  -24.0023   -7.4664   22.7474 H   0  0  0  0  0  0
  -21.0837   -8.8837   19.8962 H   0  0  0  0  0  0
  -22.3722  -10.9721   19.6173 H   0  0  0  0  0  0
  -21.2049   -7.6157   23.9718 H   0  0  0  0  0  0
  -21.1434   -6.0514   25.9061 H   0  0  0  0  0  0
  -22.0619   -2.7622   23.2817 H   0  0  0  0  0  0
  -22.4120  -11.9906   22.4734 H   0  0  0  0  0  0
  -21.1159  -13.1338   22.2610 H   0  0  0  0  0  0
  -24.6672  -15.8469   20.5168 H   0  0  0  0  0  0
  -26.2894  -15.6323   20.1001 H   0  0  0  0  0  0
  -26.7127  -32.5516   23.1138 H   0  0  0  0  0  0
  -25.0054  -33.9767   25.0466 H   0  0  0  0  0  0
  -22.6957  -31.3012   21.4038 H   0  0  0  0  0  0
  -23.3743  -35.9633   23.3332 H   0  0  0  0  0  0
  -24.3579  -36.8879   22.2045 H   0  0  0  0  0  0
  -23.7240  -37.6513   23.6640 H   0  0  0  0  0  0
  -26.0520  -31.5907   20.5942 H   0  0  0  0  0  0
  -26.8244  -30.8799   21.9838 H   0  0  0  0  0  0
  -28.1152  -29.0935   21.1538 H   0  0  0  0  0  0
  -26.0654  -25.9416   19.0474 H   0  0  0  0  0  0
  -23.9820  -27.2696   19.0575 H   0  0  0  0  0  0
  -23.7328  -30.5850   19.4021 H   0  0  0  0  0  0
  -22.7427  -29.2349   19.8699 H   0  0  0  0  0  0
  -25.1285  -36.1967   25.0826 H   0  0  0  0  0  0
  -20.9954  -28.3233   24.1444 H   0  0  0  0  0  0
  -20.5644  -26.2282   23.3604 H   0  0  0  0  0  0
  -21.6640  -26.7431   22.1226 H   0  0  0  0  0  0
  -19.6889  -25.6301   21.1234 H   0  0  0  0  0  0
  -19.6666  -27.3203   20.6748 H   0  0  0  0  0  0
  -17.4179  -26.6687   21.4031 H   0  0  0  0  0  0
  -18.0304  -26.0077   22.9018 H   0  0  0  0  0  0
  -19.7929  -30.7269   24.2284 H   0  0  0  0  0  0
  -17.5008  -31.6270   24.5175 H   0  0  0  0  0  0
  -15.5350  -30.2992   23.7653 H   0  0  0  0  0  0
  -15.8665  -28.0831   22.7059 H   0  0  0  0  0  0
  -24.5877  -30.7114   25.7804 H   0  0  0  0  0  0
  -24.8954  -32.2891   26.4946 H   0  0  0  0  0  0
  -25.8069  -30.8863   27.0213 H   0  0  0  0  0  0
  -26.2863  -29.6794   24.1167 H   0  0  0  0  0  0
  -27.4095  -29.7300   25.4571 H   0  0  0  0  0  0
  -27.8689  -30.4373   23.9255 H   0  0  0  0  0  0
  -27.2713  -33.3626   26.2070 H   0  0  0  0  0  0
  -28.3850  -32.6891   25.0261 H   0  0  0  0  0  0
  -28.0769  -31.8427   26.5341 H   0  0  0  0  0  0
  -28.2625  -38.0078   24.7507 H   0  0  0  0  0  0
  -28.1054  -36.2614   24.6312 H   0  0  0  0  0  0
  -27.2305  -37.1486   25.8874 H   0  0  0  0  0  0
  -20.9327  -29.8760   21.6958 H   0  0  0  0  0  0
  -26.0185  -38.2868   24.1397 H   0  0  0  0  0  0
  -29.6825  -17.8088   16.8097 H   0  0  0  0  0  0
  -29.9192  -15.7872   18.1372 H   0  0  0  0  0  0
  -29.6798  -18.1350   21.7588 H   0  0  0  0  0  0
  -31.1174  -23.3593   20.5803 H   0  0  0  0  0  0
  -30.7592  -22.7431   22.1811 H   0  0  0  0  0  0
  -31.4873  -20.7089   21.3370 H   0  0  0  0  0  0
  -31.2758  -21.2191   19.6719 H   0  0  0  0  0  0
  -28.1864  -21.6113   19.3330 H   0  0  0  0  0  0
  -27.5689  -21.2173   20.9113 H   0  0  0  0  0  0
  -28.5486  -23.0156   21.9314 H   0  0  0  0  0  0
  -29.8476  -20.1226   16.5744 H   0  0  0  0  0  0
  -29.9368  -21.2407   17.9174 H   0  0  0  0  0  0
  -28.3718  -20.5923   17.4027 H   0  0  0  0  0  0
  -29.0009  -25.5264   21.7249 H   0  0  0  0  0  0
  -27.3142  -25.3133   21.3213 H   0  0  0  0  0  0
  -29.0898  -15.3556   21.3673 H   0  0  0  0  0  0
  1 25  1  0  0  0
  1 30  2  0  0  0
  1 85  1  0  0  0
  2  3  1  0  0  0
  2 25  1  0  0  0
  2 87  1  0  0  0
  2 88  1  0  0  0
  3  4  1  0  0  0
  3 89  1  0  0  0
  3 90  1  0  0  0
  4  5  1  0  0  0
  4 91  1  0  0  0
  4 92  1  0  0  0
  5  6  1  0  0  0
  5 26  1  0  0  0
  5 93  1  0  0  0
  6 25  1  0  0  0
  6 94  1  0  0  0
  6 95  1  0  0  0
  7  8  2  0  0  0
  7 26  1  0  0  0
  7 29  1  0  0  0
  8  9  1  0  0  0
  8 22  1  0  0  0
  9 10  1  0  0  0
  9 27  2  0  0  0
 10 11  2  0  0  0
 10 15  1  0  0  0
 11 12  1  0  0  0
 11 96  1  0  0  0
 12 13  2  0  0  0
 12 97  1  0  0  0
 13 14  1  0  0  0
 13 31  1  0  0  0
 14 15  2  0  0  0
 14 98  1  0  0  0
 15 99  1  0  0  0
 16 17  2  0  0  0
 16 21  1  0  0  0
 16 31  1  0  0  0
 17 18  1  0  0  0
 17100  1  0  0  0
 18 19  2  0  0  0
 18101  1  0  0  0
 19 20  1  0  0  0
 19 24  1  0  0  0
 20 21  2  0  0  0
 20102  1  0  0  0
 21 23  1  0  0  0
 22 28  1  0  0  0
 22 32  2  0  0  0
 26 27  1  0  0  0
 28103  1  0  0  0
 28104  1  0  0  0
 29105  1  0  0  0
 29106  1  0  0  0
 33 34  1  0  0  0
 33 66  1  0  0  0
 33 70  2  0  0  0
 34 36  1  0  0  0
 34 59  1  0  0  0
 34107  1  0  0  0
 35 44  2  0  0  0
 35 45  1  0  0  0
 35 68  1  0  0  0
 36 56  1  0  0  0
 36108  1  0  0  0
 37 39  1  0  0  0
 37 47  1  0  0  0
 37 66  1  0  0  0
 37109  1  0  0  0
 38 43  2  0  0  0
 38 46  1  0  0  0
 38 47  1  0  0  0
 39 64  1  0  0  0
 39 67  2  0  0  0
 40 52  1  0  0  0
 40 53  2  0  0  0
 40 58  1  0  0  0
 41110  1  0  0  0
 41111  1  0  0  0
 41112  1  0  0  0
 41 48  1  0  0  0
 42 43  1  0  0  0
 42 66  1  0  0  0
 42113  1  0  0  0
 42114  1  0  0  0
 43 44  1  0  0  0
 44115  1  0  0  0
 45 46  2  0  0  0
 45116  1  0  0  0
 46117  1  0  0  0
 47118  1  0  0  0
 47119  1  0  0  0
 48 56  1  0  0  0
 48 65  1  0  0  0
 48120  1  0  0  0
 49 50  1  0  0  0
 49 53  1  0  0  0
 49 64  1  0  0  0
 49121  1  0  0  0
 50 51  1  0  0  0
 50122  1  0  0  0
 50123  1  0  0  0
 51 52  1  0  0  0
 51124  1  0  0  0
 51125  1  0  0  0
 52126  1  0  0  0
 52127  1  0  0  0
 53 54  1  0  0  0
 54 55  2  0  0  0
 54128  1  0  0  0
 55 57  1  0  0  0
 55129  1  0  0  0
 56 69  2  0  0  0
 57 58  2  0  0  0
 57130  1  0  0  0
 58131  1  0  0  0
 59 60  1  0  0  0
 59 61  1  0  0  0
 59 62  1  0  0  0
 60132  1  0  0  0
 60133  1  0  0  0
 60134  1  0  0  0
 61135  1  0  0  0
 61136  1  0  0  0
 61137  1  0  0  0
 62138  1  0  0  0
 62139  1  0  0  0
 62140  1  0  0  0
 63 65  1  0  0  0
 63141  1  0  0  0
 63142  1  0  0  0
 63143  1  0  0  0
 64144  1  0  0  0
 65145  1  0  0  0
 68 83  1  0  0  0
 71 72  2  0  0  0
 71 74  1  0  0  0
 71146  1  0  0  0
 72 76  1  0  0  0
 72147  1  0  0  0
 73 75  1  0  0  0
 73 76  2  0  0  0
 73148  1  0  0  0
 74 75  2  0  0  0
 74 82  1  0  0  0
 75 84  1  0  0  0
 76 85  1  0  0  0
 77 83  1  0  0  0
 77 86  2  0  0  0
 77 81  1  0  0  0
 78 79  1  0  0  0
 78 81  1  0  0  0
 78149  1  0  0  0
 78150  1  0  0  0
 79 84  1  0  0  0
 79151  1  0  0  0
 79152  1  0  0  0
 80 81  1  0  0  0
 80 84  1  0  0  0
 80153  1  0  0  0
 80154  1  0  0  0
 81155  1  0  0  0
 82156  1  0  0  0
 82157  1  0  0  0
 82158  1  0  0  0
 83159  1  0  0  0
 83160  1  0  0  0
 85161  1  0  0  0
M  ISO  4   1 100  68 101  83 101  85 100
M  END
> <chiral flag>
0

> <version>
0

> <s_m_source_file>
/data/baiqing/PycharmProjects/Reinvent-master-3.2/result/LINK_invent/BTK/process_docking_weight1_custom_product_contain_oxygen_bond_distance_aromatic_linkinvent_7_9_3/rearranged_h_0143.sdf

> <i_m_source_file_index>
72

> <r_mmod_Potential_Energy-OPLS-2005>
122.09162902832

> <r_mmod_Stretch_Energy-OPLS-2005>
46.2928810119629

> <r_mmod_Bend_Energy-OPLS-2005>
123.3720703125

> <r_mmod_Torsional_Energy-OPLS-2005>
353.672149658203

> <r_mmod_Improper_Torsional_Energy-OPLS-2005>
11.0477981567383

> <r_mmod_Van_der_Waal_Energy-OPLS-2005>
143.167251586914

> <r_mmod_Electrostatic_Energy-OPLS-2005>
-334.4912109375

> <r_mmod_Solvation_Energy-OPLS-2005>
-239.565277099609

> <b_mmod_Minimization_Converged-OPLS-2005>
0

> <r_mmod_RMS_Derivative-OPLS-2005>
2.05874991416931

$$$$
72
                    3D
 Structure written by MMmdl.
175183  0  0  1  0            999 V2000
  -30.7462  -14.4241   20.5690 C   0  0  0  0  0  0
  -30.4199  -12.2947   19.3871 C   0  0  0  0  0  0
  -29.4792  -12.5149   18.1828 C   0  0  0  0  0  0
  -27.9980  -12.3990   18.5965 C   0  0  0  0  0  0
  -27.6656  -13.2148   19.8763 C   0  0  2  0  0  0
  -28.7176  -12.9687   20.9812 C   0  0  0  0  0  0
  -25.2585  -13.8263   20.5561 C   0  0  0  0  0  0
  -24.1827  -13.0515   20.9017 C   0  0  0  0  0  0
  -24.6362  -11.6985   20.8696 C   0  0  0  0  0  0
  -23.8957  -10.4391   21.0373 C   0  0  0  0  0  0
  -24.3563   -9.4328   21.9178 C   0  0  0  0  0  0
  -23.6281   -8.2330   22.0759 C   0  0  0  0  0  0
  -22.4274   -8.0313   21.3513 C   0  0  0  0  0  0
  -21.9844   -9.0270   20.4650 C   0  0  0  0  0  0
  -22.7123  -10.2198   20.3047 C   0  0  0  0  0  0
  -21.6910   -6.0706   22.5234 C   0  0  0  0  0  0
  -21.4050   -6.5607   23.8165 C   0  0  0  0  0  0
  -21.3634   -5.6761   24.9119 C   0  0  0  0  0  0
  -21.6040   -4.3014   24.7161 C   0  0  0  0  0  0
  -21.8864   -3.8108   23.4303 C   0  0  0  0  0  0
  -21.9240   -4.6938   22.3357 C   0  0  0  0  0  0
  -22.7871  -13.5324   21.1653 C   0  0  0  0  0  0
  -22.1717   -4.2112   21.0947 F   0  0  0  0  0  0
  -21.5579   -3.4494   25.7683 F   0  0  0  0  0  0
  -30.0536  -13.2615   20.4307 N   0  0  0  0  0  0
  -26.3047  -12.9403   20.3427 N   0  0  0  0  0  0
  -25.9313  -11.6553   20.5777 N   0  0  0  0  0  0
  -22.0541  -12.8425   22.0341 N   0  0  0  0  0  0
  -25.4313  -15.1951   20.3831 N   0  0  0  0  0  0
  -31.8774  -14.6024   20.1038 O   0  0  0  0  0  0
  -21.6704   -6.8861   21.4208 O   0  0  0  0  0  0
  -22.3541  -14.5570   20.6422 O   0  0  0  0  0  0
  -24.6090  -31.8713   23.2115 C   0  0  0  0  0  0
  -25.9008  -32.4850   23.8414 C   0  0  1  0  0  0
  -27.2405  -27.4813   20.0987 C   0  0  0  0  0  0
  -25.5882  -33.8650   24.2354 N   0  0  0  0  0  0
  -23.3944  -30.4926   21.5505 C   0  0  2  0  0  0
  -24.8463  -28.9670   20.1069 C   0  0  0  0  0  0
  -22.7366  -29.4673   22.5009 C   0  0  0  0  0  0
  -18.0264  -28.1370   22.8475 C   0  0  0  0  0  0
  -24.1480  -36.7316   23.2617 C   0  0  0  0  0  0
  -25.9154  -30.8556   21.3527 C   0  0  0  0  0  0
  -25.9994  -29.4922   20.7037 C   0  0  0  0  0  0
  -27.2018  -28.7560   20.6991 C   0  0  0  0  0  0
  -26.0792  -26.9611   19.4928 C   0  0  0  0  0  0
  -24.8798  -27.6987   19.4989 C   0  0  0  0  0  0
  -23.6009  -29.8254   20.1635 C   0  0  0  0  0  0
  -25.4098  -36.3135   24.0337 C   0  0  1  0  0  0
  -20.5842  -28.3659   23.1346 C   0  0  2  0  0  0
  -20.6761  -26.9404   22.5426 C   0  0  0  0  0  0
  -19.5762  -26.6389   21.5198 C   0  0  0  0  0  0
  -18.1929  -26.7921   22.1597 C   0  0  0  0  0  0
  -19.1501  -28.8834   23.2907 C   0  0  0  0  0  0
  -18.9443  -30.1424   23.8935 C   0  0  0  0  0  0
  -17.6446  -30.6574   24.0588 C   0  0  0  0  0  0
  -25.9028  -34.9494   23.5142 C   0  0  0  0  0  0
  -16.5342  -29.9083   23.6306 C   0  0  0  0  0  0
  -16.7260  -28.6500   23.0336 C   0  0  0  0  0  0
  -26.4454  -31.6584   25.0684 C   0  0  0  0  0  0
  -25.3754  -31.3695   26.1463 C   0  0  0  0  0  0
  -27.0224  -30.3028   24.5980 C   0  0  0  0  0  0
  -27.6077  -32.4256   25.7403 C   0  0  0  0  0  0
  -27.5609  -37.1776   24.8432 C   0  0  0  0  0  0
  -21.4100  -29.3008   22.3720 N   0  0  0  0  0  0
  -26.4276  -37.3834   23.9433 N   0  0  0  0  0  0
  -24.6576  -31.0867   22.0979 N   0  0  0  0  0  0
  -23.4169  -28.8233   23.3043 O   0  0  0  0  0  0
  -28.3675  -26.7093   20.1684 O   0  0  0  0  0  0
  -26.5606  -34.8947   22.4710 O   0  0  0  0  0  0
  -23.5300  -32.1455   23.7549 O   0  0  0  0  0  0
  -29.9106  -18.7400   19.5201 C   0  0  0  0  0  0
  -29.9202  -17.3100   19.4972 C   0  0  0  0  0  0
  -30.1312  -19.2836   20.7622 C   0  0  0  0  0  0
  -30.1180  -16.7389   20.7441 C   0  0  0  0  0  0
  -29.7492  -16.5921   18.2355 C   0  0  0  0  0  0
  -29.6490  -25.1445   21.5821 C   0  0  0  0  0  0
  -28.3982  -16.7720   17.5645 C   0  0  0  0  0  0
  -30.5155  -21.6173   19.8823 C   0  0  0  0  0  0
  -31.0168  -23.4626   22.8925 C   0  0  0  0  0  0
  -28.9710  -24.4355   23.8978 C   0  0  0  0  0  0
  -27.6632  -20.6004   21.3926 C   0  0  0  0  0  0
  -29.0635  -20.7901   23.4426 C   0  0  0  0  0  0
  -28.3829  -26.0037   21.4142 C   0  0  0  0  0  0
  -28.6561  -22.8190   21.9111 C   0  0  0  0  0  0
  -30.1994  -20.7584   21.1379 C   0  0  1  0  0  0
  -29.5767  -23.9310   22.5608 C   0  0  0  0  0  0
  -28.9455  -21.2661   21.9700 C   0  0  0  0  0  0
  -30.0726  -15.4318   21.1358 N   0  0  0  0  0  0
  -30.5961  -15.8848   17.6877 O   0  0  0  0  0  0
  -30.6804  -25.4137   20.9569 O   0  0  0  0  0  0
  -30.3326  -18.0025   21.9408 S   0  0  0  0  0  0
  -31.4552  -12.4026   19.0604 H   0  0  0  0  0  0
  -30.3292  -11.2787   19.7703 H   0  0  0  0  0  0
  -29.7065  -11.8019   17.3884 H   0  0  0  0  0  0
  -29.6483  -13.4950   17.7442 H   0  0  0  0  0  0
  -27.7735  -11.3457   18.7505 H   0  0  0  0  0  0
  -27.3636  -12.7160   17.7659 H   0  0  0  0  0  0
  -27.7185  -14.2689   19.6097 H   0  0  0  0  0  0
  -28.6807  -11.9223   21.2872 H   0  0  0  0  0  0
  -28.5007  -13.5528   21.8750 H   0  0  0  0  0  0
  -25.2755   -9.5869   22.4677 H   0  0  0  0  0  0
  -24.0057   -7.4756   22.7470 H   0  0  0  0  0  0
  -21.0764   -8.8728   19.8982 H   0  0  0  0  0  0
  -22.3542  -10.9688   19.6110 H   0  0  0  0  0  0
  -21.2082   -7.6125   23.9650 H   0  0  0  0  0  0
  -21.1369   -6.0492   25.9017 H   0  0  0  0  0  0
  -22.0662   -2.7556   23.2839 H   0  0  0  0  0  0
  -22.4184  -12.0169   22.4892 H   0  0  0  0  0  0
  -21.1159  -13.1529   22.2432 H   0  0  0  0  0  0
  -24.6460  -15.8268   20.2539 H   0  0  0  0  0  0
  -26.3143  -15.6214   20.1374 H   0  0  0  0  0  0
  -26.7084  -32.5607   23.1194 H   0  0  0  0  0  0
  -25.0009  -33.9827   25.0492 H   0  0  0  0  0  0
  -22.6790  -31.3055   21.4152 H   0  0  0  0  0  0
  -23.3772  -35.9612   23.3224 H   0  0  0  0  0  0
  -24.3607  -36.8982   22.2046 H   0  0  0  0  0  0
  -23.7182  -37.6482   23.6664 H   0  0  0  0  0  0
  -26.0078  -31.6212   20.5822 H   0  0  0  0  0  0
  -26.8092  -30.9237   21.9585 H   0  0  0  0  0  0
  -28.0906  -29.1473   21.1753 H   0  0  0  0  0  0
  -26.0990  -25.9792   19.0430 H   0  0  0  0  0  0
  -23.9924  -27.2886   19.0368 H   0  0  0  0  0  0
  -23.6968  -30.6044   19.4062 H   0  0  0  0  0  0
  -22.7258  -29.2399   19.8760 H   0  0  0  0  0  0
  -25.1249  -36.1978   25.0827 H   0  0  0  0  0  0
  -20.9949  -28.3239   24.1469 H   0  0  0  0  0  0
  -20.5653  -26.2264   23.3599 H   0  0  0  0  0  0
  -21.6648  -26.7433   22.1245 H   0  0  0  0  0  0
  -19.6938  -25.6314   21.1180 H   0  0  0  0  0  0
  -19.6721  -27.3236   20.6764 H   0  0  0  0  0  0
  -17.4204  -26.6683   21.3998 H   0  0  0  0  0  0
  -18.0333  -26.0047   22.8980 H   0  0  0  0  0  0
  -19.7929  -30.7219   24.2350 H   0  0  0  0  0  0
  -17.5010  -31.6264   24.5176 H   0  0  0  0  0  0
  -15.5352  -30.3014   23.7609 H   0  0  0  0  0  0
  -15.8658  -28.0835   22.7035 H   0  0  0  0  0  0
  -24.5928  -30.7023   25.7824 H   0  0  0  0  0  0
  -24.8946  -32.2857   26.4914 H   0  0  0  0  0  0
  -25.8144  -30.8876   27.0212 H   0  0  0  0  0  0
  -26.2717  -29.6816   24.1079 H   0  0  0  0  0  0
  -27.4056  -29.7229   25.4383 H   0  0  0  0  0  0
  -27.8534  -30.4336   23.9043 H   0  0  0  0  0  0
  -27.2761  -33.3564   26.2024 H   0  0  0  0  0  0
  -28.3863  -32.6797   25.0188 H   0  0  0  0  0  0
  -28.0771  -31.8330   26.5268 H   0  0  0  0  0  0
  -28.2544  -38.0159   24.7629 H   0  0  0  0  0  0
  -28.1184  -36.2709   24.6032 H   0  0  0  0  0  0
  -27.2371  -37.1157   25.8838 H   0  0  0  0  0  0
  -20.9227  -29.8726   21.6954 H   0  0  0  0  0  0
  -26.0153  -38.2872   24.1574 H   0  0  0  0  0  0
  -29.7449  -19.3128   18.6192 H   0  0  0  0  0  0
  -27.6343  -17.0079   18.3067 H   0  0  0  0  0  0
  -28.1211  -15.8534   17.0478 H   0  0  0  0  0  0
  -28.4523  -17.5812   16.8398 H   0  0  0  0  0  0
  -31.3459  -21.1995   19.3114 H   0  0  0  0  0  0
  -30.8311  -22.6274   20.1326 H   0  0  0  0  0  0
  -29.6579  -21.6997   19.2126 H   0  0  0  0  0  0
  -31.6048  -24.2801   23.3119 H   0  0  0  0  0  0
  -31.5614  -23.1132   22.0222 H   0  0  0  0  0  0
  -31.0379  -22.6756   23.6410 H   0  0  0  0  0  0
  -29.5428  -25.2746   24.3025 H   0  0  0  0  0  0
  -28.9649  -23.6604   24.6640 H   0  0  0  0  0  0
  -27.9413  -24.7805   23.7918 H   0  0  0  0  0  0
  -26.7566  -20.9265   21.9043 H   0  0  0  0  0  0
  -27.6779  -19.5123   21.4766 H   0  0  0  0  0  0
  -27.5423  -20.8381   20.3357 H   0  0  0  0  0  0
  -28.4922  -21.4166   24.1263 H   0  0  0  0  0  0
  -30.0922  -20.7706   23.7998 H   0  0  0  0  0  0
  -28.6922  -19.7730   23.5689 H   0  0  0  0  0  0
  -28.3461  -26.7220   22.2346 H   0  0  0  0  0  0
  -27.4970  -25.3729   21.4931 H   0  0  0  0  0  0
  -28.4726  -23.0676   20.8643 H   0  0  0  0  0  0
  -27.6694  -22.9599   22.3600 H   0  0  0  0  0  0
  -31.0835  -20.8731   21.7673 H   0  0  0  0  0  0
  -29.2896  -15.1688   21.7174 H   0  0  0  0  0  0
  1 25  1  0  0  0
  1 30  2  0  0  0
  1 88  1  0  0  0
  2  3  1  0  0  0
  2 25  1  0  0  0
  2 92  1  0  0  0
  2 93  1  0  0  0
  3  4  1  0  0  0
  3 94  1  0  0  0
  3 95  1  0  0  0
  4  5  1  0  0  0
  4 96  1  0  0  0
  4 97  1  0  0  0
  5  6  1  0  0  0
  5 26  1  0  0  0
  5 98  1  0  0  0
  6 25  1  0  0  0
  6 99  1  0  0  0
  6100  1  0  0  0
  7  8  2  0  0  0
  7 26  1  0  0  0
  7 29  1  0  0  0
  8  9  1  0  0  0
  8 22  1  0  0  0
  9 10  1  0  0  0
  9 27  2  0  0  0
 10 11  2  0  0  0
 10 15  1  0  0  0
 11 12  1  0  0  0
 11101  1  0  0  0
 12 13  2  0  0  0
 12102  1  0  0  0
 13 14  1  0  0  0
 13 31  1  0  0  0
 14 15  2  0  0  0
 14103  1  0  0  0
 15104  1  0  0  0
 16 17  2  0  0  0
 16 21  1  0  0  0
 16 31  1  0  0  0
 17 18  1  0  0  0
 17105  1  0  0  0
 18 19  2  0  0  0
 18106  1  0  0  0
 19 20  1  0  0  0
 19 24  1  0  0  0
 20 21  2  0  0  0
 20107  1  0  0  0
 21 23  1  0  0  0
 22 28  1  0  0  0
 22 32  2  0  0  0
 26 27  1  0  0  0
 28108  1  0  0  0
 28109  1  0  0  0
 29110  1  0  0  0
 29111  1  0  0  0
 33 34  1  0  0  0
 33 66  1  0  0  0
 33 70  2  0  0  0
 34 36  1  0  0  0
 34 59  1  0  0  0
 34112  1  0  0  0
 35 44  2  0  0  0
 35 45  1  0  0  0
 35 68  1  0  0  0
 36 56  1  0  0  0
 36113  1  0  0  0
 37 39  1  0  0  0
 37 47  1  0  0  0
 37 66  1  0  0  0
 37114  1  0  0  0
 38 43  2  0  0  0
 38 46  1  0  0  0
 38 47  1  0  0  0
 39 64  1  0  0  0
 39 67  2  0  0  0
 40 52  1  0  0  0
 40 53  2  0  0  0
 40 58  1  0  0  0
 41115  1  0  0  0
 41116  1  0  0  0
 41117  1  0  0  0
 41 48  1  0  0  0
 42 43  1  0  0  0
 42 66  1  0  0  0
 42118  1  0  0  0
 42119  1  0  0  0
 43 44  1  0  0  0
 44120  1  0  0  0
 45 46  2  0  0  0
 45121  1  0  0  0
 46122  1  0  0  0
 47123  1  0  0  0
 47124  1  0  0  0
 48 56  1  0  0  0
 48 65  1  0  0  0
 48125  1  0  0  0
 49 50  1  0  0  0
 49 53  1  0  0  0
 49 64  1  0  0  0
 49126  1  0  0  0
 50 51  1  0  0  0
 50127  1  0  0  0
 50128  1  0  0  0
 51 52  1  0  0  0
 51129  1  0  0  0
 51130  1  0  0  0
 52131  1  0  0  0
 52132  1  0  0  0
 53 54  1  0  0  0
 54 55  2  0  0  0
 54133  1  0  0  0
 55 57  1  0  0  0
 55134  1  0  0  0
 56 69  2  0  0  0
 57 58  2  0  0  0
 57135  1  0  0  0
 58136  1  0  0  0
 59 60  1  0  0  0
 59 61  1  0  0  0
 59 62  1  0  0  0
 60137  1  0  0  0
 60138  1  0  0  0
 60139  1  0  0  0
 61140  1  0  0  0
 61141  1  0  0  0
 61142  1  0  0  0
 62143  1  0  0  0
 62144  1  0  0  0
 62145  1  0  0  0
 63 65  1  0  0  0
 63146  1  0  0  0
 63147  1  0  0  0
 63148  1  0  0  0
 64149  1  0  0  0
 65150  1  0  0  0
 68 83  1  0  0  0
 71 72  1  0  0  0
 71 73  2  0  0  0
 71151  1  0  0  0
 72 74  2  0  0  0
 72 75  1  0  0  0
 73 85  1  0  0  0
 73 91  1  0  0  0
 74 88  1  0  0  0
 74 91  1  0  0  0
 75 77  1  0  0  0
 75 89  2  0  0  0
 76 83  1  0  0  0
 76 86  1  0  0  0
 76 90  2  0  0  0
 77152  1  0  0  0
 77153  1  0  0  0
 77154  1  0  0  0
 78155  1  0  0  0
 78156  1  0  0  0
 78157  1  0  0  0
 78 85  1  0  0  0
 79158  1  0  0  0
 79159  1  0  0  0
 79160  1  0  0  0
 79 86  1  0  0  0
 80 86  1  0  0  0
 80161  1  0  0  0
 80162  1  0  0  0
 80163  1  0  0  0
 81164  1  0  0  0
 81165  1  0  0  0
 81166  1  0  0  0
 81 87  1  0  0  0
 82 87  1  0  0  0
 82167  1  0  0  0
 82168  1  0  0  0
 82169  1  0  0  0
 83170  1  0  0  0
 83171  1  0  0  0
 84 86  1  0  0  0
 84 87  1  0  0  0
 84172  1  0  0  0
 84173  1  0  0  0
 85 87  1  0  0  0
 85174  1  0  0  0
 88175  1  0  0  0
M  ISO  4   1 100  68 101  83 101  88 100
M  END
> <chiral flag>
0

> <version>
0

> <s_m_source_file>
/data/baiqing/PycharmProjects/Reinvent-master-3.2/result/LINK_invent/BTK/process_docking_weight1_custom_product_contain_oxygen_bond_distance_aromatic_linkinvent_7_9_3/rearranged_h_0143.sdf

> <i_m_source_file_index>
73

> <r_mmod_Potential_Energy-OPLS-2005>
134.09358215332

> <r_mmod_Stretch_Energy-OPLS-2005>
49.194953918457

> <r_mmod_Bend_Energy-OPLS-2005>
128.622695922852

> <r_mmod_Torsional_Energy-OPLS-2005>
346.368530273438

> <r_mmod_Improper_Torsional_Energy-OPLS-2005>
4.7581844329834

> <r_mmod_Van_der_Waal_Energy-OPLS-2005>
138.01530456543

> <r_mmod_Electrostatic_Energy-OPLS-2005>
-312.431640625

> <r_mmod_Solvation_Energy-OPLS-2005>
-232.868392944336

> <b_mmod_Minimization_Converged-OPLS-2005>
0

> <r_mmod_RMS_Derivative-OPLS-2005>
7.06707286834717

$$$$
73
                    3D
 Structure written by MMmdl.
154163  0  0  1  0            999 V2000
  -30.5947  -14.9903   20.4248 C   0  0  0  0  0  0
  -30.4205  -12.6202   19.5107 C   0  0  0  0  0  0
  -29.5143  -12.5321   18.2636 C   0  0  0  0  0  0
  -28.0527  -12.3119   18.6866 C   0  0  0  0  0  0
  -27.6219  -13.2618   19.8348 C   0  0  2  0  0  0
  -28.6640  -13.3475   20.9721 C   0  0  0  0  0  0
  -25.2424  -13.8247   20.5745 C   0  0  0  0  0  0
  -24.1755  -13.0448   20.9245 C   0  0  0  0  0  0
  -24.6392  -11.6940   20.8767 C   0  0  0  0  0  0
  -23.9086  -10.4299   21.0409 C   0  0  0  0  0  0
  -24.3632   -9.4211   21.9185 C   0  0  0  0  0  0
  -23.6304   -8.2247   22.0754 C   0  0  0  0  0  0
  -22.4285   -8.0284   21.3544 C   0  0  0  0  0  0
  -21.9926   -9.0259   20.4645 C   0  0  0  0  0  0
  -22.7258  -10.2137   20.3056 C   0  0  0  0  0  0
  -21.6856   -6.0738   22.5278 C   0  0  0  0  0  0
  -21.4016   -6.5641   23.8212 C   0  0  0  0  0  0
  -21.3660   -5.6793   24.9173 C   0  0  0  0  0  0
  -21.6044   -4.3056   24.7224 C   0  0  0  0  0  0
  -21.8819   -3.8148   23.4345 C   0  0  0  0  0  0
  -21.9194   -4.6965   22.3402 C   0  0  0  0  0  0
  -22.7772  -13.5204   21.1890 C   0  0  0  0  0  0
  -22.1662   -4.2151   21.0979 F   0  0  0  0  0  0
  -21.5628   -3.4540   25.7737 F   0  0  0  0  0  0
  -29.9332  -13.7566   20.3582 N   0  0  0  0  0  0
  -26.2856  -12.9506   20.3273 N   0  0  0  0  0  0
  -25.9331  -11.6620   20.5765 N   0  0  0  0  0  0
  -22.0429  -12.8182   22.0442 N   0  0  0  0  0  0
  -25.4075  -15.1979   20.4179 N   0  0  0  0  0  0
  -31.7916  -14.9338   20.1228 O   0  0  0  0  0  0
  -21.6645   -6.8883   21.4241 O   0  0  0  0  0  0
  -22.3452  -14.5505   20.6732 O   0  0  0  0  0  0
  -24.6471  -31.8414   23.1874 C   0  0  0  0  0  0
  -25.9230  -32.4680   23.8269 C   0  0  1  0  0  0
  -27.2036  -27.0890   20.1529 C   0  0  0  0  0  0
  -25.5964  -33.8489   24.2178 N   0  0  0  0  0  0
  -23.4526  -30.4620   21.5336 C   0  0  2  0  0  0
  -24.9024  -28.8899   20.1049 C   0  0  0  0  0  0
  -22.7589  -29.4531   22.4840 C   0  0  0  0  0  0
  -18.0309  -28.1398   22.8475 C   0  0  0  0  0  0
  -24.1492  -36.7248   23.2641 C   0  0  0  0  0  0
  -26.0132  -30.6967   21.3987 C   0  0  0  0  0  0
  -26.0800  -29.3055   20.7388 C   0  0  0  0  0  0
  -27.2282  -28.4187   20.7541 C   0  0  0  0  0  0
  -26.0123  -26.8123   19.4414 C   0  0  0  0  0  0
  -24.8848  -27.6585   19.4390 C   0  0  0  0  0  0
  -23.6814  -29.7962   20.1515 C   0  0  0  0  0  0
  -25.4126  -36.3023   24.0313 C   0  0  1  0  0  0
  -20.5925  -28.3728   23.1221 C   0  0  2  0  0  0
  -20.6791  -26.9426   22.5400 C   0  0  0  0  0  0
  -19.5764  -26.6381   21.5210 C   0  0  0  0  0  0
  -18.1945  -26.7935   22.1622 C   0  0  0  0  0  0
  -19.1567  -28.8881   23.2839 C   0  0  0  0  0  0
  -18.9483  -30.1475   23.8867 C   0  0  0  0  0  0
  -17.6479  -30.6592   24.0558 C   0  0  0  0  0  0
  -25.9080  -34.9400   23.5055 C   0  0  0  0  0  0
  -16.5368  -29.9084   23.6339 C   0  0  0  0  0  0
  -16.7293  -28.6502   23.0358 C   0  0  0  0  0  0
  -26.4533  -31.6563   25.0729 C   0  0  0  0  0  0
  -25.3701  -31.3769   26.1412 C   0  0  0  0  0  0
  -27.0408  -30.2948   24.6356 C   0  0  0  0  0  0
  -27.6054  -32.4341   25.7514 C   0  0  0  0  0  0
  -27.5576  -37.1779   24.8464 C   0  0  0  0  0  0
  -21.4277  -29.3049   22.3590 N   0  0  0  0  0  0
  -26.4285  -37.3741   23.9409 N   0  0  0  0  0  0
  -24.7242  -31.0226   22.0939 N   0  0  0  0  0  0
  -23.4215  -28.8075   23.3001 O   0  0  0  0  0  0
  -28.2101  -26.0407   20.2664 O   0  0  0  0  0  0
  -26.5670  -34.8902   22.4636 O   0  0  0  0  0  0
  -23.5580  -32.1319   23.7061 O   0  0  0  0  0  0
  -31.9075  -17.5766   21.3149 C   0  0  0  0  0  0
  -32.5780  -18.7407   21.5035 C   0  0  0  0  0  0
  -30.5616  -17.6866   20.8048 C   0  0  0  0  0  0
  -30.1800  -19.1278   20.7330 C   0  0  0  0  0  0
  -28.4725  -20.8856   21.8667 C   0  0  0  0  0  0
  -28.3710  -22.4715   21.8404 C   0  0  0  0  0  0
  -29.1993  -21.7251   19.7440 C   0  0  0  0  0  0
  -29.0011  -20.2615   20.5224 C   0  0  1  0  0  0
  -28.2800  -22.9280   20.3772 C   0  0  2  0  0  0
  -27.9013  -24.5415   19.8863 C   0  0  0  0  0  0
  -29.9472  -16.2762   20.5874 N   0  0  0  0  0  0
  -31.5997  -20.0916   21.1297 S   0  0  0  0  0  0
  -31.4575  -12.7417   19.1951 H   0  0  0  0  0  0
  -30.3979  -11.6847   20.0721 H   0  0  0  0  0  0
  -29.8423  -11.7220   17.6107 H   0  0  0  0  0  0
  -29.5970  -13.4513   17.6815 H   0  0  0  0  0  0
  -27.9615  -11.2755   19.0140 H   0  0  0  0  0  0
  -27.3865  -12.4205   17.8299 H   0  0  0  0  0  0
  -27.5687  -14.2521   19.3812 H   0  0  0  0  0  0
  -28.7633  -12.3945   21.4936 H   0  0  0  0  0  0
  -28.3555  -14.0816   21.7181 H   0  0  0  0  0  0
  -25.2773   -9.5686   22.4768 H   0  0  0  0  0  0
  -24.0008   -7.4638   22.7475 H   0  0  0  0  0  0
  -21.0857   -8.8781   19.8950 H   0  0  0  0  0  0
  -22.3715  -10.9678   19.6169 H   0  0  0  0  0  0
  -21.2009   -7.6149   23.9715 H   0  0  0  0  0  0
  -21.1481   -6.0524   25.9076 H   0  0  0  0  0  0
  -22.0597   -2.7610   23.2845 H   0  0  0  0  0  0
  -22.4062  -11.9852   22.4831 H   0  0  0  0  0  0
  -21.1040  -13.1188   22.2646 H   0  0  0  0  0  0
  -24.6388  -15.8495   20.5336 H   0  0  0  0  0  0
  -26.2535  -15.6410   20.0838 H   0  0  0  0  0  0
  -26.7292  -32.5268   23.0989 H   0  0  0  0  0  0
  -25.0084  -33.9600   25.0307 H   0  0  0  0  0  0
  -22.7571  -31.2896   21.3795 H   0  0  0  0  0  0
  -23.3763  -35.9570   23.3285 H   0  0  0  0  0  0
  -24.3575  -36.8902   22.2059 H   0  0  0  0  0  0
  -23.7241  -37.6434   23.6695 H   0  0  0  0  0  0
  -26.1791  -31.4489   20.6263 H   0  0  0  0  0  0
  -26.8800  -30.7442   22.0460 H   0  0  0  0  0  0
  -28.1148  -28.7235   21.2921 H   0  0  0  0  0  0
  -25.9003  -25.8913   18.8904 H   0  0  0  0  0  0
  -23.9939  -27.3437   18.9130 H   0  0  0  0  0  0
  -23.8211  -30.5733   19.3992 H   0  0  0  0  0  0
  -22.7949  -29.2422   19.8375 H   0  0  0  0  0  0
  -25.1313  -36.1845   25.0804 H   0  0  0  0  0  0
  -21.0015  -28.3324   24.1343 H   0  0  0  0  0  0
  -20.5682  -26.2343   23.3625 H   0  0  0  0  0  0
  -21.6656  -26.7426   22.1199 H   0  0  0  0  0  0
  -19.6926  -25.6285   21.1256 H   0  0  0  0  0  0
  -19.6700  -27.3177   20.6729 H   0  0  0  0  0  0
  -17.4214  -26.6680   21.4025 H   0  0  0  0  0  0
  -18.0342  -26.0082   22.9024 H   0  0  0  0  0  0
  -19.7960  -30.7298   24.2223 H   0  0  0  0  0  0
  -17.5033  -31.6268   24.5167 H   0  0  0  0  0  0
  -15.5368  -30.2975   23.7682 H   0  0  0  0  0  0
  -15.8693  -28.0811   22.7091 H   0  0  0  0  0  0
  -24.5895  -30.7101   25.7732 H   0  0  0  0  0  0
  -24.8873  -32.2954   26.4758 H   0  0  0  0  0  0
  -25.7968  -30.8998   27.0244 H   0  0  0  0  0  0
  -26.3043  -29.6656   24.1345 H   0  0  0  0  0  0
  -27.3973  -29.7266   25.4957 H   0  0  0  0  0  0
  -27.8973  -30.4164   23.9721 H   0  0  0  0  0  0
  -27.2647  -33.3676   26.2005 H   0  0  0  0  0  0
  -28.3908  -32.6846   25.0370 H   0  0  0  0  0  0
  -28.0673  -31.8524   26.5502 H   0  0  0  0  0  0
  -28.2578  -38.0091   24.7518 H   0  0  0  0  0  0
  -28.1087  -36.2618   24.6281 H   0  0  0  0  0  0
  -27.2291  -37.1412   25.8866 H   0  0  0  0  0  0
  -20.9495  -29.8770   21.6771 H   0  0  0  0  0  0
  -26.0148  -38.2805   24.1420 H   0  0  0  0  0  0
  -32.3957  -16.6462   21.5559 H   0  0  0  0  0  0
  -33.5930  -18.8830   21.8567 H   0  0  0  0  0  0
  -27.4893  -20.4638   22.0797 H   0  0  0  0  0  0
  -29.1003  -20.5847   22.7063 H   0  0  0  0  0  0
  -29.2657  -22.9042   22.2901 H   0  0  0  0  0  0
  -27.5211  -22.8238   22.4264 H   0  0  0  0  0  0
  -29.0088  -21.6086   18.6765 H   0  0  0  0  0  0
  -30.2341  -22.0565   19.8160 H   0  0  0  0  0  0
  -28.1585  -19.7632   20.0410 H   0  0  0  0  0  0
  -27.3160  -22.5001   20.0934 H   0  0  0  0  0  0
  -26.8409  -24.5043   20.1279 H   0  0  0  0  0  0
  -27.9374  -24.5275   18.7965 H   0  0  0  0  0  0
  -28.9393  -16.2368   20.6061 H   0  0  0  0  0  0
  1 25  1  0  0  0
  1 30  2  0  0  0
  1 81  1  0  0  0
  2  3  1  0  0  0
  2 25  1  0  0  0
  2 83  1  0  0  0
  2 84  1  0  0  0
  3  4  1  0  0  0
  3 85  1  0  0  0
  3 86  1  0  0  0
  4  5  1  0  0  0
  4 87  1  0  0  0
  4 88  1  0  0  0
  5  6  1  0  0  0
  5 26  1  0  0  0
  5 89  1  0  0  0
  6 25  1  0  0  0
  6 90  1  0  0  0
  6 91  1  0  0  0
  7  8  2  0  0  0
  7 26  1  0  0  0
  7 29  1  0  0  0
  8  9  1  0  0  0
  8 22  1  0  0  0
  9 10  1  0  0  0
  9 27  2  0  0  0
 10 11  2  0  0  0
 10 15  1  0  0  0
 11 12  1  0  0  0
 11 92  1  0  0  0
 12 13  2  0  0  0
 12 93  1  0  0  0
 13 14  1  0  0  0
 13 31  1  0  0  0
 14 15  2  0  0  0
 14 94  1  0  0  0
 15 95  1  0  0  0
 16 17  2  0  0  0
 16 21  1  0  0  0
 16 31  1  0  0  0
 17 18  1  0  0  0
 17 96  1  0  0  0
 18 19  2  0  0  0
 18 97  1  0  0  0
 19 20  1  0  0  0
 19 24  1  0  0  0
 20 21  2  0  0  0
 20 98  1  0  0  0
 21 23  1  0  0  0
 22 28  1  0  0  0
 22 32  2  0  0  0
 26 27  1  0  0  0
 28 99  1  0  0  0
 28100  1  0  0  0
 29101  1  0  0  0
 29102  1  0  0  0
 33 34  1  0  0  0
 33 66  1  0  0  0
 33 70  2  0  0  0
 34 36  1  0  0  0
 34 59  1  0  0  0
 34103  1  0  0  0
 35 44  2  0  0  0
 35 45  1  0  0  0
 35 68  1  0  0  0
 36 56  1  0  0  0
 36104  1  0  0  0
 37 39  1  0  0  0
 37 47  1  0  0  0
 37 66  1  0  0  0
 37105  1  0  0  0
 38 43  2  0  0  0
 38 46  1  0  0  0
 38 47  1  0  0  0
 39 64  1  0  0  0
 39 67  2  0  0  0
 40 52  1  0  0  0
 40 53  2  0  0  0
 40 58  1  0  0  0
 41106  1  0  0  0
 41107  1  0  0  0
 41108  1  0  0  0
 41 48  1  0  0  0
 42 43  1  0  0  0
 42 66  1  0  0  0
 42109  1  0  0  0
 42110  1  0  0  0
 43 44  1  0  0  0
 44111  1  0  0  0
 45 46  2  0  0  0
 45112  1  0  0  0
 46113  1  0  0  0
 47114  1  0  0  0
 47115  1  0  0  0
 48 56  1  0  0  0
 48 65  1  0  0  0
 48116  1  0  0  0
 49 50  1  0  0  0
 49 53  1  0  0  0
 49 64  1  0  0  0
 49117  1  0  0  0
 50 51  1  0  0  0
 50118  1  0  0  0
 50119  1  0  0  0
 51 52  1  0  0  0
 51120  1  0  0  0
 51121  1  0  0  0
 52122  1  0  0  0
 52123  1  0  0  0
 53 54  1  0  0  0
 54 55  2  0  0  0
 54124  1  0  0  0
 55 57  1  0  0  0
 55125  1  0  0  0
 56 69  2  0  0  0
 57 58  2  0  0  0
 57126  1  0  0  0
 58127  1  0  0  0
 59 60  1  0  0  0
 59 61  1  0  0  0
 59 62  1  0  0  0
 60128  1  0  0  0
 60129  1  0  0  0
 60130  1  0  0  0
 61131  1  0  0  0
 61132  1  0  0  0
 61133  1  0  0  0
 62134  1  0  0  0
 62135  1  0  0  0
 62136  1  0  0  0
 63 65  1  0  0  0
 63137  1  0  0  0
 63138  1  0  0  0
 63139  1  0  0  0
 64140  1  0  0  0
 65141  1  0  0  0
 68 80  1  0  0  0
 71 72  2  0  0  0
 71 73  1  0  0  0
 71142  1  0  0  0
 72 82  1  0  0  0
 72143  1  0  0  0
 73 74  2  0  0  0
 73 81  1  0  0  0
 74 82  1  0  0  0
 74 78  1  0  0  0
 75 76  1  0  0  0
 75 78  1  0  0  0
 75144  1  0  0  0
 75145  1  0  0  0
 76 79  1  0  0  0
 76146  1  0  0  0
 76147  1  0  0  0
 77 78  1  0  0  0
 77 79  1  0  0  0
 77148  1  0  0  0
 77149  1  0  0  0
 78150  1  0  0  0
 79 80  1  0  0  0
 79151  1  0  0  0
 80152  1  0  0  0
 80153  1  0  0  0
 81154  1  0  0  0
M  ISO  4   1 100  68 101  80 101  81 100
M  END
> <chiral flag>
0

> <version>
0

> <s_m_source_file>
/data/baiqing/PycharmProjects/Reinvent-master-3.2/result/LINK_invent/BTK/process_docking_weight1_custom_product_contain_oxygen_bond_distance_aromatic_linkinvent_7_9_3/rearranged_h_0143.sdf

> <i_m_source_file_index>
74

> <r_mmod_Potential_Energy-OPLS-2005>
847.532409667969

> <r_mmod_Stretch_Energy-OPLS-2005>
324.009826660156

> <r_mmod_Bend_Energy-OPLS-2005>
467.486633300781

> <r_mmod_Torsional_Energy-OPLS-2005>
252.929473876953

> <r_mmod_Improper_Torsional_Energy-OPLS-2005>
5.44723224639893

> <r_mmod_Van_der_Waal_Energy-OPLS-2005>
135.798156738281

> <r_mmod_Electrostatic_Energy-OPLS-2005>
-363.920928955078

> <r_mmod_Solvation_Energy-OPLS-2005>
-208.6748046875

> <b_mmod_Minimization_Converged-OPLS-2005>
0

> <r_mmod_RMS_Derivative-OPLS-2005>
0.233449906110764

$$$$
74
                    3D
 Structure written by MMmdl.
170178  0  0  1  0            999 V2000
  -30.6994  -14.5576   20.4486 C   0  0  0  0  0  0
  -30.4139  -12.3310   19.4308 C   0  0  0  0  0  0
  -29.4935  -12.4730   18.2025 C   0  0  0  0  0  0
  -28.0179  -12.3277   18.6263 C   0  0  0  0  0  0
  -27.6455  -13.2199   19.8438 C   0  0  2  0  0  0
  -28.6949  -13.0893   20.9711 C   0  0  0  0  0  0
  -25.2481  -13.8186   20.5659 C   0  0  0  0  0  0
  -24.1783  -13.0446   20.9230 C   0  0  0  0  0  0
  -24.6358  -11.6915   20.8722 C   0  0  0  0  0  0
  -23.9034  -10.4286   21.0406 C   0  0  0  0  0  0
  -24.3584   -9.4192   21.9174 C   0  0  0  0  0  0
  -23.6275   -8.2218   22.0733 C   0  0  0  0  0  0
  -22.4246   -8.0264   21.3547 C   0  0  0  0  0  0
  -21.9892   -9.0226   20.4645 C   0  0  0  0  0  0
  -22.7207  -10.2121   20.3038 C   0  0  0  0  0  0
  -21.6843   -6.0708   22.5298 C   0  0  0  0  0  0
  -21.4005   -6.5609   23.8240 C   0  0  0  0  0  0
  -21.3655   -5.6765   24.9189 C   0  0  0  0  0  0
  -21.6052   -4.3029   24.7255 C   0  0  0  0  0  0
  -21.8809   -3.8126   23.4361 C   0  0  0  0  0  0
  -21.9194   -4.6940   22.3424 C   0  0  0  0  0  0
  -22.7791  -13.5226   21.1931 C   0  0  0  0  0  0
  -22.1649   -4.2124   21.1001 F   0  0  0  0  0  0
  -21.5641   -3.4509   25.7756 F   0  0  0  0  0  0
  -30.0170  -13.3766   20.3931 N   0  0  0  0  0  0
  -26.2914  -12.9387   20.3217 N   0  0  0  0  0  0
  -25.9281  -11.6540   20.5700 N   0  0  0  0  0  0
  -22.0399  -12.8209   22.0466 N   0  0  0  0  0  0
  -25.4153  -15.1915   20.4040 N   0  0  0  0  0  0
  -31.8915  -14.6189   20.1421 O   0  0  0  0  0  0
  -21.6620   -6.8847   21.4254 O   0  0  0  0  0  0
  -22.3485  -14.5536   20.6787 O   0  0  0  0  0  0
  -24.6202  -31.8640   23.2048 C   0  0  0  0  0  0
  -25.9090  -32.4784   23.8375 C   0  0  1  0  0  0
  -27.2328  -27.4047   20.1128 C   0  0  0  0  0  0
  -25.5955  -33.8593   24.2333 N   0  0  0  0  0  0
  -23.4119  -30.4895   21.5393 C   0  0  2  0  0  0
  -24.8622  -28.9520   20.1072 C   0  0  0  0  0  0
  -22.7455  -29.4643   22.4890 C   0  0  0  0  0  0
  -18.0283  -28.1380   22.8489 C   0  0  0  0  0  0
  -24.1478  -36.7255   23.2620 C   0  0  0  0  0  0
  -25.9449  -30.8278   21.3621 C   0  0  0  0  0  0
  -26.0266  -29.4649   20.6962 C   0  0  0  0  0  0
  -27.2249  -28.7061   20.6780 C   0  0  0  0  0  0
  -26.0517  -26.9153   19.5195 C   0  0  0  0  0  0
  -24.8705  -27.6793   19.5117 C   0  0  0  0  0  0
  -23.6274  -29.8229   20.1520 C   0  0  0  0  0  0
  -25.4086  -36.3083   24.0343 C   0  0  1  0  0  0
  -20.5883  -28.3665   23.1261 C   0  0  2  0  0  0
  -20.6747  -26.9387   22.5377 C   0  0  0  0  0  0
  -19.5733  -26.6384   21.5173 C   0  0  0  0  0  0
  -18.1919  -26.7934   22.1601 C   0  0  0  0  0  0
  -19.1539  -28.8836   23.2881 C   0  0  0  0  0  0
  -18.9472  -30.1440   23.8899 C   0  0  0  0  0  0
  -17.6475  -30.6592   24.0549 C   0  0  0  0  0  0
  -25.9037  -34.9454   23.5113 C   0  0  0  0  0  0
  -16.5358  -29.9091   23.6328 C   0  0  0  0  0  0
  -16.7265  -28.6497   23.0358 C   0  0  0  0  0  0
  -26.4511  -31.6583   25.0728 C   0  0  0  0  0  0
  -25.3774  -31.3743   26.1469 C   0  0  0  0  0  0
  -27.0284  -30.2983   24.6173 C   0  0  0  0  0  0
  -27.6149  -32.4225   25.7467 C   0  0  0  0  0  0
  -27.5603  -37.1741   24.8456 C   0  0  0  0  0  0
  -21.4173  -29.3026   22.3635 N   0  0  0  0  0  0
  -26.4265  -37.3788   23.9473 N   0  0  0  0  0  0
  -24.6754  -31.0751   22.0920 N   0  0  0  0  0  0
  -23.4207  -28.8190   23.2956 O   0  0  0  0  0  0
  -28.3630  -26.6086   20.1137 O   0  0  0  0  0  0
  -26.5598  -34.8931   22.4667 O   0  0  0  0  0  0
  -23.5390  -32.1390   23.7451 O   0  0  0  0  0  0
  -29.6322  -18.1265   20.7216 C   0  0  0  0  0  0
  -31.5955  -18.6927   19.8506 C   0  0  0  0  0  0
  -30.4572  -19.2603   20.3694 C   0  0  0  0  0  0
  -30.3619  -16.9918   20.4385 C   0  0  0  0  0  0
  -30.3497  -20.7728   20.4380 C   0  0  0  0  0  0
  -27.3198  -19.8524   23.5105 C   0  0  0  0  0  0
  -28.7631  -20.9427   25.2567 C   0  0  0  0  0  0
  -28.0288  -23.4286   19.2898 C   0  0  0  0  0  0
  -30.2626  -24.5759   19.6311 C   0  0  0  0  0  0
  -29.5351  -20.9253   22.8366 C   0  0  0  0  0  0
  -29.2880  -23.0727   21.4815 C   0  0  0  0  0  0
  -28.2711  -25.3898   20.9029 C   0  0  0  0  0  0
  -29.3199  -21.4725   21.3865 C   0  0  1  0  0  0
  -28.3148  -20.9866   23.7885 C   0  0  0  0  0  0
  -28.9660  -24.0927   20.3136 C   0  0  0  0  0  0
  -29.9609  -15.6866   20.6295 N   0  0  0  0  0  0
  -31.1372  -21.4609   19.7865 O   0  0  0  0  0  0
  -31.5631  -17.3275   19.8951 O   0  0  0  0  0  0
  -31.4603  -12.4083   19.1290 H   0  0  0  0  0  0
  -30.3009  -11.3413   19.8771 H   0  0  0  0  0  0
  -29.7424  -11.7156   17.4561 H   0  0  0  0  0  0
  -29.6534  -13.4369   17.7194 H   0  0  0  0  0  0
  -27.8582  -11.2802   18.8850 H   0  0  0  0  0  0
  -27.3579  -12.5283   17.7814 H   0  0  0  0  0  0
  -27.6612  -14.2488   19.4863 H   0  0  0  0  0  0
  -28.6784  -12.0798   21.3854 H   0  0  0  0  0  0
  -28.4624  -13.7639   21.7964 H   0  0  0  0  0  0
  -25.2732   -9.5682   22.4733 H   0  0  0  0  0  0
  -24.0005   -7.4601   22.7420 H   0  0  0  0  0  0
  -21.0818   -8.8730   19.8947 H   0  0  0  0  0  0
  -22.3654  -10.9630   19.6117 H   0  0  0  0  0  0
  -21.1968   -7.6105   23.9732 H   0  0  0  0  0  0
  -21.1494   -6.0486   25.9109 H   0  0  0  0  0  0
  -22.0589   -2.7579   23.2881 H   0  0  0  0  0  0
  -22.3959  -11.9880   22.4921 H   0  0  0  0  0  0
  -21.1002  -13.1253   22.2615 H   0  0  0  0  0  0
  -24.6415  -15.8391   20.5128 H   0  0  0  0  0  0
  -26.2546  -15.6356   20.0570 H   0  0  0  0  0  0
  -26.7181  -32.5501   23.1175 H   0  0  0  0  0  0
  -25.0248  -33.9724   25.0574 H   0  0  0  0  0  0
  -22.7015  -31.3063   21.3944 H   0  0  0  0  0  0
  -23.3788  -35.9529   23.3209 H   0  0  0  0  0  0
  -24.3639  -36.8923   22.2058 H   0  0  0  0  0  0
  -23.7148  -37.6408   23.6648 H   0  0  0  0  0  0
  -26.0788  -31.6121   20.6145 H   0  0  0  0  0  0
  -26.8200  -30.8640   21.9983 H   0  0  0  0  0  0
  -28.1301  -29.1024   21.1204 H   0  0  0  0  0  0
  -26.0430  -25.9293   19.0764 H   0  0  0  0  0  0
  -23.9727  -27.2812   19.0570 H   0  0  0  0  0  0
  -23.7497  -30.5991   19.3946 H   0  0  0  0  0  0
  -22.7523  -29.2496   19.8420 H   0  0  0  0  0  0
  -25.1246  -36.1940   25.0831 H   0  0  0  0  0  0
  -21.0019  -28.3237   24.1372 H   0  0  0  0  0  0
  -20.5581  -26.2291   23.3574 H   0  0  0  0  0  0
  -21.6623  -26.7357   22.1231 H   0  0  0  0  0  0
  -19.6866  -25.6291   21.1222 H   0  0  0  0  0  0
  -19.6709  -27.3180   20.6698 H   0  0  0  0  0  0
  -17.4183  -26.6688   21.4001 H   0  0  0  0  0  0
  -18.0342  -26.0082   22.9020 H   0  0  0  0  0  0
  -19.7937  -30.7242   24.2289 H   0  0  0  0  0  0
  -17.5028  -31.6275   24.5142 H   0  0  0  0  0  0
  -15.5351  -30.2978   23.7644 H   0  0  0  0  0  0
  -15.8677  -28.0794   22.7068 H   0  0  0  0  0  0
  -24.6078  -30.6902   25.7888 H   0  0  0  0  0  0
  -24.8785  -32.2876   26.4719 H   0  0  0  0  0  0
  -25.8159  -30.9159   27.0343 H   0  0  0  0  0  0
  -26.2802  -29.6796   24.1198 H   0  0  0  0  0  0
  -27.3943  -29.7236   25.4702 H   0  0  0  0  0  0
  -27.8739  -30.4231   23.9392 H   0  0  0  0  0  0
  -27.2919  -33.3632   26.1931 H   0  0  0  0  0  0
  -28.4035  -32.6539   25.0300 H   0  0  0  0  0  0
  -28.0703  -31.8361   26.5461 H   0  0  0  0  0  0
  -28.2510  -38.0158   24.7653 H   0  0  0  0  0  0
  -28.1183  -36.2673   24.6028 H   0  0  0  0  0  0
  -27.2364  -37.1123   25.8871 H   0  0  0  0  0  0
  -20.9317  -29.8826   21.6919 H   0  0  0  0  0  0
  -26.0138  -38.2832   24.1591 H   0  0  0  0  0  0
  -28.6406  -18.1485   21.1507 H   0  0  0  0  0  0
  -32.5095  -19.1119   19.4443 H   0  0  0  0  0  0
  -26.4464  -19.9393   24.1581 H   0  0  0  0  0  0
  -27.7731  -18.8792   23.6987 H   0  0  0  0  0  0
  -26.9665  -19.8623   22.4797 H   0  0  0  0  0  0
  -27.9220  -21.1235   25.9283 H   0  0  0  0  0  0
  -29.5173  -21.6997   25.4766 H   0  0  0  0  0  0
  -29.1878  -19.9720   25.5133 H   0  0  0  0  0  0
  -28.5526  -22.6933   18.6797 H   0  0  0  0  0  0
  -27.6052  -24.1673   18.6100 H   0  0  0  0  0  0
  -27.1983  -22.9233   19.7845 H   0  0  0  0  0  0
  -30.9059  -23.7758   19.2863 H   0  0  0  0  0  0
  -30.8560  -25.1887   20.3094 H   0  0  0  0  0  0
  -30.0441  -25.1903   18.7569 H   0  0  0  0  0  0
  -30.3574  -21.4907   23.2790 H   0  0  0  0  0  0
  -29.9020  -19.8986   22.8423 H   0  0  0  0  0  0
  -30.1796  -23.4211   22.0034 H   0  0  0  0  0  0
  -28.4893  -23.2674   22.1922 H   0  0  0  0  0  0
  -28.7426  -25.6381   21.8547 H   0  0  0  0  0  0
  -27.2341  -25.1667   21.1624 H   0  0  0  0  0  0
  -28.3508  -21.1360   21.0254 H   0  0  0  0  0  0
  -27.7841  -21.9266   23.6601 H   0  0  0  0  0  0
  -28.9851  -15.5439   20.8271 H   0  0  0  0  0  0
  1 25  1  0  0  0
  1 30  2  0  0  0
  1 86  1  0  0  0
  2  3  1  0  0  0
  2 25  1  0  0  0
  2 89  1  0  0  0
  2 90  1  0  0  0
  3  4  1  0  0  0
  3 91  1  0  0  0
  3 92  1  0  0  0
  4  5  1  0  0  0
  4 93  1  0  0  0
  4 94  1  0  0  0
  5  6  1  0  0  0
  5 26  1  0  0  0
  5 95  1  0  0  0
  6 25  1  0  0  0
  6 96  1  0  0  0
  6 97  1  0  0  0
  7  8  2  0  0  0
  7 26  1  0  0  0
  7 29  1  0  0  0
  8  9  1  0  0  0
  8 22  1  0  0  0
  9 10  1  0  0  0
  9 27  2  0  0  0
 10 11  2  0  0  0
 10 15  1  0  0  0
 11 12  1  0  0  0
 11 98  1  0  0  0
 12 13  2  0  0  0
 12 99  1  0  0  0
 13 14  1  0  0  0
 13 31  1  0  0  0
 14 15  2  0  0  0
 14100  1  0  0  0
 15101  1  0  0  0
 16 17  2  0  0  0
 16 21  1  0  0  0
 16 31  1  0  0  0
 17 18  1  0  0  0
 17102  1  0  0  0
 18 19  2  0  0  0
 18103  1  0  0  0
 19 20  1  0  0  0
 19 24  1  0  0  0
 20 21  2  0  0  0
 20104  1  0  0  0
 21 23  1  0  0  0
 22 28  1  0  0  0
 22 32  2  0  0  0
 26 27  1  0  0  0
 28105  1  0  0  0
 28106  1  0  0  0
 29107  1  0  0  0
 29108  1  0  0  0
 33 34  1  0  0  0
 33 66  1  0  0  0
 33 70  2  0  0  0
 34 36  1  0  0  0
 34 59  1  0  0  0
 34109  1  0  0  0
 35 44  2  0  0  0
 35 45  1  0  0  0
 35 68  1  0  0  0
 36 56  1  0  0  0
 36110  1  0  0  0
 37 39  1  0  0  0
 37 47  1  0  0  0
 37 66  1  0  0  0
 37111  1  0  0  0
 38 43  2  0  0  0
 38 46  1  0  0  0
 38 47  1  0  0  0
 39 64  1  0  0  0
 39 67  2  0  0  0
 40 52  1  0  0  0
 40 53  2  0  0  0
 40 58  1  0  0  0
 41112  1  0  0  0
 41113  1  0  0  0
 41114  1  0  0  0
 41 48  1  0  0  0
 42 43  1  0  0  0
 42 66  1  0  0  0
 42115  1  0  0  0
 42116  1  0  0  0
 43 44  1  0  0  0
 44117  1  0  0  0
 45 46  2  0  0  0
 45118  1  0  0  0
 46119  1  0  0  0
 47120  1  0  0  0
 47121  1  0  0  0
 48 56  1  0  0  0
 48 65  1  0  0  0
 48122  1  0  0  0
 49 50  1  0  0  0
 49 53  1  0  0  0
 49 64  1  0  0  0
 49123  1  0  0  0
 50 51  1  0  0  0
 50124  1  0  0  0
 50125  1  0  0  0
 51 52  1  0  0  0
 51126  1  0  0  0
 51127  1  0  0  0
 52128  1  0  0  0
 52129  1  0  0  0
 53 54  1  0  0  0
 54 55  2  0  0  0
 54130  1  0  0  0
 55 57  1  0  0  0
 55131  1  0  0  0
 56 69  2  0  0  0
 57 58  2  0  0  0
 57132  1  0  0  0
 58133  1  0  0  0
 59 60  1  0  0  0
 59 61  1  0  0  0
 59 62  1  0  0  0
 60134  1  0  0  0
 60135  1  0  0  0
 60136  1  0  0  0
 61137  1  0  0  0
 61138  1  0  0  0
 61139  1  0  0  0
 62140  1  0  0  0
 62141  1  0  0  0
 62142  1  0  0  0
 63 65  1  0  0  0
 63143  1  0  0  0
 63144  1  0  0  0
 63145  1  0  0  0
 64146  1  0  0  0
 65147  1  0  0  0
 68 82  1  0  0  0
 71 73  1  0  0  0
 71 74  2  0  0  0
 71148  1  0  0  0
 72 73  2  0  0  0
 72 88  1  0  0  0
 72149  1  0  0  0
 73 75  1  0  0  0
 74 86  1  0  0  0
 74 88  1  0  0  0
 75 83  1  0  0  0
 75 87  2  0  0  0
 76150  1  0  0  0
 76151  1  0  0  0
 76152  1  0  0  0
 76 84  1  0  0  0
 77 84  1  0  0  0
 77153  1  0  0  0
 77154  1  0  0  0
 77155  1  0  0  0
 78156  1  0  0  0
 78157  1  0  0  0
 78158  1  0  0  0
 78 85  1  0  0  0
 79 85  1  0  0  0
 79159  1  0  0  0
 79160  1  0  0  0
 79161  1  0  0  0
 80 84  1  0  0  0
 80162  1  0  0  0
 80163  1  0  0  0
 80 83  1  0  0  0
 81 83  1  0  0  0
 81 85  1  0  0  0
 81164  1  0  0  0
 81165  1  0  0  0
 82 85  1  0  0  0
 82166  1  0  0  0
 82167  1  0  0  0
 83168  1  0  0  0
 84169  1  0  0  0
 86170  1  0  0  0
M  ISO  4   1 100  68 101  82 101  86 100
M  END
> <chiral flag>
0

> <version>
0

> <s_m_source_file>
/data/baiqing/PycharmProjects/Reinvent-master-3.2/result/LINK_invent/BTK/process_docking_weight1_custom_product_contain_oxygen_bond_distance_aromatic_linkinvent_7_9_3/rearranged_h_0143.sdf

> <i_m_source_file_index>
75

> <r_mmod_Potential_Energy-OPLS-2005>
61.1109886169434

> <r_mmod_Stretch_Energy-OPLS-2005>
61.5484046936035

> <r_mmod_Bend_Energy-OPLS-2005>
151.988006591797

> <r_mmod_Torsional_Energy-OPLS-2005>
271.081085205078

> <r_mmod_Improper_Torsional_Energy-OPLS-2005>
5.67777156829834

> <r_mmod_Van_der_Waal_Energy-OPLS-2005>
129.149322509766

> <r_mmod_Electrostatic_Energy-OPLS-2005>
-374.922424316406

> <r_mmod_Solvation_Energy-OPLS-2005>
-213.96159362793

> <b_mmod_Minimization_Converged-OPLS-2005>
0

> <r_mmod_RMS_Derivative-OPLS-2005>
5.31524181365967

$$$$
75
                    3D
 Structure written by MMmdl.
162170  0  0  1  0            999 V2000
  -30.7184  -14.4507   20.4820 C   0  0  0  0  0  0
  -30.4129  -12.2606   19.4340 C   0  0  0  0  0  0
  -29.4931  -12.4732   18.2112 C   0  0  0  0  0  0
  -28.0133  -12.3428   18.6200 C   0  0  0  0  0  0
  -27.6586  -13.2061   19.8600 C   0  0  2  0  0  0
  -28.7011  -13.0273   20.9854 C   0  0  0  0  0  0
  -25.2595  -13.8153   20.5666 C   0  0  0  0  0  0
  -24.1852  -13.0440   20.9150 C   0  0  0  0  0  0
  -24.6412  -11.6901   20.8735 C   0  0  0  0  0  0
  -23.9077  -10.4282   21.0400 C   0  0  0  0  0  0
  -24.3619   -9.4196   21.9190 C   0  0  0  0  0  0
  -23.6262   -8.2247   22.0761 C   0  0  0  0  0  0
  -22.4256   -8.0277   21.3535 C   0  0  0  0  0  0
  -21.9912   -9.0268   20.4644 C   0  0  0  0  0  0
  -22.7258  -10.2135   20.3038 C   0  0  0  0  0  0
  -21.6850   -6.0727   22.5273 C   0  0  0  0  0  0
  -21.4030   -6.5643   23.8207 C   0  0  0  0  0  0
  -21.3651   -5.6794   24.9173 C   0  0  0  0  0  0
  -21.6030   -4.3047   24.7222 C   0  0  0  0  0  0
  -21.8831   -3.8142   23.4342 C   0  0  0  0  0  0
  -21.9189   -4.6952   22.3397 C   0  0  0  0  0  0
  -22.7869  -13.5234   21.1802 C   0  0  0  0  0  0
  -22.1662   -4.2143   21.0970 F   0  0  0  0  0  0
  -21.5610   -3.4527   25.7734 F   0  0  0  0  0  0
  -30.0434  -13.2727   20.4340 N   0  0  0  0  0  0
  -26.3027  -12.9339   20.3331 N   0  0  0  0  0  0
  -25.9333  -11.6496   20.5769 N   0  0  0  0  0  0
  -22.0513  -12.8220   22.0352 N   0  0  0  0  0  0
  -25.4335  -15.1868   20.4096 N   0  0  0  0  0  0
  -31.9117  -14.4975   20.1658 O   0  0  0  0  0  0
  -21.6616   -6.8882   21.4251 O   0  0  0  0  0  0
  -22.3557  -14.5545   20.6639 O   0  0  0  0  0  0
  -24.6082  -31.8756   23.2174 C   0  0  0  0  0  0
  -25.9012  -32.4858   23.8450 C   0  0  1  0  0  0
  -27.2319  -27.4617   20.0580 C   0  0  0  0  0  0
  -25.5896  -33.8656   24.2366 N   0  0  0  0  0  0
  -23.3931  -30.5037   21.5583 C   0  0  2  0  0  0
  -24.8365  -28.9815   20.1169 C   0  0  0  0  0  0
  -22.7402  -29.4687   22.5022 C   0  0  0  0  0  0
  -18.0286  -28.1374   22.8502 C   0  0  0  0  0  0
  -24.1486  -36.7311   23.2627 C   0  0  0  0  0  0
  -25.9261  -30.8385   21.3798 C   0  0  0  0  0  0
  -25.9964  -29.4775   20.7226 C   0  0  0  0  0  0
  -27.1889  -28.7171   20.7106 C   0  0  0  0  0  0
  -26.0469  -26.9909   19.4381 C   0  0  0  0  0  0
  -24.8559  -27.7332   19.4799 C   0  0  0  0  0  0
  -23.5976  -29.8433   20.1701 C   0  0  0  0  0  0
  -25.4101  -36.3122   24.0339 C   0  0  1  0  0  0
  -20.5879  -28.3647   23.1318 C   0  0  2  0  0  0
  -20.6776  -26.9393   22.5392 C   0  0  0  0  0  0
  -19.5741  -26.6392   21.5198 C   0  0  0  0  0  0
  -18.1920  -26.7942   22.1608 C   0  0  0  0  0  0
  -19.1538  -28.8822   23.2910 C   0  0  0  0  0  0
  -18.9456  -30.1437   23.8906 C   0  0  0  0  0  0
  -17.6444  -30.6577   24.0542 C   0  0  0  0  0  0
  -25.9008  -34.9491   23.5126 C   0  0  0  0  0  0
  -16.5328  -29.9070   23.6322 C   0  0  0  0  0  0
  -16.7262  -28.6481   23.0349 C   0  0  0  0  0  0
  -26.4478  -31.6648   25.0756 C   0  0  0  0  0  0
  -25.3742  -31.3675   26.1491 C   0  0  0  0  0  0
  -27.0397  -30.3125   24.6151 C   0  0  0  0  0  0
  -27.6047  -32.4397   25.7509 C   0  0  0  0  0  0
  -27.5591  -37.1799   24.8469 C   0  0  0  0  0  0
  -21.4137  -29.3029   22.3742 N   0  0  0  0  0  0
  -26.4294  -37.3802   23.9410 N   0  0  0  0  0  0
  -24.6600  -31.0873   22.1082 N   0  0  0  0  0  0
  -23.4202  -28.8219   23.3026 O   0  0  0  0  0  0
  -28.4355  -26.7771   20.0586 O   0  0  0  0  0  0
  -26.5530  -34.8902   22.4671 O   0  0  0  0  0  0
  -23.5288  -32.1528   23.7583 O   0  0  0  0  0  0
  -28.4411  -18.3097   19.8011 C   0  0  0  0  0  0
  -29.8043  -19.9829   19.2868 C   0  0  0  0  0  0
  -28.4767  -19.6557   19.3263 C   0  0  0  0  0  0
  -29.7372  -17.9182   19.9974 C   0  0  0  0  0  0
  -30.4281  -16.6922   20.3401 C   0  0  0  0  0  0
  -27.9733  -23.0108   19.2066 C   0  0  0  0  0  0
  -28.5669  -25.8867   17.7776 C   0  0  0  0  0  0
  -25.6325  -22.2160   19.7777 C   0  0  0  0  0  0
  -27.5674  -21.6019   21.2565 C   0  0  0  0  0  0
  -27.3050  -20.5349   18.9390 C   0  0  0  0  0  0
  -27.8337  -24.3875   19.8802 C   0  0  0  0  0  0
  -28.6438  -25.5803   19.2929 C   0  0  2  0  0  0
  -27.1322  -21.8386   19.7895 C   0  0  0  0  0  0
  -29.8935  -15.5643   20.6344 N   0  0  0  0  0  0
  -28.7470  -22.8365   18.2609 O   0  0  0  0  0  0
  -30.5760  -18.9473   19.6992 O   0  0  0  0  0  0
  -31.4602  -12.3174   19.1272 H   0  0  0  0  0  0
  -30.2843  -11.2592   19.8480 H   0  0  0  0  0  0
  -29.7277  -11.7469   17.4311 H   0  0  0  0  0  0
  -29.6717  -13.4586   17.7765 H   0  0  0  0  0  0
  -27.8222  -11.2917   18.8396 H   0  0  0  0  0  0
  -27.3624  -12.5989   17.7833 H   0  0  0  0  0  0
  -27.6922  -14.2463   19.5355 H   0  0  0  0  0  0
  -28.6499  -12.0204   21.3991 H   0  0  0  0  0  0
  -28.4839  -13.7000   21.8178 H   0  0  0  0  0  0
  -25.2772   -9.5642   22.4757 H   0  0  0  0  0  0
  -23.9942   -7.4645   22.7494 H   0  0  0  0  0  0
  -21.0849   -8.8818   19.8935 H   0  0  0  0  0  0
  -22.3762  -10.9673   19.6121 H   0  0  0  0  0  0
  -21.2058   -7.6159   23.9727 H   0  0  0  0  0  0
  -21.1445   -6.0512   25.9080 H   0  0  0  0  0  0
  -22.0616   -2.7606   23.2850 H   0  0  0  0  0  0
  -22.4132  -11.9841   22.4683 H   0  0  0  0  0  0
  -21.1136  -13.1247   22.2573 H   0  0  0  0  0  0
  -24.6800  -15.8518   20.5387 H   0  0  0  0  0  0
  -26.3093  -15.6203   20.1486 H   0  0  0  0  0  0
  -26.7085  -32.5581   23.1206 H   0  0  0  0  0  0
  -25.0111  -33.9860   25.0559 H   0  0  0  0  0  0
  -22.6780  -31.3181   21.4263 H   0  0  0  0  0  0
  -23.3751  -35.9644   23.3308 H   0  0  0  0  0  0
  -24.3551  -36.8901   22.2034 H   0  0  0  0  0  0
  -23.7230  -37.6501   23.6656 H   0  0  0  0  0  0
  -26.0459  -31.6055   20.6143 H   0  0  0  0  0  0
  -26.8134  -30.8813   21.9986 H   0  0  0  0  0  0
  -28.0789  -29.0977   21.1926 H   0  0  0  0  0  0
  -26.0034  -26.0752   18.8782 H   0  0  0  0  0  0
  -23.9695  -27.3542   18.9911 H   0  0  0  0  0  0
  -23.6969  -30.6209   19.4129 H   0  0  0  0  0  0
  -22.7261  -29.2555   19.8731 H   0  0  0  0  0  0
  -25.1278  -36.2004   25.0829 H   0  0  0  0  0  0
  -20.9947  -28.3217   24.1446 H   0  0  0  0  0  0
  -20.5735  -26.2224   23.3557 H   0  0  0  0  0  0
  -21.6634  -26.7493   22.1126 H   0  0  0  0  0  0
  -19.6864  -25.6318   21.1194 H   0  0  0  0  0  0
  -19.6684  -27.3215   20.6739 H   0  0  0  0  0  0
  -17.4206  -26.6720   21.4008 H   0  0  0  0  0  0
  -18.0288  -26.0091   22.9000 H   0  0  0  0  0  0
  -19.7923  -30.7255   24.2322 H   0  0  0  0  0  0
  -17.4992  -31.6286   24.5091 H   0  0  0  0  0  0
  -15.5315  -30.2936   23.7699 H   0  0  0  0  0  0
  -15.8660  -28.0778   22.7079 H   0  0  0  0  0  0
  -24.5890  -30.7087   25.7754 H   0  0  0  0  0  0
  -24.8939  -32.2802   26.5041 H   0  0  0  0  0  0
  -25.8070  -30.8729   27.0199 H   0  0  0  0  0  0
  -26.3006  -29.6772   24.1247 H   0  0  0  0  0  0
  -27.4258  -29.7445   25.4624 H   0  0  0  0  0  0
  -27.8802  -30.4474   23.9317 H   0  0  0  0  0  0
  -27.2689  -33.3698   26.2106 H   0  0  0  0  0  0
  -28.3857  -32.6961   25.0335 H   0  0  0  0  0  0
  -28.0760  -31.8527   26.5390 H   0  0  0  0  0  0
  -28.2588  -38.0122   24.7556 H   0  0  0  0  0  0
  -28.1131  -36.2643   24.6320 H   0  0  0  0  0  0
  -27.2288  -37.1446   25.8864 H   0  0  0  0  0  0
  -20.9272  -29.8726   21.6942 H   0  0  0  0  0  0
  -26.0202  -38.2880   24.1440 H   0  0  0  0  0  0
  -27.5718  -17.6843   19.9408 H   0  0  0  0  0  0
  -30.3460  -20.8741   18.9976 H   0  0  0  0  0  0
  -31.5157  -16.8121   20.2663 H   0  0  0  0  0  0
  -28.9421  -25.0597   17.1806 H   0  0  0  0  0  0
  -29.1960  -26.7423   17.5311 H   0  0  0  0  0  0
  -27.5676  -26.1104   17.4132 H   0  0  0  0  0  0
  -25.4079  -23.0871   20.3945 H   0  0  0  0  0  0
  -25.0173  -21.4064   20.1711 H   0  0  0  0  0  0
  -25.2807  -22.4293   18.7670 H   0  0  0  0  0  0
  -27.2165  -22.3972   21.9124 H   0  0  0  0  0  0
  -28.6537  -21.5569   21.3586 H   0  0  0  0  0  0
  -27.1614  -20.6669   21.6428 H   0  0  0  0  0  0
  -26.4119  -19.9157   19.0419 H   0  0  0  0  0  0
  -27.3598  -20.7500   17.8696 H   0  0  0  0  0  0
  -28.1353  -24.2698   20.9189 H   0  0  0  0  0  0
  -26.7771  -24.6115   19.9228 H   0  0  0  0  0  0
  -29.6901  -25.3348   19.4833 H   0  0  0  0  0  0
  1 25  1  0  0  0
  1 30  2  0  0  0
  1 84  1  0  0  0
  2  3  1  0  0  0
  2 25  1  0  0  0
  2 87  1  0  0  0
  2 88  1  0  0  0
  3  4  1  0  0  0
  3 89  1  0  0  0
  3 90  1  0  0  0
  4  5  1  0  0  0
  4 91  1  0  0  0
  4 92  1  0  0  0
  5  6  1  0  0  0
  5 26  1  0  0  0
  5 93  1  0  0  0
  6 25  1  0  0  0
  6 94  1  0  0  0
  6 95  1  0  0  0
  7  8  2  0  0  0
  7 26  1  0  0  0
  7 29  1  0  0  0
  8  9  1  0  0  0
  8 22  1  0  0  0
  9 10  1  0  0  0
  9 27  2  0  0  0
 10 11  2  0  0  0
 10 15  1  0  0  0
 11 12  1  0  0  0
 11 96  1  0  0  0
 12 13  2  0  0  0
 12 97  1  0  0  0
 13 14  1  0  0  0
 13 31  1  0  0  0
 14 15  2  0  0  0
 14 98  1  0  0  0
 15 99  1  0  0  0
 16 17  2  0  0  0
 16 21  1  0  0  0
 16 31  1  0  0  0
 17 18  1  0  0  0
 17100  1  0  0  0
 18 19  2  0  0  0
 18101  1  0  0  0
 19 20  1  0  0  0
 19 24  1  0  0  0
 20 21  2  0  0  0
 20102  1  0  0  0
 21 23  1  0  0  0
 22 28  1  0  0  0
 22 32  2  0  0  0
 26 27  1  0  0  0
 28103  1  0  0  0
 28104  1  0  0  0
 29105  1  0  0  0
 29106  1  0  0  0
 33 34  1  0  0  0
 33 66  1  0  0  0
 33 70  2  0  0  0
 34 36  1  0  0  0
 34 59  1  0  0  0
 34107  1  0  0  0
 35 44  2  0  0  0
 35 45  1  0  0  0
 35 68  1  0  0  0
 36 56  1  0  0  0
 36108  1  0  0  0
 37 39  1  0  0  0
 37 47  1  0  0  0
 37 66  1  0  0  0
 37109  1  0  0  0
 38 43  2  0  0  0
 38 46  1  0  0  0
 38 47  1  0  0  0
 39 64  1  0  0  0
 39 67  2  0  0  0
 40 52  1  0  0  0
 40 53  2  0  0  0
 40 58  1  0  0  0
 41110  1  0  0  0
 41111  1  0  0  0
 41112  1  0  0  0
 41 48  1  0  0  0
 42 43  1  0  0  0
 42 66  1  0  0  0
 42113  1  0  0  0
 42114  1  0  0  0
 43 44  1  0  0  0
 44115  1  0  0  0
 45 46  2  0  0  0
 45116  1  0  0  0
 46117  1  0  0  0
 47118  1  0  0  0
 47119  1  0  0  0
 48 56  1  0  0  0
 48 65  1  0  0  0
 48120  1  0  0  0
 49 50  1  0  0  0
 49 53  1  0  0  0
 49 64  1  0  0  0
 49121  1  0  0  0
 50 51  1  0  0  0
 50122  1  0  0  0
 50123  1  0  0  0
 51 52  1  0  0  0
 51124  1  0  0  0
 51125  1  0  0  0
 52126  1  0  0  0
 52127  1  0  0  0
 53 54  1  0  0  0
 54 55  2  0  0  0
 54128  1  0  0  0
 55 57  1  0  0  0
 55129  1  0  0  0
 56 69  2  0  0  0
 57 58  2  0  0  0
 57130  1  0  0  0
 58131  1  0  0  0
 59 60  1  0  0  0
 59 61  1  0  0  0
 59 62  1  0  0  0
 60132  1  0  0  0
 60133  1  0  0  0
 60134  1  0  0  0
 61135  1  0  0  0
 61136  1  0  0  0
 61137  1  0  0  0
 62138  1  0  0  0
 62139  1  0  0  0
 62140  1  0  0  0
 63 65  1  0  0  0
 63141  1  0  0  0
 63142  1  0  0  0
 63143  1  0  0  0
 64144  1  0  0  0
 65145  1  0  0  0
 68 82  1  0  0  0
 71 73  1  0  0  0
 71 74  2  0  0  0
 71146  1  0  0  0
 72 73  2  0  0  0
 72 86  1  0  0  0
 72147  1  0  0  0
 73 80  1  0  0  0
 74 75  1  0  0  0
 74 86  1  0  0  0
 75 84  2  0  0  0
 75148  1  0  0  0
 76 81  1  0  0  0
 76 83  1  0  0  0
 76 85  2  0  0  0
 77149  1  0  0  0
 77150  1  0  0  0
 77151  1  0  0  0
 77 82  1  0  0  0
 78152  1  0  0  0
 78153  1  0  0  0
 78154  1  0  0  0
 78 83  1  0  0  0
 79 83  1  0  0  0
 79155  1  0  0  0
 79156  1  0  0  0
 79157  1  0  0  0
 80 83  1  0  0  0
 80158  1  0  0  0
 80159  1  0  0  0
 81 82  1  0  0  0
 81160  1  0  0  0
 81161  1  0  0  0
 82162  1  0  0  0
M  ISO  4   1 100  68 101  82 101  84 100
M  END
> <chiral flag>
0

> <version>
0

> <s_m_source_file>
/data/baiqing/PycharmProjects/Reinvent-master-3.2/result/LINK_invent/BTK/process_docking_weight1_custom_product_contain_oxygen_bond_distance_aromatic_linkinvent_7_9_3/rearranged_h_0143.sdf

> <i_m_source_file_index>
76

> <r_mmod_Potential_Energy-OPLS-2005>
8.48282814025879

> <r_mmod_Stretch_Energy-OPLS-2005>
38.7412910461426

> <r_mmod_Bend_Energy-OPLS-2005>
119.939788818359

> <r_mmod_Torsional_Energy-OPLS-2005>
172.471435546875

> <r_mmod_Improper_Torsional_Energy-OPLS-2005>
7.19611835479736

> <r_mmod_Van_der_Waal_Energy-OPLS-2005>
166.503128051758

> <r_mmod_Electrostatic_Energy-OPLS-2005>
-334.761535644531

> <r_mmod_Solvation_Energy-OPLS-2005>
-182.369354248047

> <b_mmod_Minimization_Converged-OPLS-2005>
0

> <r_mmod_RMS_Derivative-OPLS-2005>
4.01976633071899

$$$$
76
                    3D
 Structure written by MMmdl.
168177  0  0  1  0            999 V2000
  -30.5722  -14.7732   20.4676 C   0  0  0  0  0  0
  -30.4486  -12.4852   19.4475 C   0  0  0  0  0  0
  -29.5176  -12.5205   18.2158 C   0  0  0  0  0  0
  -28.0422  -12.3450   18.6386 C   0  0  0  0  0  0
  -27.6405  -13.2291   19.8460 C   0  0  2  0  0  0
  -28.6867  -13.1552   20.9747 C   0  0  0  0  0  0
  -25.2517  -13.8168   20.5706 C   0  0  0  0  0  0
  -24.1790  -13.0379   20.9203 C   0  0  0  0  0  0
  -24.6418  -11.6893   20.8777 C   0  0  0  0  0  0
  -23.9091  -10.4282   21.0473 C   0  0  0  0  0  0
  -24.3655   -9.4181   21.9220 C   0  0  0  0  0  0
  -23.6315   -8.2225   22.0766 C   0  0  0  0  0  0
  -22.4316   -8.0280   21.3537 C   0  0  0  0  0  0
  -21.9967   -9.0254   20.4653 C   0  0  0  0  0  0
  -22.7292  -10.2143   20.3074 C   0  0  0  0  0  0
  -21.6839   -6.0776   22.5288 C   0  0  0  0  0  0
  -21.4010   -6.5656   23.8223 C   0  0  0  0  0  0
  -21.3647   -5.6790   24.9173 C   0  0  0  0  0  0
  -21.6014   -4.3067   24.7229 C   0  0  0  0  0  0
  -21.8793   -3.8180   23.4339 C   0  0  0  0  0  0
  -21.9187   -4.6996   22.3406 C   0  0  0  0  0  0
  -22.7818  -13.5219   21.1817 C   0  0  0  0  0  0
  -22.1647   -4.2189   21.0975 F   0  0  0  0  0  0
  -21.5647   -3.4534   25.7731 F   0  0  0  0  0  0
  -29.9732  -13.5347   20.3764 N   0  0  0  0  0  0
  -26.2934  -12.9375   20.3218 N   0  0  0  0  0  0
  -25.9343  -11.6518   20.5688 N   0  0  0  0  0  0
  -22.0417  -12.8264   22.0401 N   0  0  0  0  0  0
  -25.4098  -15.1884   20.4160 N   0  0  0  0  0  0
  -31.7807  -14.8816   20.2420 O   0  0  0  0  0  0
  -21.6601   -6.8943   21.4261 O   0  0  0  0  0  0
  -22.3524  -14.5494   20.6613 O   0  0  0  0  0  0
  -24.6342  -31.8536   23.1952 C   0  0  0  0  0  0
  -25.9156  -32.4760   23.8288 C   0  0  1  0  0  0
  -27.2106  -27.2256   20.0852 C   0  0  0  0  0  0
  -25.5960  -33.8566   24.2246 N   0  0  0  0  0  0
  -23.4302  -30.4786   21.5413 C   0  0  2  0  0  0
  -24.8689  -28.9315   20.0994 C   0  0  0  0  0  0
  -22.7514  -29.4590   22.4894 C   0  0  0  0  0  0
  -18.0301  -28.1493   22.8433 C   0  0  0  0  0  0
  -24.1480  -36.7238   23.2648 C   0  0  0  0  0  0
  -25.9813  -30.7460   21.3844 C   0  0  0  0  0  0
  -26.0451  -29.3710   20.7167 C   0  0  0  0  0  0
  -27.2083  -28.5312   20.6997 C   0  0  0  0  0  0
  -25.9959  -26.8761   19.4417 C   0  0  0  0  0  0
  -24.8557  -27.6961   19.4495 C   0  0  0  0  0  0
  -23.6420  -29.8182   20.1568 C   0  0  0  0  0  0
  -25.4120  -36.3091   24.0343 C   0  0  1  0  0  0
  -20.5891  -28.3746   23.1287 C   0  0  2  0  0  0
  -20.6796  -26.9470   22.5404 C   0  0  0  0  0  0
  -19.5777  -26.6459   21.5217 C   0  0  0  0  0  0
  -18.1958  -26.8026   22.1615 C   0  0  0  0  0  0
  -19.1547  -28.8942   23.2848 C   0  0  0  0  0  0
  -18.9468  -30.1553   23.8872 C   0  0  0  0  0  0
  -17.6461  -30.6670   24.0588 C   0  0  0  0  0  0
  -25.9072  -34.9453   23.5093 C   0  0  0  0  0  0
  -16.5351  -29.9154   23.6391 C   0  0  0  0  0  0
  -16.7276  -28.6604   23.0333 C   0  0  0  0  0  0
  -26.4522  -31.6630   25.0705 C   0  0  0  0  0  0
  -25.3731  -31.3674   26.1391 C   0  0  0  0  0  0
  -27.0326  -30.3038   24.6197 C   0  0  0  0  0  0
  -27.6127  -32.4305   25.7464 C   0  0  0  0  0  0
  -27.5585  -37.1795   24.8481 C   0  0  0  0  0  0
  -21.4210  -29.3042   22.3619 N   0  0  0  0  0  0
  -26.4316  -37.3779   23.9417 N   0  0  0  0  0  0
  -24.7018  -31.0463   22.0942 N   0  0  0  0  0  0
  -23.4168  -28.8139   23.3051 O   0  0  0  0  0  0
  -28.3383  -26.3525   20.1875 O   0  0  0  0  0  0
  -26.5599  -34.8959   22.4638 O   0  0  0  0  0  0
  -23.5499  -32.1366   23.7251 O   0  0  0  0  0  0
  -29.4483  -18.0321   23.4829 C   0  0  0  0  0  0
  -29.5958  -16.9589   22.6019 C   0  0  0  0  0  0
  -29.7520  -18.5600   20.7284 C   0  0  0  0  0  0
  -29.4992  -19.3453   22.9917 C   0  0  0  0  0  0
  -29.6439  -19.7116   21.6412 C   0  0  0  0  0  0
  -29.7637  -17.1598   21.2179 C   0  0  0  0  0  0
  -29.4578  -20.5079   23.9019 C   0  0  0  0  0  0
  -29.8019  -21.6353   22.9472 C   0  0  0  0  0  0
  -30.9769  -23.8981   20.2449 C   0  0  0  0  0  0
  -29.3695  -24.5455   21.9925 C   0  0  0  0  0  0
  -27.3887  -24.1462   19.0938 C   0  0  0  0  0  0
  -29.4072  -25.3584   18.3930 C   0  0  0  0  0  0
  -29.0728  -22.2226   20.6048 C   0  0  0  0  0  0
  -29.4652  -23.8706   20.6032 C   0  0  0  0  0  0
  -28.5978  -24.9359   19.6382 C   0  0  0  0  0  0
  -29.7303  -21.1897   21.5374 N   0  0  0  0  0  0
  -29.7318  -15.8863   20.4535 N   0  0  0  0  0  0
  -31.4871  -12.6470   19.1474 H   0  0  0  0  0  0
  -30.4263  -11.5025   19.9224 H   0  0  0  0  0  0
  -29.8018  -11.7464   17.5005 H   0  0  0  0  0  0
  -29.6360  -13.4732   17.6946 H   0  0  0  0  0  0
  -27.8850  -11.2962   18.8844 H   0  0  0  0  0  0
  -27.3907  -12.5544   17.7913 H   0  0  0  0  0  0
  -27.6352  -14.2498   19.4652 H   0  0  0  0  0  0
  -28.7354  -12.1472   21.3867 H   0  0  0  0  0  0
  -28.4193  -13.8206   21.7976 H   0  0  0  0  0  0
  -25.2814   -9.5637   22.4787 H   0  0  0  0  0  0
  -23.9970   -7.4611   22.7525 H   0  0  0  0  0  0
  -21.0855   -8.8838   19.8993 H   0  0  0  0  0  0
  -22.3765  -10.9707   19.6186 H   0  0  0  0  0  0
  -21.1994   -7.6162   23.9740 H   0  0  0  0  0  0
  -21.1491   -6.0528   25.9065 H   0  0  0  0  0  0
  -22.0599   -2.7650   23.2809 H   0  0  0  0  0  0
  -22.4002  -11.9954   22.4910 H   0  0  0  0  0  0
  -21.1014  -13.1319   22.2507 H   0  0  0  0  0  0
  -24.6250  -15.8220   20.5339 H   0  0  0  0  0  0
  -26.2372  -15.6620   20.0797 H   0  0  0  0  0  0
  -26.7151  -32.5375   23.0972 H   0  0  0  0  0  0
  -25.0211  -33.9665   25.0452 H   0  0  0  0  0  0
  -22.7328  -31.3053   21.3998 H   0  0  0  0  0  0
  -23.3808  -35.9505   23.3339 H   0  0  0  0  0  0
  -24.3567  -36.8810   22.2052 H   0  0  0  0  0  0
  -23.7161  -37.6432   23.6605 H   0  0  0  0  0  0
  -26.1362  -31.5003   20.6144 H   0  0  0  0  0  0
  -26.8558  -30.7833   22.0221 H   0  0  0  0  0  0
  -28.1074  -28.8546   21.2013 H   0  0  0  0  0  0
  -25.8172  -25.9573   18.9354 H   0  0  0  0  0  0
  -23.9572  -27.3609   18.9508 H   0  0  0  0  0  0
  -23.7653  -30.5928   19.4011 H   0  0  0  0  0  0
  -22.7550  -29.2522   19.8543 H   0  0  0  0  0  0
  -25.1315  -36.1955   25.0842 H   0  0  0  0  0  0
  -20.9976  -28.3353   24.1409 H   0  0  0  0  0  0
  -20.5797  -26.2335   23.3577 H   0  0  0  0  0  0
  -21.6676  -26.7569   22.1160 H   0  0  0  0  0  0
  -19.6958  -25.6365   21.1274 H   0  0  0  0  0  0
  -19.6809  -27.3244   20.6733 H   0  0  0  0  0  0
  -17.4220  -26.6733   21.4010 H   0  0  0  0  0  0
  -18.0384  -26.0229   22.9079 H   0  0  0  0  0  0
  -19.7949  -30.7389   24.2210 H   0  0  0  0  0  0
  -17.5034  -31.6346   24.5202 H   0  0  0  0  0  0
  -15.5364  -30.3043   23.7814 H   0  0  0  0  0  0
  -15.8668  -28.0977   22.7011 H   0  0  0  0  0  0
  -24.6048  -30.6885   25.7661 H   0  0  0  0  0  0
  -24.8759  -32.2757   26.4788 H   0  0  0  0  0  0
  -25.8120  -30.8906   27.0171 H   0  0  0  0  0  0
  -26.2854  -29.6823   24.1254 H   0  0  0  0  0  0
  -27.3964  -29.7307   25.4739 H   0  0  0  0  0  0
  -27.8790  -30.4300   23.9443 H   0  0  0  0  0  0
  -27.2856  -33.3657   26.2008 H   0  0  0  0  0  0
  -28.3993  -32.6747   25.0304 H   0  0  0  0  0  0
  -28.0704  -31.8405   26.5410 H   0  0  0  0  0  0
  -28.2649  -38.0060   24.7573 H   0  0  0  0  0  0
  -28.1059  -36.2617   24.6299 H   0  0  0  0  0  0
  -27.2300  -37.1409   25.8884 H   0  0  0  0  0  0
  -20.9421  -29.8645   21.6695 H   0  0  0  0  0  0
  -26.0224  -38.2864   24.1429 H   0  0  0  0  0  0
  -29.3150  -17.8425   24.5389 H   0  0  0  0  0  0
  -29.5384  -15.9664   23.0192 H   0  0  0  0  0  0
  -29.8535  -18.7349   19.6640 H   0  0  0  0  0  0
  -30.1934  -20.4044   24.7034 H   0  0  0  0  0  0
  -28.4612  -20.6129   24.3454 H   0  0  0  0  0  0
  -30.8273  -21.9686   23.1318 H   0  0  0  0  0  0
  -29.1043  -22.4353   23.1861 H   0  0  0  0  0  0
  -31.1509  -23.5237   19.2346 H   0  0  0  0  0  0
  -31.4065  -24.8992   20.3132 H   0  0  0  0  0  0
  -31.5688  -23.2736   20.9127 H   0  0  0  0  0  0
  -30.1083  -24.1768   22.6963 H   0  0  0  0  0  0
  -28.3686  -24.4615   22.4159 H   0  0  0  0  0  0
  -29.6139  -25.6067   21.9534 H   0  0  0  0  0  0
  -26.9635  -24.5712   18.1870 H   0  0  0  0  0  0
  -27.6705  -23.1588   18.7389 H   0  0  0  0  0  0
  -26.6247  -24.0144   19.8577 H   0  0  0  0  0  0
  -29.7368  -24.5097   17.7964 H   0  0  0  0  0  0
  -30.2876  -25.9327   18.6681 H   0  0  0  0  0  0
  -28.8218  -26.0055   17.7400 H   0  0  0  0  0  0
  -29.2297  -21.8462   19.5922 H   0  0  0  0  0  0
  -27.9996  -22.1220   20.7699 H   0  0  0  0  0  0
  -28.7820  -15.5763   20.3023 H   0  0  0  0  0  0
  1 25  1  0  0  0
  1 30  2  0  0  0
  1 87  1  0  0  0
  2  3  1  0  0  0
  2 25  1  0  0  0
  2 88  1  0  0  0
  2 89  1  0  0  0
  3  4  1  0  0  0
  3 90  1  0  0  0
  3 91  1  0  0  0
  4  5  1  0  0  0
  4 92  1  0  0  0
  4 93  1  0  0  0
  5  6  1  0  0  0
  5 26  1  0  0  0
  5 94  1  0  0  0
  6 25  1  0  0  0
  6 95  1  0  0  0
  6 96  1  0  0  0
  7  8  2  0  0  0
  7 26  1  0  0  0
  7 29  1  0  0  0
  8  9  1  0  0  0
  8 22  1  0  0  0
  9 10  1  0  0  0
  9 27  2  0  0  0
 10 11  2  0  0  0
 10 15  1  0  0  0
 11 12  1  0  0  0
 11 97  1  0  0  0
 12 13  2  0  0  0
 12 98  1  0  0  0
 13 14  1  0  0  0
 13 31  1  0  0  0
 14 15  2  0  0  0
 14 99  1  0  0  0
 15100  1  0  0  0
 16 17  2  0  0  0
 16 21  1  0  0  0
 16 31  1  0  0  0
 17 18  1  0  0  0
 17101  1  0  0  0
 18 19  2  0  0  0
 18102  1  0  0  0
 19 20  1  0  0  0
 19 24  1  0  0  0
 20 21  2  0  0  0
 20103  1  0  0  0
 21 23  1  0  0  0
 22 28  1  0  0  0
 22 32  2  0  0  0
 26 27  1  0  0  0
 28104  1  0  0  0
 28105  1  0  0  0
 29106  1  0  0  0
 29107  1  0  0  0
 33 34  1  0  0  0
 33 66  1  0  0  0
 33 70  2  0  0  0
 34 36  1  0  0  0
 34 59  1  0  0  0
 34108  1  0  0  0
 35 44  2  0  0  0
 35 45  1  0  0  0
 35 68  1  0  0  0
 36 56  1  0  0  0
 36109  1  0  0  0
 37 39  1  0  0  0
 37 47  1  0  0  0
 37 66  1  0  0  0
 37110  1  0  0  0
 38 43  2  0  0  0
 38 46  1  0  0  0
 38 47  1  0  0  0
 39 64  1  0  0  0
 39 67  2  0  0  0
 40 52  1  0  0  0
 40 53  2  0  0  0
 40 58  1  0  0  0
 41111  1  0  0  0
 41112  1  0  0  0
 41113  1  0  0  0
 41 48  1  0  0  0
 42 43  1  0  0  0
 42 66  1  0  0  0
 42114  1  0  0  0
 42115  1  0  0  0
 43 44  1  0  0  0
 44116  1  0  0  0
 45 46  2  0  0  0
 45117  1  0  0  0
 46118  1  0  0  0
 47119  1  0  0  0
 47120  1  0  0  0
 48 56  1  0  0  0
 48 65  1  0  0  0
 48121  1  0  0  0
 49 50  1  0  0  0
 49 53  1  0  0  0
 49 64  1  0  0  0
 49122  1  0  0  0
 50 51  1  0  0  0
 50123  1  0  0  0
 50124  1  0  0  0
 51 52  1  0  0  0
 51125  1  0  0  0
 51126  1  0  0  0
 52127  1  0  0  0
 52128  1  0  0  0
 53 54  1  0  0  0
 54 55  2  0  0  0
 54129  1  0  0  0
 55 57  1  0  0  0
 55130  1  0  0  0
 56 69  2  0  0  0
 57 58  2  0  0  0
 57131  1  0  0  0
 58132  1  0  0  0
 59 60  1  0  0  0
 59 61  1  0  0  0
 59 62  1  0  0  0
 60133  1  0  0  0
 60134  1  0  0  0
 60135  1  0  0  0
 61136  1  0  0  0
 61137  1  0  0  0
 61138  1  0  0  0
 62139  1  0  0  0
 62140  1  0  0  0
 62141  1  0  0  0
 63 65  1  0  0  0
 63142  1  0  0  0
 63143  1  0  0  0
 63144  1  0  0  0
 64145  1  0  0  0
 65146  1  0  0  0
 68 85  1  0  0  0
 71 72  2  0  0  0
 71 74  1  0  0  0
 71147  1  0  0  0
 72 76  1  0  0  0
 72148  1  0  0  0
 73 75  1  0  0  0
 73 76  2  0  0  0
 73149  1  0  0  0
 74 75  2  0  0  0
 74 77  1  0  0  0
 75 86  1  0  0  0
 76 87  1  0  0  0
 77 78  1  0  0  0
 77150  1  0  0  0
 77151  1  0  0  0
 78 86  1  0  0  0
 78152  1  0  0  0
 78153  1  0  0  0
 79154  1  0  0  0
 79155  1  0  0  0
 79156  1  0  0  0
 79 84  1  0  0  0
 80 84  1  0  0  0
 80157  1  0  0  0
 80158  1  0  0  0
 80159  1  0  0  0
 81160  1  0  0  0
 81161  1  0  0  0
 81162  1  0  0  0
 81 85  1  0  0  0
 82 85  1  0  0  0
 82163  1  0  0  0
 82164  1  0  0  0
 82165  1  0  0  0
 83 84  1  0  0  0
 83 86  1  0  0  0
 83166  1  0  0  0
 83167  1  0  0  0
 84 85  1  0  0  0
 87168  1  0  0  0
M  ISO  4   1 100  68 101  85 101  87 100
M  END
> <chiral flag>
0

> <version>
0

> <s_m_source_file>
/data/baiqing/PycharmProjects/Reinvent-master-3.2/result/LINK_invent/BTK/process_docking_weight1_custom_product_contain_oxygen_bond_distance_aromatic_linkinvent_7_9_3/rearranged_h_0143.sdf

> <i_m_source_file_index>
77

> <r_mmod_Potential_Energy-OPLS-2005>
521.686340332031

> <r_mmod_Stretch_Energy-OPLS-2005>
204.046997070312

> <r_mmod_Bend_Energy-OPLS-2005>
335.388610839844

> <r_mmod_Torsional_Energy-OPLS-2005>
306.448516845703

> <r_mmod_Improper_Torsional_Energy-OPLS-2005>
16.5563812255859

> <r_mmod_Van_der_Waal_Energy-OPLS-2005>
165.927993774414

> <r_mmod_Electrostatic_Energy-OPLS-2005>
-390.485473632812

> <r_mmod_Solvation_Energy-OPLS-2005>
-218.438400268555

> <b_mmod_Minimization_Converged-OPLS-2005>
0

> <r_mmod_RMS_Derivative-OPLS-2005>
7.50566673278809

$$$$
77
                    3D
 Structure written by MMmdl.
160169  0  0  1  0            999 V2000
  -30.5454  -14.8680   20.4369 C   0  0  0  0  0  0
  -30.4402  -12.5302   19.4943 C   0  0  0  0  0  0
  -29.5249  -12.5369   18.2484 C   0  0  0  0  0  0
  -28.0503  -12.3472   18.6506 C   0  0  0  0  0  0
  -27.6399  -13.2453   19.8475 C   0  0  2  0  0  0
  -28.6796  -13.2046   20.9874 C   0  0  0  0  0  0
  -25.2497  -13.8219   20.5677 C   0  0  0  0  0  0
  -24.1798  -13.0424   20.9176 C   0  0  0  0  0  0
  -24.6411  -11.6903   20.8711 C   0  0  0  0  0  0
  -23.9083  -10.4295   21.0387 C   0  0  0  0  0  0
  -24.3641   -9.4207   21.9146 C   0  0  0  0  0  0
  -23.6335   -8.2235   22.0720 C   0  0  0  0  0  0
  -22.4313   -8.0271   21.3515 C   0  0  0  0  0  0
  -21.9944   -9.0229   20.4611 C   0  0  0  0  0  0
  -22.7258  -10.2110   20.3033 C   0  0  0  0  0  0
  -21.6866   -6.0741   22.5274 C   0  0  0  0  0  0
  -21.4027   -6.5649   23.8207 C   0  0  0  0  0  0
  -21.3675   -5.6790   24.9164 C   0  0  0  0  0  0
  -21.6057   -4.3052   24.7217 C   0  0  0  0  0  0
  -21.8834   -3.8143   23.4335 C   0  0  0  0  0  0
  -21.9206   -4.6972   22.3399 C   0  0  0  0  0  0
  -22.7821  -13.5174   21.1862 C   0  0  0  0  0  0
  -22.1667   -4.2152   21.0974 F   0  0  0  0  0  0
  -21.5630   -3.4526   25.7733 F   0  0  0  0  0  0
  -29.9746  -13.6009   20.4150 N   0  0  0  0  0  0
  -26.2928  -12.9434   20.3230 N   0  0  0  0  0  0
  -25.9349  -11.6563   20.5683 N   0  0  0  0  0  0
  -22.0520  -12.8121   22.0436 N   0  0  0  0  0  0
  -25.4188  -15.1946   20.4178 N   0  0  0  0  0  0
  -31.7151  -14.9917   20.0562 O   0  0  0  0  0  0
  -21.6659   -6.8879   21.4240 O   0  0  0  0  0  0
  -22.3466  -14.5467   20.6737 O   0  0  0  0  0  0
  -24.6416  -31.8471   23.1940 C   0  0  0  0  0  0
  -25.9200  -32.4703   23.8321 C   0  0  1  0  0  0
  -27.2075  -27.1611   20.1289 C   0  0  0  0  0  0
  -25.5985  -33.8517   24.2239 N   0  0  0  0  0  0
  -23.4435  -30.4684   21.5401 C   0  0  2  0  0  0
  -24.8900  -28.9069   20.1076 C   0  0  0  0  0  0
  -22.7564  -29.4539   22.4880 C   0  0  0  0  0  0
  -18.0312  -28.1389   22.8465 C   0  0  0  0  0  0
  -24.1491  -36.7239   23.2624 C   0  0  0  0  0  0
  -25.9995  -30.7256   21.3929 C   0  0  0  0  0  0
  -26.0679  -29.3423   20.7277 C   0  0  0  0  0  0
  -27.2288  -28.4840   20.7246 C   0  0  0  0  0  0
  -26.0062  -26.8327   19.4611 C   0  0  0  0  0  0
  -24.8709  -27.6647   19.4613 C   0  0  0  0  0  0
  -23.6681  -29.8073   20.1564 C   0  0  0  0  0  0
  -25.4113  -36.3036   24.0316 C   0  0  1  0  0  0
  -20.5914  -28.3709   23.1235 C   0  0  2  0  0  0
  -20.6795  -26.9420   22.5397 C   0  0  0  0  0  0
  -19.5775  -26.6382   21.5208 C   0  0  0  0  0  0
  -18.1954  -26.7929   22.1615 C   0  0  0  0  0  0
  -19.1563  -28.8875   23.2838 C   0  0  0  0  0  0
  -18.9469  -30.1471   23.8856 C   0  0  0  0  0  0
  -17.6463  -30.6575   24.0558 C   0  0  0  0  0  0
  -25.9077  -34.9414   23.5075 C   0  0  0  0  0  0
  -16.5355  -29.9059   23.6342 C   0  0  0  0  0  0
  -16.7294  -28.6487   23.0344 C   0  0  0  0  0  0
  -26.4532  -31.6551   25.0746 C   0  0  0  0  0  0
  -25.3739  -31.3713   26.1450 C   0  0  0  0  0  0
  -27.0386  -30.2953   24.6306 C   0  0  0  0  0  0
  -27.6079  -32.4293   25.7533 C   0  0  0  0  0  0
  -27.5618  -37.1712   24.8415 C   0  0  0  0  0  0
  -21.4256  -29.3032   22.3620 N   0  0  0  0  0  0
  -26.4252  -37.3781   23.9472 N   0  0  0  0  0  0
  -24.7148  -31.0335   22.0983 N   0  0  0  0  0  0
  -23.4206  -28.8085   23.3030 O   0  0  0  0  0  0
  -28.2624  -26.1830   20.1823 O   0  0  0  0  0  0
  -26.5652  -34.8915   22.4644 O   0  0  0  0  0  0
  -23.5542  -32.1335   23.7166 O   0  0  0  0  0  0
  -29.7782  -18.4724   21.4305 C   0  0  0  0  0  0
  -29.3681  -19.8153   20.9380 C   0  0  0  0  0  0
  -28.9841  -19.7709   19.6335 C   0  0  0  0  0  0
  -29.7312  -17.3774   20.5406 C   0  0  0  0  0  0
  -29.1318  -21.1452   21.7168 C   0  0  0  0  0  0
  -28.2413  -20.9255   18.9230 C   0  0  0  0  0  0
  -29.6828  -22.5661   21.1903 C   0  0  0  0  0  0
  -28.8669  -22.3818   18.7622 C   0  0  0  0  0  0
  -29.1188  -23.4365   19.9497 C   0  0  2  0  0  0
  -30.3111  -24.2876   19.4435 C   0  0  0  0  0  0
  -27.1722  -24.3570   21.4632 C   0  0  0  0  0  0
  -27.9784  -24.6521   20.1858 C   0  0  1  0  0  0
  -29.7549  -15.9697   20.8081 N   0  0  0  0  0  0
  -29.2314  -18.1098   18.9890 S   0  0  0  0  0  0
  -31.4791  -12.6707   19.1926 H   0  0  0  0  0  0
  -30.4045  -11.5611   19.9934 H   0  0  0  0  0  0
  -29.8232  -11.7561   17.5483 H   0  0  0  0  0  0
  -29.6392  -13.4835   17.7181 H   0  0  0  0  0  0
  -27.9100  -11.2956   18.9047 H   0  0  0  0  0  0
  -27.4010  -12.5390   17.7959 H   0  0  0  0  0  0
  -27.6184  -14.2652   19.4611 H   0  0  0  0  0  0
  -28.7343  -12.2071   21.4270 H   0  0  0  0  0  0
  -28.3824  -13.8743   21.7956 H   0  0  0  0  0  0
  -25.2810   -9.5669   22.4676 H   0  0  0  0  0  0
  -24.0062   -7.4630   22.7440 H   0  0  0  0  0  0
  -21.0878   -8.8734   19.8906 H   0  0  0  0  0  0
  -22.3740  -10.9621   19.6122 H   0  0  0  0  0  0
  -21.2016   -7.6149   23.9702 H   0  0  0  0  0  0
  -21.1485   -6.0517   25.9066 H   0  0  0  0  0  0
  -22.0607   -2.7607   23.2830 H   0  0  0  0  0  0
  -22.4216  -11.9835   22.4844 H   0  0  0  0  0  0
  -21.1083  -13.0991   22.2612 H   0  0  0  0  0  0
  -24.6528  -15.8487   20.5418 H   0  0  0  0  0  0
  -26.2719  -15.6376   20.0992 H   0  0  0  0  0  0
  -26.7261  -32.5316   23.1049 H   0  0  0  0  0  0
  -25.0164  -33.9655   25.0411 H   0  0  0  0  0  0
  -22.7445  -31.2936   21.3903 H   0  0  0  0  0  0
  -23.3844  -35.9461   23.3076 H   0  0  0  0  0  0
  -24.3653  -36.9090   22.2091 H   0  0  0  0  0  0
  -23.7114  -37.6314   23.6788 H   0  0  0  0  0  0
  -26.1557  -31.4876   20.6277 H   0  0  0  0  0  0
  -26.8696  -30.7677   22.0373 H   0  0  0  0  0  0
  -28.1251  -28.8076   21.2359 H   0  0  0  0  0  0
  -25.8988  -25.8996   18.9345 H   0  0  0  0  0  0
  -23.9737  -27.3312   18.9582 H   0  0  0  0  0  0
  -23.8050  -30.5869   19.4060 H   0  0  0  0  0  0
  -22.7833  -29.2495   19.8437 H   0  0  0  0  0  0
  -25.1271  -36.1835   25.0794 H   0  0  0  0  0  0
  -20.9996  -28.3297   24.1358 H   0  0  0  0  0  0
  -20.5722  -26.2320   23.3604 H   0  0  0  0  0  0
  -21.6659  -26.7440   22.1185 H   0  0  0  0  0  0
  -19.6947  -25.6289   21.1251 H   0  0  0  0  0  0
  -19.6729  -27.3185   20.6729 H   0  0  0  0  0  0
  -17.4235  -26.6682   21.4004 H   0  0  0  0  0  0
  -18.0340  -26.0074   22.9016 H   0  0  0  0  0  0
  -19.7937  -30.7322   24.2194 H   0  0  0  0  0  0
  -17.4999  -31.6251   24.5166 H   0  0  0  0  0  0
  -15.5352  -30.2945   23.7676 H   0  0  0  0  0  0
  -15.8703  -28.0809   22.7050 H   0  0  0  0  0  0
  -24.5913  -30.7069   25.7770 H   0  0  0  0  0  0
  -24.8942  -32.2882   26.4875 H   0  0  0  0  0  0
  -25.8055  -30.8889   27.0231 H   0  0  0  0  0  0
  -26.2994  -29.6677   24.1314 H   0  0  0  0  0  0
  -27.4006  -29.7248   25.4872 H   0  0  0  0  0  0
  -27.8908  -30.4192   23.9617 H   0  0  0  0  0  0
  -27.2680  -33.3585   26.2102 H   0  0  0  0  0  0
  -28.3901  -32.6840   25.0374 H   0  0  0  0  0  0
  -28.0716  -31.8415   26.5460 H   0  0  0  0  0  0
  -28.2398  -38.0238   24.7814 H   0  0  0  0  0  0
  -28.1360  -36.2807   24.5790 H   0  0  0  0  0  0
  -27.2411  -37.0806   25.8813 H   0  0  0  0  0  0
  -20.9478  -29.8740   21.6795 H   0  0  0  0  0  0
  -26.0101  -38.2787   24.1710 H   0  0  0  0  0  0
  -30.0163  -18.3498   22.4792 H   0  0  0  0  0  0
  -29.5493  -21.0063   22.7156 H   0  0  0  0  0  0
  -28.0613  -21.2517   21.8950 H   0  0  0  0  0  0
  -27.2627  -21.0384   19.3942 H   0  0  0  0  0  0
  -28.0081  -20.5775   17.9128 H   0  0  0  0  0  0
  -30.7467  -22.3923   21.0214 H   0  0  0  0  0  0
  -29.6685  -23.2316   22.0538 H   0  0  0  0  0  0
  -28.2523  -22.8928   18.0211 H   0  0  0  0  0  0
  -29.8057  -22.2132   18.2345 H   0  0  0  0  0  0
  -31.1980  -23.6947   19.2168 H   0  0  0  0  0  0
  -30.6103  -25.0380   20.1766 H   0  0  0  0  0  0
  -30.0430  -24.8200   18.5279 H   0  0  0  0  0  0
  -26.8925  -23.3051   21.5217 H   0  0  0  0  0  0
  -26.2458  -24.9278   21.5061 H   0  0  0  0  0  0
  -27.7481  -24.6016   22.3552 H   0  0  0  0  0  0
  -27.3038  -24.4829   19.3507 H   0  0  0  0  0  0
  -28.9150  -15.6509   21.2689 H   0  0  0  0  0  0
  1 25  1  0  0  0
  1 30  2  0  0  0
  1 83  1  0  0  0
  2  3  1  0  0  0
  2 25  1  0  0  0
  2 85  1  0  0  0
  2 86  1  0  0  0
  3  4  1  0  0  0
  3 87  1  0  0  0
  3 88  1  0  0  0
  4  5  1  0  0  0
  4 89  1  0  0  0
  4 90  1  0  0  0
  5  6  1  0  0  0
  5 26  1  0  0  0
  5 91  1  0  0  0
  6 25  1  0  0  0
  6 92  1  0  0  0
  6 93  1  0  0  0
  7  8  2  0  0  0
  7 26  1  0  0  0
  7 29  1  0  0  0
  8  9  1  0  0  0
  8 22  1  0  0  0
  9 10  1  0  0  0
  9 27  2  0  0  0
 10 11  2  0  0  0
 10 15  1  0  0  0
 11 12  1  0  0  0
 11 94  1  0  0  0
 12 13  2  0  0  0
 12 95  1  0  0  0
 13 14  1  0  0  0
 13 31  1  0  0  0
 14 15  2  0  0  0
 14 96  1  0  0  0
 15 97  1  0  0  0
 16 17  2  0  0  0
 16 21  1  0  0  0
 16 31  1  0  0  0
 17 18  1  0  0  0
 17 98  1  0  0  0
 18 19  2  0  0  0
 18 99  1  0  0  0
 19 20  1  0  0  0
 19 24  1  0  0  0
 20 21  2  0  0  0
 20100  1  0  0  0
 21 23  1  0  0  0
 22 28  1  0  0  0
 22 32  2  0  0  0
 26 27  1  0  0  0
 28101  1  0  0  0
 28102  1  0  0  0
 29103  1  0  0  0
 29104  1  0  0  0
 33 34  1  0  0  0
 33 66  1  0  0  0
 33 70  2  0  0  0
 34 36  1  0  0  0
 34 59  1  0  0  0
 34105  1  0  0  0
 35 44  2  0  0  0
 35 45  1  0  0  0
 35 68  1  0  0  0
 36 56  1  0  0  0
 36106  1  0  0  0
 37 39  1  0  0  0
 37 47  1  0  0  0
 37 66  1  0  0  0
 37107  1  0  0  0
 38 43  2  0  0  0
 38 46  1  0  0  0
 38 47  1  0  0  0
 39 64  1  0  0  0
 39 67  2  0  0  0
 40 52  1  0  0  0
 40 53  2  0  0  0
 40 58  1  0  0  0
 41108  1  0  0  0
 41109  1  0  0  0
 41110  1  0  0  0
 41 48  1  0  0  0
 42 43  1  0  0  0
 42 66  1  0  0  0
 42111  1  0  0  0
 42112  1  0  0  0
 43 44  1  0  0  0
 44113  1  0  0  0
 45 46  2  0  0  0
 45114  1  0  0  0
 46115  1  0  0  0
 47116  1  0  0  0
 47117  1  0  0  0
 48 56  1  0  0  0
 48 65  1  0  0  0
 48118  1  0  0  0
 49 50  1  0  0  0
 49 53  1  0  0  0
 49 64  1  0  0  0
 49119  1  0  0  0
 50 51  1  0  0  0
 50120  1  0  0  0
 50121  1  0  0  0
 51 52  1  0  0  0
 51122  1  0  0  0
 51123  1  0  0  0
 52124  1  0  0  0
 52125  1  0  0  0
 53 54  1  0  0  0
 54 55  2  0  0  0
 54126  1  0  0  0
 55 57  1  0  0  0
 55127  1  0  0  0
 56 69  2  0  0  0
 57 58  2  0  0  0
 57128  1  0  0  0
 58129  1  0  0  0
 59 60  1  0  0  0
 59 61  1  0  0  0
 59 62  1  0  0  0
 60130  1  0  0  0
 60131  1  0  0  0
 60132  1  0  0  0
 61133  1  0  0  0
 61134  1  0  0  0
 61135  1  0  0  0
 62136  1  0  0  0
 62137  1  0  0  0
 62138  1  0  0  0
 63 65  1  0  0  0
 63139  1  0  0  0
 63140  1  0  0  0
 63141  1  0  0  0
 64142  1  0  0  0
 65143  1  0  0  0
 68 82  1  0  0  0
 71 72  1  0  0  0
 71 74  2  0  0  0
 71144  1  0  0  0
 72 73  2  0  0  0
 72 75  1  0  0  0
 73 76  1  0  0  0
 73 84  1  0  0  0
 74 83  1  0  0  0
 74 84  1  0  0  0
 75 77  1  0  0  0
 75145  1  0  0  0
 75146  1  0  0  0
 76 78  1  0  0  0
 76147  1  0  0  0
 76148  1  0  0  0
 77 79  1  0  0  0
 77149  1  0  0  0
 77150  1  0  0  0
 78 79  1  0  0  0
 78151  1  0  0  0
 78152  1  0  0  0
 79 80  1  0  0  0
 79 82  1  0  0  0
 80153  1  0  0  0
 80154  1  0  0  0
 80155  1  0  0  0
 81156  1  0  0  0
 81157  1  0  0  0
 81158  1  0  0  0
 81 82  1  0  0  0
 82159  1  0  0  0
 83160  1  0  0  0
M  ISO  4   1 100  68 101  82 101  83 100
M  END
> <chiral flag>
0

> <version>
0

> <s_m_source_file>
/data/baiqing/PycharmProjects/Reinvent-master-3.2/result/LINK_invent/BTK/process_docking_weight1_custom_product_contain_oxygen_bond_distance_aromatic_linkinvent_7_9_3/rearranged_h_0143.sdf

> <i_m_source_file_index>
78

> <r_mmod_Potential_Energy-OPLS-2005>
449.654144287109

> <r_mmod_Stretch_Energy-OPLS-2005>
192.840377807617

> <r_mmod_Bend_Energy-OPLS-2005>
281.984283447266

> <r_mmod_Torsional_Energy-OPLS-2005>
289.349914550781

> <r_mmod_Improper_Torsional_Energy-OPLS-2005>
6.17147588729858

> <r_mmod_Van_der_Waal_Energy-OPLS-2005>
117.742683410645

> <r_mmod_Electrostatic_Energy-OPLS-2005>
-390.268096923828

> <r_mmod_Solvation_Energy-OPLS-2005>
-202.034225463867

> <b_mmod_Minimization_Converged-OPLS-2005>
0

> <r_mmod_RMS_Derivative-OPLS-2005>
3.27926301956177

$$$$
78
                    3D
 Structure written by MMmdl.
162170  0  0  1  0            999 V2000
  -30.7180  -14.4068   20.6877 C   0  0  0  0  0  0
  -30.4343  -12.3137   19.3989 C   0  0  0  0  0  0
  -29.4917  -12.5296   18.1966 C   0  0  0  0  0  0
  -28.0142  -12.3836   18.6113 C   0  0  0  0  0  0
  -27.6686  -13.2014   19.8821 C   0  0  2  0  0  0
  -28.7045  -12.9255   20.9938 C   0  0  0  0  0  0
  -25.2600  -13.8155   20.5664 C   0  0  0  0  0  0
  -24.1843  -13.0438   20.9162 C   0  0  0  0  0  0
  -24.6394  -11.6904   20.8719 C   0  0  0  0  0  0
  -23.9063  -10.4293   21.0407 C   0  0  0  0  0  0
  -24.3619   -9.4206   21.9183 C   0  0  0  0  0  0
  -23.6293   -8.2242   22.0761 C   0  0  0  0  0  0
  -22.4267   -8.0295   21.3555 C   0  0  0  0  0  0
  -21.9896   -9.0269   20.4655 C   0  0  0  0  0  0
  -22.7234  -10.2138   20.3061 C   0  0  0  0  0  0
  -21.6837   -6.0745   22.5289 C   0  0  0  0  0  0
  -21.4011   -6.5645   23.8227 C   0  0  0  0  0  0
  -21.3662   -5.6792   24.9182 C   0  0  0  0  0  0
  -21.6037   -4.3056   24.7220 C   0  0  0  0  0  0
  -21.8811   -3.8157   23.4339 C   0  0  0  0  0  0
  -21.9180   -4.6976   22.3402 C   0  0  0  0  0  0
  -22.7859  -13.5243   21.1826 C   0  0  0  0  0  0
  -22.1649   -4.2177   21.0974 F   0  0  0  0  0  0
  -21.5628   -3.4535   25.7725 F   0  0  0  0  0  0
  -30.0498  -13.2424   20.4724 N   0  0  0  0  0  0
  -26.3052  -12.9321   20.3374 N   0  0  0  0  0  0
  -25.9316  -11.6485   20.5739 N   0  0  0  0  0  0
  -22.0483  -12.8273   22.0397 N   0  0  0  0  0  0
  -25.4303  -15.1877   20.4089 N   0  0  0  0  0  0
  -31.7226  -14.7427   20.0506 O   0  0  0  0  0  0
  -21.6630   -6.8894   21.4255 O   0  0  0  0  0  0
  -22.3540  -14.5546   20.6669 O   0  0  0  0  0  0
  -24.6124  -31.8693   23.2110 C   0  0  0  0  0  0
  -25.9028  -32.4832   23.8397 C   0  0  1  0  0  0
  -27.2410  -27.4474   20.0705 C   0  0  0  0  0  0
  -25.5871  -33.8627   24.2327 N   0  0  0  0  0  0
  -23.4006  -30.4942   21.5509 C   0  0  2  0  0  0
  -24.8466  -28.9588   20.1184 C   0  0  0  0  0  0
  -22.7399  -29.4669   22.4985 C   0  0  0  0  0  0
  -18.0274  -28.1393   22.8486 C   0  0  0  0  0  0
  -24.1480  -36.7326   23.2641 C   0  0  0  0  0  0
  -25.9297  -30.8307   21.3687 C   0  0  0  0  0  0
  -26.0050  -29.4637   20.7201 C   0  0  0  0  0  0
  -27.1982  -28.7077   20.7098 C   0  0  0  0  0  0
  -26.0594  -26.9521   19.4720 C   0  0  0  0  0  0
  -24.8658  -27.6967   19.5000 C   0  0  0  0  0  0
  -23.6111  -29.8282   20.1653 C   0  0  0  0  0  0
  -25.4097  -36.3118   24.0342 C   0  0  1  0  0  0
  -20.5864  -28.3679   23.1318 C   0  0  2  0  0  0
  -20.6766  -26.9410   22.5431 C   0  0  0  0  0  0
  -19.5747  -26.6397   21.5219 C   0  0  0  0  0  0
  -18.1924  -26.7937   22.1627 C   0  0  0  0  0  0
  -19.1526  -28.8847   23.2905 C   0  0  0  0  0  0
  -18.9456  -30.1446   23.8928 C   0  0  0  0  0  0
  -17.6466  -30.6593   24.0580 C   0  0  0  0  0  0
  -25.9033  -34.9485   23.5138 C   0  0  0  0  0  0
  -16.5354  -29.9109   23.6323 C   0  0  0  0  0  0
  -16.7270  -28.6529   23.0334 C   0  0  0  0  0  0
  -26.4460  -31.6606   25.0720 C   0  0  0  0  0  0
  -25.3732  -31.3721   26.1480 C   0  0  0  0  0  0
  -27.0291  -30.3039   24.6109 C   0  0  0  0  0  0
  -27.6035  -32.4326   25.7476 C   0  0  0  0  0  0
  -27.5580  -37.1811   24.8460 C   0  0  0  0  0  0
  -21.4131  -29.3040   22.3721 N   0  0  0  0  0  0
  -26.4282  -37.3802   23.9418 N   0  0  0  0  0  0
  -24.6661  -31.0794   22.1014 N   0  0  0  0  0  0
  -23.4180  -28.8216   23.3031 O   0  0  0  0  0  0
  -28.4255  -26.7368   20.0548 O   0  0  0  0  0  0
  -26.5609  -34.8935   22.4709 O   0  0  0  0  0  0
  -23.5315  -32.1457   23.7498 O   0  0  0  0  0  0
  -30.6242  -16.9074   23.3105 C   0  0  0  0  0  0
  -30.4727  -19.2581   22.6713 C   0  0  0  0  0  0
  -30.1742  -17.5206   20.9886 C   0  0  0  0  0  0
  -30.6807  -18.2726   23.6565 C   0  0  0  0  0  0
  -30.3878  -16.5213   21.9756 C   0  0  0  0  0  0
  -30.1936  -18.8989   21.3287 C   0  0  0  0  0  0
  -30.9426  -18.6734   25.0377 C   0  0  0  0  0  0
  -29.3536  -22.1149   19.5991 C   0  0  0  0  0  0
  -29.4652  -23.6392   19.7968 C   0  0  0  0  0  0
  -29.8775  -21.2191   20.7319 C   0  0  0  0  0  0
  -28.4217  -24.4580   18.9977 C   0  0  0  0  0  0
  -28.7284  -25.9688   18.8836 C   0  0  0  0  0  0
  -31.8776  -18.0598   25.7552 N   0  0  0  0  0  0
  -30.2422  -15.1306   21.7147 N   0  0  0  0  0  0
  -30.2538  -19.6685   25.5949 N   0  3  0  0  0  0
  -28.8614  -21.6320   18.5733 O   0  0  0  0  0  0
  -29.9229  -19.8352   20.3422 O   0  0  0  0  0  0
  -31.4755  -12.4436   19.0941 H   0  0  0  0  0  0
  -30.3628  -11.2881   19.7619 H   0  0  0  0  0  0
  -29.7277  -11.8176   17.4053 H   0  0  0  0  0  0
  -29.6569  -13.5205   17.7709 H   0  0  0  0  0  0
  -27.8169  -11.3255   18.7873 H   0  0  0  0  0  0
  -27.3627  -12.6775   17.7879 H   0  0  0  0  0  0
  -27.7305  -14.2577   19.6188 H   0  0  0  0  0  0
  -28.6732  -11.8738   21.2803 H   0  0  0  0  0  0
  -28.4383  -13.4692   21.9002 H   0  0  0  0  0  0
  -25.2774   -9.5667   22.4746 H   0  0  0  0  0  0
  -24.0003   -7.4622   22.7471 H   0  0  0  0  0  0
  -21.0827   -8.8795   19.8963 H   0  0  0  0  0  0
  -22.3714  -10.9680   19.6167 H   0  0  0  0  0  0
  -21.2019   -7.6153   23.9742 H   0  0  0  0  0  0
  -21.1486   -6.0515   25.9085 H   0  0  0  0  0  0
  -22.0587   -2.7624   23.2818 H   0  0  0  0  0  0
  -22.4070  -11.9949   22.4843 H   0  0  0  0  0  0
  -21.1109  -13.1343   22.2587 H   0  0  0  0  0  0
  -24.6636  -15.8431   20.5229 H   0  0  0  0  0  0
  -26.2878  -15.6319   20.1053 H   0  0  0  0  0  0
  -26.7092  -32.5557   23.1159 H   0  0  0  0  0  0
  -24.9947  -33.9782   25.0419 H   0  0  0  0  0  0
  -22.6884  -31.3104   21.4123 H   0  0  0  0  0  0
  -23.3731  -35.9670   23.3306 H   0  0  0  0  0  0
  -24.3578  -36.8944   22.2056 H   0  0  0  0  0  0
  -23.7245  -37.6532   23.6663 H   0  0  0  0  0  0
  -26.0460  -31.5939   20.5981 H   0  0  0  0  0  0
  -26.8167  -30.8832   21.9888 H   0  0  0  0  0  0
  -28.0940  -29.0980   21.1727 H   0  0  0  0  0  0
  -26.0436  -25.9932   18.9781 H   0  0  0  0  0  0
  -23.9735  -27.3013   19.0352 H   0  0  0  0  0  0
  -23.7278  -30.6048   19.4081 H   0  0  0  0  0  0
  -22.7334  -29.2537   19.8633 H   0  0  0  0  0  0
  -25.1265  -36.1981   25.0831 H   0  0  0  0  0  0
  -20.9964  -28.3254   24.1435 H   0  0  0  0  0  0
  -20.5675  -26.2278   23.3619 H   0  0  0  0  0  0
  -21.6638  -26.7458   22.1225 H   0  0  0  0  0  0
  -19.6915  -25.6314   21.1231 H   0  0  0  0  0  0
  -19.6693  -27.3223   20.6758 H   0  0  0  0  0  0
  -17.4195  -26.6682   21.4025 H   0  0  0  0  0  0
  -18.0324  -26.0079   22.9021 H   0  0  0  0  0  0
  -19.7933  -30.7242   24.2320 H   0  0  0  0  0  0
  -17.5030  -31.6273   24.5184 H   0  0  0  0  0  0
  -15.5364  -30.3036   23.7631 H   0  0  0  0  0  0
  -15.8661  -28.0877   22.7029 H   0  0  0  0  0  0
  -24.5874  -30.7104   25.7816 H   0  0  0  0  0  0
  -24.8964  -32.2890   26.4952 H   0  0  0  0  0  0
  -25.8085  -30.8856   27.0223 H   0  0  0  0  0  0
  -26.2839  -29.6792   24.1166 H   0  0  0  0  0  0
  -27.4049  -29.7276   25.4576 H   0  0  0  0  0  0
  -27.8683  -30.4331   23.9273 H   0  0  0  0  0  0
  -27.2642  -33.3605   26.2092 H   0  0  0  0  0  0
  -28.3820  -32.6927   25.0293 H   0  0  0  0  0  0
  -28.0740  -31.8438   26.5361 H   0  0  0  0  0  0
  -28.2593  -38.0111   24.7506 H   0  0  0  0  0  0
  -28.1077  -36.2643   24.6272 H   0  0  0  0  0  0
  -27.2307  -37.1450   25.8865 H   0  0  0  0  0  0
  -20.9299  -29.8744   21.6921 H   0  0  0  0  0  0
  -26.0170  -38.2880   24.1420 H   0  0  0  0  0  0
  -30.7528  -16.1559   24.0765 H   0  0  0  0  0  0
  -30.5283  -20.2923   22.9778 H   0  0  0  0  0  0
  -29.9518  -17.2356   19.9707 H   0  0  0  0  0  0
  -30.4697  -23.9259   19.4854 H   0  0  0  0  0  0
  -29.3902  -23.8743   20.8593 H   0  0  0  0  0  0
  -29.2070  -21.3492   21.5812 H   0  0  0  0  0  0
  -30.8699  -21.5580   21.0301 H   0  0  0  0  0  0
  -27.4295  -24.2929   19.4152 H   0  0  0  0  0  0
  -28.3819  -24.0735   17.9773 H   0  0  0  0  0  0
  -28.2140  -26.3848   18.0146 H   0  0  0  0  0  0
  -29.7880  -26.1008   18.6639 H   0  0  0  0  0  0
  -32.4485  -17.3558   25.3105 H   0  0  0  0  0  0
  -32.0894  -18.3053   26.7094 H   0  0  0  0  0  0
  -29.6009  -14.6352   22.3162 H   0  0  0  0  0  0
  -29.4881  -20.0850   25.0859 H   0  0  0  0  0  0
  -30.4551  -20.0150   26.5192 H   0  0  0  0  0  0
  1 25  1  0  0  0
  1 30  2  0  0  0
  1 84  1  0  0  0
  2  3  1  0  0  0
  2 25  1  0  0  0
  2 88  1  0  0  0
  2 89  1  0  0  0
  3  4  1  0  0  0
  3 90  1  0  0  0
  3 91  1  0  0  0
  4  5  1  0  0  0
  4 92  1  0  0  0
  4 93  1  0  0  0
  5  6  1  0  0  0
  5 26  1  0  0  0
  5 94  1  0  0  0
  6 25  1  0  0  0
  6 95  1  0  0  0
  6 96  1  0  0  0
  7  8  2  0  0  0
  7 26  1  0  0  0
  7 29  1  0  0  0
  8  9  1  0  0  0
  8 22  1  0  0  0
  9 10  1  0  0  0
  9 27  2  0  0  0
 10 11  2  0  0  0
 10 15  1  0  0  0
 11 12  1  0  0  0
 11 97  1  0  0  0
 12 13  2  0  0  0
 12 98  1  0  0  0
 13 14  1  0  0  0
 13 31  1  0  0  0
 14 15  2  0  0  0
 14 99  1  0  0  0
 15100  1  0  0  0
 16 17  2  0  0  0
 16 21  1  0  0  0
 16 31  1  0  0  0
 17 18  1  0  0  0
 17101  1  0  0  0
 18 19  2  0  0  0
 18102  1  0  0  0
 19 20  1  0  0  0
 19 24  1  0  0  0
 20 21  2  0  0  0
 20103  1  0  0  0
 21 23  1  0  0  0
 22 28  1  0  0  0
 22 32  2  0  0  0
 26 27  1  0  0  0
 28104  1  0  0  0
 28105  1  0  0  0
 29106  1  0  0  0
 29107  1  0  0  0
 33 34  1  0  0  0
 33 66  1  0  0  0
 33 70  2  0  0  0
 34 36  1  0  0  0
 34 59  1  0  0  0
 34108  1  0  0  0
 35 44  2  0  0  0
 35 45  1  0  0  0
 35 68  1  0  0  0
 36 56  1  0  0  0
 36109  1  0  0  0
 37 39  1  0  0  0
 37 47  1  0  0  0
 37 66  1  0  0  0
 37110  1  0  0  0
 38 43  2  0  0  0
 38 46  1  0  0  0
 38 47  1  0  0  0
 39 64  1  0  0  0
 39 67  2  0  0  0
 40 52  1  0  0  0
 40 53  2  0  0  0
 40 58  1  0  0  0
 41111  1  0  0  0
 41112  1  0  0  0
 41113  1  0  0  0
 41 48  1  0  0  0
 42 43  1  0  0  0
 42 66  1  0  0  0
 42114  1  0  0  0
 42115  1  0  0  0
 43 44  1  0  0  0
 44116  1  0  0  0
 45 46  2  0  0  0
 45117  1  0  0  0
 46118  1  0  0  0
 47119  1  0  0  0
 47120  1  0  0  0
 48 56  1  0  0  0
 48 65  1  0  0  0
 48121  1  0  0  0
 49 50  1  0  0  0
 49 53  1  0  0  0
 49 64  1  0  0  0
 49122  1  0  0  0
 50 51  1  0  0  0
 50123  1  0  0  0
 50124  1  0  0  0
 51 52  1  0  0  0
 51125  1  0  0  0
 51126  1  0  0  0
 52127  1  0  0  0
 52128  1  0  0  0
 53 54  1  0  0  0
 54 55  2  0  0  0
 54129  1  0  0  0
 55 57  1  0  0  0
 55130  1  0  0  0
 56 69  2  0  0  0
 57 58  2  0  0  0
 57131  1  0  0  0
 58132  1  0  0  0
 59 60  1  0  0  0
 59 61  1  0  0  0
 59 62  1  0  0  0
 60133  1  0  0  0
 60134  1  0  0  0
 60135  1  0  0  0
 61136  1  0  0  0
 61137  1  0  0  0
 61138  1  0  0  0
 62139  1  0  0  0
 62140  1  0  0  0
 62141  1  0  0  0
 63 65  1  0  0  0
 63142  1  0  0  0
 63143  1  0  0  0
 63144  1  0  0  0
 64145  1  0  0  0
 65146  1  0  0  0
 68 82  1  0  0  0
 71 74  2  0  0  0
 71 75  1  0  0  0
 71147  1  0  0  0
 72 74  1  0  0  0
 72 76  2  0  0  0
 72148  1  0  0  0
 73 75  2  0  0  0
 73 76  1  0  0  0
 73149  1  0  0  0
 74 77  1  0  0  0
 75 84  1  0  0  0
 76 87  1  0  0  0
 77 83  1  0  0  0
 77 85  2  0  0  0
 78 79  1  0  0  0
 78 80  1  0  0  0
 78 86  2  0  0  0
 79 81  1  0  0  0
 79150  1  0  0  0
 79151  1  0  0  0
 80 87  1  0  0  0
 80152  1  0  0  0
 80153  1  0  0  0
 81 82  1  0  0  0
 81154  1  0  0  0
 81155  1  0  0  0
 82156  1  0  0  0
 82157  1  0  0  0
 83158  1  0  0  0
 83159  1  0  0  0
 84160  1  0  0  0
 85161  1  0  0  0
 85162  1  0  0  0
M  CHG  1  85   1
M  ISO  4   1 100  68 101  82 101  84 100
M  END
> <chiral flag>
0

> <version>
0

> <s_m_source_file>
/data/baiqing/PycharmProjects/Reinvent-master-3.2/result/LINK_invent/BTK/process_docking_weight1_custom_product_contain_oxygen_bond_distance_aromatic_linkinvent_7_9_3/rearranged_h_0143.sdf

> <i_m_source_file_index>
79

> <r_mmod_Potential_Energy-OPLS-2005>
-372.788665771484

> <r_mmod_Stretch_Energy-OPLS-2005>
38.0169296264648

> <r_mmod_Bend_Energy-OPLS-2005>
101.589141845703

> <r_mmod_Torsional_Energy-OPLS-2005>
229.737335205078

> <r_mmod_Improper_Torsional_Energy-OPLS-2005>
2.96039223670959

> <r_mmod_Van_der_Waal_Energy-OPLS-2005>
162.751007080078

> <r_mmod_Electrostatic_Energy-OPLS-2005>
-432.851226806641

> <r_mmod_Solvation_Energy-OPLS-2005>
-484.504577636719

> <b_mmod_Minimization_Converged-OPLS-2005>
0

> <r_mmod_RMS_Derivative-OPLS-2005>
2.15855050086975

$$$$
79
                    3D
 Structure written by MMmdl.
162170  0  0  1  0            999 V2000
  -30.6516  -14.5271   20.5512 C   0  0  0  0  0  0
  -30.4285  -12.3268   19.4481 C   0  0  0  0  0  0
  -29.5104  -12.5060   18.2227 C   0  0  0  0  0  0
  -28.0226  -12.3966   18.6155 C   0  0  0  0  0  0
  -27.6621  -13.2117   19.8861 C   0  0  2  0  0  0
  -28.7001  -12.9938   21.0101 C   0  0  0  0  0  0
  -25.2592  -13.8166   20.5693 C   0  0  0  0  0  0
  -24.1841  -13.0429   20.9124 C   0  0  0  0  0  0
  -24.6390  -11.6894   20.8679 C   0  0  0  0  0  0
  -23.9066  -10.4283   21.0372 C   0  0  0  0  0  0
  -24.3613   -9.4203   21.9162 C   0  0  0  0  0  0
  -23.6290   -8.2238   22.0757 C   0  0  0  0  0  0
  -22.4275   -8.0277   21.3531 C   0  0  0  0  0  0
  -21.9914   -9.0248   20.4628 C   0  0  0  0  0  0
  -22.7236  -10.2124   20.3032 C   0  0  0  0  0  0
  -21.6855   -6.0727   22.5262 C   0  0  0  0  0  0
  -21.4036   -6.5644   23.8195 C   0  0  0  0  0  0
  -21.3661   -5.6797   24.9162 C   0  0  0  0  0  0
  -21.6027   -4.3061   24.7215 C   0  0  0  0  0  0
  -21.8824   -3.8143   23.4343 C   0  0  0  0  0  0
  -21.9198   -4.6953   22.3393 C   0  0  0  0  0  0
  -22.7871  -13.5214   21.1823 C   0  0  0  0  0  0
  -22.1666   -4.2132   21.0971 F   0  0  0  0  0  0
  -21.5614   -3.4549   25.7738 F   0  0  0  0  0  0
  -30.0261  -13.3169   20.4632 N   0  0  0  0  0  0
  -26.3020  -12.9322   20.3399 N   0  0  0  0  0  0
  -25.9319  -11.6471   20.5715 N   0  0  0  0  0  0
  -22.0551  -12.8182   22.0375 N   0  0  0  0  0  0
  -25.4410  -15.1880   20.4179 N   0  0  0  0  0  0
  -31.7863  -14.7196   20.1014 O   0  0  0  0  0  0
  -21.6634   -6.8866   21.4228 O   0  0  0  0  0  0
  -22.3547  -14.5529   20.6689 O   0  0  0  0  0  0
  -24.6212  -31.8664   23.2091 C   0  0  0  0  0  0
  -25.9097  -32.4805   23.8395 C   0  0  1  0  0  0
  -27.2221  -27.3844   20.0911 C   0  0  0  0  0  0
  -25.5924  -33.8606   24.2307 N   0  0  0  0  0  0
  -23.4100  -30.4942   21.5494 C   0  0  2  0  0  0
  -24.8528  -28.9563   20.1122 C   0  0  0  0  0  0
  -22.7429  -29.4665   22.4951 C   0  0  0  0  0  0
  -18.0278  -28.1391   22.8497 C   0  0  0  0  0  0
  -24.1480  -36.7307   23.2643 C   0  0  0  0  0  0
  -25.9486  -30.8120   21.3762 C   0  0  0  0  0  0
  -26.0191  -29.4479   20.7119 C   0  0  0  0  0  0
  -27.2082  -28.6726   20.6911 C   0  0  0  0  0  0
  -26.0357  -26.9274   19.4738 C   0  0  0  0  0  0
  -24.8598  -27.6994   19.4864 C   0  0  0  0  0  0
  -23.6210  -29.8351   20.1631 C   0  0  0  0  0  0
  -25.4110  -36.3092   24.0327 C   0  0  1  0  0  0
  -20.5876  -28.3695   23.1282 C   0  0  2  0  0  0
  -20.6769  -26.9423   22.5422 C   0  0  0  0  0  0
  -19.5743  -26.6378   21.5226 C   0  0  0  0  0  0
  -18.1918  -26.7932   22.1639 C   0  0  0  0  0  0
  -19.1533  -28.8860   23.2880 C   0  0  0  0  0  0
  -18.9460  -30.1462   23.8902 C   0  0  0  0  0  0
  -17.6472  -30.6601   24.0571 C   0  0  0  0  0  0
  -25.9050  -34.9469   23.5113 C   0  0  0  0  0  0
  -16.5362  -29.9107   23.6330 C   0  0  0  0  0  0
  -16.7272  -28.6514   23.0362 C   0  0  0  0  0  0
  -26.4492  -31.6616   25.0769 C   0  0  0  0  0  0
  -25.3711  -31.3778   26.1484 C   0  0  0  0  0  0
  -27.0361  -30.3037   24.6247 C   0  0  0  0  0  0
  -27.6035  -32.4366   25.7548 C   0  0  0  0  0  0
  -27.5575  -37.1808   24.8458 C   0  0  0  0  0  0
  -21.4158  -29.3065   22.3684 N   0  0  0  0  0  0
  -26.4278  -37.3796   23.9411 N   0  0  0  0  0  0
  -24.6787  -31.0723   22.1021 N   0  0  0  0  0  0
  -23.4180  -28.8209   23.3005 O   0  0  0  0  0  0
  -28.3737  -26.6081   20.0929 O   0  0  0  0  0  0
  -26.5622  -34.8920   22.4673 O   0  0  0  0  0  0
  -23.5392  -32.1453   23.7446 O   0  0  0  0  0  0
  -29.0942  -19.0929   18.7366 C   0  0  0  0  0  0
  -29.2571  -16.6648   18.9315 C   0  0  0  0  0  0
  -29.7522  -18.0786   20.8565 C   0  0  0  0  0  0
  -28.9853  -17.8091   18.1632 C   0  0  0  0  0  0
  -29.4745  -19.2588   20.0916 C   0  0  0  0  0  0
  -29.6620  -16.7740   20.2779 C   0  0  0  0  0  0
  -29.5500  -24.3991   20.0801 C   0  0  0  0  0  0
  -29.2242  -21.7985   20.2482 C   0  0  0  0  0  0
  -28.5835  -17.6424   16.7120 C   0  0  0  0  0  0
  -29.3704  -23.2446   22.3557 C   0  0  0  0  0  0
  -31.4203  -22.8876   20.9198 C   0  0  0  0  0  0
  -28.2087  -25.1680   20.2654 C   0  0  0  0  0  0
  -29.8717  -23.0787   20.8964 C   0  0  0  0  0  0
  -29.6685  -20.5747   20.6650 N   0  0  0  0  0  0
  -29.8944  -15.5556   21.0142 N   0  0  0  0  0  0
  -30.3728  -24.8450   19.2687 O   0  0  0  0  0  0
  -28.3104  -21.9197   19.4292 O   0  0  0  0  0  0
  -31.4756  -12.4323   19.1536 H   0  0  0  0  0  0
  -30.3282  -11.3182   19.8507 H   0  0  0  0  0  0
  -29.7461  -11.7600   17.4601 H   0  0  0  0  0  0
  -29.6989  -13.4783   17.7647 H   0  0  0  0  0  0
  -27.7939  -11.3428   18.7736 H   0  0  0  0  0  0
  -27.4043  -12.7257   17.7797 H   0  0  0  0  0  0
  -27.7015  -14.2618   19.6043 H   0  0  0  0  0  0
  -28.6860  -11.9551   21.3471 H   0  0  0  0  0  0
  -28.4581  -13.5854   21.8942 H   0  0  0  0  0  0
  -25.2763   -9.5690   22.4723 H   0  0  0  0  0  0
  -23.9989   -7.4632   22.7494 H   0  0  0  0  0  0
  -21.0856   -8.8773   19.8920 H   0  0  0  0  0  0
  -22.3708  -10.9668   19.6144 H   0  0  0  0  0  0
  -21.2070   -7.6158   23.9704 H   0  0  0  0  0  0
  -21.1473   -6.0532   25.9053 H   0  0  0  0  0  0
  -22.0613   -2.7607   23.2859 H   0  0  0  0  0  0
  -22.4227  -11.9803   22.4643 H   0  0  0  0  0  0
  -21.1180  -13.1173   22.2634 H   0  0  0  0  0  0
  -24.6932  -15.8607   20.5421 H   0  0  0  0  0  0
  -26.3062  -15.6129   20.1099 H   0  0  0  0  0  0
  -26.7175  -32.5486   23.1159 H   0  0  0  0  0  0
  -25.0053  -33.9770   25.0430 H   0  0  0  0  0  0
  -22.7015  -31.3140   21.4137 H   0  0  0  0  0  0
  -23.3740  -35.9636   23.3296 H   0  0  0  0  0  0
  -24.3561  -36.8947   22.2055 H   0  0  0  0  0  0
  -23.7229  -37.6500   23.6682 H   0  0  0  0  0  0
  -26.0861  -31.5819   20.6165 H   0  0  0  0  0  0
  -26.8266  -30.8463   22.0100 H   0  0  0  0  0  0
  -28.1108  -29.0512   21.1516 H   0  0  0  0  0  0
  -25.9990  -25.9831   18.9522 H   0  0  0  0  0  0
  -23.9669  -27.3273   19.0030 H   0  0  0  0  0  0
  -23.7430  -30.6176   19.4130 H   0  0  0  0  0  0
  -22.7395  -29.2696   19.8562 H   0  0  0  0  0  0
  -25.1285  -36.1951   25.0820 H   0  0  0  0  0  0
  -20.9967  -28.3283   24.1405 H   0  0  0  0  0  0
  -20.5677  -26.2319   23.3631 H   0  0  0  0  0  0
  -21.6634  -26.7459   22.1215 H   0  0  0  0  0  0
  -19.6903  -25.6278   21.1282 H   0  0  0  0  0  0
  -19.6669  -27.3165   20.6740 H   0  0  0  0  0  0
  -17.4188  -26.6674   21.4040 H   0  0  0  0  0  0
  -18.0308  -26.0079   22.9035 H   0  0  0  0  0  0
  -19.7943  -30.7262   24.2263 H   0  0  0  0  0  0
  -17.5042  -31.6281   24.5178 H   0  0  0  0  0  0
  -15.5361  -30.3035   23.7652 H   0  0  0  0  0  0
  -15.8659  -28.0852   22.7084 H   0  0  0  0  0  0
  -24.5829  -30.7207   25.7796 H   0  0  0  0  0  0
  -24.8978  -32.2971   26.4939 H   0  0  0  0  0  0
  -25.7996  -30.8902   27.0243 H   0  0  0  0  0  0
  -26.2981  -29.6779   24.1216 H   0  0  0  0  0  0
  -27.3990  -29.7307   25.4792 H   0  0  0  0  0  0
  -27.8867  -30.4327   23.9547 H   0  0  0  0  0  0
  -27.2618  -33.3643   26.2144 H   0  0  0  0  0  0
  -28.3840  -32.6966   25.0389 H   0  0  0  0  0  0
  -28.0711  -31.8492   26.5457 H   0  0  0  0  0  0
  -28.2577  -38.0121   24.7526 H   0  0  0  0  0  0
  -28.1082  -36.2650   24.6252 H   0  0  0  0  0  0
  -27.2291  -37.1423   25.8859 H   0  0  0  0  0  0
  -20.9320  -29.8795   21.6921 H   0  0  0  0  0  0
  -26.0156  -38.2862   24.1424 H   0  0  0  0  0  0
  -28.9048  -19.9489   18.1067 H   0  0  0  0  0  0
  -29.1533  -15.6935   18.4694 H   0  0  0  0  0  0
  -30.0523  -18.1704   21.8927 H   0  0  0  0  0  0
  -28.9365  -18.4798   16.1073 H   0  0  0  0  0  0
  -27.4993  -17.5786   16.6259 H   0  0  0  0  0  0
  -29.0102  -16.7323   16.2880 H   0  0  0  0  0  0
  -28.3204  -22.9686   22.4590 H   0  0  0  0  0  0
  -29.4719  -24.2736   22.7067 H   0  0  0  0  0  0
  -29.9378  -22.6306   23.0578 H   0  0  0  0  0  0
  -31.8105  -22.5700   19.9513 H   0  0  0  0  0  0
  -31.7382  -22.1363   21.6448 H   0  0  0  0  0  0
  -31.9431  -23.8089   21.1822 H   0  0  0  0  0  0
  -27.7805  -24.9782   21.2495 H   0  0  0  0  0  0
  -27.5196  -24.7522   19.5322 H   0  0  0  0  0  0
  -30.2828  -20.6080   21.4656 H   0  0  0  0  0  0
  -29.1022  -15.2507   21.5617 H   0  0  0  0  0  0
  1 25  1  0  0  0
  1 30  2  0  0  0
  1 85  1  0  0  0
  2  3  1  0  0  0
  2 25  1  0  0  0
  2 88  1  0  0  0
  2 89  1  0  0  0
  3  4  1  0  0  0
  3 90  1  0  0  0
  3 91  1  0  0  0
  4  5  1  0  0  0
  4 92  1  0  0  0
  4 93  1  0  0  0
  5  6  1  0  0  0
  5 26  1  0  0  0
  5 94  1  0  0  0
  6 25  1  0  0  0
  6 95  1  0  0  0
  6 96  1  0  0  0
  7  8  2  0  0  0
  7 26  1  0  0  0
  7 29  1  0  0  0
  8  9  1  0  0  0
  8 22  1  0  0  0
  9 10  1  0  0  0
  9 27  2  0  0  0
 10 11  2  0  0  0
 10 15  1  0  0  0
 11 12  1  0  0  0
 11 97  1  0  0  0
 12 13  2  0  0  0
 12 98  1  0  0  0
 13 14  1  0  0  0
 13 31  1  0  0  0
 14 15  2  0  0  0
 14 99  1  0  0  0
 15100  1  0  0  0
 16 17  2  0  0  0
 16 21  1  0  0  0
 16 31  1  0  0  0
 17 18  1  0  0  0
 17101  1  0  0  0
 18 19  2  0  0  0
 18102  1  0  0  0
 19 20  1  0  0  0
 19 24  1  0  0  0
 20 21  2  0  0  0
 20103  1  0  0  0
 21 23  1  0  0  0
 22 28  1  0  0  0
 22 32  2  0  0  0
 26 27  1  0  0  0
 28104  1  0  0  0
 28105  1  0  0  0
 29106  1  0  0  0
 29107  1  0  0  0
 33 34  1  0  0  0
 33 66  1  0  0  0
 33 70  2  0  0  0
 34 36  1  0  0  0
 34 59  1  0  0  0
 34108  1  0  0  0
 35 44  2  0  0  0
 35 45  1  0  0  0
 35 68  1  0  0  0
 36 56  1  0  0  0
 36109  1  0  0  0
 37 39  1  0  0  0
 37 47  1  0  0  0
 37 66  1  0  0  0
 37110  1  0  0  0
 38 43  2  0  0  0
 38 46  1  0  0  0
 38 47  1  0  0  0
 39 64  1  0  0  0
 39 67  2  0  0  0
 40 52  1  0  0  0
 40 53  2  0  0  0
 40 58  1  0  0  0
 41111  1  0  0  0
 41112  1  0  0  0
 41113  1  0  0  0
 41 48  1  0  0  0
 42 43  1  0  0  0
 42 66  1  0  0  0
 42114  1  0  0  0
 42115  1  0  0  0
 43 44  1  0  0  0
 44116  1  0  0  0
 45 46  2  0  0  0
 45117  1  0  0  0
 46118  1  0  0  0
 47119  1  0  0  0
 47120  1  0  0  0
 48 56  1  0  0  0
 48 65  1  0  0  0
 48121  1  0  0  0
 49 50  1  0  0  0
 49 53  1  0  0  0
 49 64  1  0  0  0
 49122  1  0  0  0
 50 51  1  0  0  0
 50123  1  0  0  0
 50124  1  0  0  0
 51 52  1  0  0  0
 51125  1  0  0  0
 51126  1  0  0  0
 52127  1  0  0  0
 52128  1  0  0  0
 53 54  1  0  0  0
 54 55  2  0  0  0
 54129  1  0  0  0
 55 57  1  0  0  0
 55130  1  0  0  0
 56 69  2  0  0  0
 57 58  2  0  0  0
 57131  1  0  0  0
 58132  1  0  0  0
 59 60  1  0  0  0
 59 61  1  0  0  0
 59 62  1  0  0  0
 60133  1  0  0  0
 60134  1  0  0  0
 60135  1  0  0  0
 61136  1  0  0  0
 61137  1  0  0  0
 61138  1  0  0  0
 62139  1  0  0  0
 62140  1  0  0  0
 62141  1  0  0  0
 63 65  1  0  0  0
 63142  1  0  0  0
 63143  1  0  0  0
 63144  1  0  0  0
 64145  1  0  0  0
 65146  1  0  0  0
 68 82  1  0  0  0
 71 74  2  0  0  0
 71 75  1  0  0  0
 71147  1  0  0  0
 72 74  1  0  0  0
 72 76  2  0  0  0
 72148  1  0  0  0
 73 75  2  0  0  0
 73 76  1  0  0  0
 73149  1  0  0  0
 74 79  1  0  0  0
 75 84  1  0  0  0
 76 85  1  0  0  0
 77 82  1  0  0  0
 77 83  1  0  0  0
 77 86  2  0  0  0
 78 83  1  0  0  0
 78 84  1  0  0  0
 78 87  2  0  0  0
 79150  1  0  0  0
 79151  1  0  0  0
 79152  1  0  0  0
 80153  1  0  0  0
 80154  1  0  0  0
 80155  1  0  0  0
 80 83  1  0  0  0
 81 83  1  0  0  0
 81156  1  0  0  0
 81157  1  0  0  0
 81158  1  0  0  0
 82159  1  0  0  0
 82160  1  0  0  0
 84161  1  0  0  0
 85162  1  0  0  0
M  ISO  4   1 100  68 101  82 101  85 100
M  END
> <chiral flag>
0

> <version>
0

> <s_m_source_file>
/data/baiqing/PycharmProjects/Reinvent-master-3.2/result/LINK_invent/BTK/process_docking_weight1_custom_product_contain_oxygen_bond_distance_aromatic_linkinvent_7_9_3/rearranged_h_0143.sdf

> <i_m_source_file_index>
80

> <r_mmod_Potential_Energy-OPLS-2005>
63.4812545776367

> <r_mmod_Stretch_Energy-OPLS-2005>
61.6632843017578

> <r_mmod_Bend_Energy-OPLS-2005>
108.155570983887

> <r_mmod_Torsional_Energy-OPLS-2005>
299.789215087891

> <r_mmod_Improper_Torsional_Energy-OPLS-2005>
6.95999097824097

> <r_mmod_Van_der_Waal_Energy-OPLS-2005>
158.507888793945

> <r_mmod_Electrostatic_Energy-OPLS-2005>
-351.625091552734

> <r_mmod_Solvation_Energy-OPLS-2005>
-241.250564575195

> <b_mmod_Minimization_Converged-OPLS-2005>
0

> <r_mmod_RMS_Derivative-OPLS-2005>
3.72367215156555

$$$$
80
                    3D
 Structure written by MMmdl.
164172  0  0  1  0            999 V2000
  -30.6496  -14.5415   20.4991 C   0  0  0  0  0  0
  -30.4426  -12.3179   19.4348 C   0  0  0  0  0  0
  -29.5142  -12.4992   18.2169 C   0  0  0  0  0  0
  -28.0401  -12.3542   18.6436 C   0  0  0  0  0  0
  -27.6803  -13.1952   19.8969 C   0  0  2  0  0  0
  -28.7264  -12.9777   21.0127 C   0  0  0  0  0  0
  -25.2695  -13.8104   20.5733 C   0  0  0  0  0  0
  -24.1939  -13.0440   20.9190 C   0  0  0  0  0  0
  -24.6468  -11.6891   20.8691 C   0  0  0  0  0  0
  -23.9081  -10.4325   21.0320 C   0  0  0  0  0  0
  -24.3657   -9.4230   21.9062 C   0  0  0  0  0  0
  -23.6324   -8.2291   22.0698 C   0  0  0  0  0  0
  -22.4287   -8.0322   21.3493 C   0  0  0  0  0  0
  -21.9907   -9.0294   20.4562 C   0  0  0  0  0  0
  -22.7276  -10.2136   20.2944 C   0  0  0  0  0  0
  -21.6835   -6.0757   22.5258 C   0  0  0  0  0  0
  -21.3986   -6.5664   23.8184 C   0  0  0  0  0  0
  -21.3710   -5.6793   24.9131 C   0  0  0  0  0  0
  -21.6080   -4.3072   24.7176 C   0  0  0  0  0  0
  -21.8806   -3.8152   23.4287 C   0  0  0  0  0  0
  -21.9212   -4.6993   22.3352 C   0  0  0  0  0  0
  -22.7975  -13.5208   21.1834 C   0  0  0  0  0  0
  -22.1683   -4.2192   21.0924 F   0  0  0  0  0  0
  -21.5626   -3.4578   25.7694 F   0  0  0  0  0  0
  -30.0470  -13.3148   20.4472 N   0  0  0  0  0  0
  -26.3152  -12.9275   20.3500 N   0  0  0  0  0  0
  -25.9428  -11.6435   20.5860 N   0  0  0  0  0  0
  -22.0611  -12.8130   22.0284 N   0  0  0  0  0  0
  -25.4605  -15.1790   20.3959 N   0  0  0  0  0  0
  -31.7685  -14.7477   20.0143 O   0  0  0  0  0  0
  -21.6651   -6.8931   21.4223 O   0  0  0  0  0  0
  -22.3718  -14.5622   20.6782 O   0  0  0  0  0  0
  -24.6221  -31.8574   23.2093 C   0  0  0  0  0  0
  -25.9082  -32.4768   23.8403 C   0  0  1  0  0  0
  -27.2635  -27.3774   20.0863 C   0  0  0  0  0  0
  -25.5917  -33.8572   24.2321 N   0  0  0  0  0  0
  -23.4165  -30.4805   21.5476 C   0  0  2  0  0  0
  -24.8687  -28.9415   20.1202 C   0  0  0  0  0  0
  -22.7432  -29.4596   22.4964 C   0  0  0  0  0  0
  -18.0268  -28.1352   22.8496 C   0  0  0  0  0  0
  -24.1469  -36.7304   23.2643 C   0  0  0  0  0  0
  -25.9526  -30.8056   21.3719 C   0  0  0  0  0  0
  -26.0332  -29.4368   20.7171 C   0  0  0  0  0  0
  -27.2247  -28.6613   20.6999 C   0  0  0  0  0  0
  -26.0598  -26.9089   19.4986 C   0  0  0  0  0  0
  -24.8787  -27.6756   19.5154 C   0  0  0  0  0  0
  -23.6315  -29.8141   20.1651 C   0  0  0  0  0  0
  -25.4080  -36.3068   24.0336 C   0  0  1  0  0  0
  -20.5850  -28.3630   23.1306 C   0  0  2  0  0  0
  -20.6736  -26.9360   22.5419 C   0  0  0  0  0  0
  -19.5736  -26.6345   21.5217 C   0  0  0  0  0  0
  -18.1907  -26.7902   22.1620 C   0  0  0  0  0  0
  -19.1514  -28.8819   23.2885 C   0  0  0  0  0  0
  -18.9454  -30.1421   23.8889 C   0  0  0  0  0  0
  -17.6461  -30.6568   24.0537 C   0  0  0  0  0  0
  -25.9033  -34.9438   23.5126 C   0  0  0  0  0  0
  -16.5341  -29.9067   23.6327 C   0  0  0  0  0  0
  -16.7254  -28.6481   23.0352 C   0  0  0  0  0  0
  -26.4509  -31.6579   25.0759 C   0  0  0  0  0  0
  -25.3804  -31.3679   26.1533 C   0  0  0  0  0  0
  -27.0368  -30.3007   24.6187 C   0  0  0  0  0  0
  -27.6047  -32.4338   25.7525 C   0  0  0  0  0  0
  -27.5575  -37.1783   24.8452 C   0  0  0  0  0  0
  -21.4139  -29.3010   22.3710 N   0  0  0  0  0  0
  -26.4261  -37.3786   23.9440 N   0  0  0  0  0  0
  -24.6815  -31.0623   22.1013 N   0  0  0  0  0  0
  -23.4162  -28.8112   23.3027 O   0  0  0  0  0  0
  -28.4456  -26.6327   20.1245 O   0  0  0  0  0  0
  -26.5583  -34.8905   22.4675 O   0  0  0  0  0  0
  -23.5373  -32.1350   23.7430 O   0  0  0  0  0  0
  -30.1607  -18.0124   21.1514 C   0  0  0  0  0  0
  -28.8386  -18.8809   19.4700 C   0  0  0  0  0  0
  -29.6556  -19.2268   20.5203 C   0  0  0  0  0  0
  -29.7707  -16.8213   20.5654 C   0  0  0  0  0  0
  -29.4307  -22.8875   19.2948 C   0  0  0  0  0  0
  -30.7321  -20.2417   23.4288 C   0  0  0  0  0  0
  -30.8110  -20.9239   18.4312 C   0  0  0  0  0  0
  -28.6176  -21.2506   21.6200 C   0  0  0  0  0  0
  -29.4577  -24.2517   20.0527 C   0  0  0  0  0  0
  -31.0386  -20.7804   22.0105 C   0  0  0  0  0  0
  -28.6343  -25.4047   19.3572 C   0  0  0  0  0  0
  -30.3563  -21.6792   19.7178 C   0  0  2  0  0  0
  -29.8992  -20.7113   20.9353 C   0  0  1  0  0  0
  -29.9076  -15.5414   21.0357 N   0  0  0  0  0  0
  -28.7031  -22.7680   18.3018 O   0  0  0  0  0  0
  -28.8093  -17.1658   19.1481 S   0  0  0  0  0  0
  -31.4935  -12.4049   19.1404 H   0  0  0  0  0  0
  -30.3433  -11.3078   19.8330 H   0  0  0  0  0  0
  -29.7461  -11.7615   17.4486 H   0  0  0  0  0  0
  -29.6898  -13.4744   17.7644 H   0  0  0  0  0  0
  -27.8777  -11.3022   18.8727 H   0  0  0  0  0  0
  -27.3809  -12.6021   17.8138 H   0  0  0  0  0  0
  -27.7353  -14.2456   19.6172 H   0  0  0  0  0  0
  -28.7114  -11.9317   21.3297 H   0  0  0  0  0  0
  -28.4966  -13.5512   21.9101 H   0  0  0  0  0  0
  -25.2861   -9.5739   22.4525 H   0  0  0  0  0  0
  -24.0066   -7.4686   22.7417 H   0  0  0  0  0  0
  -21.0854   -8.8833   19.8826 H   0  0  0  0  0  0
  -22.3798  -10.9658   19.5999 H   0  0  0  0  0  0
  -21.1901   -7.6163   23.9714 H   0  0  0  0  0  0
  -21.1567   -6.0476   25.9060 H   0  0  0  0  0  0
  -22.0532   -2.7620   23.2744 H   0  0  0  0  0  0
  -22.4339  -11.9934   22.4878 H   0  0  0  0  0  0
  -21.1149  -13.1011   22.2368 H   0  0  0  0  0  0
  -24.6978  -15.8462   20.3821 H   0  0  0  0  0  0
  -26.2536  -15.4770   19.8477 H   0  0  0  0  0  0
  -26.7154  -32.5456   23.1163 H   0  0  0  0  0  0
  -25.0090  -33.9737   25.0479 H   0  0  0  0  0  0
  -22.7084  -31.2992   21.4032 H   0  0  0  0  0  0
  -23.3737  -35.9646   23.3263 H   0  0  0  0  0  0
  -24.3557  -36.8967   22.2063 H   0  0  0  0  0  0
  -23.7247  -37.6495   23.6690 H   0  0  0  0  0  0
  -26.0734  -31.5684   20.6002 H   0  0  0  0  0  0
  -26.8338  -30.8547   22.0000 H   0  0  0  0  0  0
  -28.1214  -29.0422   21.1691 H   0  0  0  0  0  0
  -25.9720  -25.9396   19.0376 H   0  0  0  0  0  0
  -23.9828  -27.2709   19.0643 H   0  0  0  0  0  0
  -23.7519  -30.5885   19.4085 H   0  0  0  0  0  0
  -22.7535  -29.2397   19.8634 H   0  0  0  0  0  0
  -25.1266  -36.1900   25.0827 H   0  0  0  0  0  0
  -20.9941  -28.3203   24.1428 H   0  0  0  0  0  0
  -20.5613  -26.2246   23.3598 H   0  0  0  0  0  0
  -21.6613  -26.7361   22.1246 H   0  0  0  0  0  0
  -19.6878  -25.6253   21.1240 H   0  0  0  0  0  0
  -19.6673  -27.3151   20.6748 H   0  0  0  0  0  0
  -17.4158  -26.6634   21.4014 H   0  0  0  0  0  0
  -18.0283  -26.0015   22.9004 H   0  0  0  0  0  0
  -19.7907  -30.7227   24.2259 H   0  0  0  0  0  0
  -17.5007  -31.6257   24.5121 H   0  0  0  0  0  0
  -15.5338  -30.2981   23.7651 H   0  0  0  0  0  0
  -15.8632  -28.0810   22.7085 H   0  0  0  0  0  0
  -24.5991  -30.6975   25.7947 H   0  0  0  0  0  0
  -24.8992  -32.2815   26.5019 H   0  0  0  0  0  0
  -25.8226  -30.8884   27.0283 H   0  0  0  0  0  0
  -26.2939  -29.6709   24.1263 H   0  0  0  0  0  0
  -27.4141  -29.7294   25.4689 H   0  0  0  0  0  0
  -27.8778  -30.4313   23.9370 H   0  0  0  0  0  0
  -27.2653  -33.3671   26.2037 H   0  0  0  0  0  0
  -28.3899  -32.6830   25.0383 H   0  0  0  0  0  0
  -28.0662  -31.8503   26.5503 H   0  0  0  0  0  0
  -28.2517  -38.0139   24.7561 H   0  0  0  0  0  0
  -28.1123  -36.2669   24.6184 H   0  0  0  0  0  0
  -27.2286  -37.1338   25.8845 H   0  0  0  0  0  0
  -20.9272  -29.8810   21.6996 H   0  0  0  0  0  0
  -26.0102  -38.2835   24.1535 H   0  0  0  0  0  0
  -30.7654  -18.0273   22.0441 H   0  0  0  0  0  0
  -28.2795  -19.5486   18.8233 H   0  0  0  0  0  0
  -31.6297  -19.8232   23.8844 H   0  0  0  0  0  0
  -29.9629  -19.4742   23.4442 H   0  0  0  0  0  0
  -30.3911  -21.0433   24.0776 H   0  0  0  0  0  0
  -31.3560  -21.5810   17.7533 H   0  0  0  0  0  0
  -29.9775  -20.5360   17.8464 H   0  0  0  0  0  0
  -31.4573  -20.0732   18.6516 H   0  0  0  0  0  0
  -28.2556  -20.5590   22.3766 H   0  0  0  0  0  0
  -27.7886  -21.3965   20.9268 H   0  0  0  0  0  0
  -28.8108  -22.1956   22.1311 H   0  0  0  0  0  0
  -30.4975  -24.5561   20.1811 H   0  0  0  0  0  0
  -29.0606  -24.0854   21.0523 H   0  0  0  0  0  0
  -31.9245  -20.2742   21.6235 H   0  0  0  0  0  0
  -31.3404  -21.8213   22.1608 H   0  0  0  0  0  0
  -27.7029  -24.9714   19.0101 H   0  0  0  0  0  0
  -29.1682  -25.6980   18.4510 H   0  0  0  0  0  0
  -31.2631  -22.1829   20.0508 H   0  0  0  0  0  0
  -29.0837  -15.2038   21.5102 H   0  0  0  0  0  0
  1 25  1  0  0  0
  1 30  2  0  0  0
  1 84  1  0  0  0
  2  3  1  0  0  0
  2 25  1  0  0  0
  2 87  1  0  0  0
  2 88  1  0  0  0
  3  4  1  0  0  0
  3 89  1  0  0  0
  3 90  1  0  0  0
  4  5  1  0  0  0
  4 91  1  0  0  0
  4 92  1  0  0  0
  5  6  1  0  0  0
  5 26  1  0  0  0
  5 93  1  0  0  0
  6 25  1  0  0  0
  6 94  1  0  0  0
  6 95  1  0  0  0
  7  8  2  0  0  0
  7 26  1  0  0  0
  7 29  1  0  0  0
  8  9  1  0  0  0
  8 22  1  0  0  0
  9 10  1  0  0  0
  9 27  2  0  0  0
 10 11  2  0  0  0
 10 15  1  0  0  0
 11 12  1  0  0  0
 11 96  1  0  0  0
 12 13  2  0  0  0
 12 97  1  0  0  0
 13 14  1  0  0  0
 13 31  1  0  0  0
 14 15  2  0  0  0
 14 98  1  0  0  0
 15 99  1  0  0  0
 16 17  2  0  0  0
 16 21  1  0  0  0
 16 31  1  0  0  0
 17 18  1  0  0  0
 17100  1  0  0  0
 18 19  2  0  0  0
 18101  1  0  0  0
 19 20  1  0  0  0
 19 24  1  0  0  0
 20 21  2  0  0  0
 20102  1  0  0  0
 21 23  1  0  0  0
 22 28  1  0  0  0
 22 32  2  0  0  0
 26 27  1  0  0  0
 28103  1  0  0  0
 28104  1  0  0  0
 29105  1  0  0  0
 29106  1  0  0  0
 33 34  1  0  0  0
 33 66  1  0  0  0
 33 70  2  0  0  0
 34 36  1  0  0  0
 34 59  1  0  0  0
 34107  1  0  0  0
 35 44  2  0  0  0
 35 45  1  0  0  0
 35 68  1  0  0  0
 36 56  1  0  0  0
 36108  1  0  0  0
 37 39  1  0  0  0
 37 47  1  0  0  0
 37 66  1  0  0  0
 37109  1  0  0  0
 38 43  2  0  0  0
 38 46  1  0  0  0
 38 47  1  0  0  0
 39 64  1  0  0  0
 39 67  2  0  0  0
 40 52  1  0  0  0
 40 53  2  0  0  0
 40 58  1  0  0  0
 41110  1  0  0  0
 41111  1  0  0  0
 41112  1  0  0  0
 41 48  1  0  0  0
 42 43  1  0  0  0
 42 66  1  0  0  0
 42113  1  0  0  0
 42114  1  0  0  0
 43 44  1  0  0  0
 44115  1  0  0  0
 45 46  2  0  0  0
 45116  1  0  0  0
 46117  1  0  0  0
 47118  1  0  0  0
 47119  1  0  0  0
 48 56  1  0  0  0
 48 65  1  0  0  0
 48120  1  0  0  0
 49 50  1  0  0  0
 49 53  1  0  0  0
 49 64  1  0  0  0
 49121  1  0  0  0
 50 51  1  0  0  0
 50122  1  0  0  0
 50123  1  0  0  0
 51 52  1  0  0  0
 51124  1  0  0  0
 51125  1  0  0  0
 52126  1  0  0  0
 52127  1  0  0  0
 53 54  1  0  0  0
 54 55  2  0  0  0
 54128  1  0  0  0
 55 57  1  0  0  0
 55129  1  0  0  0
 56 69  2  0  0  0
 57 58  2  0  0  0
 57130  1  0  0  0
 58131  1  0  0  0
 59 60  1  0  0  0
 59 61  1  0  0  0
 59 62  1  0  0  0
 60132  1  0  0  0
 60133  1  0  0  0
 60134  1  0  0  0
 61135  1  0  0  0
 61136  1  0  0  0
 61137  1  0  0  0
 62138  1  0  0  0
 62139  1  0  0  0
 62140  1  0  0  0
 63 65  1  0  0  0
 63141  1  0  0  0
 63142  1  0  0  0
 63143  1  0  0  0
 64144  1  0  0  0
 65145  1  0  0  0
 68 81  1  0  0  0
 71 73  1  0  0  0
 71 74  2  0  0  0
 71146  1  0  0  0
 72 73  2  0  0  0
 72 86  1  0  0  0
 72147  1  0  0  0
 73 83  1  0  0  0
 74 84  1  0  0  0
 74 86  1  0  0  0
 75 79  1  0  0  0
 75 82  1  0  0  0
 75 85  2  0  0  0
 76 80  1  0  0  0
 76148  1  0  0  0
 76149  1  0  0  0
 76150  1  0  0  0
 77151  1  0  0  0
 77152  1  0  0  0
 77153  1  0  0  0
 77 82  1  0  0  0
 78154  1  0  0  0
 78155  1  0  0  0
 78156  1  0  0  0
 78 83  1  0  0  0
 79 81  1  0  0  0
 79157  1  0  0  0
 79158  1  0  0  0
 80 83  1  0  0  0
 80159  1  0  0  0
 80160  1  0  0  0
 81161  1  0  0  0
 81162  1  0  0  0
 82 83  1  0  0  0
 82163  1  0  0  0
 84164  1  0  0  0
M  ISO  4   1 100  68 101  81 101  84 100
M  END
> <chiral flag>
0

> <version>
0

> <s_m_source_file>
/data/baiqing/PycharmProjects/Reinvent-master-3.2/result/LINK_invent/BTK/process_docking_weight1_custom_product_contain_oxygen_bond_distance_aromatic_linkinvent_7_9_3/rearranged_h_0143.sdf

> <i_m_source_file_index>
81

> <r_mmod_Potential_Energy-OPLS-2005>
40.4367866516113

> <r_mmod_Stretch_Energy-OPLS-2005>
71.5623245239258

> <r_mmod_Bend_Energy-OPLS-2005>
147.929794311523

> <r_mmod_Torsional_Energy-OPLS-2005>
265.952819824219

> <r_mmod_Improper_Torsional_Energy-OPLS-2005>
8.01431846618652

> <r_mmod_Van_der_Waal_Energy-OPLS-2005>
147.931976318359

> <r_mmod_Electrostatic_Energy-OPLS-2005>
-415.536560058594

> <r_mmod_Solvation_Energy-OPLS-2005>
-209.922897338867

> <b_mmod_Minimization_Converged-OPLS-2005>
0

> <r_mmod_RMS_Derivative-OPLS-2005>
8.41762161254883

$$$$
81
                    3D
 Structure written by MMmdl.
179188  0  0  1  0            999 V2000
  -30.6119  -14.7844   20.4818 C   0  0  0  0  0  0
  -30.4504  -12.4890   19.5063 C   0  0  0  0  0  0
  -29.5424  -12.5578   18.2554 C   0  0  0  0  0  0
  -28.0735  -12.3371   18.6674 C   0  0  0  0  0  0
  -27.6513  -13.2283   19.8705 C   0  0  2  0  0  0
  -28.6916  -13.1823   21.0161 C   0  0  0  0  0  0
  -25.2552  -13.8086   20.5891 C   0  0  0  0  0  0
  -24.1767  -13.0363   20.9199 C   0  0  0  0  0  0
  -24.6366  -11.6846   20.8675 C   0  0  0  0  0  0
  -23.9002  -10.4258   21.0392 C   0  0  0  0  0  0
  -24.3548   -9.4209   21.9197 C   0  0  0  0  0  0
  -23.6216   -8.2262   22.0798 C   0  0  0  0  0  0
  -22.4190   -8.0289   21.3613 C   0  0  0  0  0  0
  -21.9823   -9.0256   20.4691 C   0  0  0  0  0  0
  -22.7181  -10.2110   20.3073 C   0  0  0  0  0  0
  -21.6821   -6.0698   22.5286 C   0  0  0  0  0  0
  -21.4023   -6.5596   23.8216 C   0  0  0  0  0  0
  -21.3672   -5.6734   24.9162 C   0  0  0  0  0  0
  -21.6035   -4.2990   24.7203 C   0  0  0  0  0  0
  -21.8832   -3.8128   23.4327 C   0  0  0  0  0  0
  -21.9198   -4.6939   22.3395 C   0  0  0  0  0  0
  -22.7796  -13.5229   21.1810 C   0  0  0  0  0  0
  -22.1649   -4.2156   21.0966 F   0  0  0  0  0  0
  -21.5651   -3.4454   25.7727 F   0  0  0  0  0  0
  -30.0028  -13.5402   20.4538 N   0  0  0  0  0  0
  -26.2989  -12.9321   20.3378 N   0  0  0  0  0  0
  -25.9295  -11.6441   20.5648 N   0  0  0  0  0  0
  -22.0286  -12.8380   22.0346 N   0  0  0  0  0  0
  -25.4249  -15.1821   20.4776 N   0  0  0  0  0  0
  -31.7469  -14.9062   20.0141 O   0  0  0  0  0  0
  -21.6614   -6.8843   21.4272 O   0  0  0  0  0  0
  -22.3624  -14.5550   20.6638 O   0  0  0  0  0  0
  -24.6307  -31.8605   23.2024 C   0  0  0  0  0  0
  -25.9167  -32.4774   23.8331 C   0  0  1  0  0  0
  -27.2223  -27.2891   20.1094 C   0  0  0  0  0  0
  -25.5959  -33.8571   24.2273 N   0  0  0  0  0  0
  -23.4223  -30.4849   21.5470 C   0  0  2  0  0  0
  -24.8672  -28.9414   20.1043 C   0  0  0  0  0  0
  -22.7473  -29.4633   22.4929 C   0  0  0  0  0  0
  -18.0279  -28.1394   22.8470 C   0  0  0  0  0  0
  -24.1487  -36.7254   23.2634 C   0  0  0  0  0  0
  -25.9683  -30.7786   21.3784 C   0  0  0  0  0  0
  -26.0399  -29.4048   20.7139 C   0  0  0  0  0  0
  -27.2197  -28.5950   20.7035 C   0  0  0  0  0  0
  -26.0286  -26.8964   19.4588 C   0  0  0  0  0  0
  -24.8684  -27.6938   19.4628 C   0  0  0  0  0  0
  -23.6362  -29.8283   20.1588 C   0  0  0  0  0  0
  -25.4114  -36.3062   24.0323 C   0  0  1  0  0  0
  -20.5887  -28.3698   23.1272 C   0  0  2  0  0  0
  -20.6782  -26.9427   22.5401 C   0  0  0  0  0  0
  -19.5764  -26.6388   21.5195 C   0  0  0  0  0  0
  -18.1931  -26.7930   22.1602 C   0  0  0  0  0  0
  -19.1545  -28.8863   23.2863 C   0  0  0  0  0  0
  -18.9475  -30.1453   23.8914 C   0  0  0  0  0  0
  -17.6479  -30.6594   24.0555 C   0  0  0  0  0  0
  -25.9055  -34.9441   23.5093 C   0  0  0  0  0  0
  -16.5354  -29.9089   23.6340 C   0  0  0  0  0  0
  -16.7271  -28.6495   23.0369 C   0  0  0  0  0  0
  -26.4526  -31.6577   25.0706 C   0  0  0  0  0  0
  -25.3734  -31.3696   26.1405 C   0  0  0  0  0  0
  -27.0360  -30.3005   24.6156 C   0  0  0  0  0  0
  -27.6122  -32.4263   25.7476 C   0  0  0  0  0  0
  -27.5578  -37.1763   24.8455 C   0  0  0  0  0  0
  -21.4188  -29.3035   22.3655 N   0  0  0  0  0  0
  -26.4272  -37.3792   23.9431 N   0  0  0  0  0  0
  -24.6931  -31.0563   22.0975 N   0  0  0  0  0  0
  -23.4184  -28.8175   23.3018 O   0  0  0  0  0  0
  -28.3271  -26.4082   20.1678 O   0  0  0  0  0  0
  -26.5626  -34.8936   22.4654 O   0  0  0  0  0  0
  -23.5484  -32.1429   23.7312 O   0  0  0  0  0  0
  -28.3096  -19.5198   19.2396 C   0  0  0  0  0  0
  -28.6051  -17.0987   19.3052 C   0  0  0  0  0  0
  -29.8518  -18.5231   20.8215 C   0  0  0  0  0  0
  -27.9595  -18.2390   18.7598 C   0  0  0  0  0  0
  -29.2574  -19.7321   20.2592 C   0  0  0  0  0  0
  -29.5453  -17.1736   20.3549 C   0  0  0  0  0  0
  -26.9375  -19.1954   16.5988 C   0  0  0  0  0  0
  -29.4153  -22.5379   22.6872 C   0  0  0  0  0  0
  -29.4330  -23.8904   21.9341 C   0  0  0  0  0  0
  -30.1054  -21.3736   21.9509 C   0  0  0  0  0  0
  -28.7466  -22.2928   20.0325 C   0  0  0  0  0  0
  -29.1712  -23.8075   20.4026 C   0  0  2  0  0  0
  -30.4580  -24.1113   19.6108 C   0  0  0  0  0  0
  -28.3982  -20.5990   15.0070 C   0  0  0  0  0  0
  -25.4795  -18.3386   18.4868 C   0  0  0  0  0  0
  -26.7413  -16.7235   17.0780 C   0  0  0  0  0  0
  -28.2737  -19.3173   15.8560 C   0  0  0  0  0  0
  -28.0855  -24.9388   19.9973 C   0  0  0  0  0  0
  -26.8124  -18.1251   17.7272 C   0  0  0  0  0  0
  -29.4952  -21.1213   20.6497 N   0  0  0  0  0  0
  -29.9386  -15.8865   20.9946 N   0  0  0  0  0  0
  -25.9975  -19.9501   16.3170 O   0  0  0  0  0  0
  -31.5042  -12.5992   19.2299 H   0  0  0  0  0  0
  -30.3683  -11.5098   19.9774 H   0  0  0  0  0  0
  -29.8574  -11.8249   17.5094 H   0  0  0  0  0  0
  -29.6425  -13.5355   17.7821 H   0  0  0  0  0  0
  -27.9744  -11.2928   18.9564 H   0  0  0  0  0  0
  -27.4117  -12.4949   17.8146 H   0  0  0  0  0  0
  -27.6290  -14.2408   19.4861 H   0  0  0  0  0  0
  -28.7209  -12.1923   21.4739 H   0  0  0  0  0  0
  -28.4097  -13.8660   21.8161 H   0  0  0  0  0  0
  -25.2746   -9.5686   22.4708 H   0  0  0  0  0  0
  -23.9981   -7.4645   22.7491 H   0  0  0  0  0  0
  -21.0794   -8.8777   19.8943 H   0  0  0  0  0  0
  -22.3726  -10.9645   19.6137 H   0  0  0  0  0  0
  -21.1996   -7.6095   23.9744 H   0  0  0  0  0  0
  -21.1463   -6.0421   25.9066 H   0  0  0  0  0  0
  -22.0588   -2.7610   23.2788 H   0  0  0  0  0  0
  -22.3776  -12.0142   22.5009 H   0  0  0  0  0  0
  -21.0910  -13.1590   22.2327 H   0  0  0  0  0  0
  -24.6585  -15.8120   20.6834 H   0  0  0  0  0  0
  -26.2965  -15.6606   20.3063 H   0  0  0  0  0  0
  -26.7218  -32.5427   23.1059 H   0  0  0  0  0  0
  -25.0086  -33.9719   25.0408 H   0  0  0  0  0  0
  -22.7184  -31.3076   21.4109 H   0  0  0  0  0  0
  -23.3789  -35.9540   23.3251 H   0  0  0  0  0  0
  -24.3608  -36.8934   22.2065 H   0  0  0  0  0  0
  -23.7193  -37.6415   23.6698 H   0  0  0  0  0  0
  -26.1139  -31.5466   20.6170 H   0  0  0  0  0  0
  -26.8470  -30.8190   22.0108 H   0  0  0  0  0  0
  -28.1180  -28.9530   21.1879 H   0  0  0  0  0  0
  -25.9623  -25.9509   18.9426 H   0  0  0  0  0  0
  -23.9770  -27.3390   18.9658 H   0  0  0  0  0  0
  -23.7577  -30.6151   19.4121 H   0  0  0  0  0  0
  -22.7521  -29.2656   19.8531 H   0  0  0  0  0  0
  -25.1288  -36.1888   25.0812 H   0  0  0  0  0  0
  -20.9989  -28.3292   24.1394 H   0  0  0  0  0  0
  -20.5722  -26.2300   23.3587 H   0  0  0  0  0  0
  -21.6661  -26.7479   22.1193 H   0  0  0  0  0  0
  -19.6942  -25.6296   21.1244 H   0  0  0  0  0  0
  -19.6723  -27.3182   20.6702 H   0  0  0  0  0  0
  -17.4214  -26.6692   21.3976 H   0  0  0  0  0  0
  -18.0330  -26.0067   22.9001 H   0  0  0  0  0  0
  -19.7968  -30.7241   24.2318 H   0  0  0  0  0  0
  -17.5050  -31.6295   24.5108 H   0  0  0  0  0  0
  -15.5367  -30.3006   23.7660 H   0  0  0  0  0  0
  -15.8655  -28.0796   22.7138 H   0  0  0  0  0  0
  -24.5910  -30.7076   25.7687 H   0  0  0  0  0  0
  -24.8901  -32.2836   26.4856 H   0  0  0  0  0  0
  -25.8020  -30.8818   27.0168 H   0  0  0  0  0  0
  -26.2912  -29.6737   24.1240 H   0  0  0  0  0  0
  -27.4139  -29.7300   25.4649 H   0  0  0  0  0  0
  -27.8767  -30.4320   23.9346 H   0  0  0  0  0  0
  -27.2809  -33.3591   26.2072 H   0  0  0  0  0  0
  -28.3932  -32.6761   25.0274 H   0  0  0  0  0  0
  -28.0792  -31.8330   26.5362 H   0  0  0  0  0  0
  -28.2545  -38.0109   24.7593 H   0  0  0  0  0  0
  -28.1105  -36.2638   24.6144 H   0  0  0  0  0  0
  -27.2301  -37.1281   25.8856 H   0  0  0  0  0  0
  -20.9370  -29.8691   21.6811 H   0  0  0  0  0  0
  -26.0119  -38.2842   24.1503 H   0  0  0  0  0  0
  -27.7857  -20.3619   18.8092 H   0  0  0  0  0  0
  -28.3245  -16.1224   18.9603 H   0  0  0  0  0  0
  -30.5457  -18.6058   21.6459 H   0  0  0  0  0  0
  -28.3775  -22.2582   22.8800 H   0  0  0  0  0  0
  -29.8680  -22.6696   23.6696 H   0  0  0  0  0  0
  -30.3723  -24.4133   22.1199 H   0  0  0  0  0  0
  -28.6744  -24.5231   22.3990 H   0  0  0  0  0  0
  -30.0086  -20.4921   22.5832 H   0  0  0  0  0  0
  -31.1757  -21.5606   21.8289 H   0  0  0  0  0  0
  -28.8142  -22.2026   18.9464 H   0  0  0  0  0  0
  -27.6895  -22.1700   20.2764 H   0  0  0  0  0  0
  -31.2353  -23.3768   19.8180 H   0  0  0  0  0  0
  -30.8552  -25.0991   19.8506 H   0  0  0  0  0  0
  -30.2654  -24.0894   18.5364 H   0  0  0  0  0  0
  -29.3411  -20.6122   14.4607 H   0  0  0  0  0  0
  -28.3644  -21.4965   15.6267 H   0  0  0  0  0  0
  -27.5989  -20.6757   14.2713 H   0  0  0  0  0  0
  -25.4134  -19.3260   18.9457 H   0  0  0  0  0  0
  -25.3572  -17.6097   19.2839 H   0  0  0  0  0  0
  -24.6220  -18.2254   17.8215 H   0  0  0  0  0  0
  -27.7102  -16.4051   16.6920 H   0  0  0  0  0  0
  -26.0292  -16.6873   16.2514 H   0  0  0  0  0  0
  -26.4108  -15.9781   17.8039 H   0  0  0  0  0  0
  -28.3939  -18.4339   15.2312 H   0  0  0  0  0  0
  -29.0839  -19.2980   16.5820 H   0  0  0  0  0  0
  -27.1863  -24.6978   20.5651 H   0  0  0  0  0  0
  -27.8118  -24.7760   18.9518 H   0  0  0  0  0  0
  -29.2939  -15.6262   21.7275 H   0  0  0  0  0  0
  1 25  1  0  0  0
  1 30  2  0  0  0
  1 91  1  0  0  0
  2  3  1  0  0  0
  2 25  1  0  0  0
  2 93  1  0  0  0
  2 94  1  0  0  0
  3  4  1  0  0  0
  3 95  1  0  0  0
  3 96  1  0  0  0
  4  5  1  0  0  0
  4 97  1  0  0  0
  4 98  1  0  0  0
  5  6  1  0  0  0
  5 26  1  0  0  0
  5 99  1  0  0  0
  6 25  1  0  0  0
  6100  1  0  0  0
  6101  1  0  0  0
  7  8  2  0  0  0
  7 26  1  0  0  0
  7 29  1  0  0  0
  8  9  1  0  0  0
  8 22  1  0  0  0
  9 10  1  0  0  0
  9 27  2  0  0  0
 10 11  2  0  0  0
 10 15  1  0  0  0
 11 12  1  0  0  0
 11102  1  0  0  0
 12 13  2  0  0  0
 12103  1  0  0  0
 13 14  1  0  0  0
 13 31  1  0  0  0
 14 15  2  0  0  0
 14104  1  0  0  0
 15105  1  0  0  0
 16 17  2  0  0  0
 16 21  1  0  0  0
 16 31  1  0  0  0
 17 18  1  0  0  0
 17106  1  0  0  0
 18 19  2  0  0  0
 18107  1  0  0  0
 19 20  1  0  0  0
 19 24  1  0  0  0
 20 21  2  0  0  0
 20108  1  0  0  0
 21 23  1  0  0  0
 22 28  1  0  0  0
 22 32  2  0  0  0
 26 27  1  0  0  0
 28109  1  0  0  0
 28110  1  0  0  0
 29111  1  0  0  0
 29112  1  0  0  0
 33 34  1  0  0  0
 33 66  1  0  0  0
 33 70  2  0  0  0
 34 36  1  0  0  0
 34 59  1  0  0  0
 34113  1  0  0  0
 35 44  2  0  0  0
 35 45  1  0  0  0
 35 68  1  0  0  0
 36 56  1  0  0  0
 36114  1  0  0  0
 37 39  1  0  0  0
 37 47  1  0  0  0
 37 66  1  0  0  0
 37115  1  0  0  0
 38 43  2  0  0  0
 38 46  1  0  0  0
 38 47  1  0  0  0
 39 64  1  0  0  0
 39 67  2  0  0  0
 40 52  1  0  0  0
 40 53  2  0  0  0
 40 58  1  0  0  0
 41116  1  0  0  0
 41117  1  0  0  0
 41118  1  0  0  0
 41 48  1  0  0  0
 42 43  1  0  0  0
 42 66  1  0  0  0
 42119  1  0  0  0
 42120  1  0  0  0
 43 44  1  0  0  0
 44121  1  0  0  0
 45 46  2  0  0  0
 45122  1  0  0  0
 46123  1  0  0  0
 47124  1  0  0  0
 47125  1  0  0  0
 48 56  1  0  0  0
 48 65  1  0  0  0
 48126  1  0  0  0
 49 50  1  0  0  0
 49 53  1  0  0  0
 49 64  1  0  0  0
 49127  1  0  0  0
 50 51  1  0  0  0
 50128  1  0  0  0
 50129  1  0  0  0
 51 52  1  0  0  0
 51130  1  0  0  0
 51131  1  0  0  0
 52132  1  0  0  0
 52133  1  0  0  0
 53 54  1  0  0  0
 54 55  2  0  0  0
 54134  1  0  0  0
 55 57  1  0  0  0
 55135  1  0  0  0
 56 69  2  0  0  0
 57 58  2  0  0  0
 57136  1  0  0  0
 58137  1  0  0  0
 59 60  1  0  0  0
 59 61  1  0  0  0
 59 62  1  0  0  0
 60138  1  0  0  0
 60139  1  0  0  0
 60140  1  0  0  0
 61141  1  0  0  0
 61142  1  0  0  0
 61143  1  0  0  0
 62144  1  0  0  0
 62145  1  0  0  0
 62146  1  0  0  0
 63 65  1  0  0  0
 63147  1  0  0  0
 63148  1  0  0  0
 63149  1  0  0  0
 64150  1  0  0  0
 65151  1  0  0  0
 68 88  1  0  0  0
 71 74  2  0  0  0
 71 75  1  0  0  0
 71152  1  0  0  0
 72 74  1  0  0  0
 72 76  2  0  0  0
 72153  1  0  0  0
 73 75  2  0  0  0
 73 76  1  0  0  0
 73154  1  0  0  0
 74 89  1  0  0  0
 75 90  1  0  0  0
 76 91  1  0  0  0
 77 87  1  0  0  0
 77 89  1  0  0  0
 77 92  2  0  0  0
 78 79  1  0  0  0
 78 80  1  0  0  0
 78155  1  0  0  0
 78156  1  0  0  0
 79 82  1  0  0  0
 79157  1  0  0  0
 79158  1  0  0  0
 80 90  1  0  0  0
 80159  1  0  0  0
 80160  1  0  0  0
 81 82  1  0  0  0
 81 90  1  0  0  0
 81161  1  0  0  0
 81162  1  0  0  0
 82 83  1  0  0  0
 82 88  1  0  0  0
 83163  1  0  0  0
 83164  1  0  0  0
 83165  1  0  0  0
 84 87  1  0  0  0
 84166  1  0  0  0
 84167  1  0  0  0
 84168  1  0  0  0
 85169  1  0  0  0
 85170  1  0  0  0
 85171  1  0  0  0
 85 89  1  0  0  0
 86 89  1  0  0  0
 86172  1  0  0  0
 86173  1  0  0  0
 86174  1  0  0  0
 87175  1  0  0  0
 87176  1  0  0  0
 88177  1  0  0  0
 88178  1  0  0  0
 91179  1  0  0  0
M  ISO  4   1 100  68 101  88 101  91 100
M  END
> <chiral flag>
0

> <version>
0

> <s_m_source_file>
/data/baiqing/PycharmProjects/Reinvent-master-3.2/result/LINK_invent/BTK/process_docking_weight1_custom_product_contain_oxygen_bond_distance_aromatic_linkinvent_7_9_3/rearranged_h_0143.sdf

> <i_m_source_file_index>
82

> <r_mmod_Potential_Energy-OPLS-2005>
330.218078613281

> <r_mmod_Stretch_Energy-OPLS-2005>
130.934921264648

> <r_mmod_Bend_Energy-OPLS-2005>
188.882995605469

> <r_mmod_Torsional_Energy-OPLS-2005>
328.462524414062

> <r_mmod_Improper_Torsional_Energy-OPLS-2005>
6.74583148956299

> <r_mmod_Van_der_Waal_Energy-OPLS-2005>
160.517440795898

> <r_mmod_Electrostatic_Energy-OPLS-2005>
-349.014221191406

> <r_mmod_Solvation_Energy-OPLS-2005>
-224.877182006836

> <b_mmod_Minimization_Converged-OPLS-2005>
0

> <r_mmod_RMS_Derivative-OPLS-2005>
7.52872753143311

$$$$
82
                    3D
 Structure written by MMmdl.
165174  0  0  1  0            999 V2000
  -30.7280  -14.4223   20.5811 C   0  0  0  0  0  0
  -30.4154  -12.2783   19.4190 C   0  0  0  0  0  0
  -29.4913  -12.5127   18.2063 C   0  0  0  0  0  0
  -28.0121  -12.3816   18.6160 C   0  0  0  0  0  0
  -27.6661  -13.2071   19.8838 C   0  0  2  0  0  0
  -28.7075  -12.9662   21.0025 C   0  0  0  0  0  0
  -25.2590  -13.8172   20.5685 C   0  0  0  0  0  0
  -24.1847  -13.0440   20.9184 C   0  0  0  0  0  0
  -24.6400  -11.6909   20.8744 C   0  0  0  0  0  0
  -23.9068  -10.4295   21.0415 C   0  0  0  0  0  0
  -24.3622   -9.4207   21.9190 C   0  0  0  0  0  0
  -23.6300   -8.2240   22.0749 C   0  0  0  0  0  0
  -22.4284   -8.0277   21.3542 C   0  0  0  0  0  0
  -21.9928   -9.0255   20.4636 C   0  0  0  0  0  0
  -22.7250  -10.2138   20.3055 C   0  0  0  0  0  0
  -21.6847   -6.0741   22.5280 C   0  0  0  0  0  0
  -21.4007   -6.5643   23.8215 C   0  0  0  0  0  0
  -21.3661   -5.6793   24.9177 C   0  0  0  0  0  0
  -21.6049   -4.3056   24.7224 C   0  0  0  0  0  0
  -21.8824   -3.8150   23.4342 C   0  0  0  0  0  0
  -21.9191   -4.6972   22.3397 C   0  0  0  0  0  0
  -22.7875  -13.5229   21.1859 C   0  0  0  0  0  0
  -22.1661   -4.2156   21.0979 F   0  0  0  0  0  0
  -21.5636   -3.4537   25.7739 F   0  0  0  0  0  0
  -30.0459  -13.2524   20.4567 N   0  0  0  0  0  0
  -26.3040  -12.9344   20.3409 N   0  0  0  0  0  0
  -25.9322  -11.6502   20.5773 N   0  0  0  0  0  0
  -22.0514  -12.8206   22.0407 N   0  0  0  0  0  0
  -25.4327  -15.1883   20.4081 N   0  0  0  0  0  0
  -31.8394  -14.6020   20.0767 O   0  0  0  0  0  0
  -21.6635   -6.8886   21.4243 O   0  0  0  0  0  0
  -22.3560  -14.5541   20.6710 O   0  0  0  0  0  0
  -24.6074  -31.8721   23.2140 C   0  0  0  0  0  0
  -25.8986  -32.4848   23.8413 C   0  0  1  0  0  0
  -27.2385  -27.4752   20.0889 C   0  0  0  0  0  0
  -25.5855  -33.8639   24.2337 N   0  0  0  0  0  0
  -23.3944  -30.4968   21.5530 C   0  0  2  0  0  0
  -24.8422  -28.9632   20.1213 C   0  0  0  0  0  0
  -22.7363  -29.4680   22.4997 C   0  0  0  0  0  0
  -18.0261  -28.1394   22.8505 C   0  0  0  0  0  0
  -24.1467  -36.7324   23.2626 C   0  0  0  0  0  0
  -25.9175  -30.8477   21.3629 C   0  0  0  0  0  0
  -25.9969  -29.4802   20.7221 C   0  0  0  0  0  0
  -27.1984  -28.7412   20.7159 C   0  0  0  0  0  0
  -26.0728  -26.9687   19.4823 C   0  0  0  0  0  0
  -24.8704  -27.7000   19.5049 C   0  0  0  0  0  0
  -23.6023  -29.8260   20.1692 C   0  0  0  0  0  0
  -25.4083  -36.3126   24.0341 C   0  0  1  0  0  0
  -20.5843  -28.3674   23.1331 C   0  0  2  0  0  0
  -20.6739  -26.9405   22.5449 C   0  0  0  0  0  0
  -19.5729  -26.6394   21.5220 C   0  0  0  0  0  0
  -18.1901  -26.7950   22.1609 C   0  0  0  0  0  0
  -19.1511  -28.8850   23.2919 C   0  0  0  0  0  0
  -18.9443  -30.1453   23.8927 C   0  0  0  0  0  0
  -17.6452  -30.6597   24.0584 C   0  0  0  0  0  0
  -25.9035  -34.9497   23.5146 C   0  0  0  0  0  0
  -16.5341  -29.9114   23.6324 C   0  0  0  0  0  0
  -16.7250  -28.6529   23.0347 C   0  0  0  0  0  0
  -26.4435  -31.6614   25.0723 C   0  0  0  0  0  0
  -25.3705  -31.3704   26.1472 C   0  0  0  0  0  0
  -27.0267  -30.3062   24.6083 C   0  0  0  0  0  0
  -27.6031  -32.4317   25.7466 C   0  0  0  0  0  0
  -27.5630  -37.1734   24.8395 C   0  0  0  0  0  0
  -21.4097  -29.3046   22.3732 N   0  0  0  0  0  0
  -26.4238  -37.3843   23.9495 N   0  0  0  0  0  0
  -24.6582  -31.0859   22.1025 N   0  0  0  0  0  0
  -23.4153  -28.8209   23.3010 O   0  0  0  0  0  0
  -28.3735  -26.7118   19.9947 O   0  0  0  0  0  0
  -26.5624  -34.8944   22.4725 O   0  0  0  0  0  0
  -23.5274  -32.1453   23.7552 O   0  0  0  0  0  0
  -29.7759  -19.0751   21.9016 C   0  0  0  0  0  0
  -30.9579  -18.7908   19.7931 C   0  0  0  0  0  0
  -29.6857  -17.6719   22.0368 C   0  0  0  0  0  0
  -30.8727  -17.3926   19.9316 C   0  0  0  0  0  0
  -30.4171  -19.6424   20.7788 C   0  0  0  0  0  0
  -30.2409  -16.8129   21.0614 C   0  0  0  0  0  0
  -30.5016  -21.0950   20.5796 C   0  0  0  0  0  0
  -30.3382  -25.6810   20.8512 C   0  0  0  0  0  0
  -32.4416  -22.7029   23.2984 C   0  0  0  0  0  0
  -32.6071  -23.6710   22.1274 C   0  0  0  0  0  0
  -31.7942  -21.4612   22.6810 C   0  0  0  0  0  0
  -31.4146  -23.3659   21.2117 C   0  0  2  0  0  0
  -30.2002  -24.2863   21.4793 C   0  0  0  0  0  0
  -29.2276  -26.6905   21.1285 C   0  0  0  0  0  0
  -31.1235  -21.9301   21.4501 N   0  0  0  0  0  0
  -30.0747  -15.4048   21.2249 N   0  0  0  0  0  0
  -29.9702  -21.5933   19.4646 N   0  3  0  0  0  0
  -31.2894  -25.9810   20.1218 O   0  0  0  0  0  0
  -31.4613  -12.3582   19.1186 H   0  0  0  0  0  0
  -30.2947  -11.2640   19.8029 H   0  0  0  0  0  0
  -29.7207  -11.8019   17.4119 H   0  0  0  0  0  0
  -29.6723  -13.5059   17.7916 H   0  0  0  0  0  0
  -27.8090  -11.3255   18.7962 H   0  0  0  0  0  0
  -27.3662  -12.6794   17.7895 H   0  0  0  0  0  0
  -27.7188  -14.2585   19.6023 H   0  0  0  0  0  0
  -28.6683  -11.9277   21.3366 H   0  0  0  0  0  0
  -28.4729  -13.5604   21.8867 H   0  0  0  0  0  0
  -25.2768   -9.5677   22.4762 H   0  0  0  0  0  0
  -24.0009   -7.4631   22.7469 H   0  0  0  0  0  0
  -21.0862   -8.8776   19.8936 H   0  0  0  0  0  0
  -22.3714  -10.9680   19.6158 H   0  0  0  0  0  0
  -21.1992   -7.6151   23.9718 H   0  0  0  0  0  0
  -21.1481   -6.0525   25.9083 H   0  0  0  0  0  0
  -22.0600   -2.7611   23.2842 H   0  0  0  0  0  0
  -22.4129  -11.9843   22.4757 H   0  0  0  0  0  0
  -21.1118  -13.1202   22.2612 H   0  0  0  0  0  0
  -24.6691  -15.8476   20.5128 H   0  0  0  0  0  0
  -26.2902  -15.6229   20.0910 H   0  0  0  0  0  0
  -26.7056  -32.5592   23.1194 H   0  0  0  0  0  0
  -24.9910  -33.9792   25.0414 H   0  0  0  0  0  0
  -22.6812  -31.3124   21.4146 H   0  0  0  0  0  0
  -23.3809  -35.9563   23.3081 H   0  0  0  0  0  0
  -24.3608  -36.9166   22.2086 H   0  0  0  0  0  0
  -23.7083  -37.6402   23.6785 H   0  0  0  0  0  0
  -26.0165  -31.6052   20.5849 H   0  0  0  0  0  0
  -26.8097  -30.9112   21.9730 H   0  0  0  0  0  0
  -28.0850  -29.1632   21.1668 H   0  0  0  0  0  0
  -26.0973  -26.0047   18.9943 H   0  0  0  0  0  0
  -23.9825  -27.2959   19.0390 H   0  0  0  0  0  0
  -23.7088  -30.5988   19.4064 H   0  0  0  0  0  0
  -22.7271  -29.2429   19.8778 H   0  0  0  0  0  0
  -25.1219  -36.1959   25.0822 H   0  0  0  0  0  0
  -20.9951  -28.3268   24.1448 H   0  0  0  0  0  0
  -20.5623  -26.2282   23.3641 H   0  0  0  0  0  0
  -21.6613  -26.7438   22.1270 H   0  0  0  0  0  0
  -19.6886  -25.6319   21.1235 H   0  0  0  0  0  0
  -19.6690  -27.3212   20.6760 H   0  0  0  0  0  0
  -17.4195  -26.6757   21.3979 H   0  0  0  0  0  0
  -18.0252  -26.0068   22.8971 H   0  0  0  0  0  0
  -19.7917  -30.7264   24.2312 H   0  0  0  0  0  0
  -17.5013  -31.6268   24.5215 H   0  0  0  0  0  0
  -15.5356  -30.3040   23.7628 H   0  0  0  0  0  0
  -15.8640  -28.0872   22.7039 H   0  0  0  0  0  0
  -24.5906  -30.7009   25.7823 H   0  0  0  0  0  0
  -24.8838  -32.2833   26.4906 H   0  0  0  0  0  0
  -25.8068  -30.8908   27.0239 H   0  0  0  0  0  0
  -26.2804  -29.6813   24.1161 H   0  0  0  0  0  0
  -27.4062  -29.7316   25.4544 H   0  0  0  0  0  0
  -27.8618  -30.4399   23.9208 H   0  0  0  0  0  0
  -27.2687  -33.3608   26.2097 H   0  0  0  0  0  0
  -28.3799  -32.6885   25.0254 H   0  0  0  0  0  0
  -28.0735  -31.8393   26.5326 H   0  0  0  0  0  0
  -28.2407  -38.0269   24.7877 H   0  0  0  0  0  0
  -28.1375  -36.2863   24.5672 H   0  0  0  0  0  0
  -27.2436  -37.0711   25.8783 H   0  0  0  0  0  0
  -20.9241  -29.8789   21.6988 H   0  0  0  0  0  0
  -26.0118  -38.2856   24.1771 H   0  0  0  0  0  0
  -29.3285  -19.7123   22.6510 H   0  0  0  0  0  0
  -31.4431  -19.2095   18.9217 H   0  0  0  0  0  0
  -29.1765  -17.2598   22.8962 H   0  0  0  0  0  0
  -31.2858  -16.7865   19.1391 H   0  0  0  0  0  0
  -31.7895  -23.1235   24.0648 H   0  0  0  0  0  0
  -33.3992  -22.4753   23.7686 H   0  0  0  0  0  0
  -33.5382  -23.4788   21.5936 H   0  0  0  0  0  0
  -32.6328  -24.7065   22.4661 H   0  0  0  0  0  0
  -31.1025  -20.9977   23.3857 H   0  0  0  0  0  0
  -32.5584  -20.7258   22.4239 H   0  0  0  0  0  0
  -31.7399  -23.4883   20.1772 H   0  0  0  0  0  0
  -29.2910  -23.8372   21.0792 H   0  0  0  0  0  0
  -30.0400  -24.4040   22.5507 H   0  0  0  0  0  0
  -29.6763  -27.6688   21.2958 H   0  0  0  0  0  0
  -28.6723  -26.4090   22.0235 H   0  0  0  0  0  0
  -29.2732  -15.1133   21.7612 H   0  0  0  0  0  0
  -29.4756  -20.9672   18.8463 H   0  0  0  0  0  0
  -29.9689  -22.5737   19.2466 H   0  0  0  0  0  0
  1 25  1  0  0  0
  1 30  2  0  0  0
  1 86  1  0  0  0
  2  3  1  0  0  0
  2 25  1  0  0  0
  2 89  1  0  0  0
  2 90  1  0  0  0
  3  4  1  0  0  0
  3 91  1  0  0  0
  3 92  1  0  0  0
  4  5  1  0  0  0
  4 93  1  0  0  0
  4 94  1  0  0  0
  5  6  1  0  0  0
  5 26  1  0  0  0
  5 95  1  0  0  0
  6 25  1  0  0  0
  6 96  1  0  0  0
  6 97  1  0  0  0
  7  8  2  0  0  0
  7 26  1  0  0  0
  7 29  1  0  0  0
  8  9  1  0  0  0
  8 22  1  0  0  0
  9 10  1  0  0  0
  9 27  2  0  0  0
 10 11  2  0  0  0
 10 15  1  0  0  0
 11 12  1  0  0  0
 11 98  1  0  0  0
 12 13  2  0  0  0
 12 99  1  0  0  0
 13 14  1  0  0  0
 13 31  1  0  0  0
 14 15  2  0  0  0
 14100  1  0  0  0
 15101  1  0  0  0
 16 17  2  0  0  0
 16 21  1  0  0  0
 16 31  1  0  0  0
 17 18  1  0  0  0
 17102  1  0  0  0
 18 19  2  0  0  0
 18103  1  0  0  0
 19 20  1  0  0  0
 19 24  1  0  0  0
 20 21  2  0  0  0
 20104  1  0  0  0
 21 23  1  0  0  0
 22 28  1  0  0  0
 22 32  2  0  0  0
 26 27  1  0  0  0
 28105  1  0  0  0
 28106  1  0  0  0
 29107  1  0  0  0
 29108  1  0  0  0
 33 34  1  0  0  0
 33 66  1  0  0  0
 33 70  2  0  0  0
 34 36  1  0  0  0
 34 59  1  0  0  0
 34109  1  0  0  0
 35 44  2  0  0  0
 35 45  1  0  0  0
 35 68  1  0  0  0
 36 56  1  0  0  0
 36110  1  0  0  0
 37 39  1  0  0  0
 37 47  1  0  0  0
 37 66  1  0  0  0
 37111  1  0  0  0
 38 43  2  0  0  0
 38 46  1  0  0  0
 38 47  1  0  0  0
 39 64  1  0  0  0
 39 67  2  0  0  0
 40 52  1  0  0  0
 40 53  2  0  0  0
 40 58  1  0  0  0
 41112  1  0  0  0
 41113  1  0  0  0
 41114  1  0  0  0
 41 48  1  0  0  0
 42 43  1  0  0  0
 42 66  1  0  0  0
 42115  1  0  0  0
 42116  1  0  0  0
 43 44  1  0  0  0
 44117  1  0  0  0
 45 46  2  0  0  0
 45118  1  0  0  0
 46119  1  0  0  0
 47120  1  0  0  0
 47121  1  0  0  0
 48 56  1  0  0  0
 48 65  1  0  0  0
 48122  1  0  0  0
 49 50  1  0  0  0
 49 53  1  0  0  0
 49 64  1  0  0  0
 49123  1  0  0  0
 50 51  1  0  0  0
 50124  1  0  0  0
 50125  1  0  0  0
 51 52  1  0  0  0
 51126  1  0  0  0
 51127  1  0  0  0
 52128  1  0  0  0
 52129  1  0  0  0
 53 54  1  0  0  0
 54 55  2  0  0  0
 54130  1  0  0  0
 55 57  1  0  0  0
 55131  1  0  0  0
 56 69  2  0  0  0
 57 58  2  0  0  0
 57132  1  0  0  0
 58133  1  0  0  0
 59 60  1  0  0  0
 59 61  1  0  0  0
 59 62  1  0  0  0
 60134  1  0  0  0
 60135  1  0  0  0
 60136  1  0  0  0
 61137  1  0  0  0
 61138  1  0  0  0
 61139  1  0  0  0
 62140  1  0  0  0
 62141  1  0  0  0
 62142  1  0  0  0
 63 65  1  0  0  0
 63143  1  0  0  0
 63144  1  0  0  0
 63145  1  0  0  0
 64146  1  0  0  0
 65147  1  0  0  0
 68 84  1  0  0  0
 71 73  2  0  0  0
 71 75  1  0  0  0
 71148  1  0  0  0
 72 74  1  0  0  0
 72 75  2  0  0  0
 72149  1  0  0  0
 73 76  1  0  0  0
 73150  1  0  0  0
 74 76  2  0  0  0
 74151  1  0  0  0
 75 77  1  0  0  0
 76 86  1  0  0  0
 77 85  1  0  0  0
 77 87  2  0  0  0
 78 83  1  0  0  0
 78 84  1  0  0  0
 78 88  2  0  0  0
 79 80  1  0  0  0
 79 81  1  0  0  0
 79152  1  0  0  0
 79153  1  0  0  0
 80 82  1  0  0  0
 80154  1  0  0  0
 80155  1  0  0  0
 81 85  1  0  0  0
 81156  1  0  0  0
 81157  1  0  0  0
 82 83  1  0  0  0
 82 85  1  0  0  0
 82158  1  0  0  0
 83159  1  0  0  0
 83160  1  0  0  0
 84161  1  0  0  0
 84162  1  0  0  0
 86163  1  0  0  0
 87164  1  0  0  0
 87165  1  0  0  0
M  CHG  1  87   1
M  ISO  4   1 100  68 101  84 101  86 100
M  END
> <chiral flag>
0

> <version>
0

> <s_m_source_file>
/data/baiqing/PycharmProjects/Reinvent-master-3.2/result/LINK_invent/BTK/process_docking_weight1_custom_product_contain_oxygen_bond_distance_aromatic_linkinvent_7_9_3/rearranged_h_0143.sdf

> <i_m_source_file_index>
83

> <r_mmod_Potential_Energy-OPLS-2005>
-113.816520690918

> <r_mmod_Stretch_Energy-OPLS-2005>
34.0663414001465

> <r_mmod_Bend_Energy-OPLS-2005>
121.341201782227

> <r_mmod_Torsional_Energy-OPLS-2005>
310.101898193359

> <r_mmod_Improper_Torsional_Energy-OPLS-2005>
3.50013375282288

> <r_mmod_Van_der_Waal_Energy-OPLS-2005>
159.738250732422

> <r_mmod_Electrostatic_Energy-OPLS-2005>
-345.327239990234

> <r_mmod_Solvation_Energy-OPLS-2005>
-405.738189697266

> <b_mmod_Minimization_Converged-OPLS-2005>
0

> <r_mmod_RMS_Derivative-OPLS-2005>
1.8230984210968

$$$$
83
                    3D
 Structure written by MMmdl.
150158  0  0  1  0            999 V2000
  -30.6324  -14.6492   20.4870 C   0  0  0  0  0  0
  -30.4301  -12.3971   19.4673 C   0  0  0  0  0  0
  -29.5107  -12.5152   18.2322 C   0  0  0  0  0  0
  -28.0308  -12.3623   18.6353 C   0  0  0  0  0  0
  -27.6533  -13.2243   19.8715 C   0  0  2  0  0  0
  -28.6962  -13.0882   21.0041 C   0  0  0  0  0  0
  -25.2558  -13.8195   20.5738 C   0  0  0  0  0  0
  -24.1826  -13.0453   20.9212 C   0  0  0  0  0  0
  -24.6388  -11.6915   20.8740 C   0  0  0  0  0  0
  -23.9055  -10.4303   21.0397 C   0  0  0  0  0  0
  -24.3613   -9.4227   21.9176 C   0  0  0  0  0  0
  -23.6297   -8.2251   22.0751 C   0  0  0  0  0  0
  -22.4271   -8.0285   21.3547 C   0  0  0  0  0  0
  -21.9905   -9.0257   20.4645 C   0  0  0  0  0  0
  -22.7223  -10.2140   20.3055 C   0  0  0  0  0  0
  -21.6853   -6.0739   22.5270 C   0  0  0  0  0  0
  -21.4020   -6.5646   23.8211 C   0  0  0  0  0  0
  -21.3665   -5.6801   24.9171 C   0  0  0  0  0  0
  -21.6045   -4.3056   24.7217 C   0  0  0  0  0  0
  -21.8821   -3.8147   23.4337 C   0  0  0  0  0  0
  -21.9200   -4.6972   22.3395 C   0  0  0  0  0  0
  -22.7849  -13.5248   21.1873 C   0  0  0  0  0  0
  -22.1663   -4.2154   21.0978 F   0  0  0  0  0  0
  -21.5627   -3.4542   25.7730 F   0  0  0  0  0  0
  -30.0112  -13.4269   20.4410 N   0  0  0  0  0  0
  -26.2985  -12.9378   20.3360 N   0  0  0  0  0  0
  -25.9326  -11.6517   20.5745 N   0  0  0  0  0  0
  -22.0469  -12.8242   22.0410 N   0  0  0  0  0  0
  -25.4303  -15.1917   20.4218 N   0  0  0  0  0  0
  -31.7924  -14.7808   20.0825 O   0  0  0  0  0  0
  -21.6635   -6.8873   21.4230 O   0  0  0  0  0  0
  -22.3555  -14.5566   20.6729 O   0  0  0  0  0  0
  -24.6257  -31.8556   23.2045 C   0  0  0  0  0  0
  -25.9115  -32.4757   23.8352 C   0  0  1  0  0  0
  -27.2227  -27.2979   20.1242 C   0  0  0  0  0  0
  -25.5942  -33.8565   24.2260 N   0  0  0  0  0  0
  -23.4212  -30.4805   21.5461 C   0  0  2  0  0  0
  -24.8721  -28.9397   20.1077 C   0  0  0  0  0  0
  -22.7466  -29.4589   22.4919 C   0  0  0  0  0  0
  -18.0271  -28.1390   22.8488 C   0  0  0  0  0  0
  -24.1488  -36.7276   23.2633 C   0  0  0  0  0  0
  -25.9661  -30.7788   21.3853 C   0  0  0  0  0  0
  -26.0390  -29.4071   20.7234 C   0  0  0  0  0  0
  -27.2151  -28.5965   20.7249 C   0  0  0  0  0  0
  -26.0372  -26.9017   19.4606 C   0  0  0  0  0  0
  -24.8740  -27.6938   19.4652 C   0  0  0  0  0  0
  -23.6398  -29.8193   20.1599 C   0  0  0  0  0  0
  -25.4121  -36.3060   24.0311 C   0  0  1  0  0  0
  -20.5870  -28.3682   23.1286 C   0  0  2  0  0  0
  -20.6761  -26.9402   22.5421 C   0  0  0  0  0  0
  -19.5746  -26.6380   21.5218 C   0  0  0  0  0  0
  -18.1921  -26.7933   22.1629 C   0  0  0  0  0  0
  -19.1521  -28.8859   23.2883 C   0  0  0  0  0  0
  -18.9452  -30.1462   23.8893 C   0  0  0  0  0  0
  -17.6443  -30.6596   24.0563 C   0  0  0  0  0  0
  -25.9057  -34.9428   23.5075 C   0  0  0  0  0  0
  -16.5337  -29.9090   23.6345 C   0  0  0  0  0  0
  -16.7261  -28.6507   23.0359 C   0  0  0  0  0  0
  -26.4495  -31.6600   25.0743 C   0  0  0  0  0  0
  -25.3719  -31.3768   26.1468 C   0  0  0  0  0  0
  -27.0328  -30.3002   24.6254 C   0  0  0  0  0  0
  -27.6038  -32.4339   25.7540 C   0  0  0  0  0  0
  -27.5565  -37.1800   24.8458 C   0  0  0  0  0  0
  -21.4172  -29.3023   22.3668 N   0  0  0  0  0  0
  -26.4285  -37.3762   23.9389 N   0  0  0  0  0  0
  -24.6889  -31.0542   22.1014 N   0  0  0  0  0  0
  -23.4180  -28.8105   23.2989 O   0  0  0  0  0  0
  -28.3283  -26.4278   20.2085 O   0  0  0  0  0  0
  -26.5601  -34.8895   22.4630 O   0  0  0  0  0  0
  -23.5421  -32.1370   23.7371 O   0  0  0  0  0  0
  -30.4447  -17.5132   19.2544 C   0  0  0  0  0  0
  -30.3252  -18.9432   19.2679 C   0  0  0  0  0  0
  -29.9878  -17.0646   20.4662 C   0  0  0  0  0  0
  -29.7937  -19.3282   20.4746 C   0  0  0  0  0  0
  -29.0484  -23.8623   20.6169 C   0  0  0  0  0  0
  -28.1507  -24.9784   19.9087 C   0  0  0  0  0  0
  -28.9161  -22.3441   20.1080 C   0  0  0  0  0  0
  -29.8790  -15.7361   20.8645 N   0  0  0  0  0  0
  -28.5855  -20.8073   22.3418 O   0  0  0  0  0  0
  -30.9429  -21.4082   21.6726 O   0  0  0  0  0  0
  -29.5509  -18.1579   21.2117 O   0  0  0  0  0  0
  -29.5840  -20.9945   21.2741 S   0  0  0  0  0  0
  -31.4746  -12.5080   19.1733 H   0  0  0  0  0  0
  -30.3495  -11.4038   19.9092 H   0  0  0  0  0  0
  -29.7735  -11.7620   17.4880 H   0  0  0  0  0  0
  -29.6619  -13.4827   17.7491 H   0  0  0  0  0  0
  -27.8562  -11.3066   18.8483 H   0  0  0  0  0  0
  -27.3832  -12.6138   17.7934 H   0  0  0  0  0  0
  -27.6666  -14.2627   19.5387 H   0  0  0  0  0  0
  -28.7062  -12.0690   21.3963 H   0  0  0  0  0  0
  -28.4429  -13.7288   21.8506 H   0  0  0  0  0  0
  -25.2742   -9.5709   22.4762 H   0  0  0  0  0  0
  -24.0007   -7.4644   22.7469 H   0  0  0  0  0  0
  -21.0834   -8.8768   19.8948 H   0  0  0  0  0  0
  -22.3661  -10.9688   19.6178 H   0  0  0  0  0  0
  -21.2000   -7.6149   23.9718 H   0  0  0  0  0  0
  -21.1491   -6.0521   25.9084 H   0  0  0  0  0  0
  -22.0591   -2.7604   23.2831 H   0  0  0  0  0  0
  -22.4088  -11.9915   22.4814 H   0  0  0  0  0  0
  -21.1097  -13.1287   22.2606 H   0  0  0  0  0  0
  -24.6693  -15.8490   20.5524 H   0  0  0  0  0  0
  -26.2849  -15.6297   20.1041 H   0  0  0  0  0  0
  -26.7166  -32.5407   23.1083 H   0  0  0  0  0  0
  -25.0120  -33.9732   25.0422 H   0  0  0  0  0  0
  -22.7153  -31.3004   21.4028 H   0  0  0  0  0  0
  -23.3737  -35.9622   23.3320 H   0  0  0  0  0  0
  -24.3564  -36.8880   22.2040 H   0  0  0  0  0  0
  -23.7255  -37.6487   23.6655 H   0  0  0  0  0  0
  -26.1022  -31.5461   20.6222 H   0  0  0  0  0  0
  -26.8419  -30.8225   22.0196 H   0  0  0  0  0  0
  -28.1076  -28.9435   21.2287 H   0  0  0  0  0  0
  -25.9762  -25.9625   18.9342 H   0  0  0  0  0  0
  -23.9844  -27.3374   18.9662 H   0  0  0  0  0  0
  -23.7599  -30.5967   19.4047 H   0  0  0  0  0  0
  -22.7609  -29.2462   19.8565 H   0  0  0  0  0  0
  -25.1307  -36.1899   25.0801 H   0  0  0  0  0  0
  -20.9964  -28.3270   24.1412 H   0  0  0  0  0  0
  -20.5666  -26.2278   23.3616 H   0  0  0  0  0  0
  -21.6628  -26.7434   22.1210 H   0  0  0  0  0  0
  -19.6900  -25.6287   21.1257 H   0  0  0  0  0  0
  -19.6702  -27.3187   20.6746 H   0  0  0  0  0  0
  -17.4187  -26.6665   21.4048 H   0  0  0  0  0  0
  -18.0338  -26.0086   22.9039 H   0  0  0  0  0  0
  -19.7924  -30.7284   24.2262 H   0  0  0  0  0  0
  -17.5004  -31.6291   24.5138 H   0  0  0  0  0  0
  -15.5345  -30.2983   23.7693 H   0  0  0  0  0  0
  -15.8655  -28.0839   22.7073 H   0  0  0  0  0  0
  -24.5921  -30.7078   25.7818 H   0  0  0  0  0  0
  -24.8893  -32.2949   26.4830 H   0  0  0  0  0  0
  -25.8055  -30.9008   27.0274 H   0  0  0  0  0  0
  -26.2931  -29.6779   24.1215 H   0  0  0  0  0  0
  -27.3894  -29.7253   25.4810 H   0  0  0  0  0  0
  -27.8855  -30.4225   23.9573 H   0  0  0  0  0  0
  -27.2630  -33.3640   26.2101 H   0  0  0  0  0  0
  -28.3893  -32.6897   25.0417 H   0  0  0  0  0  0
  -28.0653  -31.8468   26.5492 H   0  0  0  0  0  0
  -28.2580  -38.0095   24.7482 H   0  0  0  0  0  0
  -28.1057  -36.2617   24.6323 H   0  0  0  0  0  0
  -27.2268  -37.1502   25.8858 H   0  0  0  0  0  0
  -20.9339  -29.8740   21.6883 H   0  0  0  0  0  0
  -26.0150  -38.2816   24.1436 H   0  0  0  0  0  0
  -30.8320  -16.9004   18.4512 H   0  0  0  0  0  0
  -30.6387  -19.6245   18.4916 H   0  0  0  0  0  0
  -28.8216  -23.8879   21.6843 H   0  0  0  0  0  0
  -30.0966  -24.1516   20.5435 H   0  0  0  0  0  0
  -27.1328  -24.6775   20.1519 H   0  0  0  0  0  0
  -28.2623  -24.8674   18.8295 H   0  0  0  0  0  0
  -29.4413  -22.2192   19.1627 H   0  0  0  0  0  0
  -27.8773  -22.0840   19.9194 H   0  0  0  0  0  0
  -29.0486  -15.5122   21.3899 H   0  0  0  0  0  0
  1 25  1  0  0  0
  1 30  2  0  0  0
  1 78  1  0  0  0
  2  3  1  0  0  0
  2 25  1  0  0  0
  2 83  1  0  0  0
  2 84  1  0  0  0
  3  4  1  0  0  0
  3 85  1  0  0  0
  3 86  1  0  0  0
  4  5  1  0  0  0
  4 87  1  0  0  0
  4 88  1  0  0  0
  5  6  1  0  0  0
  5 26  1  0  0  0
  5 89  1  0  0  0
  6 25  1  0  0  0
  6 90  1  0  0  0
  6 91  1  0  0  0
  7  8  2  0  0  0
  7 26  1  0  0  0
  7 29  1  0  0  0
  8  9  1  0  0  0
  8 22  1  0  0  0
  9 10  1  0  0  0
  9 27  2  0  0  0
 10 11  2  0  0  0
 10 15  1  0  0  0
 11 12  1  0  0  0
 11 92  1  0  0  0
 12 13  2  0  0  0
 12 93  1  0  0  0
 13 14  1  0  0  0
 13 31  1  0  0  0
 14 15  2  0  0  0
 14 94  1  0  0  0
 15 95  1  0  0  0
 16 17  2  0  0  0
 16 21  1  0  0  0
 16 31  1  0  0  0
 17 18  1  0  0  0
 17 96  1  0  0  0
 18 19  2  0  0  0
 18 97  1  0  0  0
 19 20  1  0  0  0
 19 24  1  0  0  0
 20 21  2  0  0  0
 20 98  1  0  0  0
 21 23  1  0  0  0
 22 28  1  0  0  0
 22 32  2  0  0  0
 26 27  1  0  0  0
 28 99  1  0  0  0
 28100  1  0  0  0
 29101  1  0  0  0
 29102  1  0  0  0
 33 34  1  0  0  0
 33 66  1  0  0  0
 33 70  2  0  0  0
 34 36  1  0  0  0
 34 59  1  0  0  0
 34103  1  0  0  0
 35 44  2  0  0  0
 35 45  1  0  0  0
 35 68  1  0  0  0
 36 56  1  0  0  0
 36104  1  0  0  0
 37 39  1  0  0  0
 37 47  1  0  0  0
 37 66  1  0  0  0
 37105  1  0  0  0
 38 43  2  0  0  0
 38 46  1  0  0  0
 38 47  1  0  0  0
 39 64  1  0  0  0
 39 67  2  0  0  0
 40 52  1  0  0  0
 40 53  2  0  0  0
 40 58  1  0  0  0
 41106  1  0  0  0
 41107  1  0  0  0
 41108  1  0  0  0
 41 48  1  0  0  0
 42 43  1  0  0  0
 42 66  1  0  0  0
 42109  1  0  0  0
 42110  1  0  0  0
 43 44  1  0  0  0
 44111  1  0  0  0
 45 46  2  0  0  0
 45112  1  0  0  0
 46113  1  0  0  0
 47114  1  0  0  0
 47115  1  0  0  0
 48 56  1  0  0  0
 48 65  1  0  0  0
 48116  1  0  0  0
 49 50  1  0  0  0
 49 53  1  0  0  0
 49 64  1  0  0  0
 49117  1  0  0  0
 50 51  1  0  0  0
 50118  1  0  0  0
 50119  1  0  0  0
 51 52  1  0  0  0
 51120  1  0  0  0
 51121  1  0  0  0
 52122  1  0  0  0
 52123  1  0  0  0
 53 54  1  0  0  0
 54 55  2  0  0  0
 54124  1  0  0  0
 55 57  1  0  0  0
 55125  1  0  0  0
 56 69  2  0  0  0
 57 58  2  0  0  0
 57126  1  0  0  0
 58127  1  0  0  0
 59 60  1  0  0  0
 59 61  1  0  0  0
 59 62  1  0  0  0
 60128  1  0  0  0
 60129  1  0  0  0
 60130  1  0  0  0
 61131  1  0  0  0
 61132  1  0  0  0
 61133  1  0  0  0
 62134  1  0  0  0
 62135  1  0  0  0
 62136  1  0  0  0
 63 65  1  0  0  0
 63137  1  0  0  0
 63138  1  0  0  0
 63139  1  0  0  0
 64140  1  0  0  0
 65141  1  0  0  0
 68 76  1  0  0  0
 71 72  1  0  0  0
 71 73  2  0  0  0
 71142  1  0  0  0
 72 74  2  0  0  0
 72143  1  0  0  0
 73 78  1  0  0  0
 73 81  1  0  0  0
 74 81  1  0  0  0
 74 82  1  0  0  0
 75 76  1  0  0  0
 75 77  1  0  0  0
 75144  1  0  0  0
 75145  1  0  0  0
 76146  1  0  0  0
 76147  1  0  0  0
 77148  1  0  0  0
 77149  1  0  0  0
 77 82  1  0  0  0
 78150  1  0  0  0
 79 82  2  0  0  0
 80 82  2  0  0  0
M  ISO  4   1 100  68 101  76 101  78 100
M  END
> <chiral flag>
0

> <version>
0

> <s_m_source_file>
/data/baiqing/PycharmProjects/Reinvent-master-3.2/result/LINK_invent/BTK/process_docking_weight1_custom_product_contain_oxygen_bond_distance_aromatic_linkinvent_7_9_3/rearranged_h_0143.sdf

> <i_m_source_file_index>
84

> <r_mmod_Potential_Energy-OPLS-2005>
-81.0580520629883

> <r_mmod_Stretch_Energy-OPLS-2005>
83.3993988037109

> <r_mmod_Bend_Energy-OPLS-2005>
144.570068359375

> <r_mmod_Torsional_Energy-OPLS-2005>
230.376968383789

> <r_mmod_Improper_Torsional_Energy-OPLS-2005>
4.58805561065674

> <r_mmod_Van_der_Waal_Energy-OPLS-2005>
121.229629516602

> <r_mmod_Electrostatic_Energy-OPLS-2005>
-455.086700439453

> <r_mmod_Solvation_Energy-OPLS-2005>
-266.4794921875

> <b_mmod_Minimization_Converged-OPLS-2005>
0

> <r_mmod_RMS_Derivative-OPLS-2005>
2.98501682281494

$$$$
84
                    3D
 Structure written by MMmdl.
163172  0  0  1  0            999 V2000
  -30.6604  -14.4983   20.5930 C   0  0  0  0  0  0
  -30.4404  -12.3302   19.4151 C   0  0  0  0  0  0
  -29.4993  -12.5180   18.2044 C   0  0  0  0  0  0
  -28.0201  -12.3681   18.6164 C   0  0  0  0  0  0
  -27.6655  -13.1980   19.8784 C   0  0  2  0  0  0
  -28.7074  -12.9509   20.9928 C   0  0  0  0  0  0
  -25.2619  -13.8143   20.5679 C   0  0  0  0  0  0
  -24.1858  -13.0438   20.9178 C   0  0  0  0  0  0
  -24.6396  -11.6899   20.8733 C   0  0  0  0  0  0
  -23.9054  -10.4294   21.0410 C   0  0  0  0  0  0
  -24.3610   -9.4208   21.9184 C   0  0  0  0  0  0
  -23.6288   -8.2242   22.0752 C   0  0  0  0  0  0
  -22.4266   -8.0282   21.3547 C   0  0  0  0  0  0
  -21.9904   -9.0256   20.4648 C   0  0  0  0  0  0
  -22.7230  -10.2137   20.3059 C   0  0  0  0  0  0
  -21.6855   -6.0735   22.5281 C   0  0  0  0  0  0
  -21.4013   -6.5640   23.8214 C   0  0  0  0  0  0
  -21.3658   -5.6794   24.9176 C   0  0  0  0  0  0
  -21.6044   -4.3056   24.7228 C   0  0  0  0  0  0
  -21.8820   -3.8149   23.4349 C   0  0  0  0  0  0
  -21.9192   -4.6963   22.3404 C   0  0  0  0  0  0
  -22.7883  -13.5249   21.1842 C   0  0  0  0  0  0
  -22.1661   -4.2150   21.0982 F   0  0  0  0  0  0
  -21.5628   -3.4537   25.7739 F   0  0  0  0  0  0
  -30.0382  -13.2930   20.4522 N   0  0  0  0  0  0
  -26.3044  -12.9290   20.3368 N   0  0  0  0  0  0
  -25.9319  -11.6461   20.5756 N   0  0  0  0  0  0
  -22.0517  -12.8242   22.0395 N   0  0  0  0  0  0
  -25.4372  -15.1858   20.4085 N   0  0  0  0  0  0
  -31.7705  -14.7384   20.1062 O   0  0  0  0  0  0
  -21.6636   -6.8876   21.4241 O   0  0  0  0  0  0
  -22.3577  -14.5563   20.6698 O   0  0  0  0  0  0
  -24.6168  -31.8666   23.2100 C   0  0  0  0  0  0
  -25.9052  -32.4817   23.8402 C   0  0  1  0  0  0
  -27.2384  -27.4138   20.1098 C   0  0  0  0  0  0
  -25.5912  -33.8618   24.2326 N   0  0  0  0  0  0
  -23.4070  -30.4879   21.5512 C   0  0  2  0  0  0
  -24.8569  -28.9452   20.1246 C   0  0  0  0  0  0
  -22.7420  -29.4651   22.5007 C   0  0  0  0  0  0
  -18.0261  -28.1373   22.8492 C   0  0  0  0  0  0
  -24.1483  -36.7322   23.2635 C   0  0  0  0  0  0
  -25.9379  -30.8232   21.3689 C   0  0  0  0  0  0
  -26.0183  -29.4516   20.7251 C   0  0  0  0  0  0
  -27.2151  -28.6923   20.7187 C   0  0  0  0  0  0
  -26.0637  -26.9246   19.5060 C   0  0  0  0  0  0
  -24.8746  -27.6782   19.5148 C   0  0  0  0  0  0
  -23.6198  -29.8158   20.1681 C   0  0  0  0  0  0
  -25.4107  -36.3119   24.0333 C   0  0  1  0  0  0
  -20.5853  -28.3670   23.1319 C   0  0  2  0  0  0
  -20.6756  -26.9411   22.5414 C   0  0  0  0  0  0
  -19.5738  -26.6395   21.5208 C   0  0  0  0  0  0
  -18.1917  -26.7920   22.1626 C   0  0  0  0  0  0
  -19.1509  -28.8836   23.2894 C   0  0  0  0  0  0
  -18.9439  -30.1439   23.8909 C   0  0  0  0  0  0
  -17.6446  -30.6583   24.0562 C   0  0  0  0  0  0
  -25.9040  -34.9480   23.5130 C   0  0  0  0  0  0
  -16.5337  -29.9088   23.6326 C   0  0  0  0  0  0
  -16.7250  -28.6500   23.0351 C   0  0  0  0  0  0
  -26.4477  -31.6592   25.0732 C   0  0  0  0  0  0
  -25.3736  -31.3690   26.1473 C   0  0  0  0  0  0
  -27.0306  -30.3029   24.6120 C   0  0  0  0  0  0
  -27.6057  -32.4307   25.7487 C   0  0  0  0  0  0
  -27.5578  -37.1811   24.8460 C   0  0  0  0  0  0
  -21.4148  -29.3033   22.3729 N   0  0  0  0  0  0
  -26.4289  -37.3811   23.9406 N   0  0  0  0  0  0
  -24.6722  -31.0744   22.1014 N   0  0  0  0  0  0
  -23.4166  -28.8194   23.3066 O   0  0  0  0  0  0
  -28.3810  -26.6515   20.0009 O   0  0  0  0  0  0
  -26.5605  -34.8937   22.4694 O   0  0  0  0  0  0
  -23.5355  -32.1435   23.7482 O   0  0  0  0  0  0
  -27.6581  -19.4235   22.8469 C   0  0  0  0  0  0
  -26.7171  -19.8623   23.4905 C   0  0  0  0  0  0
  -30.9850  -19.0769   21.0507 C   0  0  0  0  0  0
  -31.0177  -17.6711   20.8476 C   0  0  0  0  0  0
  -28.8514  -17.4877   21.9165 C   0  0  0  0  0  0
  -28.8099  -18.8872   22.1276 C   0  0  0  0  0  0
  -29.8963  -19.7074   21.7052 C   0  0  0  0  0  0
  -29.9552  -16.8522   21.3046 C   0  0  0  0  0  0
  -28.9832  -24.4896   20.9049 C   0  0  0  0  0  0
  -28.7266  -25.8159   21.0390 C   0  0  0  0  0  0
  -30.0141  -21.1294   22.1314 C   0  0  0  0  0  0
  -28.7866  -23.6516   19.6596 C   0  0  0  0  0  0
  -29.5231  -23.5982   22.0102 C   0  0  0  0  0  0
  -28.9828  -22.1815   20.0920 C   0  0  0  0  0  0
  -25.6049  -20.3779   24.2996 C   0  0  0  0  0  0
  -29.5509  -22.2179   21.4534 N   0  0  0  0  0  0
  -29.9038  -15.4200   21.2270 N   0  0  0  0  0  0
  -30.6072  -21.3375   23.3049 N   0  3  0  0  0  0
  -31.4807  -12.4617   19.1111 H   0  0  0  0  0  0
  -30.3702  -11.3122   19.8018 H   0  0  0  0  0  0
  -29.7436  -11.7964   17.4238 H   0  0  0  0  0  0
  -29.6564  -13.5053   17.7666 H   0  0  0  0  0  0
  -27.8347  -11.3104   18.8059 H   0  0  0  0  0  0
  -27.3681  -12.6463   17.7876 H   0  0  0  0  0  0
  -27.7156  -14.2493   19.5949 H   0  0  0  0  0  0
  -28.6953  -11.9013   21.2914 H   0  0  0  0  0  0
  -28.4528  -13.5014   21.8995 H   0  0  0  0  0  0
  -25.2760   -9.5680   22.4754 H   0  0  0  0  0  0
  -24.0000   -7.4631   22.7472 H   0  0  0  0  0  0
  -21.0836   -8.8781   19.8953 H   0  0  0  0  0  0
  -22.3698  -10.9677   19.6167 H   0  0  0  0  0  0
  -21.2007   -7.6149   23.9719 H   0  0  0  0  0  0
  -21.1477   -6.0522   25.9079 H   0  0  0  0  0  0
  -22.0600   -2.7610   23.2851 H   0  0  0  0  0  0
  -22.4120  -11.9897   22.4780 H   0  0  0  0  0  0
  -21.1136  -13.1276   22.2598 H   0  0  0  0  0  0
  -24.6674  -15.8392   20.5047 H   0  0  0  0  0  0
  -26.2797  -15.6180   20.0518 H   0  0  0  0  0  0
  -26.7127  -32.5519   23.1168 H   0  0  0  0  0  0
  -25.0030  -33.9783   25.0449 H   0  0  0  0  0  0
  -22.6961  -31.3041   21.4079 H   0  0  0  0  0  0
  -23.3744  -35.9660   23.3313 H   0  0  0  0  0  0
  -24.3568  -36.8923   22.2047 H   0  0  0  0  0  0
  -23.7247  -37.6535   23.6640 H   0  0  0  0  0  0
  -26.0502  -31.5832   20.5953 H   0  0  0  0  0  0
  -26.8271  -30.8834   21.9852 H   0  0  0  0  0  0
  -28.1176  -29.0870   21.1649 H   0  0  0  0  0  0
  -26.0772  -25.9581   19.0214 H   0  0  0  0  0  0
  -23.9838  -27.2802   19.0481 H   0  0  0  0  0  0
  -23.7302  -30.5884   19.4061 H   0  0  0  0  0  0
  -22.7438  -29.2362   19.8717 H   0  0  0  0  0  0
  -25.1280  -36.1990   25.0827 H   0  0  0  0  0  0
  -20.9923  -28.3239   24.1448 H   0  0  0  0  0  0
  -20.5658  -26.2288   23.3604 H   0  0  0  0  0  0
  -21.6630  -26.7451   22.1210 H   0  0  0  0  0  0
  -19.6912  -25.6312   21.1225 H   0  0  0  0  0  0
  -19.6681  -27.3215   20.6744 H   0  0  0  0  0  0
  -17.4187  -26.6656   21.4029 H   0  0  0  0  0  0
  -18.0324  -26.0055   22.9015 H   0  0  0  0  0  0
  -19.7907  -30.7236   24.2310 H   0  0  0  0  0  0
  -17.5000  -31.6267   24.5156 H   0  0  0  0  0  0
  -15.5340  -30.2997   23.7646 H   0  0  0  0  0  0
  -15.8643  -28.0824   22.7079 H   0  0  0  0  0  0
  -24.5917  -30.7038   25.7787 H   0  0  0  0  0  0
  -24.8920  -32.2840   26.4929 H   0  0  0  0  0  0
  -25.8087  -30.8840   27.0220 H   0  0  0  0  0  0
  -26.2851  -29.6801   24.1160 H   0  0  0  0  0  0
  -27.4041  -29.7262   25.4589 H   0  0  0  0  0  0
  -27.8704  -30.4330   23.9295 H   0  0  0  0  0  0
  -27.2677  -33.3590   26.2103 H   0  0  0  0  0  0
  -28.3843  -32.6892   25.0297 H   0  0  0  0  0  0
  -28.0758  -31.8409   26.5370 H   0  0  0  0  0  0
  -28.2600  -38.0105   24.7507 H   0  0  0  0  0  0
  -28.1076  -36.2641   24.6281 H   0  0  0  0  0  0
  -27.2294  -37.1434   25.8862 H   0  0  0  0  0  0
  -20.9329  -29.8745   21.6929 H   0  0  0  0  0  0
  -26.0186  -38.2892   24.1411 H   0  0  0  0  0  0
  -31.8358  -19.6701   20.7450 H   0  0  0  0  0  0
  -31.8844  -17.2351   20.3723 H   0  0  0  0  0  0
  -28.0272  -16.8835   22.2715 H   0  0  0  0  0  0
  -28.8766  -26.3594   21.9616 H   0  0  0  0  0  0
  -29.5237  -23.9322   18.9067 H   0  0  0  0  0  0
  -27.7943  -23.8178   19.2395 H   0  0  0  0  0  0
  -28.8829  -23.6586   22.8923 H   0  0  0  0  0  0
  -30.5260  -23.9295   22.2848 H   0  0  0  0  0  0
  -29.6437  -21.6554   19.4001 H   0  0  0  0  0  0
  -28.0288  -21.6509   20.1045 H   0  0  0  0  0  0
  -25.0341  -19.5451   24.7114 H   0  0  0  0  0  0
  -24.9487  -20.9917   23.6824 H   0  0  0  0  0  0
  -25.9949  -20.9821   25.1190 H   0  0  0  0  0  0
  -29.0647  -15.0129   21.6076 H   0  0  0  0  0  0
  -30.9585  -20.5422   23.8172 H   0  0  0  0  0  0
  -30.7455  -22.2558   23.6900 H   0  0  0  0  0  0
  1 25  1  0  0  0
  1 30  2  0  0  0
  1 87  1  0  0  0
  2  3  1  0  0  0
  2 25  1  0  0  0
  2 89  1  0  0  0
  2 90  1  0  0  0
  3  4  1  0  0  0
  3 91  1  0  0  0
  3 92  1  0  0  0
  4  5  1  0  0  0
  4 93  1  0  0  0
  4 94  1  0  0  0
  5  6  1  0  0  0
  5 26  1  0  0  0
  5 95  1  0  0  0
  6 25  1  0  0  0
  6 96  1  0  0  0
  6 97  1  0  0  0
  7  8  2  0  0  0
  7 26  1  0  0  0
  7 29  1  0  0  0
  8  9  1  0  0  0
  8 22  1  0  0  0
  9 10  1  0  0  0
  9 27  2  0  0  0
 10 11  2  0  0  0
 10 15  1  0  0  0
 11 12  1  0  0  0
 11 98  1  0  0  0
 12 13  2  0  0  0
 12 99  1  0  0  0
 13 14  1  0  0  0
 13 31  1  0  0  0
 14 15  2  0  0  0
 14100  1  0  0  0
 15101  1  0  0  0
 16 17  2  0  0  0
 16 21  1  0  0  0
 16 31  1  0  0  0
 17 18  1  0  0  0
 17102  1  0  0  0
 18 19  2  0  0  0
 18103  1  0  0  0
 19 20  1  0  0  0
 19 24  1  0  0  0
 20 21  2  0  0  0
 20104  1  0  0  0
 21 23  1  0  0  0
 22 28  1  0  0  0
 22 32  2  0  0  0
 26 27  1  0  0  0
 28105  1  0  0  0
 28106  1  0  0  0
 29107  1  0  0  0
 29108  1  0  0  0
 33 34  1  0  0  0
 33 66  1  0  0  0
 33 70  2  0  0  0
 34 36  1  0  0  0
 34 59  1  0  0  0
 34109  1  0  0  0
 35 44  2  0  0  0
 35 45  1  0  0  0
 35 68  1  0  0  0
 36 56  1  0  0  0
 36110  1  0  0  0
 37 39  1  0  0  0
 37 47  1  0  0  0
 37 66  1  0  0  0
 37111  1  0  0  0
 38 43  2  0  0  0
 38 46  1  0  0  0
 38 47  1  0  0  0
 39 64  1  0  0  0
 39 67  2  0  0  0
 40 52  1  0  0  0
 40 53  2  0  0  0
 40 58  1  0  0  0
 41112  1  0  0  0
 41113  1  0  0  0
 41114  1  0  0  0
 41 48  1  0  0  0
 42 43  1  0  0  0
 42 66  1  0  0  0
 42115  1  0  0  0
 42116  1  0  0  0
 43 44  1  0  0  0
 44117  1  0  0  0
 45 46  2  0  0  0
 45118  1  0  0  0
 46119  1  0  0  0
 47120  1  0  0  0
 47121  1  0  0  0
 48 56  1  0  0  0
 48 65  1  0  0  0
 48122  1  0  0  0
 49 50  1  0  0  0
 49 53  1  0  0  0
 49 64  1  0  0  0
 49123  1  0  0  0
 50 51  1  0  0  0
 50124  1  0  0  0
 50125  1  0  0  0
 51 52  1  0  0  0
 51126  1  0  0  0
 51127  1  0  0  0
 52128  1  0  0  0
 52129  1  0  0  0
 53 54  1  0  0  0
 54 55  2  0  0  0
 54130  1  0  0  0
 55 57  1  0  0  0
 55131  1  0  0  0
 56 69  2  0  0  0
 57 58  2  0  0  0
 57132  1  0  0  0
 58133  1  0  0  0
 59 60  1  0  0  0
 59 61  1  0  0  0
 59 62  1  0  0  0
 60134  1  0  0  0
 60135  1  0  0  0
 60136  1  0  0  0
 61137  1  0  0  0
 61138  1  0  0  0
 61139  1  0  0  0
 62140  1  0  0  0
 62141  1  0  0  0
 62142  1  0  0  0
 63 65  1  0  0  0
 63143  1  0  0  0
 63144  1  0  0  0
 63145  1  0  0  0
 64146  1  0  0  0
 65147  1  0  0  0
 68 80  1  0  0  0
 71 72  3  0  0  0
 71 76  1  0  0  0
 72 85  1  0  0  0
 73 74  2  0  0  0
 73 77  1  0  0  0
 73148  1  0  0  0
 74 78  1  0  0  0
 74149  1  0  0  0
 75 76  1  0  0  0
 75 78  2  0  0  0
 75150  1  0  0  0
 76 77  2  0  0  0
 77 81  1  0  0  0
 78 87  1  0  0  0
 79 80  2  0  0  0
 79 82  1  0  0  0
 79 83  1  0  0  0
 80151  1  0  0  0
 81 86  1  0  0  0
 81 88  2  0  0  0
 82 84  1  0  0  0
 82152  1  0  0  0
 82153  1  0  0  0
 83 86  1  0  0  0
 83154  1  0  0  0
 83155  1  0  0  0
 84 86  1  0  0  0
 84156  1  0  0  0
 84157  1  0  0  0
 85158  1  0  0  0
 85159  1  0  0  0
 85160  1  0  0  0
 87161  1  0  0  0
 88162  1  0  0  0
 88163  1  0  0  0
M  CHG  1  88   1
M  ISO  4   1 100  68 101  80 101  87 100
M  END
> <chiral flag>
0

> <version>
0

> <s_m_source_file>
/data/baiqing/PycharmProjects/Reinvent-master-3.2/result/LINK_invent/BTK/process_docking_weight1_custom_product_contain_oxygen_bond_distance_aromatic_linkinvent_7_9_3/rearranged_h_0143.sdf

> <i_m_source_file_index>
85

> <r_mmod_Potential_Energy-OPLS-2005>
-124.760612487793

> <r_mmod_Stretch_Energy-OPLS-2005>
42.9536437988281

> <r_mmod_Bend_Energy-OPLS-2005>
133.32746887207

> <r_mmod_Torsional_Energy-OPLS-2005>
274.07275390625

> <r_mmod_Improper_Torsional_Energy-OPLS-2005>
4.71402883529663

> <r_mmod_Van_der_Waal_Energy-OPLS-2005>
141.241027832031

> <r_mmod_Electrostatic_Energy-OPLS-2005>
-350.425140380859

> <r_mmod_Solvation_Energy-OPLS-2005>
-385.162658691406

> <b_mmod_Minimization_Converged-OPLS-2005>
0

> <r_mmod_RMS_Derivative-OPLS-2005>
1.43066096305847

$$$$
85
                    3D
 Structure written by MMmdl.
160168  0  0  1  0            999 V2000
  -30.7571  -14.3773   20.6856 C   0  0  0  0  0  0
  -30.4249  -12.2968   19.3970 C   0  0  0  0  0  0
  -29.4907  -12.5223   18.1926 C   0  0  0  0  0  0
  -28.0154  -12.3759   18.6094 C   0  0  0  0  0  0
  -27.6704  -13.1983   19.8784 C   0  0  2  0  0  0
  -28.7065  -12.9352   20.9930 C   0  0  0  0  0  0
  -25.2641  -13.8139   20.5665 C   0  0  0  0  0  0
  -24.1868  -13.0433   20.9146 C   0  0  0  0  0  0
  -24.6398  -11.6891   20.8695 C   0  0  0  0  0  0
  -23.9059  -10.4289   21.0387 C   0  0  0  0  0  0
  -24.3614   -9.4209   21.9165 C   0  0  0  0  0  0
  -23.6289   -8.2247   22.0746 C   0  0  0  0  0  0
  -22.4266   -8.0286   21.3546 C   0  0  0  0  0  0
  -21.9903   -9.0255   20.4640 C   0  0  0  0  0  0
  -22.7233  -10.2135   20.3038 C   0  0  0  0  0  0
  -21.6850   -6.0735   22.5273 C   0  0  0  0  0  0
  -21.4017   -6.5637   23.8211 C   0  0  0  0  0  0
  -21.3661   -5.6791   24.9170 C   0  0  0  0  0  0
  -21.6040   -4.3050   24.7215 C   0  0  0  0  0  0
  -21.8825   -3.8145   23.4336 C   0  0  0  0  0  0
  -21.9200   -4.6965   22.3398 C   0  0  0  0  0  0
  -22.7894  -13.5250   21.1831 C   0  0  0  0  0  0
  -22.1661   -4.2153   21.0977 F   0  0  0  0  0  0
  -21.5634   -3.4531   25.7730 F   0  0  0  0  0  0
  -30.0510  -13.2367   20.4638 N   0  0  0  0  0  0
  -26.3071  -12.9290   20.3357 N   0  0  0  0  0  0
  -25.9321  -11.6451   20.5713 N   0  0  0  0  0  0
  -22.0529  -12.8245   22.0382 N   0  0  0  0  0  0
  -25.4398  -15.1858   20.4105 N   0  0  0  0  0  0
  -31.7626  -14.6866   20.0391 O   0  0  0  0  0  0
  -21.6636   -6.8879   21.4232 O   0  0  0  0  0  0
  -22.3585  -14.5565   20.6695 O   0  0  0  0  0  0
  -24.6143  -31.8687   23.2126 C   0  0  0  0  0  0
  -25.9040  -32.4829   23.8408 C   0  0  1  0  0  0
  -27.2244  -27.4403   20.0963 C   0  0  0  0  0  0
  -25.5934  -33.8626   24.2357 N   0  0  0  0  0  0
  -23.4026  -30.4942   21.5519 C   0  0  2  0  0  0
  -24.8461  -28.9682   20.1131 C   0  0  0  0  0  0
  -22.7437  -29.4661   22.4974 C   0  0  0  0  0  0
  -18.0292  -28.1395   22.8443 C   0  0  0  0  0  0
  -24.1503  -36.7299   23.2639 C   0  0  0  0  0  0
  -25.9301  -30.8398   21.3634 C   0  0  0  0  0  0
  -26.0078  -29.4754   20.7094 C   0  0  0  0  0  0
  -27.2035  -28.7184   20.6963 C   0  0  0  0  0  0
  -26.0472  -26.9531   19.4846 C   0  0  0  0  0  0
  -24.8608  -27.7064   19.4988 C   0  0  0  0  0  0
  -23.6101  -29.8364   20.1631 C   0  0  0  0  0  0
  -25.4126  -36.3116   24.0349 C   0  0  1  0  0  0
  -20.5883  -28.3664   23.1309 C   0  0  2  0  0  0
  -20.6818  -26.9404   22.5412 C   0  0  0  0  0  0
  -19.5805  -26.6383   21.5205 C   0  0  0  0  0  0
  -18.1963  -26.7927   22.1585 C   0  0  0  0  0  0
  -19.1539  -28.8847   23.2864 C   0  0  0  0  0  0
  -18.9476  -30.1464   23.8861 C   0  0  0  0  0  0
  -17.6481  -30.6596   24.0560 C   0  0  0  0  0  0
  -25.9042  -34.9472   23.5143 C   0  0  0  0  0  0
  -16.5369  -29.9099   23.6326 C   0  0  0  0  0  0
  -16.7279  -28.6539   23.0298 C   0  0  0  0  0  0
  -26.4463  -31.6608   25.0722 C   0  0  0  0  0  0
  -25.3716  -31.3734   26.1479 C   0  0  0  0  0  0
  -27.0327  -30.3074   24.6082 C   0  0  0  0  0  0
  -27.6058  -32.4313   25.7470 C   0  0  0  0  0  0
  -27.5597  -37.1814   24.8471 C   0  0  0  0  0  0
  -21.4167  -29.3014   22.3711 N   0  0  0  0  0  0
  -26.4308  -37.3800   23.9413 N   0  0  0  0  0  0
  -24.6668  -31.0830   22.1001 N   0  0  0  0  0  0
  -23.4215  -28.8194   23.2998 O   0  0  0  0  0  0
  -28.3808  -26.6907   20.1032 O   0  0  0  0  0  0
  -26.5598  -34.8912   22.4693 O   0  0  0  0  0  0
  -23.5347  -32.1423   23.7549 O   0  0  0  0  0  0
  -31.6765  -17.7382   24.0016 C   0  0  0  0  0  0
  -31.7803  -18.8420   23.1336 C   0  0  0  0  0  0
  -30.9315  -17.4764   21.3028 C   0  0  0  0  0  0
  -31.1939  -16.4986   23.5324 C   0  0  0  0  0  0
  -31.3914  -18.7227   21.7856 C   0  0  0  0  0  0
  -30.8408  -16.3574   22.1681 C   0  0  0  0  0  0
  -30.4789  -22.1523   20.8343 C   0  0  0  0  0  0
  -31.0648  -15.3307   24.4977 C   0  0  0  0  0  0
  -29.3008  -23.1052   21.0577 C   0  0  0  0  0  0
  -30.2127  -20.6498   21.0300 C   0  0  0  0  0  0
  -29.5004  -24.5271   20.4806 C   0  0  0  0  0  0
  -28.2129  -25.3550   20.5956 C   0  0  0  0  0  0
  -30.3186  -15.1166   21.7154 N   0  0  0  0  0  0
  -31.4337  -19.8437   20.9465 N   0  0  0  0  0  0
  -31.6056  -22.5678   20.5401 O   0  0  0  0  0  0
  -31.4684  -12.4062   19.0927 H   0  0  0  0  0  0
  -30.3311  -11.2728   19.7611 H   0  0  0  0  0  0
  -29.7268  -11.8101   17.4008 H   0  0  0  0  0  0
  -29.6598  -13.5159   17.7720 H   0  0  0  0  0  0
  -27.8275  -11.3172   18.7903 H   0  0  0  0  0  0
  -27.3637  -12.6614   17.7828 H   0  0  0  0  0  0
  -27.7309  -14.2529   19.6092 H   0  0  0  0  0  0
  -28.6704  -11.8869   21.2935 H   0  0  0  0  0  0
  -28.4467  -13.4959   21.8903 H   0  0  0  0  0  0
  -25.2757   -9.5690   22.4730 H   0  0  0  0  0  0
  -23.9999   -7.4642   22.7465 H   0  0  0  0  0  0
  -21.0832   -8.8774   19.8941 H   0  0  0  0  0  0
  -22.3687  -10.9674   19.6143 H   0  0  0  0  0  0
  -21.1997   -7.6136   23.9716 H   0  0  0  0  0  0
  -21.1480   -6.0510   25.9080 H   0  0  0  0  0  0
  -22.0600   -2.7602   23.2834 H   0  0  0  0  0  0
  -22.4141  -11.9913   22.4776 H   0  0  0  0  0  0
  -21.1146  -13.1276   22.2572 H   0  0  0  0  0  0
  -24.6802  -15.8474   20.5325 H   0  0  0  0  0  0
  -26.3042  -15.6235   20.1157 H   0  0  0  0  0  0
  -26.7123  -32.5553   23.1185 H   0  0  0  0  0  0
  -25.0099  -33.9785   25.0522 H   0  0  0  0  0  0
  -22.6894  -31.3103   21.4192 H   0  0  0  0  0  0
  -23.3753  -35.9635   23.3316 H   0  0  0  0  0  0
  -24.3610  -36.8893   22.2047 H   0  0  0  0  0  0
  -23.7250  -37.6514   23.6636 H   0  0  0  0  0  0
  -26.0427  -31.6108   20.6003 H   0  0  0  0  0  0
  -26.8166  -30.8926   21.9837 H   0  0  0  0  0  0
  -28.1016  -29.0997   21.1620 H   0  0  0  0  0  0
  -26.0281  -25.9968   18.9834 H   0  0  0  0  0  0
  -23.9682  -27.3132   19.0292 H   0  0  0  0  0  0
  -23.7265  -30.6173   19.4102 H   0  0  0  0  0  0
  -22.7312  -29.2650   19.8590 H   0  0  0  0  0  0
  -25.1293  -36.1986   25.0844 H   0  0  0  0  0  0
  -20.9944  -28.3238   24.1450 H   0  0  0  0  0  0
  -20.5808  -26.2247   23.3584 H   0  0  0  0  0  0
  -21.6677  -26.7529   22.1160 H   0  0  0  0  0  0
  -19.6987  -25.6296   21.1245 H   0  0  0  0  0  0
  -19.6776  -27.3183   20.6721 H   0  0  0  0  0  0
  -17.4249  -26.6647   21.3986 H   0  0  0  0  0  0
  -18.0383  -26.0098   22.9003 H   0  0  0  0  0  0
  -19.7970  -30.7277   24.2201 H   0  0  0  0  0  0
  -17.5063  -31.6263   24.5175 H   0  0  0  0  0  0
  -15.5382  -30.2998   23.7716 H   0  0  0  0  0  0
  -15.8673  -28.0904   22.6964 H   0  0  0  0  0  0
  -24.5853  -30.7125   25.7813 H   0  0  0  0  0  0
  -24.8918  -32.2905   26.4913 H   0  0  0  0  0  0
  -25.8025  -30.8894   27.0256 H   0  0  0  0  0  0
  -26.2889  -29.6819   24.1139 H   0  0  0  0  0  0
  -27.4152  -29.7327   25.4532 H   0  0  0  0  0  0
  -27.8695  -30.4433   23.9222 H   0  0  0  0  0  0
  -27.2710  -33.3610   26.2085 H   0  0  0  0  0  0
  -28.3847  -32.6880   25.0272 H   0  0  0  0  0  0
  -28.0760  -31.8406   26.5349 H   0  0  0  0  0  0
  -28.2608  -38.0117   24.7543 H   0  0  0  0  0  0
  -28.1110  -36.2651   24.6279 H   0  0  0  0  0  0
  -27.2330  -37.1451   25.8881 H   0  0  0  0  0  0
  -20.9355  -29.8695   21.6888 H   0  0  0  0  0  0
  -26.0203  -38.2876   24.1424 H   0  0  0  0  0  0
  -31.9542  -17.8565   25.0399 H   0  0  0  0  0  0
  -32.1335  -19.7862   23.5258 H   0  0  0  0  0  0
  -30.6388  -17.3790   20.2668 H   0  0  0  0  0  0
  -31.4340  -15.5875   25.4916 H   0  0  0  0  0  0
  -31.6316  -14.4694   24.1438 H   0  0  0  0  0  0
  -30.0203  -15.0343   24.5974 H   0  0  0  0  0  0
  -29.1210  -23.1601   22.1330 H   0  0  0  0  0  0
  -28.4133  -22.6483   20.6185 H   0  0  0  0  0  0
  -29.5045  -20.3185   20.2696 H   0  0  0  0  0  0
  -29.7185  -20.5160   21.9949 H   0  0  0  0  0  0
  -29.7935  -24.4641   19.4296 H   0  0  0  0  0  0
  -30.3152  -25.0338   21.0005 H   0  0  0  0  0  0
  -27.8990  -25.4042   21.6399 H   0  0  0  0  0  0
  -27.4322  -24.8165   20.0631 H   0  0  0  0  0  0
  -29.6006  -14.6895   22.2797 H   0  0  0  0  0  0
  -32.2185  -20.4665   21.1304 H   0  0  0  0  0  0
  1 25  1  0  0  0
  1 30  2  0  0  0
  1 83  1  0  0  0
  2  3  1  0  0  0
  2 25  1  0  0  0
  2 86  1  0  0  0
  2 87  1  0  0  0
  3  4  1  0  0  0
  3 88  1  0  0  0
  3 89  1  0  0  0
  4  5  1  0  0  0
  4 90  1  0  0  0
  4 91  1  0  0  0
  5  6  1  0  0  0
  5 26  1  0  0  0
  5 92  1  0  0  0
  6 25  1  0  0  0
  6 93  1  0  0  0
  6 94  1  0  0  0
  7  8  2  0  0  0
  7 26  1  0  0  0
  7 29  1  0  0  0
  8  9  1  0  0  0
  8 22  1  0  0  0
  9 10  1  0  0  0
  9 27  2  0  0  0
 10 11  2  0  0  0
 10 15  1  0  0  0
 11 12  1  0  0  0
 11 95  1  0  0  0
 12 13  2  0  0  0
 12 96  1  0  0  0
 13 14  1  0  0  0
 13 31  1  0  0  0
 14 15  2  0  0  0
 14 97  1  0  0  0
 15 98  1  0  0  0
 16 17  2  0  0  0
 16 21  1  0  0  0
 16 31  1  0  0  0
 17 18  1  0  0  0
 17 99  1  0  0  0
 18 19  2  0  0  0
 18100  1  0  0  0
 19 20  1  0  0  0
 19 24  1  0  0  0
 20 21  2  0  0  0
 20101  1  0  0  0
 21 23  1  0  0  0
 22 28  1  0  0  0
 22 32  2  0  0  0
 26 27  1  0  0  0
 28102  1  0  0  0
 28103  1  0  0  0
 29104  1  0  0  0
 29105  1  0  0  0
 33 34  1  0  0  0
 33 66  1  0  0  0
 33 70  2  0  0  0
 34 36  1  0  0  0
 34 59  1  0  0  0
 34106  1  0  0  0
 35 44  2  0  0  0
 35 45  1  0  0  0
 35 68  1  0  0  0
 36 56  1  0  0  0
 36107  1  0  0  0
 37 39  1  0  0  0
 37 47  1  0  0  0
 37 66  1  0  0  0
 37108  1  0  0  0
 38 43  2  0  0  0
 38 46  1  0  0  0
 38 47  1  0  0  0
 39 64  1  0  0  0
 39 67  2  0  0  0
 40 52  1  0  0  0
 40 53  2  0  0  0
 40 58  1  0  0  0
 41109  1  0  0  0
 41110  1  0  0  0
 41111  1  0  0  0
 41 48  1  0  0  0
 42 43  1  0  0  0
 42 66  1  0  0  0
 42112  1  0  0  0
 42113  1  0  0  0
 43 44  1  0  0  0
 44114  1  0  0  0
 45 46  2  0  0  0
 45115  1  0  0  0
 46116  1  0  0  0
 47117  1  0  0  0
 47118  1  0  0  0
 48 56  1  0  0  0
 48 65  1  0  0  0
 48119  1  0  0  0
 49 50  1  0  0  0
 49 53  1  0  0  0
 49 64  1  0  0  0
 49120  1  0  0  0
 50 51  1  0  0  0
 50121  1  0  0  0
 50122  1  0  0  0
 51 52  1  0  0  0
 51123  1  0  0  0
 51124  1  0  0  0
 52125  1  0  0  0
 52126  1  0  0  0
 53 54  1  0  0  0
 54 55  2  0  0  0
 54127  1  0  0  0
 55 57  1  0  0  0
 55128  1  0  0  0
 56 69  2  0  0  0
 57 58  2  0  0  0
 57129  1  0  0  0
 58130  1  0  0  0
 59 60  1  0  0  0
 59 61  1  0  0  0
 59 62  1  0  0  0
 60131  1  0  0  0
 60132  1  0  0  0
 60133  1  0  0  0
 61134  1  0  0  0
 61135  1  0  0  0
 61136  1  0  0  0
 62137  1  0  0  0
 62138  1  0  0  0
 62139  1  0  0  0
 63 65  1  0  0  0
 63140  1  0  0  0
 63141  1  0  0  0
 63142  1  0  0  0
 64143  1  0  0  0
 65144  1  0  0  0
 68 82  1  0  0  0
 71 72  2  0  0  0
 71 74  1  0  0  0
 71145  1  0  0  0
 72 75  1  0  0  0
 72146  1  0  0  0
 73 75  2  0  0  0
 73 76  1  0  0  0
 73147  1  0  0  0
 74 76  2  0  0  0
 74 78  1  0  0  0
 75 84  1  0  0  0
 76 83  1  0  0  0
 77 79  1  0  0  0
 77 80  1  0  0  0
 77 85  2  0  0  0
 78148  1  0  0  0
 78149  1  0  0  0
 78150  1  0  0  0
 79 81  1  0  0  0
 79151  1  0  0  0
 79152  1  0  0  0
 80 84  1  0  0  0
 80153  1  0  0  0
 80154  1  0  0  0
 81 82  1  0  0  0
 81155  1  0  0  0
 81156  1  0  0  0
 82157  1  0  0  0
 82158  1  0  0  0
 83159  1  0  0  0
 84160  1  0  0  0
M  ISO  4   1 100  68 101  82 101  83 100
M  END
> <chiral flag>
0

> <version>
0

> <s_m_source_file>
/data/baiqing/PycharmProjects/Reinvent-master-3.2/result/LINK_invent/BTK/process_docking_weight1_custom_product_contain_oxygen_bond_distance_aromatic_linkinvent_7_9_3/rearranged_h_0143.sdf

> <i_m_source_file_index>
86

> <r_mmod_Potential_Energy-OPLS-2005>
-74.7587966918945

> <r_mmod_Stretch_Energy-OPLS-2005>
34.1947441101074

> <r_mmod_Bend_Energy-OPLS-2005>
86.4741897583008

> <r_mmod_Torsional_Energy-OPLS-2005>
250.299331665039

> <r_mmod_Improper_Torsional_Energy-OPLS-2005>
8.3592357635498

> <r_mmod_Van_der_Waal_Energy-OPLS-2005>
156.651809692383

> <r_mmod_Electrostatic_Energy-OPLS-2005>
-383.930908203125

> <r_mmod_Solvation_Energy-OPLS-2005>
-235.744873046875

> <b_mmod_Minimization_Converged-OPLS-2005>
0

> <r_mmod_RMS_Derivative-OPLS-2005>
2.6852548122406

$$$$
86
                    3D
 Structure written by MMmdl.
164172  0  0  1  0            999 V2000
  -30.7112  -14.4309   20.5451 C   0  0  0  0  0  0
  -30.4133  -12.2672   19.4267 C   0  0  0  0  0  0
  -29.4929  -12.4897   18.2092 C   0  0  0  0  0  0
  -28.0128  -12.3558   18.6192 C   0  0  0  0  0  0
  -27.6619  -13.1992   19.8750 C   0  0  2  0  0  0
  -28.7003  -12.9736   20.9975 C   0  0  0  0  0  0
  -25.2596  -13.8156   20.5686 C   0  0  0  0  0  0
  -24.1834  -13.0452   20.9142 C   0  0  0  0  0  0
  -24.6380  -11.6916   20.8709 C   0  0  0  0  0  0
  -23.9048  -10.4319   21.0385 C   0  0  0  0  0  0
  -24.3618   -9.4249   21.9163 C   0  0  0  0  0  0
  -23.6296   -8.2281   22.0753 C   0  0  0  0  0  0
  -22.4274   -8.0320   21.3558 C   0  0  0  0  0  0
  -21.9912   -9.0281   20.4634 C   0  0  0  0  0  0
  -22.7221  -10.2166   20.3031 C   0  0  0  0  0  0
  -21.6881   -6.0744   22.5286 C   0  0  0  0  0  0
  -21.4019   -6.5638   23.8222 C   0  0  0  0  0  0
  -21.3660   -5.6793   24.9184 C   0  0  0  0  0  0
  -21.6047   -4.3055   24.7243 C   0  0  0  0  0  0
  -21.8812   -3.8145   23.4361 C   0  0  0  0  0  0
  -21.9198   -4.6960   22.3416 C   0  0  0  0  0  0
  -22.7849  -13.5235   21.1820 C   0  0  0  0  0  0
  -22.1670   -4.2140   21.0996 F   0  0  0  0  0  0
  -21.5628   -3.4541   25.7756 F   0  0  0  0  0  0
  -30.0372  -13.2552   20.4479 N   0  0  0  0  0  0
  -26.3026  -12.9309   20.3359 N   0  0  0  0  0  0
  -25.9298  -11.6486   20.5749 N   0  0  0  0  0  0
  -22.0512  -12.8212   22.0379 N   0  0  0  0  0  0
  -25.4320  -15.1883   20.4175 N   0  0  0  0  0  0
  -31.8488  -14.5963   20.0952 O   0  0  0  0  0  0
  -21.6659   -6.8904   21.4262 O   0  0  0  0  0  0
  -22.3530  -14.5562   20.6712 O   0  0  0  0  0  0
  -24.6126  -31.8687   23.2115 C   0  0  0  0  0  0
  -25.9031  -32.4825   23.8403 C   0  0  1  0  0  0
  -27.2374  -27.4617   20.0927 C   0  0  0  0  0  0
  -25.5901  -33.8620   24.2332 N   0  0  0  0  0  0
  -23.3991  -30.4935   21.5503 C   0  0  2  0  0  0
  -24.8484  -28.9588   20.1176 C   0  0  0  0  0  0
  -22.7394  -29.4668   22.4992 C   0  0  0  0  0  0
  -18.0269  -28.1384   22.8489 C   0  0  0  0  0  0
  -24.1487  -36.7302   23.2632 C   0  0  0  0  0  0
  -25.9257  -30.8435   21.3600 C   0  0  0  0  0  0
  -26.0077  -29.4801   20.7074 C   0  0  0  0  0  0
  -27.2099  -28.7400   20.6896 C   0  0  0  0  0  0
  -26.0641  -26.9437   19.5064 C   0  0  0  0  0  0
  -24.8691  -27.6875   19.5173 C   0  0  0  0  0  0
  -23.6082  -29.8219   20.1662 C   0  0  0  0  0  0
  -25.4108  -36.3104   24.0336 C   0  0  1  0  0  0
  -20.5851  -28.3673   23.1307 C   0  0  2  0  0  0
  -20.6761  -26.9412   22.5405 C   0  0  0  0  0  0
  -19.5744  -26.6389   21.5202 C   0  0  0  0  0  0
  -18.1918  -26.7931   22.1611 C   0  0  0  0  0  0
  -19.1514  -28.8846   23.2891 C   0  0  0  0  0  0
  -18.9450  -30.1454   23.8905 C   0  0  0  0  0  0
  -17.6455  -30.6594   24.0567 C   0  0  0  0  0  0
  -25.9049  -34.9469   23.5127 C   0  0  0  0  0  0
  -16.5350  -29.9093   23.6334 C   0  0  0  0  0  0
  -16.7257  -28.6504   23.0361 C   0  0  0  0  0  0
  -26.4483  -31.6599   25.0718 C   0  0  0  0  0  0
  -25.3759  -31.3682   26.1468 C   0  0  0  0  0  0
  -27.0329  -30.3051   24.6078 C   0  0  0  0  0  0
  -27.6058  -32.4324   25.7478 C   0  0  0  0  0  0
  -27.5594  -37.1783   24.8455 C   0  0  0  0  0  0
  -21.4127  -29.3033   22.3711 N   0  0  0  0  0  0
  -26.4283  -37.3803   23.9433 N   0  0  0  0  0  0
  -24.6631  -31.0820   22.0993 N   0  0  0  0  0  0
  -23.4160  -28.8202   23.3028 O   0  0  0  0  0  0
  -28.3862  -26.7147   20.0817 O   0  0  0  0  0  0
  -26.5600  -34.8918   22.4685 O   0  0  0  0  0  0
  -23.5326  -32.1426   23.7522 O   0  0  0  0  0  0
  -30.4360  -18.4353   18.7554 C   0  0  0  0  0  0
  -30.5586  -19.4783   19.6915 C   0  0  0  0  0  0
  -30.2474  -17.1117   19.1955 C   0  0  0  0  0  0
  -30.2974  -17.8663   21.5148 C   0  0  0  0  0  0
  -30.4785  -19.1999   21.0728 C   0  0  0  0  0  0
  -30.1978  -16.8125   20.5775 C   0  0  0  0  0  0
  -30.5562  -20.2961   22.0373 C   0  0  0  0  0  0
  -29.3291  -24.5257   20.6239 C   0  0  0  0  0  0
  -30.1857  -22.7179   23.9562 C   0  0  0  0  0  0
  -28.0346  -22.7856   22.7334 C   0  0  0  0  0  0
  -30.1633  -23.8992   21.7537 C   0  0  0  0  0  0
  -28.3370  -25.6297   21.0121 C   0  0  0  0  0  0
  -29.5644  -22.6875   22.5396 C   0  0  0  0  0  0
  -31.3254  -20.1663   23.1146 N   0  0  0  0  0  0
  -30.0052  -15.4723   21.0163 N   0  0  0  0  0  0
  -29.8266  -21.4106   21.8117 N   0  3  0  0  0  0
  -29.4550  -24.1511   19.4526 O   0  0  0  0  0  0
  -31.4622  -12.3377   19.1315 H   0  0  0  0  0  0
  -30.2856  -11.2580   19.8207 H   0  0  0  0  0  0
  -29.7302  -11.7709   17.4229 H   0  0  0  0  0  0
  -29.6699  -13.4792   17.7852 H   0  0  0  0  0  0
  -27.8202  -11.3009   18.8214 H   0  0  0  0  0  0
  -27.3614  -12.6238   17.7862 H   0  0  0  0  0  0
  -27.7091  -14.2469   19.5793 H   0  0  0  0  0  0
  -28.6592  -11.9387   21.3402 H   0  0  0  0  0  0
  -28.4723  -13.5802   21.8750 H   0  0  0  0  0  0
  -25.2783   -9.5732   22.4705 H   0  0  0  0  0  0
  -24.0022   -7.4671   22.7476 H   0  0  0  0  0  0
  -21.0856   -8.8789   19.8923 H   0  0  0  0  0  0
  -22.3679  -10.9705   19.6127 H   0  0  0  0  0  0
  -21.2006   -7.6147   23.9716 H   0  0  0  0  0  0
  -21.1480   -6.0531   25.9085 H   0  0  0  0  0  0
  -22.0577   -2.7599   23.2881 H   0  0  0  0  0  0
  -22.4168  -11.9879   22.4735 H   0  0  0  0  0  0
  -21.1115  -13.1210   22.2600 H   0  0  0  0  0  0
  -24.6778  -15.8501   20.5634 H   0  0  0  0  0  0
  -26.2940  -15.6329   20.1287 H   0  0  0  0  0  0
  -26.7103  -32.5563   23.1175 H   0  0  0  0  0  0
  -25.0110  -33.9807   25.0517 H   0  0  0  0  0  0
  -22.6863  -31.3086   21.4096 H   0  0  0  0  0  0
  -23.3773  -35.9610   23.3255 H   0  0  0  0  0  0
  -24.3590  -36.8965   22.2056 H   0  0  0  0  0  0
  -23.7211  -37.6477   23.6682 H   0  0  0  0  0  0
  -26.0377  -31.6120   20.5939 H   0  0  0  0  0  0
  -26.8134  -30.8963   21.9783 H   0  0  0  0  0  0
  -28.1089  -29.1403   21.1378 H   0  0  0  0  0  0
  -26.0752  -25.9659   19.0452 H   0  0  0  0  0  0
  -23.9767  -27.2765   19.0657 H   0  0  0  0  0  0
  -23.7140  -30.5936   19.4033 H   0  0  0  0  0  0
  -22.7344  -29.2375   19.8749 H   0  0  0  0  0  0
  -25.1277  -36.1954   25.0826 H   0  0  0  0  0  0
  -20.9960  -28.3257   24.1422 H   0  0  0  0  0  0
  -20.5673  -26.2291   23.3596 H   0  0  0  0  0  0
  -21.6637  -26.7461   22.1209 H   0  0  0  0  0  0
  -19.6914  -25.6296   21.1235 H   0  0  0  0  0  0
  -19.6688  -27.3195   20.6726 H   0  0  0  0  0  0
  -17.4192  -26.6688   21.4005 H   0  0  0  0  0  0
  -18.0318  -26.0060   22.8995 H   0  0  0  0  0  0
  -19.7930  -30.7257   24.2290 H   0  0  0  0  0  0
  -17.5018  -31.6279   24.5164 H   0  0  0  0  0  0
  -15.5353  -30.3007   23.7657 H   0  0  0  0  0  0
  -15.8652  -28.0831   22.7086 H   0  0  0  0  0  0
  -24.5937  -30.7024   25.7804 H   0  0  0  0  0  0
  -24.8943  -32.2827   26.4938 H   0  0  0  0  0  0
  -25.8126  -30.8837   27.0211 H   0  0  0  0  0  0
  -26.2865  -29.6774   24.1190 H   0  0  0  0  0  0
  -27.4191  -29.7317   25.4522 H   0  0  0  0  0  0
  -27.8658  -30.4400   23.9169 H   0  0  0  0  0  0
  -27.2695  -33.3630   26.2066 H   0  0  0  0  0  0
  -28.3864  -32.6874   25.0296 H   0  0  0  0  0  0
  -28.0732  -31.8437   26.5388 H   0  0  0  0  0  0
  -28.2549  -38.0142   24.7604 H   0  0  0  0  0  0
  -28.1155  -36.2679   24.6158 H   0  0  0  0  0  0
  -27.2323  -37.1286   25.8855 H   0  0  0  0  0  0
  -20.9293  -29.8746   21.6925 H   0  0  0  0  0  0
  -26.0161  -38.2860   24.1502 H   0  0  0  0  0  0
  -30.4834  -18.6493   17.6967 H   0  0  0  0  0  0
  -30.7162  -20.4896   19.3391 H   0  0  0  0  0  0
  -30.1441  -16.3299   18.4574 H   0  0  0  0  0  0
  -30.2285  -17.6566   22.5721 H   0  0  0  0  0  0
  -29.8520  -23.5956   24.5112 H   0  0  0  0  0  0
  -31.2750  -22.7757   23.9205 H   0  0  0  0  0  0
  -29.8914  -21.8533   24.5532 H   0  0  0  0  0  0
  -27.7499  -23.7129   23.2305 H   0  0  0  0  0  0
  -27.6682  -21.9653   23.3546 H   0  0  0  0  0  0
  -27.4897  -22.7312   21.7903 H   0  0  0  0  0  0
  -30.4033  -24.7039   22.4493 H   0  0  0  0  0  0
  -31.1196  -23.6078   21.3209 H   0  0  0  0  0  0
  -28.5635  -25.9975   22.0129 H   0  0  0  0  0  0
  -27.3410  -25.1880   21.0507 H   0  0  0  0  0  0
  -31.9542  -19.3816   23.1990 H   0  0  0  0  0  0
  -31.3252  -20.8661   23.8358 H   0  0  0  0  0  0
  -29.1323  -15.2637   21.4755 H   0  0  0  0  0  0
  -29.3191  -21.3335   20.9390 H   0  0  0  0  0  0
  1 25  1  0  0  0
  1 30  2  0  0  0
  1 85  1  0  0  0
  2  3  1  0  0  0
  2 25  1  0  0  0
  2 88  1  0  0  0
  2 89  1  0  0  0
  3  4  1  0  0  0
  3 90  1  0  0  0
  3 91  1  0  0  0
  4  5  1  0  0  0
  4 92  1  0  0  0
  4 93  1  0  0  0
  5  6  1  0  0  0
  5 26  1  0  0  0
  5 94  1  0  0  0
  6 25  1  0  0  0
  6 95  1  0  0  0
  6 96  1  0  0  0
  7  8  2  0  0  0
  7 26  1  0  0  0
  7 29  1  0  0  0
  8  9  1  0  0  0
  8 22  1  0  0  0
  9 10  1  0  0  0
  9 27  2  0  0  0
 10 11  2  0  0  0
 10 15  1  0  0  0
 11 12  1  0  0  0
 11 97  1  0  0  0
 12 13  2  0  0  0
 12 98  1  0  0  0
 13 14  1  0  0  0
 13 31  1  0  0  0
 14 15  2  0  0  0
 14 99  1  0  0  0
 15100  1  0  0  0
 16 17  2  0  0  0
 16 21  1  0  0  0
 16 31  1  0  0  0
 17 18  1  0  0  0
 17101  1  0  0  0
 18 19  2  0  0  0
 18102  1  0  0  0
 19 20  1  0  0  0
 19 24  1  0  0  0
 20 21  2  0  0  0
 20103  1  0  0  0
 21 23  1  0  0  0
 22 28  1  0  0  0
 22 32  2  0  0  0
 26 27  1  0  0  0
 28104  1  0  0  0
 28105  1  0  0  0
 29106  1  0  0  0
 29107  1  0  0  0
 33 34  1  0  0  0
 33 66  1  0  0  0
 33 70  2  0  0  0
 34 36  1  0  0  0
 34 59  1  0  0  0
 34108  1  0  0  0
 35 44  2  0  0  0
 35 45  1  0  0  0
 35 68  1  0  0  0
 36 56  1  0  0  0
 36109  1  0  0  0
 37 39  1  0  0  0
 37 47  1  0  0  0
 37 66  1  0  0  0
 37110  1  0  0  0
 38 43  2  0  0  0
 38 46  1  0  0  0
 38 47  1  0  0  0
 39 64  1  0  0  0
 39 67  2  0  0  0
 40 52  1  0  0  0
 40 53  2  0  0  0
 40 58  1  0  0  0
 41111  1  0  0  0
 41112  1  0  0  0
 41113  1  0  0  0
 41 48  1  0  0  0
 42 43  1  0  0  0
 42 66  1  0  0  0
 42114  1  0  0  0
 42115  1  0  0  0
 43 44  1  0  0  0
 44116  1  0  0  0
 45 46  2  0  0  0
 45117  1  0  0  0
 46118  1  0  0  0
 47119  1  0  0  0
 47120  1  0  0  0
 48 56  1  0  0  0
 48 65  1  0  0  0
 48121  1  0  0  0
 49 50  1  0  0  0
 49 53  1  0  0  0
 49 64  1  0  0  0
 49122  1  0  0  0
 50 51  1  0  0  0
 50123  1  0  0  0
 50124  1  0  0  0
 51 52  1  0  0  0
 51125  1  0  0  0
 51126  1  0  0  0
 52127  1  0  0  0
 52128  1  0  0  0
 53 54  1  0  0  0
 54 55  2  0  0  0
 54129  1  0  0  0
 55 57  1  0  0  0
 55130  1  0  0  0
 56 69  2  0  0  0
 57 58  2  0  0  0
 57131  1  0  0  0
 58132  1  0  0  0
 59 60  1  0  0  0
 59 61  1  0  0  0
 59 62  1  0  0  0
 60133  1  0  0  0
 60134  1  0  0  0
 60135  1  0  0  0
 61136  1  0  0  0
 61137  1  0  0  0
 61138  1  0  0  0
 62139  1  0  0  0
 62140  1  0  0  0
 62141  1  0  0  0
 63 65  1  0  0  0
 63142  1  0  0  0
 63143  1  0  0  0
 63144  1  0  0  0
 64145  1  0  0  0
 65146  1  0  0  0
 68 82  1  0  0  0
 71 72  2  0  0  0
 71 73  1  0  0  0
 71147  1  0  0  0
 72 75  1  0  0  0
 72148  1  0  0  0
 73 76  2  0  0  0
 73149  1  0  0  0
 74 75  2  0  0  0
 74 76  1  0  0  0
 74150  1  0  0  0
 75 77  1  0  0  0
 76 85  1  0  0  0
 77 84  1  0  0  0
 77 86  2  0  0  0
 78 81  1  0  0  0
 78 82  1  0  0  0
 78 87  2  0  0  0
 79151  1  0  0  0
 79152  1  0  0  0
 79153  1  0  0  0
 79 83  1  0  0  0
 80 83  1  0  0  0
 80154  1  0  0  0
 80155  1  0  0  0
 80156  1  0  0  0
 81 83  1  0  0  0
 81157  1  0  0  0
 81158  1  0  0  0
 82159  1  0  0  0
 82160  1  0  0  0
 83 86  1  0  0  0
 84161  1  0  0  0
 84162  1  0  0  0
 85163  1  0  0  0
 86164  1  0  0  0
M  CHG  1  86   1
M  ISO  4   1 100  68 101  82 101  85 100
M  END
> <chiral flag>
0

> <version>
0

> <s_m_source_file>
/data/baiqing/PycharmProjects/Reinvent-master-3.2/result/LINK_invent/BTK/process_docking_weight1_custom_product_contain_oxygen_bond_distance_aromatic_linkinvent_7_9_3/rearranged_h_0143.sdf

> <i_m_source_file_index>
87

> <r_mmod_Potential_Energy-OPLS-2005>
-214.709411621094

> <r_mmod_Stretch_Energy-OPLS-2005>
35.9969902038574

> <r_mmod_Bend_Energy-OPLS-2005>
111.326545715332

> <r_mmod_Torsional_Energy-OPLS-2005>
248.882934570312

> <r_mmod_Improper_Torsional_Energy-OPLS-2005>
4.61784315109253

> <r_mmod_Van_der_Waal_Energy-OPLS-2005>
159.080032348633

> <r_mmod_Electrostatic_Energy-OPLS-2005>
-359.8408203125

> <r_mmod_Solvation_Energy-OPLS-2005>
-425.694946289062

> <b_mmod_Minimization_Converged-OPLS-2005>
0

> <r_mmod_RMS_Derivative-OPLS-2005>
2.58430075645447

$$$$
87
                    3D
 Structure written by MMmdl.
175184  0  0  1  0            999 V2000
  -30.7286  -14.4996   20.5628 C   0  0  0  0  0  0
  -30.4129  -12.3257   19.4299 C   0  0  0  0  0  0
  -29.4897  -12.5121   18.2095 C   0  0  0  0  0  0
  -28.0138  -12.3679   18.6239 C   0  0  0  0  0  0
  -27.6575  -13.2197   19.8725 C   0  0  2  0  0  0
  -28.7024  -13.0399   20.9976 C   0  0  0  0  0  0
  -25.2562  -13.8188   20.5680 C   0  0  0  0  0  0
  -24.1828  -13.0447   20.9184 C   0  0  0  0  0  0
  -24.6408  -11.6918   20.8763 C   0  0  0  0  0  0
  -23.9093  -10.4290   21.0426 C   0  0  0  0  0  0
  -24.3638   -9.4202   21.9200 C   0  0  0  0  0  0
  -23.6301   -8.2244   22.0757 C   0  0  0  0  0  0
  -22.4284   -8.0286   21.3546 C   0  0  0  0  0  0
  -21.9939   -9.0268   20.4647 C   0  0  0  0  0  0
  -22.7280  -10.2137   20.3067 C   0  0  0  0  0  0
  -21.6854   -6.0754   22.5281 C   0  0  0  0  0  0
  -21.4008   -6.5649   23.8217 C   0  0  0  0  0  0
  -21.3655   -5.6799   24.9174 C   0  0  0  0  0  0
  -21.6048   -4.3066   24.7221 C   0  0  0  0  0  0
  -21.8818   -3.8159   23.4343 C   0  0  0  0  0  0
  -21.9188   -4.6981   22.3406 C   0  0  0  0  0  0
  -22.7850  -13.5233   21.1852 C   0  0  0  0  0  0
  -22.1658   -4.2171   21.0989 F   0  0  0  0  0  0
  -21.5632   -3.4550   25.7730 F   0  0  0  0  0  0
  -30.0296  -13.3342   20.4351 N   0  0  0  0  0  0
  -26.3008  -12.9382   20.3374 N   0  0  0  0  0  0
  -25.9343  -11.6527   20.5796 N   0  0  0  0  0  0
  -22.0497  -12.8197   22.0393 N   0  0  0  0  0  0
  -25.4262  -15.1909   20.4057 N   0  0  0  0  0  0
  -31.8577  -14.6253   20.0844 O   0  0  0  0  0  0
  -21.6633   -6.8897   21.4243 O   0  0  0  0  0  0
  -22.3534  -14.5550   20.6731 O   0  0  0  0  0  0
  -24.6191  -31.8672   23.2106 C   0  0  0  0  0  0
  -25.9080  -32.4801   23.8399 C   0  0  1  0  0  0
  -27.2145  -27.3946   20.0984 C   0  0  0  0  0  0
  -25.5935  -33.8600   24.2336 N   0  0  0  0  0  0
  -23.4074  -30.4952   21.5506 C   0  0  2  0  0  0
  -24.8510  -28.9695   20.1089 C   0  0  0  0  0  0
  -22.7438  -29.4665   22.4955 C   0  0  0  0  0  0
  -18.0290  -28.1371   22.8481 C   0  0  0  0  0  0
  -24.1488  -36.7276   23.2634 C   0  0  0  0  0  0
  -25.9435  -30.8199   21.3740 C   0  0  0  0  0  0
  -26.0170  -29.4560   20.7143 C   0  0  0  0  0  0
  -27.2038  -28.6780   20.7064 C   0  0  0  0  0  0
  -26.0345  -26.9616   19.4453 C   0  0  0  0  0  0
  -24.8582  -27.7231   19.4693 C   0  0  0  0  0  0
  -23.6157  -29.8383   20.1623 C   0  0  0  0  0  0
  -25.4106  -36.3085   24.0338 C   0  0  1  0  0  0
  -20.5882  -28.3662   23.1288 C   0  0  2  0  0  0
  -20.6791  -26.9393   22.5397 C   0  0  0  0  0  0
  -19.5768  -26.6369   21.5206 C   0  0  0  0  0  0
  -18.1938  -26.7913   22.1605 C   0  0  0  0  0  0
  -19.1543  -28.8825   23.2891 C   0  0  0  0  0  0
  -18.9471  -30.1428   23.8908 C   0  0  0  0  0  0
  -17.6474  -30.6579   24.0558 C   0  0  0  0  0  0
  -25.9041  -34.9455   23.5127 C   0  0  0  0  0  0
  -16.5360  -29.9076   23.6331 C   0  0  0  0  0  0
  -16.7277  -28.6490   23.0349 C   0  0  0  0  0  0
  -26.4495  -31.6573   25.0729 C   0  0  0  0  0  0
  -25.3745  -31.3684   26.1452 C   0  0  0  0  0  0
  -27.0358  -30.3023   24.6110 C   0  0  0  0  0  0
  -27.6066  -32.4280   25.7501 C   0  0  0  0  0  0
  -27.5577  -37.1781   24.8460 C   0  0  0  0  0  0
  -21.4155  -29.3031   22.3693 N   0  0  0  0  0  0
  -26.4283  -37.3776   23.9418 N   0  0  0  0  0  0
  -24.6747  -31.0755   22.1022 N   0  0  0  0  0  0
  -23.4191  -28.8213   23.3027 O   0  0  0  0  0  0
  -28.3295  -26.5674   20.1476 O   0  0  0  0  0  0
  -26.5593  -34.8914   22.4683 O   0  0  0  0  0  0
  -23.5371  -32.1430   23.7480 O   0  0  0  0  0  0
  -31.5000  -19.5949   21.3996 C   0  0  0  0  0  0
  -29.6616  -18.0233   21.0549 C   0  0  0  0  0  0
  -31.9175  -17.2011   21.4747 C   0  0  0  0  0  0
  -30.1358  -19.3639   21.1353 C   0  0  0  0  0  0
  -32.4106  -18.5285   21.5623 C   0  0  0  0  0  0
  -30.5535  -16.9226   21.1984 C   0  0  0  0  0  0
  -29.2425  -20.5366   20.9950 C   0  0  0  0  0  0
  -29.9911  -22.3330   17.9041 C   0  0  0  0  0  0
  -28.5747  -22.7631   18.3169 C   0  0  0  0  0  0
  -30.5170  -21.4823   19.0713 C   0  0  0  0  0  0
  -28.6089  -22.7453   19.8501 C   0  0  2  0  0  0
  -34.0234  -19.5054   23.2264 C   0  0  0  0  0  0
  -34.4350  -19.8195   20.7678 C   0  0  0  0  0  0
  -34.7945  -17.5930   21.8181 C   0  0  0  0  0  0
  -29.1527  -24.1183   20.3885 C   0  0  0  0  0  0
  -28.0298  -25.1896   20.5191 C   0  0  0  0  0  0
  -33.8935  -18.8472   21.8390 C   0  0  0  0  0  0
  -29.4726  -21.5580   20.1139 N   0  0  0  0  0  0
  -30.0709  -15.5630   21.0916 N   0  0  0  0  0  0
  -28.1697  -20.5893   21.7795 N   0  3  0  0  0  0
  -31.4584  -12.4034   19.1255 H   0  0  0  0  0  0
  -30.3023  -11.3211   19.8420 H   0  0  0  0  0  0
  -29.7308  -11.7843   17.4342 H   0  0  0  0  0  0
  -29.6526  -13.4966   17.7673 H   0  0  0  0  0  0
  -27.8298  -11.3123   18.8292 H   0  0  0  0  0  0
  -27.3602  -12.6313   17.7910 H   0  0  0  0  0  0
  -27.6891  -14.2635   19.5562 H   0  0  0  0  0  0
  -28.6802  -12.0173   21.3756 H   0  0  0  0  0  0
  -28.4667  -13.6755   21.8525 H   0  0  0  0  0  0
  -25.2787   -9.5671   22.4778 H   0  0  0  0  0  0
  -24.0007   -7.4634   22.7482 H   0  0  0  0  0  0
  -21.0874   -8.8808   19.8946 H   0  0  0  0  0  0
  -22.3767  -10.9687   19.6170 H   0  0  0  0  0  0
  -21.1993   -7.6150   23.9730 H   0  0  0  0  0  0
  -21.1475   -6.0524   25.9079 H   0  0  0  0  0  0
  -22.0598   -2.7620   23.2839 H   0  0  0  0  0  0
  -22.4088  -11.9818   22.4725 H   0  0  0  0  0  0
  -21.1115  -13.1214   22.2620 H   0  0  0  0  0  0
  -24.6566  -15.8445   20.5013 H   0  0  0  0  0  0
  -26.2726  -15.6256   20.0610 H   0  0  0  0  0  0
  -26.7151  -32.5497   23.1154 H   0  0  0  0  0  0
  -25.0140  -33.9759   25.0517 H   0  0  0  0  0  0
  -22.6966  -31.3126   21.4141 H   0  0  0  0  0  0
  -23.3772  -35.9586   23.3274 H   0  0  0  0  0  0
  -24.3606  -36.8923   22.2059 H   0  0  0  0  0  0
  -23.7202  -37.6453   23.6667 H   0  0  0  0  0  0
  -26.0690  -31.5897   20.6112 H   0  0  0  0  0  0
  -26.8262  -30.8614   22.0002 H   0  0  0  0  0  0
  -28.0973  -29.0429   21.1927 H   0  0  0  0  0  0
  -25.9915  -26.0323   18.8986 H   0  0  0  0  0  0
  -23.9686  -27.3496   18.9817 H   0  0  0  0  0  0
  -23.7253  -30.6177   19.4073 H   0  0  0  0  0  0
  -22.7385  -29.2622   19.8626 H   0  0  0  0  0  0
  -25.1283  -36.1933   25.0826 H   0  0  0  0  0  0
  -20.9965  -28.3229   24.1415 H   0  0  0  0  0  0
  -20.5714  -26.2272   23.3590 H   0  0  0  0  0  0
  -21.6661  -26.7437   22.1176 H   0  0  0  0  0  0
  -19.6949  -25.6291   21.1208 H   0  0  0  0  0  0
  -19.6727  -27.3200   20.6760 H   0  0  0  0  0  0
  -17.4215  -26.6678   21.3992 H   0  0  0  0  0  0
  -18.0337  -26.0040   22.8979 H   0  0  0  0  0  0
  -19.7956  -30.7241   24.2273 H   0  0  0  0  0  0
  -17.5035  -31.6267   24.5143 H   0  0  0  0  0  0
  -15.5363  -30.2989   23.7657 H   0  0  0  0  0  0
  -15.8671  -28.0815   22.7061 H   0  0  0  0  0  0
  -24.5920  -30.7036   25.7770 H   0  0  0  0  0  0
  -24.8935  -32.2853   26.4885 H   0  0  0  0  0  0
  -25.8065  -30.8847   27.0219 H   0  0  0  0  0  0
  -26.2922  -29.6766   24.1159 H   0  0  0  0  0  0
  -27.4160  -29.7269   25.4562 H   0  0  0  0  0  0
  -27.8735  -30.4390   23.9264 H   0  0  0  0  0  0
  -27.2685  -33.3595   26.2058 H   0  0  0  0  0  0
  -28.3891  -32.6802   25.0328 H   0  0  0  0  0  0
  -28.0698  -31.8400   26.5439 H   0  0  0  0  0  0
  -28.2536  -38.0134   24.7551 H   0  0  0  0  0  0
  -28.1133  -36.2653   24.6220 H   0  0  0  0  0  0
  -27.2305  -37.1329   25.8868 H   0  0  0  0  0  0
  -20.9303  -29.8738   21.6910 H   0  0  0  0  0  0
  -26.0167  -38.2845   24.1458 H   0  0  0  0  0  0
  -31.8422  -20.6156   21.4979 H   0  0  0  0  0  0
  -28.6135  -17.8458   20.8591 H   0  0  0  0  0  0
  -32.5923  -16.3749   21.6258 H   0  0  0  0  0  0
  -30.6338  -23.2033   17.7631 H   0  0  0  0  0  0
  -29.9833  -21.7797   16.9641 H   0  0  0  0  0  0
  -27.8367  -22.0473   17.9519 H   0  0  0  0  0  0
  -28.3133  -23.7391   17.9054 H   0  0  0  0  0  0
  -31.4693  -21.8630   19.4429 H   0  0  0  0  0  0
  -30.6740  -20.4550   18.7349 H   0  0  0  0  0  0
  -27.6014  -22.5735   20.2334 H   0  0  0  0  0  0
  -33.4742  -20.4457   23.2903 H   0  0  0  0  0  0
  -35.0643  -19.7278   23.4637 H   0  0  0  0  0  0
  -33.6427  -18.8516   24.0121 H   0  0  0  0  0  0
  -33.9392  -20.7900   20.7884 H   0  0  0  0  0  0
  -34.3120  -19.4117   19.7638 H   0  0  0  0  0  0
  -35.4980  -20.0159   20.9110 H   0  0  0  0  0  0
  -34.5262  -16.8853   22.6031 H   0  0  0  0  0  0
  -35.8410  -17.8551   21.9802 H   0  0  0  0  0  0
  -34.7408  -17.0756   20.8591 H   0  0  0  0  0  0
  -29.9189  -24.4999   19.7144 H   0  0  0  0  0  0
  -29.6460  -23.9832   21.3516 H   0  0  0  0  0  0
  -27.6778  -25.1923   21.5530 H   0  0  0  0  0  0
  -27.1960  -24.7947   19.9469 H   0  0  0  0  0  0
  -29.1056  -15.3987   21.3329 H   0  0  0  0  0  0
  -28.0226  -19.8505   22.4517 H   0  0  0  0  0  0
  -27.5555  -21.3849   21.8001 H   0  0  0  0  0  0
  1 25  1  0  0  0
  1 30  2  0  0  0
  1 89  1  0  0  0
  2  3  1  0  0  0
  2 25  1  0  0  0
  2 91  1  0  0  0
  2 92  1  0  0  0
  3  4  1  0  0  0
  3 93  1  0  0  0
  3 94  1  0  0  0
  4  5  1  0  0  0
  4 95  1  0  0  0
  4 96  1  0  0  0
  5  6  1  0  0  0
  5 26  1  0  0  0
  5 97  1  0  0  0
  6 25  1  0  0  0
  6 98  1  0  0  0
  6 99  1  0  0  0
  7  8  2  0  0  0
  7 26  1  0  0  0
  7 29  1  0  0  0
  8  9  1  0  0  0
  8 22  1  0  0  0
  9 10  1  0  0  0
  9 27  2  0  0  0
 10 11  2  0  0  0
 10 15  1  0  0  0
 11 12  1  0  0  0
 11100  1  0  0  0
 12 13  2  0  0  0
 12101  1  0  0  0
 13 14  1  0  0  0
 13 31  1  0  0  0
 14 15  2  0  0  0
 14102  1  0  0  0
 15103  1  0  0  0
 16 17  2  0  0  0
 16 21  1  0  0  0
 16 31  1  0  0  0
 17 18  1  0  0  0
 17104  1  0  0  0
 18 19  2  0  0  0
 18105  1  0  0  0
 19 20  1  0  0  0
 19 24  1  0  0  0
 20 21  2  0  0  0
 20106  1  0  0  0
 21 23  1  0  0  0
 22 28  1  0  0  0
 22 32  2  0  0  0
 26 27  1  0  0  0
 28107  1  0  0  0
 28108  1  0  0  0
 29109  1  0  0  0
 29110  1  0  0  0
 33 34  1  0  0  0
 33 66  1  0  0  0
 33 70  2  0  0  0
 34 36  1  0  0  0
 34 59  1  0  0  0
 34111  1  0  0  0
 35 44  2  0  0  0
 35 45  1  0  0  0
 35 68  1  0  0  0
 36 56  1  0  0  0
 36112  1  0  0  0
 37 39  1  0  0  0
 37 47  1  0  0  0
 37 66  1  0  0  0
 37113  1  0  0  0
 38 43  2  0  0  0
 38 46  1  0  0  0
 38 47  1  0  0  0
 39 64  1  0  0  0
 39 67  2  0  0  0
 40 52  1  0  0  0
 40 53  2  0  0  0
 40 58  1  0  0  0
 41114  1  0  0  0
 41115  1  0  0  0
 41116  1  0  0  0
 41 48  1  0  0  0
 42 43  1  0  0  0
 42 66  1  0  0  0
 42117  1  0  0  0
 42118  1  0  0  0
 43 44  1  0  0  0
 44119  1  0  0  0
 45 46  2  0  0  0
 45120  1  0  0  0
 46121  1  0  0  0
 47122  1  0  0  0
 47123  1  0  0  0
 48 56  1  0  0  0
 48 65  1  0  0  0
 48124  1  0  0  0
 49 50  1  0  0  0
 49 53  1  0  0  0
 49 64  1  0  0  0
 49125  1  0  0  0
 50 51  1  0  0  0
 50126  1  0  0  0
 50127  1  0  0  0
 51 52  1  0  0  0
 51128  1  0  0  0
 51129  1  0  0  0
 52130  1  0  0  0
 52131  1  0  0  0
 53 54  1  0  0  0
 54 55  2  0  0  0
 54132  1  0  0  0
 55 57  1  0  0  0
 55133  1  0  0  0
 56 69  2  0  0  0
 57 58  2  0  0  0
 57134  1  0  0  0
 58135  1  0  0  0
 59 60  1  0  0  0
 59 61  1  0  0  0
 59 62  1  0  0  0
 60136  1  0  0  0
 60137  1  0  0  0
 60138  1  0  0  0
 61139  1  0  0  0
 61140  1  0  0  0
 61141  1  0  0  0
 62142  1  0  0  0
 62143  1  0  0  0
 62144  1  0  0  0
 63 65  1  0  0  0
 63145  1  0  0  0
 63146  1  0  0  0
 63147  1  0  0  0
 64148  1  0  0  0
 65149  1  0  0  0
 68 86  1  0  0  0
 71 74  2  0  0  0
 71 75  1  0  0  0
 71150  1  0  0  0
 72 74  1  0  0  0
 72 76  2  0  0  0
 72151  1  0  0  0
 73 75  2  0  0  0
 73 76  1  0  0  0
 73152  1  0  0  0
 74 77  1  0  0  0
 75 87  1  0  0  0
 76 89  1  0  0  0
 77 88  1  0  0  0
 77 90  2  0  0  0
 78 79  1  0  0  0
 78 80  1  0  0  0
 78153  1  0  0  0
 78154  1  0  0  0
 79 81  1  0  0  0
 79155  1  0  0  0
 79156  1  0  0  0
 80 88  1  0  0  0
 80157  1  0  0  0
 80158  1  0  0  0
 81 85  1  0  0  0
 81 88  1  0  0  0
 81159  1  0  0  0
 82160  1  0  0  0
 82161  1  0  0  0
 82162  1  0  0  0
 82 87  1  0  0  0
 83 87  1  0  0  0
 83163  1  0  0  0
 83164  1  0  0  0
 83165  1  0  0  0
 84 87  1  0  0  0
 84166  1  0  0  0
 84167  1  0  0  0
 84168  1  0  0  0
 85 86  1  0  0  0
 85169  1  0  0  0
 85170  1  0  0  0
 86171  1  0  0  0
 86172  1  0  0  0
 89173  1  0  0  0
 90174  1  0  0  0
 90175  1  0  0  0
M  CHG  1  90   1
M  ISO  4   1 100  68 101  86 101  89 100
M  END
> <chiral flag>
0

> <version>
0

> <s_m_source_file>
/data/baiqing/PycharmProjects/Reinvent-master-3.2/result/LINK_invent/BTK/process_docking_weight1_custom_product_contain_oxygen_bond_distance_aromatic_linkinvent_7_9_3/rearranged_h_0143.sdf

> <i_m_source_file_index>
88

> <r_mmod_Potential_Energy-OPLS-2005>
-74.0880889892578

> <r_mmod_Stretch_Energy-OPLS-2005>
52.5346794128418

> <r_mmod_Bend_Energy-OPLS-2005>
144.493804931641

> <r_mmod_Torsional_Energy-OPLS-2005>
320.498809814453

> <r_mmod_Improper_Torsional_Energy-OPLS-2005>
4.20750427246094

> <r_mmod_Van_der_Waal_Energy-OPLS-2005>
172.231887817383

> <r_mmod_Electrostatic_Energy-OPLS-2005>
-406.038116455078

> <r_mmod_Solvation_Energy-OPLS-2005>
-384.377655029297

> <b_mmod_Minimization_Converged-OPLS-2005>
0

> <r_mmod_RMS_Derivative-OPLS-2005>
2.04015326499939

$$$$
88
                    3D
 Structure written by MMmdl.
159167  0  0  1  0            999 V2000
  -30.7325  -14.4315   20.5035 C   0  0  0  0  0  0
  -30.4026  -12.2642   19.4207 C   0  0  0  0  0  0
  -29.4969  -12.5049   18.1939 C   0  0  0  0  0  0
  -28.0102  -12.3993   18.5935 C   0  0  0  0  0  0
  -27.6611  -13.2253   19.8628 C   0  0  2  0  0  0
  -28.7009  -13.0106   20.9887 C   0  0  0  0  0  0
  -25.2576  -13.8193   20.5690 C   0  0  0  0  0  0
  -24.1840  -13.0472   20.9209 C   0  0  0  0  0  0
  -24.6402  -11.6951   20.8743 C   0  0  0  0  0  0
  -23.9065  -10.4328   21.0406 C   0  0  0  0  0  0
  -24.3622   -9.4237   21.9170 C   0  0  0  0  0  0
  -23.6321   -8.2255   22.0710 C   0  0  0  0  0  0
  -22.4282   -8.0299   21.3516 C   0  0  0  0  0  0
  -21.9934   -9.0288   20.4638 C   0  0  0  0  0  0
  -22.7249  -10.2163   20.3048 C   0  0  0  0  0  0
  -21.6889   -6.0775   22.5285 C   0  0  0  0  0  0
  -21.4058   -6.5664   23.8220 C   0  0  0  0  0  0
  -21.3624   -5.6784   24.9154 C   0  0  0  0  0  0
  -21.5999   -4.3044   24.7205 C   0  0  0  0  0  0
  -21.8820   -3.8176   23.4323 C   0  0  0  0  0  0
  -21.9195   -4.7007   22.3394 C   0  0  0  0  0  0
  -22.7843  -13.5269   21.1873 C   0  0  0  0  0  0
  -22.1670   -4.2197   21.0966 F   0  0  0  0  0  0
  -21.5586   -3.4497   25.7705 F   0  0  0  0  0  0
  -30.0365  -13.2661   20.4308 N   0  0  0  0  0  0
  -26.3023  -12.9411   20.3292 N   0  0  0  0  0  0
  -25.9324  -11.6553   20.5712 N   0  0  0  0  0  0
  -22.0449  -12.8260   22.0416 N   0  0  0  0  0  0
  -25.4277  -15.1923   20.4142 N   0  0  0  0  0  0
  -31.9100  -14.5277   20.1520 O   0  0  0  0  0  0
  -21.6617   -6.8907   21.4246 O   0  0  0  0  0  0
  -22.3534  -14.5592   20.6718 O   0  0  0  0  0  0
  -24.6089  -31.8689   23.2124 C   0  0  0  0  0  0
  -25.8995  -32.4835   23.8424 C   0  0  1  0  0  0
  -27.2498  -27.4709   20.0885 C   0  0  0  0  0  0
  -25.5853  -33.8641   24.2355 N   0  0  0  0  0  0
  -23.3970  -30.4916   21.5519 C   0  0  2  0  0  0
  -24.8448  -28.9550   20.1256 C   0  0  0  0  0  0
  -22.7365  -29.4671   22.5002 C   0  0  0  0  0  0
  -18.0249  -28.1363   22.8462 C   0  0  0  0  0  0
  -24.1485  -36.7318   23.2635 C   0  0  0  0  0  0
  -25.9203  -30.8448   21.3602 C   0  0  0  0  0  0
  -26.0002  -29.4783   20.7162 C   0  0  0  0  0  0
  -27.2020  -28.7398   20.7019 C   0  0  0  0  0  0
  -26.0700  -26.9495   19.4992 C   0  0  0  0  0  0
  -24.8696  -27.6838   19.5258 C   0  0  0  0  0  0
  -23.6071  -29.8204   20.1668 C   0  0  0  0  0  0
  -25.4103  -36.3135   24.0345 C   0  0  1  0  0  0
  -20.5839  -28.3654   23.1300 C   0  0  2  0  0  0
  -20.6755  -26.9403   22.5408 C   0  0  0  0  0  0
  -19.5767  -26.6386   21.5177 C   0  0  0  0  0  0
  -18.1923  -26.7903   22.1576 C   0  0  0  0  0  0
  -19.1493  -28.8821   23.2871 C   0  0  0  0  0  0
  -18.9439  -30.1412   23.8924 C   0  0  0  0  0  0
  -17.6456  -30.6583   24.0558 C   0  0  0  0  0  0
  -25.9017  -34.9491   23.5142 C   0  0  0  0  0  0
  -16.5347  -29.9106   23.6314 C   0  0  0  0  0  0
  -16.7245  -28.6502   23.0363 C   0  0  0  0  0  0
  -26.4446  -31.6612   25.0737 C   0  0  0  0  0  0
  -25.3727  -31.3741   26.1506 C   0  0  0  0  0  0
  -27.0273  -30.3072   24.6052 C   0  0  0  0  0  0
  -27.6029  -32.4329   25.7484 C   0  0  0  0  0  0
  -27.5586  -37.1816   24.8457 C   0  0  0  0  0  0
  -21.4093  -29.3032   22.3714 N   0  0  0  0  0  0
  -26.4291  -37.3807   23.9411 N   0  0  0  0  0  0
  -24.6605  -31.0814   22.1014 N   0  0  0  0  0  0
  -23.4116  -28.8216   23.3048 O   0  0  0  0  0  0
  -28.4575  -26.8079   20.0837 O   0  0  0  0  0  0
  -26.5580  -34.8934   22.4712 O   0  0  0  0  0  0
  -23.5279  -32.1442   23.7505 O   0  0  0  0  0  0
  -29.5459  -17.8800   20.4331 C   0  0  0  0  0  0
  -30.8265  -18.1233   18.5763 C   0  0  0  0  0  0
  -29.9761  -18.7870   19.4186 C   0  0  0  0  0  0
  -30.1744  -16.7081   20.1143 C   0  0  0  0  0  0
  -29.7772  -24.7537   20.0739 C   0  0  0  0  0  0
  -29.0730  -20.9818   20.1165 C   0  0  0  0  0  0
  -30.4461  -23.5076   17.9694 C   0  0  0  0  0  0
  -31.3717  -22.7794   20.1597 C   0  0  0  0  0  0
  -28.4668  -25.4446   19.6646 C   0  0  0  0  0  0
  -28.8301  -22.4180   19.6362 C   0  0  0  0  0  0
  -30.0925  -23.3501   19.4733 C   0  0  0  0  0  0
  -29.6104  -20.1397   19.2242 N   0  0  0  0  0  0
  -30.0058  -15.5265   20.7651 N   0  0  0  0  0  0
  -30.5498  -25.3074   20.8649 O   0  0  0  0  0  0
  -28.7578  -20.6652   21.2634 O   0  0  0  0  0  0
  -30.9632  -16.8371   19.0024 O   0  0  0  0  0  0
  -31.4544  -12.3152   19.1358 H   0  0  0  0  0  0
  -30.2487  -11.2564   19.8123 H   0  0  0  0  0  0
  -29.7298  -11.7858   17.4096 H   0  0  0  0  0  0
  -29.6913  -13.4887   17.7632 H   0  0  0  0  0  0
  -27.7809  -11.3471   18.7625 H   0  0  0  0  0  0
  -27.3802  -12.7161   17.7586 H   0  0  0  0  0  0
  -27.6997  -14.2742   19.5645 H   0  0  0  0  0  0
  -28.6495  -11.9913   21.3755 H   0  0  0  0  0  0
  -28.4874  -13.6594   21.8372 H   0  0  0  0  0  0
  -25.2755   -9.5699   22.4742 H   0  0  0  0  0  0
  -24.0042   -7.4630   22.7399 H   0  0  0  0  0  0
  -21.0888   -8.8851   19.8954 H   0  0  0  0  0  0
  -22.3754  -10.9716   19.6161 H   0  0  0  0  0  0
  -21.2107   -7.6175   23.9774 H   0  0  0  0  0  0
  -21.1423   -6.0469   25.9043 H   0  0  0  0  0  0
  -22.0636   -2.7659   23.2778 H   0  0  0  0  0  0
  -22.4056  -11.9953   22.4903 H   0  0  0  0  0  0
  -21.1038  -13.1307   22.2521 H   0  0  0  0  0  0
  -24.6640  -15.8493   20.5199 H   0  0  0  0  0  0
  -26.2849  -15.6331   20.1039 H   0  0  0  0  0  0
  -26.7060  -32.5569   23.1189 H   0  0  0  0  0  0
  -25.0078  -33.9832   25.0550 H   0  0  0  0  0  0
  -22.6875  -31.3074   21.4105 H   0  0  0  0  0  0
  -23.3749  -35.9641   23.3303 H   0  0  0  0  0  0
  -24.3600  -36.8914   22.2048 H   0  0  0  0  0  0
  -23.7230  -37.6526   23.6643 H   0  0  0  0  0  0
  -26.0205  -31.6038   20.5820 H   0  0  0  0  0  0
  -26.8118  -30.9073   21.9722 H   0  0  0  0  0  0
  -28.0968  -29.1396   21.1608 H   0  0  0  0  0  0
  -26.0571  -25.9825   19.0150 H   0  0  0  0  0  0
  -23.9795  -27.2663   19.0769 H   0  0  0  0  0  0
  -23.7209  -30.5947   19.4070 H   0  0  0  0  0  0
  -22.7324  -29.2407   19.8683 H   0  0  0  0  0  0
  -25.1278  -36.2019   25.0833 H   0  0  0  0  0  0
  -20.9907  -28.3245   24.1431 H   0  0  0  0  0  0
  -20.5660  -26.2279   23.3585 H   0  0  0  0  0  0
  -21.6636  -26.7481   22.1232 H   0  0  0  0  0  0
  -19.6968  -25.6292   21.1222 H   0  0  0  0  0  0
  -19.6733  -27.3184   20.6689 H   0  0  0  0  0  0
  -17.4207  -26.6615   21.3964 H   0  0  0  0  0  0
  -18.0360  -26.0038   22.8978 H   0  0  0  0  0  0
  -19.7945  -30.7159   24.2349 H   0  0  0  0  0  0
  -17.5069  -31.6282   24.5136 H   0  0  0  0  0  0
  -15.5376  -30.3058   23.7622 H   0  0  0  0  0  0
  -15.8624  -28.0845   22.7120 H   0  0  0  0  0  0
  -24.5869  -30.7095   25.7905 H   0  0  0  0  0  0
  -24.8934  -32.2901   26.4960 H   0  0  0  0  0  0
  -25.8079  -30.8948   27.0273 H   0  0  0  0  0  0
  -26.2813  -29.6856   24.1070 H   0  0  0  0  0  0
  -27.4069  -29.7275   25.4478 H   0  0  0  0  0  0
  -27.8635  -30.4466   23.9188 H   0  0  0  0  0  0
  -27.2651  -33.3609   26.2107 H   0  0  0  0  0  0
  -28.3789  -32.6900   25.0272 H   0  0  0  0  0  0
  -28.0732  -31.8421   26.5349 H   0  0  0  0  0  0
  -28.2601  -38.0121   24.7495 H   0  0  0  0  0  0
  -28.1065  -36.2633   24.6267 H   0  0  0  0  0  0
  -27.2296  -37.1465   25.8860 H   0  0  0  0  0  0
  -20.9251  -29.8735   21.6925 H   0  0  0  0  0  0
  -26.0178  -38.2878   24.1430 H   0  0  0  0  0  0
  -28.8658  -18.0504   21.2574 H   0  0  0  0  0  0
  -31.3835  -18.3947   17.6887 H   0  0  0  0  0  0
  -31.2820  -24.1961   17.8344 H   0  0  0  0  0  0
  -29.6127  -23.8856   17.3744 H   0  0  0  0  0  0
  -30.7496  -22.5614   17.5157 H   0  0  0  0  0  0
  -32.2009  -23.4863   20.1190 H   0  0  0  0  0  0
  -31.7339  -21.8757   19.6644 H   0  0  0  0  0  0
  -31.2014  -22.5342   21.2102 H   0  0  0  0  0  0
  -27.6435  -24.9185   20.1446 H   0  0  0  0  0  0
  -28.3384  -25.3793   18.5853 H   0  0  0  0  0  0
  -28.1114  -22.8216   20.3537 H   0  0  0  0  0  0
  -28.2668  -22.3663   18.6997 H   0  0  0  0  0  0
  -29.8557  -20.5477   18.3308 H   0  0  0  0  0  0
  -29.1116  -15.3850   21.2075 H   0  0  0  0  0  0
  1 25  1  0  0  0
  1 30  2  0  0  0
  1 83  1  0  0  0
  2  3  1  0  0  0
  2 25  1  0  0  0
  2 87  1  0  0  0
  2 88  1  0  0  0
  3  4  1  0  0  0
  3 89  1  0  0  0
  3 90  1  0  0  0
  4  5  1  0  0  0
  4 91  1  0  0  0
  4 92  1  0  0  0
  5  6  1  0  0  0
  5 26  1  0  0  0
  5 93  1  0  0  0
  6 25  1  0  0  0
  6 94  1  0  0  0
  6 95  1  0  0  0
  7  8  2  0  0  0
  7 26  1  0  0  0
  7 29  1  0  0  0
  8  9  1  0  0  0
  8 22  1  0  0  0
  9 10  1  0  0  0
  9 27  2  0  0  0
 10 11  2  0  0  0
 10 15  1  0  0  0
 11 12  1  0  0  0
 11 96  1  0  0  0
 12 13  2  0  0  0
 12 97  1  0  0  0
 13 14  1  0  0  0
 13 31  1  0  0  0
 14 15  2  0  0  0
 14 98  1  0  0  0
 15 99  1  0  0  0
 16 17  2  0  0  0
 16 21  1  0  0  0
 16 31  1  0  0  0
 17 18  1  0  0  0
 17100  1  0  0  0
 18 19  2  0  0  0
 18101  1  0  0  0
 19 20  1  0  0  0
 19 24  1  0  0  0
 20 21  2  0  0  0
 20102  1  0  0  0
 21 23  1  0  0  0
 22 28  1  0  0  0
 22 32  2  0  0  0
 26 27  1  0  0  0
 28103  1  0  0  0
 28104  1  0  0  0
 29105  1  0  0  0
 29106  1  0  0  0
 33 34  1  0  0  0
 33 66  1  0  0  0
 33 70  2  0  0  0
 34 36  1  0  0  0
 34 59  1  0  0  0
 34107  1  0  0  0
 35 44  2  0  0  0
 35 45  1  0  0  0
 35 68  1  0  0  0
 36 56  1  0  0  0
 36108  1  0  0  0
 37 39  1  0  0  0
 37 47  1  0  0  0
 37 66  1  0  0  0
 37109  1  0  0  0
 38 43  2  0  0  0
 38 46  1  0  0  0
 38 47  1  0  0  0
 39 64  1  0  0  0
 39 67  2  0  0  0
 40 52  1  0  0  0
 40 53  2  0  0  0
 40 58  1  0  0  0
 41110  1  0  0  0
 41111  1  0  0  0
 41112  1  0  0  0
 41 48  1  0  0  0
 42 43  1  0  0  0
 42 66  1  0  0  0
 42113  1  0  0  0
 42114  1  0  0  0
 43 44  1  0  0  0
 44115  1  0  0  0
 45 46  2  0  0  0
 45116  1  0  0  0
 46117  1  0  0  0
 47118  1  0  0  0
 47119  1  0  0  0
 48 56  1  0  0  0
 48 65  1  0  0  0
 48120  1  0  0  0
 49 50  1  0  0  0
 49 53  1  0  0  0
 49 64  1  0  0  0
 49121  1  0  0  0
 50 51  1  0  0  0
 50122  1  0  0  0
 50123  1  0  0  0
 51 52  1  0  0  0
 51124  1  0  0  0
 51125  1  0  0  0
 52126  1  0  0  0
 52127  1  0  0  0
 53 54  1  0  0  0
 54 55  2  0  0  0
 54128  1  0  0  0
 55 57  1  0  0  0
 55129  1  0  0  0
 56 69  2  0  0  0
 57 58  2  0  0  0
 57130  1  0  0  0
 58131  1  0  0  0
 59 60  1  0  0  0
 59 61  1  0  0  0
 59 62  1  0  0  0
 60132  1  0  0  0
 60133  1  0  0  0
 60134  1  0  0  0
 61135  1  0  0  0
 61136  1  0  0  0
 61137  1  0  0  0
 62138  1  0  0  0
 62139  1  0  0  0
 62140  1  0  0  0
 63 65  1  0  0  0
 63141  1  0  0  0
 63142  1  0  0  0
 63143  1  0  0  0
 64144  1  0  0  0
 65145  1  0  0  0
 68 79  1  0  0  0
 71 73  1  0  0  0
 71 74  2  0  0  0
 71146  1  0  0  0
 72 73  2  0  0  0
 72 86  1  0  0  0
 72147  1  0  0  0
 73 82  1  0  0  0
 74 83  1  0  0  0
 74 86  1  0  0  0
 75 79  1  0  0  0
 75 81  1  0  0  0
 75 84  2  0  0  0
 76 80  1  0  0  0
 76 82  1  0  0  0
 76 85  2  0  0  0
 77148  1  0  0  0
 77149  1  0  0  0
 77150  1  0  0  0
 77 81  1  0  0  0
 78 81  1  0  0  0
 78151  1  0  0  0
 78152  1  0  0  0
 78153  1  0  0  0
 79154  1  0  0  0
 79155  1  0  0  0
 80 81  1  0  0  0
 80156  1  0  0  0
 80157  1  0  0  0
 82158  1  0  0  0
 83159  1  0  0  0
M  ISO  4   1 100  68 101  79 101  83 100
M  END
> <chiral flag>
0

> <version>
0

> <s_m_source_file>
/data/baiqing/PycharmProjects/Reinvent-master-3.2/result/LINK_invent/BTK/process_docking_weight1_custom_product_contain_oxygen_bond_distance_aromatic_linkinvent_7_9_3/rearranged_h_0143.sdf

> <i_m_source_file_index>
89

> <r_mmod_Potential_Energy-OPLS-2005>
-50.3440933227539

> <r_mmod_Stretch_Energy-OPLS-2005>
37.2675132751465

> <r_mmod_Bend_Energy-OPLS-2005>
117.876472473145

> <r_mmod_Torsional_Energy-OPLS-2005>
231.901229858398

> <r_mmod_Improper_Torsional_Energy-OPLS-2005>
6.52361154556274

> <r_mmod_Van_der_Waal_Energy-OPLS-2005>
152.112609863281

> <r_mmod_Electrostatic_Energy-OPLS-2005>
-348.915100097656

> <r_mmod_Solvation_Energy-OPLS-2005>
-263.314056396484

> <b_mmod_Minimization_Converged-OPLS-2005>
0

> <r_mmod_RMS_Derivative-OPLS-2005>
6.20798635482788

$$$$
89
                    3D
 Structure written by MMmdl.
169178  0  0  1  0            999 V2000
  -29.5237  -15.3944   20.8241 C   0  0  0  0  0  0
  -30.3323  -13.0836   19.6964 C   0  0  0  0  0  0
  -29.5363  -12.6777   18.4109 C   0  0  0  0  0  0
  -28.0966  -12.2353   18.7554 C   0  0  0  0  0  0
  -27.5275  -13.1481   19.8603 C   0  0  2  0  0  0
  -28.4355  -13.1397   21.0816 C   0  0  0  0  0  0
  -25.2020  -13.7832   20.5746 C   0  0  0  0  0  0
  -24.1298  -13.0218   20.9154 C   0  0  0  0  0  0
  -24.5813  -11.6679   20.8706 C   0  0  0  0  0  0
  -23.8681  -10.4158   21.0478 C   0  0  0  0  0  0
  -24.3435   -9.4161   21.9216 C   0  0  0  0  0  0
  -23.6195   -8.2180   22.0785 C   0  0  0  0  0  0
  -22.4173   -8.0210   21.3568 C   0  0  0  0  0  0
  -21.9716   -9.0132   20.4650 C   0  0  0  0  0  0
  -22.6954  -10.2018   20.3050 C   0  0  0  0  0  0
  -21.6816   -6.0704   22.5308 C   0  0  0  0  0  0
  -21.3985   -6.5624   23.8236 C   0  0  0  0  0  0
  -21.3642   -5.6784   24.9199 C   0  0  0  0  0  0
  -21.6033   -4.3046   24.7250 C   0  0  0  0  0  0
  -21.8827   -3.8137   23.4373 C   0  0  0  0  0  0
  -21.9183   -4.6947   22.3429 C   0  0  0  0  0  0
  -22.7486  -13.5250   21.1910 C   0  0  0  0  0  0
  -22.1657   -4.2140   21.1004 F   0  0  0  0  0  0
  -21.5617   -3.4532   25.7758 F   0  0  0  0  0  0
  -29.5052  -13.9718   20.6262 N   0  0  0  0  0  0
  -26.2005  -12.8729   20.2841 N   0  0  0  0  0  0
  -25.8553  -11.5995   20.5401 N   0  0  0  0  0  0
  -22.0124  -12.8329   22.0483 N   0  0  0  0  0  0
  -25.4010  -15.1603   20.4853 N   0  0  0  0  0  0
  -30.7102  -15.7489   20.5585 O   0  0  0  0  0  0
  -21.6580   -6.8802   21.4257 O   0  0  0  0  0  0
  -22.3346  -14.5636   20.6779 O   0  0  0  0  0  0
  -24.6883  -31.9935   23.2242 C   0  0  0  0  0  0
  -25.9774  -32.5230   23.8777 C   0  0  1  0  0  0
  -26.4488  -27.2107   20.2645 C   0  0  0  0  0  0
  -25.6703  -33.8964   24.2728 N   0  0  0  0  0  0
  -23.5076  -30.6880   21.5695 C   0  0  2  0  0  0
  -24.8562  -29.2647   19.9083 C   0  0  0  0  0  0
  -23.1155  -29.6436   22.6386 C   0  0  0  0  0  0
  -18.3835  -27.5734   22.4740 C   0  0  0  0  0  0
  -24.1531  -36.7310   23.2550 C   0  0  0  0  0  0
  -26.0313  -30.8219   21.4648 C   0  0  0  0  0  0
  -25.9559  -29.4844   20.7410 C   0  0  0  0  0  0
  -26.8793  -28.4323   20.8656 C   0  0  0  0  0  0
  -25.9863  -27.3171   18.9837 C   0  0  0  0  0  0
  -24.9658  -28.2802   18.8951 C   0  0  0  0  0  0
  -23.7003  -30.1944   20.0959 C   0  0  0  0  0  0
  -25.4148  -36.3231   24.0299 C   0  0  1  0  0  0
  -21.5170  -28.1262   23.4584 C   0  0  2  0  0  0
  -22.8309  -26.2505   22.8442 C   0  0  0  0  0  0
  -20.9383  -25.1047   20.9330 C   0  0  0  0  0  0
  -18.6877  -26.0876   21.0363 C   0  0  0  0  0  0
  -19.5595  -28.3361   23.3805 C   0  0  0  0  0  0
  -19.1532  -29.6064   23.9661 C   0  0  0  0  0  0
  -17.8483  -30.1587   23.9603 C   0  0  0  0  0  0
  -25.9242  -34.9675   23.5145 C   0  0  0  0  0  0
  -16.8116  -29.4303   23.3597 C   0  0  0  0  0  0
  -17.0817  -28.2152   22.6453 C   0  0  0  0  0  0
  -26.4588  -31.6700   25.1135 C   0  0  0  0  0  0
  -25.3531  -31.3956   26.1586 C   0  0  0  0  0  0
  -27.0333  -30.2998   24.6813 C   0  0  0  0  0  0
  -27.6092  -32.4256   25.8155 C   0  0  0  0  0  0
  -27.5666  -37.1796   24.8376 C   0  0  0  0  0  0
  -21.8610  -29.3977   22.8492 N   0  0  0  0  0  0
  -26.4257  -37.3975   23.9529 N   0  0  0  0  0  0
  -24.7598  -31.2513   22.0871 N   0  0  0  0  0  0
  -23.9405  -28.9757   23.2557 O   0  0  0  0  0  0
  -25.3225  -26.6126   20.8817 O   0  0  0  0  0  0
  -26.5470  -34.9049   22.4510 O   0  0  0  0  0  0
  -23.6017  -32.2750   23.7552 O   0  0  0  0  0  0
  -25.7315  -19.4721   23.0523 C   0  0  0  0  0  0
  -25.2513  -19.5521   20.9231 C   0  0  0  0  0  0
  -26.7682  -18.3502   22.7745 C   0  0  0  0  0  0
  -26.2817  -18.4266   20.6504 C   0  0  0  0  0  0
  -24.7907  -20.2699   22.1698 C   0  0  0  0  0  0
  -27.2476  -17.6638   21.5155 C   0  0  0  0  0  0
  -23.3482  -21.4229   22.5886 C   0  0  0  0  0  0
  -20.4914  -27.4453   21.2864 C   0  0  0  0  0  0
  -19.9078  -25.6081   22.8796 C   0  0  0  0  0  0
  -21.0859  -27.4439   19.9192 C   0  0  0  0  0  0
  -21.0445  -24.3392   23.2556 C   0  0  2  0  0  0
  -21.8194  -27.1392   21.1647 C   0  0  2  0  0  0
  -20.8889  -26.1252   24.8203 C   0  0  0  0  0  0
  -22.6210  -23.2374   22.5638 C   0  0  0  0  0  0
  -23.5992  -26.5306   20.4901 C   0  0  0  0  0  0
  -22.4604  -20.7141   23.1392 N   0  0  0  0  0  0
  -28.2046  -16.2181   21.1678 N   0  0  0  0  0  0
  -20.7510  -25.9541   23.0764 N   0  3  1  0  0  0
  -31.2240  -13.6356   19.4086 H   0  0  0  0  0  0
  -30.6978  -12.2171   20.2413 H   0  0  0  0  0  0
  -30.0812  -11.9018   17.8640 H   0  0  0  0  0  0
  -29.4894  -13.5583   17.7725 H   0  0  0  0  0  0
  -28.1471  -11.2095   19.1399 H   0  0  0  0  0  0
  -27.4570  -12.2337   17.8737 H   0  0  0  0  0  0
  -27.4634  -14.1350   19.4112 H   0  0  0  0  0  0
  -28.7388  -12.1206   21.3362 H   0  0  0  0  0  0
  -27.9486  -13.5203   21.9808 H   0  0  0  0  0  0
  -25.2586   -9.5751   22.4743 H   0  0  0  0  0  0
  -23.9957   -7.4602   22.7497 H   0  0  0  0  0  0
  -21.0660   -8.8643   19.8951 H   0  0  0  0  0  0
  -22.3461  -10.9591   19.6172 H   0  0  0  0  0  0
  -21.1974   -7.6132   23.9748 H   0  0  0  0  0  0
  -21.1438   -6.0502   25.9103 H   0  0  0  0  0  0
  -22.0617   -2.7599   23.2881 H   0  0  0  0  0  0
  -22.3696  -11.9977   22.4878 H   0  0  0  0  0  0
  -21.0812  -13.1503   22.2719 H   0  0  0  0  0  0
  -24.6861  -15.8125   20.7864 H   0  0  0  0  0  0
  -26.2756  -15.6302   20.3128 H   0  0  0  0  0  0
  -26.7954  -32.5658   23.1607 H   0  0  0  0  0  0
  -25.1228  -34.0147   25.1124 H   0  0  0  0  0  0
  -22.7529  -31.4770   21.5004 H   0  0  0  0  0  0
  -23.3978  -35.9441   23.2945 H   0  0  0  0  0  0
  -24.3719  -36.9205   22.2032 H   0  0  0  0  0  0
  -23.7024  -37.6314   23.6724 H   0  0  0  0  0  0
  -26.3511  -31.5917   20.7632 H   0  0  0  0  0  0
  -26.8339  -30.7103   22.1819 H   0  0  0  0  0  0
  -27.6381  -28.4547   21.6394 H   0  0  0  0  0  0
  -25.9968  -26.4765   18.3051 H   0  0  0  0  0  0
  -24.2673  -28.2489   18.0707 H   0  0  0  0  0  0
  -24.0388  -31.0628   19.5261 H   0  0  0  0  0  0
  -22.7784  -29.9291   19.5926 H   0  0  0  0  0  0
  -25.1249  -36.2023   25.0759 H   0  0  0  0  0  0
  -21.7825  -28.3447   24.4935 H   0  0  0  0  0  0
  -23.0765  -25.6175   23.6987 H   0  0  0  0  0  0
  -23.8707  -26.5512   22.7066 H   0  0  0  0  0  0
  -20.7683  -24.0294   21.0369 H   0  0  0  0  0  0
  -21.3505  -24.9091   19.9364 H   0  0  0  0  0  0
  -18.4117  -26.4629   20.0432 H   0  0  0  0  0  0
  -17.9063  -25.3370   21.1847 H   0  0  0  0  0  0
  -19.9026  -30.1705   24.5086 H   0  0  0  0  0  0
  -17.6393  -31.0838   24.4800 H   0  0  0  0  0  0
  -15.7995  -29.8005   23.4041 H   0  0  0  0  0  0
  -16.2598  -27.7608   22.1107 H   0  0  0  0  0  0
  -24.5549  -30.7653   25.7630 H   0  0  0  0  0  0
  -24.8972  -32.3219   26.5103 H   0  0  0  0  0  0
  -25.7500  -30.8835   27.0357 H   0  0  0  0  0  0
  -26.2990  -29.6853   24.1609 H   0  0  0  0  0  0
  -27.3485  -29.7204   25.5500 H   0  0  0  0  0  0
  -27.9150  -30.4020   24.0491 H   0  0  0  0  0  0
  -27.2649  -33.3481   26.2840 H   0  0  0  0  0  0
  -28.4034  -32.6896   25.1168 H   0  0  0  0  0  0
  -28.0579  -31.8252   26.6071 H   0  0  0  0  0  0
  -28.2264  -38.0480   24.8116 H   0  0  0  0  0  0
  -28.1587  -36.3127   24.5377 H   0  0  0  0  0  0
  -27.2502  -37.0385   25.8728 H   0  0  0  0  0  0
  -21.1679  -29.8270   22.2564 H   0  0  0  0  0  0
  -26.0096  -38.2928   24.1948 H   0  0  0  0  0  0
  -25.6335  -19.7253   24.1060 H   0  0  0  0  0  0
  -24.7205  -19.8528   20.0331 H   0  0  0  0  0  0
  -27.1966  -17.9434   23.6841 H   0  0  0  0  0  0
  -26.2807  -18.0649   19.6326 H   0  0  0  0  0  0
  -20.3748  -28.5700   21.3870 H   0  0  0  0  0  0
  -19.6784  -28.0086   20.7829 H   0  0  0  0  0  0
  -19.2697  -24.6755   22.5559 H   0  0  0  0  0  0
  -18.8755  -25.6150   23.4914 H   0  0  0  0  0  0
  -21.3543  -28.4065   19.4849 H   0  0  0  0  0  0
  -20.9267  -26.6757   19.1360 H   0  0  0  0  0  0
  -20.5809  -23.7727   24.0608 H   0  0  0  0  0  0
  -22.5075  -27.9794   21.2021 H   0  0  0  0  0  0
  -21.8871  -26.1987   25.2499 H   0  0  0  0  0  0
  -20.4558  -25.2960   25.3773 H   0  0  0  0  0  0
  -20.2847  -26.9233   25.2559 H   0  0  0  0  0  0
  -22.7799  -23.5018   21.5224 H   0  0  0  0  0  0
  -23.4668  -23.7199   23.0513 H   0  0  0  0  0  0
  -23.4845  -26.4525   19.4121 H   0  0  0  0  0  0
  -23.5650  -25.4526   20.6825 H   0  0  0  0  0  0
  -22.7689  -19.7476   23.1957 H   0  0  0  0  0  0
  -27.5213  -15.4969   21.0186 H   0  0  0  0  0  0
  -21.7347  -26.0656   23.2278 H   0  0  0  0  0  0
  1 25  1  0  0  0
  1 30  2  0  0  0
  1 87  1  0  0  0
  2  3  1  0  0  0
  2 25  1  0  0  0
  2 89  1  0  0  0
  2 90  1  0  0  0
  3  4  1  0  0  0
  3 91  1  0  0  0
  3 92  1  0  0  0
  4  5  1  0  0  0
  4 93  1  0  0  0
  4 94  1  0  0  0
  5  6  1  0  0  0
  5 26  1  0  0  0
  5 95  1  0  0  0
  6 25  1  0  0  0
  6 96  1  0  0  0
  6 97  1  0  0  0
  7  8  2  0  0  0
  7 26  1  0  0  0
  7 29  1  0  0  0
  8  9  1  0  0  0
  8 22  1  0  0  0
  9 10  1  0  0  0
  9 27  2  0  0  0
 10 11  2  0  0  0
 10 15  1  0  0  0
 11 12  1  0  0  0
 11 98  1  0  0  0
 12 13  2  0  0  0
 12 99  1  0  0  0
 13 14  1  0  0  0
 13 31  1  0  0  0
 14 15  2  0  0  0
 14100  1  0  0  0
 15101  1  0  0  0
 16 17  2  0  0  0
 16 21  1  0  0  0
 16 31  1  0  0  0
 17 18  1  0  0  0
 17102  1  0  0  0
 18 19  2  0  0  0
 18103  1  0  0  0
 19 20  1  0  0  0
 19 24  1  0  0  0
 20 21  2  0  0  0
 20104  1  0  0  0
 21 23  1  0  0  0
 22 28  1  0  0  0
 22 32  2  0  0  0
 26 27  1  0  0  0
 28105  1  0  0  0
 28106  1  0  0  0
 29107  1  0  0  0
 29108  1  0  0  0
 33 34  1  0  0  0
 33 66  1  0  0  0
 33 70  2  0  0  0
 34 36  1  0  0  0
 34 59  1  0  0  0
 34109  1  0  0  0
 35 44  2  0  0  0
 35 45  1  0  0  0
 35 68  1  0  0  0
 36 56  1  0  0  0
 36110  1  0  0  0
 37 39  1  0  0  0
 37 47  1  0  0  0
 37 66  1  0  0  0
 37111  1  0  0  0
 38 43  2  0  0  0
 38 46  1  0  0  0
 38 47  1  0  0  0
 39 64  1  0  0  0
 39 67  2  0  0  0
 40 52  1  0  0  0
 40 53  2  0  0  0
 40 58  1  0  0  0
 41112  1  0  0  0
 41113  1  0  0  0
 41114  1  0  0  0
 41 48  1  0  0  0
 42 43  1  0  0  0
 42 66  1  0  0  0
 42115  1  0  0  0
 42116  1  0  0  0
 43 44  1  0  0  0
 44117  1  0  0  0
 45 46  2  0  0  0
 45118  1  0  0  0
 46119  1  0  0  0
 47120  1  0  0  0
 47121  1  0  0  0
 48 56  1  0  0  0
 48 65  1  0  0  0
 48122  1  0  0  0
 49 50  1  0  0  0
 49 53  1  0  0  0
 49 64  1  0  0  0
 49123  1  0  0  0
 50 51  1  0  0  0
 50124  1  0  0  0
 50125  1  0  0  0
 51 52  1  0  0  0
 51126  1  0  0  0
 51127  1  0  0  0
 52128  1  0  0  0
 52129  1  0  0  0
 53 54  1  0  0  0
 54 55  2  0  0  0
 54130  1  0  0  0
 55 57  1  0  0  0
 55131  1  0  0  0
 56 69  2  0  0  0
 57 58  2  0  0  0
 57132  1  0  0  0
 58133  1  0  0  0
 59 60  1  0  0  0
 59 61  1  0  0  0
 59 62  1  0  0  0
 60134  1  0  0  0
 60135  1  0  0  0
 60136  1  0  0  0
 61137  1  0  0  0
 61138  1  0  0  0
 61139  1  0  0  0
 62140  1  0  0  0
 62141  1  0  0  0
 62142  1  0  0  0
 63 65  1  0  0  0
 63143  1  0  0  0
 63144  1  0  0  0
 63145  1  0  0  0
 64146  1  0  0  0
 65147  1  0  0  0
 68 85  1  0  0  0
 71 73  2  0  0  0
 71 75  1  0  0  0
 71148  1  0  0  0
 72 74  1  0  0  0
 72 75  2  0  0  0
 72149  1  0  0  0
 73 76  1  0  0  0
 73150  1  0  0  0
 74 76  2  0  0  0
 74151  1  0  0  0
 75 77  1  0  0  0
 76 87  1  0  0  0
 77 84  1  0  0  0
 77 86  2  0  0  0
 78 79  1  0  0  0
 78 80  1  0  0  0
 78152  1  0  0  0
 78153  1  0  0  0
 79 81  1  0  0  0
 79154  1  0  0  0
 79155  1  0  0  0
 80 82  1  0  0  0
 80156  1  0  0  0
 80157  1  0  0  0
 81 84  1  0  0  0
 81 88  1  0  0  0
 81158  1  0  0  0
 82 85  1  0  0  0
 82 88  1  0  0  0
 82159  1  0  0  0
 83160  1  0  0  0
 83161  1  0  0  0
 83162  1  0  0  0
 83 88  1  0  0  0
 84163  1  0  0  0
 84164  1  0  0  0
 85165  1  0  0  0
 85166  1  0  0  0
 86167  1  0  0  0
 87168  1  0  0  0
 88169  1  0  0  0
M  CHG  1  88   1
M  ISO  4   1 100  68 101  85 101  87 100
M  END
> <chiral flag>
0

> <version>
0

> <s_m_source_file>
/data/baiqing/PycharmProjects/Reinvent-master-3.2/result/LINK_invent/BTK/process_docking_weight1_custom_product_contain_oxygen_bond_distance_aromatic_linkinvent_7_9_3/rearranged_h_0143.sdf

> <i_m_source_file_index>
90

> <r_mmod_Potential_Energy-OPLS-2005>
19544.11328125

> <r_mmod_Stretch_Energy-OPLS-2005>
9511.67578125

> <r_mmod_Bend_Energy-OPLS-2005>
2869.458984375

> <r_mmod_Torsional_Energy-OPLS-2005>
609.434265136719

> <r_mmod_Improper_Torsional_Energy-OPLS-2005>
43.4880638122559

> <r_mmod_Van_der_Waal_Energy-OPLS-2005>
3535.85986328125

> <r_mmod_Electrostatic_Energy-OPLS-2005>
-289.739288330078

> <r_mmod_Solvation_Energy-OPLS-2005>
-397.054290771484

> <b_mmod_Minimization_Converged-OPLS-2005>
0

> <r_mmod_RMS_Derivative-OPLS-2005>
31.0633087158203

$$$$
90
                    3D
 Structure written by MMmdl.
163171  0  0  1  0            999 V2000
  -30.7138  -14.5480   20.6223 C   0  0  0  0  0  0
  -30.4255  -12.3800   19.4389 C   0  0  0  0  0  0
  -29.5009  -12.5383   18.2165 C   0  0  0  0  0  0
  -28.0249  -12.3754   18.6264 C   0  0  0  0  0  0
  -27.6612  -13.2151   19.8820 C   0  0  2  0  0  0
  -28.7081  -13.0175   21.0041 C   0  0  0  0  0  0
  -25.2504  -13.8054   20.5455 C   0  0  0  0  0  0
  -24.1832  -13.0361   20.9142 C   0  0  0  0  0  0
  -24.6445  -11.6852   20.8767 C   0  0  0  0  0  0
  -23.9109  -10.4250   21.0423 C   0  0  0  0  0  0
  -24.3649   -9.4157   21.9198 C   0  0  0  0  0  0
  -23.6309   -8.2202   22.0758 C   0  0  0  0  0  0
  -22.4290   -8.0269   21.3540 C   0  0  0  0  0  0
  -21.9945   -9.0250   20.4639 C   0  0  0  0  0  0
  -22.7286  -10.2118   20.3062 C   0  0  0  0  0  0
  -21.6838   -6.0748   22.5281 C   0  0  0  0  0  0
  -21.3988   -6.5644   23.8213 C   0  0  0  0  0  0
  -21.3658   -5.6793   24.9175 C   0  0  0  0  0  0
  -21.6056   -4.3058   24.7214 C   0  0  0  0  0  0
  -21.8814   -3.8154   23.4327 C   0  0  0  0  0  0
  -21.9183   -4.6980   22.3392 C   0  0  0  0  0  0
  -22.7859  -13.5169   21.1827 C   0  0  0  0  0  0
  -22.1654   -4.2174   21.0968 F   0  0  0  0  0  0
  -21.5654   -3.4538   25.7722 F   0  0  0  0  0  0
  -30.0199  -13.3776   20.4532 N   0  0  0  0  0  0
  -26.3040  -12.9303   20.3386 N   0  0  0  0  0  0
  -25.9393  -11.6459   20.5857 N   0  0  0  0  0  0
  -22.0521  -12.8160   22.0398 N   0  0  0  0  0  0
  -25.4026  -15.1689   20.3409 N   0  0  0  0  0  0
  -31.7948  -14.7294   20.0564 O   0  0  0  0  0  0
  -21.6623   -6.8892   21.4251 O   0  0  0  0  0  0
  -22.3516  -14.5468   20.6674 O   0  0  0  0  0  0
  -24.6219  -31.8614   23.2043 C   0  0  0  0  0  0
  -25.9079  -32.4798   23.8372 C   0  0  1  0  0  0
  -27.2411  -27.3733   20.0995 C   0  0  0  0  0  0
  -25.5920  -33.8599   24.2301 N   0  0  0  0  0  0
  -23.4132  -30.4828   21.5453 C   0  0  2  0  0  0
  -24.8570  -28.9340   20.1170 C   0  0  0  0  0  0
  -22.7454  -29.4618   22.4958 C   0  0  0  0  0  0
  -18.0281  -28.1381   22.8475 C   0  0  0  0  0  0
  -24.1484  -36.7306   23.2640 C   0  0  0  0  0  0
  -25.9460  -30.8105   21.3599 C   0  0  0  0  0  0
  -26.0205  -29.4379   20.7080 C   0  0  0  0  0  0
  -27.2114  -28.6687   20.6855 C   0  0  0  0  0  0
  -26.0509  -26.8914   19.5095 C   0  0  0  0  0  0
  -24.8702  -27.6632   19.5141 C   0  0  0  0  0  0
  -23.6234  -29.8104   20.1620 C   0  0  0  0  0  0
  -25.4111  -36.3104   24.0333 C   0  0  1  0  0  0
  -20.5877  -28.3659   23.1295 C   0  0  2  0  0  0
  -20.6752  -26.9385   22.5408 C   0  0  0  0  0  0
  -19.5733  -26.6370   21.5203 C   0  0  0  0  0  0
  -18.1915  -26.7925   22.1614 C   0  0  0  0  0  0
  -19.1534  -28.8834   23.2880 C   0  0  0  0  0  0
  -18.9459  -30.1437   23.8892 C   0  0  0  0  0  0
  -17.6459  -30.6571   24.0554 C   0  0  0  0  0  0
  -25.9043  -34.9473   23.5116 C   0  0  0  0  0  0
  -16.5349  -29.9068   23.6331 C   0  0  0  0  0  0
  -16.7268  -28.6497   23.0338 C   0  0  0  0  0  0
  -26.4482  -31.6623   25.0742 C   0  0  0  0  0  0
  -25.3747  -31.3738   26.1499 C   0  0  0  0  0  0
  -27.0325  -30.3080   24.6129 C   0  0  0  0  0  0
  -27.6049  -32.4361   25.7511 C   0  0  0  0  0  0
  -27.5582  -37.1808   24.8468 C   0  0  0  0  0  0
  -21.4174  -29.3033   22.3717 N   0  0  0  0  0  0
  -26.4290  -37.3799   23.9417 N   0  0  0  0  0  0
  -24.6797  -31.0672   22.0952 N   0  0  0  0  0  0
  -23.4207  -28.8155   23.3012 O   0  0  0  0  0  0
  -28.4349  -26.6566   20.1153 O   0  0  0  0  0  0
  -26.5595  -34.8927   22.4674 O   0  0  0  0  0  0
  -23.5395  -32.1395   23.7394 O   0  0  0  0  0  0
  -29.8137  -17.9485   21.0842 C   0  0  0  0  0  0
  -28.0261  -16.4287   21.6960 C   0  0  0  0  0  0
  -27.5840  -18.8411   21.5671 C   0  0  0  0  0  0
  -29.3765  -16.6037   21.3423 C   0  0  0  0  0  0
  -28.9302  -19.0830   21.1635 C   0  0  0  0  0  0
  -27.1497  -17.5211   21.8105 C   0  0  0  0  0  0
  -28.9127  -21.5385   20.4117 C   0  0  0  0  0  0
  -26.5821  -19.9551   21.8493 C   0  0  0  0  0  0
  -27.2989  -23.9282   21.5619 C   0  0  0  0  0  0
  -29.4594  -25.0149   22.1180 C   0  0  0  0  0  0
  -29.5677  -22.9315   20.6929 C   0  0  0  0  0  0
  -28.5534  -25.2373   19.7807 C   0  0  0  0  0  0
  -28.7034  -24.2486   21.0056 C   0  0  0  0  0  0
  -29.4505  -20.4350   21.0155 N   0  0  0  0  0  0
  -30.2930  -15.4887   21.5118 N   0  0  0  0  0  0
  -27.9867  -21.4634   19.6022 O   0  0  0  0  0  0
  -25.8798  -17.2984   22.2234 F   0  0  0  0  0  0
  -31.4694  -12.4844   19.1380 H   0  0  0  0  0  0
  -30.3480  -11.3724   19.8491 H   0  0  0  0  0  0
  -29.7646  -11.8122   17.4461 H   0  0  0  0  0  0
  -29.6505  -13.5235   17.7710 H   0  0  0  0  0  0
  -27.8494  -11.3180   18.8249 H   0  0  0  0  0  0
  -27.3747  -12.6397   17.7921 H   0  0  0  0  0  0
  -27.6989  -14.2626   19.5811 H   0  0  0  0  0  0
  -28.7187  -11.9738   21.3226 H   0  0  0  0  0  0
  -28.4776  -13.5742   21.9074 H   0  0  0  0  0  0
  -25.2806   -9.5611   22.4772 H   0  0  0  0  0  0
  -24.0021   -7.4578   22.7459 H   0  0  0  0  0  0
  -21.0890   -8.8776   19.8920 H   0  0  0  0  0  0
  -22.3779  -10.9674   19.6168 H   0  0  0  0  0  0
  -21.1946   -7.6143   23.9729 H   0  0  0  0  0  0
  -21.1505   -6.0511   25.9087 H   0  0  0  0  0  0
  -22.0592   -2.7621   23.2807 H   0  0  0  0  0  0
  -22.4162  -11.9846   22.4824 H   0  0  0  0  0  0
  -21.1129  -13.1170   22.2571 H   0  0  0  0  0  0
  -24.6535  -15.8303   20.5095 H   0  0  0  0  0  0
  -26.2600  -15.6118   20.0425 H   0  0  0  0  0  0
  -26.7146  -32.5473   23.1122 H   0  0  0  0  0  0
  -25.0142  -33.9765   25.0493 H   0  0  0  0  0  0
  -22.7054  -31.3016   21.4030 H   0  0  0  0  0  0
  -23.3750  -35.9636   23.3311 H   0  0  0  0  0  0
  -24.3576  -36.8924   22.2056 H   0  0  0  0  0  0
  -23.7230  -37.6508   23.6649 H   0  0  0  0  0  0
  -26.0638  -31.5712   20.5859 H   0  0  0  0  0  0
  -26.8318  -30.8660   21.9803 H   0  0  0  0  0  0
  -28.1152  -29.0644   21.1266 H   0  0  0  0  0  0
  -26.0057  -25.9222   19.0394 H   0  0  0  0  0  0
  -23.9739  -27.2692   19.0557 H   0  0  0  0  0  0
  -23.7398  -30.5845   19.4030 H   0  0  0  0  0  0
  -22.7437  -29.2378   19.8626 H   0  0  0  0  0  0
  -25.1285  -36.1962   25.0822 H   0  0  0  0  0  0
  -20.9965  -28.3207   24.1415 H   0  0  0  0  0  0
  -20.5624  -26.2270   23.3607 H   0  0  0  0  0  0
  -21.6624  -26.7386   22.1220 H   0  0  0  0  0  0
  -19.6884  -25.6278   21.1238 H   0  0  0  0  0  0
  -19.6679  -27.3168   20.6727 H   0  0  0  0  0  0
  -17.4191  -26.6683   21.4007 H   0  0  0  0  0  0
  -18.0293  -26.0065   22.9006 H   0  0  0  0  0  0
  -19.7931  -30.7252   24.2265 H   0  0  0  0  0  0
  -17.5010  -31.6249   24.5158 H   0  0  0  0  0  0
  -15.5345  -30.2957   23.7658 H   0  0  0  0  0  0
  -15.8680  -28.0808   22.7045 H   0  0  0  0  0  0
  -24.5889  -30.7115   25.7852 H   0  0  0  0  0  0
  -24.8971  -32.2896   26.4994 H   0  0  0  0  0  0
  -25.8106  -30.8884   27.0242 H   0  0  0  0  0  0
  -26.2871  -29.6839   24.1185 H   0  0  0  0  0  0
  -27.4119  -29.7322   25.4581 H   0  0  0  0  0  0
  -27.8689  -30.4441   23.9273 H   0  0  0  0  0  0
  -27.2658  -33.3645   26.2119 H   0  0  0  0  0  0
  -28.3839  -32.6959   25.0334 H   0  0  0  0  0  0
  -28.0739  -31.8482   26.5410 H   0  0  0  0  0  0
  -28.2600  -38.0103   24.7525 H   0  0  0  0  0  0
  -28.1072  -36.2639   24.6272 H   0  0  0  0  0  0
  -27.2306  -37.1449   25.8872 H   0  0  0  0  0  0
  -20.9343  -29.8828   21.6996 H   0  0  0  0  0  0
  -26.0175  -38.2873   24.1423 H   0  0  0  0  0  0
  -30.8590  -18.1213   20.8675 H   0  0  0  0  0  0
  -27.6385  -15.4630   21.9668 H   0  0  0  0  0  0
  -27.0541  -20.8048   22.3411 H   0  0  0  0  0  0
  -25.7888  -19.6233   22.5188 H   0  0  0  0  0  0
  -26.1061  -20.2895   20.9290 H   0  0  0  0  0  0
  -27.3488  -23.2843   22.4400 H   0  0  0  0  0  0
  -26.6681  -23.4353   20.8215 H   0  0  0  0  0  0
  -26.7796  -24.8398   21.8611 H   0  0  0  0  0  0
  -29.5959  -24.4073   23.0142 H   0  0  0  0  0  0
  -28.9233  -25.9116   22.4350 H   0  0  0  0  0  0
  -30.4466  -25.3295   21.7782 H   0  0  0  0  0  0
  -30.2320  -23.1334   19.8533 H   0  0  0  0  0  0
  -30.2526  -22.7639   21.5258 H   0  0  0  0  0  0
  -27.8074  -24.8795   19.0747 H   0  0  0  0  0  0
  -29.4826  -25.1917   19.2124 H   0  0  0  0  0  0
  -30.3404  -20.5987   21.4676 H   0  0  0  0  0  0
  -31.1458  -15.8417   21.9213 H   0  0  0  0  0  0
  1 25  1  0  0  0
  1 30  2  0  0  0
  1 85  1  0  0  0
  2  3  1  0  0  0
  2 25  1  0  0  0
  2 88  1  0  0  0
  2 89  1  0  0  0
  3  4  1  0  0  0
  3 90  1  0  0  0
  3 91  1  0  0  0
  4  5  1  0  0  0
  4 92  1  0  0  0
  4 93  1  0  0  0
  5  6  1  0  0  0
  5 26  1  0  0  0
  5 94  1  0  0  0
  6 25  1  0  0  0
  6 95  1  0  0  0
  6 96  1  0  0  0
  7  8  2  0  0  0
  7 26  1  0  0  0
  7 29  1  0  0  0
  8  9  1  0  0  0
  8 22  1  0  0  0
  9 10  1  0  0  0
  9 27  2  0  0  0
 10 11  2  0  0  0
 10 15  1  0  0  0
 11 12  1  0  0  0
 11 97  1  0  0  0
 12 13  2  0  0  0
 12 98  1  0  0  0
 13 14  1  0  0  0
 13 31  1  0  0  0
 14 15  2  0  0  0
 14 99  1  0  0  0
 15100  1  0  0  0
 16 17  2  0  0  0
 16 21  1  0  0  0
 16 31  1  0  0  0
 17 18  1  0  0  0
 17101  1  0  0  0
 18 19  2  0  0  0
 18102  1  0  0  0
 19 20  1  0  0  0
 19 24  1  0  0  0
 20 21  2  0  0  0
 20103  1  0  0  0
 21 23  1  0  0  0
 22 28  1  0  0  0
 22 32  2  0  0  0
 26 27  1  0  0  0
 28104  1  0  0  0
 28105  1  0  0  0
 29106  1  0  0  0
 29107  1  0  0  0
 33 34  1  0  0  0
 33 66  1  0  0  0
 33 70  2  0  0  0
 34 36  1  0  0  0
 34 59  1  0  0  0
 34108  1  0  0  0
 35 44  2  0  0  0
 35 45  1  0  0  0
 35 68  1  0  0  0
 36 56  1  0  0  0
 36109  1  0  0  0
 37 39  1  0  0  0
 37 47  1  0  0  0
 37 66  1  0  0  0
 37110  1  0  0  0
 38 43  2  0  0  0
 38 46  1  0  0  0
 38 47  1  0  0  0
 39 64  1  0  0  0
 39 67  2  0  0  0
 40 52  1  0  0  0
 40 53  2  0  0  0
 40 58  1  0  0  0
 41111  1  0  0  0
 41112  1  0  0  0
 41113  1  0  0  0
 41 48  1  0  0  0
 42 43  1  0  0  0
 42 66  1  0  0  0
 42114  1  0  0  0
 42115  1  0  0  0
 43 44  1  0  0  0
 44116  1  0  0  0
 45 46  2  0  0  0
 45117  1  0  0  0
 46118  1  0  0  0
 47119  1  0  0  0
 47120  1  0  0  0
 48 56  1  0  0  0
 48 65  1  0  0  0
 48121  1  0  0  0
 49 50  1  0  0  0
 49 53  1  0  0  0
 49 64  1  0  0  0
 49122  1  0  0  0
 50 51  1  0  0  0
 50123  1  0  0  0
 50124  1  0  0  0
 51 52  1  0  0  0
 51125  1  0  0  0
 51126  1  0  0  0
 52127  1  0  0  0
 52128  1  0  0  0
 53 54  1  0  0  0
 54 55  2  0  0  0
 54129  1  0  0  0
 55 57  1  0  0  0
 55130  1  0  0  0
 56 69  2  0  0  0
 57 58  2  0  0  0
 57131  1  0  0  0
 58132  1  0  0  0
 59 60  1  0  0  0
 59 61  1  0  0  0
 59 62  1  0  0  0
 60133  1  0  0  0
 60134  1  0  0  0
 60135  1  0  0  0
 61136  1  0  0  0
 61137  1  0  0  0
 61138  1  0  0  0
 62139  1  0  0  0
 62140  1  0  0  0
 62141  1  0  0  0
 63 65  1  0  0  0
 63142  1  0  0  0
 63143  1  0  0  0
 63144  1  0  0  0
 64145  1  0  0  0
 65146  1  0  0  0
 68 82  1  0  0  0
 71 74  2  0  0  0
 71 75  1  0  0  0
 71147  1  0  0  0
 72 74  1  0  0  0
 72 76  2  0  0  0
 72148  1  0  0  0
 73 75  2  0  0  0
 73 76  1  0  0  0
 73 78  1  0  0  0
 74 85  1  0  0  0
 75 84  1  0  0  0
 76 87  1  0  0  0
 77 81  1  0  0  0
 77 84  1  0  0  0
 77 86  2  0  0  0
 78149  1  0  0  0
 78150  1  0  0  0
 78151  1  0  0  0
 79152  1  0  0  0
 79153  1  0  0  0
 79154  1  0  0  0
 79 83  1  0  0  0
 80 83  1  0  0  0
 80155  1  0  0  0
 80156  1  0  0  0
 80157  1  0  0  0
 81 83  1  0  0  0
 81158  1  0  0  0
 81159  1  0  0  0
 82 83  1  0  0  0
 82160  1  0  0  0
 82161  1  0  0  0
 84162  1  0  0  0
 85163  1  0  0  0
M  ISO  4   1 100  68 101  82 101  85 100
M  END
> <chiral flag>
0

> <version>
0

> <s_m_source_file>
/data/baiqing/PycharmProjects/Reinvent-master-3.2/result/LINK_invent/BTK/process_docking_weight1_custom_product_contain_oxygen_bond_distance_aromatic_linkinvent_7_9_3/rearranged_h_0143.sdf

> <i_m_source_file_index>
91

> <r_mmod_Potential_Energy-OPLS-2005>
117.034080505371

> <r_mmod_Stretch_Energy-OPLS-2005>
70.0835494995117

> <r_mmod_Bend_Energy-OPLS-2005>
178.914993286133

> <r_mmod_Torsional_Energy-OPLS-2005>
280.851806640625

> <r_mmod_Improper_Torsional_Energy-OPLS-2005>
10.628363609314

> <r_mmod_Van_der_Waal_Energy-OPLS-2005>
146.869186401367

> <r_mmod_Electrostatic_Energy-OPLS-2005>
-384.395874023438

> <r_mmod_Solvation_Energy-OPLS-2005>
-209.099151611328

> <b_mmod_Minimization_Converged-OPLS-2005>
0

> <r_mmod_RMS_Derivative-OPLS-2005>
1.99644219875336

$$$$
91
                    3D
 Structure written by MMmdl.
163172  0  0  1  0            999 V2000
  -30.6697  -14.4934   20.5866 C   0  0  0  0  0  0
  -30.4378  -12.3241   19.4187 C   0  0  0  0  0  0
  -29.5011  -12.5161   18.2061 C   0  0  0  0  0  0
  -28.0205  -12.3713   18.6158 C   0  0  0  0  0  0
  -27.6661  -13.2009   19.8784 C   0  0  2  0  0  0
  -28.7071  -12.9584   20.9948 C   0  0  0  0  0  0
  -25.2617  -13.8154   20.5670 C   0  0  0  0  0  0
  -24.1856  -13.0442   20.9163 C   0  0  0  0  0  0
  -24.6393  -11.6901   20.8728 C   0  0  0  0  0  0
  -23.9042  -10.4295   21.0406 C   0  0  0  0  0  0
  -24.3604   -9.4213   21.9183 C   0  0  0  0  0  0
  -23.6283   -8.2247   22.0758 C   0  0  0  0  0  0
  -22.4267   -8.0283   21.3539 C   0  0  0  0  0  0
  -21.9893   -9.0254   20.4646 C   0  0  0  0  0  0
  -22.7213  -10.2138   20.3054 C   0  0  0  0  0  0
  -21.6854   -6.0729   22.5270 C   0  0  0  0  0  0
  -21.4017   -6.5632   23.8202 C   0  0  0  0  0  0
  -21.3658   -5.6787   24.9166 C   0  0  0  0  0  0
  -21.6047   -4.3051   24.7213 C   0  0  0  0  0  0
  -21.8823   -3.8139   23.4336 C   0  0  0  0  0  0
  -21.9195   -4.6956   22.3393 C   0  0  0  0  0  0
  -22.7880  -13.5252   21.1828 C   0  0  0  0  0  0
  -22.1665   -4.2142   21.0969 F   0  0  0  0  0  0
  -21.5626   -3.4531   25.7723 F   0  0  0  0  0  0
  -30.0413  -13.2893   20.4560 N   0  0  0  0  0  0
  -26.3044  -12.9305   20.3364 N   0  0  0  0  0  0
  -25.9317  -11.6467   20.5758 N   0  0  0  0  0  0
  -22.0509  -12.8259   22.0388 N   0  0  0  0  0  0
  -25.4360  -15.1872   20.4074 N   0  0  0  0  0  0
  -31.7681  -14.7352   20.0765 O   0  0  0  0  0  0
  -21.6642   -6.8875   21.4234 O   0  0  0  0  0  0
  -22.3564  -14.5559   20.6678 O   0  0  0  0  0  0
  -24.6168  -31.8658   23.2092 C   0  0  0  0  0  0
  -25.9052  -32.4814   23.8395 C   0  0  1  0  0  0
  -27.2427  -27.4187   20.0823 C   0  0  0  0  0  0
  -25.5897  -33.8614   24.2322 N   0  0  0  0  0  0
  -23.4062  -30.4895   21.5482 C   0  0  2  0  0  0
  -24.8535  -28.9523   20.1128 C   0  0  0  0  0  0
  -22.7422  -29.4645   22.4957 C   0  0  0  0  0  0
  -18.0279  -28.1376   22.8490 C   0  0  0  0  0  0
  -24.1483  -36.7314   23.2639 C   0  0  0  0  0  0
  -25.9375  -30.8235   21.3671 C   0  0  0  0  0  0
  -26.0136  -29.4562   20.7128 C   0  0  0  0  0  0
  -27.2051  -28.6921   20.7033 C   0  0  0  0  0  0
  -26.0532  -26.9237   19.4988 C   0  0  0  0  0  0
  -24.8676  -27.6839   19.5076 C   0  0  0  0  0  0
  -23.6176  -29.8233   20.1620 C   0  0  0  0  0  0
  -25.4106  -36.3110   24.0338 C   0  0  1  0  0  0
  -20.5872  -28.3667   23.1304 C   0  0  2  0  0  0
  -20.6767  -26.9399   22.5408 C   0  0  0  0  0  0
  -19.5744  -26.6380   21.5207 C   0  0  0  0  0  0
  -18.1927  -26.7922   22.1624 C   0  0  0  0  0  0
  -19.1531  -28.8837   23.2897 C   0  0  0  0  0  0
  -18.9459  -30.1442   23.8913 C   0  0  0  0  0  0
  -17.6460  -30.6579   24.0568 C   0  0  0  0  0  0
  -25.9034  -34.9472   23.5128 C   0  0  0  0  0  0
  -16.5349  -29.9086   23.6322 C   0  0  0  0  0  0
  -16.7269  -28.6501   23.0345 C   0  0  0  0  0  0
  -26.4474  -31.6604   25.0730 C   0  0  0  0  0  0
  -25.3741  -31.3726   26.1484 C   0  0  0  0  0  0
  -27.0307  -30.3044   24.6127 C   0  0  0  0  0  0
  -27.6055  -32.4324   25.7480 C   0  0  0  0  0  0
  -27.5582  -37.1811   24.8464 C   0  0  0  0  0  0
  -21.4147  -29.3031   22.3703 N   0  0  0  0  0  0
  -26.4292  -37.3794   23.9411 N   0  0  0  0  0  0
  -24.6715  -31.0741   22.1002 N   0  0  0  0  0  0
  -23.4182  -28.8186   23.3009 O   0  0  0  0  0  0
  -28.4173  -26.6841   20.1168 O   0  0  0  0  0  0
  -26.5595  -34.8925   22.4689 O   0  0  0  0  0  0
  -23.5354  -32.1418   23.7472 O   0  0  0  0  0  0
  -30.4684  -19.0663   20.2996 C   0  0  0  0  0  0
  -28.4147  -18.7946   21.5556 C   0  0  0  0  0  0
  -30.7245  -17.6714   20.4193 C   0  0  0  0  0  0
  -28.6690  -17.4119   21.6790 C   0  0  0  0  0  0
  -29.3005  -19.6463   20.8567 C   0  0  0  0  0  0
  -29.8188  -16.8226   21.1080 C   0  0  0  0  0  0
  -28.9570  -21.0949   20.7660 C   0  0  0  0  0  0
  -28.7026  -22.1675   17.2433 C   0  0  0  0  0  0
  -27.6363  -22.9626   17.9941 C   0  0  0  0  0  0
  -29.2522  -21.2104   18.3012 C   0  0  0  0  0  0
  -28.2382  -23.1443   19.3992 C   0  0  2  0  0  0
  -29.2304  -24.3498   19.4951 C   0  0  0  0  0  0
  -28.7309  -25.7679   19.0501 C   0  0  0  0  0  0
  -28.8899  -21.8068   19.6059 N   0  0  0  0  0  0
  -29.9611  -15.4065   21.2818 N   0  0  0  0  0  0
  -28.6329  -21.7196   21.8951 N   0  3  0  0  0  0
  -31.4790  -12.4474   19.1153 H   0  0  0  0  0  0
  -30.3613  -11.3072   19.8067 H   0  0  0  0  0  0
  -29.7425  -11.7914   17.4266 H   0  0  0  0  0  0
  -29.6650  -13.5021   17.7687 H   0  0  0  0  0  0
  -27.8289  -11.3144   18.8012 H   0  0  0  0  0  0
  -27.3728  -12.6558   17.7856 H   0  0  0  0  0  0
  -27.7154  -14.2519   19.5938 H   0  0  0  0  0  0
  -28.6906  -11.9122   21.3037 H   0  0  0  0  0  0
  -28.4515  -13.5203   21.8940 H   0  0  0  0  0  0
  -25.2760   -9.5686   22.4741 H   0  0  0  0  0  0
  -23.9989   -7.4643   22.7482 H   0  0  0  0  0  0
  -21.0818   -8.8774   19.8954 H   0  0  0  0  0  0
  -22.3680  -10.9675   19.6157 H   0  0  0  0  0  0
  -21.2016   -7.6143   23.9700 H   0  0  0  0  0  0
  -21.1475   -6.0519   25.9066 H   0  0  0  0  0  0
  -22.0607   -2.7599   23.2841 H   0  0  0  0  0  0
  -22.4110  -11.9914   22.4776 H   0  0  0  0  0  0
  -21.1127  -13.1296   22.2579 H   0  0  0  0  0  0
  -24.6686  -15.8437   20.5032 H   0  0  0  0  0  0
  -26.2784  -15.6161   20.0458 H   0  0  0  0  0  0
  -26.7123  -32.5526   23.1159 H   0  0  0  0  0  0
  -25.0055  -33.9770   25.0472 H   0  0  0  0  0  0
  -22.6963  -31.3074   21.4079 H   0  0  0  0  0  0
  -23.3738  -35.9653   23.3307 H   0  0  0  0  0  0
  -24.3577  -36.8924   22.2053 H   0  0  0  0  0  0
  -23.7237  -37.6522   23.6647 H   0  0  0  0  0  0
  -26.0546  -31.5893   20.5990 H   0  0  0  0  0  0
  -26.8237  -30.8759   21.9879 H   0  0  0  0  0  0
  -28.0996  -29.0767   21.1733 H   0  0  0  0  0  0
  -26.0139  -25.9394   19.0569 H   0  0  0  0  0  0
  -23.9707  -27.2832   19.0548 H   0  0  0  0  0  0
  -23.7334  -30.6004   19.4055 H   0  0  0  0  0  0
  -22.7404  -29.2482   19.8597 H   0  0  0  0  0  0
  -25.1281  -36.1977   25.0830 H   0  0  0  0  0  0
  -20.9973  -28.3238   24.1422 H   0  0  0  0  0  0
  -20.5666  -26.2278   23.3600 H   0  0  0  0  0  0
  -21.6639  -26.7435   22.1206 H   0  0  0  0  0  0
  -19.6905  -25.6295   21.1226 H   0  0  0  0  0  0
  -19.6681  -27.3199   20.6745 H   0  0  0  0  0  0
  -17.4195  -26.6671   21.4031 H   0  0  0  0  0  0
  -18.0331  -26.0059   22.9016 H   0  0  0  0  0  0
  -19.7937  -30.7253   24.2292 H   0  0  0  0  0  0
  -17.5016  -31.6261   24.5167 H   0  0  0  0  0  0
  -15.5352  -30.2996   23.7630 H   0  0  0  0  0  0
  -15.8672  -28.0824   22.7050 H   0  0  0  0  0  0
  -24.5883  -30.7111   25.7821 H   0  0  0  0  0  0
  -24.8975  -32.2895   26.4963 H   0  0  0  0  0  0
  -25.8087  -30.8859   27.0223 H   0  0  0  0  0  0
  -26.2860  -29.6797   24.1181 H   0  0  0  0  0  0
  -27.4071  -29.7291   25.4595 H   0  0  0  0  0  0
  -27.8697  -30.4358   23.9290 H   0  0  0  0  0  0
  -27.2683  -33.3614   26.2089 H   0  0  0  0  0  0
  -28.3842  -32.6903   25.0287 H   0  0  0  0  0  0
  -28.0751  -31.8434   26.5367 H   0  0  0  0  0  0
  -28.2605  -38.0105   24.7507 H   0  0  0  0  0  0
  -28.1071  -36.2635   24.6284 H   0  0  0  0  0  0
  -27.2302  -37.1463   25.8868 H   0  0  0  0  0  0
  -20.9307  -29.8767   21.6937 H   0  0  0  0  0  0
  -26.0180  -38.2873   24.1408 H   0  0  0  0  0  0
  -31.1867  -19.6885   19.7843 H   0  0  0  0  0  0
  -27.5133  -19.1980   21.9954 H   0  0  0  0  0  0
  -31.6263  -17.2707   19.9794 H   0  0  0  0  0  0
  -27.9538  -16.8035   22.2148 H   0  0  0  0  0  0
  -29.4956  -22.8221   16.8787 H   0  0  0  0  0  0
  -28.2897  -21.6400   16.3835 H   0  0  0  0  0  0
  -26.7163  -22.3805   18.0678 H   0  0  0  0  0  0
  -27.3792  -23.8791   17.4697 H   0  0  0  0  0  0
  -30.3300  -21.0843   18.1929 H   0  0  0  0  0  0
  -28.7849  -20.2300   18.1913 H   0  0  0  0  0  0
  -27.4203  -23.2983   20.1068 H   0  0  0  0  0  0
  -30.1057  -24.1072   18.8924 H   0  0  0  0  0  0
  -29.6106  -24.4234   20.5140 H   0  0  0  0  0  0
  -27.9781  -25.7274   18.2698 H   0  0  0  0  0  0
  -29.5715  -26.2420   18.5426 H   0  0  0  0  0  0
  -29.1949  -14.9788   21.7766 H   0  0  0  0  0  0
  -28.7068  -21.2156   22.7660 H   0  0  0  0  0  0
  -28.4351  -22.7041   21.9239 H   0  0  0  0  0  0
  1 25  1  0  0  0
  1 30  2  0  0  0
  1 85  1  0  0  0
  2  3  1  0  0  0
  2 25  1  0  0  0
  2 87  1  0  0  0
  2 88  1  0  0  0
  3  4  1  0  0  0
  3 89  1  0  0  0
  3 90  1  0  0  0
  4  5  1  0  0  0
  4 91  1  0  0  0
  4 92  1  0  0  0
  5  6  1  0  0  0
  5 26  1  0  0  0
  5 93  1  0  0  0
  6 25  1  0  0  0
  6 94  1  0  0  0
  6 95  1  0  0  0
  7  8  2  0  0  0
  7 26  1  0  0  0
  7 29  1  0  0  0
  8  9  1  0  0  0
  8 22  1  0  0  0
  9 10  1  0  0  0
  9 27  2  0  0  0
 10 11  2  0  0  0
 10 15  1  0  0  0
 11 12  1  0  0  0
 11 96  1  0  0  0
 12 13  2  0  0  0
 12 97  1  0  0  0
 13 14  1  0  0  0
 13 31  1  0  0  0
 14 15  2  0  0  0
 14 98  1  0  0  0
 15 99  1  0  0  0
 16 17  2  0  0  0
 16 21  1  0  0  0
 16 31  1  0  0  0
 17 18  1  0  0  0
 17100  1  0  0  0
 18 19  2  0  0  0
 18101  1  0  0  0
 19 20  1  0  0  0
 19 24  1  0  0  0
 20 21  2  0  0  0
 20102  1  0  0  0
 21 23  1  0  0  0
 22 28  1  0  0  0
 22 32  2  0  0  0
 26 27  1  0  0  0
 28103  1  0  0  0
 28104  1  0  0  0
 29105  1  0  0  0
 29106  1  0  0  0
 33 34  1  0  0  0
 33 66  1  0  0  0
 33 70  2  0  0  0
 34 36  1  0  0  0
 34 59  1  0  0  0
 34107  1  0  0  0
 35 44  2  0  0  0
 35 45  1  0  0  0
 35 68  1  0  0  0
 36 56  1  0  0  0
 36108  1  0  0  0
 37 39  1  0  0  0
 37 47  1  0  0  0
 37 66  1  0  0  0
 37109  1  0  0  0
 38 43  2  0  0  0
 38 46  1  0  0  0
 38 47  1  0  0  0
 39 64  1  0  0  0
 39 67  2  0  0  0
 40 52  1  0  0  0
 40 53  2  0  0  0
 40 58  1  0  0  0
 41110  1  0  0  0
 41111  1  0  0  0
 41112  1  0  0  0
 41 48  1  0  0  0
 42 43  1  0  0  0
 42 66  1  0  0  0
 42113  1  0  0  0
 42114  1  0  0  0
 43 44  1  0  0  0
 44115  1  0  0  0
 45 46  2  0  0  0
 45116  1  0  0  0
 46117  1  0  0  0
 47118  1  0  0  0
 47119  1  0  0  0
 48 56  1  0  0  0
 48 65  1  0  0  0
 48120  1  0  0  0
 49 50  1  0  0  0
 49 53  1  0  0  0
 49 64  1  0  0  0
 49121  1  0  0  0
 50 51  1  0  0  0
 50122  1  0  0  0
 50123  1  0  0  0
 51 52  1  0  0  0
 51124  1  0  0  0
 51125  1  0  0  0
 52126  1  0  0  0
 52127  1  0  0  0
 53 54  1  0  0  0
 54 55  2  0  0  0
 54128  1  0  0  0
 55 57  1  0  0  0
 55129  1  0  0  0
 56 69  2  0  0  0
 57 58  2  0  0  0
 57130  1  0  0  0
 58131  1  0  0  0
 59 60  1  0  0  0
 59 61  1  0  0  0
 59 62  1  0  0  0
 60132  1  0  0  0
 60133  1  0  0  0
 60134  1  0  0  0
 61135  1  0  0  0
 61136  1  0  0  0
 61137  1  0  0  0
 62138  1  0  0  0
 62139  1  0  0  0
 62140  1  0  0  0
 63 65  1  0  0  0
 63141  1  0  0  0
 63142  1  0  0  0
 63143  1  0  0  0
 64144  1  0  0  0
 65145  1  0  0  0
 68 83  1  0  0  0
 71 73  2  0  0  0
 71 75  1  0  0  0
 71146  1  0  0  0
 72 74  1  0  0  0
 72 75  2  0  0  0
 72147  1  0  0  0
 73 76  1  0  0  0
 73148  1  0  0  0
 74 76  2  0  0  0
 74149  1  0  0  0
 75 77  1  0  0  0
 76 85  1  0  0  0
 77 84  1  0  0  0
 77 86  2  0  0  0
 78 79  1  0  0  0
 78 80  1  0  0  0
 78150  1  0  0  0
 78151  1  0  0  0
 79 81  1  0  0  0
 79152  1  0  0  0
 79153  1  0  0  0
 80 84  1  0  0  0
 80154  1  0  0  0
 80155  1  0  0  0
 81 82  1  0  0  0
 81 84  1  0  0  0
 81156  1  0  0  0
 82 83  1  0  0  0
 82157  1  0  0  0
 82158  1  0  0  0
 83159  1  0  0  0
 83160  1  0  0  0
 85161  1  0  0  0
 86162  1  0  0  0
 86163  1  0  0  0
M  CHG  1  86   1
M  ISO  4   1 100  68 101  83 101  85 100
M  END
> <chiral flag>
0

> <version>
0

> <s_m_source_file>
/data/baiqing/PycharmProjects/Reinvent-master-3.2/result/LINK_invent/BTK/process_docking_weight1_custom_product_contain_oxygen_bond_distance_aromatic_linkinvent_7_9_3/rearranged_h_0143.sdf

> <i_m_source_file_index>
92

> <r_mmod_Potential_Energy-OPLS-2005>
-68.4007263183594

> <r_mmod_Stretch_Energy-OPLS-2005>
47.2682151794434

> <r_mmod_Bend_Energy-OPLS-2005>
158.475509643555

> <r_mmod_Torsional_Energy-OPLS-2005>
305.419586181641

> <r_mmod_Improper_Torsional_Energy-OPLS-2005>
4.56943464279175

> <r_mmod_Van_der_Waal_Energy-OPLS-2005>
153.554473876953

> <r_mmod_Electrostatic_Energy-OPLS-2005>
-357.584625244141

> <r_mmod_Solvation_Energy-OPLS-2005>
-394.978393554688

> <b_mmod_Minimization_Converged-OPLS-2005>
0

> <r_mmod_RMS_Derivative-OPLS-2005>
1.33390295505524

$$$$
92
                    3D
 Structure written by MMmdl.
166175  0  0  1  0            999 V2000
  -30.6987  -14.6163   20.4387 C   0  0  0  0  0  0
  -30.4213  -12.3695   19.4422 C   0  0  0  0  0  0
  -29.5010  -12.4926   18.2126 C   0  0  0  0  0  0
  -28.0260  -12.3379   18.6256 C   0  0  0  0  0  0
  -27.6501  -13.2237   19.8462 C   0  0  2  0  0  0
  -28.7017  -13.1388   20.9755 C   0  0  0  0  0  0
  -25.2567  -13.8203   20.5647 C   0  0  0  0  0  0
  -24.1839  -13.0445   20.9200 C   0  0  0  0  0  0
  -24.6431  -11.6939   20.8758 C   0  0  0  0  0  0
  -23.9105  -10.4302   21.0409 C   0  0  0  0  0  0
  -24.3660   -9.4207   21.9169 C   0  0  0  0  0  0
  -23.6319   -8.2247   22.0732 C   0  0  0  0  0  0
  -22.4287   -8.0305   21.3549 C   0  0  0  0  0  0
  -21.9957   -9.0286   20.4628 C   0  0  0  0  0  0
  -22.7297  -10.2159   20.3028 C   0  0  0  0  0  0
  -21.6868   -6.0748   22.5291 C   0  0  0  0  0  0
  -21.4024   -6.5640   23.8223 C   0  0  0  0  0  0
  -21.3637   -5.6789   24.9193 C   0  0  0  0  0  0
  -21.6041   -4.3052   24.7251 C   0  0  0  0  0  0
  -21.8811   -3.8143   23.4363 C   0  0  0  0  0  0
  -21.9195   -4.6968   22.3417 C   0  0  0  0  0  0
  -22.7853  -13.5223   21.1866 C   0  0  0  0  0  0
  -22.1658   -4.2147   21.0998 F   0  0  0  0  0  0
  -21.5633   -3.4523   25.7754 F   0  0  0  0  0  0
  -30.0216  -13.4264   20.3929 N   0  0  0  0  0  0
  -26.3006  -12.9397   20.3283 N   0  0  0  0  0  0
  -25.9362  -11.6554   20.5770 N   0  0  0  0  0  0
  -22.0483  -12.8186   22.0400 N   0  0  0  0  0  0
  -25.4187  -15.1922   20.4011 N   0  0  0  0  0  0
  -31.8861  -14.6715   20.1169 O   0  0  0  0  0  0
  -21.6661   -6.8899   21.4247 O   0  0  0  0  0  0
  -22.3514  -14.5487   20.6672 O   0  0  0  0  0  0
  -24.6284  -31.8579   23.2004 C   0  0  0  0  0  0
  -25.9133  -32.4769   23.8320 C   0  0  1  0  0  0
  -27.2411  -27.3511   20.0709 C   0  0  0  0  0  0
  -25.5961  -33.8573   24.2276 N   0  0  0  0  0  0
  -23.4181  -30.4864   21.5420 C   0  0  2  0  0  0
  -24.8613  -28.9398   20.1091 C   0  0  0  0  0  0
  -22.7469  -29.4648   22.4918 C   0  0  0  0  0  0
  -18.0299  -28.1375   22.8492 C   0  0  0  0  0  0
  -24.1511  -36.7277   23.2642 C   0  0  0  0  0  0
  -25.9586  -30.7937   21.3682 C   0  0  0  0  0  0
  -26.0309  -29.4264   20.7040 C   0  0  0  0  0  0
  -27.2204  -28.6421   20.6766 C   0  0  0  0  0  0
  -26.0308  -26.8939   19.5000 C   0  0  0  0  0  0
  -24.8585  -27.6724   19.5082 C   0  0  0  0  0  0
  -23.6282  -29.8174   20.1587 C   0  0  0  0  0  0
  -25.4139  -36.3078   24.0335 C   0  0  1  0  0  0
  -20.5888  -28.3702   23.1277 C   0  0  2  0  0  0
  -20.6806  -26.9442   22.5401 C   0  0  0  0  0  0
  -19.5774  -26.6394   21.5224 C   0  0  0  0  0  0
  -18.1951  -26.7921   22.1625 C   0  0  0  0  0  0
  -19.1552  -28.8856   23.2879 C   0  0  0  0  0  0
  -18.9469  -30.1458   23.8904 C   0  0  0  0  0  0
  -17.6464  -30.6584   24.0572 C   0  0  0  0  0  0
  -25.9079  -34.9448   23.5108 C   0  0  0  0  0  0
  -16.5358  -29.9082   23.6326 C   0  0  0  0  0  0
  -16.7290  -28.6490   23.0362 C   0  0  0  0  0  0
  -26.4504  -31.6562   25.0688 C   0  0  0  0  0  0
  -25.3734  -31.3670   26.1415 C   0  0  0  0  0  0
  -27.0352  -30.2993   24.6129 C   0  0  0  0  0  0
  -27.6079  -32.4285   25.7438 C   0  0  0  0  0  0
  -27.5597  -37.1816   24.8481 C   0  0  0  0  0  0
  -21.4189  -29.3049   22.3656 N   0  0  0  0  0  0
  -26.4332  -37.3767   23.9400 N   0  0  0  0  0  0
  -24.6868  -31.0608   22.0945 N   0  0  0  0  0  0
  -23.4200  -28.8210   23.3020 O   0  0  0  0  0  0
  -28.4108  -26.5774   20.0760 O   0  0  0  0  0  0
  -26.5652  -34.8911   22.4670 O   0  0  0  0  0  0
  -23.5452  -32.1378   23.7374 O   0  0  0  0  0  0
  -31.2830  -19.2958   19.7154 C   0  0  0  0  0  0
  -30.0849  -19.5028   20.3554 C   0  0  0  0  0  0
  -29.4777  -18.2015   20.6770 C   0  0  0  0  0  0
  -30.2636  -17.0828   20.3929 C   0  0  0  0  0  0
  -28.2282  -21.2999   19.9806 C   0  0  0  0  0  0
  -30.5687  -22.0992   20.2963 C   0  0  0  0  0  0
  -28.1308  -22.7121   19.2887 C   0  0  0  0  0  0
  -30.0676  -23.5643   20.6100 C   0  0  0  0  0  0
  -29.5812  -20.9502   20.6961 C   0  0  2  0  0  0
  -28.6072  -23.9263   20.1512 C   0  0  2  0  0  0
  -28.1100  -17.9995   21.2723 C   0  0  0  0  0  0
  -29.4799  -21.0244   22.2394 C   0  0  0  0  0  0
  -27.6511  -24.0626   21.3541 C   0  0  0  0  0  0
  -28.5313  -25.3030   19.3418 C   0  0  0  0  0  0
  -29.9609  -15.7481   20.6475 N   0  0  0  0  0  0
  -31.7190  -17.6177   19.5776 S   0  0  0  0  0  0
  -31.4629  -12.4590   19.1271 H   0  0  0  0  0  0
  -30.3308  -11.3813   19.8986 H   0  0  0  0  0  0
  -29.7654  -11.7430   17.4660 H   0  0  0  0  0  0
  -29.6511  -13.4607   17.7320 H   0  0  0  0  0  0
  -27.8579  -11.2862   18.8574 H   0  0  0  0  0  0
  -27.3751  -12.5681   17.7808 H   0  0  0  0  0  0
  -27.6508  -14.2494   19.4826 H   0  0  0  0  0  0
  -28.6993  -12.1501   21.4375 H   0  0  0  0  0  0
  -28.4557  -13.8477   21.7675 H   0  0  0  0  0  0
  -25.2831   -9.5644   22.4732 H   0  0  0  0  0  0
  -24.0032   -7.4602   22.7409 H   0  0  0  0  0  0
  -21.0915   -8.8796   19.8902 H   0  0  0  0  0  0
  -22.3778  -10.9698   19.6104 H   0  0  0  0  0  0
  -21.1998   -7.6144   23.9731 H   0  0  0  0  0  0
  -21.1476   -6.0525   25.9100 H   0  0  0  0  0  0
  -22.0602   -2.7601   23.2885 H   0  0  0  0  0  0
  -22.4200  -11.9974   22.4933 H   0  0  0  0  0  0
  -21.1021  -13.1068   22.2443 H   0  0  0  0  0  0
  -24.6372  -15.8343   20.4886 H   0  0  0  0  0  0
  -26.2564  -15.6398   20.0498 H   0  0  0  0  0  0
  -26.7205  -32.5417   23.1057 H   0  0  0  0  0  0
  -25.0165  -33.9725   25.0464 H   0  0  0  0  0  0
  -22.7165  -31.3106   21.3988 H   0  0  0  0  0  0
  -23.3786  -35.9591   23.3313 H   0  0  0  0  0  0
  -24.3623  -36.8892   22.2062 H   0  0  0  0  0  0
  -23.7262  -37.6492   23.6633 H   0  0  0  0  0  0
  -26.1038  -31.5617   20.6051 H   0  0  0  0  0  0
  -26.8340  -30.8276   22.0039 H   0  0  0  0  0  0
  -28.1236  -29.0242   21.1311 H   0  0  0  0  0  0
  -25.9414  -25.9146   19.0612 H   0  0  0  0  0  0
  -23.9548  -27.2816   19.0602 H   0  0  0  0  0  0
  -23.7457  -30.5871   19.3958 H   0  0  0  0  0  0
  -22.7474  -29.2434   19.8644 H   0  0  0  0  0  0
  -25.1320  -36.1945   25.0833 H   0  0  0  0  0  0
  -21.0000  -28.3273   24.1386 H   0  0  0  0  0  0
  -20.5762  -26.2310   23.3600 H   0  0  0  0  0  0
  -21.6672  -26.7515   22.1165 H   0  0  0  0  0  0
  -19.6955  -25.6314   21.1253 H   0  0  0  0  0  0
  -19.6702  -27.3205   20.6754 H   0  0  0  0  0  0
  -17.4243  -26.6716   21.4004 H   0  0  0  0  0  0
  -18.0322  -26.0050   22.8998 H   0  0  0  0  0  0
  -19.7951  -30.7273   24.2281 H   0  0  0  0  0  0
  -17.5029  -31.6275   24.5170 H   0  0  0  0  0  0
  -15.5369  -30.2987   23.7646 H   0  0  0  0  0  0
  -15.8687  -28.0816   22.7054 H   0  0  0  0  0  0
  -24.5935  -30.7002   25.7716 H   0  0  0  0  0  0
  -24.8898  -32.2823   26.4839 H   0  0  0  0  0  0
  -25.8074  -30.8843   27.0191 H   0  0  0  0  0  0
  -26.2903  -29.6736   24.1214 H   0  0  0  0  0  0
  -27.4152  -29.7264   25.4610 H   0  0  0  0  0  0
  -27.8700  -30.4316   23.9245 H   0  0  0  0  0  0
  -27.2718  -33.3611   26.1979 H   0  0  0  0  0  0
  -28.3865  -32.6827   25.0225 H   0  0  0  0  0  0
  -28.0740  -31.8426   26.5387 H   0  0  0  0  0  0
  -28.2642  -38.0094   24.7535 H   0  0  0  0  0  0
  -28.1085  -36.2653   24.6297 H   0  0  0  0  0  0
  -27.2324  -37.1438   25.8890 H   0  0  0  0  0  0
  -20.9369  -29.8770   21.6853 H   0  0  0  0  0  0
  -26.0222  -38.2852   24.1360 H   0  0  0  0  0  0
  -31.9777  -20.0317   19.3328 H   0  0  0  0  0  0
  -28.0471  -20.5582   19.2008 H   0  0  0  0  0  0
  -27.4014  -21.1674   20.6766 H   0  0  0  0  0  0
  -31.5369  -21.9441   20.7765 H   0  0  0  0  0  0
  -30.7776  -22.0374   19.2278 H   0  0  0  0  0  0
  -27.1089  -22.8826   18.9478 H   0  0  0  0  0  0
  -28.7260  -22.6753   18.3746 H   0  0  0  0  0  0
  -30.7786  -24.2487   20.1477 H   0  0  0  0  0  0
  -30.1712  -23.7726   21.6766 H   0  0  0  0  0  0
  -27.4898  -17.4229   20.5857 H   0  0  0  0  0  0
  -27.5756  -18.9249   21.4663 H   0  0  0  0  0  0
  -28.1650  -17.4370   22.2071 H   0  0  0  0  0  0
  -28.7630  -20.3215   22.6560 H   0  0  0  0  0  0
  -29.2025  -22.0098   22.6039 H   0  0  0  0  0  0
  -30.4448  -20.8002   22.6975 H   0  0  0  0  0  0
  -27.4951  -23.1256   21.8840 H   0  0  0  0  0  0
  -26.6667  -24.4033   21.0363 H   0  0  0  0  0  0
  -28.0230  -24.7925   22.0727 H   0  0  0  0  0  0
  -27.7783  -25.2151   18.5636 H   0  0  0  0  0  0
  -29.4430  -25.3953   18.7486 H   0  0  0  0  0  0
  -29.0137  -15.5708   20.9444 H   0  0  0  0  0  0
  1 25  1  0  0  0
  1 30  2  0  0  0
  1 85  1  0  0  0
  2  3  1  0  0  0
  2 25  1  0  0  0
  2 87  1  0  0  0
  2 88  1  0  0  0
  3  4  1  0  0  0
  3 89  1  0  0  0
  3 90  1  0  0  0
  4  5  1  0  0  0
  4 91  1  0  0  0
  4 92  1  0  0  0
  5  6  1  0  0  0
  5 26  1  0  0  0
  5 93  1  0  0  0
  6 25  1  0  0  0
  6 94  1  0  0  0
  6 95  1  0  0  0
  7  8  2  0  0  0
  7 26  1  0  0  0
  7 29  1  0  0  0
  8  9  1  0  0  0
  8 22  1  0  0  0
  9 10  1  0  0  0
  9 27  2  0  0  0
 10 11  2  0  0  0
 10 15  1  0  0  0
 11 12  1  0  0  0
 11 96  1  0  0  0
 12 13  2  0  0  0
 12 97  1  0  0  0
 13 14  1  0  0  0
 13 31  1  0  0  0
 14 15  2  0  0  0
 14 98  1  0  0  0
 15 99  1  0  0  0
 16 17  2  0  0  0
 16 21  1  0  0  0
 16 31  1  0  0  0
 17 18  1  0  0  0
 17100  1  0  0  0
 18 19  2  0  0  0
 18101  1  0  0  0
 19 20  1  0  0  0
 19 24  1  0  0  0
 20 21  2  0  0  0
 20102  1  0  0  0
 21 23  1  0  0  0
 22 28  1  0  0  0
 22 32  2  0  0  0
 26 27  1  0  0  0
 28103  1  0  0  0
 28104  1  0  0  0
 29105  1  0  0  0
 29106  1  0  0  0
 33 34  1  0  0  0
 33 66  1  0  0  0
 33 70  2  0  0  0
 34 36  1  0  0  0
 34 59  1  0  0  0
 34107  1  0  0  0
 35 44  2  0  0  0
 35 45  1  0  0  0
 35 68  1  0  0  0
 36 56  1  0  0  0
 36108  1  0  0  0
 37 39  1  0  0  0
 37 47  1  0  0  0
 37 66  1  0  0  0
 37109  1  0  0  0
 38 43  2  0  0  0
 38 46  1  0  0  0
 38 47  1  0  0  0
 39 64  1  0  0  0
 39 67  2  0  0  0
 40 52  1  0  0  0
 40 53  2  0  0  0
 40 58  1  0  0  0
 41110  1  0  0  0
 41111  1  0  0  0
 41112  1  0  0  0
 41 48  1  0  0  0
 42 43  1  0  0  0
 42 66  1  0  0  0
 42113  1  0  0  0
 42114  1  0  0  0
 43 44  1  0  0  0
 44115  1  0  0  0
 45 46  2  0  0  0
 45116  1  0  0  0
 46117  1  0  0  0
 47118  1  0  0  0
 47119  1  0  0  0
 48 56  1  0  0  0
 48 65  1  0  0  0
 48120  1  0  0  0
 49 50  1  0  0  0
 49 53  1  0  0  0
 49 64  1  0  0  0
 49121  1  0  0  0
 50 51  1  0  0  0
 50122  1  0  0  0
 50123  1  0  0  0
 51 52  1  0  0  0
 51124  1  0  0  0
 51125  1  0  0  0
 52126  1  0  0  0
 52127  1  0  0  0
 53 54  1  0  0  0
 54 55  2  0  0  0
 54128  1  0  0  0
 55 57  1  0  0  0
 55129  1  0  0  0
 56 69  2  0  0  0
 57 58  2  0  0  0
 57130  1  0  0  0
 58131  1  0  0  0
 59 60  1  0  0  0
 59 61  1  0  0  0
 59 62  1  0  0  0
 60132  1  0  0  0
 60133  1  0  0  0
 60134  1  0  0  0
 61135  1  0  0  0
 61136  1  0  0  0
 61137  1  0  0  0
 62138  1  0  0  0
 62139  1  0  0  0
 62140  1  0  0  0
 63 65  1  0  0  0
 63141  1  0  0  0
 63142  1  0  0  0
 63143  1  0  0  0
 64144  1  0  0  0
 65145  1  0  0  0
 68 84  1  0  0  0
 71 72  2  0  0  0
 71 86  1  0  0  0
 71146  1  0  0  0
 72 73  1  0  0  0
 72 79  1  0  0  0
 73 74  2  0  0  0
 73 81  1  0  0  0
 74 85  1  0  0  0
 74 86  1  0  0  0
 75 77  1  0  0  0
 75 79  1  0  0  0
 75147  1  0  0  0
 75148  1  0  0  0
 76 78  1  0  0  0
 76 79  1  0  0  0
 76149  1  0  0  0
 76150  1  0  0  0
 77 80  1  0  0  0
 77151  1  0  0  0
 77152  1  0  0  0
 78 80  1  0  0  0
 78153  1  0  0  0
 78154  1  0  0  0
 79 82  1  0  0  0
 80 83  1  0  0  0
 80 84  1  0  0  0
 81155  1  0  0  0
 81156  1  0  0  0
 81157  1  0  0  0
 82158  1  0  0  0
 82159  1  0  0  0
 82160  1  0  0  0
 83161  1  0  0  0
 83162  1  0  0  0
 83163  1  0  0  0
 84164  1  0  0  0
 84165  1  0  0  0
 85166  1  0  0  0
M  ISO  4   1 100  68 101  84 101  85 100
M  END
> <chiral flag>
0

> <version>
0

> <s_m_source_file>
/data/baiqing/PycharmProjects/Reinvent-master-3.2/result/LINK_invent/BTK/process_docking_weight1_custom_product_contain_oxygen_bond_distance_aromatic_linkinvent_7_9_3/rearranged_h_0143.sdf

> <i_m_source_file_index>
93

> <r_mmod_Potential_Energy-OPLS-2005>
64.1121444702148

> <r_mmod_Stretch_Energy-OPLS-2005>
79.8092956542969

> <r_mmod_Bend_Energy-OPLS-2005>
160.061996459961

> <r_mmod_Torsional_Energy-OPLS-2005>
267.841522216797

> <r_mmod_Improper_Torsional_Energy-OPLS-2005>
4.91317653656006

> <r_mmod_Van_der_Waal_Energy-OPLS-2005>
148.033462524414

> <r_mmod_Electrostatic_Energy-OPLS-2005>
-437.069702148438

> <r_mmod_Solvation_Energy-OPLS-2005>
-200.79573059082

> <b_mmod_Minimization_Converged-OPLS-2005>
0

> <r_mmod_RMS_Derivative-OPLS-2005>
4.57141542434692

$$$$
93
                    3D
 Structure written by MMmdl.
166175  0  0  1  0            999 V2000
  -30.6624  -14.5211   20.5562 C   0  0  0  0  0  0
  -30.4354  -12.3320   19.4304 C   0  0  0  0  0  0
  -29.5036  -12.5123   18.2123 C   0  0  0  0  0  0
  -28.0224  -12.3674   18.6209 C   0  0  0  0  0  0
  -27.6614  -13.2076   19.8756 C   0  0  2  0  0  0
  -28.7037  -12.9896   20.9966 C   0  0  0  0  0  0
  -25.2571  -13.8153   20.5665 C   0  0  0  0  0  0
  -24.1827  -13.0433   20.9184 C   0  0  0  0  0  0
  -24.6383  -11.6899   20.8732 C   0  0  0  0  0  0
  -23.9039  -10.4285   21.0405 C   0  0  0  0  0  0
  -24.3595   -9.4204   21.9185 C   0  0  0  0  0  0
  -23.6284   -8.2231   22.0753 C   0  0  0  0  0  0
  -22.4270   -8.0268   21.3543 C   0  0  0  0  0  0
  -21.9894   -9.0233   20.4643 C   0  0  0  0  0  0
  -22.7212  -10.2118   20.3056 C   0  0  0  0  0  0
  -21.6840   -6.0727   22.5279 C   0  0  0  0  0  0
  -21.4008   -6.5628   23.8215 C   0  0  0  0  0  0
  -21.3666   -5.6784   24.9178 C   0  0  0  0  0  0
  -21.6049   -4.3044   24.7223 C   0  0  0  0  0  0
  -21.8821   -3.8139   23.4346 C   0  0  0  0  0  0
  -21.9192   -4.6958   22.3403 C   0  0  0  0  0  0
  -22.7847  -13.5228   21.1854 C   0  0  0  0  0  0
  -22.1661   -4.2142   21.0977 F   0  0  0  0  0  0
  -21.5638   -3.4532   25.7739 F   0  0  0  0  0  0
  -30.0329  -13.3152   20.4493 N   0  0  0  0  0  0
  -26.3010  -12.9331   20.3353 N   0  0  0  0  0  0
  -25.9311  -11.6486   20.5749 N   0  0  0  0  0  0
  -22.0466  -12.8234   22.0409 N   0  0  0  0  0  0
  -25.4266  -15.1869   20.4034 N   0  0  0  0  0  0
  -31.7975  -14.7159   20.1101 O   0  0  0  0  0  0
  -21.6632   -6.8871   21.4240 O   0  0  0  0  0  0
  -22.3537  -14.5533   20.6694 O   0  0  0  0  0  0
  -24.6195  -31.8647   23.2068 C   0  0  0  0  0  0
  -25.9074  -32.4804   23.8369 C   0  0  1  0  0  0
  -27.2353  -27.4026   20.0816 C   0  0  0  0  0  0
  -25.5913  -33.8603   24.2300 N   0  0  0  0  0  0
  -23.4081  -30.4890   21.5484 C   0  0  2  0  0  0
  -24.8536  -28.9534   20.1101 C   0  0  0  0  0  0
  -22.7429  -29.4648   22.4971 C   0  0  0  0  0  0
  -18.0278  -28.1376   22.8498 C   0  0  0  0  0  0
  -24.1485  -36.7311   23.2636 C   0  0  0  0  0  0
  -25.9411  -30.8202   21.3642 C   0  0  0  0  0  0
  -26.0176  -29.4537   20.7069 C   0  0  0  0  0  0
  -27.2083  -28.6825   20.6952 C   0  0  0  0  0  0
  -26.0405  -26.9165   19.5129 C   0  0  0  0  0  0
  -24.8610  -27.6829   19.5121 C   0  0  0  0  0  0
  -23.6167  -29.8225   20.1627 C   0  0  0  0  0  0
  -25.4106  -36.3103   24.0335 C   0  0  1  0  0  0
  -20.5871  -28.3674   23.1316 C   0  0  2  0  0  0
  -20.6772  -26.9409   22.5419 C   0  0  0  0  0  0
  -19.5751  -26.6386   21.5218 C   0  0  0  0  0  0
  -18.1929  -26.7924   22.1625 C   0  0  0  0  0  0
  -19.1525  -28.8841   23.2903 C   0  0  0  0  0  0
  -18.9452  -30.1447   23.8912 C   0  0  0  0  0  0
  -17.6452  -30.6586   24.0567 C   0  0  0  0  0  0
  -25.9040  -34.9469   23.5113 C   0  0  0  0  0  0
  -16.5345  -29.9087   23.6327 C   0  0  0  0  0  0
  -16.7266  -28.6501   23.0356 C   0  0  0  0  0  0
  -26.4482  -31.6596   25.0711 C   0  0  0  0  0  0
  -25.3735  -31.3713   26.1451 C   0  0  0  0  0  0
  -27.0309  -30.3032   24.6109 C   0  0  0  0  0  0
  -27.6042  -32.4320   25.7490 C   0  0  0  0  0  0
  -27.5580  -37.1813   24.8461 C   0  0  0  0  0  0
  -21.4151  -29.3035   22.3713 N   0  0  0  0  0  0
  -26.4291  -37.3798   23.9410 N   0  0  0  0  0  0
  -24.6748  -31.0721   22.0982 N   0  0  0  0  0  0
  -23.4183  -28.8191   23.3028 O   0  0  0  0  0  0
  -28.3830  -26.6249   20.1226 O   0  0  0  0  0  0
  -26.5599  -34.8931   22.4671 O   0  0  0  0  0  0
  -23.5382  -32.1405   23.7453 O   0  0  0  0  0  0
  -28.7235  -19.0534   20.5709 C   0  0  0  0  0  0
  -28.7429  -17.6552   20.7850 C   0  0  0  0  0  0
  -31.1603  -17.6721   20.7314 C   0  0  0  0  0  0
  -31.1494  -19.0797   20.5289 C   0  0  0  0  0  0
  -29.9207  -19.7958   20.4336 C   0  0  0  0  0  0
  -29.9571  -16.9354   20.8466 C   0  0  0  0  0  0
  -29.0609  -23.3561   19.5163 C   0  0  0  0  0  0
  -28.4140  -24.3685   18.8641 C   0  0  0  0  0  0
  -30.1007  -23.5326   20.6034 C   0  0  0  0  0  0
  -30.2764  -22.1352   21.2268 C   0  0  0  0  0  0
  -28.9123  -21.8349   19.2952 C   0  0  1  0  0  0
  -32.4877  -19.7890   20.3893 C   0  0  0  0  0  0
  -27.4295  -24.0655   17.7400 C   0  0  0  0  0  0
  -29.1635  -21.3644   17.8478 C   0  0  0  0  0  0
  -28.7949  -25.8698   18.9596 C   0  0  0  0  0  0
  -29.8907  -21.1962   20.1827 N   0  0  0  0  0  0
  -29.8934  -15.5139   21.0635 N   0  0  0  0  0  0
  -31.4781  -12.4500   19.1306 H   0  0  0  0  0  0
  -30.3541  -11.3200   19.8295 H   0  0  0  0  0  0
  -29.7522  -11.7841   17.4387 H   0  0  0  0  0  0
  -29.6671  -13.4962   17.7690 H   0  0  0  0  0  0
  -27.8362  -11.3113   18.8187 H   0  0  0  0  0  0
  -27.3743  -12.6392   17.7867 H   0  0  0  0  0  0
  -27.7037  -14.2557   19.5783 H   0  0  0  0  0  0
  -28.6885  -11.9503   21.3280 H   0  0  0  0  0  0
  -28.4593  -13.5766   21.8833 H   0  0  0  0  0  0
  -25.2740   -9.5689   22.4757 H   0  0  0  0  0  0
  -24.0001   -7.4623   22.7461 H   0  0  0  0  0  0
  -21.0825   -8.8732   19.8947 H   0  0  0  0  0  0
  -22.3657  -10.9650   19.6158 H   0  0  0  0  0  0
  -21.1988   -7.6136   23.9716 H   0  0  0  0  0  0
  -21.1496   -6.0511   25.9084 H   0  0  0  0  0  0
  -22.0599   -2.7598   23.2834 H   0  0  0  0  0  0
  -22.4043  -11.9899   22.4835 H   0  0  0  0  0  0
  -21.1079  -13.1279   22.2581 H   0  0  0  0  0  0
  -24.6516  -15.8348   20.4951 H   0  0  0  0  0  0
  -26.2582  -15.6167   20.0210 H   0  0  0  0  0  0
  -26.7146  -32.5504   23.1129 H   0  0  0  0  0  0
  -25.0070  -33.9747   25.0452 H   0  0  0  0  0  0
  -22.6994  -31.3079   21.4097 H   0  0  0  0  0  0
  -23.3746  -35.9645   23.3299 H   0  0  0  0  0  0
  -24.3585  -36.8921   22.2051 H   0  0  0  0  0  0
  -23.7239  -37.6518   23.6647 H   0  0  0  0  0  0
  -26.0576  -31.5865   20.5967 H   0  0  0  0  0  0
  -26.8281  -30.8709   21.9841 H   0  0  0  0  0  0
  -28.1044  -29.0633   21.1654 H   0  0  0  0  0  0
  -25.9872  -25.9178   19.1226 H   0  0  0  0  0  0
  -23.9591  -27.2772   19.0739 H   0  0  0  0  0  0
  -23.7241  -30.5974   19.4028 H   0  0  0  0  0  0
  -22.7397  -29.2429   19.8684 H   0  0  0  0  0  0
  -25.1286  -36.1960   25.0831 H   0  0  0  0  0  0
  -20.9963  -28.3240   24.1438 H   0  0  0  0  0  0
  -20.5692  -26.2277   23.3604 H   0  0  0  0  0  0
  -21.6643  -26.7468   22.1201 H   0  0  0  0  0  0
  -19.6914  -25.6302   21.1239 H   0  0  0  0  0  0
  -19.6692  -27.3202   20.6754 H   0  0  0  0  0  0
  -17.4206  -26.6688   21.4018 H   0  0  0  0  0  0
  -18.0323  -26.0057   22.9011 H   0  0  0  0  0  0
  -19.7931  -30.7261   24.2285 H   0  0  0  0  0  0
  -17.5013  -31.6271   24.5159 H   0  0  0  0  0  0
  -15.5345  -30.2995   23.7644 H   0  0  0  0  0  0
  -15.8665  -28.0823   22.7065 H   0  0  0  0  0  0
  -24.5912  -30.7057   25.7789 H   0  0  0  0  0  0
  -24.8924  -32.2874   26.4892 H   0  0  0  0  0  0
  -25.8082  -30.8889   27.0213 H   0  0  0  0  0  0
  -26.2859  -29.6802   24.1148 H   0  0  0  0  0  0
  -27.4046  -29.7268   25.4582 H   0  0  0  0  0  0
  -27.8711  -30.4334   23.9282 H   0  0  0  0  0  0
  -27.2645  -33.3616   26.2072 H   0  0  0  0  0  0
  -28.3862  -32.6886   25.0330 H   0  0  0  0  0  0
  -28.0695  -31.8439   26.5409 H   0  0  0  0  0  0
  -28.2597  -38.0114   24.7524 H   0  0  0  0  0  0
  -28.1076  -36.2648   24.6263 H   0  0  0  0  0  0
  -27.2305  -37.1439   25.8867 H   0  0  0  0  0  0
  -20.9308  -29.8745   21.6929 H   0  0  0  0  0  0
  -26.0172  -38.2873   24.1409 H   0  0  0  0  0  0
  -27.7655  -19.5489   20.5195 H   0  0  0  0  0  0
  -27.7996  -17.1384   20.8892 H   0  0  0  0  0  0
  -32.1104  -17.1608   20.7983 H   0  0  0  0  0  0
  -29.8117  -24.2853   21.3382 H   0  0  0  0  0  0
  -31.0340  -23.8515   20.1375 H   0  0  0  0  0  0
  -29.6086  -22.0112   22.0809 H   0  0  0  0  0  0
  -31.2969  -21.9809   21.5761 H   0  0  0  0  0  0
  -27.9040  -21.5537   19.6011 H   0  0  0  0  0  0
  -33.2737  -19.0958   20.0900 H   0  0  0  0  0  0
  -32.7787  -20.2318   21.3411 H   0  0  0  0  0  0
  -32.4445  -20.5786   19.6393 H   0  0  0  0  0  0
  -26.8389  -23.1742   17.9541 H   0  0  0  0  0  0
  -27.9763  -23.9116   16.8095 H   0  0  0  0  0  0
  -26.7325  -24.8747   17.5420 H   0  0  0  0  0  0
  -30.1311  -21.7070   17.4796 H   0  0  0  0  0  0
  -28.4031  -21.7067   17.1511 H   0  0  0  0  0  0
  -29.1544  -20.2763   17.7786 H   0  0  0  0  0  0
  -28.4835  -26.3897   18.0521 H   0  0  0  0  0  0
  -29.8837  -25.9172   18.9386 H   0  0  0  0  0  0
  -29.0056  -15.1769   21.4028 H   0  0  0  0  0  0
  1 25  1  0  0  0
  1 30  2  0  0  0
  1 87  1  0  0  0
  2  3  1  0  0  0
  2 25  1  0  0  0
  2 88  1  0  0  0
  2 89  1  0  0  0
  3  4  1  0  0  0
  3 90  1  0  0  0
  3 91  1  0  0  0
  4  5  1  0  0  0
  4 92  1  0  0  0
  4 93  1  0  0  0
  5  6  1  0  0  0
  5 26  1  0  0  0
  5 94  1  0  0  0
  6 25  1  0  0  0
  6 95  1  0  0  0
  6 96  1  0  0  0
  7  8  2  0  0  0
  7 26  1  0  0  0
  7 29  1  0  0  0
  8  9  1  0  0  0
  8 22  1  0  0  0
  9 10  1  0  0  0
  9 27  2  0  0  0
 10 11  2  0  0  0
 10 15  1  0  0  0
 11 12  1  0  0  0
 11 97  1  0  0  0
 12 13  2  0  0  0
 12 98  1  0  0  0
 13 14  1  0  0  0
 13 31  1  0  0  0
 14 15  2  0  0  0
 14 99  1  0  0  0
 15100  1  0  0  0
 16 17  2  0  0  0
 16 21  1  0  0  0
 16 31  1  0  0  0
 17 18  1  0  0  0
 17101  1  0  0  0
 18 19  2  0  0  0
 18102  1  0  0  0
 19 20  1  0  0  0
 19 24  1  0  0  0
 20 21  2  0  0  0
 20103  1  0  0  0
 21 23  1  0  0  0
 22 28  1  0  0  0
 22 32  2  0  0  0
 26 27  1  0  0  0
 28104  1  0  0  0
 28105  1  0  0  0
 29106  1  0  0  0
 29107  1  0  0  0
 33 34  1  0  0  0
 33 66  1  0  0  0
 33 70  2  0  0  0
 34 36  1  0  0  0
 34 59  1  0  0  0
 34108  1  0  0  0
 35 44  2  0  0  0
 35 45  1  0  0  0
 35 68  1  0  0  0
 36 56  1  0  0  0
 36109  1  0  0  0
 37 39  1  0  0  0
 37 47  1  0  0  0
 37 66  1  0  0  0
 37110  1  0  0  0
 38 43  2  0  0  0
 38 46  1  0  0  0
 38 47  1  0  0  0
 39 64  1  0  0  0
 39 67  2  0  0  0
 40 52  1  0  0  0
 40 53  2  0  0  0
 40 58  1  0  0  0
 41111  1  0  0  0
 41112  1  0  0  0
 41113  1  0  0  0
 41 48  1  0  0  0
 42 43  1  0  0  0
 42 66  1  0  0  0
 42114  1  0  0  0
 42115  1  0  0  0
 43 44  1  0  0  0
 44116  1  0  0  0
 45 46  2  0  0  0
 45117  1  0  0  0
 46118  1  0  0  0
 47119  1  0  0  0
 47120  1  0  0  0
 48 56  1  0  0  0
 48 65  1  0  0  0
 48121  1  0  0  0
 49 50  1  0  0  0
 49 53  1  0  0  0
 49 64  1  0  0  0
 49122  1  0  0  0
 50 51  1  0  0  0
 50123  1  0  0  0
 50124  1  0  0  0
 51 52  1  0  0  0
 51125  1  0  0  0
 51126  1  0  0  0
 52127  1  0  0  0
 52128  1  0  0  0
 53 54  1  0  0  0
 54 55  2  0  0  0
 54129  1  0  0  0
 55 57  1  0  0  0
 55130  1  0  0  0
 56 69  2  0  0  0
 57 58  2  0  0  0
 57131  1  0  0  0
 58132  1  0  0  0
 59 60  1  0  0  0
 59 61  1  0  0  0
 59 62  1  0  0  0
 60133  1  0  0  0
 60134  1  0  0  0
 60135  1  0  0  0
 61136  1  0  0  0
 61137  1  0  0  0
 61138  1  0  0  0
 62139  1  0  0  0
 62140  1  0  0  0
 62141  1  0  0  0
 63 65  1  0  0  0
 63142  1  0  0  0
 63143  1  0  0  0
 63144  1  0  0  0
 64145  1  0  0  0
 65146  1  0  0  0
 68 85  1  0  0  0
 71 72  2  0  0  0
 71 75  1  0  0  0
 71147  1  0  0  0
 72 76  1  0  0  0
 72148  1  0  0  0
 73 74  1  0  0  0
 73 76  2  0  0  0
 73149  1  0  0  0
 74 75  2  0  0  0
 74 82  1  0  0  0
 75 86  1  0  0  0
 76 87  1  0  0  0
 77 78  2  0  0  0
 77 79  1  0  0  0
 77 81  1  0  0  0
 78 83  1  0  0  0
 78 85  1  0  0  0
 79 80  1  0  0  0
 79150  1  0  0  0
 79151  1  0  0  0
 80 86  1  0  0  0
 80152  1  0  0  0
 80153  1  0  0  0
 81 84  1  0  0  0
 81 86  1  0  0  0
 81154  1  0  0  0
 82155  1  0  0  0
 82156  1  0  0  0
 82157  1  0  0  0
 83158  1  0  0  0
 83159  1  0  0  0
 83160  1  0  0  0
 84161  1  0  0  0
 84162  1  0  0  0
 84163  1  0  0  0
 85164  1  0  0  0
 85165  1  0  0  0
 87166  1  0  0  0
M  ISO  4   1 100  68 101  85 101  87 100
M  END
> <chiral flag>
0

> <version>
0

> <s_m_source_file>
/data/baiqing/PycharmProjects/Reinvent-master-3.2/result/LINK_invent/BTK/process_docking_weight1_custom_product_contain_oxygen_bond_distance_aromatic_linkinvent_7_9_3/rearranged_h_0143.sdf

> <i_m_source_file_index>
94

> <r_mmod_Potential_Energy-OPLS-2005>
27.7072238922119

> <r_mmod_Stretch_Energy-OPLS-2005>
49.1270446777344

> <r_mmod_Bend_Energy-OPLS-2005>
158.345184326172

> <r_mmod_Torsional_Energy-OPLS-2005>
273.410705566406

> <r_mmod_Improper_Torsional_Energy-OPLS-2005>
7.66888093948364

> <r_mmod_Van_der_Waal_Energy-OPLS-2005>
147.435287475586

> <r_mmod_Electrostatic_Energy-OPLS-2005>
-422.387115478516

> <r_mmod_Solvation_Energy-OPLS-2005>
-205.152740478516

> <b_mmod_Minimization_Converged-OPLS-2005>
0

> <r_mmod_RMS_Derivative-OPLS-2005>
1.32772219181061

$$$$
94
                    3D
 Structure written by MMmdl.
172181  0  0  1  0            999 V2000
  -30.7854  -14.4086   20.5478 C   0  0  0  0  0  0
  -30.4007  -12.2650   19.4322 C   0  0  0  0  0  0
  -29.4890  -12.4761   18.2111 C   0  0  0  0  0  0
  -28.0134  -12.3487   18.6273 C   0  0  0  0  0  0
  -27.6609  -13.2110   19.8706 C   0  0  2  0  0  0
  -28.7064  -13.0304   20.9966 C   0  0  0  0  0  0
  -25.2602  -13.8166   20.5634 C   0  0  0  0  0  0
  -24.1835  -13.0433   20.9149 C   0  0  0  0  0  0
  -24.6392  -11.6908   20.8726 C   0  0  0  0  0  0
  -23.9054  -10.4283   21.0377 C   0  0  0  0  0  0
  -24.3591   -9.4210   21.9157 C   0  0  0  0  0  0
  -23.6282   -8.2244   22.0738 C   0  0  0  0  0  0
  -22.4259   -8.0279   21.3548 C   0  0  0  0  0  0
  -21.9893   -9.0244   20.4630 C   0  0  0  0  0  0
  -22.7211  -10.2133   20.3040 C   0  0  0  0  0  0
  -21.6853   -6.0709   22.5262 C   0  0  0  0  0  0
  -21.4023   -6.5625   23.8188 C   0  0  0  0  0  0
  -21.3664   -5.6778   24.9154 C   0  0  0  0  0  0
  -21.6053   -4.3038   24.7201 C   0  0  0  0  0  0
  -21.8823   -3.8123   23.4328 C   0  0  0  0  0  0
  -21.9200   -4.6942   22.3385 C   0  0  0  0  0  0
  -22.7867  -13.5264   21.1805 C   0  0  0  0  0  0
  -22.1652   -4.2128   21.0964 F   0  0  0  0  0  0
  -21.5642   -3.4542   25.7726 F   0  0  0  0  0  0
  -30.0421  -13.2803   20.4319 N   0  0  0  0  0  0
  -26.3038  -12.9340   20.3356 N   0  0  0  0  0  0
  -25.9323  -11.6500   20.5766 N   0  0  0  0  0  0
  -22.0512  -12.8239   22.0369 N   0  0  0  0  0  0
  -25.4345  -15.1845   20.4054 N   0  0  0  0  0  0
  -31.9395  -14.4706   20.1259 O   0  0  0  0  0  0
  -21.6645   -6.8856   21.4222 O   0  0  0  0  0  0
  -22.3546  -14.5565   20.6668 O   0  0  0  0  0  0
  -24.6138  -31.8714   23.2097 C   0  0  0  0  0  0
  -25.9043  -32.4846   23.8411 C   0  0  1  0  0  0
  -27.2323  -27.4772   20.0911 C   0  0  0  0  0  0
  -25.5922  -33.8637   24.2383 N   0  0  0  0  0  0
  -23.3975  -30.4953   21.5513 C   0  0  2  0  0  0
  -24.8369  -28.9647   20.1170 C   0  0  0  0  0  0
  -22.7415  -29.4674   22.5016 C   0  0  0  0  0  0
  -18.0257  -28.1380   22.8470 C   0  0  0  0  0  0
  -24.1472  -36.7285   23.2632 C   0  0  0  0  0  0
  -25.9196  -30.8594   21.3506 C   0  0  0  0  0  0
  -25.9943  -29.4925   20.7030 C   0  0  0  0  0  0
  -27.1930  -28.7550   20.6842 C   0  0  0  0  0  0
  -26.0594  -26.9529   19.5022 C   0  0  0  0  0  0
  -24.8608  -27.6930   19.5160 C   0  0  0  0  0  0
  -23.5995  -29.8287   20.1647 C   0  0  0  0  0  0
  -25.4100  -36.3141   24.0361 C   0  0  1  0  0  0
  -20.5850  -28.3645   23.1321 C   0  0  2  0  0  0
  -20.6746  -26.9380   22.5410 C   0  0  0  0  0  0
  -19.5728  -26.6380   21.5202 C   0  0  0  0  0  0
  -18.1895  -26.7929   22.1603 C   0  0  0  0  0  0
  -19.1512  -28.8826   23.2887 C   0  0  0  0  0  0
  -18.9458  -30.1428   23.8903 C   0  0  0  0  0  0
  -17.6471  -30.6579   24.0553 C   0  0  0  0  0  0
  -25.9045  -34.9495   23.5170 C   0  0  0  0  0  0
  -16.5348  -29.9095   23.6312 C   0  0  0  0  0  0
  -16.7261  -28.6521   23.0329 C   0  0  0  0  0  0
  -26.4479  -31.6606   25.0727 C   0  0  0  0  0  0
  -25.3763  -31.3686   26.1493 C   0  0  0  0  0  0
  -27.0270  -30.3056   24.6031 C   0  0  0  0  0  0
  -27.6088  -32.4282   25.7497 C   0  0  0  0  0  0
  -27.5579  -37.1797   24.8480 C   0  0  0  0  0  0
  -21.4155  -29.3017   22.3754 N   0  0  0  0  0  0
  -26.4290  -37.3826   23.9434 N   0  0  0  0  0  0
  -24.6606  -31.0890   22.0961 N   0  0  0  0  0  0
  -23.4191  -28.8248   23.3094 O   0  0  0  0  0  0
  -28.4373  -26.8197   20.0936 O   0  0  0  0  0  0
  -26.5572  -34.8929   22.4719 O   0  0  0  0  0  0
  -23.5343  -32.1405   23.7538 O   0  0  0  0  0  0
  -31.7142  -18.6047   19.5241 C   0  0  0  0  0  0
  -31.4402  -17.2572   19.7781 C   0  0  0  0  0  0
  -29.8851  -17.8900   21.5312 C   0  0  0  0  0  0
  -31.0533  -19.6141   20.2405 C   0  0  0  0  0  0
  -30.1312  -19.2626   21.2654 C   0  0  0  0  0  0
  -30.5223  -16.8695   20.7893 C   0  0  0  0  0  0
  -27.5783  -21.5330   22.6013 C   0  0  0  0  0  0
  -28.0581  -20.0844   22.4488 C   0  0  0  0  0  0
  -30.0034  -21.3656   22.6604 C   0  0  0  0  0  0
  -28.8594  -22.4016   22.7452 C   0  0  1  0  0  0
  -31.3116  -21.0413   19.7857 C   0  0  0  0  0  0
  -26.8534  -24.8190   22.1013 C   0  0  0  0  0  0
  -29.1087  -25.7908   22.6375 C   0  0  0  0  0  0
  -29.0133  -23.4560   21.6078 C   0  0  0  0  0  0
  -28.4653  -25.4012   20.2042 C   0  0  0  0  0  0
  -28.3381  -24.8631   21.6653 C   0  0  0  0  0  0
  -29.4076  -20.2491   21.9570 N   0  0  0  0  0  0
  -30.1631  -15.4975   21.0308 N   0  0  0  0  0  0
  -28.9316  -22.9922   24.0261 O   0  0  0  0  0  0
  -31.4479  -12.2972   19.1303 H   0  0  0  0  0  0
  -30.2512  -11.2709   19.8544 H   0  0  0  0  0  0
  -29.7245  -11.7414   17.4411 H   0  0  0  0  0  0
  -29.6670  -13.4548   17.7633 H   0  0  0  0  0  0
  -27.8333  -11.2938   18.8428 H   0  0  0  0  0  0
  -27.3592  -12.6029   17.7936 H   0  0  0  0  0  0
  -27.6985  -14.2537   19.5533 H   0  0  0  0  0  0
  -28.6641  -12.0154   21.3930 H   0  0  0  0  0  0
  -28.4891  -13.6858   21.8409 H   0  0  0  0  0  0
  -25.2726   -9.5721   22.4727 H   0  0  0  0  0  0
  -23.9994   -7.4661   22.7491 H   0  0  0  0  0  0
  -21.0810   -8.8748   19.8948 H   0  0  0  0  0  0
  -22.3640  -10.9662   19.6149 H   0  0  0  0  0  0
  -21.2008   -7.6147   23.9677 H   0  0  0  0  0  0
  -21.1483   -6.0521   25.9060 H   0  0  0  0  0  0
  -22.0611   -2.7601   23.2827 H   0  0  0  0  0  0
  -22.4137  -11.9908   22.4766 H   0  0  0  0  0  0
  -21.1145  -13.1268   22.2615 H   0  0  0  0  0  0
  -24.6734  -15.8475   20.5047 H   0  0  0  0  0  0
  -26.2896  -15.6112   20.0727 H   0  0  0  0  0  0
  -26.7136  -32.5556   23.1196 H   0  0  0  0  0  0
  -25.0186  -33.9817   25.0599 H   0  0  0  0  0  0
  -22.6831  -31.3093   21.4129 H   0  0  0  0  0  0
  -23.3789  -35.9564   23.3322 H   0  0  0  0  0  0
  -24.3558  -36.8858   22.2038 H   0  0  0  0  0  0
  -23.7145  -37.6467   23.6607 H   0  0  0  0  0  0
  -26.0222  -31.6260   20.5780 H   0  0  0  0  0  0
  -26.8128  -30.9129   21.9638 H   0  0  0  0  0  0
  -28.0883  -29.1599   21.1343 H   0  0  0  0  0  0
  -26.0471  -25.9854   19.0240 H   0  0  0  0  0  0
  -23.9695  -27.2821   19.0604 H   0  0  0  0  0  0
  -23.7012  -30.6013   19.3988 H   0  0  0  0  0  0
  -22.7288  -29.2439   19.8694 H   0  0  0  0  0  0
  -25.1262  -36.2029   25.0851 H   0  0  0  0  0  0
  -20.9909  -28.3189   24.1459 H   0  0  0  0  0  0
  -20.5612  -26.2261   23.3600 H   0  0  0  0  0  0
  -21.6622  -26.7397   22.1227 H   0  0  0  0  0  0
  -19.6866  -25.6296   21.1214 H   0  0  0  0  0  0
  -19.6673  -27.3203   20.6755 H   0  0  0  0  0  0
  -17.4173  -26.6681   21.4000 H   0  0  0  0  0  0
  -18.0263  -26.0078   22.9013 H   0  0  0  0  0  0
  -19.7952  -30.7208   24.2300 H   0  0  0  0  0  0
  -17.5048  -31.6252   24.5163 H   0  0  0  0  0  0
  -15.5355  -30.3014   23.7633 H   0  0  0  0  0  0
  -15.8671  -28.0840   22.7060 H   0  0  0  0  0  0
  -24.5959  -30.6994   25.7852 H   0  0  0  0  0  0
  -24.8922  -32.2819   26.4954 H   0  0  0  0  0  0
  -25.8134  -30.8865   27.0248 H   0  0  0  0  0  0
  -26.2799  -29.6917   24.0982 H   0  0  0  0  0  0
  -27.3975  -29.7177   25.4444 H   0  0  0  0  0  0
  -27.8663  -30.4415   23.9208 H   0  0  0  0  0  0
  -27.2746  -33.3583   26.2092 H   0  0  0  0  0  0
  -28.3880  -32.6823   25.0310 H   0  0  0  0  0  0
  -28.0762  -31.8375   26.5389 H   0  0  0  0  0  0
  -28.2635  -38.0073   24.7571 H   0  0  0  0  0  0
  -28.1041  -36.2605   24.6270 H   0  0  0  0  0  0
  -27.2287  -37.1418   25.8886 H   0  0  0  0  0  0
  -20.9314  -29.8809   21.7018 H   0  0  0  0  0  0
  -26.0200  -38.2906   24.1478 H   0  0  0  0  0  0
  -32.4029  -18.8598   18.7288 H   0  0  0  0  0  0
  -31.9373  -16.5507   19.1325 H   0  0  0  0  0  0
  -29.1798  -17.6134   22.3004 H   0  0  0  0  0  0
  -26.8844  -21.6347   23.4349 H   0  0  0  0  0  0
  -27.0371  -21.8025   21.6941 H   0  0  0  0  0  0
  -27.4275  -19.5088   21.7704 H   0  0  0  0  0  0
  -28.0746  -19.5841   23.4205 H   0  0  0  0  0  0
  -30.2992  -21.0189   23.6516 H   0  0  0  0  0  0
  -30.9083  -21.7545   22.1962 H   0  0  0  0  0  0
  -31.5045  -21.0617   18.7141 H   0  0  0  0  0  0
  -32.1852  -21.4622   20.2813 H   0  0  0  0  0  0
  -30.4508  -21.6808   19.9523 H   0  0  0  0  0  0
  -26.4378  -25.8248   22.1649 H   0  0  0  0  0  0
  -26.7155  -24.3922   23.0936 H   0  0  0  0  0  0
  -26.2312  -24.2506   21.4118 H   0  0  0  0  0  0
  -29.0003  -25.4892   23.6797 H   0  0  0  0  0  0
  -28.7562  -26.8228   22.5961 H   0  0  0  0  0  0
  -30.1745  -25.7950   22.4057 H   0  0  0  0  0  0
  -28.7054  -22.9649   20.6818 H   0  0  0  0  0  0
  -30.0782  -23.6417   21.4623 H   0  0  0  0  0  0
  -29.4501  -25.1380   19.8159 H   0  0  0  0  0  0
  -27.7695  -24.9050   19.5268 H   0  0  0  0  0  0
  -29.2754  -15.3253   21.4769 H   0  0  0  0  0  0
  -28.2294  -23.6300   24.0883 H   0  0  0  0  0  0
  1 25  1  0  0  0
  1 30  2  0  0  0
  1 88  1  0  0  0
  2  3  1  0  0  0
  2 25  1  0  0  0
  2 90  1  0  0  0
  2 91  1  0  0  0
  3  4  1  0  0  0
  3 92  1  0  0  0
  3 93  1  0  0  0
  4  5  1  0  0  0
  4 94  1  0  0  0
  4 95  1  0  0  0
  5  6  1  0  0  0
  5 26  1  0  0  0
  5 96  1  0  0  0
  6 25  1  0  0  0
  6 97  1  0  0  0
  6 98  1  0  0  0
  7  8  2  0  0  0
  7 26  1  0  0  0
  7 29  1  0  0  0
  8  9  1  0  0  0
  8 22  1  0  0  0
  9 10  1  0  0  0
  9 27  2  0  0  0
 10 11  2  0  0  0
 10 15  1  0  0  0
 11 12  1  0  0  0
 11 99  1  0  0  0
 12 13  2  0  0  0
 12100  1  0  0  0
 13 14  1  0  0  0
 13 31  1  0  0  0
 14 15  2  0  0  0
 14101  1  0  0  0
 15102  1  0  0  0
 16 17  2  0  0  0
 16 21  1  0  0  0
 16 31  1  0  0  0
 17 18  1  0  0  0
 17103  1  0  0  0
 18 19  2  0  0  0
 18104  1  0  0  0
 19 20  1  0  0  0
 19 24  1  0  0  0
 20 21  2  0  0  0
 20105  1  0  0  0
 21 23  1  0  0  0
 22 28  1  0  0  0
 22 32  2  0  0  0
 26 27  1  0  0  0
 28106  1  0  0  0
 28107  1  0  0  0
 29108  1  0  0  0
 29109  1  0  0  0
 33 34  1  0  0  0
 33 66  1  0  0  0
 33 70  2  0  0  0
 34 36  1  0  0  0
 34 59  1  0  0  0
 34110  1  0  0  0
 35 44  2  0  0  0
 35 45  1  0  0  0
 35 68  1  0  0  0
 36 56  1  0  0  0
 36111  1  0  0  0
 37 39  1  0  0  0
 37 47  1  0  0  0
 37 66  1  0  0  0
 37112  1  0  0  0
 38 43  2  0  0  0
 38 46  1  0  0  0
 38 47  1  0  0  0
 39 64  1  0  0  0
 39 67  2  0  0  0
 40 52  1  0  0  0
 40 53  2  0  0  0
 40 58  1  0  0  0
 41113  1  0  0  0
 41114  1  0  0  0
 41115  1  0  0  0
 41 48  1  0  0  0
 42 43  1  0  0  0
 42 66  1  0  0  0
 42116  1  0  0  0
 42117  1  0  0  0
 43 44  1  0  0  0
 44118  1  0  0  0
 45 46  2  0  0  0
 45119  1  0  0  0
 46120  1  0  0  0
 47121  1  0  0  0
 47122  1  0  0  0
 48 56  1  0  0  0
 48 65  1  0  0  0
 48123  1  0  0  0
 49 50  1  0  0  0
 49 53  1  0  0  0
 49 64  1  0  0  0
 49124  1  0  0  0
 50 51  1  0  0  0
 50125  1  0  0  0
 50126  1  0  0  0
 51 52  1  0  0  0
 51127  1  0  0  0
 51128  1  0  0  0
 52129  1  0  0  0
 52130  1  0  0  0
 53 54  1  0  0  0
 54 55  2  0  0  0
 54131  1  0  0  0
 55 57  1  0  0  0
 55132  1  0  0  0
 56 69  2  0  0  0
 57 58  2  0  0  0
 57133  1  0  0  0
 58134  1  0  0  0
 59 60  1  0  0  0
 59 61  1  0  0  0
 59 62  1  0  0  0
 60135  1  0  0  0
 60136  1  0  0  0
 60137  1  0  0  0
 61138  1  0  0  0
 61139  1  0  0  0
 61140  1  0  0  0
 62141  1  0  0  0
 62142  1  0  0  0
 62143  1  0  0  0
 63 65  1  0  0  0
 63144  1  0  0  0
 63145  1  0  0  0
 63146  1  0  0  0
 64147  1  0  0  0
 65148  1  0  0  0
 68 85  1  0  0  0
 71 72  2  0  0  0
 71 74  1  0  0  0
 71149  1  0  0  0
 72 76  1  0  0  0
 72150  1  0  0  0
 73 75  1  0  0  0
 73 76  2  0  0  0
 73151  1  0  0  0
 74 75  2  0  0  0
 74 81  1  0  0  0
 75 87  1  0  0  0
 76 88  1  0  0  0
 77 78  1  0  0  0
 77 80  1  0  0  0
 77152  1  0  0  0
 77153  1  0  0  0
 78 87  1  0  0  0
 78154  1  0  0  0
 78155  1  0  0  0
 79 80  1  0  0  0
 79 87  1  0  0  0
 79156  1  0  0  0
 79157  1  0  0  0
 80 84  1  0  0  0
 80 89  1  0  0  0
 81158  1  0  0  0
 81159  1  0  0  0
 81160  1  0  0  0
 82161  1  0  0  0
 82162  1  0  0  0
 82163  1  0  0  0
 82 86  1  0  0  0
 83 86  1  0  0  0
 83164  1  0  0  0
 83165  1  0  0  0
 83166  1  0  0  0
 84 86  1  0  0  0
 84167  1  0  0  0
 84168  1  0  0  0
 85 86  1  0  0  0
 85169  1  0  0  0
 85170  1  0  0  0
 88171  1  0  0  0
 89172  1  0  0  0
M  ISO  4   1 100  68 101  85 101  88 100
M  END
> <chiral flag>
0

> <version>
0

> <s_m_source_file>
/data/baiqing/PycharmProjects/Reinvent-master-3.2/result/LINK_invent/BTK/process_docking_weight1_custom_product_contain_oxygen_bond_distance_aromatic_linkinvent_7_9_3/rearranged_h_0143.sdf

> <i_m_source_file_index>
95

> <r_mmod_Potential_Energy-OPLS-2005>
115.401924133301

> <r_mmod_Stretch_Energy-OPLS-2005>
38.8541603088379

> <r_mmod_Bend_Energy-OPLS-2005>
182.194610595703

> <r_mmod_Torsional_Energy-OPLS-2005>
315.963623046875

> <r_mmod_Improper_Torsional_Energy-OPLS-2005>
4.67538166046143

> <r_mmod_Van_der_Waal_Energy-OPLS-2005>
170.623626708984

> <r_mmod_Electrostatic_Energy-OPLS-2005>
-397.950836181641

> <r_mmod_Solvation_Energy-OPLS-2005>
-217.199859619141

> <b_mmod_Minimization_Converged-OPLS-2005>
0

> <r_mmod_RMS_Derivative-OPLS-2005>
5.10483503341675

$$$$
95
                    3D
 Structure written by MMmdl.
155164  0  0  1  0            999 V2000
  -30.6689  -14.6552   20.4928 C   0  0  0  0  0  0
  -30.4343  -12.3866   19.4800 C   0  0  0  0  0  0
  -29.5229  -12.4846   18.2404 C   0  0  0  0  0  0
  -28.0438  -12.3347   18.6581 C   0  0  0  0  0  0
  -27.6577  -13.2261   19.8697 C   0  0  2  0  0  0
  -28.7051  -13.1127   20.9998 C   0  0  0  0  0  0
  -25.2579  -13.8189   20.5710 C   0  0  0  0  0  0
  -24.1854  -13.0404   20.9184 C   0  0  0  0  0  0
  -24.6425  -11.6888   20.8729 C   0  0  0  0  0  0
  -23.9076  -10.4283   21.0406 C   0  0  0  0  0  0
  -24.3592   -9.4210   21.9204 C   0  0  0  0  0  0
  -23.6260   -8.2247   22.0794 C   0  0  0  0  0  0
  -22.4261   -8.0265   21.3558 C   0  0  0  0  0  0
  -21.9895   -9.0259   20.4690 C   0  0  0  0  0  0
  -22.7231  -10.2132   20.3095 C   0  0  0  0  0  0
  -21.6855   -6.0712   22.5288 C   0  0  0  0  0  0
  -21.4014   -6.5625   23.8220 C   0  0  0  0  0  0
  -21.3666   -5.6791   24.9184 C   0  0  0  0  0  0
  -21.6058   -4.3057   24.7242 C   0  0  0  0  0  0
  -21.8814   -3.8128   23.4364 C   0  0  0  0  0  0
  -21.9189   -4.6939   22.3407 C   0  0  0  0  0  0
  -22.7895  -13.5236   21.1833 C   0  0  0  0  0  0
  -22.1652   -4.2123   21.0981 F   0  0  0  0  0  0
  -21.5633   -3.4543   25.7749 F   0  0  0  0  0  0
  -30.0116  -13.4488   20.4193 N   0  0  0  0  0  0
  -26.3031  -12.9396   20.3394 N   0  0  0  0  0  0
  -25.9372  -11.6531   20.5787 N   0  0  0  0  0  0
  -22.0507  -12.8283   22.0416 N   0  0  0  0  0  0
  -25.4157  -15.1900   20.4003 N   0  0  0  0  0  0
  -31.8248  -14.7533   20.0713 O   0  0  0  0  0  0
  -21.6640   -6.8838   21.4235 O   0  0  0  0  0  0
  -22.3613  -14.5553   20.6699 O   0  0  0  0  0  0
  -24.6313  -31.8548   23.1997 C   0  0  0  0  0  0
  -25.9165  -32.4739   23.8286 C   0  0  1  0  0  0
  -27.2272  -27.3024   20.1241 C   0  0  0  0  0  0
  -25.5988  -33.8538   24.2254 N   0  0  0  0  0  0
  -23.4199  -30.4854   21.5425 C   0  0  2  0  0  0
  -24.8610  -28.9299   20.1104 C   0  0  0  0  0  0
  -22.7427  -29.4692   22.4941 C   0  0  0  0  0  0
  -18.0301  -28.1420   22.8514 C   0  0  0  0  0  0
  -24.1505  -36.7289   23.2631 C   0  0  0  0  0  0
  -25.9568  -30.7881   21.3590 C   0  0  0  0  0  0
  -26.0288  -29.4082   20.7154 C   0  0  0  0  0  0
  -27.2053  -28.6026   20.7216 C   0  0  0  0  0  0
  -26.0352  -26.8838   19.4859 C   0  0  0  0  0  0
  -24.8667  -27.6729   19.4886 C   0  0  0  0  0  0
  -23.6299  -29.8130   20.1583 C   0  0  0  0  0  0
  -25.4112  -36.3061   24.0332 C   0  0  1  0  0  0
  -20.5891  -28.3731   23.1282 C   0  0  2  0  0  0
  -20.6787  -26.9453   22.5400 C   0  0  0  0  0  0
  -19.5751  -26.6441   21.5204 C   0  0  0  0  0  0
  -18.1936  -26.7982   22.1623 C   0  0  0  0  0  0
  -19.1545  -28.8879   23.2930 C   0  0  0  0  0  0
  -18.9462  -30.1479   23.8952 C   0  0  0  0  0  0
  -17.6457  -30.6616   24.0586 C   0  0  0  0  0  0
  -25.9072  -34.9437   23.5105 C   0  0  0  0  0  0
  -16.5359  -29.9117   23.6339 C   0  0  0  0  0  0
  -16.7287  -28.6539   23.0370 C   0  0  0  0  0  0
  -26.4526  -31.6534   25.0639 C   0  0  0  0  0  0
  -25.3772  -31.3689   26.1378 C   0  0  0  0  0  0
  -27.0311  -30.2961   24.6012 C   0  0  0  0  0  0
  -27.6098  -32.4200   25.7462 C   0  0  0  0  0  0
  -27.5573  -37.1792   24.8470 C   0  0  0  0  0  0
  -21.4141  -29.3072   22.3624 N   0  0  0  0  0  0
  -26.4281  -37.3745   23.9438 N   0  0  0  0  0  0
  -24.6905  -31.0560   22.0940 N   0  0  0  0  0  0
  -23.4139  -28.8264   23.3061 O   0  0  0  0  0  0
  -28.3693  -26.4850   20.2257 O   0  0  0  0  0  0
  -26.5562  -34.8921   22.4631 O   0  0  0  0  0  0
  -23.5487  -32.1371   23.7345 O   0  0  0  0  0  0
  -28.8767  -17.6586   19.4328 C   0  0  0  0  0  0
  -28.7491  -19.0979   19.5384 C   0  0  0  0  0  0
  -30.0834  -19.2164   21.6156 C   0  0  0  0  0  0
  -30.2121  -17.8093   21.4858 C   0  0  0  0  0  0
  -29.6401  -17.0194   20.4370 C   0  0  0  0  0  0
  -29.3235  -19.8980   20.5974 C   0  0  0  0  0  0
  -29.2993  -22.4544   20.0637 C   0  0  0  0  0  0
  -30.7028  -16.5436   22.1661 C   0  0  0  0  0  0
  -29.6104  -25.3938   18.5617 C   0  0  0  0  0  0
  -28.8448  -23.9005   20.5907 C   0  0  0  0  0  0
  -28.5085  -25.1374   19.6079 C   0  0  1  0  0  0
  -30.0368  -15.7502   21.0486 N   0  0  0  0  0  0
  -28.9701  -21.3204   20.7810 N   0  0  0  0  0  0
  -30.0079  -22.3714   19.0539 O   0  0  0  0  0  0
  -31.4894  -12.4554   19.2079 H   0  0  0  0  0  0
  -30.3260  -11.4039   19.9407 H   0  0  0  0  0  0
  -29.7810  -11.6959   17.5323 H   0  0  0  0  0  0
  -29.6952  -13.4309   17.7257 H   0  0  0  0  0  0
  -27.9008  -11.2832   18.9187 H   0  0  0  0  0  0
  -27.3877  -12.5348   17.8095 H   0  0  0  0  0  0
  -27.6653  -14.2554   19.5123 H   0  0  0  0  0  0
  -28.7242  -12.1075   21.4272 H   0  0  0  0  0  0
  -28.4597  -13.7812   21.8225 H   0  0  0  0  0  0
  -25.2717   -9.5702   22.4794 H   0  0  0  0  0  0
  -23.9956   -7.4677   22.7572 H   0  0  0  0  0  0
  -21.0812   -8.8807   19.9028 H   0  0  0  0  0  0
  -22.3690  -10.9666   19.6226 H   0  0  0  0  0  0
  -21.2006   -7.6139   23.9709 H   0  0  0  0  0  0
  -21.1502   -6.0524   25.9089 H   0  0  0  0  0  0
  -22.0576   -2.7584   23.2888 H   0  0  0  0  0  0
  -22.3987  -11.9870   22.4761 H   0  0  0  0  0  0
  -21.1202  -13.1490   22.2648 H   0  0  0  0  0  0
  -24.6344  -15.8302   20.4999 H   0  0  0  0  0  0
  -26.2560  -15.6491   20.0646 H   0  0  0  0  0  0
  -26.7211  -32.5418   23.1006 H   0  0  0  0  0  0
  -25.0137  -33.9617   25.0406 H   0  0  0  0  0  0
  -22.7199  -31.3110   21.3934 H   0  0  0  0  0  0
  -23.3748  -35.9646   23.3287 H   0  0  0  0  0  0
  -24.3621  -36.8901   22.2049 H   0  0  0  0  0  0
  -23.7289  -37.6505   23.6652 H   0  0  0  0  0  0
  -26.0585  -31.5406   20.5764 H   0  0  0  0  0  0
  -26.8474  -30.8599   21.9702 H   0  0  0  0  0  0
  -28.0961  -28.9662   21.2152 H   0  0  0  0  0  0
  -25.9473  -25.9285   18.9989 H   0  0  0  0  0  0
  -23.9652  -27.2958   19.0212 H   0  0  0  0  0  0
  -23.7431  -30.5821   19.3916 H   0  0  0  0  0  0
  -22.7488  -29.2354   19.8715 H   0  0  0  0  0  0
  -25.1310  -36.1867   25.0813 H   0  0  0  0  0  0
  -21.0024  -28.3346   24.1395 H   0  0  0  0  0  0
  -20.5670  -26.2352   23.3611 H   0  0  0  0  0  0
  -21.6669  -26.7490   22.1197 H   0  0  0  0  0  0
  -19.6923  -25.6355   21.1232 H   0  0  0  0  0  0
  -19.6722  -27.3244   20.6732 H   0  0  0  0  0  0
  -17.4208  -26.6751   21.4028 H   0  0  0  0  0  0
  -18.0369  -26.0110   22.9006 H   0  0  0  0  0  0
  -19.7934  -30.7289   24.2355 H   0  0  0  0  0  0
  -17.5023  -31.6309   24.5160 H   0  0  0  0  0  0
  -15.5360  -30.3031   23.7666 H   0  0  0  0  0  0
  -15.8701  -28.0873   22.7077 H   0  0  0  0  0  0
  -24.6001  -30.6930   25.7776 H   0  0  0  0  0  0
  -24.8873  -32.2845   26.4698 H   0  0  0  0  0  0
  -25.8125  -30.8989   27.0201 H   0  0  0  0  0  0
  -26.2843  -29.6785   24.0965 H   0  0  0  0  0  0
  -27.3974  -29.7139   25.4479 H   0  0  0  0  0  0
  -27.8769  -30.4277   23.9247 H   0  0  0  0  0  0
  -27.2734  -33.3514   26.2033 H   0  0  0  0  0  0
  -28.3971  -32.6666   25.0333 H   0  0  0  0  0  0
  -28.0665  -31.8243   26.5370 H   0  0  0  0  0  0
  -28.2584  -38.0076   24.7486 H   0  0  0  0  0  0
  -28.1057  -36.2609   24.6343 H   0  0  0  0  0  0
  -27.2297  -37.1530   25.8862 H   0  0  0  0  0  0
  -20.9297  -29.8757   21.6812 H   0  0  0  0  0  0
  -26.0160  -38.2831   24.1389 H   0  0  0  0  0  0
  -28.3545  -17.1115   18.6615 H   0  0  0  0  0  0
  -28.1355  -19.5974   18.8010 H   0  0  0  0  0  0
  -30.4917  -19.7358   22.4755 H   0  0  0  0  0  0
  -30.2612  -16.3779   23.1509 H   0  0  0  0  0  0
  -31.7944  -16.4920   22.2059 H   0  0  0  0  0  0
  -29.5021  -26.3725   18.0861 H   0  0  0  0  0  0
  -30.5982  -25.3726   19.0240 H   0  0  0  0  0  0
  -29.5895  -24.6524   17.7622 H   0  0  0  0  0  0
  -29.6362  -24.2341   21.2617 H   0  0  0  0  0  0
  -27.9811  -23.7610   21.2359 H   0  0  0  0  0  0
  -27.6234  -24.8361   19.0568 H   0  0  0  0  0  0
  -28.4067  -21.5100   21.6046 H   0  0  0  0  0  0
  1 25  1  0  0  0
  1 30  2  0  0  0
  1 82  1  0  0  0
  2  3  1  0  0  0
  2 25  1  0  0  0
  2 85  1  0  0  0
  2 86  1  0  0  0
  3  4  1  0  0  0
  3 87  1  0  0  0
  3 88  1  0  0  0
  4  5  1  0  0  0
  4 89  1  0  0  0
  4 90  1  0  0  0
  5  6  1  0  0  0
  5 26  1  0  0  0
  5 91  1  0  0  0
  6 25  1  0  0  0
  6 92  1  0  0  0
  6 93  1  0  0  0
  7  8  2  0  0  0
  7 26  1  0  0  0
  7 29  1  0  0  0
  8  9  1  0  0  0
  8 22  1  0  0  0
  9 10  1  0  0  0
  9 27  2  0  0  0
 10 11  2  0  0  0
 10 15  1  0  0  0
 11 12  1  0  0  0
 11 94  1  0  0  0
 12 13  2  0  0  0
 12 95  1  0  0  0
 13 14  1  0  0  0
 13 31  1  0  0  0
 14 15  2  0  0  0
 14 96  1  0  0  0
 15 97  1  0  0  0
 16 17  2  0  0  0
 16 21  1  0  0  0
 16 31  1  0  0  0
 17 18  1  0  0  0
 17 98  1  0  0  0
 18 19  2  0  0  0
 18 99  1  0  0  0
 19 20  1  0  0  0
 19 24  1  0  0  0
 20 21  2  0  0  0
 20100  1  0  0  0
 21 23  1  0  0  0
 22 28  1  0  0  0
 22 32  2  0  0  0
 26 27  1  0  0  0
 28101  1  0  0  0
 28102  1  0  0  0
 29103  1  0  0  0
 29104  1  0  0  0
 33 34  1  0  0  0
 33 66  1  0  0  0
 33 70  2  0  0  0
 34 36  1  0  0  0
 34 59  1  0  0  0
 34105  1  0  0  0
 35 44  2  0  0  0
 35 45  1  0  0  0
 35 68  1  0  0  0
 36 56  1  0  0  0
 36106  1  0  0  0
 37 39  1  0  0  0
 37 47  1  0  0  0
 37 66  1  0  0  0
 37107  1  0  0  0
 38 43  2  0  0  0
 38 46  1  0  0  0
 38 47  1  0  0  0
 39 64  1  0  0  0
 39 67  2  0  0  0
 40 52  1  0  0  0
 40 53  2  0  0  0
 40 58  1  0  0  0
 41108  1  0  0  0
 41109  1  0  0  0
 41110  1  0  0  0
 41 48  1  0  0  0
 42 43  1  0  0  0
 42 66  1  0  0  0
 42111  1  0  0  0
 42112  1  0  0  0
 43 44  1  0  0  0
 44113  1  0  0  0
 45 46  2  0  0  0
 45114  1  0  0  0
 46115  1  0  0  0
 47116  1  0  0  0
 47117  1  0  0  0
 48 56  1  0  0  0
 48 65  1  0  0  0
 48118  1  0  0  0
 49 50  1  0  0  0
 49 53  1  0  0  0
 49 64  1  0  0  0
 49119  1  0  0  0
 50 51  1  0  0  0
 50120  1  0  0  0
 50121  1  0  0  0
 51 52  1  0  0  0
 51122  1  0  0  0
 51123  1  0  0  0
 52124  1  0  0  0
 52125  1  0  0  0
 53 54  1  0  0  0
 54 55  2  0  0  0
 54126  1  0  0  0
 55 57  1  0  0  0
 55127  1  0  0  0
 56 69  2  0  0  0
 57 58  2  0  0  0
 57128  1  0  0  0
 58129  1  0  0  0
 59 60  1  0  0  0
 59 61  1  0  0  0
 59 62  1  0  0  0
 60130  1  0  0  0
 60131  1  0  0  0
 60132  1  0  0  0
 61133  1  0  0  0
 61134  1  0  0  0
 61135  1  0  0  0
 62136  1  0  0  0
 62137  1  0  0  0
 62138  1  0  0  0
 63 65  1  0  0  0
 63139  1  0  0  0
 63140  1  0  0  0
 63141  1  0  0  0
 64142  1  0  0  0
 65143  1  0  0  0
 68 81  1  0  0  0
 71 72  2  0  0  0
 71 75  1  0  0  0
 71144  1  0  0  0
 72 76  1  0  0  0
 72145  1  0  0  0
 73 74  1  0  0  0
 73 76  2  0  0  0
 73146  1  0  0  0
 74 75  2  0  0  0
 74 78  1  0  0  0
 75 82  1  0  0  0
 76 83  1  0  0  0
 77 80  1  0  0  0
 77 83  1  0  0  0
 77 84  2  0  0  0
 78 82  1  0  0  0
 78147  1  0  0  0
 78148  1  0  0  0
 79149  1  0  0  0
 79150  1  0  0  0
 79151  1  0  0  0
 79 81  1  0  0  0
 80 81  1  0  0  0
 80152  1  0  0  0
 80153  1  0  0  0
 81154  1  0  0  0
 83155  1  0  0  0
M  ISO  4   1 100  68 101  81 101  82 100
M  END
> <chiral flag>
0

> <version>
0

> <s_m_source_file>
/data/baiqing/PycharmProjects/Reinvent-master-3.2/result/LINK_invent/BTK/process_docking_weight1_custom_product_contain_oxygen_bond_distance_aromatic_linkinvent_7_9_3/rearranged_h_0143.sdf

> <i_m_source_file_index>
96

> <r_mmod_Potential_Energy-OPLS-2005>
585.225402832031

> <r_mmod_Stretch_Energy-OPLS-2005>
115.343017578125

> <r_mmod_Bend_Energy-OPLS-2005>
573.131469726562

> <r_mmod_Torsional_Energy-OPLS-2005>
283.241149902344

> <r_mmod_Improper_Torsional_Energy-OPLS-2005>
11.7555236816406

> <r_mmod_Van_der_Waal_Energy-OPLS-2005>
133.306976318359

> <r_mmod_Electrostatic_Energy-OPLS-2005>
-365.760559082031

> <r_mmod_Solvation_Energy-OPLS-2005>
-219.768417358398

> <b_mmod_Minimization_Converged-OPLS-2005>
0

> <r_mmod_RMS_Derivative-OPLS-2005>
7.02783250808716

$$$$
96
                    3D
 Structure written by MMmdl.
162171  0  0  1  0            999 V2000
  -30.6573  -14.7606   20.4893 C   0  0  0  0  0  0
  -30.4218  -12.4799   19.4701 C   0  0  0  0  0  0
  -29.5023  -12.5075   18.2323 C   0  0  0  0  0  0
  -28.0330  -12.3265   18.6541 C   0  0  0  0  0  0
  -27.6361  -13.2402   19.8447 C   0  0  2  0  0  0
  -28.6839  -13.2125   20.9783 C   0  0  0  0  0  0
  -25.2490  -13.8216   20.5717 C   0  0  0  0  0  0
  -24.1791  -13.0448   20.9223 C   0  0  0  0  0  0
  -24.6397  -11.6933   20.8763 C   0  0  0  0  0  0
  -23.9081  -10.4298   21.0415 C   0  0  0  0  0  0
  -24.3627   -9.4209   21.9191 C   0  0  0  0  0  0
  -23.6300   -8.2246   22.0758 C   0  0  0  0  0  0
  -22.4281   -8.0284   21.3549 C   0  0  0  0  0  0
  -21.9923   -9.0259   20.4649 C   0  0  0  0  0  0
  -22.7257  -10.2138   20.3061 C   0  0  0  0  0  0
  -21.6855   -6.0742   22.5282 C   0  0  0  0  0  0
  -21.4012   -6.5644   23.8213 C   0  0  0  0  0  0
  -21.3657   -5.6799   24.9175 C   0  0  0  0  0  0
  -21.6042   -4.3061   24.7227 C   0  0  0  0  0  0
  -21.8820   -3.8152   23.4348 C   0  0  0  0  0  0
  -21.9191   -4.6969   22.3405 C   0  0  0  0  0  0
  -22.7808  -13.5221   21.1871 C   0  0  0  0  0  0
  -22.1662   -4.2155   21.0984 F   0  0  0  0  0  0
  -21.5626   -3.4543   25.7738 F   0  0  0  0  0  0
  -29.9757  -13.5655   20.3788 N   0  0  0  0  0  0
  -26.2918  -12.9441   20.3291 N   0  0  0  0  0  0
  -25.9330  -11.6574   20.5770 N   0  0  0  0  0  0
  -22.0456  -12.8208   22.0422 N   0  0  0  0  0  0
  -25.4170  -15.1943   20.4127 N   0  0  0  0  0  0
  -31.8427  -14.7939   20.1467 O   0  0  0  0  0  0
  -21.6644   -6.8885   21.4244 O   0  0  0  0  0  0
  -22.3493  -14.5526   20.6717 O   0  0  0  0  0  0
  -24.6354  -31.8534   23.1980 C   0  0  0  0  0  0
  -25.9163  -32.4745   23.8331 C   0  0  1  0  0  0
  -27.2106  -27.2302   20.1257 C   0  0  0  0  0  0
  -25.5956  -33.8551   24.2253 N   0  0  0  0  0  0
  -23.4336  -30.4787   21.5413 C   0  0  2  0  0  0
  -24.8791  -28.9271   20.1082 C   0  0  0  0  0  0
  -22.7524  -29.4602   22.4887 C   0  0  0  0  0  0
  -18.0298  -28.1396   22.8474 C   0  0  0  0  0  0
  -24.1490  -36.7269   23.2640 C   0  0  0  0  0  0
  -25.9841  -30.7563   21.3844 C   0  0  0  0  0  0
  -26.0541  -29.3777   20.7227 C   0  0  0  0  0  0
  -27.2229  -28.5423   20.7214 C   0  0  0  0  0  0
  -26.0103  -26.8648   19.4713 C   0  0  0  0  0  0
  -24.8645  -27.6802   19.4709 C   0  0  0  0  0  0
  -23.6532  -29.8186   20.1561 C   0  0  0  0  0  0
  -25.4119  -36.3063   24.0324 C   0  0  1  0  0  0
  -20.5905  -28.3713   23.1250 C   0  0  2  0  0  0
  -20.6788  -26.9426   22.5401 C   0  0  0  0  0  0
  -19.5763  -26.6387   21.5211 C   0  0  0  0  0  0
  -18.1940  -26.7938   22.1618 C   0  0  0  0  0  0
  -19.1553  -28.8870   23.2859 C   0  0  0  0  0  0
  -18.9477  -30.1464   23.8887 C   0  0  0  0  0  0
  -17.6476  -30.6593   24.0558 C   0  0  0  0  0  0
  -25.9065  -34.9433   23.5089 C   0  0  0  0  0  0
  -16.5363  -29.9088   23.6335 C   0  0  0  0  0  0
  -16.7284  -28.6507   23.0353 C   0  0  0  0  0  0
  -26.4522  -31.6581   25.0731 C   0  0  0  0  0  0
  -25.3728  -31.3736   26.1434 C   0  0  0  0  0  0
  -27.0379  -30.2996   24.6241 C   0  0  0  0  0  0
  -27.6068  -32.4324   25.7509 C   0  0  0  0  0  0
  -27.5575  -37.1790   24.8468 C   0  0  0  0  0  0
  -21.4228  -29.3060   22.3631 N   0  0  0  0  0  0
  -26.4287  -37.3768   23.9411 N   0  0  0  0  0  0
  -24.7037  -31.0472   22.0971 N   0  0  0  0  0  0
  -23.4207  -28.8126   23.2988 O   0  0  0  0  0  0
  -28.2743  -26.2872   20.1960 O   0  0  0  0  0  0
  -26.5629  -34.8906   22.4653 O   0  0  0  0  0  0
  -23.5493  -32.1370   23.7253 O   0  0  0  0  0  0
  -31.5406  -16.7607   22.4456 C   0  0  0  0  0  0
  -32.1795  -17.6477   23.3200 C   0  0  0  0  0  0
  -30.8739  -19.4438   22.3899 C   0  0  0  0  0  0
  -30.2302  -18.6077   21.4377 C   0  0  0  0  0  0
  -30.5619  -17.1503   21.4820 C   0  0  0  0  0  0
  -31.8353  -18.9958   23.3010 C   0  0  0  0  0  0
  -28.9601  -23.6370   20.3211 C   0  0  0  0  0  0
  -27.9607  -19.9146   21.3275 C   0  0  0  0  0  0
  -27.8800  -21.4729   21.3953 C   0  0  0  0  0  0
  -29.7094  -20.9423   20.0131 C   0  0  0  0  0  0
  -29.2325  -19.4848   20.5519 C   0  0  1  0  0  0
  -28.5619  -22.0646   20.1414 C   0  0  2  0  0  0
  -27.6246  -21.9355   18.9205 C   0  0  0  0  0  0
  -27.9262  -24.8259   19.9717 C   0  0  0  0  0  0
  -29.9959  -15.9628   20.7780 N   0  0  0  0  0  0
  -30.0823  -23.9253   20.7462 O   0  0  0  0  0  0
  -32.5759  -20.0998   24.4008 Cl  0  0  0  0  0  0
  -31.4627  -12.5898   19.1619 H   0  0  0  0  0  0
  -30.3638  -11.5134   19.9735 H   0  0  0  0  0  0
  -29.7895  -11.7239   17.5299 H   0  0  0  0  0  0
  -29.6222  -13.4541   17.7030 H   0  0  0  0  0  0
  -27.9008  -11.2803   18.9325 H   0  0  0  0  0  0
  -27.3708  -12.4999   17.8051 H   0  0  0  0  0  0
  -27.6191  -14.2551   19.4464 H   0  0  0  0  0  0
  -28.7311  -12.2280   21.4455 H   0  0  0  0  0  0
  -28.4168  -13.9169   21.7677 H   0  0  0  0  0  0
  -25.2769   -9.5685   22.4770 H   0  0  0  0  0  0
  -24.0007   -7.4639   22.7478 H   0  0  0  0  0  0
  -21.0855   -8.8784   19.8953 H   0  0  0  0  0  0
  -22.3718  -10.9679   19.6169 H   0  0  0  0  0  0
  -21.2006   -7.6151   23.9719 H   0  0  0  0  0  0
  -21.1476   -6.0527   25.9079 H   0  0  0  0  0  0
  -22.0599   -2.7613   23.2848 H   0  0  0  0  0  0
  -22.4073  -11.9867   22.4806 H   0  0  0  0  0  0
  -21.1071  -13.1229   22.2625 H   0  0  0  0  0  0
  -24.6496  -15.8479   20.5230 H   0  0  0  0  0  0
  -26.2640  -15.6337   20.0768 H   0  0  0  0  0  0
  -26.7215  -32.5377   23.1053 H   0  0  0  0  0  0
  -25.0130  -33.9694   25.0419 H   0  0  0  0  0  0
  -22.7323  -31.3028   21.3953 H   0  0  0  0  0  0
  -23.3759  -35.9596   23.3308 H   0  0  0  0  0  0
  -24.3580  -36.8898   22.2055 H   0  0  0  0  0  0
  -23.7233  -37.6464   23.6665 H   0  0  0  0  0  0
  -26.1308  -31.5171   20.6163 H   0  0  0  0  0  0
  -26.8590  -30.8018   22.0216 H   0  0  0  0  0  0
  -28.1174  -28.8787   21.2271 H   0  0  0  0  0  0
  -25.9120  -25.9188   18.9614 H   0  0  0  0  0  0
  -23.9672  -27.3335   18.9778 H   0  0  0  0  0  0
  -23.7834  -30.5979   19.4046 H   0  0  0  0  0  0
  -22.7700  -29.2580   19.8456 H   0  0  0  0  0  0
  -25.1300  -36.1910   25.0817 H   0  0  0  0  0  0
  -20.9998  -28.3293   24.1371 H   0  0  0  0  0  0
  -20.5703  -26.2320   23.3607 H   0  0  0  0  0  0
  -21.6649  -26.7452   22.1182 H   0  0  0  0  0  0
  -19.6933  -25.6298   21.1244 H   0  0  0  0  0  0
  -19.6704  -27.3187   20.6732 H   0  0  0  0  0  0
  -17.4211  -26.6682   21.4018 H   0  0  0  0  0  0
  -18.0335  -26.0089   22.9023 H   0  0  0  0  0  0
  -19.7958  -30.7274   24.2256 H   0  0  0  0  0  0
  -17.5036  -31.6276   24.5155 H   0  0  0  0  0  0
  -15.5365  -30.2984   23.7678 H   0  0  0  0  0  0
  -15.8684  -28.0820   22.7079 H   0  0  0  0  0  0
  -24.5930  -30.7058   25.7757 H   0  0  0  0  0  0
  -24.8882  -32.2902   26.4808 H   0  0  0  0  0  0
  -25.8030  -30.8955   27.0243 H   0  0  0  0  0  0
  -26.2976  -29.6723   24.1258 H   0  0  0  0  0  0
  -27.4052  -29.7280   25.4776 H   0  0  0  0  0  0
  -27.8858  -30.4273   23.9505 H   0  0  0  0  0  0
  -27.2689  -33.3648   26.2040 H   0  0  0  0  0  0
  -28.3904  -32.6845   25.0352 H   0  0  0  0  0  0
  -28.0699  -31.8473   26.5467 H   0  0  0  0  0  0
  -28.2584  -38.0091   24.7519 H   0  0  0  0  0  0
  -28.1080  -36.2624   24.6295 H   0  0  0  0  0  0
  -27.2293  -37.1438   25.8870 H   0  0  0  0  0  0
  -20.9412  -29.8791   21.6844 H   0  0  0  0  0  0
  -26.0165  -38.2841   24.1421 H   0  0  0  0  0  0
  -31.8295  -15.7285   22.5737 H   0  0  0  0  0  0
  -32.9139  -17.2844   24.0242 H   0  0  0  0  0  0
  -30.6216  -20.4905   22.4560 H   0  0  0  0  0  0
  -27.0857  -19.5361   20.7975 H   0  0  0  0  0  0
  -27.9182  -19.4764   22.3253 H   0  0  0  0  0  0
  -28.4115  -21.8125   22.2859 H   0  0  0  0  0  0
  -26.8494  -21.8134   21.5045 H   0  0  0  0  0  0
  -30.0395  -20.8523   18.9776 H   0  0  0  0  0  0
  -30.5957  -21.2980   20.5342 H   0  0  0  0  0  0
  -28.9319  -18.8722   19.7007 H   0  0  0  0  0  0
  -26.6839  -22.4666   19.0720 H   0  0  0  0  0  0
  -27.3693  -20.8966   18.7105 H   0  0  0  0  0  0
  -28.0906  -22.3360   18.0193 H   0  0  0  0  0  0
  -27.0111  -24.6051   20.5221 H   0  0  0  0  0  0
  -27.6878  -24.7111   18.9145 H   0  0  0  0  0  0
  -28.9897  -15.9345   20.7125 H   0  0  0  0  0  0
  1 25  1  0  0  0
  1 30  2  0  0  0
  1 85  1  0  0  0
  2  3  1  0  0  0
  2 25  1  0  0  0
  2 88  1  0  0  0
  2 89  1  0  0  0
  3  4  1  0  0  0
  3 90  1  0  0  0
  3 91  1  0  0  0
  4  5  1  0  0  0
  4 92  1  0  0  0
  4 93  1  0  0  0
  5  6  1  0  0  0
  5 26  1  0  0  0
  5 94  1  0  0  0
  6 25  1  0  0  0
  6 95  1  0  0  0
  6 96  1  0  0  0
  7  8  2  0  0  0
  7 26  1  0  0  0
  7 29  1  0  0  0
  8  9  1  0  0  0
  8 22  1  0  0  0
  9 10  1  0  0  0
  9 27  2  0  0  0
 10 11  2  0  0  0
 10 15  1  0  0  0
 11 12  1  0  0  0
 11 97  1  0  0  0
 12 13  2  0  0  0
 12 98  1  0  0  0
 13 14  1  0  0  0
 13 31  1  0  0  0
 14 15  2  0  0  0
 14 99  1  0  0  0
 15100  1  0  0  0
 16 17  2  0  0  0
 16 21  1  0  0  0
 16 31  1  0  0  0
 17 18  1  0  0  0
 17101  1  0  0  0
 18 19  2  0  0  0
 18102  1  0  0  0
 19 20  1  0  0  0
 19 24  1  0  0  0
 20 21  2  0  0  0
 20103  1  0  0  0
 21 23  1  0  0  0
 22 28  1  0  0  0
 22 32  2  0  0  0
 26 27  1  0  0  0
 28104  1  0  0  0
 28105  1  0  0  0
 29106  1  0  0  0
 29107  1  0  0  0
 33 34  1  0  0  0
 33 66  1  0  0  0
 33 70  2  0  0  0
 34 36  1  0  0  0
 34 59  1  0  0  0
 34108  1  0  0  0
 35 44  2  0  0  0
 35 45  1  0  0  0
 35 68  1  0  0  0
 36 56  1  0  0  0
 36109  1  0  0  0
 37 39  1  0  0  0
 37 47  1  0  0  0
 37 66  1  0  0  0
 37110  1  0  0  0
 38 43  2  0  0  0
 38 46  1  0  0  0
 38 47  1  0  0  0
 39 64  1  0  0  0
 39 67  2  0  0  0
 40 52  1  0  0  0
 40 53  2  0  0  0
 40 58  1  0  0  0
 41111  1  0  0  0
 41112  1  0  0  0
 41113  1  0  0  0
 41 48  1  0  0  0
 42 43  1  0  0  0
 42 66  1  0  0  0
 42114  1  0  0  0
 42115  1  0  0  0
 43 44  1  0  0  0
 44116  1  0  0  0
 45 46  2  0  0  0
 45117  1  0  0  0
 46118  1  0  0  0
 47119  1  0  0  0
 47120  1  0  0  0
 48 56  1  0  0  0
 48 65  1  0  0  0
 48121  1  0  0  0
 49 50  1  0  0  0
 49 53  1  0  0  0
 49 64  1  0  0  0
 49122  1  0  0  0
 50 51  1  0  0  0
 50123  1  0  0  0
 50124  1  0  0  0
 51 52  1  0  0  0
 51125  1  0  0  0
 51126  1  0  0  0
 52127  1  0  0  0
 52128  1  0  0  0
 53 54  1  0  0  0
 54 55  2  0  0  0
 54129  1  0  0  0
 55 57  1  0  0  0
 55130  1  0  0  0
 56 69  2  0  0  0
 57 58  2  0  0  0
 57131  1  0  0  0
 58132  1  0  0  0
 59 60  1  0  0  0
 59 61  1  0  0  0
 59 62  1  0  0  0
 60133  1  0  0  0
 60134  1  0  0  0
 60135  1  0  0  0
 61136  1  0  0  0
 61137  1  0  0  0
 61138  1  0  0  0
 62139  1  0  0  0
 62140  1  0  0  0
 62141  1  0  0  0
 63 65  1  0  0  0
 63142  1  0  0  0
 63143  1  0  0  0
 63144  1  0  0  0
 64145  1  0  0  0
 65146  1  0  0  0
 68 84  1  0  0  0
 71 72  2  0  0  0
 71 75  1  0  0  0
 71147  1  0  0  0
 72 76  1  0  0  0
 72148  1  0  0  0
 73 74  1  0  0  0
 73 76  2  0  0  0
 73149  1  0  0  0
 74 75  2  0  0  0
 74 81  1  0  0  0
 75 85  1  0  0  0
 76 87  1  0  0  0
 77 84  1  0  0  0
 77 86  2  0  0  0
 77 82  1  0  0  0
 78 79  1  0  0  0
 78 81  1  0  0  0
 78150  1  0  0  0
 78151  1  0  0  0
 79 82  1  0  0  0
 79152  1  0  0  0
 79153  1  0  0  0
 80 81  1  0  0  0
 80 82  1  0  0  0
 80154  1  0  0  0
 80155  1  0  0  0
 81156  1  0  0  0
 82 83  1  0  0  0
 83157  1  0  0  0
 83158  1  0  0  0
 83159  1  0  0  0
 84160  1  0  0  0
 84161  1  0  0  0
 85162  1  0  0  0
M  ISO  4   1 100  68 101  84 101  85 100
M  END
> <chiral flag>
0

> <version>
0

> <s_m_source_file>
/data/baiqing/PycharmProjects/Reinvent-master-3.2/result/LINK_invent/BTK/process_docking_weight1_custom_product_contain_oxygen_bond_distance_aromatic_linkinvent_7_9_3/rearranged_h_0143.sdf

> <i_m_source_file_index>
97

> <r_mmod_Potential_Energy-OPLS-2005>
401.528991699219

> <r_mmod_Stretch_Energy-OPLS-2005>
161.301483154297

> <r_mmod_Bend_Energy-OPLS-2005>
239.732864379883

> <r_mmod_Torsional_Energy-OPLS-2005>
297.701873779297

> <r_mmod_Improper_Torsional_Energy-OPLS-2005>
5.15538835525513

> <r_mmod_Van_der_Waal_Energy-OPLS-2005>
151.990615844727

> <r_mmod_Electrostatic_Energy-OPLS-2005>
-330.491607666016

> <r_mmod_Solvation_Energy-OPLS-2005>
-226.67057800293

> <b_mmod_Minimization_Converged-OPLS-2005>
0

> <r_mmod_RMS_Derivative-OPLS-2005>
0.981027483940125

$$$$
97
                    3D
 Structure written by MMmdl.
160168  0  0  1  0            999 V2000
  -30.7530  -14.4169   20.5963 C   0  0  0  0  0  0
  -30.4162  -12.2883   19.3978 C   0  0  0  0  0  0
  -29.4784  -12.4692   18.1889 C   0  0  0  0  0  0
  -28.0035  -12.3397   18.6170 C   0  0  0  0  0  0
  -27.6558  -13.1941   19.8651 C   0  0  2  0  0  0
  -28.7066  -12.9970   20.9805 C   0  0  0  0  0  0
  -25.2599  -13.8140   20.5691 C   0  0  0  0  0  0
  -24.1834  -13.0432   20.9178 C   0  0  0  0  0  0
  -24.6372  -11.6892   20.8759 C   0  0  0  0  0  0
  -23.9038  -10.4283   21.0426 C   0  0  0  0  0  0
  -24.3596   -9.4195   21.9193 C   0  0  0  0  0  0
  -23.6274   -8.2229   22.0754 C   0  0  0  0  0  0
  -22.4258   -8.0275   21.3548 C   0  0  0  0  0  0
  -21.9894   -9.0246   20.4648 C   0  0  0  0  0  0
  -22.7218  -10.2124   20.3064 C   0  0  0  0  0  0
  -21.6849   -6.0726   22.5281 C   0  0  0  0  0  0
  -21.4004   -6.5634   23.8211 C   0  0  0  0  0  0
  -21.3658   -5.6794   24.9175 C   0  0  0  0  0  0
  -21.6040   -4.3057   24.7230 C   0  0  0  0  0  0
  -21.8819   -3.8143   23.4353 C   0  0  0  0  0  0
  -21.9184   -4.6956   22.3405 C   0  0  0  0  0  0
  -22.7865  -13.5248   21.1829 C   0  0  0  0  0  0
  -22.1662   -4.2141   21.0983 F   0  0  0  0  0  0
  -21.5621   -3.4540   25.7741 F   0  0  0  0  0  0
  -30.0322  -13.2823   20.4074 N   0  0  0  0  0  0
  -26.3007  -12.9273   20.3374 N   0  0  0  0  0  0
  -25.9292  -11.6449   20.5803 N   0  0  0  0  0  0
  -22.0501  -12.8248   22.0395 N   0  0  0  0  0  0
  -25.4343  -15.1852   20.4105 N   0  0  0  0  0  0
  -31.9039  -14.5726   20.1850 O   0  0  0  0  0  0
  -21.6631   -6.8872   21.4247 O   0  0  0  0  0  0
  -22.3549  -14.5552   20.6680 O   0  0  0  0  0  0
  -24.6128  -31.8709   23.2137 C   0  0  0  0  0  0
  -25.9040  -32.4831   23.8421 C   0  0  1  0  0  0
  -27.2259  -27.4636   20.0872 C   0  0  0  0  0  0
  -25.5915  -33.8624   24.2356 N   0  0  0  0  0  0
  -23.3973  -30.4970   21.5545 C   0  0  2  0  0  0
  -24.8398  -28.9666   20.1160 C   0  0  0  0  0  0
  -22.7406  -29.4681   22.5019 C   0  0  0  0  0  0
  -18.0295  -28.1359   22.8502 C   0  0  0  0  0  0
  -24.1491  -36.7325   23.2641 C   0  0  0  0  0  0
  -25.9235  -30.8465   21.3615 C   0  0  0  0  0  0
  -25.9996  -29.4836   20.7072 C   0  0  0  0  0  0
  -27.1982  -28.7397   20.6874 C   0  0  0  0  0  0
  -26.0520  -26.9561   19.4889 C   0  0  0  0  0  0
  -24.8595  -27.7002   19.5055 C   0  0  0  0  0  0
  -23.6010  -29.8295   20.1680 C   0  0  0  0  0  0
  -25.4105  -36.3114   24.0346 C   0  0  1  0  0  0
  -20.5880  -28.3653   23.1310 C   0  0  2  0  0  0
  -20.6796  -26.9403   22.5362 C   0  0  0  0  0  0
  -19.5751  -26.6407   21.5184 C   0  0  0  0  0  0
  -18.1963  -26.7883   22.1698 C   0  0  0  0  0  0
  -19.1538  -28.8828   23.2894 C   0  0  0  0  0  0
  -18.9465  -30.1451   23.8873 C   0  0  0  0  0  0
  -17.6466  -30.6581   24.0523 C   0  0  0  0  0  0
  -25.9034  -34.9474   23.5140 C   0  0  0  0  0  0
  -16.5354  -29.9060   23.6319 C   0  0  0  0  0  0
  -16.7276  -28.6472   23.0359 C   0  0  0  0  0  0
  -26.4470  -31.6606   25.0747 C   0  0  0  0  0  0
  -25.3745  -31.3700   26.1506 C   0  0  0  0  0  0
  -27.0297  -30.3057   24.6100 C   0  0  0  0  0  0
  -27.6062  -32.4304   25.7500 C   0  0  0  0  0  0
  -27.5572  -37.1821   24.8464 C   0  0  0  0  0  0
  -21.4143  -29.3040   22.3748 N   0  0  0  0  0  0
  -26.4290  -37.3790   23.9400 N   0  0  0  0  0  0
  -24.6627  -31.0845   22.1014 N   0  0  0  0  0  0
  -23.4189  -28.8211   23.3037 O   0  0  0  0  0  0
  -28.3993  -26.7318   20.0829 O   0  0  0  0  0  0
  -26.5579  -34.8918   22.4690 O   0  0  0  0  0  0
  -23.5333  -32.1449   23.7561 O   0  0  0  0  0  0
  -27.7035  -18.1027   18.7238 C   0  0  0  0  0  0
  -28.4948  -17.3137   20.9007 C   0  0  0  0  0  0
  -29.2948  -16.2688   18.8475 C   0  0  0  0  0  0
  -27.7131  -18.2023   20.1304 C   0  0  0  0  0  0
  -28.4986  -17.1381   18.0804 C   0  0  0  0  0  0
  -29.2838  -16.3315   20.2658 C   0  0  0  0  0  0
  -26.9342  -21.8218   21.3320 C   0  0  0  0  0  0
  -26.9205  -19.3057   20.8001 C   0  0  0  0  0  0
  -27.6360  -20.6582   20.6356 C   0  0  0  0  0  0
  -27.7460  -23.0970   21.5452 C   0  0  0  0  0  0
  -27.7532  -24.0123   20.3049 C   0  0  0  0  0  0
  -28.3851  -25.3954   20.6331 C   0  0  0  0  0  0
  -28.5148  -17.0532   16.6896 N   0  0  0  0  0  0
  -30.0806  -15.4708   21.0749 N   0  0  0  0  0  0
  -25.7597  -21.7514   21.7036 O   0  0  0  0  0  0
  -31.4577  -12.3859   19.0856 H   0  0  0  0  0  0
  -30.3202  -11.2822   19.8094 H   0  0  0  0  0  0
  -29.7078  -11.7227   17.4269 H   0  0  0  0  0  0
  -29.6464  -13.4379   17.7199 H   0  0  0  0  0  0
  -27.8169  -11.2865   18.8309 H   0  0  0  0  0  0
  -27.3463  -12.6004   17.7868 H   0  0  0  0  0  0
  -27.6842  -14.2335   19.5476 H   0  0  0  0  0  0
  -28.6823  -11.9720   21.3528 H   0  0  0  0  0  0
  -28.4804  -13.6319   21.8390 H   0  0  0  0  0  0
  -25.2742   -9.5658   22.4772 H   0  0  0  0  0  0
  -23.9978   -7.4616   22.7473 H   0  0  0  0  0  0
  -21.0821   -8.8764   19.8958 H   0  0  0  0  0  0
  -22.3682  -10.9664   19.6172 H   0  0  0  0  0  0
  -21.2004   -7.6144   23.9712 H   0  0  0  0  0  0
  -21.1482   -6.0526   25.9077 H   0  0  0  0  0  0
  -22.0598   -2.7607   23.2856 H   0  0  0  0  0  0
  -22.4121  -11.9913   22.4795 H   0  0  0  0  0  0
  -21.1118  -13.1275   22.2606 H   0  0  0  0  0  0
  -24.6732  -15.8442   20.5261 H   0  0  0  0  0  0
  -26.3035  -15.6272   20.1358 H   0  0  0  0  0  0
  -26.7118  -32.5555   23.1197 H   0  0  0  0  0  0
  -25.0084  -33.9794   25.0513 H   0  0  0  0  0  0
  -22.6849  -31.3127   21.4199 H   0  0  0  0  0  0
  -23.3739  -35.9676   23.3329 H   0  0  0  0  0  0
  -24.3588  -36.8909   22.2052 H   0  0  0  0  0  0
  -23.7270  -37.6550   23.6624 H   0  0  0  0  0  0
  -26.0342  -31.6154   20.5956 H   0  0  0  0  0  0
  -26.8123  -30.8973   21.9775 H   0  0  0  0  0  0
  -28.0965  -29.1345   21.1417 H   0  0  0  0  0  0
  -26.0576  -25.9954   18.9967 H   0  0  0  0  0  0
  -23.9686  -27.3000   19.0424 H   0  0  0  0  0  0
  -23.7013  -30.6038   19.4077 H   0  0  0  0  0  0
  -22.7251  -29.2466   19.8756 H   0  0  0  0  0  0
  -25.1282  -36.1979   25.0842 H   0  0  0  0  0  0
  -20.9962  -28.3197   24.1434 H   0  0  0  0  0  0
  -20.5735  -26.2247   23.3540 H   0  0  0  0  0  0
  -21.6656  -26.7471   22.1124 H   0  0  0  0  0  0
  -19.6615  -27.3281   20.6759 H   0  0  0  0  0  0
  -19.6922  -25.6346   21.1141 H   0  0  0  0  0  0
  -18.0517  -26.0080   22.9188 H   0  0  0  0  0  0
  -17.4171  -26.6505   21.4187 H   0  0  0  0  0  0
  -19.7939  -30.7279   24.2227 H   0  0  0  0  0  0
  -17.5014  -31.6275   24.5079 H   0  0  0  0  0  0
  -15.5350  -30.2950   23.7637 H   0  0  0  0  0  0
  -15.8684  -28.0760   22.7100 H   0  0  0  0  0  0
  -24.5918  -30.7048   25.7846 H   0  0  0  0  0  0
  -24.8945  -32.2854   26.4971 H   0  0  0  0  0  0
  -25.8126  -30.8853   27.0246 H   0  0  0  0  0  0
  -26.2841  -29.6837   24.1146 H   0  0  0  0  0  0
  -27.4079  -29.7270   25.4541 H   0  0  0  0  0  0
  -27.8662  -30.4404   23.9245 H   0  0  0  0  0  0
  -27.2702  -33.3585   26.2132 H   0  0  0  0  0  0
  -28.3846  -32.6897   25.0314 H   0  0  0  0  0  0
  -28.0762  -31.8394   26.5372 H   0  0  0  0  0  0
  -28.2611  -38.0096   24.7475 H   0  0  0  0  0  0
  -28.1046  -36.2629   24.6324 H   0  0  0  0  0  0
  -27.2293  -37.1520   25.8871 H   0  0  0  0  0  0
  -20.9299  -29.8775   21.7000 H   0  0  0  0  0  0
  -26.0189  -38.2875   24.1373 H   0  0  0  0  0  0
  -27.1057  -18.7931   18.1435 H   0  0  0  0  0  0
  -28.4971  -17.3982   21.9794 H   0  0  0  0  0  0
  -29.9264  -15.5617   18.3329 H   0  0  0  0  0  0
  -26.7793  -19.0735   21.8572 H   0  0  0  0  0  0
  -25.9249  -19.3433   20.3559 H   0  0  0  0  0  0
  -28.6497  -20.5872   21.0281 H   0  0  0  0  0  0
  -27.7278  -20.9033   19.5775 H   0  0  0  0  0  0
  -28.7653  -22.8276   21.8226 H   0  0  0  0  0  0
  -27.3187  -23.6220   22.3994 H   0  0  0  0  0  0
  -26.7224  -24.1211   19.9593 H   0  0  0  0  0  0
  -28.2922  -23.4817   19.5110 H   0  0  0  0  0  0
  -28.2853  -25.4034   19.5467 H   0  0  0  0  0  0
  -27.6180  -25.6259   21.3759 H   0  0  0  0  0  0
  -27.7492  -17.4622   16.1634 H   0  0  0  0  0  0
  -28.9001  -16.2235   16.2484 H   0  0  0  0  0  0
  -30.5930  -15.9715   21.7866 H   0  0  0  0  0  0
  1 25  1  0  0  0
  1 30  2  0  0  0
  1 84  1  0  0  0
  2  3  1  0  0  0
  2 25  1  0  0  0
  2 86  1  0  0  0
  2 87  1  0  0  0
  3  4  1  0  0  0
  3 88  1  0  0  0
  3 89  1  0  0  0
  4  5  1  0  0  0
  4 90  1  0  0  0
  4 91  1  0  0  0
  5  6  1  0  0  0
  5 26  1  0  0  0
  5 92  1  0  0  0
  6 25  1  0  0  0
  6 93  1  0  0  0
  6 94  1  0  0  0
  7  8  2  0  0  0
  7 26  1  0  0  0
  7 29  1  0  0  0
  8  9  1  0  0  0
  8 22  1  0  0  0
  9 10  1  0  0  0
  9 27  2  0  0  0
 10 11  2  0  0  0
 10 15  1  0  0  0
 11 12  1  0  0  0
 11 95  1  0  0  0
 12 13  2  0  0  0
 12 96  1  0  0  0
 13 14  1  0  0  0
 13 31  1  0  0  0
 14 15  2  0  0  0
 14 97  1  0  0  0
 15 98  1  0  0  0
 16 17  2  0  0  0
 16 21  1  0  0  0
 16 31  1  0  0  0
 17 18  1  0  0  0
 17 99  1  0  0  0
 18 19  2  0  0  0
 18100  1  0  0  0
 19 20  1  0  0  0
 19 24  1  0  0  0
 20 21  2  0  0  0
 20101  1  0  0  0
 21 23  1  0  0  0
 22 28  1  0  0  0
 22 32  2  0  0  0
 26 27  1  0  0  0
 28102  1  0  0  0
 28103  1  0  0  0
 29104  1  0  0  0
 29105  1  0  0  0
 33 34  1  0  0  0
 33 66  1  0  0  0
 33 70  2  0  0  0
 34 36  1  0  0  0
 34 59  1  0  0  0
 34106  1  0  0  0
 35 44  2  0  0  0
 35 45  1  0  0  0
 35 68  1  0  0  0
 36 56  1  0  0  0
 36107  1  0  0  0
 37 39  1  0  0  0
 37 47  1  0  0  0
 37 66  1  0  0  0
 37108  1  0  0  0
 38 43  2  0  0  0
 38 46  1  0  0  0
 38 47  1  0  0  0
 39 64  1  0  0  0
 39 67  2  0  0  0
 40 52  1  0  0  0
 40 53  2  0  0  0
 40 58  1  0  0  0
 41109  1  0  0  0
 41110  1  0  0  0
 41111  1  0  0  0
 41 48  1  0  0  0
 42 43  1  0  0  0
 42 66  1  0  0  0
 42112  1  0  0  0
 42113  1  0  0  0
 43 44  1  0  0  0
 44114  1  0  0  0
 45 46  2  0  0  0
 45115  1  0  0  0
 46116  1  0  0  0
 47117  1  0  0  0
 47118  1  0  0  0
 48 56  1  0  0  0
 48 65  1  0  0  0
 48119  1  0  0  0
 49 50  1  0  0  0
 49 53  1  0  0  0
 49 64  1  0  0  0
 49120  1  0  0  0
 50 51  1  0  0  0
 50121  1  0  0  0
 50122  1  0  0  0
 51 52  1  0  0  0
 51123  1  0  0  0
 51124  1  0  0  0
 52125  1  0  0  0
 52126  1  0  0  0
 53 54  1  0  0  0
 54 55  2  0  0  0
 54127  1  0  0  0
 55 57  1  0  0  0
 55128  1  0  0  0
 56 69  2  0  0  0
 57 58  2  0  0  0
 57129  1  0  0  0
 58130  1  0  0  0
 59 60  1  0  0  0
 59 61  1  0  0  0
 59 62  1  0  0  0
 60131  1  0  0  0
 60132  1  0  0  0
 60133  1  0  0  0
 61134  1  0  0  0
 61135  1  0  0  0
 61136  1  0  0  0
 62137  1  0  0  0
 62138  1  0  0  0
 62139  1  0  0  0
 63 65  1  0  0  0
 63140  1  0  0  0
 63141  1  0  0  0
 63142  1  0  0  0
 64143  1  0  0  0
 65144  1  0  0  0
 68 82  1  0  0  0
 71 74  2  0  0  0
 71 75  1  0  0  0
 71145  1  0  0  0
 72 74  1  0  0  0
 72 76  2  0  0  0
 72146  1  0  0  0
 73 75  2  0  0  0
 73 76  1  0  0  0
 73147  1  0  0  0
 74 78  1  0  0  0
 75 83  1  0  0  0
 76 84  1  0  0  0
 77 79  1  0  0  0
 77 80  1  0  0  0
 77 85  2  0  0  0
 78 79  1  0  0  0
 78148  1  0  0  0
 78149  1  0  0  0
 79150  1  0  0  0
 79151  1  0  0  0
 80 81  1  0  0  0
 80152  1  0  0  0
 80153  1  0  0  0
 81 82  1  0  0  0
 81154  1  0  0  0
 81155  1  0  0  0
 82156  1  0  0  0
 82157  1  0  0  0
 83158  1  0  0  0
 83159  1  0  0  0
 84160  1  0  0  0
M  ISO  4   1 100  68 101  82 101  84 100
M  END
> <chiral flag>
0

> <version>
0

> <s_m_source_file>
/data/baiqing/PycharmProjects/Reinvent-master-3.2/result/LINK_invent/BTK/process_docking_weight1_custom_product_contain_oxygen_bond_distance_aromatic_linkinvent_7_9_3/rearranged_h_0143.sdf

> <i_m_source_file_index>
98

> <r_mmod_Potential_Energy-OPLS-2005>
199.091415405273

> <r_mmod_Stretch_Energy-OPLS-2005>
33.4500961303711

> <r_mmod_Bend_Energy-OPLS-2005>
327.689147949219

> <r_mmod_Torsional_Energy-OPLS-2005>
275.764801025391

> <r_mmod_Improper_Torsional_Energy-OPLS-2005>
10.2209939956665

> <r_mmod_Van_der_Waal_Energy-OPLS-2005>
161.256530761719

> <r_mmod_Electrostatic_Energy-OPLS-2005>
-405.648071289062

> <r_mmod_Solvation_Energy-OPLS-2005>
-217.424301147461

> <b_mmod_Minimization_Converged-OPLS-2005>
0

> <r_mmod_RMS_Derivative-OPLS-2005>
1.99053144454956

$$$$
