0
                    3D
 Structure written by MMmdl.
153161  0  0  1  0            999 V2000
  -30.6258  -14.7240   20.4526 C   0  0  0  0  0  0
  -30.4230  -12.4399   19.4734 C   0  0  0  0  0  0
  -29.5048  -12.4994   18.2337 C   0  0  0  0  0  0
  -28.0303  -12.3310   18.6467 C   0  0  0  0  0  0
  -27.6381  -13.2325   19.8480 C   0  0  2  0  0  0
  -28.6819  -13.1710   20.9837 C   0  0  0  0  0  0
  -25.2492  -13.8198   20.5689 C   0  0  0  0  0  0
  -24.1792  -13.0444   20.9224 C   0  0  0  0  0  0
  -24.6385  -11.6924   20.8761 C   0  0  0  0  0  0
  -23.9064  -10.4295   21.0414 C   0  0  0  0  0  0
  -24.3619   -9.4210   21.9187 C   0  0  0  0  0  0
  -23.6297   -8.2245   22.0755 C   0  0  0  0  0  0
  -22.4278   -8.0280   21.3549 C   0  0  0  0  0  0
  -21.9913   -9.0251   20.4648 C   0  0  0  0  0  0
  -22.7240  -10.2133   20.3059 C   0  0  0  0  0  0
  -21.6853   -6.0734   22.5281 C   0  0  0  0  0  0
  -21.4010   -6.5640   23.8214 C   0  0  0  0  0  0
  -21.3661   -5.6794   24.9177 C   0  0  0  0  0  0
  -21.6046   -4.3057   24.7227 C   0  0  0  0  0  0
  -21.8819   -3.8148   23.4349 C   0  0  0  0  0  0
  -21.9192   -4.6962   22.3403 C   0  0  0  0  0  0
  -22.7815  -13.5225   21.1877 C   0  0  0  0  0  0
  -22.1663   -4.2149   21.0980 F   0  0  0  0  0  0
  -21.5629   -3.4541   25.7738 F   0  0  0  0  0  0
  -29.9820  -13.5100   20.3969 N   0  0  0  0  0  0
  -26.2913  -12.9411   20.3274 N   0  0  0  0  0  0
  -25.9312  -11.6552   20.5758 N   0  0  0  0  0  0
  -22.0462  -12.8210   22.0429 N   0  0  0  0  0  0
  -25.4173  -15.1917   20.4062 N   0  0  0  0  0  0
  -31.8207  -14.7930   20.1537 O   0  0  0  0  0  0
  -21.6643   -6.8877   21.4242 O   0  0  0  0  0  0
  -22.3499  -14.5531   20.6722 O   0  0  0  0  0  0
  -24.6295  -31.8546   23.1957 C   0  0  0  0  0  0
  -25.9122  -32.4746   23.8305 C   0  0  1  0  0  0
  -27.2266  -27.2727   20.1168 C   0  0  0  0  0  0
  -25.5926  -33.8549   24.2234 N   0  0  0  0  0  0
  -23.4247  -30.4754   21.5389 C   0  0  2  0  0  0
  -24.8706  -28.9183   20.1066 C   0  0  0  0  0  0
  -22.7487  -29.4595   22.4906 C   0  0  0  0  0  0
  -18.0290  -28.1387   22.8489 C   0  0  0  0  0  0
  -24.1491  -36.7271   23.2638 C   0  0  0  0  0  0
  -25.9677  -30.7714   21.3701 C   0  0  0  0  0  0
  -26.0398  -29.3945   20.7107 C   0  0  0  0  0  0
  -27.2151  -28.5827   20.7037 C   0  0  0  0  0  0
  -26.0245  -26.8432   19.5166 C   0  0  0  0  0  0
  -24.8671  -27.6502   19.5015 C   0  0  0  0  0  0
  -23.6406  -29.8047   20.1558 C   0  0  0  0  0  0
  -25.4118  -36.3057   24.0323 C   0  0  1  0  0  0
  -20.5891  -28.3690   23.1274 C   0  0  2  0  0  0
  -20.6772  -26.9409   22.5406 C   0  0  0  0  0  0
  -19.5750  -26.6381   21.5208 C   0  0  0  0  0  0
  -18.1932  -26.7930   22.1625 C   0  0  0  0  0  0
  -19.1543  -28.8857   23.2877 C   0  0  0  0  0  0
  -18.9469  -30.1460   23.8893 C   0  0  0  0  0  0
  -17.6469  -30.6589   24.0566 C   0  0  0  0  0  0
  -25.9060  -34.9434   23.5080 C   0  0  0  0  0  0
  -16.5359  -29.9090   23.6331 C   0  0  0  0  0  0
  -16.7277  -28.6506   23.0353 C   0  0  0  0  0  0
  -26.4497  -31.6578   25.0701 C   0  0  0  0  0  0
  -25.3718  -31.3736   26.1422 C   0  0  0  0  0  0
  -27.0335  -30.2996   24.6173 C   0  0  0  0  0  0
  -27.6052  -32.4317   25.7479 C   0  0  0  0  0  0
  -27.5577  -37.1786   24.8466 C   0  0  0  0  0  0
  -21.4194  -29.3038   22.3662 N   0  0  0  0  0  0
  -26.4284  -37.3762   23.9417 N   0  0  0  0  0  0
  -24.6932  -31.0520   22.0920 N   0  0  0  0  0  0
  -23.4198  -28.8140   23.3000 O   0  0  0  0  0  0
  -28.3652  -26.4445   20.2074 O   0  0  0  0  0  0
  -26.5635  -34.8917   22.4652 O   0  0  0  0  0  0
  -23.5446  -32.1358   23.7263 O   0  0  0  0  0  0
  -28.4989  -19.1041   21.0695 C   0  0  0  0  0  0
  -29.6630  -18.6608   20.4525 C   0  0  0  0  0  0
  -29.0984  -21.1977   20.1990 C   0  0  0  0  0  0
  -28.2991  -23.7370   20.1996 C   0  0  0  0  0  0
  -27.5748  -18.2601   21.8922 C   0  0  0  0  0  0
  -28.3016  -25.1640   17.9982 C   0  0  0  0  0  0
  -30.4636  -17.2941   20.4502 C   0  0  0  0  0  0
  -28.6351  -25.1453   19.5017 C   0  0  1  0  0  0
  -28.1981  -20.4994   20.9178 N   0  0  0  0  0  0
  -29.0782  -22.6402   19.8683 N   0  0  0  0  0  0
  -29.8908  -15.8899   20.6180 N   0  0  0  0  0  0
  -27.3655  -23.6686   21.0030 O   0  0  0  0  0  0
  -30.3805  -20.0785   19.6382 S   0  0  0  0  0  0
  -31.4665  -12.5509   19.1726 H   0  0  0  0  0  0
  -30.3553  -11.4650   19.9592 H   0  0  0  0  0  0
  -29.7838  -11.7249   17.5178 H   0  0  0  0  0  0
  -29.6373  -13.4532   17.7202 H   0  0  0  0  0  0
  -27.8820  -11.2826   18.9090 H   0  0  0  0  0  0
  -27.3741  -12.5258   17.7976 H   0  0  0  0  0  0
  -27.6322  -14.2533   19.4657 H   0  0  0  0  0  0
  -28.7118  -12.1771   21.4327 H   0  0  0  0  0  0
  -28.4233  -13.8635   21.7865 H   0  0  0  0  0  0
  -25.2757   -9.5687   22.4768 H   0  0  0  0  0  0
  -24.0005   -7.4632   22.7469 H   0  0  0  0  0  0
  -21.0849   -8.8767   19.8948 H   0  0  0  0  0  0
  -22.3694  -10.9674   19.6171 H   0  0  0  0  0  0
  -21.2001   -7.6148   23.9715 H   0  0  0  0  0  0
  -21.1485   -6.0525   25.9079 H   0  0  0  0  0  0
  -22.0597   -2.7609   23.2847 H   0  0  0  0  0  0
  -22.4083  -11.9868   22.4810 H   0  0  0  0  0  0
  -21.1077  -13.1227   22.2637 H   0  0  0  0  0  0
  -24.6402  -15.8373   20.4927 H   0  0  0  0  0  0
  -26.2446  -15.6197   20.0130 H   0  0  0  0  0  0
  -26.7185  -32.5393   23.1041 H   0  0  0  0  0  0
  -25.0084  -33.9692   25.0385 H   0  0  0  0  0  0
  -22.7203  -31.2964   21.3904 H   0  0  0  0  0  0
  -23.3757  -35.9599   23.3300 H   0  0  0  0  0  0
  -24.3581  -36.8892   22.2053 H   0  0  0  0  0  0
  -23.7242  -37.6470   23.6666 H   0  0  0  0  0  0
  -26.1029  -31.5323   20.6009 H   0  0  0  0  0  0
  -26.8469  -30.8201   22.0008 H   0  0  0  0  0  0
  -28.1131  -28.9437   21.1855 H   0  0  0  0  0  0
  -25.9386  -25.8528   19.1028 H   0  0  0  0  0  0
  -23.9636  -27.2691   19.0455 H   0  0  0  0  0  0
  -23.7634  -30.5789   19.3979 H   0  0  0  0  0  0
  -22.7593  -29.2361   19.8532 H   0  0  0  0  0  0
  -25.1299  -36.1889   25.0813 H   0  0  0  0  0  0
  -20.9993  -28.3261   24.1391 H   0  0  0  0  0  0
  -20.5664  -26.2298   23.3607 H   0  0  0  0  0  0
  -21.6640  -26.7424   22.1206 H   0  0  0  0  0  0
  -19.6919  -25.6292   21.1239 H   0  0  0  0  0  0
  -19.6698  -27.3192   20.6741 H   0  0  0  0  0  0
  -17.4198  -26.6672   21.4033 H   0  0  0  0  0  0
  -18.0343  -26.0070   22.9024 H   0  0  0  0  0  0
  -19.7946  -30.7274   24.2261 H   0  0  0  0  0  0
  -17.5026  -31.6273   24.5163 H   0  0  0  0  0  0
  -15.5360  -30.2996   23.7660 H   0  0  0  0  0  0
  -15.8671  -28.0827   22.7074 H   0  0  0  0  0  0
  -24.5915  -30.7058   25.7754 H   0  0  0  0  0  0
  -24.8886  -32.2905   26.4804 H   0  0  0  0  0  0
  -25.8034  -30.8953   27.0221 H   0  0  0  0  0  0
  -26.2909  -29.6752   24.1194 H   0  0  0  0  0  0
  -27.4020  -29.7253   25.4681 H   0  0  0  0  0  0
  -27.8782  -30.4274   23.9401 H   0  0  0  0  0  0
  -27.2672  -33.3639   26.2015 H   0  0  0  0  0  0
  -28.3887  -32.6833   25.0319 H   0  0  0  0  0  0
  -28.0686  -31.8459   26.5429 H   0  0  0  0  0  0
  -28.2576  -38.0101   24.7521 H   0  0  0  0  0  0
  -28.1087  -36.2629   24.6269 H   0  0  0  0  0  0
  -27.2298  -37.1396   25.8868 H   0  0  0  0  0  0
  -20.9370  -29.8760   21.6874 H   0  0  0  0  0  0
  -26.0155  -38.2827   24.1441 H   0  0  0  0  0  0
  -28.1277  -17.5665   22.5255 H   0  0  0  0  0  0
  -26.9126  -17.6715   21.2579 H   0  0  0  0  0  0
  -26.9471  -18.8654   22.5468 H   0  0  0  0  0  0
  -28.9141  -24.4404   17.4601 H   0  0  0  0  0  0
  -28.5051  -26.1432   17.5651 H   0  0  0  0  0  0
  -27.2673  -24.9023   17.7881 H   0  0  0  0  0  0
  -31.2342  -17.3834   21.2175 H   0  0  0  0  0  0
  -31.0242  -17.2688   19.5141 H   0  0  0  0  0  0
  -29.7257  -25.1511   19.5234 H   0  0  0  0  0  0
  -29.8221  -22.8931   19.2347 H   0  0  0  0  0  0
  -28.9045  -15.7956   20.8023 H   0  0  0  0  0  0
  1 25  1  0  0  0
  1 30  2  0  0  0
  1 81  1  0  0  0
  2  3  1  0  0  0
  2 25  1  0  0  0
  2 84  1  0  0  0
  2 85  1  0  0  0
  3  4  1  0  0  0
  3 86  1  0  0  0
  3 87  1  0  0  0
  4  5  1  0  0  0
  4 88  1  0  0  0
  4 89  1  0  0  0
  5  6  1  0  0  0
  5 26  1  0  0  0
  5 90  1  0  0  0
  6 25  1  0  0  0
  6 91  1  0  0  0
  6 92  1  0  0  0
  7  8  2  0  0  0
  7 26  1  0  0  0
  7 29  1  0  0  0
  8  9  1  0  0  0
  8 22  1  0  0  0
  9 10  1  0  0  0
  9 27  2  0  0  0
 10 11  2  0  0  0
 10 15  1  0  0  0
 11 12  1  0  0  0
 11 93  1  0  0  0
 12 13  2  0  0  0
 12 94  1  0  0  0
 13 14  1  0  0  0
 13 31  1  0  0  0
 14 15  2  0  0  0
 14 95  1  0  0  0
 15 96  1  0  0  0
 16 17  2  0  0  0
 16 21  1  0  0  0
 16 31  1  0  0  0
 17 18  1  0  0  0
 17 97  1  0  0  0
 18 19  2  0  0  0
 18 98  1  0  0  0
 19 20  1  0  0  0
 19 24  1  0  0  0
 20 21  2  0  0  0
 20 99  1  0  0  0
 21 23  1  0  0  0
 22 28  1  0  0  0
 22 32  2  0  0  0
 26 27  1  0  0  0
 28100  1  0  0  0
 28101  1  0  0  0
 29102  1  0  0  0
 29103  1  0  0  0
 33 34  1  0  0  0
 33 66  1  0  0  0
 33 70  2  0  0  0
 34 36  1  0  0  0
 34 59  1  0  0  0
 34104  1  0  0  0
 35 44  2  0  0  0
 35 45  1  0  0  0
 35 68  1  0  0  0
 36 56  1  0  0  0
 36105  1  0  0  0
 37 39  1  0  0  0
 37 47  1  0  0  0
 37 66  1  0  0  0
 37106  1  0  0  0
 38 43  2  0  0  0
 38 46  1  0  0  0
 38 47  1  0  0  0
 39 64  1  0  0  0
 39 67  2  0  0  0
 40 52  1  0  0  0
 40 53  2  0  0  0
 40 58  1  0  0  0
 41107  1  0  0  0
 41108  1  0  0  0
 41109  1  0  0  0
 41 48  1  0  0  0
 42 43  1  0  0  0
 42 66  1  0  0  0
 42110  1  0  0  0
 42111  1  0  0  0
 43 44  1  0  0  0
 44112  1  0  0  0
 45 46  2  0  0  0
 45113  1  0  0  0
 46114  1  0  0  0
 47115  1  0  0  0
 47116  1  0  0  0
 48 56  1  0  0  0
 48 65  1  0  0  0
 48117  1  0  0  0
 49 50  1  0  0  0
 49 53  1  0  0  0
 49 64  1  0  0  0
 49118  1  0  0  0
 50 51  1  0  0  0
 50119  1  0  0  0
 50120  1  0  0  0
 51 52  1  0  0  0
 51121  1  0  0  0
 51122  1  0  0  0
 52123  1  0  0  0
 52124  1  0  0  0
 53 54  1  0  0  0
 54 55  2  0  0  0
 54125  1  0  0  0
 55 57  1  0  0  0
 55126  1  0  0  0
 56 69  2  0  0  0
 57 58  2  0  0  0
 57127  1  0  0  0
 58128  1  0  0  0
 59 60  1  0  0  0
 59 61  1  0  0  0
 59 62  1  0  0  0
 60129  1  0  0  0
 60130  1  0  0  0
 60131  1  0  0  0
 61132  1  0  0  0
 61133  1  0  0  0
 61134  1  0  0  0
 62135  1  0  0  0
 62136  1  0  0  0
 62137  1  0  0  0
 63 65  1  0  0  0
 63138  1  0  0  0
 63139  1  0  0  0
 63140  1  0  0  0
 64141  1  0  0  0
 65142  1  0  0  0
 68 78  1  0  0  0
 71 72  2  0  0  0
 71 75  1  0  0  0
 71 79  1  0  0  0
 72 77  1  0  0  0
 72 83  1  0  0  0
 73 79  2  0  0  0
 73 80  1  0  0  0
 73 83  1  0  0  0
 74 78  1  0  0  0
 74 80  1  0  0  0
 74 82  2  0  0  0
 75143  1  0  0  0
 75144  1  0  0  0
 75145  1  0  0  0
 76146  1  0  0  0
 76147  1  0  0  0
 76148  1  0  0  0
 76 78  1  0  0  0
 77 81  1  0  0  0
 77149  1  0  0  0
 77150  1  0  0  0
 78151  1  0  0  0
 80152  1  0  0  0
 81153  1  0  0  0
M  ISO  4   1 100  68 101  78 101  81 100
M  END
> <chiral flag>
0

> <version>
0

> <s_m_source_file>
/data/baiqing/PycharmProjects/Reinvent-master-3.2/result/LINK_invent/BTK/process_docking_weight1_custom_product_contain_oxygen_bond_distance_aromatic_linkinvent_7_9_3/rearranged_h_0181.sdf

> <i_m_source_file_index>
1

> <r_mmod_Potential_Energy-OPLS-2005>
28.953727722168

> <r_mmod_Stretch_Energy-OPLS-2005>
108.086158752441

> <r_mmod_Bend_Energy-OPLS-2005>
221.51985168457

> <r_mmod_Torsional_Energy-OPLS-2005>
202.276611328125

> <r_mmod_Improper_Torsional_Energy-OPLS-2005>
5.7061824798584

> <r_mmod_Van_der_Waal_Energy-OPLS-2005>
109.752449035645

> <r_mmod_Electrostatic_Energy-OPLS-2005>
-437.361358642578

> <r_mmod_Solvation_Energy-OPLS-2005>
-257.200775146484

> <b_mmod_Minimization_Converged-OPLS-2005>
0

> <r_mmod_RMS_Derivative-OPLS-2005>
0.888943493366241

$$$$
1
                    3D
 Structure written by MMmdl.
152160  0  0  1  0            999 V2000
  -30.6428  -14.7562   20.4621 C   0  0  0  0  0  0
  -30.4260  -12.4728   19.4606 C   0  0  0  0  0  0
  -29.5038  -12.5012   18.2245 C   0  0  0  0  0  0
  -28.0340  -12.3174   18.6477 C   0  0  0  0  0  0
  -27.6332  -13.2348   19.8343 C   0  0  2  0  0  0
  -28.6820  -13.2112   20.9664 C   0  0  0  0  0  0
  -25.2473  -13.8198   20.5674 C   0  0  0  0  0  0
  -24.1780  -13.0437   20.9203 C   0  0  0  0  0  0
  -24.6375  -11.6916   20.8737 C   0  0  0  0  0  0
  -23.9062  -10.4292   21.0392 C   0  0  0  0  0  0
  -24.3622   -9.4210   21.9166 C   0  0  0  0  0  0
  -23.6298   -8.2242   22.0745 C   0  0  0  0  0  0
  -22.4283   -8.0281   21.3540 C   0  0  0  0  0  0
  -21.9914   -9.0249   20.4638 C   0  0  0  0  0  0
  -22.7235  -10.2130   20.3040 C   0  0  0  0  0  0
  -21.6866   -6.0731   22.5271 C   0  0  0  0  0  0
  -21.4022   -6.5631   23.8200 C   0  0  0  0  0  0
  -21.3660   -5.6787   24.9163 C   0  0  0  0  0  0
  -21.6046   -4.3043   24.7216 C   0  0  0  0  0  0
  -21.8817   -3.8135   23.4338 C   0  0  0  0  0  0
  -21.9195   -4.6955   22.3391 C   0  0  0  0  0  0
  -22.7804  -13.5211   21.1855 C   0  0  0  0  0  0
  -22.1661   -4.2138   21.0976 F   0  0  0  0  0  0
  -21.5629   -3.4528   25.7728 F   0  0  0  0  0  0
  -29.9748  -13.5548   20.3655 N   0  0  0  0  0  0
  -26.2896  -12.9406   20.3218 N   0  0  0  0  0  0
  -25.9306  -11.6548   20.5728 N   0  0  0  0  0  0
  -22.0455  -12.8214   22.0425 N   0  0  0  0  0  0
  -25.4139  -15.1932   20.4101 N   0  0  0  0  0  0
  -31.8532  -14.7678   20.2195 O   0  0  0  0  0  0
  -21.6643   -6.8881   21.4239 O   0  0  0  0  0  0
  -22.3496  -14.5513   20.6693 O   0  0  0  0  0  0
  -24.6284  -31.8553   23.1978 C   0  0  0  0  0  0
  -25.9110  -32.4760   23.8321 C   0  0  1  0  0  0
  -27.2131  -27.2652   20.1371 C   0  0  0  0  0  0
  -25.5901  -33.8562   24.2235 N   0  0  0  0  0  0
  -23.4247  -30.4757   21.5424 C   0  0  2  0  0  0
  -24.8731  -28.9197   20.1121 C   0  0  0  0  0  0
  -22.7481  -29.4583   22.4928 C   0  0  0  0  0  0
  -18.0277  -28.1365   22.8479 C   0  0  0  0  0  0
  -24.1493  -36.7294   23.2647 C   0  0  0  0  0  0
  -25.9694  -30.7687   21.3782 C   0  0  0  0  0  0
  -26.0434  -29.3903   20.7234 C   0  0  0  0  0  0
  -27.2204  -28.5752   20.7236 C   0  0  0  0  0  0
  -26.0288  -26.8610   19.4910 C   0  0  0  0  0  0
  -24.8707  -27.6634   19.4842 C   0  0  0  0  0  0
  -23.6427  -29.8068   20.1588 C   0  0  0  0  0  0
  -25.4124  -36.3082   24.0326 C   0  0  1  0  0  0
  -20.5879  -28.3668   23.1278 C   0  0  2  0  0  0
  -20.6759  -26.9388   22.5410 C   0  0  0  0  0  0
  -19.5745  -26.6362   21.5201 C   0  0  0  0  0  0
  -18.1923  -26.7907   22.1608 C   0  0  0  0  0  0
  -19.1530  -28.8834   23.2877 C   0  0  0  0  0  0
  -18.9459  -30.1435   23.8900 C   0  0  0  0  0  0
  -17.6462  -30.6580   24.0552 C   0  0  0  0  0  0
  -25.9057  -34.9449   23.5097 C   0  0  0  0  0  0
  -16.5351  -29.9078   23.6319 C   0  0  0  0  0  0
  -16.7268  -28.6486   23.0355 C   0  0  0  0  0  0
  -26.4498  -31.6585   25.0703 C   0  0  0  0  0  0
  -25.3723  -31.3767   26.1434 C   0  0  0  0  0  0
  -27.0304  -30.2986   24.6192 C   0  0  0  0  0  0
  -27.6034  -32.4340   25.7478 C   0  0  0  0  0  0
  -27.5590  -37.1804   24.8462 C   0  0  0  0  0  0
  -21.4183  -29.3023   22.3679 N   0  0  0  0  0  0
  -26.4304  -37.3779   23.9408 N   0  0  0  0  0  0
  -24.6932  -31.0513   22.0963 N   0  0  0  0  0  0
  -23.4189  -28.8124   23.3028 O   0  0  0  0  0  0
  -28.3024  -26.3690   20.1440 O   0  0  0  0  0  0
  -26.5651  -34.8927   22.4681 O   0  0  0  0  0  0
  -23.5437  -32.1385   23.7272 O   0  0  0  0  0  0
  -29.6287  -18.5545   20.4957 C   0  0  0  0  0  0
  -28.7572  -19.0033   19.5089 C   0  0  0  0  0  0
  -29.0751  -21.1160   20.4834 C   0  0  0  0  0  0
  -30.4009  -17.2300   20.7816 C   0  0  0  0  0  0
  -28.4053  -23.6659   20.1017 C   0  0  0  0  0  0
  -28.1768  -18.1630   18.4109 C   0  0  0  0  0  0
  -27.0378  -24.9558   21.8562 C   0  0  0  0  0  0
  -28.2418  -25.0583   20.8962 C   0  0  2  0  0  0
  -28.4548  -20.4074   19.5201 N   0  0  0  0  0  0
  -28.9146  -22.5636   20.7741 N   0  0  0  0  0  0
  -29.9143  -15.9431   20.5658 N   0  0  0  0  0  0
  -31.5313  -17.3847   21.2576 O   0  0  0  0  0  0
  -28.0632  -23.6133   18.9171 O   0  0  0  0  0  0
  -30.0790  -19.9931   21.4644 S   0  0  0  0  0  0
  -31.4650  -12.5931   19.1479 H   0  0  0  0  0  0
  -30.3766  -11.5069   19.9644 H   0  0  0  0  0  0
  -29.7919  -11.7214   17.5191 H   0  0  0  0  0  0
  -29.6196  -13.4491   17.6964 H   0  0  0  0  0  0
  -27.9037  -11.2716   18.9289 H   0  0  0  0  0  0
  -27.3725  -12.4835   17.7969 H   0  0  0  0  0  0
  -27.6137  -14.2466   19.4296 H   0  0  0  0  0  0
  -28.7237  -12.2289   21.4384 H   0  0  0  0  0  0
  -28.4186  -13.9257   21.7501 H   0  0  0  0  0  0
  -25.2768   -9.5687   22.4742 H   0  0  0  0  0  0
  -24.0000   -7.4636   22.7468 H   0  0  0  0  0  0
  -21.0837   -8.8763   19.8960 H   0  0  0  0  0  0
  -22.3675  -10.9668   19.6152 H   0  0  0  0  0  0
  -21.2029   -7.6142   23.9700 H   0  0  0  0  0  0
  -21.1486   -6.0514   25.9064 H   0  0  0  0  0  0
  -22.0604   -2.7596   23.2833 H   0  0  0  0  0  0
  -22.4088  -11.9913   22.4872 H   0  0  0  0  0  0
  -21.1059  -13.1220   22.2596 H   0  0  0  0  0  0
  -24.6408  -15.8414   20.5167 H   0  0  0  0  0  0
  -26.2539  -15.6355   20.0652 H   0  0  0  0  0  0
  -26.7158  -32.5423   23.1048 H   0  0  0  0  0  0
  -24.9967  -33.9693   25.0322 H   0  0  0  0  0  0
  -22.7225  -31.2995   21.3962 H   0  0  0  0  0  0
  -23.3757  -35.9625   23.3311 H   0  0  0  0  0  0
  -24.3584  -36.8926   22.2063 H   0  0  0  0  0  0
  -23.7236  -37.6484   23.6685 H   0  0  0  0  0  0
  -26.1090  -31.5293   20.6093 H   0  0  0  0  0  0
  -26.8460  -30.8182   22.0121 H   0  0  0  0  0  0
  -28.1187  -28.9301   21.2103 H   0  0  0  0  0  0
  -25.9947  -25.8945   19.0097 H   0  0  0  0  0  0
  -23.9747  -27.2996   18.9998 H   0  0  0  0  0  0
  -23.7661  -30.5831   19.4024 H   0  0  0  0  0  0
  -22.7611  -29.2387   19.8550 H   0  0  0  0  0  0
  -25.1315  -36.1931   25.0819 H   0  0  0  0  0  0
  -20.9966  -28.3232   24.1401 H   0  0  0  0  0  0
  -20.5608  -26.2286   23.3613 H   0  0  0  0  0  0
  -21.6639  -26.7387   22.1244 H   0  0  0  0  0  0
  -19.6909  -25.6267   21.1251 H   0  0  0  0  0  0
  -19.6694  -27.3154   20.6719 H   0  0  0  0  0  0
  -17.4190  -26.6643   21.4015 H   0  0  0  0  0  0
  -18.0339  -26.0044   22.9003 H   0  0  0  0  0  0
  -19.7940  -30.7237   24.2285 H   0  0  0  0  0  0
  -17.5022  -31.6268   24.5143 H   0  0  0  0  0  0
  -15.5352  -30.2989   23.7641 H   0  0  0  0  0  0
  -15.8662  -28.0807   22.7085 H   0  0  0  0  0  0
  -24.5824  -30.7213   25.7750 H   0  0  0  0  0  0
  -24.9007  -32.2956   26.4919 H   0  0  0  0  0  0
  -25.8015  -30.8852   27.0167 H   0  0  0  0  0  0
  -26.2858  -29.6766   24.1204 H   0  0  0  0  0  0
  -27.3950  -29.7250   25.4719 H   0  0  0  0  0  0
  -27.8782  -30.4242   23.9451 H   0  0  0  0  0  0
  -27.2602  -33.3633   26.2058 H   0  0  0  0  0  0
  -28.3838  -32.6928   25.0310 H   0  0  0  0  0  0
  -28.0704  -31.8466   26.5397 H   0  0  0  0  0  0
  -28.2597  -38.0108   24.7515 H   0  0  0  0  0  0
  -28.1093  -36.2638   24.6283 H   0  0  0  0  0  0
  -27.2315  -37.1453   25.8865 H   0  0  0  0  0  0
  -20.9356  -29.8792   21.6932 H   0  0  0  0  0  0
  -26.0180  -38.2856   24.1398 H   0  0  0  0  0  0
  -27.8624  -17.1864   18.7768 H   0  0  0  0  0  0
  -28.9024  -17.9983   17.6143 H   0  0  0  0  0  0
  -27.3054  -18.6331   17.9562 H   0  0  0  0  0  0
  -26.9738  -25.8218   22.5144 H   0  0  0  0  0  0
  -27.1114  -24.0726   22.4922 H   0  0  0  0  0  0
  -26.0970  -24.8739   21.3140 H   0  0  0  0  0  0
  -29.1229  -25.1072   21.5362 H   0  0  0  0  0  0
  -29.2451  -22.8086   21.6967 H   0  0  0  0  0  0
  -28.9199  -15.8649   20.4437 H   0  0  0  0  0  0
  1 25  1  0  0  0
  1 30  2  0  0  0
  1 81  1  0  0  0
  2  3  1  0  0  0
  2 25  1  0  0  0
  2 85  1  0  0  0
  2 86  1  0  0  0
  3  4  1  0  0  0
  3 87  1  0  0  0
  3 88  1  0  0  0
  4  5  1  0  0  0
  4 89  1  0  0  0
  4 90  1  0  0  0
  5  6  1  0  0  0
  5 26  1  0  0  0
  5 91  1  0  0  0
  6 25  1  0  0  0
  6 92  1  0  0  0
  6 93  1  0  0  0
  7  8  2  0  0  0
  7 26  1  0  0  0
  7 29  1  0  0  0
  8  9  1  0  0  0
  8 22  1  0  0  0
  9 10  1  0  0  0
  9 27  2  0  0  0
 10 11  2  0  0  0
 10 15  1  0  0  0
 11 12  1  0  0  0
 11 94  1  0  0  0
 12 13  2  0  0  0
 12 95  1  0  0  0
 13 14  1  0  0  0
 13 31  1  0  0  0
 14 15  2  0  0  0
 14 96  1  0  0  0
 15 97  1  0  0  0
 16 17  2  0  0  0
 16 21  1  0  0  0
 16 31  1  0  0  0
 17 18  1  0  0  0
 17 98  1  0  0  0
 18 19  2  0  0  0
 18 99  1  0  0  0
 19 20  1  0  0  0
 19 24  1  0  0  0
 20 21  2  0  0  0
 20100  1  0  0  0
 21 23  1  0  0  0
 22 28  1  0  0  0
 22 32  2  0  0  0
 26 27  1  0  0  0
 28101  1  0  0  0
 28102  1  0  0  0
 29103  1  0  0  0
 29104  1  0  0  0
 33 34  1  0  0  0
 33 66  1  0  0  0
 33 70  2  0  0  0
 34 36  1  0  0  0
 34 59  1  0  0  0
 34105  1  0  0  0
 35 44  2  0  0  0
 35 45  1  0  0  0
 35 68  1  0  0  0
 36 56  1  0  0  0
 36106  1  0  0  0
 37 39  1  0  0  0
 37 47  1  0  0  0
 37 66  1  0  0  0
 37107  1  0  0  0
 38 43  2  0  0  0
 38 46  1  0  0  0
 38 47  1  0  0  0
 39 64  1  0  0  0
 39 67  2  0  0  0
 40 52  1  0  0  0
 40 53  2  0  0  0
 40 58  1  0  0  0
 41108  1  0  0  0
 41109  1  0  0  0
 41110  1  0  0  0
 41 48  1  0  0  0
 42 43  1  0  0  0
 42 66  1  0  0  0
 42111  1  0  0  0
 42112  1  0  0  0
 43 44  1  0  0  0
 44113  1  0  0  0
 45 46  2  0  0  0
 45114  1  0  0  0
 46115  1  0  0  0
 47116  1  0  0  0
 47117  1  0  0  0
 48 56  1  0  0  0
 48 65  1  0  0  0
 48118  1  0  0  0
 49 50  1  0  0  0
 49 53  1  0  0  0
 49 64  1  0  0  0
 49119  1  0  0  0
 50 51  1  0  0  0
 50120  1  0  0  0
 50121  1  0  0  0
 51 52  1  0  0  0
 51122  1  0  0  0
 51123  1  0  0  0
 52124  1  0  0  0
 52125  1  0  0  0
 53 54  1  0  0  0
 54 55  2  0  0  0
 54126  1  0  0  0
 55 57  1  0  0  0
 55127  1  0  0  0
 56 69  2  0  0  0
 57 58  2  0  0  0
 57128  1  0  0  0
 58129  1  0  0  0
 59 60  1  0  0  0
 59 61  1  0  0  0
 59 62  1  0  0  0
 60130  1  0  0  0
 60131  1  0  0  0
 60132  1  0  0  0
 61133  1  0  0  0
 61134  1  0  0  0
 61135  1  0  0  0
 62136  1  0  0  0
 62137  1  0  0  0
 62138  1  0  0  0
 63 65  1  0  0  0
 63139  1  0  0  0
 63140  1  0  0  0
 63141  1  0  0  0
 64142  1  0  0  0
 65143  1  0  0  0
 68 78  1  0  0  0
 71 72  2  0  0  0
 71 74  1  0  0  0
 71 84  1  0  0  0
 72 76  1  0  0  0
 72 79  1  0  0  0
 73 79  2  0  0  0
 73 80  1  0  0  0
 73 84  1  0  0  0
 74 81  1  0  0  0
 74 82  2  0  0  0
 75 78  1  0  0  0
 75 80  1  0  0  0
 75 83  2  0  0  0
 76144  1  0  0  0
 76145  1  0  0  0
 76146  1  0  0  0
 77147  1  0  0  0
 77148  1  0  0  0
 77149  1  0  0  0
 77 78  1  0  0  0
 78150  1  0  0  0
 80151  1  0  0  0
 81152  1  0  0  0
M  ISO  4   1 100  68 101  78 101  81 100
M  END
> <chiral flag>
0

> <version>
0

> <s_m_source_file>
/data/baiqing/PycharmProjects/Reinvent-master-3.2/result/LINK_invent/BTK/process_docking_weight1_custom_product_contain_oxygen_bond_distance_aromatic_linkinvent_7_9_3/rearranged_h_0181.sdf

> <i_m_source_file_index>
2

> <r_mmod_Potential_Energy-OPLS-2005>
26.0954856872559

> <r_mmod_Stretch_Energy-OPLS-2005>
116.528198242188

> <r_mmod_Bend_Energy-OPLS-2005>
184.331558227539

> <r_mmod_Torsional_Energy-OPLS-2005>
262.918121337891

> <r_mmod_Improper_Torsional_Energy-OPLS-2005>
6.91080570220947

> <r_mmod_Van_der_Waal_Energy-OPLS-2005>
116.718032836914

> <r_mmod_Electrostatic_Energy-OPLS-2005>
-481.940765380859

> <r_mmod_Solvation_Energy-OPLS-2005>
-269.811798095703

> <b_mmod_Minimization_Converged-OPLS-2005>
0

> <r_mmod_RMS_Derivative-OPLS-2005>
2.1177294254303

$$$$
2
                    3D
 Structure written by MMmdl.
160168  0  0  1  0            999 V2000
  -30.6742  -14.5262   20.5120 C   0  0  0  0  0  0
  -30.4265  -12.3218   19.4488 C   0  0  0  0  0  0
  -29.5064  -12.4925   18.2191 C   0  0  0  0  0  0
  -28.0242  -12.3570   18.6236 C   0  0  0  0  0  0
  -27.6566  -13.2128   19.8651 C   0  0  2  0  0  0
  -28.6952  -13.0323   20.9967 C   0  0  0  0  0  0
  -25.2563  -13.8172   20.5658 C   0  0  0  0  0  0
  -24.1821  -13.0452   20.9182 C   0  0  0  0  0  0
  -24.6378  -11.6916   20.8717 C   0  0  0  0  0  0
  -23.9053  -10.4301   21.0401 C   0  0  0  0  0  0
  -24.3615   -9.4218   21.9178 C   0  0  0  0  0  0
  -23.6297   -8.2247   22.0745 C   0  0  0  0  0  0
  -22.4271   -8.0283   21.3543 C   0  0  0  0  0  0
  -21.9902   -9.0251   20.4647 C   0  0  0  0  0  0
  -22.7228  -10.2134   20.3055 C   0  0  0  0  0  0
  -21.6849   -6.0742   22.5285 C   0  0  0  0  0  0
  -21.4010   -6.5641   23.8219 C   0  0  0  0  0  0
  -21.3659   -5.6791   24.9174 C   0  0  0  0  0  0
  -21.6043   -4.3053   24.7230 C   0  0  0  0  0  0
  -21.8817   -3.8150   23.4344 C   0  0  0  0  0  0
  -21.9184   -4.6971   22.3400 C   0  0  0  0  0  0
  -22.7841  -13.5244   21.1847 C   0  0  0  0  0  0
  -22.1658   -4.2162   21.0981 F   0  0  0  0  0  0
  -21.5633   -3.4538   25.7745 F   0  0  0  0  0  0
  -30.0269  -13.3290   20.4469 N   0  0  0  0  0  0
  -26.2995  -12.9348   20.3293 N   0  0  0  0  0  0
  -25.9305  -11.6506   20.5728 N   0  0  0  0  0  0
  -22.0469  -12.8239   22.0409 N   0  0  0  0  0  0
  -25.4296  -15.1897   20.4086 N   0  0  0  0  0  0
  -31.8327  -14.6663   20.1070 O   0  0  0  0  0  0
  -21.6630   -6.8879   21.4244 O   0  0  0  0  0  0
  -22.3522  -14.5549   20.6705 O   0  0  0  0  0  0
  -24.6189  -31.8669   23.2098 C   0  0  0  0  0  0
  -25.9072  -32.4817   23.8389 C   0  0  1  0  0  0
  -27.2170  -27.3837   20.0919 C   0  0  0  0  0  0
  -25.5926  -33.8619   24.2321 N   0  0  0  0  0  0
  -23.4078  -30.4938   21.5516 C   0  0  2  0  0  0
  -24.8504  -28.9627   20.1109 C   0  0  0  0  0  0
  -22.7433  -29.4651   22.4965 C   0  0  0  0  0  0
  -18.0277  -28.1369   22.8485 C   0  0  0  0  0  0
  -24.1493  -36.7300   23.2636 C   0  0  0  0  0  0
  -25.9460  -30.8125   21.3765 C   0  0  0  0  0  0
  -26.0167  -29.4471   20.7162 C   0  0  0  0  0  0
  -27.2014  -28.6647   20.7062 C   0  0  0  0  0  0
  -26.0300  -26.9448   19.4555 C   0  0  0  0  0  0
  -24.8550  -27.7129   19.4769 C   0  0  0  0  0  0
  -23.6180  -29.8366   20.1636 C   0  0  0  0  0  0
  -25.4118  -36.3105   24.0331 C   0  0  1  0  0  0
  -20.5872  -28.3665   23.1302 C   0  0  2  0  0  0
  -20.6767  -26.9398   22.5412 C   0  0  0  0  0  0
  -19.5750  -26.6379   21.5201 C   0  0  0  0  0  0
  -18.1926  -26.7917   22.1610 C   0  0  0  0  0  0
  -19.1529  -28.8832   23.2892 C   0  0  0  0  0  0
  -18.9456  -30.1435   23.8913 C   0  0  0  0  0  0
  -17.6460  -30.6582   24.0561 C   0  0  0  0  0  0
  -25.9046  -34.9472   23.5118 C   0  0  0  0  0  0
  -16.5350  -29.9083   23.6327 C   0  0  0  0  0  0
  -16.7264  -28.6491   23.0359 C   0  0  0  0  0  0
  -26.4486  -31.6608   25.0735 C   0  0  0  0  0  0
  -25.3738  -31.3738   26.1476 C   0  0  0  0  0  0
  -27.0326  -30.3042   24.6151 C   0  0  0  0  0  0
  -27.6063  -32.4334   25.7490 C   0  0  0  0  0  0
  -27.5585  -37.1806   24.8465 C   0  0  0  0  0  0
  -21.4156  -29.3037   22.3713 N   0  0  0  0  0  0
  -26.4303  -37.3792   23.9405 N   0  0  0  0  0  0
  -24.6758  -31.0726   22.1030 N   0  0  0  0  0  0
  -23.4192  -28.8177   23.3003 O   0  0  0  0  0  0
  -28.3556  -26.5846   20.1364 O   0  0  0  0  0  0
  -26.5603  -34.8924   22.4678 O   0  0  0  0  0  0
  -23.5370  -32.1451   23.7458 O   0  0  0  0  0  0
  -30.1445  -17.0156   18.9040 C   0  0  0  0  0  0
  -29.7781  -19.4026   19.0604 C   0  0  0  0  0  0
  -30.0650  -18.2752   18.2707 C   0  0  0  0  0  0
  -29.9236  -16.9011   20.2936 C   0  0  0  0  0  0
  -29.5813  -19.2422   20.4367 C   0  0  0  0  0  0
  -30.3087  -18.4324   16.7956 C   0  0  0  0  0  0
  -29.1742  -24.2183   20.4998 C   0  0  0  0  0  0
  -31.3598  -21.7037   20.7316 C   0  0  0  0  0  0
  -28.9916  -22.6878   20.2443 C   0  0  0  0  0  0
  -28.1845  -25.1767   19.7948 C   0  0  0  0  0  0
  -29.8629  -21.7094   21.1081 C   0  0  1  0  0  0
  -29.6228  -18.0167   21.0251 N   0  0  0  0  0  0
  -30.2055  -17.3301   16.0666 N   0  0  0  0  0  0
  -29.9227  -15.5923   20.8861 N   0  0  0  0  0  0
  -29.3110  -20.3411   21.2770 N   0  0  0  0  0  0
  -30.5455  -19.5282   16.2848 O   0  0  0  0  0  0
  -30.0512  -24.6523   21.2537 O   0  0  0  0  0  0
  -31.4758  -12.4098   19.1590 H   0  0  0  0  0  0
  -30.3244  -11.3222   19.8710 H   0  0  0  0  0  0
  -29.7545  -11.7502   17.4601 H   0  0  0  0  0  0
  -29.6782  -13.4665   17.7582 H   0  0  0  0  0  0
  -27.8325  -11.3034   18.8308 H   0  0  0  0  0  0
  -27.3810  -12.6195   17.7838 H   0  0  0  0  0  0
  -27.6878  -14.2542   19.5433 H   0  0  0  0  0  0
  -28.6705  -12.0102   21.3755 H   0  0  0  0  0  0
  -28.4537  -13.6678   21.8496 H   0  0  0  0  0  0
  -25.2763   -9.5702   22.4741 H   0  0  0  0  0  0
  -24.0028   -7.4624   22.7444 H   0  0  0  0  0  0
  -21.0842   -8.8769   19.8935 H   0  0  0  0  0  0
  -22.3695  -10.9671   19.6160 H   0  0  0  0  0  0
  -21.2006   -7.6149   23.9732 H   0  0  0  0  0  0
  -21.1482   -6.0516   25.9083 H   0  0  0  0  0  0
  -22.0596   -2.7622   23.2835 H   0  0  0  0  0  0
  -22.4078  -11.9936   22.4863 H   0  0  0  0  0  0
  -21.1078  -13.1265   22.2576 H   0  0  0  0  0  0
  -24.6676  -15.8492   20.5177 H   0  0  0  0  0  0
  -26.2860  -15.6260   20.0924 H   0  0  0  0  0  0
  -26.7135  -32.5502   23.1136 H   0  0  0  0  0  0
  -25.0107  -33.9787   25.0487 H   0  0  0  0  0  0
  -22.6970  -31.3122   21.4155 H   0  0  0  0  0  0
  -23.3757  -35.9629   23.3315 H   0  0  0  0  0  0
  -24.3586  -36.8901   22.2047 H   0  0  0  0  0  0
  -23.7239  -37.6504   23.6647 H   0  0  0  0  0  0
  -26.0759  -31.5800   20.6126 H   0  0  0  0  0  0
  -26.8274  -30.8551   22.0047 H   0  0  0  0  0  0
  -28.0964  -29.0285   21.1912 H   0  0  0  0  0  0
  -25.9731  -26.0043   18.9281 H   0  0  0  0  0  0
  -23.9621  -27.3392   18.9940 H   0  0  0  0  0  0
  -23.7358  -30.6167   19.4105 H   0  0  0  0  0  0
  -22.7382  -29.2658   19.8607 H   0  0  0  0  0  0
  -25.1295  -36.1969   25.0823 H   0  0  0  0  0  0
  -20.9956  -28.3226   24.1423 H   0  0  0  0  0  0
  -20.5659  -26.2271   23.3599 H   0  0  0  0  0  0
  -21.6641  -26.7438   22.1214 H   0  0  0  0  0  0
  -19.6918  -25.6288   21.1235 H   0  0  0  0  0  0
  -19.6694  -27.3186   20.6727 H   0  0  0  0  0  0
  -17.4198  -26.6663   21.4011 H   0  0  0  0  0  0
  -18.0333  -26.0057   22.9004 H   0  0  0  0  0  0
  -19.7936  -30.7239   24.2294 H   0  0  0  0  0  0
  -17.5023  -31.6266   24.5149 H   0  0  0  0  0  0
  -15.5352  -30.2993   23.7639 H   0  0  0  0  0  0
  -15.8661  -28.0810   22.7086 H   0  0  0  0  0  0
  -24.5888  -30.7118   25.7803 H   0  0  0  0  0  0
  -24.8961  -32.2911   26.4930 H   0  0  0  0  0  0
  -25.8072  -30.8886   27.0230 H   0  0  0  0  0  0
  -26.2887  -29.6796   24.1194 H   0  0  0  0  0  0
  -27.4066  -29.7292   25.4629 H   0  0  0  0  0  0
  -27.8739  -30.4347   23.9342 H   0  0  0  0  0  0
  -27.2681  -33.3615   26.2113 H   0  0  0  0  0  0
  -28.3842  -32.6930   25.0298 H   0  0  0  0  0  0
  -28.0773  -31.8440   26.5368 H   0  0  0  0  0  0
  -28.2612  -38.0095   24.7513 H   0  0  0  0  0  0
  -28.1074  -36.2628   24.6295 H   0  0  0  0  0  0
  -27.2310  -37.1462   25.8871 H   0  0  0  0  0  0
  -20.9309  -29.8779   21.6963 H   0  0  0  0  0  0
  -26.0188  -38.2870   24.1406 H   0  0  0  0  0  0
  -30.3711  -16.1366   18.3189 H   0  0  0  0  0  0
  -29.7172  -20.3763   18.5972 H   0  0  0  0  0  0
  -31.7917  -22.7021   20.8025 H   0  0  0  0  0  0
  -31.5341  -21.3490   19.7167 H   0  0  0  0  0  0
  -31.9316  -21.0665   21.4059 H   0  0  0  0  0  0
  -29.1494  -22.4954   19.1834 H   0  0  0  0  0  0
  -27.9386  -22.4748   20.4281 H   0  0  0  0  0  0
  -27.1992  -24.8180   20.0907 H   0  0  0  0  0  0
  -28.2724  -25.0523   18.7152 H   0  0  0  0  0  0
  -29.8292  -22.1130   22.1225 H   0  0  0  0  0  0
  -29.9916  -16.4589   16.5243 H   0  0  0  0  0  0
  -30.3435  -17.3595   15.0678 H   0  0  0  0  0  0
  -29.1049  -15.3787   21.4340 H   0  0  0  0  0  0
  -29.1279  -20.0820   22.2409 H   0  0  0  0  0  0
  1 25  1  0  0  0
  1 30  2  0  0  0
  1 84  1  0  0  0
  2  3  1  0  0  0
  2 25  1  0  0  0
  2 88  1  0  0  0
  2 89  1  0  0  0
  3  4  1  0  0  0
  3 90  1  0  0  0
  3 91  1  0  0  0
  4  5  1  0  0  0
  4 92  1  0  0  0
  4 93  1  0  0  0
  5  6  1  0  0  0
  5 26  1  0  0  0
  5 94  1  0  0  0
  6 25  1  0  0  0
  6 95  1  0  0  0
  6 96  1  0  0  0
  7  8  2  0  0  0
  7 26  1  0  0  0
  7 29  1  0  0  0
  8  9  1  0  0  0
  8 22  1  0  0  0
  9 10  1  0  0  0
  9 27  2  0  0  0
 10 11  2  0  0  0
 10 15  1  0  0  0
 11 12  1  0  0  0
 11 97  1  0  0  0
 12 13  2  0  0  0
 12 98  1  0  0  0
 13 14  1  0  0  0
 13 31  1  0  0  0
 14 15  2  0  0  0
 14 99  1  0  0  0
 15100  1  0  0  0
 16 17  2  0  0  0
 16 21  1  0  0  0
 16 31  1  0  0  0
 17 18  1  0  0  0
 17101  1  0  0  0
 18 19  2  0  0  0
 18102  1  0  0  0
 19 20  1  0  0  0
 19 24  1  0  0  0
 20 21  2  0  0  0
 20103  1  0  0  0
 21 23  1  0  0  0
 22 28  1  0  0  0
 22 32  2  0  0  0
 26 27  1  0  0  0
 28104  1  0  0  0
 28105  1  0  0  0
 29106  1  0  0  0
 29107  1  0  0  0
 33 34  1  0  0  0
 33 66  1  0  0  0
 33 70  2  0  0  0
 34 36  1  0  0  0
 34 59  1  0  0  0
 34108  1  0  0  0
 35 44  2  0  0  0
 35 45  1  0  0  0
 35 68  1  0  0  0
 36 56  1  0  0  0
 36109  1  0  0  0
 37 39  1  0  0  0
 37 47  1  0  0  0
 37 66  1  0  0  0
 37110  1  0  0  0
 38 43  2  0  0  0
 38 46  1  0  0  0
 38 47  1  0  0  0
 39 64  1  0  0  0
 39 67  2  0  0  0
 40 52  1  0  0  0
 40 53  2  0  0  0
 40 58  1  0  0  0
 41111  1  0  0  0
 41112  1  0  0  0
 41113  1  0  0  0
 41 48  1  0  0  0
 42 43  1  0  0  0
 42 66  1  0  0  0
 42114  1  0  0  0
 42115  1  0  0  0
 43 44  1  0  0  0
 44116  1  0  0  0
 45 46  2  0  0  0
 45117  1  0  0  0
 46118  1  0  0  0
 47119  1  0  0  0
 47120  1  0  0  0
 48 56  1  0  0  0
 48 65  1  0  0  0
 48121  1  0  0  0
 49 50  1  0  0  0
 49 53  1  0  0  0
 49 64  1  0  0  0
 49122  1  0  0  0
 50 51  1  0  0  0
 50123  1  0  0  0
 50124  1  0  0  0
 51 52  1  0  0  0
 51125  1  0  0  0
 51126  1  0  0  0
 52127  1  0  0  0
 52128  1  0  0  0
 53 54  1  0  0  0
 54 55  2  0  0  0
 54129  1  0  0  0
 55 57  1  0  0  0
 55130  1  0  0  0
 56 69  2  0  0  0
 57 58  2  0  0  0
 57131  1  0  0  0
 58132  1  0  0  0
 59 60  1  0  0  0
 59 61  1  0  0  0
 59 62  1  0  0  0
 60133  1  0  0  0
 60134  1  0  0  0
 60135  1  0  0  0
 61136  1  0  0  0
 61137  1  0  0  0
 61138  1  0  0  0
 62139  1  0  0  0
 62140  1  0  0  0
 62141  1  0  0  0
 63 65  1  0  0  0
 63142  1  0  0  0
 63143  1  0  0  0
 63144  1  0  0  0
 64145  1  0  0  0
 65146  1  0  0  0
 68 80  1  0  0  0
 71 73  2  0  0  0
 71 74  1  0  0  0
 71147  1  0  0  0
 72 73  1  0  0  0
 72 75  2  0  0  0
 72148  1  0  0  0
 73 76  1  0  0  0
 74 82  2  0  0  0
 74 84  1  0  0  0
 75 82  1  0  0  0
 75 85  1  0  0  0
 76 83  1  0  0  0
 76 86  2  0  0  0
 77 79  1  0  0  0
 77 80  1  0  0  0
 77 87  2  0  0  0
 78149  1  0  0  0
 78150  1  0  0  0
 78151  1  0  0  0
 78 81  1  0  0  0
 79 81  1  0  0  0
 79152  1  0  0  0
 79153  1  0  0  0
 80154  1  0  0  0
 80155  1  0  0  0
 81 85  1  0  0  0
 81156  1  0  0  0
 83157  1  0  0  0
 83158  1  0  0  0
 84159  1  0  0  0
 85160  1  0  0  0
M  ISO  4   1 100  68 101  80 101  84 100
M  END
> <chiral flag>
0

> <version>
0

> <s_m_source_file>
/data/baiqing/PycharmProjects/Reinvent-master-3.2/result/LINK_invent/BTK/process_docking_weight1_custom_product_contain_oxygen_bond_distance_aromatic_linkinvent_7_9_3/rearranged_h_0181.sdf

> <i_m_source_file_index>
3

> <r_mmod_Potential_Energy-OPLS-2005>
-423.165130615234

> <r_mmod_Stretch_Energy-OPLS-2005>
49.7768058776855

> <r_mmod_Bend_Energy-OPLS-2005>
121.748908996582

> <r_mmod_Torsional_Energy-OPLS-2005>
228.3671875

> <r_mmod_Improper_Torsional_Energy-OPLS-2005>
7.40994644165039

> <r_mmod_Van_der_Waal_Energy-OPLS-2005>
161.837417602539

> <r_mmod_Electrostatic_Energy-OPLS-2005>
-729.691772460938

> <r_mmod_Solvation_Energy-OPLS-2005>
-287.272766113281

> <b_mmod_Minimization_Converged-OPLS-2005>
0

> <r_mmod_RMS_Derivative-OPLS-2005>
2.11148762702942

$$$$
3
                    3D
 Structure written by MMmdl.
153161  0  0  1  0            999 V2000
  -30.5940  -14.7823   20.4255 C   0  0  0  0  0  0
  -30.4323  -12.4698   19.4868 C   0  0  0  0  0  0
  -29.5157  -12.5032   18.2434 C   0  0  0  0  0  0
  -28.0400  -12.3272   18.6516 C   0  0  0  0  0  0
  -27.6377  -13.2357   19.8447 C   0  0  2  0  0  0
  -28.6791  -13.1903   20.9833 C   0  0  0  0  0  0
  -25.2485  -13.8209   20.5678 C   0  0  0  0  0  0
  -24.1785  -13.0446   20.9203 C   0  0  0  0  0  0
  -24.6385  -11.6925   20.8741 C   0  0  0  0  0  0
  -23.9066  -10.4300   21.0401 C   0  0  0  0  0  0
  -24.3621   -9.4215   21.9177 C   0  0  0  0  0  0
  -23.6297   -8.2247   22.0753 C   0  0  0  0  0  0
  -22.4283   -8.0276   21.3542 C   0  0  0  0  0  0
  -21.9908   -9.0252   20.4654 C   0  0  0  0  0  0
  -22.7233  -10.2134   20.3056 C   0  0  0  0  0  0
  -21.6856   -6.0731   22.5280 C   0  0  0  0  0  0
  -21.4020   -6.5639   23.8212 C   0  0  0  0  0  0
  -21.3661   -5.6794   24.9171 C   0  0  0  0  0  0
  -21.6046   -4.3057   24.7227 C   0  0  0  0  0  0
  -21.8817   -3.8145   23.4348 C   0  0  0  0  0  0
  -21.9192   -4.6957   22.3401 C   0  0  0  0  0  0
  -22.7806  -13.5221   21.1856 C   0  0  0  0  0  0
  -22.1654   -4.2141   21.0977 F   0  0  0  0  0  0
  -21.5629   -3.4537   25.7738 F   0  0  0  0  0  0
  -29.9783  -13.5462   20.4008 N   0  0  0  0  0  0
  -26.2909  -12.9423   20.3236 N   0  0  0  0  0  0
  -25.9315  -11.6563   20.5732 N   0  0  0  0  0  0
  -22.0454  -12.8225   22.0428 N   0  0  0  0  0  0
  -25.4168  -15.1932   20.4104 N   0  0  0  0  0  0
  -31.8026  -14.8374   20.1785 O   0  0  0  0  0  0
  -21.6646   -6.8873   21.4241 O   0  0  0  0  0  0
  -22.3483  -14.5510   20.6671 O   0  0  0  0  0  0
  -24.6328  -31.8534   23.1953 C   0  0  0  0  0  0
  -25.9141  -32.4744   23.8317 C   0  0  1  0  0  0
  -27.2191  -27.2451   20.1437 C   0  0  0  0  0  0
  -25.5922  -33.8546   24.2233 N   0  0  0  0  0  0
  -23.4310  -30.4739   21.5388 C   0  0  2  0  0  0
  -24.8791  -28.9117   20.1154 C   0  0  0  0  0  0
  -22.7513  -29.4593   22.4901 C   0  0  0  0  0  0
  -18.0296  -28.1390   22.8484 C   0  0  0  0  0  0
  -24.1488  -36.7281   23.2643 C   0  0  0  0  0  0
  -25.9784  -30.7611   21.3784 C   0  0  0  0  0  0
  -26.0519  -29.3807   20.7225 C   0  0  0  0  0  0
  -27.2290  -28.5624   20.7184 C   0  0  0  0  0  0
  -26.0258  -26.8403   19.5139 C   0  0  0  0  0  0
  -24.8717  -27.6501   19.4983 C   0  0  0  0  0  0
  -23.6516  -29.8026   20.1573 C   0  0  0  0  0  0
  -25.4114  -36.3061   24.0325 C   0  0  1  0  0  0
  -20.5902  -28.3704   23.1261 C   0  0  2  0  0  0
  -20.6779  -26.9418   22.5408 C   0  0  0  0  0  0
  -19.5754  -26.6379   21.5214 C   0  0  0  0  0  0
  -18.1935  -26.7931   22.1628 C   0  0  0  0  0  0
  -19.1550  -28.8863   23.2867 C   0  0  0  0  0  0
  -18.9469  -30.1462   23.8887 C   0  0  0  0  0  0
  -17.6467  -30.6591   24.0562 C   0  0  0  0  0  0
  -25.9055  -34.9434   23.5085 C   0  0  0  0  0  0
  -16.5358  -29.9086   23.6333 C   0  0  0  0  0  0
  -16.7282  -28.6503   23.0356 C   0  0  0  0  0  0
  -26.4489  -31.6584   25.0726 C   0  0  0  0  0  0
  -25.3693  -31.3763   26.1438 C   0  0  0  0  0  0
  -27.0342  -30.2989   24.6252 C   0  0  0  0  0  0
  -27.6025  -32.4344   25.7510 C   0  0  0  0  0  0
  -27.5580  -37.1794   24.8462 C   0  0  0  0  0  0
  -21.4218  -29.3044   22.3642 N   0  0  0  0  0  0
  -26.4287  -37.3762   23.9411 N   0  0  0  0  0  0
  -24.6995  -31.0483   22.0935 N   0  0  0  0  0  0
  -23.4204  -28.8142   23.3017 O   0  0  0  0  0  0
  -28.3049  -26.3405   20.1429 O   0  0  0  0  0  0
  -26.5640  -34.8915   22.4663 O   0  0  0  0  0  0
  -23.5471  -32.1363   23.7235 O   0  0  0  0  0  0
  -30.9274  -18.8376   18.3975 C   0  0  0  0  0  0
  -30.3098  -19.9500   18.9949 C   0  0  0  0  0  0
  -30.7479  -17.5416   18.9199 C   0  0  0  0  0  0
  -29.4933  -19.7665   20.1164 C   0  0  0  0  0  0
  -29.9770  -17.3378   20.0968 C   0  0  0  0  0  0
  -28.5629  -23.6320   20.0430 C   0  0  0  0  0  0
  -30.7180  -22.5098   20.9580 C   0  0  0  0  0  0
  -28.1216  -24.9901   20.7976 C   0  0  0  0  0  0
  -29.1873  -22.3555   20.8607 C   0  0  2  0  0  0
  -29.3392  -18.4750   20.6375 N   0  0  0  0  0  0
  -29.8104  -15.9304   20.5877 N   0  0  0  0  0  0
  -28.7490  -20.9035   20.6210 N   0  0  0  0  0  0
  -28.4251  -23.5746   18.8177 O   0  0  0  0  0  0
  -31.2808  -16.5077   18.2262 F   0  0  0  0  0  0
  -31.4746  -12.5913   19.1873 H   0  0  0  0  0  0
  -30.3778  -11.4995   19.9828 H   0  0  0  0  0  0
  -29.8060  -11.7231   17.5381 H   0  0  0  0  0  0
  -29.6432  -13.4520   17.7204 H   0  0  0  0  0  0
  -27.8981  -11.2803   18.9225 H   0  0  0  0  0  0
  -27.3875  -12.5100   17.7971 H   0  0  0  0  0  0
  -27.6259  -14.2532   19.4526 H   0  0  0  0  0  0
  -28.7181  -12.1988   21.4366 H   0  0  0  0  0  0
  -28.4079  -13.8813   21.7830 H   0  0  0  0  0  0
  -25.2772   -9.5690   22.4740 H   0  0  0  0  0  0
  -24.0010   -7.4645   22.7475 H   0  0  0  0  0  0
  -21.0836   -8.8776   19.8967 H   0  0  0  0  0  0
  -22.3694  -10.9665   19.6162 H   0  0  0  0  0  0
  -21.2019   -7.6148   23.9710 H   0  0  0  0  0  0
  -21.1483   -6.0524   25.9073 H   0  0  0  0  0  0
  -22.0594   -2.7603   23.2851 H   0  0  0  0  0  0
  -22.4089  -11.9915   22.4856 H   0  0  0  0  0  0
  -21.1063  -13.1241   22.2614 H   0  0  0  0  0  0
  -24.6457  -15.8424   20.5221 H   0  0  0  0  0  0
  -26.2573  -15.6363   20.0633 H   0  0  0  0  0  0
  -26.7219  -32.5384   23.1066 H   0  0  0  0  0  0
  -25.0031  -33.9677   25.0353 H   0  0  0  0  0  0
  -22.7290  -31.2964   21.3889 H   0  0  0  0  0  0
  -23.3752  -35.9612   23.3293 H   0  0  0  0  0  0
  -24.3580  -36.8920   22.2061 H   0  0  0  0  0  0
  -23.7240  -37.6476   23.6679 H   0  0  0  0  0  0
  -26.1237  -31.5208   20.6092 H   0  0  0  0  0  0
  -26.8527  -30.8076   22.0160 H   0  0  0  0  0  0
  -28.1310  -28.9195   21.1956 H   0  0  0  0  0  0
  -25.9812  -25.8701   19.0389 H   0  0  0  0  0  0
  -23.9743  -27.2844   19.0177 H   0  0  0  0  0  0
  -23.7806  -30.5761   19.3993 H   0  0  0  0  0  0
  -22.7689  -29.2375   19.8514 H   0  0  0  0  0  0
  -25.1299  -36.1901   25.0818 H   0  0  0  0  0  0
  -21.0002  -28.3286   24.1379 H   0  0  0  0  0  0
  -20.5674  -26.2318   23.3617 H   0  0  0  0  0  0
  -21.6645  -26.7428   22.1203 H   0  0  0  0  0  0
  -19.6911  -25.6284   21.1254 H   0  0  0  0  0  0
  -19.6691  -27.3180   20.6736 H   0  0  0  0  0  0
  -17.4204  -26.6679   21.4034 H   0  0  0  0  0  0
  -18.0334  -26.0076   22.9028 H   0  0  0  0  0  0
  -19.7944  -30.7280   24.2252 H   0  0  0  0  0  0
  -17.5021  -31.6271   24.5165 H   0  0  0  0  0  0
  -15.5357  -30.2986   23.7655 H   0  0  0  0  0  0
  -15.8685  -28.0815   22.7079 H   0  0  0  0  0  0
  -24.5845  -30.7143   25.7759 H   0  0  0  0  0  0
  -24.8912  -32.2952   26.4844 H   0  0  0  0  0  0
  -25.7979  -30.8937   27.0229 H   0  0  0  0  0  0
  -26.2949  -29.6743   24.1225 H   0  0  0  0  0  0
  -27.3944  -29.7251   25.4803 H   0  0  0  0  0  0
  -27.8858  -30.4246   23.9563 H   0  0  0  0  0  0
  -27.2601  -33.3635   26.2079 H   0  0  0  0  0  0
  -28.3833  -32.6928   25.0346 H   0  0  0  0  0  0
  -28.0698  -31.8488   26.5437 H   0  0  0  0  0  0
  -28.2580  -38.0106   24.7512 H   0  0  0  0  0  0
  -28.1089  -36.2634   24.6270 H   0  0  0  0  0  0
  -27.2305  -37.1426   25.8866 H   0  0  0  0  0  0
  -20.9408  -29.8760   21.6836 H   0  0  0  0  0  0
  -26.0162  -38.2835   24.1408 H   0  0  0  0  0  0
  -31.5140  -18.9714   17.5008 H   0  0  0  0  0  0
  -30.4206  -20.9233   18.5395 H   0  0  0  0  0  0
  -30.9863  -23.4886   21.3574 H   0  0  0  0  0  0
  -31.2047  -22.4257   19.9876 H   0  0  0  0  0  0
  -31.1548  -21.7638   21.6221 H   0  0  0  0  0  0
  -28.6604  -25.0181   21.7443 H   0  0  0  0  0  0
  -27.0724  -24.8709   21.0693 H   0  0  0  0  0  0
  -28.8423  -22.5149   21.8835 H   0  0  0  0  0  0
  -28.9083  -15.7480   20.9941 H   0  0  0  0  0  0
  -28.0052  -20.6316   21.2544 H   0  0  0  0  0  0
  1 25  1  0  0  0
  1 30  2  0  0  0
  1 81  1  0  0  0
  2  3  1  0  0  0
  2 25  1  0  0  0
  2 85  1  0  0  0
  2 86  1  0  0  0
  3  4  1  0  0  0
  3 87  1  0  0  0
  3 88  1  0  0  0
  4  5  1  0  0  0
  4 89  1  0  0  0
  4 90  1  0  0  0
  5  6  1  0  0  0
  5 26  1  0  0  0
  5 91  1  0  0  0
  6 25  1  0  0  0
  6 92  1  0  0  0
  6 93  1  0  0  0
  7  8  2  0  0  0
  7 26  1  0  0  0
  7 29  1  0  0  0
  8  9  1  0  0  0
  8 22  1  0  0  0
  9 10  1  0  0  0
  9 27  2  0  0  0
 10 11  2  0  0  0
 10 15  1  0  0  0
 11 12  1  0  0  0
 11 94  1  0  0  0
 12 13  2  0  0  0
 12 95  1  0  0  0
 13 14  1  0  0  0
 13 31  1  0  0  0
 14 15  2  0  0  0
 14 96  1  0  0  0
 15 97  1  0  0  0
 16 17  2  0  0  0
 16 21  1  0  0  0
 16 31  1  0  0  0
 17 18  1  0  0  0
 17 98  1  0  0  0
 18 19  2  0  0  0
 18 99  1  0  0  0
 19 20  1  0  0  0
 19 24  1  0  0  0
 20 21  2  0  0  0
 20100  1  0  0  0
 21 23  1  0  0  0
 22 28  1  0  0  0
 22 32  2  0  0  0
 26 27  1  0  0  0
 28101  1  0  0  0
 28102  1  0  0  0
 29103  1  0  0  0
 29104  1  0  0  0
 33 34  1  0  0  0
 33 66  1  0  0  0
 33 70  2  0  0  0
 34 36  1  0  0  0
 34 59  1  0  0  0
 34105  1  0  0  0
 35 44  2  0  0  0
 35 45  1  0  0  0
 35 68  1  0  0  0
 36 56  1  0  0  0
 36106  1  0  0  0
 37 39  1  0  0  0
 37 47  1  0  0  0
 37 66  1  0  0  0
 37107  1  0  0  0
 38 43  2  0  0  0
 38 46  1  0  0  0
 38 47  1  0  0  0
 39 64  1  0  0  0
 39 67  2  0  0  0
 40 52  1  0  0  0
 40 53  2  0  0  0
 40 58  1  0  0  0
 41108  1  0  0  0
 41109  1  0  0  0
 41110  1  0  0  0
 41 48  1  0  0  0
 42 43  1  0  0  0
 42 66  1  0  0  0
 42111  1  0  0  0
 42112  1  0  0  0
 43 44  1  0  0  0
 44113  1  0  0  0
 45 46  2  0  0  0
 45114  1  0  0  0
 46115  1  0  0  0
 47116  1  0  0  0
 47117  1  0  0  0
 48 56  1  0  0  0
 48 65  1  0  0  0
 48118  1  0  0  0
 49 50  1  0  0  0
 49 53  1  0  0  0
 49 64  1  0  0  0
 49119  1  0  0  0
 50 51  1  0  0  0
 50120  1  0  0  0
 50121  1  0  0  0
 51 52  1  0  0  0
 51122  1  0  0  0
 51123  1  0  0  0
 52124  1  0  0  0
 52125  1  0  0  0
 53 54  1  0  0  0
 54 55  2  0  0  0
 54126  1  0  0  0
 55 57  1  0  0  0
 55127  1  0  0  0
 56 69  2  0  0  0
 57 58  2  0  0  0
 57128  1  0  0  0
 58129  1  0  0  0
 59 60  1  0  0  0
 59 61  1  0  0  0
 59 62  1  0  0  0
 60130  1  0  0  0
 60131  1  0  0  0
 60132  1  0  0  0
 61133  1  0  0  0
 61134  1  0  0  0
 61135  1  0  0  0
 62136  1  0  0  0
 62137  1  0  0  0
 62138  1  0  0  0
 63 65  1  0  0  0
 63139  1  0  0  0
 63140  1  0  0  0
 63141  1  0  0  0
 64142  1  0  0  0
 65143  1  0  0  0
 68 78  1  0  0  0
 71 72  2  0  0  0
 71 73  1  0  0  0
 71144  1  0  0  0
 72 74  1  0  0  0
 72145  1  0  0  0
 73 75  2  0  0  0
 73 84  1  0  0  0
 74 80  2  0  0  0
 74 82  1  0  0  0
 75 80  1  0  0  0
 75 81  1  0  0  0
 76 78  1  0  0  0
 76 79  1  0  0  0
 76 83  2  0  0  0
 77146  1  0  0  0
 77147  1  0  0  0
 77148  1  0  0  0
 77 79  1  0  0  0
 78149  1  0  0  0
 78150  1  0  0  0
 79 82  1  0  0  0
 79151  1  0  0  0
 81152  1  0  0  0
 82153  1  0  0  0
M  ISO  4   1 100  68 101  78 101  81 100
M  END
> <chiral flag>
0

> <version>
0

> <s_m_source_file>
/data/baiqing/PycharmProjects/Reinvent-master-3.2/result/LINK_invent/BTK/process_docking_weight1_custom_product_contain_oxygen_bond_distance_aromatic_linkinvent_7_9_3/rearranged_h_0181.sdf

> <i_m_source_file_index>
4

> <r_mmod_Potential_Energy-OPLS-2005>
63.8816413879395

> <r_mmod_Stretch_Energy-OPLS-2005>
144.851409912109

> <r_mmod_Bend_Energy-OPLS-2005>
194.06413269043

> <r_mmod_Torsional_Energy-OPLS-2005>
259.923706054688

> <r_mmod_Improper_Torsional_Energy-OPLS-2005>
6.13078308105469

> <r_mmod_Van_der_Waal_Energy-OPLS-2005>
137.025573730469

> <r_mmod_Electrostatic_Energy-OPLS-2005>
-525.964782714844

> <r_mmod_Solvation_Energy-OPLS-2005>
-251.381607055664

> <b_mmod_Minimization_Converged-OPLS-2005>
0

> <r_mmod_RMS_Derivative-OPLS-2005>
1.16332006454468

$$$$
4
                    3D
 Structure written by MMmdl.
156164  0  0  1  0            999 V2000
  -30.6202  -14.7461   20.4581 C   0  0  0  0  0  0
  -30.4284  -12.4461   19.4951 C   0  0  0  0  0  0
  -29.5182  -12.5123   18.2482 C   0  0  0  0  0  0
  -28.0424  -12.3352   18.6522 C   0  0  0  0  0  0
  -27.6451  -13.2338   19.8542 C   0  0  2  0  0  0
  -28.6850  -13.1713   20.9965 C   0  0  0  0  0  0
  -25.2515  -13.8197   20.5679 C   0  0  0  0  0  0
  -24.1803  -13.0432   20.9194 C   0  0  0  0  0  0
  -24.6395  -11.6914   20.8733 C   0  0  0  0  0  0
  -23.9076  -10.4288   21.0405 C   0  0  0  0  0  0
  -24.3621   -9.4207   21.9188 C   0  0  0  0  0  0
  -23.6288   -8.2245   22.0760 C   0  0  0  0  0  0
  -22.4276   -8.0280   21.3546 C   0  0  0  0  0  0
  -21.9909   -9.0258   20.4656 C   0  0  0  0  0  0
  -22.7243  -10.2133   20.3065 C   0  0  0  0  0  0
  -21.6847   -6.0735   22.5277 C   0  0  0  0  0  0
  -21.4015   -6.5646   23.8211 C   0  0  0  0  0  0
  -21.3657   -5.6801   24.9177 C   0  0  0  0  0  0
  -21.6038   -4.3063   24.7226 C   0  0  0  0  0  0
  -21.8815   -3.8149   23.4350 C   0  0  0  0  0  0
  -21.9190   -4.6961   22.3407 C   0  0  0  0  0  0
  -22.7833  -13.5225   21.1847 C   0  0  0  0  0  0
  -22.1660   -4.2147   21.0981 F   0  0  0  0  0  0
  -21.5623   -3.4552   25.7739 F   0  0  0  0  0  0
  -29.9945  -13.5162   20.4280 N   0  0  0  0  0  0
  -26.2953  -12.9409   20.3287 N   0  0  0  0  0  0
  -25.9332  -11.6546   20.5736 N   0  0  0  0  0  0
  -22.0476  -12.8228   22.0413 N   0  0  0  0  0  0
  -25.4183  -15.1916   20.4103 N   0  0  0  0  0  0
  -31.7888  -14.8400   20.0753 O   0  0  0  0  0  0
  -21.6639   -6.8877   21.4238 O   0  0  0  0  0  0
  -22.3527  -14.5519   20.6669 O   0  0  0  0  0  0
  -24.6351  -31.8565   23.2043 C   0  0  0  0  0  0
  -25.9170  -32.4761   23.8367 C   0  0  1  0  0  0
  -27.1910  -27.2123   20.1327 C   0  0  0  0  0  0
  -25.5943  -33.8564   24.2270 N   0  0  0  0  0  0
  -23.4320  -30.4852   21.5493 C   0  0  2  0  0  0
  -24.8801  -28.9460   20.1068 C   0  0  0  0  0  0
  -22.7512  -29.4623   22.4913 C   0  0  0  0  0  0
  -18.0305  -28.1389   22.8492 C   0  0  0  0  0  0
  -24.1497  -36.7284   23.2641 C   0  0  0  0  0  0
  -25.9862  -30.7457   21.4065 C   0  0  0  0  0  0
  -26.0515  -29.3666   20.7500 C   0  0  0  0  0  0
  -27.2068  -28.5057   20.7726 C   0  0  0  0  0  0
  -26.0433  -26.9608   19.3533 C   0  0  0  0  0  0
  -24.8834  -27.7470   19.3930 C   0  0  0  0  0  0
  -23.6532  -29.8344   20.1618 C   0  0  0  0  0  0
  -25.4118  -36.3063   24.0331 C   0  0  1  0  0  0
  -20.5914  -28.3712   23.1257 C   0  0  2  0  0  0
  -20.6804  -26.9426   22.5396 C   0  0  0  0  0  0
  -19.5768  -26.6391   21.5212 C   0  0  0  0  0  0
  -18.1954  -26.7934   22.1626 C   0  0  0  0  0  0
  -19.1562  -28.8863   23.2870 C   0  0  0  0  0  0
  -18.9488  -30.1463   23.8885 C   0  0  0  0  0  0
  -17.6488  -30.6587   24.0561 C   0  0  0  0  0  0
  -25.9060  -34.9440   23.5097 C   0  0  0  0  0  0
  -16.5378  -29.9082   23.6337 C   0  0  0  0  0  0
  -16.7295  -28.6502   23.0360 C   0  0  0  0  0  0
  -26.4519  -31.6592   25.0769 C   0  0  0  0  0  0
  -25.3724  -31.3771   26.1474 C   0  0  0  0  0  0
  -27.0372  -30.2992   24.6313 C   0  0  0  0  0  0
  -27.6059  -32.4341   25.7546 C   0  0  0  0  0  0
  -27.5578  -37.1802   24.8461 C   0  0  0  0  0  0
  -21.4219  -29.3068   22.3646 N   0  0  0  0  0  0
  -26.4288  -37.3764   23.9405 N   0  0  0  0  0  0
  -24.7034  -31.0487   22.1071 N   0  0  0  0  0  0
  -23.4193  -28.8157   23.3015 O   0  0  0  0  0  0
  -28.2117  -26.2105   20.1813 O   0  0  0  0  0  0
  -26.5638  -34.8911   22.4669 O   0  0  0  0  0  0
  -23.5487  -32.1424   23.7301 O   0  0  0  0  0  0
  -30.6657  -19.0793   21.7728 C   0  0  0  0  0  0
  -29.9598  -18.6766   20.6626 C   0  0  0  0  0  0
  -29.5221  -21.0480   20.6978 C   0  0  0  0  0  0
  -29.0909  -23.6572   20.6417 C   0  0  0  0  0  0
  -26.4843  -23.6409   18.7311 C   0  0  0  0  0  0
  -25.9818  -22.9997   21.1476 C   0  0  0  0  0  0
  -30.0033  -17.2464   19.9737 C   0  0  0  0  0  0
  -27.8957  -24.7637   20.6343 C   0  0  1  0  0  0
  -26.5272  -24.1015   20.2071 C   0  0  0  0  0  0
  -29.2926  -19.8325   20.0941 N   0  0  0  0  0  0
  -28.8546  -22.3189   20.3296 N   0  0  0  0  0  0
  -29.8680  -15.8910   20.6831 N   0  0  0  0  0  0
  -30.2281  -24.0354   20.9376 O   0  0  0  0  0  0
  -30.5834  -20.8215   22.0859 S   0  0  0  0  0  0
  -31.4758  -12.5449   19.2050 H   0  0  0  0  0  0
  -30.3438  -11.4673   19.9709 H   0  0  0  0  0  0
  -29.8040  -11.7425   17.5295 H   0  0  0  0  0  0
  -29.6514  -13.4699   17.7415 H   0  0  0  0  0  0
  -27.8997  -11.2859   18.9143 H   0  0  0  0  0  0
  -27.3900  -12.5255   17.7999 H   0  0  0  0  0  0
  -27.6398  -14.2556   19.4743 H   0  0  0  0  0  0
  -28.7095  -12.1747   21.4383 H   0  0  0  0  0  0
  -28.4133  -13.8529   21.8034 H   0  0  0  0  0  0
  -25.2761   -9.5683   22.4774 H   0  0  0  0  0  0
  -23.9988   -7.4641   22.7489 H   0  0  0  0  0  0
  -21.0838   -8.8785   19.8972 H   0  0  0  0  0  0
  -22.3699  -10.9674   19.6186 H   0  0  0  0  0  0
  -21.2015   -7.6155   23.9709 H   0  0  0  0  0  0
  -21.1483   -6.0538   25.9074 H   0  0  0  0  0  0
  -22.0595   -2.7611   23.2857 H   0  0  0  0  0  0
  -22.4089  -11.9906   22.4830 H   0  0  0  0  0  0
  -21.1093  -13.1268   22.2594 H   0  0  0  0  0  0
  -24.6417  -15.8369   20.5077 H   0  0  0  0  0  0
  -26.2643  -15.6388   20.0799 H   0  0  0  0  0  0
  -26.7233  -32.5388   23.1092 H   0  0  0  0  0  0
  -25.0017  -33.9697   25.0365 H   0  0  0  0  0  0
  -22.7315  -31.3113   21.4092 H   0  0  0  0  0  0
  -23.3747  -35.9624   23.3297 H   0  0  0  0  0  0
  -24.3592  -36.8911   22.2054 H   0  0  0  0  0  0
  -23.7265  -37.6495   23.6667 H   0  0  0  0  0  0
  -26.1415  -31.5050   20.6380 H   0  0  0  0  0  0
  -26.8593  -30.7891   22.0460 H   0  0  0  0  0  0
  -28.0869  -28.8094   21.3230 H   0  0  0  0  0  0
  -25.9993  -26.1129   18.6980 H   0  0  0  0  0  0
  -24.0140  -27.4468   18.8242 H   0  0  0  0  0  0
  -23.7775  -30.6195   19.4149 H   0  0  0  0  0  0
  -22.7711  -29.2732   19.8496 H   0  0  0  0  0  0
  -25.1304  -36.1901   25.0827 H   0  0  0  0  0  0
  -21.0018  -28.3282   24.1373 H   0  0  0  0  0  0
  -20.5726  -26.2312   23.3601 H   0  0  0  0  0  0
  -21.6671  -26.7460   22.1179 H   0  0  0  0  0  0
  -19.6930  -25.6306   21.1233 H   0  0  0  0  0  0
  -19.6695  -27.3210   20.6746 H   0  0  0  0  0  0
  -17.4224  -26.6697   21.4021 H   0  0  0  0  0  0
  -18.0342  -26.0074   22.9022 H   0  0  0  0  0  0
  -19.7967  -30.7284   24.2242 H   0  0  0  0  0  0
  -17.5042  -31.6274   24.5161 H   0  0  0  0  0  0
  -15.5371  -30.2981   23.7667 H   0  0  0  0  0  0
  -15.8698  -28.0809   22.7079 H   0  0  0  0  0  0
  -24.5898  -30.7121   25.7803 H   0  0  0  0  0  0
  -24.8922  -32.2959   26.4854 H   0  0  0  0  0  0
  -25.8026  -30.8978   27.0277 H   0  0  0  0  0  0
  -26.2991  -29.6746   24.1271 H   0  0  0  0  0  0
  -27.3943  -29.7253   25.4873 H   0  0  0  0  0  0
  -27.8922  -30.4234   23.9664 H   0  0  0  0  0  0
  -27.2646  -33.3632   26.2121 H   0  0  0  0  0  0
  -28.3877  -32.6918   25.0390 H   0  0  0  0  0  0
  -28.0720  -31.8474   26.5472 H   0  0  0  0  0  0
  -28.2591  -38.0103   24.7498 H   0  0  0  0  0  0
  -28.1088  -36.2635   24.6296 H   0  0  0  0  0  0
  -27.2304  -37.1458   25.8869 H   0  0  0  0  0  0
  -20.9389  -29.8776   21.6853 H   0  0  0  0  0  0
  -26.0164  -38.2841   24.1390 H   0  0  0  0  0  0
  -31.2943  -18.4578   22.3981 H   0  0  0  0  0  0
  -26.9531  -22.6714   18.5729 H   0  0  0  0  0  0
  -26.9959  -24.3433   18.0734 H   0  0  0  0  0  0
  -25.4537  -23.5588   18.3835 H   0  0  0  0  0  0
  -24.9312  -22.8036   20.9264 H   0  0  0  0  0  0
  -26.0285  -23.3135   22.1908 H   0  0  0  0  0  0
  -26.4882  -22.0404   21.0678 H   0  0  0  0  0  0
  -29.2185  -17.2338   19.2181 H   0  0  0  0  0  0
  -30.9224  -17.2050   19.3888 H   0  0  0  0  0  0
  -27.7631  -24.9380   21.7026 H   0  0  0  0  0  0
  -25.7455  -24.8314   20.3707 H   0  0  0  0  0  0
  -27.9621  -22.1791   19.8803 H   0  0  0  0  0  0
  -28.9555  -15.7226   21.0773 H   0  0  0  0  0  0
  1 25  1  0  0  0
  1 30  2  0  0  0
  1 82  1  0  0  0
  2  3  1  0  0  0
  2 25  1  0  0  0
  2 85  1  0  0  0
  2 86  1  0  0  0
  3  4  1  0  0  0
  3 87  1  0  0  0
  3 88  1  0  0  0
  4  5  1  0  0  0
  4 89  1  0  0  0
  4 90  1  0  0  0
  5  6  1  0  0  0
  5 26  1  0  0  0
  5 91  1  0  0  0
  6 25  1  0  0  0
  6 92  1  0  0  0
  6 93  1  0  0  0
  7  8  2  0  0  0
  7 26  1  0  0  0
  7 29  1  0  0  0
  8  9  1  0  0  0
  8 22  1  0  0  0
  9 10  1  0  0  0
  9 27  2  0  0  0
 10 11  2  0  0  0
 10 15  1  0  0  0
 11 12  1  0  0  0
 11 94  1  0  0  0
 12 13  2  0  0  0
 12 95  1  0  0  0
 13 14  1  0  0  0
 13 31  1  0  0  0
 14 15  2  0  0  0
 14 96  1  0  0  0
 15 97  1  0  0  0
 16 17  2  0  0  0
 16 21  1  0  0  0
 16 31  1  0  0  0
 17 18  1  0  0  0
 17 98  1  0  0  0
 18 19  2  0  0  0
 18 99  1  0  0  0
 19 20  1  0  0  0
 19 24  1  0  0  0
 20 21  2  0  0  0
 20100  1  0  0  0
 21 23  1  0  0  0
 22 28  1  0  0  0
 22 32  2  0  0  0
 26 27  1  0  0  0
 28101  1  0  0  0
 28102  1  0  0  0
 29103  1  0  0  0
 29104  1  0  0  0
 33 34  1  0  0  0
 33 66  1  0  0  0
 33 70  2  0  0  0
 34 36  1  0  0  0
 34 59  1  0  0  0
 34105  1  0  0  0
 35 44  2  0  0  0
 35 45  1  0  0  0
 35 68  1  0  0  0
 36 56  1  0  0  0
 36106  1  0  0  0
 37 39  1  0  0  0
 37 47  1  0  0  0
 37 66  1  0  0  0
 37107  1  0  0  0
 38 43  2  0  0  0
 38 46  1  0  0  0
 38 47  1  0  0  0
 39 64  1  0  0  0
 39 67  2  0  0  0
 40 52  1  0  0  0
 40 53  2  0  0  0
 40 58  1  0  0  0
 41108  1  0  0  0
 41109  1  0  0  0
 41110  1  0  0  0
 41 48  1  0  0  0
 42 43  1  0  0  0
 42 66  1  0  0  0
 42111  1  0  0  0
 42112  1  0  0  0
 43 44  1  0  0  0
 44113  1  0  0  0
 45 46  2  0  0  0
 45114  1  0  0  0
 46115  1  0  0  0
 47116  1  0  0  0
 47117  1  0  0  0
 48 56  1  0  0  0
 48 65  1  0  0  0
 48118  1  0  0  0
 49 50  1  0  0  0
 49 53  1  0  0  0
 49 64  1  0  0  0
 49119  1  0  0  0
 50 51  1  0  0  0
 50120  1  0  0  0
 50121  1  0  0  0
 51 52  1  0  0  0
 51122  1  0  0  0
 51123  1  0  0  0
 52124  1  0  0  0
 52125  1  0  0  0
 53 54  1  0  0  0
 54 55  2  0  0  0
 54126  1  0  0  0
 55 57  1  0  0  0
 55127  1  0  0  0
 56 69  2  0  0  0
 57 58  2  0  0  0
 57128  1  0  0  0
 58129  1  0  0  0
 59 60  1  0  0  0
 59 61  1  0  0  0
 59 62  1  0  0  0
 60130  1  0  0  0
 60131  1  0  0  0
 60132  1  0  0  0
 61133  1  0  0  0
 61134  1  0  0  0
 61135  1  0  0  0
 62136  1  0  0  0
 62137  1  0  0  0
 62138  1  0  0  0
 63 65  1  0  0  0
 63139  1  0  0  0
 63140  1  0  0  0
 63141  1  0  0  0
 64142  1  0  0  0
 65143  1  0  0  0
 68 78  1  0  0  0
 71 72  2  0  0  0
 71 84  1  0  0  0
 71144  1  0  0  0
 72 77  1  0  0  0
 72 80  1  0  0  0
 73 80  2  0  0  0
 73 81  1  0  0  0
 73 84  1  0  0  0
 74 78  1  0  0  0
 74 81  1  0  0  0
 74 83  2  0  0  0
 75145  1  0  0  0
 75146  1  0  0  0
 75147  1  0  0  0
 75 79  1  0  0  0
 76 79  1  0  0  0
 76148  1  0  0  0
 76149  1  0  0  0
 76150  1  0  0  0
 77 82  1  0  0  0
 77151  1  0  0  0
 77152  1  0  0  0
 78 79  1  0  0  0
 78153  1  0  0  0
 79154  1  0  0  0
 81155  1  0  0  0
 82156  1  0  0  0
M  ISO  4   1 100  68 101  78 101  82 100
M  END
> <chiral flag>
0

> <version>
0

> <s_m_source_file>
/data/baiqing/PycharmProjects/Reinvent-master-3.2/result/LINK_invent/BTK/process_docking_weight1_custom_product_contain_oxygen_bond_distance_aromatic_linkinvent_7_9_3/rearranged_h_0181.sdf

> <i_m_source_file_index>
5

> <r_mmod_Potential_Energy-OPLS-2005>
136.491806030273

> <r_mmod_Stretch_Energy-OPLS-2005>
147.135833740234

> <r_mmod_Bend_Energy-OPLS-2005>
207.794906616211

> <r_mmod_Torsional_Energy-OPLS-2005>
250.457473754883

> <r_mmod_Improper_Torsional_Energy-OPLS-2005>
8.45751285552979

> <r_mmod_Van_der_Waal_Energy-OPLS-2005>
136.806488037109

> <r_mmod_Electrostatic_Energy-OPLS-2005>
-483.095245361328

> <r_mmod_Solvation_Energy-OPLS-2005>
-243.043243408203

> <b_mmod_Minimization_Converged-OPLS-2005>
0

> <r_mmod_RMS_Derivative-OPLS-2005>
2.12537598609924

$$$$
5
                    3D
 Structure written by MMmdl.
159167  0  0  1  0            999 V2000
  -30.5717  -14.7860   20.4397 C   0  0  0  0  0  0
  -30.4398  -12.4774   19.4852 C   0  0  0  0  0  0
  -29.5194  -12.5145   18.2439 C   0  0  0  0  0  0
  -28.0429  -12.3362   18.6518 C   0  0  0  0  0  0
  -27.6411  -13.2352   19.8515 C   0  0  2  0  0  0
  -28.6832  -13.1686   20.9901 C   0  0  0  0  0  0
  -25.2498  -13.8203   20.5710 C   0  0  0  0  0  0
  -24.1790  -13.0442   20.9218 C   0  0  0  0  0  0
  -24.6388  -11.6924   20.8743 C   0  0  0  0  0  0
  -23.9057  -10.4303   21.0404 C   0  0  0  0  0  0
  -24.3612   -9.4219   21.9182 C   0  0  0  0  0  0
  -23.6300   -8.2245   22.0747 C   0  0  0  0  0  0
  -22.4285   -8.0274   21.3538 C   0  0  0  0  0  0
  -21.9912   -9.0247   20.4641 C   0  0  0  0  0  0
  -22.7229  -10.2134   20.3051 C   0  0  0  0  0  0
  -21.6852   -6.0739   22.5287 C   0  0  0  0  0  0
  -21.4013   -6.5640   23.8223 C   0  0  0  0  0  0
  -21.3661   -5.6785   24.9182 C   0  0  0  0  0  0
  -21.6051   -4.3049   24.7230 C   0  0  0  0  0  0
  -21.8810   -3.8147   23.4342 C   0  0  0  0  0  0
  -21.9186   -4.6966   22.3407 C   0  0  0  0  0  0
  -22.7798  -13.5223   21.1879 C   0  0  0  0  0  0
  -22.1654   -4.2156   21.0984 F   0  0  0  0  0  0
  -21.5637   -3.4536   25.7736 F   0  0  0  0  0  0
  -29.9823  -13.5379   20.4158 N   0  0  0  0  0  0
  -26.2927  -12.9415   20.3262 N   0  0  0  0  0  0
  -25.9321  -11.6560   20.5739 N   0  0  0  0  0  0
  -22.0438  -12.8214   22.0433 N   0  0  0  0  0  0
  -25.4192  -15.1929   20.4145 N   0  0  0  0  0  0
  -31.7600  -14.8892   20.1189 O   0  0  0  0  0  0
  -21.6638   -6.8877   21.4242 O   0  0  0  0  0  0
  -22.3489  -14.5527   20.6731 O   0  0  0  0  0  0
  -24.6314  -31.8517   23.1932 C   0  0  0  0  0  0
  -25.9121  -32.4745   23.8298 C   0  0  1  0  0  0
  -27.2302  -27.2427   20.1399 C   0  0  0  0  0  0
  -25.5919  -33.8541   24.2232 N   0  0  0  0  0  0
  -23.4306  -30.4700   21.5359 C   0  0  2  0  0  0
  -24.8812  -28.9078   20.1077 C   0  0  0  0  0  0
  -22.7505  -29.4581   22.4903 C   0  0  0  0  0  0
  -18.0288  -28.1386   22.8476 C   0  0  0  0  0  0
  -24.1487  -36.7277   23.2642 C   0  0  0  0  0  0
  -25.9749  -30.7593   21.3748 C   0  0  0  0  0  0
  -26.0479  -29.3781   20.7213 C   0  0  0  0  0  0
  -27.2190  -28.5547   20.7294 C   0  0  0  0  0  0
  -26.0385  -26.8374   19.4985 C   0  0  0  0  0  0
  -24.8822  -27.6473   19.4866 C   0  0  0  0  0  0
  -23.6508  -29.7954   20.1541 C   0  0  0  0  0  0
  -25.4113  -36.3066   24.0327 C   0  0  1  0  0  0
  -20.5892  -28.3690   23.1271 C   0  0  2  0  0  0
  -20.6778  -26.9408   22.5413 C   0  0  0  0  0  0
  -19.5761  -26.6375   21.5210 C   0  0  0  0  0  0
  -18.1935  -26.7924   22.1617 C   0  0  0  0  0  0
  -19.1539  -28.8855   23.2865 C   0  0  0  0  0  0
  -18.9470  -30.1457   23.8887 C   0  0  0  0  0  0
  -17.6467  -30.6584   24.0558 C   0  0  0  0  0  0
  -25.9055  -34.9436   23.5092 C   0  0  0  0  0  0
  -16.5358  -29.9084   23.6331 C   0  0  0  0  0  0
  -16.7274  -28.6501   23.0353 C   0  0  0  0  0  0
  -26.4488  -31.6584   25.0696 C   0  0  0  0  0  0
  -25.3707  -31.3741   26.1418 C   0  0  0  0  0  0
  -27.0333  -30.2999   24.6191 C   0  0  0  0  0  0
  -27.6046  -32.4315   25.7476 C   0  0  0  0  0  0
  -27.5579  -37.1792   24.8463 C   0  0  0  0  0  0
  -21.4208  -29.3027   22.3647 N   0  0  0  0  0  0
  -26.4289  -37.3765   23.9415 N   0  0  0  0  0  0
  -24.6979  -31.0461   22.0920 N   0  0  0  0  0  0
  -23.4195  -28.8129   23.3013 O   0  0  0  0  0  0
  -28.3426  -26.3726   20.2553 O   0  0  0  0  0  0
  -26.5632  -34.8920   22.4662 O   0  0  0  0  0  0
  -23.5455  -32.1352   23.7205 O   0  0  0  0  0  0
  -30.0293  -19.1209   18.8996 C   0  0  0  0  0  0
  -29.3978  -19.5843   20.0531 C   0  0  0  0  0  0
  -29.8121  -17.3272   20.2143 C   0  0  0  0  0  0
  -30.3915  -19.8151   17.6622 C   0  0  0  0  0  0
  -28.4098  -23.6638   20.5095 C   0  0  0  0  0  0
  -29.2771  -20.4158   16.8172 C   0  0  0  0  0  0
  -30.4609  -22.5968   19.2375 C   0  0  0  0  0  0
  -30.8540  -16.8591   17.9734 C   0  0  0  0  0  0
  -28.4704  -25.0101   19.6117 C   0  0  0  0  0  0
  -29.4047  -22.3559   20.3253 C   0  0  2  0  0  0
  -29.2505  -18.3989   20.8554 N   0  0  0  0  0  0
  -30.2771  -17.7221   19.0053 N   0  0  0  0  0  0
  -28.8479  -20.9234   20.3884 N   0  0  0  0  0  0
  -29.7678  -15.9029   20.6778 N   0  0  0  0  0  0
  -31.5516  -19.8396   17.2414 O   0  0  0  0  0  0
  -27.5513  -23.6239   21.3951 O   0  0  0  0  0  0
  -31.4799  -12.6149   19.1841 H   0  0  0  0  0  0
  -30.3971  -11.5008   19.9710 H   0  0  0  0  0  0
  -29.8115  -11.7407   17.5330 H   0  0  0  0  0  0
  -29.6427  -13.4660   17.7247 H   0  0  0  0  0  0
  -27.9012  -11.2881   18.9164 H   0  0  0  0  0  0
  -27.3882  -12.5231   17.7998 H   0  0  0  0  0  0
  -27.6336  -14.2570   19.4708 H   0  0  0  0  0  0
  -28.7253  -12.1663   21.4205 H   0  0  0  0  0  0
  -28.4108  -13.8381   21.8078 H   0  0  0  0  0  0
  -25.2757   -9.5712   22.4748 H   0  0  0  0  0  0
  -24.0027   -7.4635   22.7456 H   0  0  0  0  0  0
  -21.0847   -8.8752   19.8946 H   0  0  0  0  0  0
  -22.3682  -10.9661   19.6154 H   0  0  0  0  0  0
  -21.2003   -7.6149   23.9729 H   0  0  0  0  0  0
  -21.1499   -6.0519   25.9086 H   0  0  0  0  0  0
  -22.0588   -2.7612   23.2839 H   0  0  0  0  0  0
  -22.4055  -11.9884   22.4853 H   0  0  0  0  0  0
  -21.1045  -13.1238   22.2610 H   0  0  0  0  0  0
  -24.6519  -15.8463   20.5309 H   0  0  0  0  0  0
  -26.2652  -15.6342   20.0782 H   0  0  0  0  0  0
  -26.7190  -32.5395   23.1041 H   0  0  0  0  0  0
  -25.0060  -33.9682   25.0377 H   0  0  0  0  0  0
  -22.7279  -31.2918   21.3834 H   0  0  0  0  0  0
  -23.3759  -35.9601   23.3290 H   0  0  0  0  0  0
  -24.3586  -36.8911   22.2062 H   0  0  0  0  0  0
  -23.7229  -37.6467   23.6672 H   0  0  0  0  0  0
  -26.1112  -31.5151   20.6004 H   0  0  0  0  0  0
  -26.8540  -30.8157   22.0055 H   0  0  0  0  0  0
  -28.1082  -28.9024   21.2353 H   0  0  0  0  0  0
  -25.9577  -25.8638   19.0402 H   0  0  0  0  0  0
  -23.9835  -27.2783   19.0114 H   0  0  0  0  0  0
  -23.7767  -30.5672   19.3940 H   0  0  0  0  0  0
  -22.7710  -29.2253   19.8506 H   0  0  0  0  0  0
  -25.1300  -36.1913   25.0818 H   0  0  0  0  0  0
  -20.9981  -28.3272   24.1393 H   0  0  0  0  0  0
  -20.5670  -26.2303   23.3614 H   0  0  0  0  0  0
  -21.6646  -26.7430   22.1217 H   0  0  0  0  0  0
  -19.6921  -25.6279   21.1252 H   0  0  0  0  0  0
  -19.6703  -27.3177   20.6733 H   0  0  0  0  0  0
  -17.4208  -26.6667   21.4018 H   0  0  0  0  0  0
  -18.0337  -26.0072   22.9020 H   0  0  0  0  0  0
  -19.7950  -30.7262   24.2259 H   0  0  0  0  0  0
  -17.5031  -31.6267   24.5153 H   0  0  0  0  0  0
  -15.5362  -30.2985   23.7654 H   0  0  0  0  0  0
  -15.8682  -28.0814   22.7081 H   0  0  0  0  0  0
  -24.5899  -30.7068   25.7755 H   0  0  0  0  0  0
  -24.8874  -32.2906   26.4807 H   0  0  0  0  0  0
  -25.8026  -30.8956   27.0219 H   0  0  0  0  0  0
  -26.2914  -29.6743   24.1216 H   0  0  0  0  0  0
  -27.4015  -29.7272   25.4716 H   0  0  0  0  0  0
  -27.8794  -30.4272   23.9433 H   0  0  0  0  0  0
  -27.2669  -33.3629   26.2033 H   0  0  0  0  0  0
  -28.3876  -32.6848   25.0316 H   0  0  0  0  0  0
  -28.0691  -31.8444   26.5411 H   0  0  0  0  0  0
  -28.2594  -38.0093   24.7523 H   0  0  0  0  0  0
  -28.1083  -36.2628   24.6276 H   0  0  0  0  0  0
  -27.2305  -37.1424   25.8867 H   0  0  0  0  0  0
  -20.9398  -29.8744   21.6848 H   0  0  0  0  0  0
  -26.0169  -38.2841   24.1414 H   0  0  0  0  0  0
  -28.4876  -20.8233   17.4474 H   0  0  0  0  0  0
  -28.8480  -19.6571   16.1640 H   0  0  0  0  0  0
  -29.6726  -21.2203   16.1975 H   0  0  0  0  0  0
  -30.9633  -23.5534   19.3826 H   0  0  0  0  0  0
  -30.0281  -22.6045   18.2395 H   0  0  0  0  0  0
  -31.2545  -21.8537   19.2907 H   0  0  0  0  0  0
  -30.7703  -17.2920   16.9778 H   0  0  0  0  0  0
  -30.3254  -15.9083   17.9312 H   0  0  0  0  0  0
  -31.9082  -16.6842   18.1884 H   0  0  0  0  0  0
  -27.7553  -24.9009   18.7987 H   0  0  0  0  0  0
  -29.4374  -25.0286   19.1149 H   0  0  0  0  0  0
  -29.9946  -22.3813   21.2426 H   0  0  0  0  0  0
  -28.1739  -20.8713   21.1488 H   0  0  0  0  0  0
  -28.9106  -15.6696   21.1511 H   0  0  0  0  0  0
  1 25  1  0  0  0
  1 30  2  0  0  0
  1 84  1  0  0  0
  2  3  1  0  0  0
  2 25  1  0  0  0
  2 87  1  0  0  0
  2 88  1  0  0  0
  3  4  1  0  0  0
  3 89  1  0  0  0
  3 90  1  0  0  0
  4  5  1  0  0  0
  4 91  1  0  0  0
  4 92  1  0  0  0
  5  6  1  0  0  0
  5 26  1  0  0  0
  5 93  1  0  0  0
  6 25  1  0  0  0
  6 94  1  0  0  0
  6 95  1  0  0  0
  7  8  2  0  0  0
  7 26  1  0  0  0
  7 29  1  0  0  0
  8  9  1  0  0  0
  8 22  1  0  0  0
  9 10  1  0  0  0
  9 27  2  0  0  0
 10 11  2  0  0  0
 10 15  1  0  0  0
 11 12  1  0  0  0
 11 96  1  0  0  0
 12 13  2  0  0  0
 12 97  1  0  0  0
 13 14  1  0  0  0
 13 31  1  0  0  0
 14 15  2  0  0  0
 14 98  1  0  0  0
 15 99  1  0  0  0
 16 17  2  0  0  0
 16 21  1  0  0  0
 16 31  1  0  0  0
 17 18  1  0  0  0
 17100  1  0  0  0
 18 19  2  0  0  0
 18101  1  0  0  0
 19 20  1  0  0  0
 19 24  1  0  0  0
 20 21  2  0  0  0
 20102  1  0  0  0
 21 23  1  0  0  0
 22 28  1  0  0  0
 22 32  2  0  0  0
 26 27  1  0  0  0
 28103  1  0  0  0
 28104  1  0  0  0
 29105  1  0  0  0
 29106  1  0  0  0
 33 34  1  0  0  0
 33 66  1  0  0  0
 33 70  2  0  0  0
 34 36  1  0  0  0
 34 59  1  0  0  0
 34107  1  0  0  0
 35 44  2  0  0  0
 35 45  1  0  0  0
 35 68  1  0  0  0
 36 56  1  0  0  0
 36108  1  0  0  0
 37 39  1  0  0  0
 37 47  1  0  0  0
 37 66  1  0  0  0
 37109  1  0  0  0
 38 43  2  0  0  0
 38 46  1  0  0  0
 38 47  1  0  0  0
 39 64  1  0  0  0
 39 67  2  0  0  0
 40 52  1  0  0  0
 40 53  2  0  0  0
 40 58  1  0  0  0
 41110  1  0  0  0
 41111  1  0  0  0
 41112  1  0  0  0
 41 48  1  0  0  0
 42 43  1  0  0  0
 42 66  1  0  0  0
 42113  1  0  0  0
 42114  1  0  0  0
 43 44  1  0  0  0
 44115  1  0  0  0
 45 46  2  0  0  0
 45116  1  0  0  0
 46117  1  0  0  0
 47118  1  0  0  0
 47119  1  0  0  0
 48 56  1  0  0  0
 48 65  1  0  0  0
 48120  1  0  0  0
 49 50  1  0  0  0
 49 53  1  0  0  0
 49 64  1  0  0  0
 49121  1  0  0  0
 50 51  1  0  0  0
 50122  1  0  0  0
 50123  1  0  0  0
 51 52  1  0  0  0
 51124  1  0  0  0
 51125  1  0  0  0
 52126  1  0  0  0
 52127  1  0  0  0
 53 54  1  0  0  0
 54 55  2  0  0  0
 54128  1  0  0  0
 55 57  1  0  0  0
 55129  1  0  0  0
 56 69  2  0  0  0
 57 58  2  0  0  0
 57130  1  0  0  0
 58131  1  0  0  0
 59 60  1  0  0  0
 59 61  1  0  0  0
 59 62  1  0  0  0
 60132  1  0  0  0
 60133  1  0  0  0
 60134  1  0  0  0
 61135  1  0  0  0
 61136  1  0  0  0
 61137  1  0  0  0
 62138  1  0  0  0
 62139  1  0  0  0
 62140  1  0  0  0
 63 65  1  0  0  0
 63141  1  0  0  0
 63142  1  0  0  0
 63143  1  0  0  0
 64144  1  0  0  0
 65145  1  0  0  0
 68 79  1  0  0  0
 71 72  2  0  0  0
 71 74  1  0  0  0
 71 82  1  0  0  0
 72 81  1  0  0  0
 72 83  1  0  0  0
 73 81  2  0  0  0
 73 82  1  0  0  0
 73 84  1  0  0  0
 74 76  1  0  0  0
 74 85  2  0  0  0
 75 79  1  0  0  0
 75 80  1  0  0  0
 75 86  2  0  0  0
 76146  1  0  0  0
 76147  1  0  0  0
 76148  1  0  0  0
 77149  1  0  0  0
 77150  1  0  0  0
 77151  1  0  0  0
 77 80  1  0  0  0
 78 82  1  0  0  0
 78152  1  0  0  0
 78153  1  0  0  0
 78154  1  0  0  0
 79155  1  0  0  0
 79156  1  0  0  0
 80 83  1  0  0  0
 80157  1  0  0  0
 83158  1  0  0  0
 84159  1  0  0  0
M  ISO  4   1 100  68 101  79 101  84 100
M  END
> <chiral flag>
0

> <version>
0

> <s_m_source_file>
/data/baiqing/PycharmProjects/Reinvent-master-3.2/result/LINK_invent/BTK/process_docking_weight1_custom_product_contain_oxygen_bond_distance_aromatic_linkinvent_7_9_3/rearranged_h_0181.sdf

> <i_m_source_file_index>
6

> <r_mmod_Potential_Energy-OPLS-2005>
201.554443359375

> <r_mmod_Stretch_Energy-OPLS-2005>
148.496658325195

> <r_mmod_Bend_Energy-OPLS-2005>
224.135223388672

> <r_mmod_Torsional_Energy-OPLS-2005>
279.119415283203

> <r_mmod_Improper_Torsional_Energy-OPLS-2005>
8.25000667572021

> <r_mmod_Van_der_Waal_Energy-OPLS-2005>
120.33911895752

> <r_mmod_Electrostatic_Energy-OPLS-2005>
-427.240417480469

> <r_mmod_Solvation_Energy-OPLS-2005>
-252.098678588867

> <b_mmod_Minimization_Converged-OPLS-2005>
0

> <r_mmod_RMS_Derivative-OPLS-2005>
2.1011049747467

$$$$
6
                    3D
 Structure written by MMmdl.
152160  0  0  1  0            999 V2000
  -30.6601  -14.5465   20.4884 C   0  0  0  0  0  0
  -30.4216  -12.3265   19.4435 C   0  0  0  0  0  0
  -29.5013  -12.4938   18.2156 C   0  0  0  0  0  0
  -28.0208  -12.3536   18.6226 C   0  0  0  0  0  0
  -27.6543  -13.2100   19.8652 C   0  0  2  0  0  0
  -28.6971  -13.0407   20.9945 C   0  0  0  0  0  0
  -25.2572  -13.8161   20.5659 C   0  0  0  0  0  0
  -24.1831  -13.0436   20.9175 C   0  0  0  0  0  0
  -24.6380  -11.6909   20.8725 C   0  0  0  0  0  0
  -23.9046  -10.4295   21.0406 C   0  0  0  0  0  0
  -24.3602   -9.4222   21.9185 C   0  0  0  0  0  0
  -23.6292   -8.2255   22.0753 C   0  0  0  0  0  0
  -22.4276   -8.0275   21.3547 C   0  0  0  0  0  0
  -21.9911   -9.0242   20.4643 C   0  0  0  0  0  0
  -22.7224  -10.2133   20.3056 C   0  0  0  0  0  0
  -21.6854   -6.0739   22.5277 C   0  0  0  0  0  0
  -21.4011   -6.5643   23.8206 C   0  0  0  0  0  0
  -21.3660   -5.6799   24.9170 C   0  0  0  0  0  0
  -21.6042   -4.3061   24.7229 C   0  0  0  0  0  0
  -21.8824   -3.8150   23.4348 C   0  0  0  0  0  0
  -21.9197   -4.6965   22.3400 C   0  0  0  0  0  0
  -22.7867  -13.5245   21.1845 C   0  0  0  0  0  0
  -22.1667   -4.2153   21.0981 F   0  0  0  0  0  0
  -21.5622   -3.4543   25.7746 F   0  0  0  0  0  0
  -30.0218  -13.3423   20.4327 N   0  0  0  0  0  0
  -26.2989  -12.9327   20.3311 N   0  0  0  0  0  0
  -25.9310  -11.6493   20.5746 N   0  0  0  0  0  0
  -22.0510  -12.8222   22.0394 N   0  0  0  0  0  0
  -25.4307  -15.1884   20.4061 N   0  0  0  0  0  0
  -31.8340  -14.6704   20.1231 O   0  0  0  0  0  0
  -21.6641   -6.8875   21.4242 O   0  0  0  0  0  0
  -22.3568  -14.5564   20.6711 O   0  0  0  0  0  0
  -24.6194  -31.8650   23.2063 C   0  0  0  0  0  0
  -25.9074  -32.4798   23.8378 C   0  0  1  0  0  0
  -27.2314  -27.3929   20.1001 C   0  0  0  0  0  0
  -25.5909  -33.8598   24.2301 N   0  0  0  0  0  0
  -23.4070  -30.4886   21.5482 C   0  0  2  0  0  0
  -24.8516  -28.9469   20.1170 C   0  0  0  0  0  0
  -22.7400  -29.4675   22.4986 C   0  0  0  0  0  0
  -18.0260  -28.1391   22.8518 C   0  0  0  0  0  0
  -24.1474  -36.7295   23.2625 C   0  0  0  0  0  0
  -25.9396  -30.8179   21.3629 C   0  0  0  0  0  0
  -26.0140  -29.4479   20.7142 C   0  0  0  0  0  0
  -27.2034  -28.6780   20.7020 C   0  0  0  0  0  0
  -26.0430  -26.9140   19.5011 C   0  0  0  0  0  0
  -24.8629  -27.6807   19.5099 C   0  0  0  0  0  0
  -23.6157  -29.8178   20.1648 C   0  0  0  0  0  0
  -25.4090  -36.3083   24.0329 C   0  0  1  0  0  0
  -20.5856  -28.3703   23.1328 C   0  0  2  0  0  0
  -20.6766  -26.9437   22.5438 C   0  0  0  0  0  0
  -19.5736  -26.6407   21.5243 C   0  0  0  0  0  0
  -18.1905  -26.7945   22.1637 C   0  0  0  0  0  0
  -19.1510  -28.8861   23.2922 C   0  0  0  0  0  0
  -18.9438  -30.1464   23.8939 C   0  0  0  0  0  0
  -17.6444  -30.6604   24.0583 C   0  0  0  0  0  0
  -25.9047  -34.9459   23.5116 C   0  0  0  0  0  0
  -16.5342  -29.9110   23.6341 C   0  0  0  0  0  0
  -16.7253  -28.6522   23.0375 C   0  0  0  0  0  0
  -26.4483  -31.6581   25.0721 C   0  0  0  0  0  0
  -25.3732  -31.3681   26.1456 C   0  0  0  0  0  0
  -27.0331  -30.3024   24.6124 C   0  0  0  0  0  0
  -27.6056  -32.4311   25.7490 C   0  0  0  0  0  0
  -27.5600  -37.1732   24.8414 C   0  0  0  0  0  0
  -21.4129  -29.3058   22.3714 N   0  0  0  0  0  0
  -26.4231  -37.3816   23.9485 N   0  0  0  0  0  0
  -24.6745  -31.0716   22.0981 N   0  0  0  0  0  0
  -23.4155  -28.8221   23.3047 O   0  0  0  0  0  0
  -28.4095  -26.6598   20.1275 O   0  0  0  0  0  0
  -26.5613  -34.8926   22.4680 O   0  0  0  0  0  0
  -23.5376  -32.1436   23.7436 O   0  0  0  0  0  0
  -29.8375  -19.4458   19.8909 C   0  0  0  0  0  0
  -30.8614  -18.7788   19.2389 C   0  0  0  0  0  0
  -30.0188  -16.9916   20.4102 C   0  0  0  0  0  0
  -29.4398  -20.8836   19.7956 C   0  0  0  0  0  0
  -28.2491  -24.1873   20.6023 C   0  0  0  0  0  0
  -28.3548  -21.5244   20.6915 C   0  0  0  0  0  0
  -27.7120  -22.8278   20.0927 C   0  0  0  0  0  0
  -28.4717  -25.3226   19.5646 C   0  0  0  0  0  0
  -30.9460  -17.4153   19.5421 N   0  0  0  0  0  0
  -31.7939  -19.2991   18.3366 N   0  0  0  0  0  0
  -29.8800  -15.6123   20.8101 N   0  0  0  0  0  0
  -29.9974  -21.6301   18.9848 O   0  0  0  0  0  0
  -28.4978  -24.3555   21.8007 O   0  0  0  0  0  0
  -28.9455  -18.3168   20.9193 S   0  0  0  0  0  0
  -31.4685  -12.4198   19.1478 H   0  0  0  0  0  0
  -30.3193  -11.3263   19.8660 H   0  0  0  0  0  0
  -29.7520  -11.7551   17.4527 H   0  0  0  0  0  0
  -29.6651  -13.4711   17.7594 H   0  0  0  0  0  0
  -27.8358  -11.2998   18.8320 H   0  0  0  0  0  0
  -27.3765  -12.6154   17.7825 H   0  0  0  0  0  0
  -27.6804  -14.2498   19.5395 H   0  0  0  0  0  0
  -28.6834  -12.0199   21.3794 H   0  0  0  0  0  0
  -28.4634  -13.6798   21.8475 H   0  0  0  0  0  0
  -25.2745   -9.5705   22.4764 H   0  0  0  0  0  0
  -24.0009   -7.4657   22.7486 H   0  0  0  0  0  0
  -21.0839   -8.8749   19.8950 H   0  0  0  0  0  0
  -22.3671  -10.9667   19.6167 H   0  0  0  0  0  0
  -21.2001   -7.6147   23.9713 H   0  0  0  0  0  0
  -21.1470   -6.0528   25.9078 H   0  0  0  0  0  0
  -22.0599   -2.7615   23.2853 H   0  0  0  0  0  0
  -22.4129  -11.9866   22.4745 H   0  0  0  0  0  0
  -21.1133  -13.1241   22.2608 H   0  0  0  0  0  0
  -24.6564  -15.8382   20.4897 H   0  0  0  0  0  0
  -26.2736  -15.6224   20.0504 H   0  0  0  0  0  0
  -26.7143  -32.5500   23.1138 H   0  0  0  0  0  0
  -25.0047  -33.9756   25.0441 H   0  0  0  0  0  0
  -22.7013  -31.3091   21.4038 H   0  0  0  0  0  0
  -23.3785  -35.9560   23.3136 H   0  0  0  0  0  0
  -24.3618  -36.9087   22.2075 H   0  0  0  0  0  0
  -23.7135  -37.6411   23.6760 H   0  0  0  0  0  0
  -26.0481  -31.5773   20.5880 H   0  0  0  0  0  0
  -26.8295  -30.8811   21.9768 H   0  0  0  0  0  0
  -28.1022  -29.0617   21.1654 H   0  0  0  0  0  0
  -25.9880  -25.9452   19.0302 H   0  0  0  0  0  0
  -23.9658  -27.2878   19.0507 H   0  0  0  0  0  0
  -23.7255  -30.5911   19.4043 H   0  0  0  0  0  0
  -22.7387  -29.2396   19.8683 H   0  0  0  0  0  0
  -25.1233  -36.1908   25.0809 H   0  0  0  0  0  0
  -20.9942  -28.3282   24.1454 H   0  0  0  0  0  0
  -20.5731  -26.2298   23.3624 H   0  0  0  0  0  0
  -21.6630  -26.7513   22.1203 H   0  0  0  0  0  0
  -19.6913  -25.6324   21.1257 H   0  0  0  0  0  0
  -19.6666  -27.3238   20.6794 H   0  0  0  0  0  0
  -17.4185  -26.6728   21.4021 H   0  0  0  0  0  0
  -18.0279  -26.0072   22.9012 H   0  0  0  0  0  0
  -19.7910  -30.7277   24.2327 H   0  0  0  0  0  0
  -17.4996  -31.6284   24.5177 H   0  0  0  0  0  0
  -15.5346  -30.3028   23.7651 H   0  0  0  0  0  0
  -15.8645  -28.0855   22.7098 H   0  0  0  0  0  0
  -24.5958  -30.6963   25.7805 H   0  0  0  0  0  0
  -24.8850  -32.2813   26.4866 H   0  0  0  0  0  0
  -25.8091  -30.8906   27.0238 H   0  0  0  0  0  0
  -26.2881  -29.6754   24.1217 H   0  0  0  0  0  0
  -27.4136  -29.7304   25.4600 H   0  0  0  0  0  0
  -27.8688  -30.4353   23.9253 H   0  0  0  0  0  0
  -27.2713  -33.3654   26.2019 H   0  0  0  0  0  0
  -28.3893  -32.6802   25.0320 H   0  0  0  0  0  0
  -28.0676  -31.8445   26.5441 H   0  0  0  0  0  0
  -28.2411  -38.0231   24.7805 H   0  0  0  0  0  0
  -28.1305  -36.2805   24.5798 H   0  0  0  0  0  0
  -27.2387  -37.0836   25.8806 H   0  0  0  0  0  0
  -20.9292  -29.8752   21.6909 H   0  0  0  0  0  0
  -26.0091  -38.2828   24.1720 H   0  0  0  0  0  0
  -28.7750  -21.7110   21.6795 H   0  0  0  0  0  0
  -27.5657  -20.7874   20.8324 H   0  0  0  0  0  0
  -27.7387  -22.8138   19.0033 H   0  0  0  0  0  0
  -26.6528  -22.8190   20.3502 H   0  0  0  0  0  0
  -27.8350  -25.1918   18.6923 H   0  0  0  0  0  0
  -29.4871  -25.1924   19.1897 H   0  0  0  0  0  0
  -31.8077  -20.2886   18.1038 H   0  0  0  0  0  0
  -32.5334  -18.7346   17.9332 H   0  0  0  0  0  0
  -28.9907  -15.3782   21.2210 H   0  0  0  0  0  0
  1 25  1  0  0  0
  1 30  2  0  0  0
  1 81  1  0  0  0
  2  3  1  0  0  0
  2 25  1  0  0  0
  2 85  1  0  0  0
  2 86  1  0  0  0
  3  4  1  0  0  0
  3 87  1  0  0  0
  3 88  1  0  0  0
  4  5  1  0  0  0
  4 89  1  0  0  0
  4 90  1  0  0  0
  5  6  1  0  0  0
  5 26  1  0  0  0
  5 91  1  0  0  0
  6 25  1  0  0  0
  6 92  1  0  0  0
  6 93  1  0  0  0
  7  8  2  0  0  0
  7 26  1  0  0  0
  7 29  1  0  0  0
  8  9  1  0  0  0
  8 22  1  0  0  0
  9 10  1  0  0  0
  9 27  2  0  0  0
 10 11  2  0  0  0
 10 15  1  0  0  0
 11 12  1  0  0  0
 11 94  1  0  0  0
 12 13  2  0  0  0
 12 95  1  0  0  0
 13 14  1  0  0  0
 13 31  1  0  0  0
 14 15  2  0  0  0
 14 96  1  0  0  0
 15 97  1  0  0  0
 16 17  2  0  0  0
 16 21  1  0  0  0
 16 31  1  0  0  0
 17 18  1  0  0  0
 17 98  1  0  0  0
 18 19  2  0  0  0
 18 99  1  0  0  0
 19 20  1  0  0  0
 19 24  1  0  0  0
 20 21  2  0  0  0
 20100  1  0  0  0
 21 23  1  0  0  0
 22 28  1  0  0  0
 22 32  2  0  0  0
 26 27  1  0  0  0
 28101  1  0  0  0
 28102  1  0  0  0
 29103  1  0  0  0
 29104  1  0  0  0
 33 34  1  0  0  0
 33 66  1  0  0  0
 33 70  2  0  0  0
 34 36  1  0  0  0
 34 59  1  0  0  0
 34105  1  0  0  0
 35 44  2  0  0  0
 35 45  1  0  0  0
 35 68  1  0  0  0
 36 56  1  0  0  0
 36106  1  0  0  0
 37 39  1  0  0  0
 37 47  1  0  0  0
 37 66  1  0  0  0
 37107  1  0  0  0
 38 43  2  0  0  0
 38 46  1  0  0  0
 38 47  1  0  0  0
 39 64  1  0  0  0
 39 67  2  0  0  0
 40 52  1  0  0  0
 40 53  2  0  0  0
 40 58  1  0  0  0
 41108  1  0  0  0
 41109  1  0  0  0
 41110  1  0  0  0
 41 48  1  0  0  0
 42 43  1  0  0  0
 42 66  1  0  0  0
 42111  1  0  0  0
 42112  1  0  0  0
 43 44  1  0  0  0
 44113  1  0  0  0
 45 46  2  0  0  0
 45114  1  0  0  0
 46115  1  0  0  0
 47116  1  0  0  0
 47117  1  0  0  0
 48 56  1  0  0  0
 48 65  1  0  0  0
 48118  1  0  0  0
 49 50  1  0  0  0
 49 53  1  0  0  0
 49 64  1  0  0  0
 49119  1  0  0  0
 50 51  1  0  0  0
 50120  1  0  0  0
 50121  1  0  0  0
 51 52  1  0  0  0
 51122  1  0  0  0
 51123  1  0  0  0
 52124  1  0  0  0
 52125  1  0  0  0
 53 54  1  0  0  0
 54 55  2  0  0  0
 54126  1  0  0  0
 55 57  1  0  0  0
 55127  1  0  0  0
 56 69  2  0  0  0
 57 58  2  0  0  0
 57128  1  0  0  0
 58129  1  0  0  0
 59 60  1  0  0  0
 59 61  1  0  0  0
 59 62  1  0  0  0
 60130  1  0  0  0
 60131  1  0  0  0
 60132  1  0  0  0
 61133  1  0  0  0
 61134  1  0  0  0
 61135  1  0  0  0
 62136  1  0  0  0
 62137  1  0  0  0
 62138  1  0  0  0
 63 65  1  0  0  0
 63139  1  0  0  0
 63140  1  0  0  0
 63141  1  0  0  0
 64142  1  0  0  0
 65143  1  0  0  0
 68 78  1  0  0  0
 71 72  2  0  0  0
 71 74  1  0  0  0
 71 84  1  0  0  0
 72 79  1  0  0  0
 72 80  1  0  0  0
 73 79  2  0  0  0
 73 81  1  0  0  0
 73 84  1  0  0  0
 74 76  1  0  0  0
 74 82  2  0  0  0
 75 77  1  0  0  0
 75 78  1  0  0  0
 75 83  2  0  0  0
 76 77  1  0  0  0
 76144  1  0  0  0
 76145  1  0  0  0
 77146  1  0  0  0
 77147  1  0  0  0
 78148  1  0  0  0
 78149  1  0  0  0
 80150  1  0  0  0
 80151  1  0  0  0
 81152  1  0  0  0
M  ISO  4   1 100  68 101  78 101  81 100
M  END
> <chiral flag>
0

> <version>
0

> <s_m_source_file>
/data/baiqing/PycharmProjects/Reinvent-master-3.2/result/LINK_invent/BTK/process_docking_weight1_custom_product_contain_oxygen_bond_distance_aromatic_linkinvent_7_9_3/rearranged_h_0181.sdf

> <i_m_source_file_index>
7

> <r_mmod_Potential_Energy-OPLS-2005>
-172.238067626953

> <r_mmod_Stretch_Energy-OPLS-2005>
47.105655670166

> <r_mmod_Bend_Energy-OPLS-2005>
127.137084960938

> <r_mmod_Torsional_Energy-OPLS-2005>
200.840667724609

> <r_mmod_Improper_Torsional_Energy-OPLS-2005>
4.59500551223755

> <r_mmod_Van_der_Waal_Energy-OPLS-2005>
131.034408569336

> <r_mmod_Electrostatic_Energy-OPLS-2005>
-443.142639160156

> <r_mmod_Solvation_Energy-OPLS-2005>
-263.587982177734

> <b_mmod_Minimization_Converged-OPLS-2005>
0

> <r_mmod_RMS_Derivative-OPLS-2005>
2.30391216278076

$$$$
7
                    3D
 Structure written by MMmdl.
157165  0  0  1  0            999 V2000
  -30.7062  -14.5177   20.4785 C   0  0  0  0  0  0
  -30.4374  -12.3095   19.4390 C   0  0  0  0  0  0
  -29.5268  -12.4822   18.2065 C   0  0  0  0  0  0
  -28.0390  -12.3648   18.6009 C   0  0  0  0  0  0
  -27.6597  -13.2195   19.8436 C   0  0  2  0  0  0
  -28.6992  -13.0608   20.9801 C   0  0  0  0  0  0
  -25.2597  -13.8166   20.5761 C   0  0  0  0  0  0
  -24.1878  -13.0403   20.9220 C   0  0  0  0  0  0
  -24.6427  -11.6897   20.8707 C   0  0  0  0  0  0
  -23.9101  -10.4301   21.0430 C   0  0  0  0  0  0
  -24.3621   -9.4212   21.9186 C   0  0  0  0  0  0
  -23.6291   -8.2246   22.0741 C   0  0  0  0  0  0
  -22.4288   -8.0285   21.3538 C   0  0  0  0  0  0
  -21.9935   -9.0278   20.4656 C   0  0  0  0  0  0
  -22.7287  -10.2150   20.3067 C   0  0  0  0  0  0
  -21.6844   -6.0751   22.5296 C   0  0  0  0  0  0
  -21.4018   -6.5615   23.8231 C   0  0  0  0  0  0
  -21.3658   -5.6755   24.9183 C   0  0  0  0  0  0
  -21.6037   -4.3027   24.7221 C   0  0  0  0  0  0
  -21.8833   -3.8108   23.4328 C   0  0  0  0  0  0
  -21.9188   -4.6953   22.3409 C   0  0  0  0  0  0
  -22.7878  -13.5241   21.1885 C   0  0  0  0  0  0
  -22.1659   -4.2144   21.0961 F   0  0  0  0  0  0
  -21.5648   -3.4505   25.7711 F   0  0  0  0  0  0
  -30.0376  -13.3316   20.4219 N   0  0  0  0  0  0
  -26.3011  -12.9374   20.3154 N   0  0  0  0  0  0
  -25.9313  -11.6526   20.5495 N   0  0  0  0  0  0
  -22.0424  -12.8293   22.0404 N   0  0  0  0  0  0
  -25.4239  -15.1934   20.4592 N   0  0  0  0  0  0
  -31.8815  -14.6281   20.1179 O   0  0  0  0  0  0
  -21.6606   -6.8906   21.4271 O   0  0  0  0  0  0
  -22.3614  -14.5521   20.6658 O   0  0  0  0  0  0
  -24.6221  -31.8673   23.2117 C   0  0  0  0  0  0
  -25.9119  -32.4804   23.8386 C   0  0  1  0  0  0
  -27.2046  -27.3614   20.1193 C   0  0  0  0  0  0
  -25.5988  -33.8601   24.2314 N   0  0  0  0  0  0
  -23.4123  -30.4983   21.5545 C   0  0  2  0  0  0
  -24.8545  -28.9744   20.1074 C   0  0  0  0  0  0
  -22.7463  -29.4664   22.4953 C   0  0  0  0  0  0
  -18.0291  -28.1388   22.8482 C   0  0  0  0  0  0
  -24.1523  -36.7268   23.2642 C   0  0  0  0  0  0
  -25.9567  -30.8098   21.3904 C   0  0  0  0  0  0
  -26.0257  -29.4508   20.7133 C   0  0  0  0  0  0
  -27.2065  -28.6577   20.7056 C   0  0  0  0  0  0
  -26.0140  -26.9360   19.4821 C   0  0  0  0  0  0
  -24.8514  -27.7216   19.4782 C   0  0  0  0  0  0
  -23.6263  -29.8519   20.1624 C   0  0  0  0  0  0
  -25.4153  -36.3075   24.0330 C   0  0  1  0  0  0
  -20.5888  -28.3698   23.1329 C   0  0  2  0  0  0
  -20.6803  -26.9432   22.5463 C   0  0  0  0  0  0
  -19.5776  -26.6393   21.5251 C   0  0  0  0  0  0
  -18.1925  -26.7958   22.1609 C   0  0  0  0  0  0
  -19.1532  -28.8861   23.2891 C   0  0  0  0  0  0
  -18.9433  -30.1477   23.8887 C   0  0  0  0  0  0
  -17.6436  -30.6605   24.0564 C   0  0  0  0  0  0
  -25.9080  -34.9452   23.5095 C   0  0  0  0  0  0
  -16.5332  -29.9097   23.6343 C   0  0  0  0  0  0
  -16.7273  -28.6511   23.0348 C   0  0  0  0  0  0
  -26.4511  -31.6589   25.0747 C   0  0  0  0  0  0
  -25.3709  -31.3817   26.1460 C   0  0  0  0  0  0
  -27.0341  -30.2960   24.6303 C   0  0  0  0  0  0
  -27.6139  -32.4303   25.7447 C   0  0  0  0  0  0
  -27.5617  -37.1788   24.8450 C   0  0  0  0  0  0
  -21.4185  -29.3032   22.3695 N   0  0  0  0  0  0
  -26.4326  -37.3777   23.9399 N   0  0  0  0  0  0
  -24.6806  -31.0745   22.1058 N   0  0  0  0  0  0
  -23.4219  -28.8183   23.2988 O   0  0  0  0  0  0
  -28.3076  -26.5050   20.1943 O   0  0  0  0  0  0
  -26.5603  -34.8913   22.4629 O   0  0  0  0  0  0
  -23.5400  -32.1461   23.7477 O   0  0  0  0  0  0
  -30.9095  -17.3835   19.2963 C   0  0  0  0  0  0
  -30.2682  -16.9729   20.4421 C   0  0  0  0  0  0
  -30.2772  -19.2610   20.8058 C   0  0  0  0  0  0
  -29.1248  -24.0603   20.4750 C   0  0  0  0  0  0
  -31.4868  -20.7288   22.4413 C   0  0  0  0  0  0
  -27.4288  -22.0959   20.6938 C   0  0  0  0  0  0
  -27.9547  -25.0806   20.2856 C   0  0  0  0  0  0
  -30.1836  -20.5380   21.6414 C   0  0  1  0  0  0
  -28.8144  -22.6465   21.1080 C   0  0  1  0  0  0
  -29.8744  -18.0524   21.2558 N   0  0  0  0  0  0
  -29.9592  -15.6093   20.7590 N   0  0  0  0  0  0
  -29.9127  -21.6954   20.7236 N   0  3  0  0  0  0
  -30.2661  -24.3562   20.0974 O   0  0  0  0  0  0
  -31.1431  -19.1204   19.2699 S   0  0  0  0  0  0
  -31.4886  -12.4014   19.1486 H   0  0  0  0  0  0
  -30.3259  -11.3077   19.8626 H   0  0  0  0  0  0
  -29.7797  -11.7233   17.4653 H   0  0  0  0  0  0
  -29.7163  -13.4439   17.7315 H   0  0  0  0  0  0
  -27.8461  -11.3105   18.8075 H   0  0  0  0  0  0
  -27.4061  -12.6296   17.7499 H   0  0  0  0  0  0
  -27.6854  -14.2595   19.5147 H   0  0  0  0  0  0
  -28.6665  -12.0596   21.4077 H   0  0  0  0  0  0
  -28.4628  -13.7384   21.8039 H   0  0  0  0  0  0
  -25.2847   -9.5621   22.4723 H   0  0  0  0  0  0
  -24.0018   -7.4624   22.7433 H   0  0  0  0  0  0
  -21.0873   -8.8840   19.8972 H   0  0  0  0  0  0
  -22.3831  -10.9665   19.6108 H   0  0  0  0  0  0
  -21.2016   -7.6138   23.9760 H   0  0  0  0  0  0
  -21.1467   -6.0460   25.9103 H   0  0  0  0  0  0
  -22.0616   -2.7579   23.2795 H   0  0  0  0  0  0
  -22.3947  -11.9980   22.4917 H   0  0  0  0  0  0
  -21.1014  -13.1357   22.2447 H   0  0  0  0  0  0
  -24.6841  -15.8257   20.7457 H   0  0  0  0  0  0
  -26.2475  -15.6759   20.1227 H   0  0  0  0  0  0
  -26.7191  -32.5478   23.1135 H   0  0  0  0  0  0
  -25.0176  -33.9762   25.0479 H   0  0  0  0  0  0
  -22.6993  -31.3165   21.4272 H   0  0  0  0  0  0
  -23.3801  -35.9584   23.3307 H   0  0  0  0  0  0
  -24.3609  -36.8873   22.2053 H   0  0  0  0  0  0
  -23.7263  -37.6467   23.6653 H   0  0  0  0  0  0
  -26.1240  -31.5983   20.6551 H   0  0  0  0  0  0
  -26.8193  -30.8137   22.0457 H   0  0  0  0  0  0
  -28.1024  -29.0175   21.1932 H   0  0  0  0  0  0
  -25.9347  -25.9847   18.9826 H   0  0  0  0  0  0
  -23.9580  -27.3587   18.9922 H   0  0  0  0  0  0
  -23.7525  -30.6425   19.4213 H   0  0  0  0  0  0
  -22.7435  -29.2942   19.8474 H   0  0  0  0  0  0
  -25.1345  -36.1918   25.0825 H   0  0  0  0  0  0
  -20.9959  -28.3284   24.1463 H   0  0  0  0  0  0
  -20.5765  -26.2289   23.3644 H   0  0  0  0  0  0
  -21.6671  -26.7522   22.1231 H   0  0  0  0  0  0
  -19.6959  -25.6293   21.1300 H   0  0  0  0  0  0
  -19.6762  -27.3189   20.6760 H   0  0  0  0  0  0
  -17.4258  -26.6768   21.3937 H   0  0  0  0  0  0
  -18.0250  -26.0093   22.8974 H   0  0  0  0  0  0
  -19.7903  -30.7310   24.2249 H   0  0  0  0  0  0
  -17.4982  -31.6265   24.5176 H   0  0  0  0  0  0
  -15.5329  -30.2969   23.7691 H   0  0  0  0  0  0
  -15.8681  -28.0853   22.7033 H   0  0  0  0  0  0
  -24.5847  -30.7228   25.7754 H   0  0  0  0  0  0
  -24.8944  -32.3032   26.4810 H   0  0  0  0  0  0
  -25.7948  -30.8994   27.0266 H   0  0  0  0  0  0
  -26.2936  -29.6687   24.1339 H   0  0  0  0  0  0
  -27.3944  -29.7282   25.4889 H   0  0  0  0  0  0
  -27.8859  -30.4145   23.9609 H   0  0  0  0  0  0
  -27.2815  -33.3608   26.2051 H   0  0  0  0  0  0
  -28.3879  -32.6843   25.0192 H   0  0  0  0  0  0
  -28.0886  -31.8402   26.5293 H   0  0  0  0  0  0
  -28.2651  -38.0080   24.7494 H   0  0  0  0  0  0
  -28.1100  -36.2601   24.6261 H   0  0  0  0  0  0
  -27.2341  -37.1430   25.8861 H   0  0  0  0  0  0
  -20.9356  -29.8687   21.6869 H   0  0  0  0  0  0
  -26.0205  -38.2860   24.1364 H   0  0  0  0  0  0
  -31.2948  -16.7820   18.4772 H   0  0  0  0  0  0
  -31.7543  -19.8139   22.9737 H   0  0  0  0  0  0
  -31.4131  -21.5320   23.1728 H   0  0  0  0  0  0
  -32.3262  -20.9562   21.7849 H   0  0  0  0  0  0
  -26.6229  -22.6064   21.2251 H   0  0  0  0  0  0
  -27.3255  -21.0368   20.9336 H   0  0  0  0  0  0
  -27.2388  -22.2090   19.6254 H   0  0  0  0  0  0
  -27.2022  -24.9260   21.0637 H   0  0  0  0  0  0
  -27.4976  -24.7776   19.3450 H   0  0  0  0  0  0
  -29.3523  -20.4060   22.3374 H   0  0  0  0  0  0
  -28.8328  -22.7572   22.1917 H   0  0  0  0  0  0
  -29.0423  -15.4310   21.1310 H   0  0  0  0  0  0
  -29.7500  -21.3518   19.7929 H   0  0  0  0  0  0
  -30.7402  -22.2711   20.6820 H   0  0  0  0  0  0
  1 25  1  0  0  0
  1 30  2  0  0  0
  1 81  1  0  0  0
  2  3  1  0  0  0
  2 25  1  0  0  0
  2 85  1  0  0  0
  2 86  1  0  0  0
  3  4  1  0  0  0
  3 87  1  0  0  0
  3 88  1  0  0  0
  4  5  1  0  0  0
  4 89  1  0  0  0
  4 90  1  0  0  0
  5  6  1  0  0  0
  5 26  1  0  0  0
  5 91  1  0  0  0
  6 25  1  0  0  0
  6 92  1  0  0  0
  6 93  1  0  0  0
  7  8  2  0  0  0
  7 26  1  0  0  0
  7 29  1  0  0  0
  8  9  1  0  0  0
  8 22  1  0  0  0
  9 10  1  0  0  0
  9 27  2  0  0  0
 10 11  2  0  0  0
 10 15  1  0  0  0
 11 12  1  0  0  0
 11 94  1  0  0  0
 12 13  2  0  0  0
 12 95  1  0  0  0
 13 14  1  0  0  0
 13 31  1  0  0  0
 14 15  2  0  0  0
 14 96  1  0  0  0
 15 97  1  0  0  0
 16 17  2  0  0  0
 16 21  1  0  0  0
 16 31  1  0  0  0
 17 18  1  0  0  0
 17 98  1  0  0  0
 18 19  2  0  0  0
 18 99  1  0  0  0
 19 20  1  0  0  0
 19 24  1  0  0  0
 20 21  2  0  0  0
 20100  1  0  0  0
 21 23  1  0  0  0
 22 28  1  0  0  0
 22 32  2  0  0  0
 26 27  1  0  0  0
 28101  1  0  0  0
 28102  1  0  0  0
 29103  1  0  0  0
 29104  1  0  0  0
 33 34  1  0  0  0
 33 66  1  0  0  0
 33 70  2  0  0  0
 34 36  1  0  0  0
 34 59  1  0  0  0
 34105  1  0  0  0
 35 44  2  0  0  0
 35 45  1  0  0  0
 35 68  1  0  0  0
 36 56  1  0  0  0
 36106  1  0  0  0
 37 39  1  0  0  0
 37 47  1  0  0  0
 37 66  1  0  0  0
 37107  1  0  0  0
 38 43  2  0  0  0
 38 46  1  0  0  0
 38 47  1  0  0  0
 39 64  1  0  0  0
 39 67  2  0  0  0
 40 52  1  0  0  0
 40 53  2  0  0  0
 40 58  1  0  0  0
 41108  1  0  0  0
 41109  1  0  0  0
 41110  1  0  0  0
 41 48  1  0  0  0
 42 43  1  0  0  0
 42 66  1  0  0  0
 42111  1  0  0  0
 42112  1  0  0  0
 43 44  1  0  0  0
 44113  1  0  0  0
 45 46  2  0  0  0
 45114  1  0  0  0
 46115  1  0  0  0
 47116  1  0  0  0
 47117  1  0  0  0
 48 56  1  0  0  0
 48 65  1  0  0  0
 48118  1  0  0  0
 49 50  1  0  0  0
 49 53  1  0  0  0
 49 64  1  0  0  0
 49119  1  0  0  0
 50 51  1  0  0  0
 50120  1  0  0  0
 50121  1  0  0  0
 51 52  1  0  0  0
 51122  1  0  0  0
 51123  1  0  0  0
 52124  1  0  0  0
 52125  1  0  0  0
 53 54  1  0  0  0
 54 55  2  0  0  0
 54126  1  0  0  0
 55 57  1  0  0  0
 55127  1  0  0  0
 56 69  2  0  0  0
 57 58  2  0  0  0
 57128  1  0  0  0
 58129  1  0  0  0
 59 60  1  0  0  0
 59 61  1  0  0  0
 59 62  1  0  0  0
 60130  1  0  0  0
 60131  1  0  0  0
 60132  1  0  0  0
 61133  1  0  0  0
 61134  1  0  0  0
 61135  1  0  0  0
 62136  1  0  0  0
 62137  1  0  0  0
 62138  1  0  0  0
 63 65  1  0  0  0
 63139  1  0  0  0
 63140  1  0  0  0
 63141  1  0  0  0
 64142  1  0  0  0
 65143  1  0  0  0
 68 77  1  0  0  0
 71 72  2  0  0  0
 71 84  1  0  0  0
 71144  1  0  0  0
 72 80  1  0  0  0
 72 81  1  0  0  0
 73 78  1  0  0  0
 73 80  2  0  0  0
 73 84  1  0  0  0
 74 77  1  0  0  0
 74 79  1  0  0  0
 74 83  2  0  0  0
 75145  1  0  0  0
 75146  1  0  0  0
 75147  1  0  0  0
 75 78  1  0  0  0
 76148  1  0  0  0
 76149  1  0  0  0
 76150  1  0  0  0
 76 79  1  0  0  0
 77151  1  0  0  0
 77152  1  0  0  0
 78 82  1  0  0  0
 78153  1  0  0  0
 79 82  1  0  0  0
 79154  1  0  0  0
 81155  1  0  0  0
 82156  1  0  0  0
 82157  1  0  0  0
M  CHG  1  82   1
M  ISO  4   1 100  68 101  77 101  81 100
M  END
> <chiral flag>
0

> <version>
0

> <s_m_source_file>
/data/baiqing/PycharmProjects/Reinvent-master-3.2/result/LINK_invent/BTK/process_docking_weight1_custom_product_contain_oxygen_bond_distance_aromatic_linkinvent_7_9_3/rearranged_h_0181.sdf

> <i_m_source_file_index>
8

> <r_mmod_Potential_Energy-OPLS-2005>
-317.222320556641

> <r_mmod_Stretch_Energy-OPLS-2005>
53.9914894104004

> <r_mmod_Bend_Energy-OPLS-2005>
113.23072052002

> <r_mmod_Torsional_Energy-OPLS-2005>
237.24055480957

> <r_mmod_Improper_Torsional_Energy-OPLS-2005>
5.59276151657104

> <r_mmod_Van_der_Waal_Energy-OPLS-2005>
129.527282714844

> <r_mmod_Electrostatic_Energy-OPLS-2005>
-402.692810058594

> <r_mmod_Solvation_Energy-OPLS-2005>
-488.675048828125

> <b_mmod_Minimization_Converged-OPLS-2005>
0

> <r_mmod_RMS_Derivative-OPLS-2005>
7.24654388427734

$$$$
8
                    3D
 Structure written by MMmdl.
155163  0  0  1  0            999 V2000
  -30.7142  -14.4332   20.5768 C   0  0  0  0  0  0
  -30.4228  -12.2813   19.4051 C   0  0  0  0  0  0
  -29.4919  -12.5087   18.1973 C   0  0  0  0  0  0
  -28.0116  -12.3759   18.6097 C   0  0  0  0  0  0
  -27.6682  -13.2008   19.8775 C   0  0  2  0  0  0
  -28.7095  -12.9408   20.9882 C   0  0  0  0  0  0
  -25.2630  -13.8149   20.5689 C   0  0  0  0  0  0
  -24.1867  -13.0444   20.9164 C   0  0  0  0  0  0
  -24.6414  -11.6902   20.8727 C   0  0  0  0  0  0
  -23.9067  -10.4295   21.0401 C   0  0  0  0  0  0
  -24.3614   -9.4206   21.9177 C   0  0  0  0  0  0
  -23.6288   -8.2246   22.0747 C   0  0  0  0  0  0
  -22.4260   -8.0287   21.3550 C   0  0  0  0  0  0
  -21.9914   -9.0261   20.4650 C   0  0  0  0  0  0
  -22.7242  -10.2141   20.3059 C   0  0  0  0  0  0
  -21.6848   -6.0732   22.5280 C   0  0  0  0  0  0
  -21.4012   -6.5639   23.8214 C   0  0  0  0  0  0
  -21.3657   -5.6794   24.9175 C   0  0  0  0  0  0
  -21.6050   -4.3055   24.7223 C   0  0  0  0  0  0
  -21.8820   -3.8144   23.4346 C   0  0  0  0  0  0
  -21.9190   -4.6964   22.3400 C   0  0  0  0  0  0
  -22.7883  -13.5244   21.1827 C   0  0  0  0  0  0
  -22.1655   -4.2141   21.0975 F   0  0  0  0  0  0
  -21.5631   -3.4539   25.7739 F   0  0  0  0  0  0
  -30.0446  -13.2533   20.4454 N   0  0  0  0  0  0
  -26.3067  -12.9330   20.3381 N   0  0  0  0  0  0
  -25.9336  -11.6486   20.5764 N   0  0  0  0  0  0
  -22.0518  -12.8250   22.0393 N   0  0  0  0  0  0
  -25.4403  -15.1883   20.4117 N   0  0  0  0  0  0
  -31.8092  -14.6354   20.0425 O   0  0  0  0  0  0
  -21.6638   -6.8880   21.4248 O   0  0  0  0  0  0
  -22.3567  -14.5548   20.6666 O   0  0  0  0  0  0
  -24.6150  -31.8683   23.2098 C   0  0  0  0  0  0
  -25.9039  -32.4824   23.8398 C   0  0  1  0  0  0
  -27.2293  -27.4402   20.0864 C   0  0  0  0  0  0
  -25.5910  -33.8623   24.2323 N   0  0  0  0  0  0
  -23.4017  -30.4907   21.5517 C   0  0  2  0  0  0
  -24.8480  -28.9635   20.1093 C   0  0  0  0  0  0
  -22.7411  -29.4647   22.5014 C   0  0  0  0  0  0
  -18.0263  -28.1367   22.8491 C   0  0  0  0  0  0
  -24.1493  -36.7315   23.2635 C   0  0  0  0  0  0
  -25.9339  -30.8386   21.3598 C   0  0  0  0  0  0
  -26.0118  -29.4767   20.6985 C   0  0  0  0  0  0
  -27.2097  -28.7252   20.6760 C   0  0  0  0  0  0
  -26.0508  -26.9448   19.4872 C   0  0  0  0  0  0
  -24.8635  -27.6996   19.4941 C   0  0  0  0  0  0
  -23.6076  -29.8238   20.1651 C   0  0  0  0  0  0
  -25.4115  -36.3109   24.0328 C   0  0  1  0  0  0
  -20.5865  -28.3637   23.1313 C   0  0  2  0  0  0
  -20.6784  -26.9392   22.5391 C   0  0  0  0  0  0
  -19.5721  -26.6377   21.5218 C   0  0  0  0  0  0
  -18.1927  -26.7888   22.1672 C   0  0  0  0  0  0
  -19.1515  -28.8820   23.2905 C   0  0  0  0  0  0
  -18.9462  -30.1444   23.8889 C   0  0  0  0  0  0
  -17.6477  -30.6585   24.0560 C   0  0  0  0  0  0
  -25.9041  -34.9479   23.5121 C   0  0  0  0  0  0
  -16.5357  -29.9098   23.6341 C   0  0  0  0  0  0
  -16.7255  -28.6507   23.0361 C   0  0  0  0  0  0
  -26.4476  -31.6597   25.0718 C   0  0  0  0  0  0
  -25.3721  -31.3727   26.1458 C   0  0  0  0  0  0
  -27.0316  -30.3027   24.6103 C   0  0  0  0  0  0
  -27.6041  -32.4311   25.7474 C   0  0  0  0  0  0
  -27.5579  -37.1811   24.8458 C   0  0  0  0  0  0
  -21.4136  -29.3018   22.3737 N   0  0  0  0  0  0
  -26.4301  -37.3786   23.9399 N   0  0  0  0  0  0
  -24.6687  -31.0805   22.0982 N   0  0  0  0  0  0
  -23.4195  -28.8183   23.3030 O   0  0  0  0  0  0
  -28.3727  -26.6728   20.0933 O   0  0  0  0  0  0
  -26.5599  -34.8925   22.4680 O   0  0  0  0  0  0
  -23.5335  -32.1444   23.7472 O   0  0  0  0  0  0
  -29.6913  -18.1458   20.8207 C   0  0  0  0  0  0
  -29.7058  -19.0072   21.8992 C   0  0  0  0  0  0
  -29.1174  -20.4869   20.2668 C   0  0  0  0  0  0
  -29.9337  -16.7247   20.8028 C   0  0  0  0  0  0
  -30.0143  -15.4711   21.3197 C   0  0  0  0  0  0
  -28.7006  -24.1980   19.9940 C   0  0  0  0  0  0
  -30.0237  -18.6521   23.3186 C   0  0  0  0  0  0
  -27.4015  -22.6767   21.6119 C   0  0  0  0  0  0
  -28.2095  -25.4274   20.7953 C   0  0  0  0  0  0
  -27.9216  -22.8575   20.1715 C   0  0  2  0  0  0
  -29.3623  -20.3221   21.5685 N   0  0  0  0  0  0
  -28.6509  -21.6691   19.6921 N   0  0  0  0  0  0
  -29.6807  -24.2946   19.2475 O   0  0  0  0  0  0
  -29.3240  -18.9993   19.3351 S   0  0  0  0  0  0
  -31.4656  -12.3723   19.0973 H   0  0  0  0  0  0
  -30.3130  -11.2640   19.7791 H   0  0  0  0  0  0
  -29.7217  -11.7982   17.4021 H   0  0  0  0  0  0
  -29.6720  -13.4998   17.7795 H   0  0  0  0  0  0
  -27.8150  -11.3189   18.7939 H   0  0  0  0  0  0
  -27.3606  -12.6692   17.7844 H   0  0  0  0  0  0
  -27.7285  -14.2561   19.6066 H   0  0  0  0  0  0
  -28.6818  -11.8950   21.2947 H   0  0  0  0  0  0
  -28.4540  -13.4963   21.8882 H   0  0  0  0  0  0
  -25.2763   -9.5666   22.4756 H   0  0  0  0  0  0
  -23.9986   -7.4639   22.7464 H   0  0  0  0  0  0
  -21.0848   -8.8789   19.8960 H   0  0  0  0  0  0
  -22.3706  -10.9678   19.6170 H   0  0  0  0  0  0
  -21.2005   -7.6140   23.9719 H   0  0  0  0  0  0
  -21.1480   -6.0515   25.9083 H   0  0  0  0  0  0
  -22.0604   -2.7601   23.2847 H   0  0  0  0  0  0
  -22.4115  -11.9896   22.4771 H   0  0  0  0  0  0
  -21.1151  -13.1301   22.2612 H   0  0  0  0  0  0
  -24.6843  -15.8528   20.5327 H   0  0  0  0  0  0
  -26.3092  -15.6235   20.1268 H   0  0  0  0  0  0
  -26.7117  -32.5532   23.1177 H   0  0  0  0  0  0
  -25.0074  -33.9790   25.0475 H   0  0  0  0  0  0
  -22.6881  -31.3062   21.4119 H   0  0  0  0  0  0
  -23.3748  -35.9661   23.3315 H   0  0  0  0  0  0
  -24.3578  -36.8902   22.2044 H   0  0  0  0  0  0
  -23.7259  -37.6531   23.6634 H   0  0  0  0  0  0
  -26.0475  -31.6092   20.5967 H   0  0  0  0  0  0
  -26.8221  -30.8870   21.9797 H   0  0  0  0  0  0
  -28.1112  -29.1153   21.1261 H   0  0  0  0  0  0
  -26.0474  -25.9702   19.0163 H   0  0  0  0  0  0
  -23.9678  -27.3018   19.0362 H   0  0  0  0  0  0
  -23.7087  -30.5991   19.4044 H   0  0  0  0  0  0
  -22.7335  -29.2369   19.8742 H   0  0  0  0  0  0
  -25.1294  -36.1983   25.0817 H   0  0  0  0  0  0
  -20.9947  -28.3210   24.1434 H   0  0  0  0  0  0
  -20.5750  -26.2248   23.3580 H   0  0  0  0  0  0
  -21.6624  -26.7503   22.1133 H   0  0  0  0  0  0
  -19.6914  -25.6315   21.1193 H   0  0  0  0  0  0
  -19.6626  -27.3235   20.6777 H   0  0  0  0  0  0
  -17.4171  -26.6564   21.4111 H   0  0  0  0  0  0
  -18.0392  -26.0061   22.9108 H   0  0  0  0  0  0
  -19.7952  -30.7237   24.2257 H   0  0  0  0  0  0
  -17.5047  -31.6250   24.5170 H   0  0  0  0  0  0
  -15.5365  -30.3008   23.7677 H   0  0  0  0  0  0
  -15.8638  -28.0827   22.7099 H   0  0  0  0  0  0
  -24.5882  -30.7098   25.7791 H   0  0  0  0  0  0
  -24.8956  -32.2908   26.4888 H   0  0  0  0  0  0
  -25.8063  -30.8893   27.0215 H   0  0  0  0  0  0
  -26.2897  -29.6774   24.1136 H   0  0  0  0  0  0
  -27.4059  -29.7266   25.4575 H   0  0  0  0  0  0
  -27.8724  -30.4337   23.9291 H   0  0  0  0  0  0
  -27.2660  -33.3585   26.2108 H   0  0  0  0  0  0
  -28.3838  -32.6909   25.0298 H   0  0  0  0  0  0
  -28.0748  -31.8406   26.5351 H   0  0  0  0  0  0
  -28.2610  -38.0089   24.7499 H   0  0  0  0  0  0
  -28.1062  -36.2629   24.6313 H   0  0  0  0  0  0
  -27.2288  -37.1487   25.8853 H   0  0  0  0  0  0
  -20.9323  -29.8691   21.6904 H   0  0  0  0  0  0
  -26.0192  -38.2860   24.1399 H   0  0  0  0  0  0
  -29.1675  -16.7937   21.5593 H   0  0  0  0  0  0
  -29.6089  -15.1955   22.2897 H   0  0  0  0  0  0
  -30.8822  -17.9812   23.3686 H   0  0  0  0  0  0
  -29.1842  -18.1480   23.7959 H   0  0  0  0  0  0
  -30.2652  -19.5285   23.9193 H   0  0  0  0  0  0
  -26.6150  -23.3902   21.8574 H   0  0  0  0  0  0
  -28.2014  -22.7955   22.3421 H   0  0  0  0  0  0
  -26.9564  -21.6906   21.7598 H   0  0  0  0  0  0
  -27.1726  -25.2813   21.0967 H   0  0  0  0  0  0
  -28.7919  -25.4766   21.7140 H   0  0  0  0  0  0
  -27.0455  -22.9271   19.5236 H   0  0  0  0  0  0
  -28.7422  -21.6633   18.6802 H   0  0  0  0  0  0
  1 25  1  0  0  0
  1 30  2  0  0  0
  1 75  1  0  0  0
  2  3  1  0  0  0
  2 25  1  0  0  0
  2 85  1  0  0  0
  2 86  1  0  0  0
  3  4  1  0  0  0
  3 87  1  0  0  0
  3 88  1  0  0  0
  4  5  1  0  0  0
  4 89  1  0  0  0
  4 90  1  0  0  0
  5  6  1  0  0  0
  5 26  1  0  0  0
  5 91  1  0  0  0
  6 25  1  0  0  0
  6 92  1  0  0  0
  6 93  1  0  0  0
  7  8  2  0  0  0
  7 26  1  0  0  0
  7 29  1  0  0  0
  8  9  1  0  0  0
  8 22  1  0  0  0
  9 10  1  0  0  0
  9 27  2  0  0  0
 10 11  2  0  0  0
 10 15  1  0  0  0
 11 12  1  0  0  0
 11 94  1  0  0  0
 12 13  2  0  0  0
 12 95  1  0  0  0
 13 14  1  0  0  0
 13 31  1  0  0  0
 14 15  2  0  0  0
 14 96  1  0  0  0
 15 97  1  0  0  0
 16 17  2  0  0  0
 16 21  1  0  0  0
 16 31  1  0  0  0
 17 18  1  0  0  0
 17 98  1  0  0  0
 18 19  2  0  0  0
 18 99  1  0  0  0
 19 20  1  0  0  0
 19 24  1  0  0  0
 20 21  2  0  0  0
 20100  1  0  0  0
 21 23  1  0  0  0
 22 28  1  0  0  0
 22 32  2  0  0  0
 26 27  1  0  0  0
 28101  1  0  0  0
 28102  1  0  0  0
 29103  1  0  0  0
 29104  1  0  0  0
 33 34  1  0  0  0
 33 66  1  0  0  0
 33 70  2  0  0  0
 34 36  1  0  0  0
 34 59  1  0  0  0
 34105  1  0  0  0
 35 44  2  0  0  0
 35 45  1  0  0  0
 35 68  1  0  0  0
 36 56  1  0  0  0
 36106  1  0  0  0
 37 39  1  0  0  0
 37 47  1  0  0  0
 37 66  1  0  0  0
 37107  1  0  0  0
 38 43  2  0  0  0
 38 46  1  0  0  0
 38 47  1  0  0  0
 39 64  1  0  0  0
 39 67  2  0  0  0
 40 52  1  0  0  0
 40 53  2  0  0  0
 40 58  1  0  0  0
 41108  1  0  0  0
 41109  1  0  0  0
 41110  1  0  0  0
 41 48  1  0  0  0
 42 43  1  0  0  0
 42 66  1  0  0  0
 42111  1  0  0  0
 42112  1  0  0  0
 43 44  1  0  0  0
 44113  1  0  0  0
 45 46  2  0  0  0
 45114  1  0  0  0
 46115  1  0  0  0
 47116  1  0  0  0
 47117  1  0  0  0
 48 56  1  0  0  0
 48 65  1  0  0  0
 48118  1  0  0  0
 49 50  1  0  0  0
 49 53  1  0  0  0
 49 64  1  0  0  0
 49119  1  0  0  0
 50 51  1  0  0  0
 50120  1  0  0  0
 50121  1  0  0  0
 51 52  1  0  0  0
 51122  1  0  0  0
 51123  1  0  0  0
 52124  1  0  0  0
 52125  1  0  0  0
 53 54  1  0  0  0
 54 55  2  0  0  0
 54126  1  0  0  0
 55 57  1  0  0  0
 55127  1  0  0  0
 56 69  2  0  0  0
 57 58  2  0  0  0
 57128  1  0  0  0
 58129  1  0  0  0
 59 60  1  0  0  0
 59 61  1  0  0  0
 59 62  1  0  0  0
 60130  1  0  0  0
 60131  1  0  0  0
 60132  1  0  0  0
 61133  1  0  0  0
 61134  1  0  0  0
 61135  1  0  0  0
 62136  1  0  0  0
 62137  1  0  0  0
 62138  1  0  0  0
 63 65  1  0  0  0
 63139  1  0  0  0
 63140  1  0  0  0
 63141  1  0  0  0
 64142  1  0  0  0
 65143  1  0  0  0
 68 79  1  0  0  0
 71 72  2  0  0  0
 71 74  1  0  0  0
 71 84  1  0  0  0
 72 77  1  0  0  0
 72 81  1  0  0  0
 73 81  2  0  0  0
 73 82  1  0  0  0
 73 84  1  0  0  0
 74 75  2  0  0  0
 74144  1  0  0  0
 75145  1  0  0  0
 76 79  1  0  0  0
 76 80  1  0  0  0
 76 83  2  0  0  0
 77146  1  0  0  0
 77147  1  0  0  0
 77148  1  0  0  0
 78149  1  0  0  0
 78150  1  0  0  0
 78151  1  0  0  0
 78 80  1  0  0  0
 79152  1  0  0  0
 79153  1  0  0  0
 80 82  1  0  0  0
 80154  1  0  0  0
 82155  1  0  0  0
M  ISO  4   1 100  68 101  75 100  79 101
M  END
> <chiral flag>
0

> <version>
0

> <s_m_source_file>
/data/baiqing/PycharmProjects/Reinvent-master-3.2/result/LINK_invent/BTK/process_docking_weight1_custom_product_contain_oxygen_bond_distance_aromatic_linkinvent_7_9_3/rearranged_h_0181.sdf

> <i_m_source_file_index>
9

> <r_mmod_Potential_Energy-OPLS-2005>
175.402954101562

> <r_mmod_Stretch_Energy-OPLS-2005>
37.5074653625488

> <r_mmod_Bend_Energy-OPLS-2005>
290.213806152344

> <r_mmod_Torsional_Energy-OPLS-2005>
230.257934570312

> <r_mmod_Improper_Torsional_Energy-OPLS-2005>
8.36532783508301

> <r_mmod_Van_der_Waal_Energy-OPLS-2005>
141.497085571289

> <r_mmod_Electrostatic_Energy-OPLS-2005>
-308.540252685547

> <r_mmod_Solvation_Energy-OPLS-2005>
-234.580780029297

> <b_mmod_Minimization_Converged-OPLS-2005>
0

> <r_mmod_RMS_Derivative-OPLS-2005>
3.721435546875

$$$$
9
                    3D
 Structure written by MMmdl.
158166  0  0  1  0            999 V2000
  -30.6301  -14.7686   20.3459 C   0  0  0  0  0  0
  -30.4223  -12.4449   19.4664 C   0  0  0  0  0  0
  -29.5057  -12.4849   18.2257 C   0  0  0  0  0  0
  -28.0333  -12.3264   18.6490 C   0  0  0  0  0  0
  -27.6404  -13.2424   19.8402 C   0  0  2  0  0  0
  -28.6975  -13.2262   20.9688 C   0  0  0  0  0  0
  -25.2549  -13.8203   20.5765 C   0  0  0  0  0  0
  -24.1839  -13.0455   20.9237 C   0  0  0  0  0  0
  -24.6439  -11.6921   20.8783 C   0  0  0  0  0  0
  -23.9105  -10.4301   21.0420 C   0  0  0  0  0  0
  -24.3639   -9.4202   21.9199 C   0  0  0  0  0  0
  -23.6296   -8.2252   22.0762 C   0  0  0  0  0  0
  -22.4278   -8.0299   21.3535 C   0  0  0  0  0  0
  -21.9927   -9.0279   20.4653 C   0  0  0  0  0  0
  -22.7286  -10.2150   20.3065 C   0  0  0  0  0  0
  -21.6851   -6.0747   22.5281 C   0  0  0  0  0  0
  -21.4029   -6.5645   23.8221 C   0  0  0  0  0  0
  -21.3651   -5.6793   24.9176 C   0  0  0  0  0  0
  -21.6049   -4.3056   24.7224 C   0  0  0  0  0  0
  -21.8815   -3.8150   23.4341 C   0  0  0  0  0  0
  -21.9196   -4.6972   22.3403 C   0  0  0  0  0  0
  -22.7861  -13.5222   21.1874 C   0  0  0  0  0  0
  -22.1662   -4.2145   21.0984 F   0  0  0  0  0  0
  -21.5620   -3.4548   25.7740 F   0  0  0  0  0  0
  -29.9885  -13.5483   20.3538 N   0  0  0  0  0  0
  -26.2984  -12.9445   20.3304 N   0  0  0  0  0  0
  -25.9375  -11.6581   20.5806 N   0  0  0  0  0  0
  -22.0495  -12.8205   22.0418 N   0  0  0  0  0  0
  -25.4225  -15.1952   20.4213 N   0  0  0  0  0  0
  -31.8466  -14.7890   20.1384 O   0  0  0  0  0  0
  -21.6650   -6.8891   21.4236 O   0  0  0  0  0  0
  -22.3544  -14.5521   20.6710 O   0  0  0  0  0  0
  -24.6304  -31.8523   23.2052 C   0  0  0  0  0  0
  -25.9124  -32.4762   23.8372 C   0  0  1  0  0  0
  -27.1967  -27.2408   20.0874 C   0  0  0  0  0  0
  -25.5912  -33.8571   24.2277 N   0  0  0  0  0  0
  -23.4285  -30.4815   21.5477 C   0  0  2  0  0  0
  -24.8679  -28.9387   20.1065 C   0  0  0  0  0  0
  -22.7491  -29.4608   22.4921 C   0  0  0  0  0  0
  -18.0284  -28.1387   22.8500 C   0  0  0  0  0  0
  -24.1487  -36.7303   23.2641 C   0  0  0  0  0  0
  -25.9794  -30.7540   21.3933 C   0  0  0  0  0  0
  -26.0475  -29.3792   20.7233 C   0  0  0  0  0  0
  -27.2109  -28.5365   20.7181 C   0  0  0  0  0  0
  -26.0005  -26.8965   19.4199 C   0  0  0  0  0  0
  -24.8527  -27.7051   19.4502 C   0  0  0  0  0  0
  -23.6444  -29.8293   20.1610 C   0  0  0  0  0  0
  -25.4108  -36.3075   24.0325 C   0  0  1  0  0  0
  -20.5891  -28.3673   23.1288 C   0  0  2  0  0  0
  -20.6788  -26.9391   22.5417 C   0  0  0  0  0  0
  -19.5762  -26.6370   21.5231 C   0  0  0  0  0  0
  -18.1941  -26.7931   22.1636 C   0  0  0  0  0  0
  -19.1542  -28.8840   23.2895 C   0  0  0  0  0  0
  -18.9461  -30.1460   23.8883 C   0  0  0  0  0  0
  -17.6463  -30.6588   24.0558 C   0  0  0  0  0  0
  -25.9045  -34.9446   23.5115 C   0  0  0  0  0  0
  -16.5346  -29.9074   23.6352 C   0  0  0  0  0  0
  -16.7271  -28.6504   23.0362 C   0  0  0  0  0  0
  -26.4489  -31.6582   25.0757 C   0  0  0  0  0  0
  -25.3711  -31.3734   26.1481 C   0  0  0  0  0  0
  -27.0362  -30.2999   24.6289 C   0  0  0  0  0  0
  -27.6039  -32.4330   25.7519 C   0  0  0  0  0  0
  -27.5587  -37.1812   24.8459 C   0  0  0  0  0  0
  -21.4188  -29.3024   22.3644 N   0  0  0  0  0  0
  -26.4295  -37.3767   23.9405 N   0  0  0  0  0  0
  -24.7000  -31.0457   22.1054 N   0  0  0  0  0  0
  -23.4175  -28.8104   23.3010 O   0  0  0  0  0  0
  -28.2611  -26.3008   20.1373 O   0  0  0  0  0  0
  -26.5620  -34.8900   22.4685 O   0  0  0  0  0  0
  -23.5444  -32.1390   23.7285 O   0  0  0  0  0  0
  -31.1854  -17.4793   18.9204 C   0  0  0  0  0  0
  -31.6027  -18.7454   18.4638 C   0  0  0  0  0  0
  -31.0550  -19.9310   19.0247 C   0  0  0  0  0  0
  -30.1967  -17.3358   19.9095 C   0  0  0  0  0  0
  -29.9353  -19.7958   19.8953 C   0  0  0  0  0  0
  -32.6234  -18.7517   17.4033 C   0  0  0  0  0  0
  -28.7742  -23.6343   20.3132 C   0  0  0  0  0  0
  -27.1878  -21.7890   19.3782 C   0  0  0  0  0  0
  -28.0043  -24.8833   19.6592 C   0  0  0  0  0  0
  -28.6624  -22.1248   19.6737 C   0  0  2  0  0  0
  -31.7549  -21.2735   18.7314 C   0  0  0  0  0  0
  -29.5583  -18.5139   20.3176 N   0  0  0  0  0  0
  -29.8709  -15.9464   20.3580 N   0  0  0  0  0  0
  -29.2419  -20.9443   20.4417 N   0  0  0  0  0  0
  -33.8102  -18.6684   17.6956 O   0  0  0  0  0  0
  -29.4420  -23.8305   21.3329 O   0  0  0  0  0  0
  -32.2259  -18.7890   16.1185 F   0  0  0  0  0  0
  -33.0818  -21.1317   18.7394 F   0  0  0  0  0  0
  -31.5137  -22.2133   19.6402 F   0  0  0  0  0  0
  -31.3936  -21.7324   17.5345 F   0  0  0  0  0  0
  -31.4730  -12.5243   19.1761 H   0  0  0  0  0  0
  -30.3274  -11.4885   19.9831 H   0  0  0  0  0  0
  -29.7800  -11.6938   17.5282 H   0  0  0  0  0  0
  -29.6399  -13.4272   17.6921 H   0  0  0  0  0  0
  -27.8874  -11.2825   18.9268 H   0  0  0  0  0  0
  -27.3726  -12.5075   17.7996 H   0  0  0  0  0  0
  -27.6169  -14.2526   19.4296 H   0  0  0  0  0  0
  -28.7459  -12.2533   21.4570 H   0  0  0  0  0  0
  -28.4562  -13.9566   21.7438 H   0  0  0  0  0  0
  -25.2766   -9.5676   22.4790 H   0  0  0  0  0  0
  -23.9989   -7.4647   22.7480 H   0  0  0  0  0  0
  -21.0861   -8.8804   19.8967 H   0  0  0  0  0  0
  -22.3732  -10.9686   19.6179 H   0  0  0  0  0  0
  -21.2036   -7.6157   23.9711 H   0  0  0  0  0  0
  -21.1470   -6.0537   25.9072 H   0  0  0  0  0  0
  -22.0596   -2.7609   23.2858 H   0  0  0  0  0  0
  -22.4086  -11.9837   22.4774 H   0  0  0  0  0  0
  -21.1125  -13.1228   22.2654 H   0  0  0  0  0  0
  -24.6539  -15.8450   20.5454 H   0  0  0  0  0  0
  -26.2659  -15.6346   20.0794 H   0  0  0  0  0  0
  -26.7169  -32.5387   23.1081 H   0  0  0  0  0  0
  -25.0005  -33.9720   25.0380 H   0  0  0  0  0  0
  -22.7267  -31.3064   21.4100 H   0  0  0  0  0  0
  -23.3742  -35.9657   23.3306 H   0  0  0  0  0  0
  -24.3588  -36.8922   22.2068 H   0  0  0  0  0  0
  -23.7260  -37.6507   23.6666 H   0  0  0  0  0  0
  -26.1231  -31.5200   20.6286 H   0  0  0  0  0  0
  -26.8527  -30.7958   22.0332 H   0  0  0  0  0  0
  -28.1069  -28.8534   21.2291 H   0  0  0  0  0  0
  -25.8933  -25.9839   18.8499 H   0  0  0  0  0  0
  -23.9557  -27.3710   18.9460 H   0  0  0  0  0  0
  -23.7675  -30.6136   19.4120 H   0  0  0  0  0  0
  -22.7587  -29.2689   19.8556 H   0  0  0  0  0  0
  -25.1300  -36.1931   25.0823 H   0  0  0  0  0  0
  -21.0017  -28.3265   24.1398 H   0  0  0  0  0  0
  -20.5733  -26.2269   23.3613 H   0  0  0  0  0  0
  -21.6655  -26.7443   22.1189 H   0  0  0  0  0  0
  -19.6929  -25.6287   21.1256 H   0  0  0  0  0  0
  -19.6724  -27.3189   20.6779 H   0  0  0  0  0  0
  -17.4214  -26.6681   21.4036 H   0  0  0  0  0  0
  -18.0324  -26.0083   22.9042 H   0  0  0  0  0  0
  -19.7931  -30.7298   24.2237 H   0  0  0  0  0  0
  -17.4999  -31.6276   24.5140 H   0  0  0  0  0  0
  -15.5348  -30.2959   23.7684 H   0  0  0  0  0  0
  -15.8680  -28.0809   22.7078 H   0  0  0  0  0  0
  -24.5868  -30.7108   25.7804 H   0  0  0  0  0  0
  -24.8927  -32.2914   26.4917 H   0  0  0  0  0  0
  -25.8029  -30.8890   27.0255 H   0  0  0  0  0  0
  -26.3003  -29.6741   24.1252 H   0  0  0  0  0  0
  -27.3942  -29.7272   25.4856 H   0  0  0  0  0  0
  -27.8913  -30.4266   23.9657 H   0  0  0  0  0  0
  -27.2637  -33.3602   26.2149 H   0  0  0  0  0  0
  -28.3827  -32.6937   25.0336 H   0  0  0  0  0  0
  -28.0762  -31.8438   26.5393 H   0  0  0  0  0  0
  -28.2565  -38.0135   24.7494 H   0  0  0  0  0  0
  -28.1104  -36.2662   24.6280 H   0  0  0  0  0  0
  -27.2311  -37.1464   25.8857 H   0  0  0  0  0  0
  -20.9330  -29.8710   21.6840 H   0  0  0  0  0  0
  -26.0169  -38.2840   24.1403 H   0  0  0  0  0  0
  -31.6783  -16.6169   18.5014 H   0  0  0  0  0  0
  -26.6727  -22.5740   18.8285 H   0  0  0  0  0  0
  -26.6221  -21.6159   20.2960 H   0  0  0  0  0  0
  -27.1111  -20.8805   18.7799 H   0  0  0  0  0  0
  -26.9628  -24.6330   19.8506 H   0  0  0  0  0  0
  -28.1456  -24.8422   18.5773 H   0  0  0  0  0  0
  -29.1579  -22.1608   18.7074 H   0  0  0  0  0  0
  -28.9075  -15.8149   20.6153 H   0  0  0  0  0  0
  -28.7081  -20.7433   21.2770 H   0  0  0  0  0  0
  1 25  1  0  0  0
  1 30  2  0  0  0
  1 83  1  0  0  0
  2  3  1  0  0  0
  2 25  1  0  0  0
  2 91  1  0  0  0
  2 92  1  0  0  0
  3  4  1  0  0  0
  3 93  1  0  0  0
  3 94  1  0  0  0
  4  5  1  0  0  0
  4 95  1  0  0  0
  4 96  1  0  0  0
  5  6  1  0  0  0
  5 26  1  0  0  0
  5 97  1  0  0  0
  6 25  1  0  0  0
  6 98  1  0  0  0
  6 99  1  0  0  0
  7  8  2  0  0  0
  7 26  1  0  0  0
  7 29  1  0  0  0
  8  9  1  0  0  0
  8 22  1  0  0  0
  9 10  1  0  0  0
  9 27  2  0  0  0
 10 11  2  0  0  0
 10 15  1  0  0  0
 11 12  1  0  0  0
 11100  1  0  0  0
 12 13  2  0  0  0
 12101  1  0  0  0
 13 14  1  0  0  0
 13 31  1  0  0  0
 14 15  2  0  0  0
 14102  1  0  0  0
 15103  1  0  0  0
 16 17  2  0  0  0
 16 21  1  0  0  0
 16 31  1  0  0  0
 17 18  1  0  0  0
 17104  1  0  0  0
 18 19  2  0  0  0
 18105  1  0  0  0
 19 20  1  0  0  0
 19 24  1  0  0  0
 20 21  2  0  0  0
 20106  1  0  0  0
 21 23  1  0  0  0
 22 28  1  0  0  0
 22 32  2  0  0  0
 26 27  1  0  0  0
 28107  1  0  0  0
 28108  1  0  0  0
 29109  1  0  0  0
 29110  1  0  0  0
 33 34  1  0  0  0
 33 66  1  0  0  0
 33 70  2  0  0  0
 34 36  1  0  0  0
 34 59  1  0  0  0
 34111  1  0  0  0
 35 44  2  0  0  0
 35 45  1  0  0  0
 35 68  1  0  0  0
 36 56  1  0  0  0
 36112  1  0  0  0
 37 39  1  0  0  0
 37 47  1  0  0  0
 37 66  1  0  0  0
 37113  1  0  0  0
 38 43  2  0  0  0
 38 46  1  0  0  0
 38 47  1  0  0  0
 39 64  1  0  0  0
 39 67  2  0  0  0
 40 52  1  0  0  0
 40 53  2  0  0  0
 40 58  1  0  0  0
 41114  1  0  0  0
 41115  1  0  0  0
 41116  1  0  0  0
 41 48  1  0  0  0
 42 43  1  0  0  0
 42 66  1  0  0  0
 42117  1  0  0  0
 42118  1  0  0  0
 43 44  1  0  0  0
 44119  1  0  0  0
 45 46  2  0  0  0
 45120  1  0  0  0
 46121  1  0  0  0
 47122  1  0  0  0
 47123  1  0  0  0
 48 56  1  0  0  0
 48 65  1  0  0  0
 48124  1  0  0  0
 49 50  1  0  0  0
 49 53  1  0  0  0
 49 64  1  0  0  0
 49125  1  0  0  0
 50 51  1  0  0  0
 50126  1  0  0  0
 50127  1  0  0  0
 51 52  1  0  0  0
 51128  1  0  0  0
 51129  1  0  0  0
 52130  1  0  0  0
 52131  1  0  0  0
 53 54  1  0  0  0
 54 55  2  0  0  0
 54132  1  0  0  0
 55 57  1  0  0  0
 55133  1  0  0  0
 56 69  2  0  0  0
 57 58  2  0  0  0
 57134  1  0  0  0
 58135  1  0  0  0
 59 60  1  0  0  0
 59 61  1  0  0  0
 59 62  1  0  0  0
 60136  1  0  0  0
 60137  1  0  0  0
 60138  1  0  0  0
 61139  1  0  0  0
 61140  1  0  0  0
 61141  1  0  0  0
 62142  1  0  0  0
 62143  1  0  0  0
 62144  1  0  0  0
 63 65  1  0  0  0
 63145  1  0  0  0
 63146  1  0  0  0
 63147  1  0  0  0
 64148  1  0  0  0
 65149  1  0  0  0
 68 79  1  0  0  0
 71 72  2  0  0  0
 71 74  1  0  0  0
 71150  1  0  0  0
 72 73  1  0  0  0
 72 76  1  0  0  0
 73 75  2  0  0  0
 73 81  1  0  0  0
 74 82  2  0  0  0
 74 83  1  0  0  0
 75 82  1  0  0  0
 75 84  1  0  0  0
 76 85  2  0  0  0
 76 87  1  0  0  0
 77 79  1  0  0  0
 77 80  1  0  0  0
 77 86  2  0  0  0
 78151  1  0  0  0
 78152  1  0  0  0
 78153  1  0  0  0
 78 80  1  0  0  0
 79154  1  0  0  0
 79155  1  0  0  0
 80 84  1  0  0  0
 80156  1  0  0  0
 81 88  1  0  0  0
 81 89  1  0  0  0
 81 90  1  0  0  0
 83157  1  0  0  0
 84158  1  0  0  0
M  ISO  4   1 100  68 101  79 101  83 100
M  END
> <chiral flag>
0

> <version>
0

> <s_m_source_file>
/data/baiqing/PycharmProjects/Reinvent-master-3.2/result/LINK_invent/BTK/process_docking_weight1_custom_product_contain_oxygen_bond_distance_aromatic_linkinvent_7_9_3/rearranged_h_0181.sdf

> <i_m_source_file_index>
10

> <r_mmod_Potential_Energy-OPLS-2005>
90.7020950317383

> <r_mmod_Stretch_Energy-OPLS-2005>
142.763198852539

> <r_mmod_Bend_Energy-OPLS-2005>
184.057586669922

> <r_mmod_Torsional_Energy-OPLS-2005>
230.161239624023

> <r_mmod_Improper_Torsional_Energy-OPLS-2005>
8.04018592834473

> <r_mmod_Van_der_Waal_Energy-OPLS-2005>
155.750228881836

> <r_mmod_Electrostatic_Energy-OPLS-2005>
-501.047027587891

> <r_mmod_Solvation_Energy-OPLS-2005>
-235.816513061523

> <b_mmod_Minimization_Converged-OPLS-2005>
0

> <r_mmod_RMS_Derivative-OPLS-2005>
6.45297765731812

$$$$
10
                    3D
 Structure written by MMmdl.
153161  0  0  1  0            999 V2000
  -30.6052  -14.7537   20.4531 C   0  0  0  0  0  0
  -30.4312  -12.4535   19.4971 C   0  0  0  0  0  0
  -29.5194  -12.5145   18.2504 C   0  0  0  0  0  0
  -28.0424  -12.3410   18.6538 C   0  0  0  0  0  0
  -27.6447  -13.2373   19.8568 C   0  0  2  0  0  0
  -28.6831  -13.1683   20.9991 C   0  0  0  0  0  0
  -25.2506  -13.8207   20.5690 C   0  0  0  0  0  0
  -24.1803  -13.0446   20.9202 C   0  0  0  0  0  0
  -24.6403  -11.6925   20.8737 C   0  0  0  0  0  0
  -23.9083  -10.4297   21.0395 C   0  0  0  0  0  0
  -24.3632   -9.4212   21.9173 C   0  0  0  0  0  0
  -23.6303   -8.2247   22.0746 C   0  0  0  0  0  0
  -22.4286   -8.0284   21.3536 C   0  0  0  0  0  0
  -21.9919   -9.0262   20.4640 C   0  0  0  0  0  0
  -22.7254  -10.2141   20.3047 C   0  0  0  0  0  0
  -21.6860   -6.0739   22.5279 C   0  0  0  0  0  0
  -21.4022   -6.5642   23.8212 C   0  0  0  0  0  0
  -21.3657   -5.6789   24.9170 C   0  0  0  0  0  0
  -21.6048   -4.3056   24.7218 C   0  0  0  0  0  0
  -21.8816   -3.8149   23.4337 C   0  0  0  0  0  0
  -21.9192   -4.6967   22.3397 C   0  0  0  0  0  0
  -22.7822  -13.5220   21.1861 C   0  0  0  0  0  0
  -22.1656   -4.2152   21.0972 F   0  0  0  0  0  0
  -21.5630   -3.4538   25.7731 F   0  0  0  0  0  0
  -29.9919  -13.5180   20.4323 N   0  0  0  0  0  0
  -26.2947  -12.9429   20.3290 N   0  0  0  0  0  0
  -25.9342  -11.6565   20.5751 N   0  0  0  0  0  0
  -22.0465  -12.8213   22.0416 N   0  0  0  0  0  0
  -25.4191  -15.1932   20.4112 N   0  0  0  0  0  0
  -31.7786  -14.8485   20.0762 O   0  0  0  0  0  0
  -21.6645   -6.8888   21.4240 O   0  0  0  0  0  0
  -22.3501  -14.5521   20.6704 O   0  0  0  0  0  0
  -24.6331  -31.8548   23.1989 C   0  0  0  0  0  0
  -25.9152  -32.4747   23.8337 C   0  0  1  0  0  0
  -27.2109  -27.2368   20.1238 C   0  0  0  0  0  0
  -25.5945  -33.8554   24.2252 N   0  0  0  0  0  0
  -23.4306  -30.4788   21.5425 C   0  0  2  0  0  0
  -24.8774  -28.9297   20.1053 C   0  0  0  0  0  0
  -22.7520  -29.4595   22.4902 C   0  0  0  0  0  0
  -18.0294  -28.1389   22.8479 C   0  0  0  0  0  0
  -24.1493  -36.7282   23.2638 C   0  0  0  0  0  0
  -25.9799  -30.7565   21.3879 C   0  0  0  0  0  0
  -26.0487  -29.3788   20.7266 C   0  0  0  0  0  0
  -27.2144  -28.5422   20.7321 C   0  0  0  0  0  0
  -26.0216  -26.8818   19.4434 C   0  0  0  0  0  0
  -24.8712  -27.6911   19.4523 C   0  0  0  0  0  0
  -23.6501  -29.8187   20.1563 C   0  0  0  0  0  0
  -25.4121  -36.3063   24.0320 C   0  0  1  0  0  0
  -20.5901  -28.3703   23.1263 C   0  0  2  0  0  0
  -20.6780  -26.9420   22.5406 C   0  0  0  0  0  0
  -19.5752  -26.6380   21.5214 C   0  0  0  0  0  0
  -18.1935  -26.7928   22.1625 C   0  0  0  0  0  0
  -19.1548  -28.8862   23.2863 C   0  0  0  0  0  0
  -18.9468  -30.1464   23.8883 C   0  0  0  0  0  0
  -17.6465  -30.6588   24.0562 C   0  0  0  0  0  0
  -25.9062  -34.9434   23.5086 C   0  0  0  0  0  0
  -16.5358  -29.9085   23.6332 C   0  0  0  0  0  0
  -16.7280  -28.6504   23.0350 C   0  0  0  0  0  0
  -26.4505  -31.6584   25.0742 C   0  0  0  0  0  0
  -25.3713  -31.3751   26.1453 C   0  0  0  0  0  0
  -27.0360  -30.2989   24.6269 C   0  0  0  0  0  0
  -27.6046  -32.4339   25.7520 C   0  0  0  0  0  0
  -27.5579  -37.1801   24.8465 C   0  0  0  0  0  0
  -21.4224  -29.3046   22.3650 N   0  0  0  0  0  0
  -26.4292  -37.3765   23.9403 N   0  0  0  0  0  0
  -24.7000  -31.0492   22.0983 N   0  0  0  0  0  0
  -23.4218  -28.8135   23.3003 O   0  0  0  0  0  0
  -28.2876  -26.3129   20.2232 O   0  0  0  0  0  0
  -26.5635  -34.8909   22.4656 O   0  0  0  0  0  0
  -23.5475  -32.1393   23.7260 O   0  0  0  0  0  0
  -29.7338  -17.0966   18.6520 C   0  0  0  0  0  0
  -29.4716  -18.2243   17.8624 C   0  0  0  0  0  0
  -29.2554  -19.4818   18.4520 C   0  0  0  0  0  0
  -29.7659  -17.1927   20.0555 C   0  0  0  0  0  0
  -29.3453  -19.6203   19.8602 C   0  0  0  0  0  0
  -28.7521  -23.6476   20.5446 C   0  0  0  0  0  0
  -28.1421  -24.8892   19.7221 C   0  0  0  0  0  0
  -29.2417  -22.2914   19.7783 C   0  0  1  0  0  0
  -30.6841  -22.5738   19.2674 C   0  0  0  0  0  0
  -29.5648  -18.4644   20.6249 N   0  0  0  0  0  0
  -29.8582  -15.8877   20.7644 N   0  0  0  0  0  0
  -29.1755  -20.9286   20.4841 N   0  0  0  0  0  0
  -28.8074  -23.7280   21.7770 O   0  0  0  0  0  0
  -29.4048  -18.0886   16.5142 F   0  0  0  0  0  0
  -28.9579  -20.5252   17.6393 F   0  0  0  0  0  0
  -31.4909  -22.8147   20.3019 F   0  0  0  0  0  0
  -30.6953  -23.6463   18.4753 F   0  0  0  0  0  0
  -31.2107  -21.5627   18.5782 F   0  0  0  0  0  0
  -31.4768  -12.5634   19.2062 H   0  0  0  0  0  0
  -30.3614  -11.4774   19.9789 H   0  0  0  0  0  0
  -29.8072  -11.7420   17.5363 H   0  0  0  0  0  0
  -29.6537  -13.4698   17.7402 H   0  0  0  0  0  0
  -27.8934  -11.2922   18.9113 H   0  0  0  0  0  0
  -27.3914  -12.5403   17.8018 H   0  0  0  0  0  0
  -27.6412  -14.2605   19.4802 H   0  0  0  0  0  0
  -28.7105  -12.1706   21.4397 H   0  0  0  0  0  0
  -28.4125  -13.8491   21.8073 H   0  0  0  0  0  0
  -25.2769   -9.5698   22.4752 H   0  0  0  0  0  0
  -24.0012   -7.4644   22.7470 H   0  0  0  0  0  0
  -21.0846   -8.8786   19.8953 H   0  0  0  0  0  0
  -22.3700  -10.9681   19.6163 H   0  0  0  0  0  0
  -21.2018   -7.6152   23.9718 H   0  0  0  0  0  0
  -21.1483   -6.0517   25.9074 H   0  0  0  0  0  0
  -22.0597   -2.7614   23.2833 H   0  0  0  0  0  0
  -22.4086  -11.9891   22.4829 H   0  0  0  0  0  0
  -21.1085  -13.1240   22.2612 H   0  0  0  0  0  0
  -24.6502  -15.8453   20.5226 H   0  0  0  0  0  0
  -26.2652  -15.6342   20.0748 H   0  0  0  0  0  0
  -26.7217  -32.5382   23.1075 H   0  0  0  0  0  0
  -25.0084  -33.9697   25.0390 H   0  0  0  0  0  0
  -22.7272  -31.3015   21.3981 H   0  0  0  0  0  0
  -23.3750  -35.9621   23.3302 H   0  0  0  0  0  0
  -24.3576  -36.8909   22.2052 H   0  0  0  0  0  0
  -23.7257  -37.6485   23.6667 H   0  0  0  0  0  0
  -26.1287  -31.5178   20.6207 H   0  0  0  0  0  0
  -26.8534  -30.7997   22.0268 H   0  0  0  0  0  0
  -28.1040  -28.8750   21.2483 H   0  0  0  0  0  0
  -25.9254  -25.9589   18.8955 H   0  0  0  0  0  0
  -23.9797  -27.3521   18.9429 H   0  0  0  0  0  0
  -23.7768  -30.5978   19.4036 H   0  0  0  0  0  0
  -22.7676  -29.2552   19.8480 H   0  0  0  0  0  0
  -25.1304  -36.1904   25.0812 H   0  0  0  0  0  0
  -20.9986  -28.3277   24.1387 H   0  0  0  0  0  0
  -20.5681  -26.2320   23.3615 H   0  0  0  0  0  0
  -21.6649  -26.7444   22.1203 H   0  0  0  0  0  0
  -19.6918  -25.6287   21.1251 H   0  0  0  0  0  0
  -19.6684  -27.3183   20.6735 H   0  0  0  0  0  0
  -17.4208  -26.6675   21.4026 H   0  0  0  0  0  0
  -18.0334  -26.0076   22.9025 H   0  0  0  0  0  0
  -19.7943  -30.7281   24.2251 H   0  0  0  0  0  0
  -17.5019  -31.6264   24.5169 H   0  0  0  0  0  0
  -15.5357  -30.2981   23.7659 H   0  0  0  0  0  0
  -15.8681  -28.0816   22.7072 H   0  0  0  0  0  0
  -24.5886  -30.7106   25.7779 H   0  0  0  0  0  0
  -24.8910  -32.2929   26.4854 H   0  0  0  0  0  0
  -25.8014  -30.8942   27.0247 H   0  0  0  0  0  0
  -26.2963  -29.6728   24.1267 H   0  0  0  0  0  0
  -27.3985  -29.7263   25.4816 H   0  0  0  0  0  0
  -27.8865  -30.4238   23.9565 H   0  0  0  0  0  0
  -27.2637  -33.3640   26.2078 H   0  0  0  0  0  0
  -28.3865  -32.6903   25.0360 H   0  0  0  0  0  0
  -28.0709  -31.8488   26.5456 H   0  0  0  0  0  0
  -28.2594  -38.0099   24.7499 H   0  0  0  0  0  0
  -28.1075  -36.2627   24.6301 H   0  0  0  0  0  0
  -27.2296  -37.1464   25.8868 H   0  0  0  0  0  0
  -20.9421  -29.8783   21.6858 H   0  0  0  0  0  0
  -26.0165  -38.2838   24.1392 H   0  0  0  0  0  0
  -29.8595  -16.1497   18.1498 H   0  0  0  0  0  0
  -27.0925  -24.6142   19.6836 H   0  0  0  0  0  0
  -28.5052  -24.8478   18.6957 H   0  0  0  0  0  0
  -28.5843  -22.2205   18.9158 H   0  0  0  0  0  0
  -29.0650  -15.6968   21.3563 H   0  0  0  0  0  0
  -29.2574  -20.9756   21.4908 H   0  0  0  0  0  0
  1 25  1  0  0  0
  1 30  2  0  0  0
  1 81  1  0  0  0
  2  3  1  0  0  0
  2 25  1  0  0  0
  2 89  1  0  0  0
  2 90  1  0  0  0
  3  4  1  0  0  0
  3 91  1  0  0  0
  3 92  1  0  0  0
  4  5  1  0  0  0
  4 93  1  0  0  0
  4 94  1  0  0  0
  5  6  1  0  0  0
  5 26  1  0  0  0
  5 95  1  0  0  0
  6 25  1  0  0  0
  6 96  1  0  0  0
  6 97  1  0  0  0
  7  8  2  0  0  0
  7 26  1  0  0  0
  7 29  1  0  0  0
  8  9  1  0  0  0
  8 22  1  0  0  0
  9 10  1  0  0  0
  9 27  2  0  0  0
 10 11  2  0  0  0
 10 15  1  0  0  0
 11 12  1  0  0  0
 11 98  1  0  0  0
 12 13  2  0  0  0
 12 99  1  0  0  0
 13 14  1  0  0  0
 13 31  1  0  0  0
 14 15  2  0  0  0
 14100  1  0  0  0
 15101  1  0  0  0
 16 17  2  0  0  0
 16 21  1  0  0  0
 16 31  1  0  0  0
 17 18  1  0  0  0
 17102  1  0  0  0
 18 19  2  0  0  0
 18103  1  0  0  0
 19 20  1  0  0  0
 19 24  1  0  0  0
 20 21  2  0  0  0
 20104  1  0  0  0
 21 23  1  0  0  0
 22 28  1  0  0  0
 22 32  2  0  0  0
 26 27  1  0  0  0
 28105  1  0  0  0
 28106  1  0  0  0
 29107  1  0  0  0
 29108  1  0  0  0
 33 34  1  0  0  0
 33 66  1  0  0  0
 33 70  2  0  0  0
 34 36  1  0  0  0
 34 59  1  0  0  0
 34109  1  0  0  0
 35 44  2  0  0  0
 35 45  1  0  0  0
 35 68  1  0  0  0
 36 56  1  0  0  0
 36110  1  0  0  0
 37 39  1  0  0  0
 37 47  1  0  0  0
 37 66  1  0  0  0
 37111  1  0  0  0
 38 43  2  0  0  0
 38 46  1  0  0  0
 38 47  1  0  0  0
 39 64  1  0  0  0
 39 67  2  0  0  0
 40 52  1  0  0  0
 40 53  2  0  0  0
 40 58  1  0  0  0
 41112  1  0  0  0
 41113  1  0  0  0
 41114  1  0  0  0
 41 48  1  0  0  0
 42 43  1  0  0  0
 42 66  1  0  0  0
 42115  1  0  0  0
 42116  1  0  0  0
 43 44  1  0  0  0
 44117  1  0  0  0
 45 46  2  0  0  0
 45118  1  0  0  0
 46119  1  0  0  0
 47120  1  0  0  0
 47121  1  0  0  0
 48 56  1  0  0  0
 48 65  1  0  0  0
 48122  1  0  0  0
 49 50  1  0  0  0
 49 53  1  0  0  0
 49 64  1  0  0  0
 49123  1  0  0  0
 50 51  1  0  0  0
 50124  1  0  0  0
 50125  1  0  0  0
 51 52  1  0  0  0
 51126  1  0  0  0
 51127  1  0  0  0
 52128  1  0  0  0
 52129  1  0  0  0
 53 54  1  0  0  0
 54 55  2  0  0  0
 54130  1  0  0  0
 55 57  1  0  0  0
 55131  1  0  0  0
 56 69  2  0  0  0
 57 58  2  0  0  0
 57132  1  0  0  0
 58133  1  0  0  0
 59 60  1  0  0  0
 59 61  1  0  0  0
 59 62  1  0  0  0
 60134  1  0  0  0
 60135  1  0  0  0
 60136  1  0  0  0
 61137  1  0  0  0
 61138  1  0  0  0
 61139  1  0  0  0
 62140  1  0  0  0
 62141  1  0  0  0
 62142  1  0  0  0
 63 65  1  0  0  0
 63143  1  0  0  0
 63144  1  0  0  0
 63145  1  0  0  0
 64146  1  0  0  0
 65147  1  0  0  0
 68 77  1  0  0  0
 71 72  2  0  0  0
 71 74  1  0  0  0
 71148  1  0  0  0
 72 73  1  0  0  0
 72 84  1  0  0  0
 73 75  2  0  0  0
 73 85  1  0  0  0
 74 80  2  0  0  0
 74 81  1  0  0  0
 75 80  1  0  0  0
 75 82  1  0  0  0
 76 77  1  0  0  0
 76 78  1  0  0  0
 76 83  2  0  0  0
 77149  1  0  0  0
 77150  1  0  0  0
 78 79  1  0  0  0
 78 82  1  0  0  0
 78151  1  0  0  0
 79 86  1  0  0  0
 79 87  1  0  0  0
 79 88  1  0  0  0
 81152  1  0  0  0
 82153  1  0  0  0
M  ISO  4   1 100  68 101  77 101  81 100
M  END
> <chiral flag>
0

> <version>
0

> <s_m_source_file>
/data/baiqing/PycharmProjects/Reinvent-master-3.2/result/LINK_invent/BTK/process_docking_weight1_custom_product_contain_oxygen_bond_distance_aromatic_linkinvent_7_9_3/rearranged_h_0181.sdf

> <i_m_source_file_index>
11

> <r_mmod_Potential_Energy-OPLS-2005>
8.11528587341309

> <r_mmod_Stretch_Energy-OPLS-2005>
143.090179443359

> <r_mmod_Bend_Energy-OPLS-2005>
181.704483032227

> <r_mmod_Torsional_Energy-OPLS-2005>
222.716110229492

> <r_mmod_Improper_Torsional_Energy-OPLS-2005>
5.84493923187256

> <r_mmod_Van_der_Waal_Energy-OPLS-2005>
153.046798706055

> <r_mmod_Electrostatic_Energy-OPLS-2005>
-556.093078613281

> <r_mmod_Solvation_Energy-OPLS-2005>
-238.812057495117

> <b_mmod_Minimization_Converged-OPLS-2005>
0

> <r_mmod_RMS_Derivative-OPLS-2005>
1.03334057331085

$$$$
11
                    3D
 Structure written by MMmdl.
154162  0  0  1  0            999 V2000
  -30.6809  -14.4908   20.6082 C   0  0  0  0  0  0
  -30.4280  -12.3251   19.4254 C   0  0  0  0  0  0
  -29.4962  -12.5193   18.2096 C   0  0  0  0  0  0
  -28.0177  -12.3657   18.6187 C   0  0  0  0  0  0
  -27.6600  -13.2043   19.8741 C   0  0  2  0  0  0
  -28.6981  -12.9747   20.9963 C   0  0  0  0  0  0
  -25.2587  -13.8160   20.5658 C   0  0  0  0  0  0
  -24.1829  -13.0443   20.9138 C   0  0  0  0  0  0
  -24.6376  -11.6902   20.8712 C   0  0  0  0  0  0
  -23.9034  -10.4296   21.0396 C   0  0  0  0  0  0
  -24.3588   -9.4217   21.9188 C   0  0  0  0  0  0
  -23.6266   -8.2251   22.0773 C   0  0  0  0  0  0
  -22.4260   -8.0272   21.3546 C   0  0  0  0  0  0
  -21.9875   -9.0250   20.4663 C   0  0  0  0  0  0
  -22.7192  -10.2139   20.3057 C   0  0  0  0  0  0
  -21.6855   -6.0712   22.5266 C   0  0  0  0  0  0
  -21.4019   -6.5637   23.8193 C   0  0  0  0  0  0
  -21.3657   -5.6796   24.9156 C   0  0  0  0  0  0
  -21.6047   -4.3055   24.7224 C   0  0  0  0  0  0
  -21.8821   -3.8127   23.4349 C   0  0  0  0  0  0
  -21.9192   -4.6932   22.3392 C   0  0  0  0  0  0
  -22.7852  -13.5246   21.1798 C   0  0  0  0  0  0
  -22.1659   -4.2111   21.0977 F   0  0  0  0  0  0
  -21.5614   -3.4550   25.7742 F   0  0  0  0  0  0
  -30.0329  -13.2982   20.4582 N   0  0  0  0  0  0
  -26.3007  -12.9316   20.3341 N   0  0  0  0  0  0
  -25.9306  -11.6482   20.5755 N   0  0  0  0  0  0
  -22.0493  -12.8269   22.0377 N   0  0  0  0  0  0
  -25.4332  -15.1881   20.4105 N   0  0  0  0  0  0
  -31.7856  -14.7092   20.0998 O   0  0  0  0  0  0
  -21.6637   -6.8860   21.4229 O   0  0  0  0  0  0
  -22.3541  -14.5542   20.6636 O   0  0  0  0  0  0
  -24.6146  -31.8667   23.2089 C   0  0  0  0  0  0
  -25.9042  -32.4807   23.8385 C   0  0  1  0  0  0
  -27.2359  -27.4280   20.1117 C   0  0  0  0  0  0
  -25.5916  -33.8610   24.2328 N   0  0  0  0  0  0
  -23.4043  -30.4879   21.5486 C   0  0  2  0  0  0
  -24.8545  -28.9500   20.1171 C   0  0  0  0  0  0
  -22.7410  -29.4640   22.4978 C   0  0  0  0  0  0
  -18.0279  -28.1365   22.8480 C   0  0  0  0  0  0
  -24.1494  -36.7307   23.2635 C   0  0  0  0  0  0
  -25.9331  -30.8301   21.3640 C   0  0  0  0  0  0
  -26.0135  -29.4629   20.7149 C   0  0  0  0  0  0
  -27.2107  -28.7092   20.7090 C   0  0  0  0  0  0
  -26.0657  -26.9267   19.5080 C   0  0  0  0  0  0
  -24.8752  -27.6803   19.5109 C   0  0  0  0  0  0
  -23.6153  -29.8171   20.1641 C   0  0  0  0  0  0
  -25.4113  -36.3103   24.0335 C   0  0  1  0  0  0
  -20.5865  -28.3656   23.1310 C   0  0  2  0  0  0
  -20.6774  -26.9393   22.5414 C   0  0  0  0  0  0
  -19.5761  -26.6374   21.5202 C   0  0  0  0  0  0
  -18.1934  -26.7914   22.1606 C   0  0  0  0  0  0
  -19.1527  -28.8826   23.2891 C   0  0  0  0  0  0
  -18.9461  -30.1434   23.8895 C   0  0  0  0  0  0
  -17.6465  -30.6579   24.0557 C   0  0  0  0  0  0
  -25.9042  -34.9464   23.5127 C   0  0  0  0  0  0
  -16.5351  -29.9077   23.6326 C   0  0  0  0  0  0
  -16.7269  -28.6492   23.0345 C   0  0  0  0  0  0
  -26.4481  -31.6577   25.0698 C   0  0  0  0  0  0
  -25.3761  -31.3696   26.1460 C   0  0  0  0  0  0
  -27.0309  -30.3021   24.6060 C   0  0  0  0  0  0
  -27.6065  -32.4286   25.7465 C   0  0  0  0  0  0
  -27.5590  -37.1803   24.8460 C   0  0  0  0  0  0
  -21.4138  -29.3023   22.3718 N   0  0  0  0  0  0
  -26.4303  -37.3783   23.9404 N   0  0  0  0  0  0
  -24.6682  -31.0757   22.0994 N   0  0  0  0  0  0
  -23.4171  -28.8192   23.3039 O   0  0  0  0  0  0
  -28.3771  -26.6549   20.1014 O   0  0  0  0  0  0
  -26.5587  -34.8917   22.4679 O   0  0  0  0  0  0
  -23.5332  -32.1430   23.7477 O   0  0  0  0  0  0
  -28.9203  -18.8188   22.2347 C   0  0  0  0  0  0
  -29.9994  -19.6111   21.7971 C   0  0  0  0  0  0
  -28.9603  -17.4248   22.0338 C   0  0  0  0  0  0
  -30.0703  -16.8354   21.3900 C   0  0  0  0  0  0
  -31.0602  -18.9497   21.1438 C   0  0  0  0  0  0
  -29.5846  -22.1398   21.1384 C   0  0  0  0  0  0
  -28.8652  -24.2600   20.5306 C   0  0  0  0  0  0
  -29.3533  -26.1433   22.2287 C   0  0  0  0  0  0
  -30.0728  -21.1055   22.1591 C   0  0  0  0  0  0
  -28.4170  -25.6314   21.1185 C   0  0  1  0  0  0
  -31.0931  -17.6075   20.9394 N   0  0  0  0  0  0
  -29.2152  -23.3151   21.5003 N   0  0  0  0  0  0
  -29.9755  -15.4128   21.2941 N   0  0  0  0  0  0
  -28.8672  -24.1060   19.3062 O   0  0  0  0  0  0
  -27.9430  -16.6440   22.4728 F   0  0  0  0  0  0
  -32.1211  -19.6767   20.7227 F   0  0  0  0  0  0
  -31.4719  -12.4321   19.1265 H   0  0  0  0  0  0
  -30.3373  -11.3102   19.8165 H   0  0  0  0  0  0
  -29.7432  -11.8013   17.4268 H   0  0  0  0  0  0
  -29.6537  -13.5081   17.7764 H   0  0  0  0  0  0
  -27.8380  -11.3072   18.8155 H   0  0  0  0  0  0
  -27.3652  -12.6332   17.7863 H   0  0  0  0  0  0
  -27.7071  -14.2535   19.5797 H   0  0  0  0  0  0
  -28.6805  -11.9323   21.3175 H   0  0  0  0  0  0
  -28.4361  -13.5472   21.8876 H   0  0  0  0  0  0
  -25.2735   -9.5684   22.4768 H   0  0  0  0  0  0
  -23.9961   -7.4660   22.7522 H   0  0  0  0  0  0
  -21.0791   -8.8768   19.9003 H   0  0  0  0  0  0
  -22.3630  -10.9680   19.6166 H   0  0  0  0  0  0
  -21.2035   -7.6148   23.9679 H   0  0  0  0  0  0
  -21.1474   -6.0536   25.9059 H   0  0  0  0  0  0
  -22.0604   -2.7582   23.2870 H   0  0  0  0  0  0
  -22.4075  -11.9915   22.4771 H   0  0  0  0  0  0
  -21.1130  -13.1354   22.2593 H   0  0  0  0  0  0
  -24.6772  -15.8499   20.5452 H   0  0  0  0  0  0
  -26.3006  -15.6319   20.1377 H   0  0  0  0  0  0
  -26.7109  -32.5524   23.1147 H   0  0  0  0  0  0
  -25.0101  -33.9771   25.0499 H   0  0  0  0  0  0
  -22.6932  -31.3035   21.4062 H   0  0  0  0  0  0
  -23.3744  -35.9653   23.3306 H   0  0  0  0  0  0
  -24.3601  -36.8915   22.2052 H   0  0  0  0  0  0
  -23.7254  -37.6518   23.6642 H   0  0  0  0  0  0
  -26.0453  -31.5945   20.5938 H   0  0  0  0  0  0
  -26.8212  -30.8845   21.9821 H   0  0  0  0  0  0
  -28.1064  -29.0986   21.1731 H   0  0  0  0  0  0
  -26.0753  -25.9495   19.0448 H   0  0  0  0  0  0
  -23.9842  -27.2772   19.0505 H   0  0  0  0  0  0
  -23.7229  -30.5908   19.4034 H   0  0  0  0  0  0
  -22.7402  -29.2361   19.8670 H   0  0  0  0  0  0
  -25.1284  -36.1975   25.0827 H   0  0  0  0  0  0
  -20.9950  -28.3226   24.1431 H   0  0  0  0  0  0
  -20.5685  -26.2255   23.3596 H   0  0  0  0  0  0
  -21.6650  -26.7437   22.1213 H   0  0  0  0  0  0
  -19.6936  -25.6288   21.1228 H   0  0  0  0  0  0
  -19.6719  -27.3183   20.6732 H   0  0  0  0  0  0
  -17.4211  -26.6652   21.4003 H   0  0  0  0  0  0
  -18.0342  -26.0047   22.8995 H   0  0  0  0  0  0
  -19.7942  -30.7247   24.2262 H   0  0  0  0  0  0
  -17.5025  -31.6261   24.5156 H   0  0  0  0  0  0
  -15.5357  -30.2985   23.7648 H   0  0  0  0  0  0
  -15.8667  -28.0820   22.7053 H   0  0  0  0  0  0
  -24.5916  -30.7061   25.7810 H   0  0  0  0  0  0
  -24.8971  -32.2859   26.4917 H   0  0  0  0  0  0
  -25.8124  -30.8859   27.0207 H   0  0  0  0  0  0
  -26.2845  -29.6775   24.1139 H   0  0  0  0  0  0
  -27.4123  -29.7260   25.4497 H   0  0  0  0  0  0
  -27.8659  -30.4345   23.9178 H   0  0  0  0  0  0
  -27.2692  -33.3568   26.2089 H   0  0  0  0  0  0
  -28.3859  -32.6872   25.0285 H   0  0  0  0  0  0
  -28.0744  -31.8372   26.5346 H   0  0  0  0  0  0
  -28.2600  -38.0107   24.7510 H   0  0  0  0  0  0
  -28.1090  -36.2635   24.6275 H   0  0  0  0  0  0
  -27.2307  -37.1437   25.8864 H   0  0  0  0  0  0
  -20.9296  -29.8736   21.6937 H   0  0  0  0  0  0
  -26.0187  -38.2862   24.1407 H   0  0  0  0  0  0
  -28.0856  -19.2633   22.7569 H   0  0  0  0  0  0
  -29.6056  -21.7985   20.0990 H   0  0  0  0  0  0
  -29.3598  -25.4751   23.0896 H   0  0  0  0  0  0
  -29.0404  -27.1235   22.5873 H   0  0  0  0  0  0
  -30.3782  -26.2355   21.8700 H   0  0  0  0  0  0
  -31.1072  -21.3456   22.4071 H   0  0  0  0  0  0
  -29.5177  -21.2566   23.0852 H   0  0  0  0  0  0
  -27.4244  -25.4767   21.5485 H   0  0  0  0  0  0
  -29.1285  -15.0554   21.7069 H   0  0  0  0  0  0
  1 25  1  0  0  0
  1 30  2  0  0  0
  1 83  1  0  0  0
  2  3  1  0  0  0
  2 25  1  0  0  0
  2 87  1  0  0  0
  2 88  1  0  0  0
  3  4  1  0  0  0
  3 89  1  0  0  0
  3 90  1  0  0  0
  4  5  1  0  0  0
  4 91  1  0  0  0
  4 92  1  0  0  0
  5  6  1  0  0  0
  5 26  1  0  0  0
  5 93  1  0  0  0
  6 25  1  0  0  0
  6 94  1  0  0  0
  6 95  1  0  0  0
  7  8  2  0  0  0
  7 26  1  0  0  0
  7 29  1  0  0  0
  8  9  1  0  0  0
  8 22  1  0  0  0
  9 10  1  0  0  0
  9 27  2  0  0  0
 10 11  2  0  0  0
 10 15  1  0  0  0
 11 12  1  0  0  0
 11 96  1  0  0  0
 12 13  2  0  0  0
 12 97  1  0  0  0
 13 14  1  0  0  0
 13 31  1  0  0  0
 14 15  2  0  0  0
 14 98  1  0  0  0
 15 99  1  0  0  0
 16 17  2  0  0  0
 16 21  1  0  0  0
 16 31  1  0  0  0
 17 18  1  0  0  0
 17100  1  0  0  0
 18 19  2  0  0  0
 18101  1  0  0  0
 19 20  1  0  0  0
 19 24  1  0  0  0
 20 21  2  0  0  0
 20102  1  0  0  0
 21 23  1  0  0  0
 22 28  1  0  0  0
 22 32  2  0  0  0
 26 27  1  0  0  0
 28103  1  0  0  0
 28104  1  0  0  0
 29105  1  0  0  0
 29106  1  0  0  0
 33 34  1  0  0  0
 33 66  1  0  0  0
 33 70  2  0  0  0
 34 36  1  0  0  0
 34 59  1  0  0  0
 34107  1  0  0  0
 35 44  2  0  0  0
 35 45  1  0  0  0
 35 68  1  0  0  0
 36 56  1  0  0  0
 36108  1  0  0  0
 37 39  1  0  0  0
 37 47  1  0  0  0
 37 66  1  0  0  0
 37109  1  0  0  0
 38 43  2  0  0  0
 38 46  1  0  0  0
 38 47  1  0  0  0
 39 64  1  0  0  0
 39 67  2  0  0  0
 40 52  1  0  0  0
 40 53  2  0  0  0
 40 58  1  0  0  0
 41110  1  0  0  0
 41111  1  0  0  0
 41112  1  0  0  0
 41 48  1  0  0  0
 42 43  1  0  0  0
 42 66  1  0  0  0
 42113  1  0  0  0
 42114  1  0  0  0
 43 44  1  0  0  0
 44115  1  0  0  0
 45 46  2  0  0  0
 45116  1  0  0  0
 46117  1  0  0  0
 47118  1  0  0  0
 47119  1  0  0  0
 48 56  1  0  0  0
 48 65  1  0  0  0
 48120  1  0  0  0
 49 50  1  0  0  0
 49 53  1  0  0  0
 49 64  1  0  0  0
 49121  1  0  0  0
 50 51  1  0  0  0
 50122  1  0  0  0
 50123  1  0  0  0
 51 52  1  0  0  0
 51124  1  0  0  0
 51125  1  0  0  0
 52126  1  0  0  0
 52127  1  0  0  0
 53 54  1  0  0  0
 54 55  2  0  0  0
 54128  1  0  0  0
 55 57  1  0  0  0
 55129  1  0  0  0
 56 69  2  0  0  0
 57 58  2  0  0  0
 57130  1  0  0  0
 58131  1  0  0  0
 59 60  1  0  0  0
 59 61  1  0  0  0
 59 62  1  0  0  0
 60132  1  0  0  0
 60133  1  0  0  0
 60134  1  0  0  0
 61135  1  0  0  0
 61136  1  0  0  0
 61137  1  0  0  0
 62138  1  0  0  0
 62139  1  0  0  0
 62140  1  0  0  0
 63 65  1  0  0  0
 63141  1  0  0  0
 63142  1  0  0  0
 63143  1  0  0  0
 64144  1  0  0  0
 65145  1  0  0  0
 68 80  1  0  0  0
 71 72  2  0  0  0
 71 73  1  0  0  0
 71146  1  0  0  0
 72 75  1  0  0  0
 72 79  1  0  0  0
 73 74  2  0  0  0
 73 85  1  0  0  0
 74 81  1  0  0  0
 74 83  1  0  0  0
 75 81  2  0  0  0
 75 86  1  0  0  0
 76 79  1  0  0  0
 76 82  2  0  0  0
 76147  1  0  0  0
 77 80  1  0  0  0
 77 82  1  0  0  0
 77 84  2  0  0  0
 78148  1  0  0  0
 78149  1  0  0  0
 78150  1  0  0  0
 78 80  1  0  0  0
 79151  1  0  0  0
 79152  1  0  0  0
 80153  1  0  0  0
 83154  1  0  0  0
M  ISO  4   1 100  68 101  80 101  83 100
M  END
> <chiral flag>
0

> <version>
0

> <s_m_source_file>
/data/baiqing/PycharmProjects/Reinvent-master-3.2/result/LINK_invent/BTK/process_docking_weight1_custom_product_contain_oxygen_bond_distance_aromatic_linkinvent_7_9_3/rearranged_h_0181.sdf

> <i_m_source_file_index>
12

> <r_mmod_Potential_Energy-OPLS-2005>
-230.453277587891

> <r_mmod_Stretch_Energy-OPLS-2005>
42.1960220336914

> <r_mmod_Bend_Energy-OPLS-2005>
114.09228515625

> <r_mmod_Torsional_Energy-OPLS-2005>
223.828018188477

> <r_mmod_Improper_Torsional_Energy-OPLS-2005>
3.01831293106079

> <r_mmod_Van_der_Waal_Energy-OPLS-2005>
155.352157592773

> <r_mmod_Electrostatic_Energy-OPLS-2005>
-562.034912109375

> <r_mmod_Solvation_Energy-OPLS-2005>
-220.444869995117

> <b_mmod_Minimization_Converged-OPLS-2005>
0

> <r_mmod_RMS_Derivative-OPLS-2005>
2.16491532325745

$$$$
12
                    3D
 Structure written by MMmdl.
153161  0  0  1  0            999 V2000
  -30.6471  -14.7527   20.4424 C   0  0  0  0  0  0
  -30.4174  -12.4565   19.4810 C   0  0  0  0  0  0
  -29.5041  -12.5030   18.2380 C   0  0  0  0  0  0
  -28.0318  -12.3290   18.6524 C   0  0  0  0  0  0
  -27.6356  -13.2396   19.8451 C   0  0  2  0  0  0
  -28.6808  -13.2070   20.9825 C   0  0  0  0  0  0
  -25.2479  -13.8222   20.5707 C   0  0  0  0  0  0
  -24.1783  -13.0450   20.9220 C   0  0  0  0  0  0
  -24.6391  -11.6929   20.8757 C   0  0  0  0  0  0
  -23.9073  -10.4294   21.0412 C   0  0  0  0  0  0
  -24.3623   -9.4203   21.9185 C   0  0  0  0  0  0
  -23.6298   -8.2241   22.0757 C   0  0  0  0  0  0
  -22.4279   -8.0283   21.3547 C   0  0  0  0  0  0
  -21.9915   -9.0254   20.4646 C   0  0  0  0  0  0
  -22.7246  -10.2132   20.3058 C   0  0  0  0  0  0
  -21.6854   -6.0731   22.5281 C   0  0  0  0  0  0
  -21.4009   -6.5636   23.8211 C   0  0  0  0  0  0
  -21.3659   -5.6795   24.9179 C   0  0  0  0  0  0
  -21.6047   -4.3056   24.7232 C   0  0  0  0  0  0
  -21.8816   -3.8143   23.4354 C   0  0  0  0  0  0
  -21.9186   -4.6958   22.3408 C   0  0  0  0  0  0
  -22.7804  -13.5216   21.1878 C   0  0  0  0  0  0
  -22.1659   -4.2138   21.0989 F   0  0  0  0  0  0
  -21.5629   -3.4546   25.7746 F   0  0  0  0  0  0
  -29.9816  -13.5437   20.3931 N   0  0  0  0  0  0
  -26.2906  -12.9441   20.3276 N   0  0  0  0  0  0
  -25.9319  -11.6576   20.5755 N   0  0  0  0  0  0
  -22.0463  -12.8189   22.0433 N   0  0  0  0  0  0
  -25.4161  -15.1950   20.4105 N   0  0  0  0  0  0
  -31.8461  -14.7531   20.1496 O   0  0  0  0  0  0
  -21.6645   -6.8879   21.4241 O   0  0  0  0  0  0
  -22.3476  -14.5520   20.6730 O   0  0  0  0  0  0
  -24.6338  -31.8561   23.2013 C   0  0  0  0  0  0
  -25.9166  -32.4758   23.8348 C   0  0  1  0  0  0
  -27.2047  -27.2416   20.1188 C   0  0  0  0  0  0
  -25.5957  -33.8560   24.2261 N   0  0  0  0  0  0
  -23.4294  -30.4847   21.5456 C   0  0  2  0  0  0
  -24.8715  -28.9387   20.1078 C   0  0  0  0  0  0
  -22.7513  -29.4634   22.4911 C   0  0  0  0  0  0
  -18.0315  -28.1379   22.8474 C   0  0  0  0  0  0
  -24.1490  -36.7283   23.2639 C   0  0  0  0  0  0
  -25.9795  -30.7609   21.3870 C   0  0  0  0  0  0
  -26.0466  -29.3842   20.7252 C   0  0  0  0  0  0
  -27.2130  -28.5471   20.7265 C   0  0  0  0  0  0
  -26.0038  -26.8896   19.4531 C   0  0  0  0  0  0
  -24.8565  -27.6991   19.4617 C   0  0  0  0  0  0
  -23.6455  -29.8290   20.1589 C   0  0  0  0  0  0
  -25.4120  -36.3065   24.0320 C   0  0  1  0  0  0
  -20.5910  -28.3713   23.1270 C   0  0  2  0  0  0
  -20.6814  -26.9437   22.5403 C   0  0  0  0  0  0
  -19.5797  -26.6385   21.5200 C   0  0  0  0  0  0
  -18.1965  -26.7928   22.1599 C   0  0  0  0  0  0
  -19.1559  -28.8859   23.2868 C   0  0  0  0  0  0
  -18.9474  -30.1458   23.8889 C   0  0  0  0  0  0
  -17.6472  -30.6581   24.0565 C   0  0  0  0  0  0
  -25.9066  -34.9436   23.5091 C   0  0  0  0  0  0
  -16.5370  -29.9069   23.6333 C   0  0  0  0  0  0
  -16.7301  -28.6492   23.0345 C   0  0  0  0  0  0
  -26.4519  -31.6582   25.0743 C   0  0  0  0  0  0
  -25.3732  -31.3741   26.1456 C   0  0  0  0  0  0
  -27.0378  -30.2993   24.6262 C   0  0  0  0  0  0
  -27.6059  -32.4331   25.7522 C   0  0  0  0  0  0
  -27.5577  -37.1802   24.8465 C   0  0  0  0  0  0
  -21.4216  -29.3078   22.3653 N   0  0  0  0  0  0
  -26.4293  -37.3768   23.9399 N   0  0  0  0  0  0
  -24.7002  -31.0523   22.1000 N   0  0  0  0  0  0
  -23.4203  -28.8156   23.3009 O   0  0  0  0  0  0
  -28.2786  -26.3087   20.2025 O   0  0  0  0  0  0
  -26.5637  -34.8913   22.4660 O   0  0  0  0  0  0
  -23.5486  -32.1398   23.7301 O   0  0  0  0  0  0
  -28.2311  -18.7523   21.1229 C   0  0  0  0  0  0
  -27.7564  -20.1308   21.0730 C   0  0  0  0  0  0
  -29.4846  -18.5191   20.6064 C   0  0  0  0  0  0
  -28.6379  -21.0551   20.5174 C   0  0  0  0  0  0
  -30.3814  -17.2553   20.4683 C   0  0  0  0  0  0
  -28.8654  -23.6454   20.3575 C   0  0  0  0  0  0
  -28.4000  -24.9146   18.1914 C   0  0  0  0  0  0
  -28.0843  -24.8924   19.6992 C   0  0  1  0  0  0
  -26.3853  -20.5076   21.5868 C   0  0  0  0  0  0
  -28.3180  -22.3845   20.1763 N   0  0  0  0  0  0
  -29.9284  -15.9408   20.6128 N   0  0  0  0  0  0
  -31.5608  -17.4940   20.1893 O   0  0  0  0  0  0
  -29.9131  -23.8251   20.9827 O   0  0  0  0  0  0
  -26.4747  -21.2920   22.6611 F   0  0  0  0  0  0
  -25.6873  -21.1712   20.6633 F   0  0  0  0  0  0
  -25.6669  -19.4383   21.9319 F   0  0  0  0  0  0
  -30.1165  -20.1320   20.1080 S   0  0  0  0  0  0
  -31.4616  -12.5483   19.1780 H   0  0  0  0  0  0
  -30.3399  -11.4885   19.9792 H   0  0  0  0  0  0
  -29.7880  -11.7249   17.5281 H   0  0  0  0  0  0
  -29.6320  -13.4545   17.7198 H   0  0  0  0  0  0
  -27.8914  -11.2825   18.9245 H   0  0  0  0  0  0
  -27.3748  -12.5109   17.8007 H   0  0  0  0  0  0
  -27.6205  -14.2545   19.4484 H   0  0  0  0  0  0
  -28.7154  -12.2231   21.4533 H   0  0  0  0  0  0
  -28.4158  -13.9148   21.7692 H   0  0  0  0  0  0
  -25.2767   -9.5676   22.4754 H   0  0  0  0  0  0
  -24.0002   -7.4630   22.7481 H   0  0  0  0  0  0
  -21.0846   -8.8772   19.8953 H   0  0  0  0  0  0
  -22.3708  -10.9668   19.6163 H   0  0  0  0  0  0
  -21.2004   -7.6144   23.9709 H   0  0  0  0  0  0
  -21.1489   -6.0532   25.9081 H   0  0  0  0  0  0
  -22.0595   -2.7604   23.2866 H   0  0  0  0  0  0
  -22.4096  -11.9851   22.4804 H   0  0  0  0  0  0
  -21.1082  -13.1190   22.2658 H   0  0  0  0  0  0
  -24.6423  -15.8438   20.5087 H   0  0  0  0  0  0
  -26.2463  -15.6281   20.0284 H   0  0  0  0  0  0
  -26.7231  -32.5393   23.1082 H   0  0  0  0  0  0
  -25.0082  -33.9689   25.0393 H   0  0  0  0  0  0
  -22.7262  -31.3090   21.4056 H   0  0  0  0  0  0
  -23.3753  -35.9617   23.3302 H   0  0  0  0  0  0
  -24.3587  -36.8908   22.2055 H   0  0  0  0  0  0
  -23.7246  -37.6484   23.6670 H   0  0  0  0  0  0
  -26.1281  -31.5234   20.6212 H   0  0  0  0  0  0
  -26.8534  -30.8027   22.0246 H   0  0  0  0  0  0
  -28.1056  -28.8825   21.2359 H   0  0  0  0  0  0
  -25.8883  -25.9641   18.9148 H   0  0  0  0  0  0
  -23.9605  -27.3584   18.9612 H   0  0  0  0  0  0
  -23.7711  -30.6103   19.4081 H   0  0  0  0  0  0
  -22.7619  -29.2664   19.8524 H   0  0  0  0  0  0
  -25.1306  -36.1914   25.0815 H   0  0  0  0  0  0
  -21.0000  -28.3296   24.1393 H   0  0  0  0  0  0
  -20.5738  -26.2322   23.3604 H   0  0  0  0  0  0
  -21.6683  -26.7490   22.1193 H   0  0  0  0  0  0
  -19.6981  -25.6299   21.1223 H   0  0  0  0  0  0
  -19.6734  -27.3199   20.6738 H   0  0  0  0  0  0
  -17.4245  -26.6681   21.3987 H   0  0  0  0  0  0
  -18.0356  -26.0061   22.8987 H   0  0  0  0  0  0
  -19.7942  -30.7292   24.2249 H   0  0  0  0  0  0
  -17.5028  -31.6257   24.5172 H   0  0  0  0  0  0
  -15.5371  -30.2966   23.7670 H   0  0  0  0  0  0
  -15.8709  -28.0800   22.7055 H   0  0  0  0  0  0
  -24.5907  -30.7096   25.7776 H   0  0  0  0  0  0
  -24.8931  -32.2916   26.4867 H   0  0  0  0  0  0
  -25.8039  -30.8922   27.0240 H   0  0  0  0  0  0
  -26.2980  -29.6729   24.1267 H   0  0  0  0  0  0
  -27.4020  -29.7272   25.4804 H   0  0  0  0  0  0
  -27.8873  -30.4252   23.9549 H   0  0  0  0  0  0
  -27.2656  -33.3630   26.2087 H   0  0  0  0  0  0
  -28.3879  -32.6894   25.0364 H   0  0  0  0  0  0
  -28.0721  -31.8474   26.5453 H   0  0  0  0  0  0
  -28.2599  -38.0094   24.7508 H   0  0  0  0  0  0
  -28.1068  -36.2628   24.6299 H   0  0  0  0  0  0
  -27.2297  -37.1459   25.8868 H   0  0  0  0  0  0
  -20.9392  -29.8802   21.6859 H   0  0  0  0  0  0
  -26.0169  -38.2841   24.1396 H   0  0  0  0  0  0
  -27.6134  -17.9684   21.5380 H   0  0  0  0  0  0
  -29.4367  -25.2047   18.0188 H   0  0  0  0  0  0
  -27.7706  -25.6181   17.6492 H   0  0  0  0  0  0
  -28.2532  -23.9352   17.7355 H   0  0  0  0  0  0
  -27.0509  -24.5949   19.8640 H   0  0  0  0  0  0
  -27.4189  -22.4608   19.7186 H   0  0  0  0  0  0
  -28.9499  -15.8387   20.8181 H   0  0  0  0  0  0
  1 25  1  0  0  0
  1 30  2  0  0  0
  1 81  1  0  0  0
  2  3  1  0  0  0
  2 25  1  0  0  0
  2 88  1  0  0  0
  2 89  1  0  0  0
  3  4  1  0  0  0
  3 90  1  0  0  0
  3 91  1  0  0  0
  4  5  1  0  0  0
  4 92  1  0  0  0
  4 93  1  0  0  0
  5  6  1  0  0  0
  5 26  1  0  0  0
  5 94  1  0  0  0
  6 25  1  0  0  0
  6 95  1  0  0  0
  6 96  1  0  0  0
  7  8  2  0  0  0
  7 26  1  0  0  0
  7 29  1  0  0  0
  8  9  1  0  0  0
  8 22  1  0  0  0
  9 10  1  0  0  0
  9 27  2  0  0  0
 10 11  2  0  0  0
 10 15  1  0  0  0
 11 12  1  0  0  0
 11 97  1  0  0  0
 12 13  2  0  0  0
 12 98  1  0  0  0
 13 14  1  0  0  0
 13 31  1  0  0  0
 14 15  2  0  0  0
 14 99  1  0  0  0
 15100  1  0  0  0
 16 17  2  0  0  0
 16 21  1  0  0  0
 16 31  1  0  0  0
 17 18  1  0  0  0
 17101  1  0  0  0
 18 19  2  0  0  0
 18102  1  0  0  0
 19 20  1  0  0  0
 19 24  1  0  0  0
 20 21  2  0  0  0
 20103  1  0  0  0
 21 23  1  0  0  0
 22 28  1  0  0  0
 22 32  2  0  0  0
 26 27  1  0  0  0
 28104  1  0  0  0
 28105  1  0  0  0
 29106  1  0  0  0
 29107  1  0  0  0
 33 34  1  0  0  0
 33 66  1  0  0  0
 33 70  2  0  0  0
 34 36  1  0  0  0
 34 59  1  0  0  0
 34108  1  0  0  0
 35 44  2  0  0  0
 35 45  1  0  0  0
 35 68  1  0  0  0
 36 56  1  0  0  0
 36109  1  0  0  0
 37 39  1  0  0  0
 37 47  1  0  0  0
 37 66  1  0  0  0
 37110  1  0  0  0
 38 43  2  0  0  0
 38 46  1  0  0  0
 38 47  1  0  0  0
 39 64  1  0  0  0
 39 67  2  0  0  0
 40 52  1  0  0  0
 40 53  2  0  0  0
 40 58  1  0  0  0
 41111  1  0  0  0
 41112  1  0  0  0
 41113  1  0  0  0
 41 48  1  0  0  0
 42 43  1  0  0  0
 42 66  1  0  0  0
 42114  1  0  0  0
 42115  1  0  0  0
 43 44  1  0  0  0
 44116  1  0  0  0
 45 46  2  0  0  0
 45117  1  0  0  0
 46118  1  0  0  0
 47119  1  0  0  0
 47120  1  0  0  0
 48 56  1  0  0  0
 48 65  1  0  0  0
 48121  1  0  0  0
 49 50  1  0  0  0
 49 53  1  0  0  0
 49 64  1  0  0  0
 49122  1  0  0  0
 50 51  1  0  0  0
 50123  1  0  0  0
 50124  1  0  0  0
 51 52  1  0  0  0
 51125  1  0  0  0
 51126  1  0  0  0
 52127  1  0  0  0
 52128  1  0  0  0
 53 54  1  0  0  0
 54 55  2  0  0  0
 54129  1  0  0  0
 55 57  1  0  0  0
 55130  1  0  0  0
 56 69  2  0  0  0
 57 58  2  0  0  0
 57131  1  0  0  0
 58132  1  0  0  0
 59 60  1  0  0  0
 59 61  1  0  0  0
 59 62  1  0  0  0
 60133  1  0  0  0
 60134  1  0  0  0
 60135  1  0  0  0
 61136  1  0  0  0
 61137  1  0  0  0
 61138  1  0  0  0
 62139  1  0  0  0
 62140  1  0  0  0
 62141  1  0  0  0
 63 65  1  0  0  0
 63142  1  0  0  0
 63143  1  0  0  0
 63144  1  0  0  0
 64145  1  0  0  0
 65146  1  0  0  0
 68 78  1  0  0  0
 71 72  1  0  0  0
 71 73  2  0  0  0
 71147  1  0  0  0
 72 74  2  0  0  0
 72 79  1  0  0  0
 73 75  1  0  0  0
 73 87  1  0  0  0
 74 80  1  0  0  0
 74 87  1  0  0  0
 75 81  1  0  0  0
 75 82  2  0  0  0
 76 78  1  0  0  0
 76 80  1  0  0  0
 76 83  2  0  0  0
 77148  1  0  0  0
 77149  1  0  0  0
 77150  1  0  0  0
 77 78  1  0  0  0
 78151  1  0  0  0
 79 84  1  0  0  0
 79 85  1  0  0  0
 79 86  1  0  0  0
 80152  1  0  0  0
 81153  1  0  0  0
M  ISO  4   1 100  68 101  78 101  81 100
M  END
> <chiral flag>
0

> <version>
0

> <s_m_source_file>
/data/baiqing/PycharmProjects/Reinvent-master-3.2/result/LINK_invent/BTK/process_docking_weight1_custom_product_contain_oxygen_bond_distance_aromatic_linkinvent_7_9_3/rearranged_h_0181.sdf

> <i_m_source_file_index>
13

> <r_mmod_Potential_Energy-OPLS-2005>
147.57502746582

> <r_mmod_Stretch_Energy-OPLS-2005>
123.416114807129

> <r_mmod_Bend_Energy-OPLS-2005>
196.817657470703

> <r_mmod_Torsional_Energy-OPLS-2005>
235.242340087891

> <r_mmod_Improper_Torsional_Energy-OPLS-2005>
5.69851541519165

> <r_mmod_Van_der_Waal_Energy-OPLS-2005>
131.400924682617

> <r_mmod_Electrostatic_Energy-OPLS-2005>
-379.07470703125

> <r_mmod_Solvation_Energy-OPLS-2005>
-263.2470703125

> <b_mmod_Minimization_Converged-OPLS-2005>
0

> <r_mmod_RMS_Derivative-OPLS-2005>
1.27569913864136

$$$$
13
                    3D
 Structure written by MMmdl.
153161  0  0  1  0            999 V2000
  -30.6518  -14.5441   20.5401 C   0  0  0  0  0  0
  -30.4342  -12.3415   19.4363 C   0  0  0  0  0  0
  -29.5070  -12.5068   18.2130 C   0  0  0  0  0  0
  -28.0227  -12.3647   18.6144 C   0  0  0  0  0  0
  -27.6544  -13.2078   19.8657 C   0  0  2  0  0  0
  -28.6966  -13.0145   20.9904 C   0  0  0  0  0  0
  -25.2548  -13.8155   20.5658 C   0  0  0  0  0  0
  -24.1820  -13.0420   20.9181 C   0  0  0  0  0  0
  -24.6377  -11.6894   20.8738 C   0  0  0  0  0  0
  -23.9031  -10.4294   21.0418 C   0  0  0  0  0  0
  -24.3596   -9.4208   21.9189 C   0  0  0  0  0  0
  -23.6287   -8.2232   22.0745 C   0  0  0  0  0  0
  -22.4271   -8.0279   21.3536 C   0  0  0  0  0  0
  -21.9902   -9.0245   20.4637 C   0  0  0  0  0  0
  -22.7212  -10.2133   20.3052 C   0  0  0  0  0  0
  -21.6835   -6.0737   22.5285 C   0  0  0  0  0  0
  -21.4001   -6.5647   23.8221 C   0  0  0  0  0  0
  -21.3670   -5.6796   24.9181 C   0  0  0  0  0  0
  -21.6049   -4.3053   24.7234 C   0  0  0  0  0  0
  -21.8814   -3.8144   23.4352 C   0  0  0  0  0  0
  -21.9178   -4.6959   22.3405 C   0  0  0  0  0  0
  -22.7849  -13.5237   21.1852 C   0  0  0  0  0  0
  -22.1646   -4.2146   21.0982 F   0  0  0  0  0  0
  -21.5644   -3.4538   25.7736 F   0  0  0  0  0  0
  -30.0189  -13.3399   20.4338 N   0  0  0  0  0  0
  -26.2968  -12.9323   20.3297 N   0  0  0  0  0  0
  -25.9288  -11.6487   20.5722 N   0  0  0  0  0  0
  -22.0448  -12.8278   22.0419 N   0  0  0  0  0  0
  -25.4251  -15.1882   20.4108 N   0  0  0  0  0  0
  -31.8162  -14.7087   20.1654 O   0  0  0  0  0  0
  -21.6630   -6.8882   21.4242 O   0  0  0  0  0  0
  -22.3567  -14.5548   20.6674 O   0  0  0  0  0  0
  -24.6207  -31.8644   23.2072 C   0  0  0  0  0  0
  -25.9081  -32.4801   23.8375 C   0  0  1  0  0  0
  -27.2268  -27.3805   20.0813 C   0  0  0  0  0  0
  -25.5927  -33.8600   24.2302 N   0  0  0  0  0  0
  -23.4097  -30.4899   21.5504 C   0  0  2  0  0  0
  -24.8514  -28.9533   20.1125 C   0  0  0  0  0  0
  -22.7440  -29.4648   22.4978 C   0  0  0  0  0  0
  -18.0275  -28.1385   22.8497 C   0  0  0  0  0  0
  -24.1488  -36.7305   23.2637 C   0  0  0  0  0  0
  -25.9455  -30.8121   21.3682 C   0  0  0  0  0  0
  -26.0178  -29.4445   20.7091 C   0  0  0  0  0  0
  -27.2043  -28.6651   20.6910 C   0  0  0  0  0  0
  -26.0251  -26.9123   19.4951 C   0  0  0  0  0  0
  -24.8529  -27.6885   19.5050 C   0  0  0  0  0  0
  -23.6178  -29.8270   20.1644 C   0  0  0  0  0  0
  -25.4114  -36.3096   24.0329 C   0  0  1  0  0  0
  -20.5870  -28.3674   23.1318 C   0  0  2  0  0  0
  -20.6769  -26.9408   22.5419 C   0  0  0  0  0  0
  -19.5742  -26.6386   21.5224 C   0  0  0  0  0  0
  -18.1923  -26.7932   22.1635 C   0  0  0  0  0  0
  -19.1523  -28.8847   23.2906 C   0  0  0  0  0  0
  -18.9448  -30.1452   23.8912 C   0  0  0  0  0  0
  -17.6450  -30.6590   24.0566 C   0  0  0  0  0  0
  -25.9051  -34.9464   23.5108 C   0  0  0  0  0  0
  -16.5338  -29.9094   23.6324 C   0  0  0  0  0  0
  -16.7262  -28.6508   23.0350 C   0  0  0  0  0  0
  -26.4485  -31.6597   25.0721 C   0  0  0  0  0  0
  -25.3747  -31.3730   26.1473 C   0  0  0  0  0  0
  -27.0302  -30.3023   24.6130 C   0  0  0  0  0  0
  -27.6056  -32.4323   25.7488 C   0  0  0  0  0  0
  -27.5582  -37.1801   24.8459 C   0  0  0  0  0  0
  -21.4162  -29.3038   22.3721 N   0  0  0  0  0  0
  -26.4291  -37.3788   23.9412 N   0  0  0  0  0  0
  -24.6774  -31.0704   22.0996 N   0  0  0  0  0  0
  -23.4190  -28.8184   23.3033 O   0  0  0  0  0  0
  -28.3978  -26.6266   20.1115 O   0  0  0  0  0  0
  -26.5611  -34.8921   22.4666 O   0  0  0  0  0  0
  -23.5385  -32.1421   23.7431 O   0  0  0  0  0  0
  -31.2479  -17.5383   21.4823 C   0  0  0  0  0  0
  -30.1336  -16.9857   20.9024 C   0  0  0  0  0  0
  -29.6844  -19.2280   20.5196 C   0  0  0  0  0  0
  -29.0194  -20.4290   19.8976 C   0  0  0  0  0  0
  -28.9739  -24.1501   20.0973 C   0  0  0  0  0  0
  -28.5451  -25.4240   19.3008 C   0  0  0  0  0  0
  -28.9791  -22.7656   19.3345 C   0  0  1  0  0  0
  -29.8352  -22.8527   18.0314 C   0  0  0  0  0  0
  -29.2407  -17.9540   20.3990 N   0  0  0  0  0  0
  -29.4591  -21.6283   20.1677 N   0  0  0  0  0  0
  -28.0371  -20.0766   18.9938 N   0  0  0  0  0  0
  -29.8462  -15.5811   20.8816 N   0  0  0  0  0  0
  -29.2816  -24.2586   21.2919 O   0  0  0  0  0  0
  -29.3384  -23.7569   17.1881 F   0  0  0  0  0  0
  -31.0916  -23.1998   18.3195 F   0  0  0  0  0  0
  -29.8687  -21.6950   17.3694 F   0  0  0  0  0  0
  -31.2166  -19.2913   21.4004 S   0  0  0  0  0  0
  -31.4768  -12.4639   19.1380 H   0  0  0  0  0  0
  -30.3581  -11.3356   19.8535 H   0  0  0  0  0  0
  -29.7632  -11.7739   17.4458 H   0  0  0  0  0  0
  -29.6700  -13.4866   17.7608 H   0  0  0  0  0  0
  -27.8293  -11.3099   18.8122 H   0  0  0  0  0  0
  -27.3804  -12.6398   17.7759 H   0  0  0  0  0  0
  -27.6867  -14.2525   19.5539 H   0  0  0  0  0  0
  -28.6860  -11.9813   21.3422 H   0  0  0  0  0  0
  -28.4489  -13.6276   21.8584 H   0  0  0  0  0  0
  -25.2735   -9.5689   22.4764 H   0  0  0  0  0  0
  -23.9982   -7.4628   22.7484 H   0  0  0  0  0  0
  -21.0816   -8.8759   19.8972 H   0  0  0  0  0  0
  -22.3663  -10.9661   19.6154 H   0  0  0  0  0  0
  -21.1993   -7.6139   23.9738 H   0  0  0  0  0  0
  -21.1506   -6.0511   25.9096 H   0  0  0  0  0  0
  -22.0588   -2.7601   23.2839 H   0  0  0  0  0  0
  -22.3989  -11.9911   22.4819 H   0  0  0  0  0  0
  -21.1060  -13.1345   22.2563 H   0  0  0  0  0  0
  -24.6533  -15.8373   20.5234 H   0  0  0  0  0  0
  -26.2756  -15.6399   20.0980 H   0  0  0  0  0  0
  -26.7150  -32.5478   23.1133 H   0  0  0  0  0  0
  -25.0083  -33.9767   25.0450 H   0  0  0  0  0  0
  -22.7009  -31.3088   21.4137 H   0  0  0  0  0  0
  -23.3747  -35.9638   23.3292 H   0  0  0  0  0  0
  -24.3594  -36.8925   22.2055 H   0  0  0  0  0  0
  -23.7240  -37.6504   23.6660 H   0  0  0  0  0  0
  -26.0692  -31.5789   20.6022 H   0  0  0  0  0  0
  -26.8304  -30.8597   21.9911 H   0  0  0  0  0  0
  -28.1041  -29.0431   21.1547 H   0  0  0  0  0  0
  -25.9332  -25.9381   19.0424 H   0  0  0  0  0  0
  -23.9511  -27.3006   19.0514 H   0  0  0  0  0  0
  -23.7315  -30.6047   19.4085 H   0  0  0  0  0  0
  -22.7377  -29.2547   19.8654 H   0  0  0  0  0  0
  -25.1290  -36.1948   25.0822 H   0  0  0  0  0  0
  -20.9965  -28.3236   24.1439 H   0  0  0  0  0  0
  -20.5693  -26.2276   23.3606 H   0  0  0  0  0  0
  -21.6633  -26.7468   22.1193 H   0  0  0  0  0  0
  -19.6906  -25.6301   21.1245 H   0  0  0  0  0  0
  -19.6683  -27.3201   20.6759 H   0  0  0  0  0  0
  -17.4195  -26.6681   21.4036 H   0  0  0  0  0  0
  -18.0322  -26.0074   22.9032 H   0  0  0  0  0  0
  -19.7925  -30.7267   24.2287 H   0  0  0  0  0  0
  -17.5004  -31.6274   24.5162 H   0  0  0  0  0  0
  -15.5342  -30.3001   23.7643 H   0  0  0  0  0  0
  -15.8663  -28.0838   22.7058 H   0  0  0  0  0  0
  -24.5875  -30.7138   25.7800 H   0  0  0  0  0  0
  -24.9002  -32.2902   26.4969 H   0  0  0  0  0  0
  -25.8086  -30.8839   27.0203 H   0  0  0  0  0  0
  -26.2843  -29.6799   24.1175 H   0  0  0  0  0  0
  -27.4032  -29.7257   25.4605 H   0  0  0  0  0  0
  -27.8706  -30.4310   23.9306 H   0  0  0  0  0  0
  -27.2671  -33.3621   26.2074 H   0  0  0  0  0  0
  -28.3864  -32.6891   25.0318 H   0  0  0  0  0  0
  -28.0729  -31.8447   26.5400 H   0  0  0  0  0  0
  -28.2580  -38.0115   24.7526 H   0  0  0  0  0  0
  -28.1092  -36.2647   24.6255 H   0  0  0  0  0  0
  -27.2307  -37.1407   25.8861 H   0  0  0  0  0  0
  -20.9323  -29.8767   21.6950 H   0  0  0  0  0  0
  -26.0168  -38.2853   24.1430 H   0  0  0  0  0  0
  -32.0802  -17.0333   21.9558 H   0  0  0  0  0  0
  -27.6839  -25.1729   18.6894 H   0  0  0  0  0  0
  -29.3409  -25.6457   18.5912 H   0  0  0  0  0  0
  -27.9478  -22.5859   19.0309 H   0  0  0  0  0  0
  -27.8226  -19.1007   18.8257 H   0  0  0  0  0  0
  -27.4863  -20.6837   18.4080 H   0  0  0  0  0  0
  -28.8776  -15.3320   20.9932 H   0  0  0  0  0  0
  1 25  1  0  0  0
  1 30  2  0  0  0
  1 82  1  0  0  0
  2  3  1  0  0  0
  2 25  1  0  0  0
  2 88  1  0  0  0
  2 89  1  0  0  0
  3  4  1  0  0  0
  3 90  1  0  0  0
  3 91  1  0  0  0
  4  5  1  0  0  0
  4 92  1  0  0  0
  4 93  1  0  0  0
  5  6  1  0  0  0
  5 26  1  0  0  0
  5 94  1  0  0  0
  6 25  1  0  0  0
  6 95  1  0  0  0
  6 96  1  0  0  0
  7  8  2  0  0  0
  7 26  1  0  0  0
  7 29  1  0  0  0
  8  9  1  0  0  0
  8 22  1  0  0  0
  9 10  1  0  0  0
  9 27  2  0  0  0
 10 11  2  0  0  0
 10 15  1  0  0  0
 11 12  1  0  0  0
 11 97  1  0  0  0
 12 13  2  0  0  0
 12 98  1  0  0  0
 13 14  1  0  0  0
 13 31  1  0  0  0
 14 15  2  0  0  0
 14 99  1  0  0  0
 15100  1  0  0  0
 16 17  2  0  0  0
 16 21  1  0  0  0
 16 31  1  0  0  0
 17 18  1  0  0  0
 17101  1  0  0  0
 18 19  2  0  0  0
 18102  1  0  0  0
 19 20  1  0  0  0
 19 24  1  0  0  0
 20 21  2  0  0  0
 20103  1  0  0  0
 21 23  1  0  0  0
 22 28  1  0  0  0
 22 32  2  0  0  0
 26 27  1  0  0  0
 28104  1  0  0  0
 28105  1  0  0  0
 29106  1  0  0  0
 29107  1  0  0  0
 33 34  1  0  0  0
 33 66  1  0  0  0
 33 70  2  0  0  0
 34 36  1  0  0  0
 34 59  1  0  0  0
 34108  1  0  0  0
 35 44  2  0  0  0
 35 45  1  0  0  0
 35 68  1  0  0  0
 36 56  1  0  0  0
 36109  1  0  0  0
 37 39  1  0  0  0
 37 47  1  0  0  0
 37 66  1  0  0  0
 37110  1  0  0  0
 38 43  2  0  0  0
 38 46  1  0  0  0
 38 47  1  0  0  0
 39 64  1  0  0  0
 39 67  2  0  0  0
 40 52  1  0  0  0
 40 53  2  0  0  0
 40 58  1  0  0  0
 41111  1  0  0  0
 41112  1  0  0  0
 41113  1  0  0  0
 41 48  1  0  0  0
 42 43  1  0  0  0
 42 66  1  0  0  0
 42114  1  0  0  0
 42115  1  0  0  0
 43 44  1  0  0  0
 44116  1  0  0  0
 45 46  2  0  0  0
 45117  1  0  0  0
 46118  1  0  0  0
 47119  1  0  0  0
 47120  1  0  0  0
 48 56  1  0  0  0
 48 65  1  0  0  0
 48121  1  0  0  0
 49 50  1  0  0  0
 49 53  1  0  0  0
 49 64  1  0  0  0
 49122  1  0  0  0
 50 51  1  0  0  0
 50123  1  0  0  0
 50124  1  0  0  0
 51 52  1  0  0  0
 51125  1  0  0  0
 51126  1  0  0  0
 52127  1  0  0  0
 52128  1  0  0  0
 53 54  1  0  0  0
 54 55  2  0  0  0
 54129  1  0  0  0
 55 57  1  0  0  0
 55130  1  0  0  0
 56 69  2  0  0  0
 57 58  2  0  0  0
 57131  1  0  0  0
 58132  1  0  0  0
 59 60  1  0  0  0
 59 61  1  0  0  0
 59 62  1  0  0  0
 60133  1  0  0  0
 60134  1  0  0  0
 60135  1  0  0  0
 61136  1  0  0  0
 61137  1  0  0  0
 61138  1  0  0  0
 62139  1  0  0  0
 62140  1  0  0  0
 62141  1  0  0  0
 63 65  1  0  0  0
 63142  1  0  0  0
 63143  1  0  0  0
 63144  1  0  0  0
 64145  1  0  0  0
 65146  1  0  0  0
 68 76  1  0  0  0
 71 72  2  0  0  0
 71 87  1  0  0  0
 71147  1  0  0  0
 72 79  1  0  0  0
 72 82  1  0  0  0
 73 74  1  0  0  0
 73 79  2  0  0  0
 73 87  1  0  0  0
 74 80  2  0  0  0
 74 81  1  0  0  0
 75 76  1  0  0  0
 75 77  1  0  0  0
 75 83  2  0  0  0
 76148  1  0  0  0
 76149  1  0  0  0
 77 78  1  0  0  0
 77 80  1  0  0  0
 77150  1  0  0  0
 78 84  1  0  0  0
 78 85  1  0  0  0
 78 86  1  0  0  0
 81151  1  0  0  0
 81152  1  0  0  0
 82153  1  0  0  0
M  ISO  4   1 100  68 101  76 101  82 100
M  END
> <chiral flag>
0

> <version>
0

> <s_m_source_file>
/data/baiqing/PycharmProjects/Reinvent-master-3.2/result/LINK_invent/BTK/process_docking_weight1_custom_product_contain_oxygen_bond_distance_aromatic_linkinvent_7_9_3/rearranged_h_0181.sdf

> <i_m_source_file_index>
14

> <r_mmod_Potential_Energy-OPLS-2005>
-70.7229461669922

> <r_mmod_Stretch_Energy-OPLS-2005>
55.0068054199219

> <r_mmod_Bend_Energy-OPLS-2005>
127.862640380859

> <r_mmod_Torsional_Energy-OPLS-2005>
221.709518432617

> <r_mmod_Improper_Torsional_Energy-OPLS-2005>
5.92728328704834

> <r_mmod_Van_der_Waal_Energy-OPLS-2005>
145.389953613281

> <r_mmod_Electrostatic_Energy-OPLS-2005>
-394.39208984375

> <r_mmod_Solvation_Energy-OPLS-2005>
-256.475494384766

> <b_mmod_Minimization_Converged-OPLS-2005>
0

> <r_mmod_RMS_Derivative-OPLS-2005>
2.58430957794189

$$$$
14
                    3D
 Structure written by MMmdl.
154162  0  0  1  0            999 V2000
  -30.6267  -14.6327   20.5939 C   0  0  0  0  0  0
  -30.4466  -12.4203   19.4292 C   0  0  0  0  0  0
  -29.5022  -12.5422   18.2129 C   0  0  0  0  0  0
  -28.0253  -12.3729   18.6275 C   0  0  0  0  0  0
  -27.6596  -13.2145   19.8795 C   0  0  2  0  0  0
  -28.7096  -13.0035   20.9915 C   0  0  0  0  0  0
  -25.2565  -13.8150   20.5680 C   0  0  0  0  0  0
  -24.1826  -13.0423   20.9171 C   0  0  0  0  0  0
  -24.6401  -11.6897   20.8739 C   0  0  0  0  0  0
  -23.9069  -10.4284   21.0405 C   0  0  0  0  0  0
  -24.3620   -9.4201   21.9185 C   0  0  0  0  0  0
  -23.6292   -8.2240   22.0752 C   0  0  0  0  0  0
  -22.4275   -8.0284   21.3544 C   0  0  0  0  0  0
  -21.9912   -9.0258   20.4648 C   0  0  0  0  0  0
  -22.7245  -10.2130   20.3052 C   0  0  0  0  0  0
  -21.6849   -6.0742   22.5284 C   0  0  0  0  0  0
  -21.4013   -6.5645   23.8218 C   0  0  0  0  0  0
  -21.3658   -5.6795   24.9178 C   0  0  0  0  0  0
  -21.6039   -4.3058   24.7227 C   0  0  0  0  0  0
  -21.8819   -3.8152   23.4349 C   0  0  0  0  0  0
  -21.9193   -4.6969   22.3406 C   0  0  0  0  0  0
  -22.7849  -13.5219   21.1842 C   0  0  0  0  0  0
  -22.1660   -4.2157   21.0981 F   0  0  0  0  0  0
  -21.5628   -3.4540   25.7738 F   0  0  0  0  0  0
  -30.0138  -13.4089   20.4403 N   0  0  0  0  0  0
  -26.3024  -12.9340   20.3413 N   0  0  0  0  0  0
  -25.9339  -11.6493   20.5793 N   0  0  0  0  0  0
  -22.0493  -12.8215   22.0407 N   0  0  0  0  0  0
  -25.4255  -15.1859   20.4055 N   0  0  0  0  0  0
  -31.7289  -14.8334   20.0707 O   0  0  0  0  0  0
  -21.6635   -6.8885   21.4246 O   0  0  0  0  0  0
  -22.3529  -14.5528   20.6700 O   0  0  0  0  0  0
  -24.6257  -31.8595   23.2024 C   0  0  0  0  0  0
  -25.9105  -32.4776   23.8356 C   0  0  1  0  0  0
  -27.2290  -27.3235   20.1200 C   0  0  0  0  0  0
  -25.5924  -33.8580   24.2278 N   0  0  0  0  0  0
  -23.4205  -30.4819   21.5444 C   0  0  2  0  0  0
  -24.8702  -28.9364   20.1117 C   0  0  0  0  0  0
  -22.7477  -29.4622   22.4941 C   0  0  0  0  0  0
  -18.0289  -28.1390   22.8489 C   0  0  0  0  0  0
  -24.1496  -36.7294   23.2636 C   0  0  0  0  0  0
  -25.9612  -30.7911   21.3743 C   0  0  0  0  0  0
  -26.0373  -29.4173   20.7201 C   0  0  0  0  0  0
  -27.2209  -28.6208   20.7181 C   0  0  0  0  0  0
  -26.0436  -26.8956   19.4836 C   0  0  0  0  0  0
  -24.8745  -27.6800   19.4850 C   0  0  0  0  0  0
  -23.6364  -29.8150   20.1600 C   0  0  0  0  0  0
  -25.4115  -36.3081   24.0327 C   0  0  1  0  0  0
  -20.5886  -28.3694   23.1294 C   0  0  2  0  0  0
  -20.6782  -26.9423   22.5418 C   0  0  0  0  0  0
  -19.5756  -26.6390   21.5222 C   0  0  0  0  0  0
  -18.1935  -26.7937   22.1624 C   0  0  0  0  0  0
  -19.1538  -28.8856   23.2888 C   0  0  0  0  0  0
  -18.9460  -30.1458   23.8907 C   0  0  0  0  0  0
  -17.6459  -30.6595   24.0565 C   0  0  0  0  0  0
  -25.9052  -34.9453   23.5102 C   0  0  0  0  0  0
  -16.5351  -29.9093   23.6328 C   0  0  0  0  0  0
  -16.7274  -28.6508   23.0352 C   0  0  0  0  0  0
  -26.4481  -31.6578   25.0723 C   0  0  0  0  0  0
  -25.3704  -31.3726   26.1441 C   0  0  0  0  0  0
  -27.0302  -30.2996   24.6169 C   0  0  0  0  0  0
  -27.6059  -32.4297   25.7479 C   0  0  0  0  0  0
  -27.5577  -37.1799   24.8461 C   0  0  0  0  0  0
  -21.4190  -29.3045   22.3685 N   0  0  0  0  0  0
  -26.4289  -37.3775   23.9409 N   0  0  0  0  0  0
  -24.6878  -31.0607   22.0973 N   0  0  0  0  0  0
  -23.4197  -28.8173   23.3034 O   0  0  0  0  0  0
  -28.3371  -26.4639   20.1327 O   0  0  0  0  0  0
  -26.5622  -34.8920   22.4671 O   0  0  0  0  0  0
  -23.5420  -32.1387   23.7352 O   0  0  0  0  0  0
  -30.7800  -18.0245   20.2394 C   0  0  0  0  0  0
  -30.6548  -19.4284   19.9831 C   0  0  0  0  0  0
  -28.5639  -19.4714   21.1451 C   0  0  0  0  0  0
  -29.8026  -17.2970   20.9730 C   0  0  0  0  0  0
  -29.5531  -20.2073   20.4429 C   0  0  0  0  0  0
  -28.6828  -18.0759   21.4095 C   0  0  0  0  0  0
  -28.1282  -25.1022   20.4467 C   0  0  0  0  0  0
  -28.9521  -24.0380   20.1574 C   0  0  0  0  0  0
  -28.6027  -22.6346   20.5552 C   0  0  0  0  0  0
  -30.6742  -15.8022   22.8396 C   0  0  0  0  0  0
  -29.9751  -15.7954   21.4684 C   0  0  2  0  0  0
  -29.5097  -21.6630   20.2022 N   0  0  0  0  0  0
  -27.5655  -22.3569   21.1599 O   0  0  0  0  0  0
  -30.1013  -24.2582   19.5016 O   0  0  0  0  0  0
  -27.4213  -17.3711   22.3612 Cl  0  0  0  0  0  0
  -31.4812  -12.5716   19.1162 H   0  0  0  0  0  0
  -30.4123  -11.4117   19.8439 H   0  0  0  0  0  0
  -29.7657  -11.8049   17.4531 H   0  0  0  0  0  0
  -29.6374  -13.5203   17.7477 H   0  0  0  0  0  0
  -27.8549  -11.3152   18.8320 H   0  0  0  0  0  0
  -27.3686  -12.6300   17.7954 H   0  0  0  0  0  0
  -27.6945  -14.2626   19.5813 H   0  0  0  0  0  0
  -28.7389  -11.9500   21.2743 H   0  0  0  0  0  0
  -28.4408  -13.5144   21.9141 H   0  0  0  0  0  0
  -25.2765   -9.5678   22.4762 H   0  0  0  0  0  0
  -24.0005   -7.4627   22.7463 H   0  0  0  0  0  0
  -21.0847   -8.8779   19.8954 H   0  0  0  0  0  0
  -22.3711  -10.9670   19.6160 H   0  0  0  0  0  0
  -21.2004   -7.6152   23.9725 H   0  0  0  0  0  0
  -21.1478   -6.0523   25.9081 H   0  0  0  0  0  0
  -22.0599   -2.7616   23.2845 H   0  0  0  0  0  0
  -22.4104  -11.9869   22.4790 H   0  0  0  0  0  0
  -21.1113  -13.1245   22.2619 H   0  0  0  0  0  0
  -24.6694  -15.8458   20.5485 H   0  0  0  0  0  0
  -26.2983  -15.6336   20.1586 H   0  0  0  0  0  0
  -26.7184  -32.5447   23.1122 H   0  0  0  0  0  0
  -25.0066  -33.9735   25.0416 H   0  0  0  0  0  0
  -22.7148  -31.3021   21.4002 H   0  0  0  0  0  0
  -23.3752  -35.9635   23.3298 H   0  0  0  0  0  0
  -24.3602  -36.8905   22.2055 H   0  0  0  0  0  0
  -23.7249  -37.6497   23.6656 H   0  0  0  0  0  0
  -26.0897  -31.5544   20.6056 H   0  0  0  0  0  0
  -26.8433  -30.8434   22.0013 H   0  0  0  0  0  0
  -28.1177  -28.9839   21.2008 H   0  0  0  0  0  0
  -26.0133  -25.9329   18.9937 H   0  0  0  0  0  0
  -23.9817  -27.3071   19.0011 H   0  0  0  0  0  0
  -23.7549  -30.5908   19.4025 H   0  0  0  0  0  0
  -22.7574  -29.2433   19.8566 H   0  0  0  0  0  0
  -25.1295  -36.1930   25.0820 H   0  0  0  0  0  0
  -20.9979  -28.3268   24.1413 H   0  0  0  0  0  0
  -20.5695  -26.2307   23.3617 H   0  0  0  0  0  0
  -21.6649  -26.7469   22.1204 H   0  0  0  0  0  0
  -19.6926  -25.6303   21.1254 H   0  0  0  0  0  0
  -19.6691  -27.3200   20.6754 H   0  0  0  0  0  0
  -17.4208  -26.6688   21.4025 H   0  0  0  0  0  0
  -18.0331  -26.0078   22.9017 H   0  0  0  0  0  0
  -19.7932  -30.7273   24.2288 H   0  0  0  0  0  0
  -17.5009  -31.6279   24.5162 H   0  0  0  0  0  0
  -15.5351  -30.2999   23.7645 H   0  0  0  0  0  0
  -15.8673  -28.0830   22.7068 H   0  0  0  0  0  0
  -24.5940  -30.6994   25.7782 H   0  0  0  0  0  0
  -24.8820  -32.2883   26.4780 H   0  0  0  0  0  0
  -25.8029  -30.8988   27.0262 H   0  0  0  0  0  0
  -26.2872  -29.6774   24.1162 H   0  0  0  0  0  0
  -27.3955  -29.7223   25.4670 H   0  0  0  0  0  0
  -27.8770  -30.4272   23.9421 H   0  0  0  0  0  0
  -27.2705  -33.3623   26.2027 H   0  0  0  0  0  0
  -28.3882  -32.6789   25.0298 H   0  0  0  0  0  0
  -28.0710  -31.8417   26.5404 H   0  0  0  0  0  0
  -28.2587  -38.0103   24.7514 H   0  0  0  0  0  0
  -28.1073  -36.2631   24.6272 H   0  0  0  0  0  0
  -27.2304  -37.1439   25.8866 H   0  0  0  0  0  0
  -20.9372  -29.8746   21.6874 H   0  0  0  0  0  0
  -26.0162  -38.2846   24.1409 H   0  0  0  0  0  0
  -31.6704  -17.5147   19.8994 H   0  0  0  0  0  0
  -31.4508  -19.9168   19.4375 H   0  0  0  0  0  0
  -27.6912  -19.9706   21.5342 H   0  0  0  0  0  0
  -27.1970  -24.9561   20.9803 H   0  0  0  0  0  0
  -30.1050  -16.3786   23.5685 H   0  0  0  0  0  0
  -31.6690  -16.2431   22.7693 H   0  0  0  0  0  0
  -30.7853  -14.7935   23.2409 H   0  0  0  0  0  0
  -28.9573  -15.4746   21.6336 H   0  0  0  0  0  0
  -30.2996  -22.0517   19.7028 H   0  0  0  0  0  0
  -30.1543  -25.1933   19.3489 H   0  0  0  0  0  0
  1 25  1  0  0  0
  1 30  2  0  0  0
  1 81  1  0  0  0
  2  3  1  0  0  0
  2 25  1  0  0  0
  2 86  1  0  0  0
  2 87  1  0  0  0
  3  4  1  0  0  0
  3 88  1  0  0  0
  3 89  1  0  0  0
  4  5  1  0  0  0
  4 90  1  0  0  0
  4 91  1  0  0  0
  5  6  1  0  0  0
  5 26  1  0  0  0
  5 92  1  0  0  0
  6 25  1  0  0  0
  6 93  1  0  0  0
  6 94  1  0  0  0
  7  8  2  0  0  0
  7 26  1  0  0  0
  7 29  1  0  0  0
  8  9  1  0  0  0
  8 22  1  0  0  0
  9 10  1  0  0  0
  9 27  2  0  0  0
 10 11  2  0  0  0
 10 15  1  0  0  0
 11 12  1  0  0  0
 11 95  1  0  0  0
 12 13  2  0  0  0
 12 96  1  0  0  0
 13 14  1  0  0  0
 13 31  1  0  0  0
 14 15  2  0  0  0
 14 97  1  0  0  0
 15 98  1  0  0  0
 16 17  2  0  0  0
 16 21  1  0  0  0
 16 31  1  0  0  0
 17 18  1  0  0  0
 17 99  1  0  0  0
 18 19  2  0  0  0
 18100  1  0  0  0
 19 20  1  0  0  0
 19 24  1  0  0  0
 20 21  2  0  0  0
 20101  1  0  0  0
 21 23  1  0  0  0
 22 28  1  0  0  0
 22 32  2  0  0  0
 26 27  1  0  0  0
 28102  1  0  0  0
 28103  1  0  0  0
 29104  1  0  0  0
 29105  1  0  0  0
 33 34  1  0  0  0
 33 66  1  0  0  0
 33 70  2  0  0  0
 34 36  1  0  0  0
 34 59  1  0  0  0
 34106  1  0  0  0
 35 44  2  0  0  0
 35 45  1  0  0  0
 35 68  1  0  0  0
 36 56  1  0  0  0
 36107  1  0  0  0
 37 39  1  0  0  0
 37 47  1  0  0  0
 37 66  1  0  0  0
 37108  1  0  0  0
 38 43  2  0  0  0
 38 46  1  0  0  0
 38 47  1  0  0  0
 39 64  1  0  0  0
 39 67  2  0  0  0
 40 52  1  0  0  0
 40 53  2  0  0  0
 40 58  1  0  0  0
 41109  1  0  0  0
 41110  1  0  0  0
 41111  1  0  0  0
 41 48  1  0  0  0
 42 43  1  0  0  0
 42 66  1  0  0  0
 42112  1  0  0  0
 42113  1  0  0  0
 43 44  1  0  0  0
 44114  1  0  0  0
 45 46  2  0  0  0
 45115  1  0  0  0
 46116  1  0  0  0
 47117  1  0  0  0
 47118  1  0  0  0
 48 56  1  0  0  0
 48 65  1  0  0  0
 48119  1  0  0  0
 49 50  1  0  0  0
 49 53  1  0  0  0
 49 64  1  0  0  0
 49120  1  0  0  0
 50 51  1  0  0  0
 50121  1  0  0  0
 50122  1  0  0  0
 51 52  1  0  0  0
 51123  1  0  0  0
 51124  1  0  0  0
 52125  1  0  0  0
 52126  1  0  0  0
 53 54  1  0  0  0
 54 55  2  0  0  0
 54127  1  0  0  0
 55 57  1  0  0  0
 55128  1  0  0  0
 56 69  2  0  0  0
 57 58  2  0  0  0
 57129  1  0  0  0
 58130  1  0  0  0
 59 60  1  0  0  0
 59 61  1  0  0  0
 59 62  1  0  0  0
 60131  1  0  0  0
 60132  1  0  0  0
 60133  1  0  0  0
 61134  1  0  0  0
 61135  1  0  0  0
 61136  1  0  0  0
 62137  1  0  0  0
 62138  1  0  0  0
 62139  1  0  0  0
 63 65  1  0  0  0
 63140  1  0  0  0
 63141  1  0  0  0
 63142  1  0  0  0
 64143  1  0  0  0
 65144  1  0  0  0
 68 77  1  0  0  0
 71 72  2  0  0  0
 71 74  1  0  0  0
 71145  1  0  0  0
 72 75  1  0  0  0
 72146  1  0  0  0
 73 75  2  0  0  0
 73 76  1  0  0  0
 73147  1  0  0  0
 74 76  2  0  0  0
 74 81  1  0  0  0
 75 82  1  0  0  0
 76 85  1  0  0  0
 77 78  2  0  0  0
 77148  1  0  0  0
 78 79  1  0  0  0
 78 84  1  0  0  0
 79 82  1  0  0  0
 79 83  2  0  0  0
 80149  1  0  0  0
 80150  1  0  0  0
 80151  1  0  0  0
 80 81  1  0  0  0
 81152  1  0  0  0
 82153  1  0  0  0
 84154  1  0  0  0
M  ISO  4   1 100  68 101  77 101  81 100
M  END
> <chiral flag>
0

> <version>
0

> <s_m_source_file>
/data/baiqing/PycharmProjects/Reinvent-master-3.2/result/LINK_invent/BTK/process_docking_weight1_custom_product_contain_oxygen_bond_distance_aromatic_linkinvent_7_9_3/rearranged_h_0181.sdf

> <i_m_source_file_index>
15

> <r_mmod_Potential_Energy-OPLS-2005>
47.1617317199707

> <r_mmod_Stretch_Energy-OPLS-2005>
87.1993789672852

> <r_mmod_Bend_Energy-OPLS-2005>
148.795440673828

> <r_mmod_Torsional_Energy-OPLS-2005>
172.728088378906

> <r_mmod_Improper_Torsional_Energy-OPLS-2005>
2.55387926101685

> <r_mmod_Van_der_Waal_Energy-OPLS-2005>
150.299896240234

> <r_mmod_Electrostatic_Energy-OPLS-2005>
-362.491027832031

> <r_mmod_Solvation_Energy-OPLS-2005>
-196.697113037109

> <b_mmod_Minimization_Converged-OPLS-2005>
0

> <r_mmod_RMS_Derivative-OPLS-2005>
1.06062269210815

$$$$
15
                    3D
 Structure written by MMmdl.
151159  0  0  1  0            999 V2000
  -30.5896  -14.6176   20.5207 C   0  0  0  0  0  0
  -30.4559  -12.3837   19.4375 C   0  0  0  0  0  0
  -29.5163  -12.5203   18.2166 C   0  0  0  0  0  0
  -28.0386  -12.3505   18.6325 C   0  0  0  0  0  0
  -27.6687  -13.2003   19.8756 C   0  0  2  0  0  0
  -28.7123  -13.0025   20.9982 C   0  0  0  0  0  0
  -25.2653  -13.8074   20.5688 C   0  0  0  0  0  0
  -24.1887  -13.0382   20.9144 C   0  0  0  0  0  0
  -24.6440  -11.6840   20.8716 C   0  0  0  0  0  0
  -23.9095  -10.4252   21.0406 C   0  0  0  0  0  0
  -24.3624   -9.4160   21.9209 C   0  0  0  0  0  0
  -23.6288   -8.2203   22.0780 C   0  0  0  0  0  0
  -22.4265   -8.0274   21.3569 C   0  0  0  0  0  0
  -21.9904   -9.0273   20.4702 C   0  0  0  0  0  0
  -22.7250  -10.2137   20.3096 C   0  0  0  0  0  0
  -21.6856   -6.0746   22.5290 C   0  0  0  0  0  0
  -21.4009   -6.5652   23.8229 C   0  0  0  0  0  0
  -21.3651   -5.6789   24.9193 C   0  0  0  0  0  0
  -21.6023   -4.3059   24.7231 C   0  0  0  0  0  0
  -21.8811   -3.8172   23.4355 C   0  0  0  0  0  0
  -21.9189   -4.6983   22.3410 C   0  0  0  0  0  0
  -22.7927  -13.5247   21.1812 C   0  0  0  0  0  0
  -22.1667   -4.2160   21.0989 F   0  0  0  0  0  0
  -21.5636   -3.4534   25.7746 F   0  0  0  0  0  0
  -30.0292  -13.3720   20.4444 N   0  0  0  0  0  0
  -26.3099  -12.9235   20.3361 N   0  0  0  0  0  0
  -25.9359  -11.6404   20.5741 N   0  0  0  0  0  0
  -22.0510  -12.8320   22.0370 N   0  0  0  0  0  0
  -25.4303  -15.1799   20.4172 N   0  0  0  0  0  0
  -31.7206  -14.8517   20.0697 O   0  0  0  0  0  0
  -21.6619   -6.8886   21.4263 O   0  0  0  0  0  0
  -22.3657  -14.5571   20.6649 O   0  0  0  0  0  0
  -24.6190  -31.8660   23.2026 C   0  0  0  0  0  0
  -25.9068  -32.4825   23.8309 C   0  0  1  0  0  0
  -27.2109  -27.3490   20.1195 C   0  0  0  0  0  0
  -25.5913  -33.8616   24.2244 N   0  0  0  0  0  0
  -23.4084  -30.4900   21.5430 C   0  0  2  0  0  0
  -24.8547  -28.9505   20.1085 C   0  0  0  0  0  0
  -22.7428  -29.4650   22.4929 C   0  0  0  0  0  0
  -18.0264  -28.1381   22.8496 C   0  0  0  0  0  0
  -24.1519  -36.7314   23.2613 C   0  0  0  0  0  0
  -25.9440  -30.8136   21.3638 C   0  0  0  0  0  0
  -26.0206  -29.4407   20.7095 C   0  0  0  0  0  0
  -27.2009  -28.6465   20.7103 C   0  0  0  0  0  0
  -26.0163  -26.8947   19.5135 C   0  0  0  0  0  0
  -24.8514  -27.6838   19.5055 C   0  0  0  0  0  0
  -23.6224  -29.8271   20.1573 C   0  0  0  0  0  0
  -25.4130  -36.3091   24.0306 C   0  0  1  0  0  0
  -20.5856  -28.3678   23.1316 C   0  0  2  0  0  0
  -20.6760  -26.9400   22.5443 C   0  0  0  0  0  0
  -19.5753  -26.6366   21.5237 C   0  0  0  0  0  0
  -18.1917  -26.7923   22.1609 C   0  0  0  0  0  0
  -19.1520  -28.8840   23.2898 C   0  0  0  0  0  0
  -18.9450  -30.1440   23.8909 C   0  0  0  0  0  0
  -17.6466  -30.6600   24.0550 C   0  0  0  0  0  0
  -25.9080  -34.9477   23.5065 C   0  0  0  0  0  0
  -16.5347  -29.9111   23.6327 C   0  0  0  0  0  0
  -16.7256  -28.6512   23.0366 C   0  0  0  0  0  0
  -26.4445  -31.6620   25.0666 C   0  0  0  0  0  0
  -25.3667  -31.3904   26.1398 C   0  0  0  0  0  0
  -27.0152  -30.2979   24.6124 C   0  0  0  0  0  0
  -27.6021  -32.4310   25.7431 C   0  0  0  0  0  0
  -27.5622  -37.1764   24.8390 C   0  0  0  0  0  0
  -21.4152  -29.3026   22.3694 N   0  0  0  0  0  0
  -26.4271  -37.3816   23.9429 N   0  0  0  0  0  0
  -24.6751  -31.0719   22.0943 N   0  0  0  0  0  0
  -23.4215  -28.8205   23.2988 O   0  0  0  0  0  0
  -28.3398  -26.5315   20.1975 O   0  0  0  0  0  0
  -26.5664  -34.8951   22.4647 O   0  0  0  0  0  0
  -23.5367  -32.1397   23.7421 O   0  0  0  0  0  0
  -29.5054  -19.1593   20.4877 C   0  0  0  0  0  0
  -29.3915  -16.9146   20.7993 C   0  0  0  0  0  0
  -28.3284  -25.2176   19.7137 C   0  0  0  0  0  0
  -28.7194  -24.1044   20.4082 C   0  0  0  0  0  0
  -28.7965  -22.7660   19.7593 C   0  0  0  0  0  0
  -31.4278  -20.7857   20.8662 C   0  0  0  0  0  0
  -30.0751  -20.5783   20.1671 C   0  0  2  0  0  0
  -30.1730  -17.9706   20.4323 N   0  0  0  0  0  0
  -28.1036  -17.1862   21.0635 N   0  0  0  0  0  0
  -29.7688  -15.5468   21.0772 N   0  0  0  0  0  0
  -29.2669  -21.7747   20.5595 N   0  0  0  0  0  0
  -28.5387  -22.5485   18.5736 O   0  0  0  0  0  0
  -29.0734  -24.2215   21.6982 O   0  0  0  0  0  0
  -27.8432  -18.8552   20.9408 S   0  0  0  0  0  0
  -31.5009  -12.5171   19.1497 H   0  0  0  0  0  0
  -30.3909  -11.3785   19.8517 H   0  0  0  0  0  0
  -29.7810  -11.7832   17.4559 H   0  0  0  0  0  0
  -29.6472  -13.4976   17.7482 H   0  0  0  0  0  0
  -27.8756  -11.2919   18.8444 H   0  0  0  0  0  0
  -27.3798  -12.6023   17.8005 H   0  0  0  0  0  0
  -27.7051  -14.2433   19.5542 H   0  0  0  0  0  0
  -28.7357  -11.9626   21.3258 H   0  0  0  0  0  0
  -28.4428  -13.5672   21.8915 H   0  0  0  0  0  0
  -25.2753   -9.5624   22.4819 H   0  0  0  0  0  0
  -24.0000   -7.4587   22.7486 H   0  0  0  0  0  0
  -21.0837   -8.8853   19.9044 H   0  0  0  0  0  0
  -22.3728  -10.9724   19.6251 H   0  0  0  0  0  0
  -21.2018   -7.6162   23.9757 H   0  0  0  0  0  0
  -21.1487   -6.0511   25.9093 H   0  0  0  0  0  0
  -22.0608   -2.7637   23.2835 H   0  0  0  0  0  0
  -22.4054  -11.9970   22.4778 H   0  0  0  0  0  0
  -21.1204  -13.1526   22.2640 H   0  0  0  0  0  0
  -24.6469  -15.8039   20.5705 H   0  0  0  0  0  0
  -26.2935  -15.6709   20.2200 H   0  0  0  0  0  0
  -26.7142  -32.5550   23.1060 H   0  0  0  0  0  0
  -25.0047  -33.9773   25.0365 H   0  0  0  0  0  0
  -22.6970  -31.3049   21.4041 H   0  0  0  0  0  0
  -23.3807  -35.9611   23.3164 H   0  0  0  0  0  0
  -24.3652  -36.9051   22.2040 H   0  0  0  0  0  0
  -23.7243  -37.6462   23.6720 H   0  0  0  0  0  0
  -26.0545  -31.5856   20.6004 H   0  0  0  0  0  0
  -26.8271  -30.8733   21.9857 H   0  0  0  0  0  0
  -28.0943  -29.0119   21.1959 H   0  0  0  0  0  0
  -25.9464  -25.9112   19.0756 H   0  0  0  0  0  0
  -23.9456  -27.3025   19.0545 H   0  0  0  0  0  0
  -23.7362  -30.5965   19.3927 H   0  0  0  0  0  0
  -22.7450  -29.2484   19.8617 H   0  0  0  0  0  0
  -25.1324  -36.1859   25.0775 H   0  0  0  0  0  0
  -20.9935  -28.3246   24.1450 H   0  0  0  0  0  0
  -20.5629  -26.2304   23.3649 H   0  0  0  0  0  0
  -21.6644  -26.7449   22.1293 H   0  0  0  0  0  0
  -19.6937  -25.6265   21.1299 H   0  0  0  0  0  0
  -19.6706  -27.3137   20.6724 H   0  0  0  0  0  0
  -17.4210  -26.6673   21.3974 H   0  0  0  0  0  0
  -18.0287  -26.0050   22.8982 H   0  0  0  0  0  0
  -19.7942  -30.7225   24.2301 H   0  0  0  0  0  0
  -17.5046  -31.6288   24.5142 H   0  0  0  0  0  0
  -15.5360  -30.3028   23.7656 H   0  0  0  0  0  0
  -15.8633  -28.0837   22.7105 H   0  0  0  0  0  0
  -24.5875  -30.7157   25.7835 H   0  0  0  0  0  0
  -24.8798  -32.3138   26.4560 H   0  0  0  0  0  0
  -25.7964  -30.9331   27.0316 H   0  0  0  0  0  0
  -26.2665  -29.6859   24.1078 H   0  0  0  0  0  0
  -27.3664  -29.7140   25.4644 H   0  0  0  0  0  0
  -27.8655  -30.4133   23.9397 H   0  0  0  0  0  0
  -27.2629  -33.3601   26.2024 H   0  0  0  0  0  0
  -28.3838  -32.6880   25.0271 H   0  0  0  0  0  0
  -28.0673  -31.8418   26.5334 H   0  0  0  0  0  0
  -28.2511  -38.0190   24.7656 H   0  0  0  0  0  0
  -28.1246  -36.2744   24.5912 H   0  0  0  0  0  0
  -27.2413  -37.1073   25.8801 H   0  0  0  0  0  0
  -20.9304  -29.8721   21.6893 H   0  0  0  0  0  0
  -26.0129  -38.2852   24.1561 H   0  0  0  0  0  0
  -28.0090  -25.1721   18.6811 H   0  0  0  0  0  0
  -32.1492  -20.0258   20.5685 H   0  0  0  0  0  0
  -31.3161  -20.7513   21.9505 H   0  0  0  0  0  0
  -31.8574  -21.7561   20.6080 H   0  0  0  0  0  0
  -30.2475  -20.5988   19.0893 H   0  0  0  0  0  0
  -29.0028  -15.0620   21.5122 H   0  0  0  0  0  0
  -29.3695  -22.0609   21.5244 H   0  0  0  0  0  0
  -28.9568  -25.1323   21.9397 H   0  0  0  0  0  0
  1 25  1  0  0  0
  1 30  2  0  0  0
  1 80  1  0  0  0
  2  3  1  0  0  0
  2 25  1  0  0  0
  2 85  1  0  0  0
  2 86  1  0  0  0
  3  4  1  0  0  0
  3 87  1  0  0  0
  3 88  1  0  0  0
  4  5  1  0  0  0
  4 89  1  0  0  0
  4 90  1  0  0  0
  5  6  1  0  0  0
  5 26  1  0  0  0
  5 91  1  0  0  0
  6 25  1  0  0  0
  6 92  1  0  0  0
  6 93  1  0  0  0
  7  8  2  0  0  0
  7 26  1  0  0  0
  7 29  1  0  0  0
  8  9  1  0  0  0
  8 22  1  0  0  0
  9 10  1  0  0  0
  9 27  2  0  0  0
 10 11  2  0  0  0
 10 15  1  0  0  0
 11 12  1  0  0  0
 11 94  1  0  0  0
 12 13  2  0  0  0
 12 95  1  0  0  0
 13 14  1  0  0  0
 13 31  1  0  0  0
 14 15  2  0  0  0
 14 96  1  0  0  0
 15 97  1  0  0  0
 16 17  2  0  0  0
 16 21  1  0  0  0
 16 31  1  0  0  0
 17 18  1  0  0  0
 17 98  1  0  0  0
 18 19  2  0  0  0
 18 99  1  0  0  0
 19 20  1  0  0  0
 19 24  1  0  0  0
 20 21  2  0  0  0
 20100  1  0  0  0
 21 23  1  0  0  0
 22 28  1  0  0  0
 22 32  2  0  0  0
 26 27  1  0  0  0
 28101  1  0  0  0
 28102  1  0  0  0
 29103  1  0  0  0
 29104  1  0  0  0
 33 34  1  0  0  0
 33 66  1  0  0  0
 33 70  2  0  0  0
 34 36  1  0  0  0
 34 59  1  0  0  0
 34105  1  0  0  0
 35 44  2  0  0  0
 35 45  1  0  0  0
 35 68  1  0  0  0
 36 56  1  0  0  0
 36106  1  0  0  0
 37 39  1  0  0  0
 37 47  1  0  0  0
 37 66  1  0  0  0
 37107  1  0  0  0
 38 43  2  0  0  0
 38 46  1  0  0  0
 38 47  1  0  0  0
 39 64  1  0  0  0
 39 67  2  0  0  0
 40 52  1  0  0  0
 40 53  2  0  0  0
 40 58  1  0  0  0
 41108  1  0  0  0
 41109  1  0  0  0
 41110  1  0  0  0
 41 48  1  0  0  0
 42 43  1  0  0  0
 42 66  1  0  0  0
 42111  1  0  0  0
 42112  1  0  0  0
 43 44  1  0  0  0
 44113  1  0  0  0
 45 46  2  0  0  0
 45114  1  0  0  0
 46115  1  0  0  0
 47116  1  0  0  0
 47117  1  0  0  0
 48 56  1  0  0  0
 48 65  1  0  0  0
 48118  1  0  0  0
 49 50  1  0  0  0
 49 53  1  0  0  0
 49 64  1  0  0  0
 49119  1  0  0  0
 50 51  1  0  0  0
 50120  1  0  0  0
 50121  1  0  0  0
 51 52  1  0  0  0
 51122  1  0  0  0
 51123  1  0  0  0
 52124  1  0  0  0
 52125  1  0  0  0
 53 54  1  0  0  0
 54 55  2  0  0  0
 54126  1  0  0  0
 55 57  1  0  0  0
 55127  1  0  0  0
 56 69  2  0  0  0
 57 58  2  0  0  0
 57128  1  0  0  0
 58129  1  0  0  0
 59 60  1  0  0  0
 59 61  1  0  0  0
 59 62  1  0  0  0
 60130  1  0  0  0
 60131  1  0  0  0
 60132  1  0  0  0
 61133  1  0  0  0
 61134  1  0  0  0
 61135  1  0  0  0
 62136  1  0  0  0
 62137  1  0  0  0
 62138  1  0  0  0
 63 65  1  0  0  0
 63139  1  0  0  0
 63140  1  0  0  0
 63141  1  0  0  0
 64142  1  0  0  0
 65143  1  0  0  0
 68 73  1  0  0  0
 71 77  1  0  0  0
 71 78  2  0  0  0
 71 84  1  0  0  0
 72 78  1  0  0  0
 72 79  2  0  0  0
 72 80  1  0  0  0
 73 74  2  0  0  0
 73144  1  0  0  0
 74 75  1  0  0  0
 74 83  1  0  0  0
 75 81  1  0  0  0
 75 82  2  0  0  0
 76145  1  0  0  0
 76146  1  0  0  0
 76147  1  0  0  0
 76 77  1  0  0  0
 77 81  1  0  0  0
 77148  1  0  0  0
 79 84  1  0  0  0
 80149  1  0  0  0
 81150  1  0  0  0
 83151  1  0  0  0
M  ISO  4   1 100  68 101  73 101  80 100
M  END
> <chiral flag>
0

> <version>
0

> <s_m_source_file>
/data/baiqing/PycharmProjects/Reinvent-master-3.2/result/LINK_invent/BTK/process_docking_weight1_custom_product_contain_oxygen_bond_distance_aromatic_linkinvent_7_9_3/rearranged_h_0181.sdf

> <i_m_source_file_index>
16

> <r_mmod_Potential_Energy-OPLS-2005>
-165.114395141602

> <r_mmod_Stretch_Energy-OPLS-2005>
60.1881523132324

> <r_mmod_Bend_Energy-OPLS-2005>
158.830718994141

> <r_mmod_Torsional_Energy-OPLS-2005>
205.533615112305

> <r_mmod_Improper_Torsional_Energy-OPLS-2005>
7.23661375045776

> <r_mmod_Van_der_Waal_Energy-OPLS-2005>
125.967903137207

> <r_mmod_Electrostatic_Energy-OPLS-2005>
-536.437255859375

> <r_mmod_Solvation_Energy-OPLS-2005>
-228.469375610352

> <b_mmod_Minimization_Converged-OPLS-2005>
0

> <r_mmod_RMS_Derivative-OPLS-2005>
5.4635443687439

$$$$
16
                    3D
 Structure written by MMmdl.
161169  0  0  1  0            999 V2000
  -30.5990  -14.7919   20.4438 C   0  0  0  0  0  0
  -30.4288  -12.4797   19.4911 C   0  0  0  0  0  0
  -29.5117  -12.5149   18.2464 C   0  0  0  0  0  0
  -28.0379  -12.3386   18.6530 C   0  0  0  0  0  0
  -27.6393  -13.2400   19.8524 C   0  0  2  0  0  0
  -28.6818  -13.1889   20.9921 C   0  0  0  0  0  0
  -25.2463  -13.8192   20.5689 C   0  0  0  0  0  0
  -24.1763  -13.0437   20.9208 C   0  0  0  0  0  0
  -24.6383  -11.6921   20.8750 C   0  0  0  0  0  0
  -23.9070  -10.4297   21.0407 C   0  0  0  0  0  0
  -24.3626   -9.4208   21.9176 C   0  0  0  0  0  0
  -23.6293   -8.2245   22.0751 C   0  0  0  0  0  0
  -22.4277   -8.0290   21.3543 C   0  0  0  0  0  0
  -21.9917   -9.0262   20.4640 C   0  0  0  0  0  0
  -22.7245  -10.2138   20.3063 C   0  0  0  0  0  0
  -21.6856   -6.0748   22.5283 C   0  0  0  0  0  0
  -21.4026   -6.5651   23.8221 C   0  0  0  0  0  0
  -21.3654   -5.6801   24.9178 C   0  0  0  0  0  0
  -21.6045   -4.3067   24.7227 C   0  0  0  0  0  0
  -21.8818   -3.8161   23.4350 C   0  0  0  0  0  0
  -21.9205   -4.6975   22.3409 C   0  0  0  0  0  0
  -22.7807  -13.5244   21.1880 C   0  0  0  0  0  0
  -22.1667   -4.2160   21.0987 F   0  0  0  0  0  0
  -21.5582   -3.4539   25.7729 F   0  0  0  0  0  0
  -29.9859  -13.5511   20.4218 N   0  0  0  0  0  0
  -26.2913  -12.9414   20.3285 N   0  0  0  0  0  0
  -25.9317  -11.6556   20.5784 N   0  0  0  0  0  0
  -22.0448  -12.8231   22.0447 N   0  0  0  0  0  0
  -25.4158  -15.1916   20.4109 N   0  0  0  0  0  0
  -31.7748  -14.8739   20.0665 O   0  0  0  0  0  0
  -21.6639   -6.8894   21.4249 O   0  0  0  0  0  0
  -22.3511  -14.5566   20.6752 O   0  0  0  0  0  0
  -24.6359  -31.8509   23.1950 C   0  0  0  0  0  0
  -25.9166  -32.4729   23.8305 C   0  0  1  0  0  0
  -27.2209  -27.2214   20.1388 C   0  0  0  0  0  0
  -25.5945  -33.8535   24.2222 N   0  0  0  0  0  0
  -23.4365  -30.4726   21.5379 C   0  0  2  0  0  0
  -24.8867  -28.9166   20.1105 C   0  0  0  0  0  0
  -22.7534  -29.4584   22.4895 C   0  0  0  0  0  0
  -18.0293  -28.1387   22.8467 C   0  0  0  0  0  0
  -24.1502  -36.7274   23.2640 C   0  0  0  0  0  0
  -25.9880  -30.7524   21.3834 C   0  0  0  0  0  0
  -26.0619  -29.3728   20.7228 C   0  0  0  0  0  0
  -27.2345  -28.5412   20.7209 C   0  0  0  0  0  0
  -26.0278  -26.8552   19.4770 C   0  0  0  0  0  0
  -24.8784  -27.6683   19.4722 C   0  0  0  0  0  0
  -23.6585  -29.8051   20.1557 C   0  0  0  0  0  0
  -25.4132  -36.3055   24.0312 C   0  0  1  0  0  0
  -20.5898  -28.3705   23.1242 C   0  0  2  0  0  0
  -20.6777  -26.9413   22.5406 C   0  0  0  0  0  0
  -19.5758  -26.6370   21.5203 C   0  0  0  0  0  0
  -18.1937  -26.7920   22.1619 C   0  0  0  0  0  0
  -19.1550  -28.8860   23.2843 C   0  0  0  0  0  0
  -18.9476  -30.1456   23.8870 C   0  0  0  0  0  0
  -17.6476  -30.6578   24.0554 C   0  0  0  0  0  0
  -25.9079  -34.9426   23.5072 C   0  0  0  0  0  0
  -16.5363  -29.9077   23.6329 C   0  0  0  0  0  0
  -16.7279  -28.6496   23.0343 C   0  0  0  0  0  0
  -26.4508  -31.6568   25.0720 C   0  0  0  0  0  0
  -25.3711  -31.3749   26.1426 C   0  0  0  0  0  0
  -27.0371  -30.2972   24.6268 C   0  0  0  0  0  0
  -27.6047  -32.4322   25.7508 C   0  0  0  0  0  0
  -27.5586  -37.1807   24.8467 C   0  0  0  0  0  0
  -21.4233  -29.3047   22.3636 N   0  0  0  0  0  0
  -26.4307  -37.3765   23.9397 N   0  0  0  0  0  0
  -24.7055  -31.0457   22.0932 N   0  0  0  0  0  0
  -23.4212  -28.8128   23.3009 O   0  0  0  0  0  0
  -28.2797  -26.2693   20.1833 O   0  0  0  0  0  0
  -26.5669  -34.8908   22.4651 O   0  0  0  0  0  0
  -23.5496  -32.1343   23.7224 O   0  0  0  0  0  0
  -29.0887  -18.1699   18.1158 C   0  0  0  0  0  0
  -29.1302  -19.4679   18.6482 C   0  0  0  0  0  0
  -29.4445  -19.6016   20.0058 C   0  0  0  0  0  0
  -29.7115  -17.1957   20.1113 C   0  0  0  0  0  0
  -28.8118  -23.5506   20.2255 C   0  0  0  0  0  0
  -26.4669  -22.5615   22.2235 C   0  0  0  0  0  0
  -26.3639  -21.2964   20.0682 C   0  0  0  0  0  0
  -27.2720  -20.2583   22.1791 C   0  0  0  0  0  0
  -27.9167  -24.8511   20.6125 C   0  0  0  0  0  0
  -28.6790  -22.0575   20.9645 C   0  0  1  0  0  0
  -27.2202  -21.5525   21.3245 C   0  0  0  0  0  0
  -29.3739  -17.0627   18.8330 N   0  0  0  0  0  0
  -29.7311  -18.4347   20.7320 N   0  0  0  0  0  0
  -29.6428  -20.9585   20.4922 N   0  0  0  0  0  0
  -29.8725  -15.9348   20.7884 N   0  0  0  0  0  0
  -29.6581  -23.6848   19.3370 O   0  0  0  0  0  0
  -28.9035  -20.5520   17.8647 F   0  0  0  0  0  0
  -31.4691  -12.5985   19.1850 H   0  0  0  0  0  0
  -30.3759  -11.5065   19.9841 H   0  0  0  0  0  0
  -29.7950  -11.7299   17.5436 H   0  0  0  0  0  0
  -29.6383  -13.4607   17.7157 H   0  0  0  0  0  0
  -27.8970  -11.2900   18.9176 H   0  0  0  0  0  0
  -27.3843  -12.5318   17.8001 H   0  0  0  0  0  0
  -27.6282  -14.2604   19.4673 H   0  0  0  0  0  0
  -28.7216  -12.1925   21.4365 H   0  0  0  0  0  0
  -28.4056  -13.8704   21.7978 H   0  0  0  0  0  0
  -25.2775   -9.5674   22.4741 H   0  0  0  0  0  0
  -23.9990   -7.4633   22.7464 H   0  0  0  0  0  0
  -21.0830   -8.8789   19.8965 H   0  0  0  0  0  0
  -22.3712  -10.9693   19.6184 H   0  0  0  0  0  0
  -21.2013   -7.6160   23.9720 H   0  0  0  0  0  0
  -21.1476   -6.0534   25.9082 H   0  0  0  0  0  0
  -22.0598   -2.7625   23.2853 H   0  0  0  0  0  0
  -22.4073  -11.9893   22.4821 H   0  0  0  0  0  0
  -21.1066  -13.1254   22.2676 H   0  0  0  0  0  0
  -26.2606  -15.6221   20.0601 H   0  0  0  0  0  0
  -24.6497  -15.8482   20.5215 H   0  0  0  0  0  0
  -26.7245  -32.5363   23.1051 H   0  0  0  0  0  0
  -25.0057  -33.9658   25.0341 H   0  0  0  0  0  0
  -22.7336  -31.2943   21.3871 H   0  0  0  0  0  0
  -23.3765  -35.9609   23.3304 H   0  0  0  0  0  0
  -24.3600  -36.8904   22.2059 H   0  0  0  0  0  0
  -23.7256  -37.6473   23.6674 H   0  0  0  0  0  0
  -26.1436  -31.5149   20.6199 H   0  0  0  0  0  0
  -26.8577  -30.7947   22.0270 H   0  0  0  0  0  0
  -28.1336  -28.8895   21.2095 H   0  0  0  0  0  0
  -25.9625  -25.9101   18.9577 H   0  0  0  0  0  0
  -23.9826  -27.3201   18.9749 H   0  0  0  0  0  0
  -23.7847  -30.5781   19.3960 H   0  0  0  0  0  0
  -22.7753  -29.2408   19.8507 H   0  0  0  0  0  0
  -25.1327  -36.1897   25.0812 H   0  0  0  0  0  0
  -20.9990  -28.3285   24.1363 H   0  0  0  0  0  0
  -20.5659  -26.2322   23.3620 H   0  0  0  0  0  0
  -21.6642  -26.7414   22.1220 H   0  0  0  0  0  0
  -19.6919  -25.6278   21.1236 H   0  0  0  0  0  0
  -19.6684  -27.3171   20.6719 H   0  0  0  0  0  0
  -17.4204  -26.6636   21.4026 H   0  0  0  0  0  0
  -18.0354  -26.0067   22.9025 H   0  0  0  0  0  0
  -19.7957  -30.7261   24.2237 H   0  0  0  0  0  0
  -17.5036  -31.6259   24.5161 H   0  0  0  0  0  0
  -15.5368  -30.2973   23.7665 H   0  0  0  0  0  0
  -15.8677  -28.0809   22.7075 H   0  0  0  0  0  0
  -24.5884  -30.7104   25.7754 H   0  0  0  0  0  0
  -24.8913  -32.2934   26.4820 H   0  0  0  0  0  0
  -25.7997  -30.8942   27.0223 H   0  0  0  0  0  0
  -26.2982  -29.6707   24.1260 H   0  0  0  0  0  0
  -27.3990  -29.7263   25.4829 H   0  0  0  0  0  0
  -27.8884  -30.4229   23.9574 H   0  0  0  0  0  0
  -27.2638  -33.3619   26.2064 H   0  0  0  0  0  0
  -28.3861  -32.6887   25.0347 H   0  0  0  0  0  0
  -28.0705  -31.8470   26.5449 H   0  0  0  0  0  0
  -28.2616  -38.0097   24.7512 H   0  0  0  0  0  0
  -28.1069  -36.2625   24.6298 H   0  0  0  0  0  0
  -27.2298  -37.1462   25.8871 H   0  0  0  0  0  0
  -20.9429  -29.8784   21.6843 H   0  0  0  0  0  0
  -26.0169  -38.2844   24.1369 H   0  0  0  0  0  0
  -28.8368  -18.0152   17.0777 H   0  0  0  0  0  0
  -25.5845  -22.1172   22.6858 H   0  0  0  0  0  0
  -26.0737  -23.4147   21.6811 H   0  0  0  0  0  0
  -27.0964  -22.9252   23.0378 H   0  0  0  0  0  0
  -25.3544  -20.9827   20.3399 H   0  0  0  0  0  0
  -26.7769  -20.5086   19.4432 H   0  0  0  0  0  0
  -26.2675  -22.1909   19.4522 H   0  0  0  0  0  0
  -26.3360  -20.0628   22.7035 H   0  0  0  0  0  0
  -28.0544  -20.3120   22.9380 H   0  0  0  0  0  0
  -27.4348  -19.3628   21.5885 H   0  0  0  0  0  0
  -27.8249  -24.8678   21.6980 H   0  0  0  0  0  0
  -26.9322  -24.6172   20.2170 H   0  0  0  0  0  0
  -29.1056  -22.2629   21.9481 H   0  0  0  0  0  0
  -30.0985  -21.4206   19.7104 H   0  0  0  0  0  0
  -29.0867  -15.7187   21.3781 H   0  0  0  0  0  0
  1 25  1  0  0  0
  1 30  2  0  0  0
  1 85  1  0  0  0
  2  3  1  0  0  0
  2 25  1  0  0  0
  2 88  1  0  0  0
  2 89  1  0  0  0
  3  4  1  0  0  0
  3 90  1  0  0  0
  3 91  1  0  0  0
  4  5  1  0  0  0
  4 92  1  0  0  0
  4 93  1  0  0  0
  5  6  1  0  0  0
  5 26  1  0  0  0
  5 94  1  0  0  0
  6 25  1  0  0  0
  6 95  1  0  0  0
  6 96  1  0  0  0
  7  8  2  0  0  0
  7 26  1  0  0  0
  7 29  1  0  0  0
  8  9  1  0  0  0
  8 22  1  0  0  0
  9 10  1  0  0  0
  9 27  2  0  0  0
 10 11  2  0  0  0
 10 15  1  0  0  0
 11 12  1  0  0  0
 11 97  1  0  0  0
 12 13  2  0  0  0
 12 98  1  0  0  0
 13 14  1  0  0  0
 13 31  1  0  0  0
 14 15  2  0  0  0
 14 99  1  0  0  0
 15100  1  0  0  0
 16 17  2  0  0  0
 16 21  1  0  0  0
 16 31  1  0  0  0
 17 18  1  0  0  0
 17101  1  0  0  0
 18 19  2  0  0  0
 18102  1  0  0  0
 19 20  1  0  0  0
 19 24  1  0  0  0
 20 21  2  0  0  0
 20103  1  0  0  0
 21 23  1  0  0  0
 22 28  1  0  0  0
 22 32  2  0  0  0
 26 27  1  0  0  0
 28104  1  0  0  0
 28105  1  0  0  0
 29106  1  0  0  0
 29107  1  0  0  0
 33 34  1  0  0  0
 33 66  1  0  0  0
 33 70  2  0  0  0
 34 36  1  0  0  0
 34 59  1  0  0  0
 34108  1  0  0  0
 35 44  2  0  0  0
 35 45  1  0  0  0
 35 68  1  0  0  0
 36 56  1  0  0  0
 36109  1  0  0  0
 37 39  1  0  0  0
 37 47  1  0  0  0
 37 66  1  0  0  0
 37110  1  0  0  0
 38 43  2  0  0  0
 38 46  1  0  0  0
 38 47  1  0  0  0
 39 64  1  0  0  0
 39 67  2  0  0  0
 40 52  1  0  0  0
 40 53  2  0  0  0
 40 58  1  0  0  0
 41111  1  0  0  0
 41112  1  0  0  0
 41113  1  0  0  0
 41 48  1  0  0  0
 42 43  1  0  0  0
 42 66  1  0  0  0
 42114  1  0  0  0
 42115  1  0  0  0
 43 44  1  0  0  0
 44116  1  0  0  0
 45 46  2  0  0  0
 45117  1  0  0  0
 46118  1  0  0  0
 47119  1  0  0  0
 47120  1  0  0  0
 48 56  1  0  0  0
 48 65  1  0  0  0
 48121  1  0  0  0
 49 50  1  0  0  0
 49 53  1  0  0  0
 49 64  1  0  0  0
 49122  1  0  0  0
 50 51  1  0  0  0
 50123  1  0  0  0
 50124  1  0  0  0
 51 52  1  0  0  0
 51125  1  0  0  0
 51126  1  0  0  0
 52127  1  0  0  0
 52128  1  0  0  0
 53 54  1  0  0  0
 54 55  2  0  0  0
 54129  1  0  0  0
 55 57  1  0  0  0
 55130  1  0  0  0
 56 69  2  0  0  0
 57 58  2  0  0  0
 57131  1  0  0  0
 58132  1  0  0  0
 59 60  1  0  0  0
 59 61  1  0  0  0
 59 62  1  0  0  0
 60133  1  0  0  0
 60134  1  0  0  0
 60135  1  0  0  0
 61136  1  0  0  0
 61137  1  0  0  0
 61138  1  0  0  0
 62139  1  0  0  0
 62140  1  0  0  0
 62141  1  0  0  0
 63 65  1  0  0  0
 63142  1  0  0  0
 63143  1  0  0  0
 63144  1  0  0  0
 64145  1  0  0  0
 65146  1  0  0  0
 68 79  1  0  0  0
 71 72  2  0  0  0
 71 82  1  0  0  0
 71147  1  0  0  0
 72 73  1  0  0  0
 72 87  1  0  0  0
 73 83  2  0  0  0
 73 84  1  0  0  0
 74 82  2  0  0  0
 74 83  1  0  0  0
 74 85  1  0  0  0
 75 79  1  0  0  0
 75 80  1  0  0  0
 75 86  2  0  0  0
 76148  1  0  0  0
 76149  1  0  0  0
 76150  1  0  0  0
 76 81  1  0  0  0
 77 81  1  0  0  0
 77151  1  0  0  0
 77152  1  0  0  0
 77153  1  0  0  0
 78 81  1  0  0  0
 78154  1  0  0  0
 78155  1  0  0  0
 78156  1  0  0  0
 79157  1  0  0  0
 79158  1  0  0  0
 80 81  1  0  0  0
 80 84  1  0  0  0
 80159  1  0  0  0
 84160  1  0  0  0
 85161  1  0  0  0
M  ISO  4   1 100  68 101  79 101  85 100
M  END
> <chiral flag>
0

> <version>
0

> <s_m_source_file>
/data/baiqing/PycharmProjects/Reinvent-master-3.2/result/LINK_invent/BTK/process_docking_weight1_custom_product_contain_oxygen_bond_distance_aromatic_linkinvent_7_9_3/rearranged_h_0181.sdf

> <i_m_source_file_index>
17

> <r_mmod_Potential_Energy-OPLS-2005>
-55.5157432556152

> <r_mmod_Stretch_Energy-OPLS-2005>
165.298431396484

> <r_mmod_Bend_Energy-OPLS-2005>
242.777740478516

> <r_mmod_Torsional_Energy-OPLS-2005>
290.899658203125

> <r_mmod_Improper_Torsional_Energy-OPLS-2005>
12.2645750045776

> <r_mmod_Van_der_Waal_Energy-OPLS-2005>
147.567581176758

> <r_mmod_Electrostatic_Energy-OPLS-2005>
-782.845947265625

> <r_mmod_Solvation_Energy-OPLS-2005>
-241.419921875

> <b_mmod_Minimization_Converged-OPLS-2005>
0

> <r_mmod_RMS_Derivative-OPLS-2005>
2.77302622795105

$$$$
17
                    3D
 Structure written by MMmdl.
149157  0  0  1  0            999 V2000
  -30.5869  -14.7793   20.4489 C   0  0  0  0  0  0
  -30.4385  -12.4759   19.4692 C   0  0  0  0  0  0
  -29.5122  -12.5083   18.2334 C   0  0  0  0  0  0
  -28.0400  -12.3203   18.6511 C   0  0  0  0  0  0
  -27.6389  -13.2277   19.8442 C   0  0  2  0  0  0
  -28.6853  -13.1783   20.9783 C   0  0  0  0  0  0
  -25.2511  -13.8182   20.5687 C   0  0  0  0  0  0
  -24.1804  -13.0430   20.9210 C   0  0  0  0  0  0
  -24.6389  -11.6905   20.8744 C   0  0  0  0  0  0
  -23.9064  -10.4288   21.0407 C   0  0  0  0  0  0
  -24.3614   -9.4207   21.9187 C   0  0  0  0  0  0
  -23.6293   -8.2241   22.0756 C   0  0  0  0  0  0
  -22.4276   -8.0278   21.3545 C   0  0  0  0  0  0
  -21.9908   -9.0252   20.4646 C   0  0  0  0  0  0
  -22.7234  -10.2132   20.3059 C   0  0  0  0  0  0
  -21.6853   -6.0733   22.5281 C   0  0  0  0  0  0
  -21.4016   -6.5638   23.8212 C   0  0  0  0  0  0
  -21.3663   -5.6791   24.9176 C   0  0  0  0  0  0
  -21.6041   -4.3052   24.7226 C   0  0  0  0  0  0
  -21.8818   -3.8145   23.4346 C   0  0  0  0  0  0
  -21.9194   -4.6961   22.3401 C   0  0  0  0  0  0
  -22.7829  -13.5219   21.1873 C   0  0  0  0  0  0
  -22.1662   -4.2147   21.0978 F   0  0  0  0  0  0
  -21.5628   -3.4533   25.7738 F   0  0  0  0  0  0
  -29.9804  -13.5420   20.3892 N   0  0  0  0  0  0
  -26.2923  -12.9375   20.3249 N   0  0  0  0  0  0
  -25.9315  -11.6521   20.5733 N   0  0  0  0  0  0
  -22.0475  -12.8210   22.0425 N   0  0  0  0  0  0
  -25.4180  -15.1910   20.4104 N   0  0  0  0  0  0
  -31.7912  -14.8762   20.1905 O   0  0  0  0  0  0
  -21.6638   -6.8878   21.4242 O   0  0  0  0  0  0
  -22.3516  -14.5531   20.6727 O   0  0  0  0  0  0
  -24.6325  -31.8532   23.1948 C   0  0  0  0  0  0
  -25.9138  -32.4745   23.8310 C   0  0  1  0  0  0
  -27.2257  -27.2478   20.1434 C   0  0  0  0  0  0
  -25.5922  -33.8547   24.2232 N   0  0  0  0  0  0
  -23.4307  -30.4722   21.5395 C   0  0  2  0  0  0
  -24.8794  -28.9070   20.1188 C   0  0  0  0  0  0
  -22.7510  -29.4587   22.4919 C   0  0  0  0  0  0
  -18.0295  -28.1386   22.8486 C   0  0  0  0  0  0
  -24.1491  -36.7282   23.2641 C   0  0  0  0  0  0
  -25.9767  -30.7629   21.3748 C   0  0  0  0  0  0
  -26.0518  -29.3811   20.7219 C   0  0  0  0  0  0
  -27.2314  -28.5670   20.7143 C   0  0  0  0  0  0
  -26.0299  -26.8328   19.5250 C   0  0  0  0  0  0
  -24.8735  -27.6411   19.5090 C   0  0  0  0  0  0
  -23.6510  -29.7978   20.1592 C   0  0  0  0  0  0
  -25.4119  -36.3063   24.0322 C   0  0  1  0  0  0
  -20.5899  -28.3694   23.1274 C   0  0  2  0  0  0
  -20.6783  -26.9411   22.5413 C   0  0  0  0  0  0
  -19.5759  -26.6382   21.5216 C   0  0  0  0  0  0
  -18.1939  -26.7928   22.1630 C   0  0  0  0  0  0
  -19.1549  -28.8859   23.2875 C   0  0  0  0  0  0
  -18.9467  -30.1460   23.8892 C   0  0  0  0  0  0
  -17.6464  -30.6587   24.0563 C   0  0  0  0  0  0
  -25.9059  -34.9434   23.5084 C   0  0  0  0  0  0
  -16.5357  -29.9082   23.6331 C   0  0  0  0  0  0
  -16.7281  -28.6502   23.0349 C   0  0  0  0  0  0
  -26.4493  -31.6581   25.0713 C   0  0  0  0  0  0
  -25.3705  -31.3748   26.1429 C   0  0  0  0  0  0
  -27.0338  -30.2991   24.6217 C   0  0  0  0  0  0
  -27.6046  -32.4324   25.7488 C   0  0  0  0  0  0
  -27.5580  -37.1794   24.8462 C   0  0  0  0  0  0
  -21.4217  -29.3034   22.3659 N   0  0  0  0  0  0
  -26.4292  -37.3763   23.9404 N   0  0  0  0  0  0
  -24.6992  -31.0482   22.0927 N   0  0  0  0  0  0
  -23.4202  -28.8141   23.3036 O   0  0  0  0  0  0
  -28.3294  -26.3659   20.1202 O   0  0  0  0  0  0
  -26.5646  -34.8916   22.4663 O   0  0  0  0  0  0
  -23.5471  -32.1358   23.7233 O   0  0  0  0  0  0
  -29.6878  -19.7289   20.5083 C   0  0  0  0  0  0
  -30.9356  -19.6810   21.1105 C   0  0  0  0  0  0
  -30.0574  -17.3549   20.6196 C   0  0  0  0  0  0
  -29.1065  -22.3620   20.4708 C   0  0  0  0  0  0
  -28.9413  -21.0299   20.0679 C   0  0  0  0  0  0
  -28.4658  -23.6688   19.8994 C   0  0  0  0  0  0
  -28.2258  -25.0044   20.7677 C   0  0  0  0  0  0
  -29.2086  -18.3809   20.2531 N   0  0  0  0  0  0
  -31.7742  -20.7248   21.4962 N   0  0  0  0  0  0
  -29.7626  -15.8999   20.5200 N   0  0  0  0  0  0
  -28.1188  -23.7255   18.7146 O   0  0  0  0  0  0
  -28.0489  -20.7283   19.1140 O   0  0  0  0  0  0
  -31.5270  -18.0261   21.3296 S   0  0  0  0  0  0
  -31.4776  -12.6138   19.1653 H   0  0  0  0  0  0
  -30.3949  -11.5023   19.9601 H   0  0  0  0  0  0
  -29.8029  -11.7334   17.5226 H   0  0  0  0  0  0
  -29.6271  -13.4599   17.7121 H   0  0  0  0  0  0
  -27.9085  -11.2732   18.9259 H   0  0  0  0  0  0
  -27.3792  -12.4956   17.8016 H   0  0  0  0  0  0
  -27.6246  -14.2439   19.4507 H   0  0  0  0  0  0
  -28.7309  -12.1847   21.4263 H   0  0  0  0  0  0
  -28.4157  -13.8647   21.7830 H   0  0  0  0  0  0
  -25.2760   -9.5687   22.4759 H   0  0  0  0  0  0
  -24.0003   -7.4633   22.7473 H   0  0  0  0  0  0
  -21.0842   -8.8772   19.8950 H   0  0  0  0  0  0
  -22.3697  -10.9672   19.6166 H   0  0  0  0  0  0
  -21.2011   -7.6146   23.9715 H   0  0  0  0  0  0
  -21.1485   -6.0520   25.9078 H   0  0  0  0  0  0
  -22.0597   -2.7607   23.2843 H   0  0  0  0  0  0
  -22.4094  -11.9865   22.4797 H   0  0  0  0  0  0
  -21.1096  -13.1239   22.2642 H   0  0  0  0  0  0
  -24.6432  -15.8364   20.5209 H   0  0  0  0  0  0
  -26.2503  -15.6371   20.0473 H   0  0  0  0  0  0
  -26.7206  -32.5389   23.1053 H   0  0  0  0  0  0
  -25.0033  -33.9678   25.0353 H   0  0  0  0  0  0
  -22.7279  -31.2940   21.3884 H   0  0  0  0  0  0
  -23.3752  -35.9616   23.3303 H   0  0  0  0  0  0
  -24.3579  -36.8910   22.2056 H   0  0  0  0  0  0
  -23.7250  -37.6483   23.6672 H   0  0  0  0  0  0
  -26.1150  -31.5209   20.6025 H   0  0  0  0  0  0
  -26.8538  -30.8153   22.0083 H   0  0  0  0  0  0
  -28.1359  -28.9325   21.1799 H   0  0  0  0  0  0
  -25.9881  -25.8599   19.0552 H   0  0  0  0  0  0
  -23.9750  -27.2708   19.0346 H   0  0  0  0  0  0
  -23.7788  -30.5699   19.3997 H   0  0  0  0  0  0
  -22.7692  -29.2313   19.8548 H   0  0  0  0  0  0
  -25.1305  -36.1904   25.0816 H   0  0  0  0  0  0
  -20.9993  -28.3272   24.1394 H   0  0  0  0  0  0
  -20.5685  -26.2303   23.3618 H   0  0  0  0  0  0
  -21.6650  -26.7435   22.1205 H   0  0  0  0  0  0
  -19.6920  -25.6293   21.1247 H   0  0  0  0  0  0
  -19.6696  -27.3193   20.6746 H   0  0  0  0  0  0
  -17.4209  -26.6674   21.4032 H   0  0  0  0  0  0
  -18.0340  -26.0072   22.9030 H   0  0  0  0  0  0
  -19.7942  -30.7279   24.2257 H   0  0  0  0  0  0
  -17.5016  -31.6264   24.5169 H   0  0  0  0  0  0
  -15.5356  -30.2977   23.7657 H   0  0  0  0  0  0
  -15.8686  -28.0817   22.7060 H   0  0  0  0  0  0
  -24.5859  -30.7128   25.7746 H   0  0  0  0  0  0
  -24.8922  -32.2929   26.4852 H   0  0  0  0  0  0
  -25.8002  -30.8908   27.0209 H   0  0  0  0  0  0
  -26.2924  -29.6737   24.1231 H   0  0  0  0  0  0
  -27.3993  -29.7261   25.4750 H   0  0  0  0  0  0
  -27.8813  -30.4253   23.9476 H   0  0  0  0  0  0
  -27.2650  -33.3625   26.2056 H   0  0  0  0  0  0
  -28.3858  -32.6884   25.0318 H   0  0  0  0  0  0
  -28.0711  -31.8455   26.5410 H   0  0  0  0  0  0
  -28.2593  -38.0095   24.7510 H   0  0  0  0  0  0
  -28.1081  -36.2626   24.6286 H   0  0  0  0  0  0
  -27.2301  -37.1442   25.8866 H   0  0  0  0  0  0
  -20.9413  -29.8730   21.6834 H   0  0  0  0  0  0
  -26.0169  -38.2837   24.1402 H   0  0  0  0  0  0
  -29.8012  -22.5422   21.2767 H   0  0  0  0  0  0
  -28.9453  -24.9872   21.5858 H   0  0  0  0  0  0
  -27.2469  -24.9136   21.2390 H   0  0  0  0  0  0
  -31.6570  -21.6737   21.1565 H   0  0  0  0  0  0
  -32.7190  -20.5554   21.8301 H   0  0  0  0  0  0
  -28.7817  -15.6781   20.5100 H   0  0  0  0  0  0
  -28.0791  -19.7810   19.0184 H   0  0  0  0  0  0
  1 25  1  0  0  0
  1 30  2  0  0  0
  1 80  1  0  0  0
  2  3  1  0  0  0
  2 25  1  0  0  0
  2 84  1  0  0  0
  2 85  1  0  0  0
  3  4  1  0  0  0
  3 86  1  0  0  0
  3 87  1  0  0  0
  4  5  1  0  0  0
  4 88  1  0  0  0
  4 89  1  0  0  0
  5  6  1  0  0  0
  5 26  1  0  0  0
  5 90  1  0  0  0
  6 25  1  0  0  0
  6 91  1  0  0  0
  6 92  1  0  0  0
  7  8  2  0  0  0
  7 26  1  0  0  0
  7 29  1  0  0  0
  8  9  1  0  0  0
  8 22  1  0  0  0
  9 10  1  0  0  0
  9 27  2  0  0  0
 10 11  2  0  0  0
 10 15  1  0  0  0
 11 12  1  0  0  0
 11 93  1  0  0  0
 12 13  2  0  0  0
 12 94  1  0  0  0
 13 14  1  0  0  0
 13 31  1  0  0  0
 14 15  2  0  0  0
 14 95  1  0  0  0
 15 96  1  0  0  0
 16 17  2  0  0  0
 16 21  1  0  0  0
 16 31  1  0  0  0
 17 18  1  0  0  0
 17 97  1  0  0  0
 18 19  2  0  0  0
 18 98  1  0  0  0
 19 20  1  0  0  0
 19 24  1  0  0  0
 20 21  2  0  0  0
 20 99  1  0  0  0
 21 23  1  0  0  0
 22 28  1  0  0  0
 22 32  2  0  0  0
 26 27  1  0  0  0
 28100  1  0  0  0
 28101  1  0  0  0
 29102  1  0  0  0
 29103  1  0  0  0
 33 34  1  0  0  0
 33 66  1  0  0  0
 33 70  2  0  0  0
 34 36  1  0  0  0
 34 59  1  0  0  0
 34104  1  0  0  0
 35 44  2  0  0  0
 35 45  1  0  0  0
 35 68  1  0  0  0
 36 56  1  0  0  0
 36105  1  0  0  0
 37 39  1  0  0  0
 37 47  1  0  0  0
 37 66  1  0  0  0
 37106  1  0  0  0
 38 43  2  0  0  0
 38 46  1  0  0  0
 38 47  1  0  0  0
 39 64  1  0  0  0
 39 67  2  0  0  0
 40 52  1  0  0  0
 40 53  2  0  0  0
 40 58  1  0  0  0
 41107  1  0  0  0
 41108  1  0  0  0
 41109  1  0  0  0
 41 48  1  0  0  0
 42 43  1  0  0  0
 42 66  1  0  0  0
 42110  1  0  0  0
 42111  1  0  0  0
 43 44  1  0  0  0
 44112  1  0  0  0
 45 46  2  0  0  0
 45113  1  0  0  0
 46114  1  0  0  0
 47115  1  0  0  0
 47116  1  0  0  0
 48 56  1  0  0  0
 48 65  1  0  0  0
 48117  1  0  0  0
 49 50  1  0  0  0
 49 53  1  0  0  0
 49 64  1  0  0  0
 49118  1  0  0  0
 50 51  1  0  0  0
 50119  1  0  0  0
 50120  1  0  0  0
 51 52  1  0  0  0
 51121  1  0  0  0
 51122  1  0  0  0
 52123  1  0  0  0
 52124  1  0  0  0
 53 54  1  0  0  0
 54 55  2  0  0  0
 54125  1  0  0  0
 55 57  1  0  0  0
 55126  1  0  0  0
 56 69  2  0  0  0
 57 58  2  0  0  0
 57127  1  0  0  0
 58128  1  0  0  0
 59 60  1  0  0  0
 59 61  1  0  0  0
 59 62  1  0  0  0
 60129  1  0  0  0
 60130  1  0  0  0
 60131  1  0  0  0
 61132  1  0  0  0
 61133  1  0  0  0
 61134  1  0  0  0
 62135  1  0  0  0
 62136  1  0  0  0
 62137  1  0  0  0
 63 65  1  0  0  0
 63138  1  0  0  0
 63139  1  0  0  0
 63140  1  0  0  0
 64141  1  0  0  0
 65142  1  0  0  0
 68 77  1  0  0  0
 71 72  2  0  0  0
 71 75  1  0  0  0
 71 78  1  0  0  0
 72 79  1  0  0  0
 72 83  1  0  0  0
 73 78  2  0  0  0
 73 80  1  0  0  0
 73 83  1  0  0  0
 74 75  2  0  0  0
 74 76  1  0  0  0
 74143  1  0  0  0
 75 82  1  0  0  0
 76 77  1  0  0  0
 76 81  2  0  0  0
 77144  1  0  0  0
 77145  1  0  0  0
 79146  1  0  0  0
 79147  1  0  0  0
 80148  1  0  0  0
 82149  1  0  0  0
M  ISO  4   1 100  68 101  77 101  80 100
M  END
> <chiral flag>
0

> <version>
0

> <s_m_source_file>
/data/baiqing/PycharmProjects/Reinvent-master-3.2/result/LINK_invent/BTK/process_docking_weight1_custom_product_contain_oxygen_bond_distance_aromatic_linkinvent_7_9_3/rearranged_h_0181.sdf

> <i_m_source_file_index>
18

> <r_mmod_Potential_Energy-OPLS-2005>
174.999984741211

> <r_mmod_Stretch_Energy-OPLS-2005>
133.935699462891

> <r_mmod_Bend_Energy-OPLS-2005>
167.990432739258

> <r_mmod_Torsional_Energy-OPLS-2005>
237.540557861328

> <r_mmod_Improper_Torsional_Energy-OPLS-2005>
8.78508758544922

> <r_mmod_Van_der_Waal_Energy-OPLS-2005>
112.432525634766

> <r_mmod_Electrostatic_Energy-OPLS-2005>
-328.529968261719

> <r_mmod_Solvation_Energy-OPLS-2005>
-253.002716064453

> <b_mmod_Minimization_Converged-OPLS-2005>
0

> <r_mmod_RMS_Derivative-OPLS-2005>
0.736033976078033

$$$$
18
                    3D
 Structure written by MMmdl.
154162  0  0  1  0            999 V2000
  -30.6098  -14.7368   20.4585 C   0  0  0  0  0  0
  -30.4365  -12.4538   19.4502 C   0  0  0  0  0  0
  -29.5037  -12.4957   18.2205 C   0  0  0  0  0  0
  -28.0308  -12.3205   18.6449 C   0  0  0  0  0  0
  -27.6373  -13.2271   19.8429 C   0  0  2  0  0  0
  -28.6907  -13.1656   20.9713 C   0  0  0  0  0  0
  -25.2484  -13.8185   20.5679 C   0  0  0  0  0  0
  -24.1805  -13.0439   20.9222 C   0  0  0  0  0  0
  -24.6396  -11.6906   20.8774 C   0  0  0  0  0  0
  -23.9077  -10.4291   21.0418 C   0  0  0  0  0  0
  -24.3612   -9.4203   21.9198 C   0  0  0  0  0  0
  -23.6292   -8.2233   22.0759 C   0  0  0  0  0  0
  -22.4277   -8.0274   21.3539 C   0  0  0  0  0  0
  -21.9911   -9.0253   20.4642 C   0  0  0  0  0  0
  -22.7242  -10.2135   20.3066 C   0  0  0  0  0  0
  -21.6849   -6.0737   22.5281 C   0  0  0  0  0  0
  -21.4012   -6.5637   23.8216 C   0  0  0  0  0  0
  -21.3662   -5.6787   24.9176 C   0  0  0  0  0  0
  -21.6042   -4.3050   24.7224 C   0  0  0  0  0  0
  -21.8816   -3.8145   23.4343 C   0  0  0  0  0  0
  -21.9192   -4.6966   22.3401 C   0  0  0  0  0  0
  -22.7818  -13.5209   21.1884 C   0  0  0  0  0  0
  -22.1657   -4.2141   21.0980 F   0  0  0  0  0  0
  -21.5633   -3.4538   25.7742 F   0  0  0  0  0  0
  -29.9858  -13.5156   20.3730 N   0  0  0  0  0  0
  -26.2912  -12.9383   20.3267 N   0  0  0  0  0  0
  -25.9318  -11.6529   20.5772 N   0  0  0  0  0  0
  -22.0464  -12.8206   22.0436 N   0  0  0  0  0  0
  -25.4151  -15.1915   20.4027 N   0  0  0  0  0  0
  -31.8200  -14.8338   20.2409 O   0  0  0  0  0  0
  -21.6635   -6.8873   21.4241 O   0  0  0  0  0  0
  -22.3496  -14.5517   20.6727 O   0  0  0  0  0  0
  -24.6324  -31.8524   23.2004 C   0  0  0  0  0  0
  -25.9136  -32.4746   23.8329 C   0  0  1  0  0  0
  -27.2211  -27.2563   20.1234 C   0  0  0  0  0  0
  -25.5927  -33.8543   24.2234 N   0  0  0  0  0  0
  -23.4291  -30.4799   21.5416 C   0  0  2  0  0  0
  -24.8769  -28.9270   20.1190 C   0  0  0  0  0  0
  -22.7485  -29.4593   22.4870 C   0  0  0  0  0  0
  -18.0292  -28.1401   22.8494 C   0  0  0  0  0  0
  -24.1489  -36.7274   23.2634 C   0  0  0  0  0  0
  -25.9777  -30.7672   21.3790 C   0  0  0  0  0  0
  -26.0526  -29.3875   20.7255 C   0  0  0  0  0  0
  -27.2273  -28.5661   20.7158 C   0  0  0  0  0  0
  -26.0151  -26.8685   19.4930 C   0  0  0  0  0  0
  -24.8632  -27.6746   19.4953 C   0  0  0  0  0  0
  -23.6511  -29.8167   20.1598 C   0  0  0  0  0  0
  -25.4127  -36.3054   24.0315 C   0  0  1  0  0  0
  -20.5895  -28.3708   23.1261 C   0  0  2  0  0  0
  -20.6788  -26.9419   22.5420 C   0  0  0  0  0  0
  -19.5773  -26.6390   21.5219 C   0  0  0  0  0  0
  -18.1938  -26.7949   22.1615 C   0  0  0  0  0  0
  -19.1546  -28.8874   23.2884 C   0  0  0  0  0  0
  -18.9474  -30.1469   23.8909 C   0  0  0  0  0  0
  -17.6474  -30.6605   24.0559 C   0  0  0  0  0  0
  -25.9052  -34.9424   23.5078 C   0  0  0  0  0  0
  -16.5368  -29.9112   23.6329 C   0  0  0  0  0  0
  -16.7282  -28.6523   23.0348 C   0  0  0  0  0  0
  -26.4513  -31.6580   25.0725 C   0  0  0  0  0  0
  -25.3733  -31.3726   26.1448 C   0  0  0  0  0  0
  -27.0336  -30.2988   24.6194 C   0  0  0  0  0  0
  -27.6066  -32.4318   25.7510 C   0  0  0  0  0  0
  -27.5569  -37.1801   24.8464 C   0  0  0  0  0  0
  -21.4189  -29.3052   22.3640 N   0  0  0  0  0  0
  -26.4287  -37.3766   23.9400 N   0  0  0  0  0  0
  -24.6998  -31.0499   22.0978 N   0  0  0  0  0  0
  -23.4188  -28.8073   23.2918 O   0  0  0  0  0  0
  -28.3223  -26.3613   20.1526 O   0  0  0  0  0  0
  -26.5624  -34.8900   22.4647 O   0  0  0  0  0  0
  -23.5466  -32.1334   23.7290 O   0  0  0  0  0  0
  -29.6736  -18.4791   20.2807 C   0  0  0  0  0  0
  -30.4778  -18.5801   22.9421 C   0  0  0  0  0  0
  -29.7476  -19.7911   20.9208 C   0  0  0  0  0  0
  -30.0006  -17.2257   20.9578 C   0  0  0  0  0  0
  -30.1808  -19.7837   22.2728 C   0  0  0  0  0  0
  -30.3950  -17.3285   22.3079 C   0  0  0  0  0  0
  -28.9664  -22.2839   20.7512 C   0  0  0  0  0  0
  -29.7461  -23.6339   18.6613 C   0  0  0  0  0  0
  -28.0625  -24.8721   20.1986 C   0  0  0  0  0  0
  -29.2266  -23.7438   20.1100 C   0  0  1  0  0  0
  -29.5167  -21.1066   20.2510 N   0  0  0  0  0  0
  -29.8004  -15.8607   20.4218 N   0  0  0  0  0  0
  -28.2202  -22.2348   21.7313 O   0  0  0  0  0  0
  -30.3630  -20.9417   22.9510 F   0  0  0  0  0  0
  -30.6488  -16.2090   23.0290 F   0  0  0  0  0  0
  -31.4731  -12.5893   19.1438 H   0  0  0  0  0  0
  -30.3927  -11.4810   19.9403 H   0  0  0  0  0  0
  -29.7822  -11.7208   17.5046 H   0  0  0  0  0  0
  -29.6238  -13.4483   17.7023 H   0  0  0  0  0  0
  -27.8894  -11.2730   18.9172 H   0  0  0  0  0  0
  -27.3691  -12.5048   17.7988 H   0  0  0  0  0  0
  -27.6260  -14.2442   19.4521 H   0  0  0  0  0  0
  -28.7302  -12.1700   21.4159 H   0  0  0  0  0  0
  -28.4358  -13.8554   21.7771 H   0  0  0  0  0  0
  -25.2757   -9.5670   22.4766 H   0  0  0  0  0  0
  -23.9999   -7.4616   22.7474 H   0  0  0  0  0  0
  -21.0843   -8.8773   19.8938 H   0  0  0  0  0  0
  -22.3711  -10.9672   19.6164 H   0  0  0  0  0  0
  -21.2008   -7.6143   23.9713 H   0  0  0  0  0  0
  -21.1485   -6.0521   25.9075 H   0  0  0  0  0  0
  -22.0597   -2.7606   23.2851 H   0  0  0  0  0  0
  -22.4084  -11.9865   22.4820 H   0  0  0  0  0  0
  -21.1074  -13.1213   22.2642 H   0  0  0  0  0  0
  -24.6350  -15.8342   20.4883 H   0  0  0  0  0  0
  -26.2451  -15.6296   20.0261 H   0  0  0  0  0  0
  -26.7177  -32.5391   23.1042 H   0  0  0  0  0  0
  -25.0094  -33.9668   25.0388 H   0  0  0  0  0  0
  -22.7284  -31.3045   21.3944 H   0  0  0  0  0  0
  -23.3735  -35.9610   23.3297 H   0  0  0  0  0  0
  -24.3573  -36.8899   22.2039 H   0  0  0  0  0  0
  -23.7256  -37.6480   23.6672 H   0  0  0  0  0  0
  -26.1075  -31.5222   20.6039 H   0  0  0  0  0  0
  -26.8567  -30.8193   22.0084 H   0  0  0  0  0  0
  -28.1258  -28.9174   21.2014 H   0  0  0  0  0  0
  -25.9175  -25.9251   18.9832 H   0  0  0  0  0  0
  -23.9617  -27.3171   19.0182 H   0  0  0  0  0  0
  -23.7821  -30.5920   19.4047 H   0  0  0  0  0  0
  -22.7695  -29.2537   19.8485 H   0  0  0  0  0  0
  -25.1309  -36.1880   25.0804 H   0  0  0  0  0  0
  -20.9997  -28.3299   24.1373 H   0  0  0  0  0  0
  -20.5667  -26.2305   23.3618 H   0  0  0  0  0  0
  -21.6653  -26.7437   22.1216 H   0  0  0  0  0  0
  -19.6922  -25.6293   21.1254 H   0  0  0  0  0  0
  -19.6723  -27.3188   20.6746 H   0  0  0  0  0  0
  -17.4201  -26.6694   21.4015 H   0  0  0  0  0  0
  -18.0350  -26.0097   22.9028 H   0  0  0  0  0  0
  -19.7947  -30.7292   24.2263 H   0  0  0  0  0  0
  -17.5031  -31.6279   24.5171 H   0  0  0  0  0  0
  -15.5360  -30.3008   23.7674 H   0  0  0  0  0  0
  -15.8675  -28.0854   22.7045 H   0  0  0  0  0  0
  -24.6009  -30.6929   25.7837 H   0  0  0  0  0  0
  -24.8803  -32.2869   26.4743 H   0  0  0  0  0  0
  -25.8083  -30.9077   27.0296 H   0  0  0  0  0  0
  -26.2895  -29.6760   24.1218 H   0  0  0  0  0  0
  -27.4005  -29.7246   25.4703 H   0  0  0  0  0  0
  -27.8778  -30.4236   23.9419 H   0  0  0  0  0  0
  -27.2707  -33.3694   26.1933 H   0  0  0  0  0  0
  -28.3979  -32.6714   25.0404 H   0  0  0  0  0  0
  -28.0584  -31.8510   26.5552 H   0  0  0  0  0  0
  -28.2591  -38.0096   24.7502 H   0  0  0  0  0  0
  -28.1060  -36.2618   24.6310 H   0  0  0  0  0  0
  -27.2268  -37.1473   25.8864 H   0  0  0  0  0  0
  -20.9364  -29.8789   21.6864 H   0  0  0  0  0  0
  -26.0139  -38.2810   24.1456 H   0  0  0  0  0  0
  -29.3552  -18.4287   19.2495 H   0  0  0  0  0  0
  -30.7791  -18.6164   23.9768 H   0  0  0  0  0  0
  -30.6333  -23.0057   18.5872 H   0  0  0  0  0  0
  -30.0201  -24.6134   18.2710 H   0  0  0  0  0  0
  -28.9862  -23.2221   17.9972 H   0  0  0  0  0  0
  -27.4041  -24.6139   19.3743 H   0  0  0  0  0  0
  -27.4776  -24.6914   21.1004 H   0  0  0  0  0  0
  -30.0515  -24.1403   20.7072 H   0  0  0  0  0  0
  -29.9309  -21.1994   19.3332 H   0  0  0  0  0  0
  -28.8421  -15.6504   20.1952 H   0  0  0  0  0  0
  1 25  1  0  0  0
  1 30  2  0  0  0
  1 82  1  0  0  0
  2  3  1  0  0  0
  2 25  1  0  0  0
  2 86  1  0  0  0
  2 87  1  0  0  0
  3  4  1  0  0  0
  3 88  1  0  0  0
  3 89  1  0  0  0
  4  5  1  0  0  0
  4 90  1  0  0  0
  4 91  1  0  0  0
  5  6  1  0  0  0
  5 26  1  0  0  0
  5 92  1  0  0  0
  6 25  1  0  0  0
  6 93  1  0  0  0
  6 94  1  0  0  0
  7  8  2  0  0  0
  7 26  1  0  0  0
  7 29  1  0  0  0
  8  9  1  0  0  0
  8 22  1  0  0  0
  9 10  1  0  0  0
  9 27  2  0  0  0
 10 11  2  0  0  0
 10 15  1  0  0  0
 11 12  1  0  0  0
 11 95  1  0  0  0
 12 13  2  0  0  0
 12 96  1  0  0  0
 13 14  1  0  0  0
 13 31  1  0  0  0
 14 15  2  0  0  0
 14 97  1  0  0  0
 15 98  1  0  0  0
 16 17  2  0  0  0
 16 21  1  0  0  0
 16 31  1  0  0  0
 17 18  1  0  0  0
 17 99  1  0  0  0
 18 19  2  0  0  0
 18100  1  0  0  0
 19 20  1  0  0  0
 19 24  1  0  0  0
 20 21  2  0  0  0
 20101  1  0  0  0
 21 23  1  0  0  0
 22 28  1  0  0  0
 22 32  2  0  0  0
 26 27  1  0  0  0
 28102  1  0  0  0
 28103  1  0  0  0
 29104  1  0  0  0
 29105  1  0  0  0
 33 34  1  0  0  0
 33 66  1  0  0  0
 33 70  2  0  0  0
 34 36  1  0  0  0
 34 59  1  0  0  0
 34106  1  0  0  0
 35 44  2  0  0  0
 35 45  1  0  0  0
 35 68  1  0  0  0
 36 56  1  0  0  0
 36107  1  0  0  0
 37 39  1  0  0  0
 37 47  1  0  0  0
 37 66  1  0  0  0
 37108  1  0  0  0
 38 43  2  0  0  0
 38 46  1  0  0  0
 38 47  1  0  0  0
 39 64  1  0  0  0
 39 67  2  0  0  0
 40 52  1  0  0  0
 40 53  2  0  0  0
 40 58  1  0  0  0
 41109  1  0  0  0
 41110  1  0  0  0
 41111  1  0  0  0
 41 48  1  0  0  0
 42 43  1  0  0  0
 42 66  1  0  0  0
 42112  1  0  0  0
 42113  1  0  0  0
 43 44  1  0  0  0
 44114  1  0  0  0
 45 46  2  0  0  0
 45115  1  0  0  0
 46116  1  0  0  0
 47117  1  0  0  0
 47118  1  0  0  0
 48 56  1  0  0  0
 48 65  1  0  0  0
 48119  1  0  0  0
 49 50  1  0  0  0
 49 53  1  0  0  0
 49 64  1  0  0  0
 49120  1  0  0  0
 50 51  1  0  0  0
 50121  1  0  0  0
 50122  1  0  0  0
 51 52  1  0  0  0
 51123  1  0  0  0
 51124  1  0  0  0
 52125  1  0  0  0
 52126  1  0  0  0
 53 54  1  0  0  0
 54 55  2  0  0  0
 54127  1  0  0  0
 55 57  1  0  0  0
 55128  1  0  0  0
 56 69  2  0  0  0
 57 58  2  0  0  0
 57129  1  0  0  0
 58130  1  0  0  0
 59 60  1  0  0  0
 59 61  1  0  0  0
 59 62  1  0  0  0
 60131  1  0  0  0
 60132  1  0  0  0
 60133  1  0  0  0
 61134  1  0  0  0
 61135  1  0  0  0
 61136  1  0  0  0
 62137  1  0  0  0
 62138  1  0  0  0
 62139  1  0  0  0
 63 65  1  0  0  0
 63140  1  0  0  0
 63141  1  0  0  0
 63142  1  0  0  0
 64143  1  0  0  0
 65144  1  0  0  0
 68 79  1  0  0  0
 71 73  2  0  0  0
 71 74  1  0  0  0
 71145  1  0  0  0
 72 75  2  0  0  0
 72 76  1  0  0  0
 72146  1  0  0  0
 73 75  1  0  0  0
 73 81  1  0  0  0
 74 76  2  0  0  0
 74 82  1  0  0  0
 75 84  1  0  0  0
 76 85  1  0  0  0
 77 80  1  0  0  0
 77 81  1  0  0  0
 77 83  2  0  0  0
 78147  1  0  0  0
 78148  1  0  0  0
 78149  1  0  0  0
 78 80  1  0  0  0
 79 80  1  0  0  0
 79150  1  0  0  0
 79151  1  0  0  0
 80152  1  0  0  0
 81153  1  0  0  0
 82154  1  0  0  0
M  ISO  4   1 100  68 101  79 101  82 100
M  END
> <chiral flag>
0

> <version>
0

> <s_m_source_file>
/data/baiqing/PycharmProjects/Reinvent-master-3.2/result/LINK_invent/BTK/process_docking_weight1_custom_product_contain_oxygen_bond_distance_aromatic_linkinvent_7_9_3/rearranged_h_0181.sdf

> <i_m_source_file_index>
19

> <r_mmod_Potential_Energy-OPLS-2005>
116.611083984375

> <r_mmod_Stretch_Energy-OPLS-2005>
128.337539672852

> <r_mmod_Bend_Energy-OPLS-2005>
159.1962890625

> <r_mmod_Torsional_Energy-OPLS-2005>
284.577117919922

> <r_mmod_Improper_Torsional_Energy-OPLS-2005>
11.748743057251

> <r_mmod_Van_der_Waal_Energy-OPLS-2005>
145.067108154297

> <r_mmod_Electrostatic_Energy-OPLS-2005>
-463.871337890625

> <r_mmod_Solvation_Energy-OPLS-2005>
-236.029922485352

> <b_mmod_Minimization_Converged-OPLS-2005>
0

> <r_mmod_RMS_Derivative-OPLS-2005>
3.45263314247131

$$$$
19
                    3D
 Structure written by MMmdl.
150158  0  0  1  0            999 V2000
  -30.7120  -14.5115   20.5280 C   0  0  0  0  0  0
  -30.4134  -12.3204   19.4403 C   0  0  0  0  0  0
  -29.4951  -12.4934   18.2142 C   0  0  0  0  0  0
  -28.0169  -12.3554   18.6259 C   0  0  0  0  0  0
  -27.6549  -13.2169   19.8665 C   0  0  2  0  0  0
  -28.6980  -13.0542   20.9954 C   0  0  0  0  0  0
  -25.2559  -13.8185   20.5686 C   0  0  0  0  0  0
  -24.1823  -13.0449   20.9185 C   0  0  0  0  0  0
  -24.6392  -11.6918   20.8739 C   0  0  0  0  0  0
  -23.9064  -10.4299   21.0403 C   0  0  0  0  0  0
  -24.3616   -9.4213   21.9180 C   0  0  0  0  0  0
  -23.6292   -8.2247   22.0751 C   0  0  0  0  0  0
  -22.4273   -8.0285   21.3546 C   0  0  0  0  0  0
  -21.9910   -9.0258   20.4645 C   0  0  0  0  0  0
  -22.7238  -10.2137   20.3052 C   0  0  0  0  0  0
  -21.6856   -6.0735   22.5280 C   0  0  0  0  0  0
  -21.4017   -6.5636   23.8214 C   0  0  0  0  0  0
  -21.3657   -5.6788   24.9175 C   0  0  0  0  0  0
  -21.6041   -4.3052   24.7225 C   0  0  0  0  0  0
  -21.8819   -3.8145   23.4347 C   0  0  0  0  0  0
  -21.9195   -4.6963   22.3403 C   0  0  0  0  0  0
  -22.7845  -13.5240   21.1844 C   0  0  0  0  0  0
  -22.1663   -4.2150   21.0980 F   0  0  0  0  0  0
  -21.5626   -3.4535   25.7737 F   0  0  0  0  0  0
  -30.0228  -13.3410   20.4281 N   0  0  0  0  0  0
  -26.2996  -12.9372   20.3343 N   0  0  0  0  0  0
  -25.9321  -11.6524   20.5766 N   0  0  0  0  0  0
  -22.0486  -12.8232   22.0401 N   0  0  0  0  0  0
  -25.4270  -15.1902   20.4091 N   0  0  0  0  0  0
  -31.8700  -14.6245   20.1197 O   0  0  0  0  0  0
  -21.6640   -6.8880   21.4241 O   0  0  0  0  0  0
  -22.3530  -14.5546   20.6695 O   0  0  0  0  0  0
  -24.6179  -31.8664   23.2090 C   0  0  0  0  0  0
  -25.9060  -32.4814   23.8394 C   0  0  1  0  0  0
  -27.2247  -27.4063   20.1040 C   0  0  0  0  0  0
  -25.5907  -33.8612   24.2323 N   0  0  0  0  0  0
  -23.4075  -30.4910   21.5497 C   0  0  2  0  0  0
  -24.8548  -28.9592   20.1099 C   0  0  0  0  0  0
  -22.7431  -29.4652   22.4971 C   0  0  0  0  0  0
  -18.0278  -28.1378   22.8491 C   0  0  0  0  0  0
  -24.1485  -36.7306   23.2636 C   0  0  0  0  0  0
  -25.9404  -30.8243   21.3674 C   0  0  0  0  0  0
  -26.0184  -29.4586   20.7110 C   0  0  0  0  0  0
  -27.2102  -28.6898   20.7052 C   0  0  0  0  0  0
  -26.0475  -26.9375   19.4817 C   0  0  0  0  0  0
  -24.8656  -27.6992   19.4895 C   0  0  0  0  0  0
  -23.6175  -29.8276   20.1631 C   0  0  0  0  0  0
  -25.4106  -36.3102   24.0336 C   0  0  1  0  0  0
  -20.5873  -28.3669   23.1306 C   0  0  2  0  0  0
  -20.6769  -26.9401   22.5414 C   0  0  0  0  0  0
  -19.5747  -26.6387   21.5210 C   0  0  0  0  0  0
  -18.1925  -26.7927   22.1620 C   0  0  0  0  0  0
  -19.1529  -28.8840   23.2896 C   0  0  0  0  0  0
  -18.9455  -30.1447   23.8906 C   0  0  0  0  0  0
  -17.6455  -30.6584   24.0565 C   0  0  0  0  0  0
  -25.9036  -34.9468   23.5125 C   0  0  0  0  0  0
  -16.5346  -29.9085   23.6329 C   0  0  0  0  0  0
  -16.7267  -28.6501   23.0350 C   0  0  0  0  0  0
  -26.4477  -31.6598   25.0730 C   0  0  0  0  0  0
  -25.3739  -31.3716   26.1479 C   0  0  0  0  0  0
  -27.0304  -30.3035   24.6121 C   0  0  0  0  0  0
  -27.6053  -32.4320   25.7489 C   0  0  0  0  0  0
  -27.5581  -37.1804   24.8461 C   0  0  0  0  0  0
  -21.4155  -29.3032   22.3707 N   0  0  0  0  0  0
  -26.4289  -37.3789   23.9410 N   0  0  0  0  0  0
  -24.6735  -31.0749   22.1000 N   0  0  0  0  0  0
  -23.4190  -28.8191   23.3022 O   0  0  0  0  0  0
  -28.3348  -26.5808   20.1402 O   0  0  0  0  0  0
  -26.5599  -34.8920   22.4687 O   0  0  0  0  0  0
  -23.5363  -32.1424   23.7468 O   0  0  0  0  0  0
  -27.8220  -19.8377   21.3789 C   0  0  0  0  0  0
  -28.9290  -20.4292   20.8174 C   0  0  0  0  0  0
  -29.9629  -19.4741   20.5525 C   0  0  0  0  0  0
  -29.6755  -18.1742   20.9231 C   0  0  0  0  0  0
  -28.1050  -25.3150   20.6636 C   0  0  0  0  0  0
  -28.7512  -24.1750   20.3095 C   0  0  0  0  0  0
  -28.3556  -22.8894   20.9220 C   0  0  0  0  0  0
  -30.6063  -16.9757   20.8454 C   0  0  0  0  0  0
  -29.0719  -21.8252   20.4889 N   0  0  0  0  0  0
  -30.0248  -15.6119   20.9128 N   0  0  0  0  0  0
  -27.4540  -22.7786   21.7576 O   0  0  0  0  0  0
  -29.7330  -24.2149   19.3950 O   0  0  0  0  0  0
  -31.1061  -19.8341   20.0149 F   0  0  0  0  0  0
  -28.0605  -18.1108   21.5980 S   0  0  0  0  0  0
  -31.4602  -12.3990   19.1416 H   0  0  0  0  0  0
  -30.3015  -11.3226   19.8675 H   0  0  0  0  0  0
  -29.7407  -11.7539   17.4509 H   0  0  0  0  0  0
  -29.6628  -13.4713   17.7597 H   0  0  0  0  0  0
  -27.8331  -11.3019   18.8407 H   0  0  0  0  0  0
  -27.3672  -12.6112   17.7881 H   0  0  0  0  0  0
  -27.6836  -14.2565   19.5394 H   0  0  0  0  0  0
  -28.6787  -12.0386   21.3931 H   0  0  0  0  0  0
  -28.4660  -13.7093   21.8366 H   0  0  0  0  0  0
  -25.2762   -9.5691   22.4753 H   0  0  0  0  0  0
  -24.0007   -7.4638   22.7467 H   0  0  0  0  0  0
  -21.0844   -8.8774   19.8947 H   0  0  0  0  0  0
  -22.3696  -10.9674   19.6160 H   0  0  0  0  0  0
  -21.2008   -7.6143   23.9721 H   0  0  0  0  0  0
  -21.1475   -6.0514   25.9080 H   0  0  0  0  0  0
  -22.0596   -2.7608   23.2847 H   0  0  0  0  0  0
  -22.4099  -11.9892   22.4787 H   0  0  0  0  0  0
  -21.1103  -13.1258   22.2602 H   0  0  0  0  0  0
  -24.6602  -15.8452   20.5171 H   0  0  0  0  0  0
  -26.2778  -15.6297   20.0817 H   0  0  0  0  0  0
  -26.7133  -32.5516   23.1157 H   0  0  0  0  0  0
  -25.0074  -33.9773   25.0480 H   0  0  0  0  0  0
  -22.6970  -31.3087   21.4112 H   0  0  0  0  0  0
  -23.3746  -35.9640   23.3306 H   0  0  0  0  0  0
  -24.3581  -36.8913   22.2049 H   0  0  0  0  0  0
  -23.7240  -37.6512   23.6648 H   0  0  0  0  0  0
  -26.0593  -31.5919   20.6013 H   0  0  0  0  0  0
  -26.8254  -30.8745   21.9901 H   0  0  0  0  0  0
  -28.1051  -29.0624   21.1838 H   0  0  0  0  0  0
  -26.0384  -25.9666   19.0065 H   0  0  0  0  0  0
  -23.9725  -27.3098   19.0202 H   0  0  0  0  0  0
  -23.7260  -30.6044   19.4052 H   0  0  0  0  0  0
  -22.7407  -29.2493   19.8663 H   0  0  0  0  0  0
  -25.1281  -36.1964   25.0828 H   0  0  0  0  0  0
  -20.9966  -28.3237   24.1425 H   0  0  0  0  0  0
  -20.5670  -26.2273   23.3603 H   0  0  0  0  0  0
  -21.6640  -26.7442   22.1206 H   0  0  0  0  0  0
  -19.6907  -25.6300   21.1232 H   0  0  0  0  0  0
  -19.6687  -27.3205   20.6746 H   0  0  0  0  0  0
  -17.4196  -26.6681   21.4020 H   0  0  0  0  0  0
  -18.0321  -26.0064   22.9010 H   0  0  0  0  0  0
  -19.7930  -30.7264   24.2276 H   0  0  0  0  0  0
  -17.5010  -31.6265   24.5166 H   0  0  0  0  0  0
  -15.5347  -30.2987   23.7650 H   0  0  0  0  0  0
  -15.8667  -28.0823   22.7061 H   0  0  0  0  0  0
  -24.5900  -30.7077   25.7822 H   0  0  0  0  0  0
  -24.8947  -32.2877   26.4940 H   0  0  0  0  0  0
  -25.8089  -30.8875   27.0232 H   0  0  0  0  0  0
  -26.2852  -29.6804   24.1163 H   0  0  0  0  0  0
  -27.4055  -29.7267   25.4586 H   0  0  0  0  0  0
  -27.8699  -30.4347   23.9288 H   0  0  0  0  0  0
  -27.2673  -33.3613   26.2086 H   0  0  0  0  0  0
  -28.3848  -32.6891   25.0306 H   0  0  0  0  0  0
  -28.0736  -31.8433   26.5388 H   0  0  0  0  0  0
  -28.2594  -38.0105   24.7517 H   0  0  0  0  0  0
  -28.1079  -36.2637   24.6269 H   0  0  0  0  0  0
  -27.2303  -37.1438   25.8864 H   0  0  0  0  0  0
  -20.9315  -29.8752   21.6929 H   0  0  0  0  0  0
  -26.0176  -38.2863   24.1420 H   0  0  0  0  0  0
  -26.8861  -20.2915   21.6799 H   0  0  0  0  0  0
  -27.3151  -25.3230   21.4061 H   0  0  0  0  0  0
  -31.3420  -17.0583   21.6466 H   0  0  0  0  0  0
  -31.1783  -17.0672   19.9194 H   0  0  0  0  0  0
  -29.8319  -22.0639   19.8648 H   0  0  0  0  0  0
  -29.0657  -15.5046   21.2045 H   0  0  0  0  0  0
  -29.8208  -25.1218   19.1293 H   0  0  0  0  0  0
  1 25  1  0  0  0
  1 30  2  0  0  0
  1 80  1  0  0  0
  2  3  1  0  0  0
  2 25  1  0  0  0
  2 85  1  0  0  0
  2 86  1  0  0  0
  3  4  1  0  0  0
  3 87  1  0  0  0
  3 88  1  0  0  0
  4  5  1  0  0  0
  4 89  1  0  0  0
  4 90  1  0  0  0
  5  6  1  0  0  0
  5 26  1  0  0  0
  5 91  1  0  0  0
  6 25  1  0  0  0
  6 92  1  0  0  0
  6 93  1  0  0  0
  7  8  2  0  0  0
  7 26  1  0  0  0
  7 29  1  0  0  0
  8  9  1  0  0  0
  8 22  1  0  0  0
  9 10  1  0  0  0
  9 27  2  0  0  0
 10 11  2  0  0  0
 10 15  1  0  0  0
 11 12  1  0  0  0
 11 94  1  0  0  0
 12 13  2  0  0  0
 12 95  1  0  0  0
 13 14  1  0  0  0
 13 31  1  0  0  0
 14 15  2  0  0  0
 14 96  1  0  0  0
 15 97  1  0  0  0
 16 17  2  0  0  0
 16 21  1  0  0  0
 16 31  1  0  0  0
 17 18  1  0  0  0
 17 98  1  0  0  0
 18 19  2  0  0  0
 18 99  1  0  0  0
 19 20  1  0  0  0
 19 24  1  0  0  0
 20 21  2  0  0  0
 20100  1  0  0  0
 21 23  1  0  0  0
 22 28  1  0  0  0
 22 32  2  0  0  0
 26 27  1  0  0  0
 28101  1  0  0  0
 28102  1  0  0  0
 29103  1  0  0  0
 29104  1  0  0  0
 33 34  1  0  0  0
 33 66  1  0  0  0
 33 70  2  0  0  0
 34 36  1  0  0  0
 34 59  1  0  0  0
 34105  1  0  0  0
 35 44  2  0  0  0
 35 45  1  0  0  0
 35 68  1  0  0  0
 36 56  1  0  0  0
 36106  1  0  0  0
 37 39  1  0  0  0
 37 47  1  0  0  0
 37 66  1  0  0  0
 37107  1  0  0  0
 38 43  2  0  0  0
 38 46  1  0  0  0
 38 47  1  0  0  0
 39 64  1  0  0  0
 39 67  2  0  0  0
 40 52  1  0  0  0
 40 53  2  0  0  0
 40 58  1  0  0  0
 41108  1  0  0  0
 41109  1  0  0  0
 41110  1  0  0  0
 41 48  1  0  0  0
 42 43  1  0  0  0
 42 66  1  0  0  0
 42111  1  0  0  0
 42112  1  0  0  0
 43 44  1  0  0  0
 44113  1  0  0  0
 45 46  2  0  0  0
 45114  1  0  0  0
 46115  1  0  0  0
 47116  1  0  0  0
 47117  1  0  0  0
 48 56  1  0  0  0
 48 65  1  0  0  0
 48118  1  0  0  0
 49 50  1  0  0  0
 49 53  1  0  0  0
 49 64  1  0  0  0
 49119  1  0  0  0
 50 51  1  0  0  0
 50120  1  0  0  0
 50121  1  0  0  0
 51 52  1  0  0  0
 51122  1  0  0  0
 51123  1  0  0  0
 52124  1  0  0  0
 52125  1  0  0  0
 53 54  1  0  0  0
 54 55  2  0  0  0
 54126  1  0  0  0
 55 57  1  0  0  0
 55127  1  0  0  0
 56 69  2  0  0  0
 57 58  2  0  0  0
 57128  1  0  0  0
 58129  1  0  0  0
 59 60  1  0  0  0
 59 61  1  0  0  0
 59 62  1  0  0  0
 60130  1  0  0  0
 60131  1  0  0  0
 60132  1  0  0  0
 61133  1  0  0  0
 61134  1  0  0  0
 61135  1  0  0  0
 62136  1  0  0  0
 62137  1  0  0  0
 62138  1  0  0  0
 63 65  1  0  0  0
 63139  1  0  0  0
 63140  1  0  0  0
 63141  1  0  0  0
 64142  1  0  0  0
 65143  1  0  0  0
 68 75  1  0  0  0
 71 72  2  0  0  0
 71 84  1  0  0  0
 71144  1  0  0  0
 72 73  1  0  0  0
 72 79  1  0  0  0
 73 74  2  0  0  0
 73 83  1  0  0  0
 74 78  1  0  0  0
 74 84  1  0  0  0
 75 76  2  0  0  0
 75145  1  0  0  0
 76 77  1  0  0  0
 76 82  1  0  0  0
 77 79  1  0  0  0
 77 81  2  0  0  0
 78 80  1  0  0  0
 78146  1  0  0  0
 78147  1  0  0  0
 79148  1  0  0  0
 80149  1  0  0  0
 82150  1  0  0  0
M  ISO  4   1 100  68 101  75 101  80 100
M  END
> <chiral flag>
0

> <version>
0

> <s_m_source_file>
/data/baiqing/PycharmProjects/Reinvent-master-3.2/result/LINK_invent/BTK/process_docking_weight1_custom_product_contain_oxygen_bond_distance_aromatic_linkinvent_7_9_3/rearranged_h_0181.sdf

> <i_m_source_file_index>
20

> <r_mmod_Potential_Energy-OPLS-2005>
-167.554794311523

> <r_mmod_Stretch_Energy-OPLS-2005>
41.976318359375

> <r_mmod_Bend_Energy-OPLS-2005>
107.542045593262

> <r_mmod_Torsional_Energy-OPLS-2005>
201.649185180664

> <r_mmod_Improper_Torsional_Energy-OPLS-2005>
4.32170677185059

> <r_mmod_Van_der_Waal_Energy-OPLS-2005>
137.602890014648

> <r_mmod_Electrostatic_Energy-OPLS-2005>
-471.041534423828

> <r_mmod_Solvation_Energy-OPLS-2005>
-212.531555175781

> <b_mmod_Minimization_Converged-OPLS-2005>
0

> <r_mmod_RMS_Derivative-OPLS-2005>
0.434938102960587

$$$$
20
                    3D
 Structure written by MMmdl.
152160  0  0  1  0            999 V2000
  -30.6391  -14.7026   20.5251 C   0  0  0  0  0  0
  -30.4296  -12.4509   19.4581 C   0  0  0  0  0  0
  -29.5020  -12.5423   18.2248 C   0  0  0  0  0  0
  -28.0273  -12.3699   18.6344 C   0  0  0  0  0  0
  -27.6496  -13.2352   19.8675 C   0  0  2  0  0  0
  -28.6958  -13.1127   20.9968 C   0  0  0  0  0  0
  -25.2533  -13.8203   20.5718 C   0  0  0  0  0  0
  -24.1810  -13.0452   20.9181 C   0  0  0  0  0  0
  -24.6407  -11.6926   20.8739 C   0  0  0  0  0  0
  -23.9080  -10.4312   21.0412 C   0  0  0  0  0  0
  -24.3618   -9.4222   21.9191 C   0  0  0  0  0  0
  -23.6289   -8.2251   22.0761 C   0  0  0  0  0  0
  -22.4274   -8.0289   21.3554 C   0  0  0  0  0  0
  -21.9916   -9.0264   20.4659 C   0  0  0  0  0  0
  -22.7244  -10.2144   20.3070 C   0  0  0  0  0  0
  -21.6855   -6.0739   22.5279 C   0  0  0  0  0  0
  -21.4014   -6.5638   23.8212 C   0  0  0  0  0  0
  -21.3674   -5.6791   24.9178 C   0  0  0  0  0  0
  -21.6057   -4.3056   24.7225 C   0  0  0  0  0  0
  -21.8811   -3.8146   23.4344 C   0  0  0  0  0  0
  -21.9178   -4.6964   22.3402 C   0  0  0  0  0  0
  -22.7832  -13.5219   21.1841 C   0  0  0  0  0  0
  -22.1652   -4.2164   21.0975 F   0  0  0  0  0  0
  -21.5641   -3.4534   25.7727 F   0  0  0  0  0  0
  -29.9974  -13.4848   20.4308 N   0  0  0  0  0  0
  -26.2979  -12.9428   20.3357 N   0  0  0  0  0  0
  -25.9347  -11.6561   20.5767 N   0  0  0  0  0  0
  -22.0459  -12.8243   22.0413 N   0  0  0  0  0  0
  -25.4250  -15.1932   20.4156 N   0  0  0  0  0  0
  -31.7742  -14.8224   20.0512 O   0  0  0  0  0  0
  -21.6639   -6.8885   21.4245 O   0  0  0  0  0  0
  -22.3517  -14.5519   20.6677 O   0  0  0  0  0  0
  -24.6316  -31.8562   23.1981 C   0  0  0  0  0  0
  -25.9145  -32.4749   23.8337 C   0  0  1  0  0  0
  -27.2247  -27.2737   20.1153 C   0  0  0  0  0  0
  -25.5957  -33.8557   24.2272 N   0  0  0  0  0  0
  -23.4282  -30.4783   21.5389 C   0  0  2  0  0  0
  -24.8734  -28.9238   20.1059 C   0  0  0  0  0  0
  -22.7506  -29.4601   22.4881 C   0  0  0  0  0  0
  -18.0298  -28.1390   22.8482 C   0  0  0  0  0  0
  -24.1499  -36.7291   23.2639 C   0  0  0  0  0  0
  -25.9731  -30.7668   21.3815 C   0  0  0  0  0  0
  -26.0409  -29.3920   20.7191 C   0  0  0  0  0  0
  -27.2133  -28.5769   20.7156 C   0  0  0  0  0  0
  -26.0302  -26.8601   19.4847 C   0  0  0  0  0  0
  -24.8729  -27.6670   19.4787 C   0  0  0  0  0  0
  -23.6484  -29.8166   20.1524 C   0  0  0  0  0  0
  -25.4122  -36.3075   24.0331 C   0  0  1  0  0  0
  -20.5904  -28.3714   23.1257 C   0  0  2  0  0  0
  -20.6790  -26.9430   22.5404 C   0  0  0  0  0  0
  -19.5759  -26.6383   21.5219 C   0  0  0  0  0  0
  -18.1938  -26.7932   22.1623 C   0  0  0  0  0  0
  -19.1552  -28.8862   23.2868 C   0  0  0  0  0  0
  -18.9468  -30.1460   23.8898 C   0  0  0  0  0  0
  -17.6467  -30.6583   24.0566 C   0  0  0  0  0  0
  -25.9061  -34.9439   23.5101 C   0  0  0  0  0  0
  -16.5361  -29.9087   23.6321 C   0  0  0  0  0  0
  -16.7285  -28.6502   23.0343 C   0  0  0  0  0  0
  -26.4513  -31.6569   25.0729 C   0  0  0  0  0  0
  -25.3731  -31.3737   26.1451 C   0  0  0  0  0  0
  -27.0369  -30.2976   24.6239 C   0  0  0  0  0  0
  -27.6061  -32.4318   25.7504 C   0  0  0  0  0  0
  -27.5590  -37.1807   24.8460 C   0  0  0  0  0  0
  -21.4216  -29.3061   22.3643 N   0  0  0  0  0  0
  -26.4299  -37.3769   23.9405 N   0  0  0  0  0  0
  -24.6955  -31.0530   22.0953 N   0  0  0  0  0  0
  -23.4213  -28.8133   23.2971 O   0  0  0  0  0  0
  -28.3584  -26.4399   20.1984 O   0  0  0  0  0  0
  -26.5613  -34.8906   22.4661 O   0  0  0  0  0  0
  -23.5460  -32.1397   23.7268 O   0  0  0  0  0  0
  -29.3182  -18.5263   20.6038 C   0  0  0  0  0  0
  -28.2767  -18.7935   21.4691 C   0  0  0  0  0  0
  -28.9951  -20.9136   20.3706 C   0  0  0  0  0  0
  -29.1481  -22.3896   19.8513 C   0  0  0  0  0  0
  -29.8981  -16.0033   22.4154 C   0  0  0  0  0  0
  -30.0120  -17.1582   20.1853 C   0  0  0  0  0  0
  -28.4877  -25.0656   19.6084 C   0  0  0  0  0  0
  -28.4811  -23.7060   20.5000 C   0  0  2  0  0  0
  -29.6880  -19.7800   19.9922 N   0  0  0  0  0  0
  -29.9440  -15.8315   20.9565 N   0  0  0  0  0  0
  -29.9058  -22.5569   18.8880 O   0  0  0  0  0  0
  -29.1969  -24.0315   21.6899 O   0  0  0  0  0  0
  -27.6234  -17.8535   22.1925 F   0  0  0  0  0  0
  -27.7802  -20.4828   21.5736 S   0  0  0  0  0  0
  -31.4684  -12.5787   19.1498 H   0  0  0  0  0  0
  -30.3782  -11.4590   19.9091 H   0  0  0  0  0  0
  -29.7786  -11.7965   17.4772 H   0  0  0  0  0  0
  -29.6315  -13.5138   17.7433 H   0  0  0  0  0  0
  -27.8614  -11.3150   18.8512 H   0  0  0  0  0  0
  -27.3767  -12.6174   17.7954 H   0  0  0  0  0  0
  -27.6640  -14.2726   19.5305 H   0  0  0  0  0  0
  -28.7305  -12.0910   21.3788 H   0  0  0  0  0  0
  -28.4295  -13.7437   21.8437 H   0  0  0  0  0  0
  -25.2760   -9.5684   22.4771 H   0  0  0  0  0  0
  -24.0006   -7.4634   22.7468 H   0  0  0  0  0  0
  -21.0850   -8.8759   19.8957 H   0  0  0  0  0  0
  -22.3691  -10.9668   19.6178 H   0  0  0  0  0  0
  -21.2014   -7.6152   23.9714 H   0  0  0  0  0  0
  -21.1519   -6.0535   25.9086 H   0  0  0  0  0  0
  -22.0582   -2.7610   23.2826 H   0  0  0  0  0  0
  -22.4030  -11.9892   22.4825 H   0  0  0  0  0  0
  -21.1081  -13.1304   22.2586 H   0  0  0  0  0  0
  -24.6745  -15.8541   20.5799 H   0  0  0  0  0  0
  -26.2964  -15.6389   20.1594 H   0  0  0  0  0  0
  -26.7214  -32.5384   23.1075 H   0  0  0  0  0  0
  -25.0162  -33.9702   25.0456 H   0  0  0  0  0  0
  -22.7253  -31.3018   21.3948 H   0  0  0  0  0  0
  -23.3758  -35.9626   23.3292 H   0  0  0  0  0  0
  -24.3600  -36.8918   22.2056 H   0  0  0  0  0  0
  -23.7254  -37.6492   23.6664 H   0  0  0  0  0  0
  -26.1248  -31.5296   20.6176 H   0  0  0  0  0  0
  -26.8460  -30.8044   22.0211 H   0  0  0  0  0  0
  -28.1081  -28.9267   21.2101 H   0  0  0  0  0  0
  -25.9495  -25.8944   19.0107 H   0  0  0  0  0  0
  -23.9768  -27.3065   18.9917 H   0  0  0  0  0  0
  -23.7879  -30.6001   19.4065 H   0  0  0  0  0  0
  -22.7634  -29.2637   19.8340 H   0  0  0  0  0  0
  -25.1302  -36.1936   25.0824 H   0  0  0  0  0  0
  -21.0003  -28.3301   24.1374 H   0  0  0  0  0  0
  -20.5706  -26.2333   23.3619 H   0  0  0  0  0  0
  -21.6655  -26.7460   22.1191 H   0  0  0  0  0  0
  -19.6927  -25.6292   21.1255 H   0  0  0  0  0  0
  -19.6683  -27.3188   20.6744 H   0  0  0  0  0  0
  -17.4218  -26.6694   21.4015 H   0  0  0  0  0  0
  -18.0317  -26.0073   22.9011 H   0  0  0  0  0  0
  -19.7943  -30.7273   24.2274 H   0  0  0  0  0  0
  -17.5018  -31.6256   24.5182 H   0  0  0  0  0  0
  -15.5361  -30.2988   23.7628 H   0  0  0  0  0  0
  -15.8690  -28.0818   22.7053 H   0  0  0  0  0  0
  -24.5886  -30.7112   25.7779 H   0  0  0  0  0  0
  -24.8949  -32.2918   26.4875 H   0  0  0  0  0  0
  -25.8033  -30.8906   27.0234 H   0  0  0  0  0  0
  -26.2963  -29.6702   24.1266 H   0  0  0  0  0  0
  -27.4043  -29.7261   25.4774 H   0  0  0  0  0  0
  -27.8845  -30.4240   23.9501 H   0  0  0  0  0  0
  -27.2660  -33.3610   26.2089 H   0  0  0  0  0  0
  -28.3863  -32.6896   25.0332 H   0  0  0  0  0  0
  -28.0748  -31.8454   26.5418 H   0  0  0  0  0  0
  -28.2592  -38.0115   24.7508 H   0  0  0  0  0  0
  -28.1099  -36.2647   24.6280 H   0  0  0  0  0  0
  -27.2312  -37.1449   25.8861 H   0  0  0  0  0  0
  -20.9405  -29.8823   21.6879 H   0  0  0  0  0  0
  -26.0183  -38.2850   24.1373 H   0  0  0  0  0  0
  -30.5193  -15.2785   22.9483 H   0  0  0  0  0  0
  -28.8813  -15.8804   22.7870 H   0  0  0  0  0  0
  -30.2564  -16.9870   22.7209 H   0  0  0  0  0  0
  -31.0714  -17.3622   20.0320 H   0  0  0  0  0  0
  -29.6502  -16.9202   19.1844 H   0  0  0  0  0  0
  -27.7982  -24.9358   18.7768 H   0  0  0  0  0  0
  -29.4550  -25.1100   19.1067 H   0  0  0  0  0  0
  -27.4514  -23.4642   20.7639 H   0  0  0  0  0  0
  -30.0600  -24.3319   21.4237 H   0  0  0  0  0  0
  1 25  1  0  0  0
  1 30  2  0  0  0
  1 80  1  0  0  0
  2  3  1  0  0  0
  2 25  1  0  0  0
  2 85  1  0  0  0
  2 86  1  0  0  0
  3  4  1  0  0  0
  3 87  1  0  0  0
  3 88  1  0  0  0
  4  5  1  0  0  0
  4 89  1  0  0  0
  4 90  1  0  0  0
  5  6  1  0  0  0
  5 26  1  0  0  0
  5 91  1  0  0  0
  6 25  1  0  0  0
  6 92  1  0  0  0
  6 93  1  0  0  0
  7  8  2  0  0  0
  7 26  1  0  0  0
  7 29  1  0  0  0
  8  9  1  0  0  0
  8 22  1  0  0  0
  9 10  1  0  0  0
  9 27  2  0  0  0
 10 11  2  0  0  0
 10 15  1  0  0  0
 11 12  1  0  0  0
 11 94  1  0  0  0
 12 13  2  0  0  0
 12 95  1  0  0  0
 13 14  1  0  0  0
 13 31  1  0  0  0
 14 15  2  0  0  0
 14 96  1  0  0  0
 15 97  1  0  0  0
 16 17  2  0  0  0
 16 21  1  0  0  0
 16 31  1  0  0  0
 17 18  1  0  0  0
 17 98  1  0  0  0
 18 19  2  0  0  0
 18 99  1  0  0  0
 19 20  1  0  0  0
 19 24  1  0  0  0
 20 21  2  0  0  0
 20100  1  0  0  0
 21 23  1  0  0  0
 22 28  1  0  0  0
 22 32  2  0  0  0
 26 27  1  0  0  0
 28101  1  0  0  0
 28102  1  0  0  0
 29103  1  0  0  0
 29104  1  0  0  0
 33 34  1  0  0  0
 33 66  1  0  0  0
 33 70  2  0  0  0
 34 36  1  0  0  0
 34 59  1  0  0  0
 34105  1  0  0  0
 35 44  2  0  0  0
 35 45  1  0  0  0
 35 68  1  0  0  0
 36 56  1  0  0  0
 36106  1  0  0  0
 37 39  1  0  0  0
 37 47  1  0  0  0
 37 66  1  0  0  0
 37107  1  0  0  0
 38 43  2  0  0  0
 38 46  1  0  0  0
 38 47  1  0  0  0
 39 64  1  0  0  0
 39 67  2  0  0  0
 40 52  1  0  0  0
 40 53  2  0  0  0
 40 58  1  0  0  0
 41108  1  0  0  0
 41109  1  0  0  0
 41110  1  0  0  0
 41 48  1  0  0  0
 42 43  1  0  0  0
 42 66  1  0  0  0
 42111  1  0  0  0
 42112  1  0  0  0
 43 44  1  0  0  0
 44113  1  0  0  0
 45 46  2  0  0  0
 45114  1  0  0  0
 46115  1  0  0  0
 47116  1  0  0  0
 47117  1  0  0  0
 48 56  1  0  0  0
 48 65  1  0  0  0
 48118  1  0  0  0
 49 50  1  0  0  0
 49 53  1  0  0  0
 49 64  1  0  0  0
 49119  1  0  0  0
 50 51  1  0  0  0
 50120  1  0  0  0
 50121  1  0  0  0
 51 52  1  0  0  0
 51122  1  0  0  0
 51123  1  0  0  0
 52124  1  0  0  0
 52125  1  0  0  0
 53 54  1  0  0  0
 54 55  2  0  0  0
 54126  1  0  0  0
 55 57  1  0  0  0
 55127  1  0  0  0
 56 69  2  0  0  0
 57 58  2  0  0  0
 57128  1  0  0  0
 58129  1  0  0  0
 59 60  1  0  0  0
 59 61  1  0  0  0
 59 62  1  0  0  0
 60130  1  0  0  0
 60131  1  0  0  0
 60132  1  0  0  0
 61133  1  0  0  0
 61134  1  0  0  0
 61135  1  0  0  0
 62136  1  0  0  0
 62137  1  0  0  0
 62138  1  0  0  0
 63 65  1  0  0  0
 63139  1  0  0  0
 63140  1  0  0  0
 63141  1  0  0  0
 64142  1  0  0  0
 65143  1  0  0  0
 68 77  1  0  0  0
 71 72  2  0  0  0
 71 76  1  0  0  0
 71 79  1  0  0  0
 72 83  1  0  0  0
 72 84  1  0  0  0
 73 74  1  0  0  0
 73 79  2  0  0  0
 73 84  1  0  0  0
 74 78  1  0  0  0
 74 81  2  0  0  0
 75 80  1  0  0  0
 75144  1  0  0  0
 75145  1  0  0  0
 75146  1  0  0  0
 76 80  1  0  0  0
 76147  1  0  0  0
 76148  1  0  0  0
 77 78  1  0  0  0
 77149  1  0  0  0
 77150  1  0  0  0
 78 82  1  0  0  0
 78151  1  0  0  0
 82152  1  0  0  0
M  ISO  4   1 100  68 101  77 101  80 100
M  END
> <chiral flag>
0

> <version>
0

> <s_m_source_file>
/data/baiqing/PycharmProjects/Reinvent-master-3.2/result/LINK_invent/BTK/process_docking_weight1_custom_product_contain_oxygen_bond_distance_aromatic_linkinvent_7_9_3/rearranged_h_0181.sdf

> <i_m_source_file_index>
21

> <r_mmod_Potential_Energy-OPLS-2005>
344.243316650391

> <r_mmod_Stretch_Energy-OPLS-2005>
125.469215393066

> <r_mmod_Bend_Energy-OPLS-2005>
191.387084960938

> <r_mmod_Torsional_Energy-OPLS-2005>
284.336486816406

> <r_mmod_Improper_Torsional_Energy-OPLS-2005>
7.87698984146118

> <r_mmod_Van_der_Waal_Energy-OPLS-2005>
117.871635437012

> <r_mmod_Electrostatic_Energy-OPLS-2005>
-218.205200195312

> <r_mmod_Solvation_Energy-OPLS-2005>
-231.371810913086

> <b_mmod_Minimization_Converged-OPLS-2005>
0

> <r_mmod_RMS_Derivative-OPLS-2005>
2.47033905982971

$$$$
21
                    3D
 Structure written by MMmdl.
153161  0  0  1  0            999 V2000
  -30.6130  -14.7641   20.4476 C   0  0  0  0  0  0
  -30.4313  -12.4636   19.4855 C   0  0  0  0  0  0
  -29.5143  -12.5107   18.2434 C   0  0  0  0  0  0
  -28.0408  -12.3314   18.6544 C   0  0  0  0  0  0
  -27.6414  -13.2358   19.8508 C   0  0  2  0  0  0
  -28.6838  -13.1833   20.9897 C   0  0  0  0  0  0
  -25.2503  -13.8205   20.5691 C   0  0  0  0  0  0
  -24.1802  -13.0440   20.9202 C   0  0  0  0  0  0
  -24.6400  -11.6920   20.8748 C   0  0  0  0  0  0
  -23.9081  -10.4290   21.0407 C   0  0  0  0  0  0
  -24.3630   -9.4206   21.9184 C   0  0  0  0  0  0
  -23.6299   -8.2247   22.0756 C   0  0  0  0  0  0
  -22.4282   -8.0285   21.3547 C   0  0  0  0  0  0
  -21.9921   -9.0258   20.4652 C   0  0  0  0  0  0
  -22.7254  -10.2132   20.3058 C   0  0  0  0  0  0
  -21.6856   -6.0738   22.5281 C   0  0  0  0  0  0
  -21.4016   -6.5641   23.8212 C   0  0  0  0  0  0
  -21.3662   -5.6795   24.9176 C   0  0  0  0  0  0
  -21.6046   -4.3058   24.7229 C   0  0  0  0  0  0
  -21.8819   -3.8150   23.4350 C   0  0  0  0  0  0
  -21.9192   -4.6966   22.3406 C   0  0  0  0  0  0
  -22.7820  -13.5215   21.1857 C   0  0  0  0  0  0
  -22.1657   -4.2154   21.0983 F   0  0  0  0  0  0
  -21.5630   -3.4540   25.7739 F   0  0  0  0  0  0
  -29.9869  -13.5343   20.4112 N   0  0  0  0  0  0
  -26.2935  -12.9419   20.3275 N   0  0  0  0  0  0
  -25.9333  -11.6555   20.5754 N   0  0  0  0  0  0
  -22.0473  -12.8209   22.0421 N   0  0  0  0  0  0
  -25.4187  -15.1933   20.4105 N   0  0  0  0  0  0
  -31.7998  -14.8342   20.1160 O   0  0  0  0  0  0
  -21.6645   -6.8884   21.4243 O   0  0  0  0  0  0
  -22.3501  -14.5516   20.6697 O   0  0  0  0  0  0
  -24.6340  -31.8547   23.1991 C   0  0  0  0  0  0
  -25.9158  -32.4756   23.8339 C   0  0  1  0  0  0
  -27.2138  -27.2459   20.1253 C   0  0  0  0  0  0
  -25.5945  -33.8556   24.2256 N   0  0  0  0  0  0
  -23.4307  -30.4796   21.5436 C   0  0  2  0  0  0
  -24.8774  -28.9303   20.1080 C   0  0  0  0  0  0
  -22.7512  -29.4608   22.4914 C   0  0  0  0  0  0
  -18.0294  -28.1389   22.8481 C   0  0  0  0  0  0
  -24.1489  -36.7283   23.2639 C   0  0  0  0  0  0
  -25.9795  -30.7630   21.3823 C   0  0  0  0  0  0
  -26.0511  -29.3852   20.7223 C   0  0  0  0  0  0
  -27.2215  -28.5549   20.7230 C   0  0  0  0  0  0
  -26.0172  -26.8749   19.4661 C   0  0  0  0  0  0
  -24.8672  -27.6846   19.4681 C   0  0  0  0  0  0
  -23.6492  -29.8182   20.1583 C   0  0  0  0  0  0
  -25.4117  -36.3073   24.0322 C   0  0  1  0  0  0
  -20.5900  -28.3705   23.1264 C   0  0  2  0  0  0
  -20.6787  -26.9423   22.5406 C   0  0  0  0  0  0
  -19.5762  -26.6383   21.5212 C   0  0  0  0  0  0
  -18.1940  -26.7931   22.1620 C   0  0  0  0  0  0
  -19.1548  -28.8863   23.2868 C   0  0  0  0  0  0
  -18.9466  -30.1459   23.8893 C   0  0  0  0  0  0
  -17.6466  -30.6591   24.0560 C   0  0  0  0  0  0
  -25.9060  -34.9440   23.5094 C   0  0  0  0  0  0
  -16.5357  -29.9086   23.6331 C   0  0  0  0  0  0
  -16.7279  -28.6500   23.0360 C   0  0  0  0  0  0
  -26.4512  -31.6587   25.0736 C   0  0  0  0  0  0
  -25.3723  -31.3732   26.1447 C   0  0  0  0  0  0
  -27.0358  -30.3004   24.6229 C   0  0  0  0  0  0
  -27.6070  -32.4320   25.7512 C   0  0  0  0  0  0
  -27.5579  -37.1800   24.8464 C   0  0  0  0  0  0
  -21.4216  -29.3056   22.3655 N   0  0  0  0  0  0
  -26.4290  -37.3773   23.9409 N   0  0  0  0  0  0
  -24.7009  -31.0501   22.0977 N   0  0  0  0  0  0
  -23.4204  -28.8143   23.3015 O   0  0  0  0  0  0
  -28.2845  -26.3153   20.2019 O   0  0  0  0  0  0
  -26.5631  -34.8916   22.4663 O   0  0  0  0  0  0
  -23.5487  -32.1375   23.7275 O   0  0  0  0  0  0
  -31.0374  -19.5366   19.5255 C   0  0  0  0  0  0
  -29.9405  -19.7325   20.3382 C   0  0  0  0  0  0
  -30.1461  -17.3340   20.3687 C   0  0  0  0  0  0
  -28.9603  -23.6815   20.3766 C   0  0  0  0  0  0
  -31.8914  -20.5755   18.8688 C   0  0  0  0  0  0
  -27.9694  -24.8635   19.9155 C   0  0  0  0  0  0
  -28.6012  -22.0985   20.1257 C   0  0  1  0  0  0
  -28.3714  -21.8353   18.6136 C   0  0  0  0  0  0
  -29.4362  -18.4463   20.7855 N   0  0  0  0  0  0
  -29.5165  -21.0656   20.7775 N   0  0  0  0  0  0
  -29.8597  -15.9096   20.6985 N   0  0  0  0  0  0
  -30.0152  -23.9859   20.9451 O   0  0  0  0  0  0
  -27.3649  -22.5822   18.1627 F   0  0  0  0  0  0
  -28.0492  -20.5618   18.3851 F   0  0  0  0  0  0
  -29.4611  -22.1401   17.9106 F   0  0  0  0  0  0
  -31.4548  -17.8404   19.3033 S   0  0  0  0  0  0
  -31.4737  -12.5799   19.1835 H   0  0  0  0  0  0
  -30.3720  -11.4900   19.9744 H   0  0  0  0  0  0
  -29.8011  -11.7354   17.5318 H   0  0  0  0  0  0
  -29.6405  -13.4637   17.7274 H   0  0  0  0  0  0
  -27.9021  -11.2832   18.9223 H   0  0  0  0  0  0
  -27.3845  -12.5165   17.8036 H   0  0  0  0  0  0
  -27.6314  -14.2553   19.4637 H   0  0  0  0  0  0
  -28.7196  -12.1901   21.4395 H   0  0  0  0  0  0
  -28.4129  -13.8719   21.7916 H   0  0  0  0  0  0
  -25.2777   -9.5677   22.4756 H   0  0  0  0  0  0
  -24.0010   -7.4639   22.7475 H   0  0  0  0  0  0
  -21.0854   -8.8779   19.8955 H   0  0  0  0  0  0
  -22.3718  -10.9671   19.6168 H   0  0  0  0  0  0
  -21.2008   -7.6148   23.9717 H   0  0  0  0  0  0
  -21.1482   -6.0526   25.9077 H   0  0  0  0  0  0
  -22.0597   -2.7612   23.2849 H   0  0  0  0  0  0
  -22.4093  -11.9877   22.4821 H   0  0  0  0  0  0
  -21.1088  -13.1230   22.2620 H   0  0  0  0  0  0
  -24.6485  -15.8451   20.5168 H   0  0  0  0  0  0
  -26.2634  -15.6357   20.0714 H   0  0  0  0  0  0
  -26.7228  -32.5401   23.1084 H   0  0  0  0  0  0
  -25.0102  -33.9686   25.0410 H   0  0  0  0  0  0
  -22.7289  -31.3038   21.3994 H   0  0  0  0  0  0
  -23.3757  -35.9611   23.3293 H   0  0  0  0  0  0
  -24.3589  -36.8914   22.2058 H   0  0  0  0  0  0
  -23.7227  -37.6474   23.6671 H   0  0  0  0  0  0
  -26.1205  -31.5235   20.6129 H   0  0  0  0  0  0
  -26.8562  -30.8123   22.0164 H   0  0  0  0  0  0
  -28.1153  -28.8937   21.2286 H   0  0  0  0  0  0
  -25.9265  -25.9311   18.9502 H   0  0  0  0  0  0
  -23.9716  -27.3354   18.9730 H   0  0  0  0  0  0
  -23.7744  -30.5963   19.4045 H   0  0  0  0  0  0
  -22.7664  -29.2541   19.8514 H   0  0  0  0  0  0
  -25.1300  -36.1923   25.0814 H   0  0  0  0  0  0
  -20.9985  -28.3288   24.1387 H   0  0  0  0  0  0
  -20.5694  -26.2316   23.3612 H   0  0  0  0  0  0
  -21.6656  -26.7458   22.1197 H   0  0  0  0  0  0
  -19.6930  -25.6290   21.1252 H   0  0  0  0  0  0
  -19.6701  -27.3184   20.6734 H   0  0  0  0  0  0
  -17.4212  -26.6674   21.4021 H   0  0  0  0  0  0
  -18.0347  -26.0072   22.9014 H   0  0  0  0  0  0
  -19.7941  -30.7270   24.2271 H   0  0  0  0  0  0
  -17.5021  -31.6272   24.5157 H   0  0  0  0  0  0
  -15.5356  -30.2991   23.7651 H   0  0  0  0  0  0
  -15.8677  -28.0807   22.7100 H   0  0  0  0  0  0
  -24.5920  -30.7060   25.7771 H   0  0  0  0  0  0
  -24.8889  -32.2892   26.4851 H   0  0  0  0  0  0
  -25.8035  -30.8927   27.0238 H   0  0  0  0  0  0
  -26.2943  -29.6753   24.1240 H   0  0  0  0  0  0
  -27.4023  -29.7273   25.4755 H   0  0  0  0  0  0
  -27.8832  -30.4283   23.9489 H   0  0  0  0  0  0
  -27.2694  -33.3635   26.2069 H   0  0  0  0  0  0
  -28.3897  -32.6847   25.0347 H   0  0  0  0  0  0
  -28.0719  -31.8448   26.5441 H   0  0  0  0  0  0
  -28.2593  -38.0102   24.7525 H   0  0  0  0  0  0
  -28.1074  -36.2632   24.6273 H   0  0  0  0  0  0
  -27.2299  -37.1431   25.8867 H   0  0  0  0  0  0
  -20.9412  -29.8769   21.6843 H   0  0  0  0  0  0
  -26.0166  -38.2846   24.1416 H   0  0  0  0  0  0
  -31.7730  -21.5550   19.3325 H   0  0  0  0  0  0
  -31.6374  -20.6710   17.8131 H   0  0  0  0  0  0
  -32.9464  -20.3097   18.9333 H   0  0  0  0  0  0
  -27.0057  -24.6235   20.3648 H   0  0  0  0  0  0
  -27.8444  -24.7803   18.8366 H   0  0  0  0  0  0
  -27.6353  -21.9325   20.6023 H   0  0  0  0  0  0
  -30.3377  -21.5977   21.0483 H   0  0  0  0  0  0
  -28.9392  -15.7361   21.0686 H   0  0  0  0  0  0
  1 25  1  0  0  0
  1 30  2  0  0  0
  1 81  1  0  0  0
  2  3  1  0  0  0
  2 25  1  0  0  0
  2 87  1  0  0  0
  2 88  1  0  0  0
  3  4  1  0  0  0
  3 89  1  0  0  0
  3 90  1  0  0  0
  4  5  1  0  0  0
  4 91  1  0  0  0
  4 92  1  0  0  0
  5  6  1  0  0  0
  5 26  1  0  0  0
  5 93  1  0  0  0
  6 25  1  0  0  0
  6 94  1  0  0  0
  6 95  1  0  0  0
  7  8  2  0  0  0
  7 26  1  0  0  0
  7 29  1  0  0  0
  8  9  1  0  0  0
  8 22  1  0  0  0
  9 10  1  0  0  0
  9 27  2  0  0  0
 10 11  2  0  0  0
 10 15  1  0  0  0
 11 12  1  0  0  0
 11 96  1  0  0  0
 12 13  2  0  0  0
 12 97  1  0  0  0
 13 14  1  0  0  0
 13 31  1  0  0  0
 14 15  2  0  0  0
 14 98  1  0  0  0
 15 99  1  0  0  0
 16 17  2  0  0  0
 16 21  1  0  0  0
 16 31  1  0  0  0
 17 18  1  0  0  0
 17100  1  0  0  0
 18 19  2  0  0  0
 18101  1  0  0  0
 19 20  1  0  0  0
 19 24  1  0  0  0
 20 21  2  0  0  0
 20102  1  0  0  0
 21 23  1  0  0  0
 22 28  1  0  0  0
 22 32  2  0  0  0
 26 27  1  0  0  0
 28103  1  0  0  0
 28104  1  0  0  0
 29105  1  0  0  0
 29106  1  0  0  0
 33 34  1  0  0  0
 33 66  1  0  0  0
 33 70  2  0  0  0
 34 36  1  0  0  0
 34 59  1  0  0  0
 34107  1  0  0  0
 35 44  2  0  0  0
 35 45  1  0  0  0
 35 68  1  0  0  0
 36 56  1  0  0  0
 36108  1  0  0  0
 37 39  1  0  0  0
 37 47  1  0  0  0
 37 66  1  0  0  0
 37109  1  0  0  0
 38 43  2  0  0  0
 38 46  1  0  0  0
 38 47  1  0  0  0
 39 64  1  0  0  0
 39 67  2  0  0  0
 40 52  1  0  0  0
 40 53  2  0  0  0
 40 58  1  0  0  0
 41110  1  0  0  0
 41111  1  0  0  0
 41112  1  0  0  0
 41 48  1  0  0  0
 42 43  1  0  0  0
 42 66  1  0  0  0
 42113  1  0  0  0
 42114  1  0  0  0
 43 44  1  0  0  0
 44115  1  0  0  0
 45 46  2  0  0  0
 45116  1  0  0  0
 46117  1  0  0  0
 47118  1  0  0  0
 47119  1  0  0  0
 48 56  1  0  0  0
 48 65  1  0  0  0
 48120  1  0  0  0
 49 50  1  0  0  0
 49 53  1  0  0  0
 49 64  1  0  0  0
 49121  1  0  0  0
 50 51  1  0  0  0
 50122  1  0  0  0
 50123  1  0  0  0
 51 52  1  0  0  0
 51124  1  0  0  0
 51125  1  0  0  0
 52126  1  0  0  0
 52127  1  0  0  0
 53 54  1  0  0  0
 54 55  2  0  0  0
 54128  1  0  0  0
 55 57  1  0  0  0
 55129  1  0  0  0
 56 69  2  0  0  0
 57 58  2  0  0  0
 57130  1  0  0  0
 58131  1  0  0  0
 59 60  1  0  0  0
 59 61  1  0  0  0
 59 62  1  0  0  0
 60132  1  0  0  0
 60133  1  0  0  0
 60134  1  0  0  0
 61135  1  0  0  0
 61136  1  0  0  0
 61137  1  0  0  0
 62138  1  0  0  0
 62139  1  0  0  0
 62140  1  0  0  0
 63 65  1  0  0  0
 63141  1  0  0  0
 63142  1  0  0  0
 63143  1  0  0  0
 64144  1  0  0  0
 65145  1  0  0  0
 68 76  1  0  0  0
 71 72  2  0  0  0
 71 75  1  0  0  0
 71 86  1  0  0  0
 72 79  1  0  0  0
 72 80  1  0  0  0
 73 79  2  0  0  0
 73 81  1  0  0  0
 73 86  1  0  0  0
 74 76  1  0  0  0
 74 77  1  0  0  0
 74 82  2  0  0  0
 75146  1  0  0  0
 75147  1  0  0  0
 75148  1  0  0  0
 76149  1  0  0  0
 76150  1  0  0  0
 77 78  1  0  0  0
 77 80  1  0  0  0
 77151  1  0  0  0
 78 83  1  0  0  0
 78 84  1  0  0  0
 78 85  1  0  0  0
 80152  1  0  0  0
 81153  1  0  0  0
M  ISO  4   1 100  68 101  76 101  81 100
M  END
> <chiral flag>
0

> <version>
0

> <s_m_source_file>
/data/baiqing/PycharmProjects/Reinvent-master-3.2/result/LINK_invent/BTK/process_docking_weight1_custom_product_contain_oxygen_bond_distance_aromatic_linkinvent_7_9_3/rearranged_h_0181.sdf

> <i_m_source_file_index>
22

> <r_mmod_Potential_Energy-OPLS-2005>
46.086540222168

> <r_mmod_Stretch_Energy-OPLS-2005>
132.915603637695

> <r_mmod_Bend_Energy-OPLS-2005>
173.418762207031

> <r_mmod_Torsional_Energy-OPLS-2005>
222.341049194336

> <r_mmod_Improper_Torsional_Energy-OPLS-2005>
9.38147068023682

> <r_mmod_Van_der_Waal_Energy-OPLS-2005>
125.030288696289

> <r_mmod_Electrostatic_Energy-OPLS-2005>
-485.141754150391

> <r_mmod_Solvation_Energy-OPLS-2005>
-228.626770019531

> <b_mmod_Minimization_Converged-OPLS-2005>
0

> <r_mmod_RMS_Derivative-OPLS-2005>
0.879017412662506

$$$$
22
                    3D
 Structure written by MMmdl.
161169  0  0  1  0            999 V2000
  -30.5130  -14.2330   20.9244 C   0  0  0  0  0  0
  -30.6628  -12.3627   19.2069 C   0  0  0  0  0  0
  -29.6927  -12.5643   17.9903 C   0  0  0  0  0  0
  -28.1929  -12.4778   18.3242 C   0  0  0  0  0  0
  -28.0086  -13.2672   19.5945 C   0  0  2  0  0  0
  -28.8755  -12.4847   20.6290 C   0  0  0  0  0  0
  -25.1182  -14.3279   19.9246 C   0  0  0  0  0  0
  -23.9367  -13.4996   20.9727 C   0  0  0  0  0  0
  -24.6497  -11.9530   21.6392 C   0  0  0  0  0  0
  -23.9092  -10.5946   21.5072 C   0  0  0  0  0  0
  -24.3782   -9.4462   22.1764 C   0  0  0  0  0  0
  -23.6735   -8.2178   22.1431 C   0  0  0  0  0  0
  -22.4854   -8.0667   21.3944 C   0  0  0  0  0  0
  -22.1007   -9.1365   20.5692 C   0  0  0  0  0  0
  -22.8049  -10.3661   20.6140 C   0  0  0  0  0  0
  -21.6980   -6.0839   22.5047 C   0  0  0  0  0  0
  -21.4094   -6.5682   23.8012 C   0  0  0  0  0  0
  -21.3707   -5.6836   24.8982 C   0  0  0  0  0  0
  -21.6044   -4.3089   24.7088 C   0  0  0  0  0  0
  -21.8714   -3.8200   23.4191 C   0  0  0  0  0  0
  -21.9228   -4.7019   22.3245 C   0  0  0  0  0  0
  -22.5281  -13.7948   21.1721 C   0  0  0  0  0  0
  -22.1712   -4.2151   21.0856 F   0  0  0  0  0  0
  -21.5669   -3.4585   25.7633 F   0  0  0  0  0  0
  -30.1464  -13.0430   20.3992 N   0  0  0  0  0  0
  -26.7193  -13.2428   19.9925 N   0  0  0  0  0  0
  -26.3096  -11.8069   21.1165 N   0  0  0  0  0  0
  -21.8609  -12.9996   22.0027 N   0  0  0  0  0  0
  -25.2092  -15.5847   19.4181 N   0  0  0  0  0  0
  -31.5362  -14.7935   20.4767 O   0  0  0  0  0  0
  -21.7246   -6.9118   21.4014 O   0  0  0  0  0  0
  -22.0341  -14.7532   20.6081 O   0  0  0  0  0  0
  -24.6605  -31.8285   23.1763 C   0  0  0  0  0  0
  -25.9308  -32.4617   23.8190 C   0  0  1  0  0  0
  -27.0227  -26.8700   20.3054 C   0  0  0  0  0  0
  -25.5995  -33.8435   24.2093 N   0  0  0  0  0  0
  -23.4696  -30.4522   21.5290 C   0  0  2  0  0  0
  -24.8935  -28.8537   20.1014 C   0  0  0  0  0  0
  -22.7676  -29.4479   22.4816 C   0  0  0  0  0  0
  -18.0325  -28.1416   22.8473 C   0  0  0  0  0  0
  -24.1496  -36.7233   23.2644 C   0  0  0  0  0  0
  -26.0392  -30.6226   21.4147 C   0  0  0  0  0  0
  -26.0702  -29.2122   20.7698 C   0  0  0  0  0  0
  -27.1502  -28.2332   20.8515 C   0  0  0  0  0  0
  -25.8833  -26.6987   19.5041 C   0  0  0  0  0  0
  -24.8350  -27.6312   19.4263 C   0  0  0  0  0  0
  -23.6982  -29.7904   20.1435 C   0  0  0  0  0  0
  -25.4143  -36.3011   24.0288 C   0  0  1  0  0  0
  -20.5964  -28.3759   23.1206 C   0  0  2  0  0  0
  -20.6813  -26.9443   22.5396 C   0  0  0  0  0  0
  -19.5777  -26.6375   21.5227 C   0  0  0  0  0  0
  -18.1971  -26.7941   22.1631 C   0  0  0  0  0  0
  -19.1590  -28.8913   23.2825 C   0  0  0  0  0  0
  -18.9493  -30.1518   23.8840 C   0  0  0  0  0  0
  -17.6480  -30.6606   24.0564 C   0  0  0  0  0  0
  -25.9099  -34.9377   23.5006 C   0  0  0  0  0  0
  -16.5376  -29.9089   23.6367 C   0  0  0  0  0  0
  -16.7304  -28.6519   23.0372 C   0  0  0  0  0  0
  -26.4518  -31.6602   25.0749 C   0  0  0  0  0  0
  -25.3610  -31.3894   26.1395 C   0  0  0  0  0  0
  -27.0380  -30.2958   24.6506 C   0  0  0  0  0  0
  -27.6032  -32.4391   25.7551 C   0  0  0  0  0  0
  -27.5583  -37.1787   24.8455 C   0  0  0  0  0  0
  -21.4361  -29.3034   22.3556 N   0  0  0  0  0  0
  -26.4295  -37.3737   23.9386 N   0  0  0  0  0  0
  -24.7469  -30.9966   22.0915 N   0  0  0  0  0  0
  -23.4254  -28.8045   23.3032 O   0  0  0  0  0  0
  -27.7925  -25.6368   20.5581 O   0  0  0  0  0  0
  -26.5705  -34.8895   22.4599 O   0  0  0  0  0  0
  -23.5683  -32.1238   23.6894 O   0  0  0  0  0  0
  -27.8337  -16.2003   21.9696 C   0  0  0  0  0  0
  -26.4857  -16.5226   22.0585 C   0  0  0  0  0  0
  -28.2348  -14.8679   22.1288 C   0  0  0  0  0  0
  -25.9410  -13.8897   21.9347 C   0  0  0  0  0  0
  -27.5558  -22.5791   21.1285 C   0  0  0  0  0  0
  -25.5552  -18.5204   23.4149 C   0  0  0  0  0  0
  -26.1508  -20.8875   19.6568 C   0  0  0  0  0  0
  -27.0653  -24.1505   20.5292 C   0  0  0  0  0  0
  -26.1072  -18.2164   22.0131 C   0  0  1  0  0  0
  -26.6065  -21.0392   21.1142 C   0  0  1  0  0  0
  -25.6231  -15.3302   22.1884 N   0  0  0  0  0  0
  -27.2581  -13.8955   22.4336 N   0  0  0  0  0  0
  -24.9002  -12.1951   19.4399 N   0  0  0  0  0  0
  -29.7085  -14.7237   21.9571 N   0  0  0  0  0  0
  -27.0622  -19.5138   21.6012 N   0  3  0  0  0  0
  -28.7061  -22.5306   21.5792 O   0  0  0  0  0  0
  -31.6569  -12.7262   18.9507 H   0  0  0  0  0  0
  -30.7850  -11.2939   19.4036 H   0  0  0  0  0  0
  -29.9292  -11.8497   17.2016 H   0  0  0  0  0  0
  -29.8672  -13.5478   17.5490 H   0  0  0  0  0  0
  -27.8673  -11.4382   18.4258 H   0  0  0  0  0  0
  -27.5906  -12.8986   17.5191 H   0  0  0  0  0  0
  -28.2573  -14.3235   19.4464 H   0  0  0  0  0  0
  -28.8593  -11.4165   20.3949 H   0  0  0  0  0  0
  -28.7061  -12.3823   21.6879 H   0  0  0  0  0  0
  -25.2653   -9.5235   22.7914 H   0  0  0  0  0  0
  -24.0532   -7.3946   22.7281 H   0  0  0  0  0  0
  -21.2429   -9.0276   19.9252 H   0  0  0  0  0  0
  -22.4586  -11.1721   19.9874 H   0  0  0  0  0  0
  -21.2113   -7.6204   23.9418 H   0  0  0  0  0  0
  -21.1682   -6.0680   25.8851 H   0  0  0  0  0  0
  -22.0426   -2.7658   23.2707 H   0  0  0  0  0  0
  -22.2925  -12.2203   22.4755 H   0  0  0  0  0  0
  -20.8789  -13.1748   22.1691 H   0  0  0  0  0  0
  -24.3861  -16.1600   19.2943 H   0  0  0  0  0  0
  -25.9578  -15.8072   18.7720 H   0  0  0  0  0  0
  -26.7381  -32.5108   23.0897 H   0  0  0  0  0  0
  -25.0098  -33.9515   25.0222 H   0  0  0  0  0  0
  -22.7814  -31.2865   21.3731 H   0  0  0  0  0  0
  -23.3777  -35.9546   23.3276 H   0  0  0  0  0  0
  -24.3576  -36.8905   22.2068 H   0  0  0  0  0  0
  -23.7213  -37.6397   23.6706 H   0  0  0  0  0  0
  -26.2258  -31.3467   20.6213 H   0  0  0  0  0  0
  -26.9036  -30.6719   22.0657 H   0  0  0  0  0  0
  -28.0200  -28.4647   21.4509 H   0  0  0  0  0  0
  -25.7201  -25.7575   19.0030 H   0  0  0  0  0  0
  -23.9441  -27.3668   18.8723 H   0  0  0  0  0  0
  -23.8718  -30.5606   19.3911 H   0  0  0  0  0  0
  -22.8027  -29.2553   19.8234 H   0  0  0  0  0  0
  -25.1341  -36.1826   25.0776 H   0  0  0  0  0  0
  -21.0029  -28.3353   24.1350 H   0  0  0  0  0  0
  -20.5757  -26.2370   23.3648 H   0  0  0  0  0  0
  -21.6680  -26.7467   22.1182 H   0  0  0  0  0  0
  -19.6931  -25.6278   21.1319 H   0  0  0  0  0  0
  -19.6707  -27.3157   20.6751 H   0  0  0  0  0  0
  -17.4242  -26.6725   21.4036 H   0  0  0  0  0  0
  -18.0330  -26.0105   22.9044 H   0  0  0  0  0  0
  -19.7966  -30.7366   24.2181 H   0  0  0  0  0  0
  -17.5020  -31.6275   24.5167 H   0  0  0  0  0  0
  -15.5377  -30.2946   23.7708 H   0  0  0  0  0  0
  -15.8728  -28.0800   22.7095 H   0  0  0  0  0  0
  -24.5803  -30.7223   25.7703 H   0  0  0  0  0  0
  -24.8774  -32.3118   26.4642 H   0  0  0  0  0  0
  -25.7788  -30.9183   27.0306 H   0  0  0  0  0  0
  -26.3014  -29.6667   24.1489 H   0  0  0  0  0  0
  -27.3851  -29.7311   25.5172 H   0  0  0  0  0  0
  -27.9008  -30.4127   23.9937 H   0  0  0  0  0  0
  -27.2629  -33.3754   26.1994 H   0  0  0  0  0  0
  -28.3922  -32.6854   25.0428 H   0  0  0  0  0  0
  -28.0610  -31.8605   26.5591 H   0  0  0  0  0  0
  -28.2590  -38.0106   24.7540 H   0  0  0  0  0  0
  -28.1098  -36.2630   24.6254 H   0  0  0  0  0  0
  -27.2298  -37.1398   25.8861 H   0  0  0  0  0  0
  -20.9625  -29.8708   21.6674 H   0  0  0  0  0  0
  -26.0159  -38.2800   24.1392 H   0  0  0  0  0  0
  -28.5557  -16.9884   21.8211 H   0  0  0  0  0  0
  -25.1870  -19.5450   23.4784 H   0  0  0  0  0  0
  -26.3274  -18.3836   24.1776 H   0  0  0  0  0  0
  -24.7327  -17.8438   23.6512 H   0  0  0  0  0  0
  -25.7433  -21.8215   19.2743 H   0  0  0  0  0  0
  -25.3850  -20.1199   19.5525 H   0  0  0  0  0  0
  -26.9977  -20.6256   19.0209 H   0  0  0  0  0  0
  -26.0515  -24.2960   20.8978 H   0  0  0  0  0  0
  -26.9498  -23.9619   19.4636 H   0  0  0  0  0  0
  -25.2684  -18.2732   21.3200 H   0  0  0  0  0  0
  -25.7312  -21.2663   21.7234 H   0  0  0  0  0  0
  -25.5503  -11.5097   19.0795 H   0  0  0  0  0  0
  -24.2862  -12.6341   18.7639 H   0  0  0  0  0  0
  -30.1995  -15.4896   22.3876 H   0  0  0  0  0  0
  -27.6743  -19.1770   20.8717 H   0  0  0  0  0  0
  -27.6614  -19.6391   22.3970 H   0  0  0  0  0  0
  1 25  1  0  0  0
  1 30  2  0  0  0
  1 84  1  0  0  0
  2  3  1  0  0  0
  2 25  1  0  0  0
  2 87  1  0  0  0
  2 88  1  0  0  0
  3  4  1  0  0  0
  3 89  1  0  0  0
  3 90  1  0  0  0
  4  5  1  0  0  0
  4 91  1  0  0  0
  4 92  1  0  0  0
  5  6  1  0  0  0
  5 26  1  0  0  0
  5 93  1  0  0  0
  6 25  1  0  0  0
  6 94  1  0  0  0
  6 95  1  0  0  0
  7  8  2  0  0  0
  7 26  1  0  0  0
  7 29  1  0  0  0
  8  9  1  0  0  0
  8 22  1  0  0  0
  9 10  1  0  0  0
  9 27  2  0  0  0
 10 11  2  0  0  0
 10 15  1  0  0  0
 11 12  1  0  0  0
 11 96  1  0  0  0
 12 13  2  0  0  0
 12 97  1  0  0  0
 13 14  1  0  0  0
 13 31  1  0  0  0
 14 15  2  0  0  0
 14 98  1  0  0  0
 15 99  1  0  0  0
 16 17  2  0  0  0
 16 21  1  0  0  0
 16 31  1  0  0  0
 17 18  1  0  0  0
 17100  1  0  0  0
 18 19  2  0  0  0
 18101  1  0  0  0
 19 20  1  0  0  0
 19 24  1  0  0  0
 20 21  2  0  0  0
 20102  1  0  0  0
 21 23  1  0  0  0
 22 28  1  0  0  0
 22 32  2  0  0  0
 26 27  1  0  0  0
 28103  1  0  0  0
 28104  1  0  0  0
 29105  1  0  0  0
 29106  1  0  0  0
 33 34  1  0  0  0
 33 66  1  0  0  0
 33 70  2  0  0  0
 34 36  1  0  0  0
 34 59  1  0  0  0
 34107  1  0  0  0
 35 44  2  0  0  0
 35 45  1  0  0  0
 35 68  1  0  0  0
 36 56  1  0  0  0
 36108  1  0  0  0
 37 39  1  0  0  0
 37 47  1  0  0  0
 37 66  1  0  0  0
 37109  1  0  0  0
 38 43  2  0  0  0
 38 46  1  0  0  0
 38 47  1  0  0  0
 39 64  1  0  0  0
 39 67  2  0  0  0
 40 52  1  0  0  0
 40 53  2  0  0  0
 40 58  1  0  0  0
 41110  1  0  0  0
 41111  1  0  0  0
 41112  1  0  0  0
 41 48  1  0  0  0
 42 43  1  0  0  0
 42 66  1  0  0  0
 42113  1  0  0  0
 42114  1  0  0  0
 43 44  1  0  0  0
 44115  1  0  0  0
 45 46  2  0  0  0
 45116  1  0  0  0
 46117  1  0  0  0
 47118  1  0  0  0
 47119  1  0  0  0
 48 56  1  0  0  0
 48 65  1  0  0  0
 48120  1  0  0  0
 49 50  1  0  0  0
 49 53  1  0  0  0
 49 64  1  0  0  0
 49121  1  0  0  0
 50 51  1  0  0  0
 50122  1  0  0  0
 50123  1  0  0  0
 51 52  1  0  0  0
 51124  1  0  0  0
 51125  1  0  0  0
 52126  1  0  0  0
 52127  1  0  0  0
 53 54  1  0  0  0
 54 55  2  0  0  0
 54128  1  0  0  0
 55 57  1  0  0  0
 55129  1  0  0  0
 56 69  2  0  0  0
 57 58  2  0  0  0
 57130  1  0  0  0
 58131  1  0  0  0
 59 60  1  0  0  0
 59 61  1  0  0  0
 59 62  1  0  0  0
 60132  1  0  0  0
 60133  1  0  0  0
 60134  1  0  0  0
 61135  1  0  0  0
 61136  1  0  0  0
 61137  1  0  0  0
 62138  1  0  0  0
 62139  1  0  0  0
 62140  1  0  0  0
 63 65  1  0  0  0
 63141  1  0  0  0
 63142  1  0  0  0
 63143  1  0  0  0
 64144  1  0  0  0
 65145  1  0  0  0
 68 78  1  0  0  0
 71 72  2  0  0  0
 71 73  1  0  0  0
 71146  1  0  0  0
 72 79  1  0  0  0
 72 81  1  0  0  0
 73 82  2  0  0  0
 73 84  1  0  0  0
 74 81  2  0  0  0
 74 82  1  0  0  0
 74 83  1  0  0  0
 75 78  1  0  0  0
 75 80  1  0  0  0
 75 86  2  0  0  0
 76147  1  0  0  0
 76148  1  0  0  0
 76149  1  0  0  0
 76 79  1  0  0  0
 77150  1  0  0  0
 77151  1  0  0  0
 77152  1  0  0  0
 77 80  1  0  0  0
 78153  1  0  0  0
 78154  1  0  0  0
 79 85  1  0  0  0
 79155  1  0  0  0
 80 85  1  0  0  0
 80156  1  0  0  0
 83157  1  0  0  0
 83158  1  0  0  0
 84159  1  0  0  0
 85160  1  0  0  0
 85161  1  0  0  0
M  CHG  1  85   1
M  ISO  4   1 100  68 101  78 101  84 100
M  END
> <chiral flag>
0

> <version>
0

> <s_m_source_file>
/data/baiqing/PycharmProjects/Reinvent-master-3.2/result/LINK_invent/BTK/process_docking_weight1_custom_product_contain_oxygen_bond_distance_aromatic_linkinvent_7_9_3/rearranged_h_0181.sdf

> <i_m_source_file_index>
23

> <r_mmod_Potential_Energy-OPLS-2005>
12104.166015625

> <r_mmod_Stretch_Energy-OPLS-2005>
8370.3671875

> <r_mmod_Bend_Energy-OPLS-2005>
619.241638183594

> <r_mmod_Torsional_Energy-OPLS-2005>
442.284912109375

> <r_mmod_Improper_Torsional_Energy-OPLS-2005>
48.3260192871094

> <r_mmod_Van_der_Waal_Energy-OPLS-2005>
3170.095703125

> <r_mmod_Electrostatic_Energy-OPLS-2005>
-902.364807128906

> <r_mmod_Solvation_Energy-OPLS-2005>
-547.946044921875

> <b_mmod_Minimization_Converged-OPLS-2005>
0

> <r_mmod_RMS_Derivative-OPLS-2005>
12.1700668334961

$$$$
23
                    3D
 Structure written by MMmdl.
162170  0  0  1  0            999 V2000
  -30.7058  -14.5335   20.5447 C   0  0  0  0  0  0
  -30.4148  -12.3376   19.4468 C   0  0  0  0  0  0
  -29.4945  -12.4968   18.2194 C   0  0  0  0  0  0
  -28.0176  -12.3540   18.6312 C   0  0  0  0  0  0
  -27.6539  -13.2184   19.8686 C   0  0  2  0  0  0
  -28.6961  -13.0615   20.9993 C   0  0  0  0  0  0
  -25.2552  -13.8190   20.5693 C   0  0  0  0  0  0
  -24.1819  -13.0447   20.9178 C   0  0  0  0  0  0
  -24.6392  -11.6918   20.8740 C   0  0  0  0  0  0
  -23.9064  -10.4297   21.0408 C   0  0  0  0  0  0
  -24.3621   -9.4209   21.9179 C   0  0  0  0  0  0
  -23.6294   -8.2245   22.0756 C   0  0  0  0  0  0
  -22.4275   -8.0282   21.3545 C   0  0  0  0  0  0
  -21.9915   -9.0255   20.4645 C   0  0  0  0  0  0
  -22.7243  -10.2131   20.3053 C   0  0  0  0  0  0
  -21.6854   -6.0733   22.5276 C   0  0  0  0  0  0
  -21.4017   -6.5639   23.8209 C   0  0  0  0  0  0
  -21.3658   -5.6792   24.9173 C   0  0  0  0  0  0
  -21.6046   -4.3057   24.7226 C   0  0  0  0  0  0
  -21.8818   -3.8145   23.4348 C   0  0  0  0  0  0
  -21.9194   -4.6959   22.3402 C   0  0  0  0  0  0
  -22.7842  -13.5230   21.1838 C   0  0  0  0  0  0
  -22.1660   -4.2149   21.0978 F   0  0  0  0  0  0
  -21.5629   -3.4538   25.7738 F   0  0  0  0  0  0
  -30.0197  -13.3591   20.4351 N   0  0  0  0  0  0
  -26.2993  -12.9381   20.3358 N   0  0  0  0  0  0
  -25.9324  -11.6528   20.5780 N   0  0  0  0  0  0
  -22.0495  -12.8213   22.0405 N   0  0  0  0  0  0
  -25.4256  -15.1912   20.4109 N   0  0  0  0  0  0
  -31.8533  -14.6565   20.1101 O   0  0  0  0  0  0
  -21.6639   -6.8877   21.4240 O   0  0  0  0  0  0
  -22.3518  -14.5536   20.6698 O   0  0  0  0  0  0
  -24.6191  -31.8669   23.2101 C   0  0  0  0  0  0
  -25.9076  -32.4819   23.8415 C   0  0  1  0  0  0
  -27.2154  -27.3716   20.1239 C   0  0  0  0  0  0
  -25.5935  -33.8616   24.2339 N   0  0  0  0  0  0
  -23.4118  -30.4906   21.5506 C   0  0  2  0  0  0
  -24.8598  -28.9559   20.1156 C   0  0  0  0  0  0
  -22.7453  -29.4651   22.4974 C   0  0  0  0  0  0
  -18.0280  -28.1382   22.8495 C   0  0  0  0  0  0
  -24.1491  -36.7304   23.2637 C   0  0  0  0  0  0
  -25.9470  -30.8080   21.3817 C   0  0  0  0  0  0
  -26.0210  -29.4349   20.7388 C   0  0  0  0  0  0
  -27.2017  -28.6436   20.7569 C   0  0  0  0  0  0
  -26.0584  -26.9596   19.4341 C   0  0  0  0  0  0
  -24.8751  -27.7162   19.4604 C   0  0  0  0  0  0
  -23.6255  -29.8290   20.1644 C   0  0  0  0  0  0
  -25.4115  -36.3106   24.0332 C   0  0  1  0  0  0
  -20.5878  -28.3686   23.1301 C   0  0  2  0  0  0
  -20.6775  -26.9419   22.5415 C   0  0  0  0  0  0
  -19.5751  -26.6384   21.5217 C   0  0  0  0  0  0
  -18.1925  -26.7929   22.1624 C   0  0  0  0  0  0
  -19.1530  -28.8849   23.2892 C   0  0  0  0  0  0
  -18.9459  -30.1453   23.8903 C   0  0  0  0  0  0
  -17.6462  -30.6590   24.0568 C   0  0  0  0  0  0
  -25.9048  -34.9470   23.5131 C   0  0  0  0  0  0
  -16.5354  -29.9090   23.6326 C   0  0  0  0  0  0
  -16.7271  -28.6507   23.0350 C   0  0  0  0  0  0
  -26.4483  -31.6601   25.0753 C   0  0  0  0  0  0
  -25.3727  -31.3712   26.1485 C   0  0  0  0  0  0
  -27.0333  -30.3042   24.6160 C   0  0  0  0  0  0
  -27.6062  -32.4327   25.7511 C   0  0  0  0  0  0
  -27.5582  -37.1803   24.8467 C   0  0  0  0  0  0
  -21.4175  -29.3043   22.3706 N   0  0  0  0  0  0
  -26.4301  -37.3790   23.9404 N   0  0  0  0  0  0
  -24.6770  -31.0718   22.1042 N   0  0  0  0  0  0
  -23.4193  -28.8197   23.3044 O   0  0  0  0  0  0
  -28.3164  -26.5283   20.0957 O   0  0  0  0  0  0
  -26.5604  -34.8922   22.4688 O   0  0  0  0  0  0
  -23.5367  -32.1465   23.7445 O   0  0  0  0  0  0
  -29.1111  -18.3926   22.6423 C   0  0  0  0  0  0
  -29.8043  -18.1948   21.4593 C   0  0  0  0  0  0
  -28.9346  -20.5324   21.8001 C   0  0  0  0  0  0
  -28.7895  -23.0179   21.2082 C   0  0  0  0  0  0
  -30.0573  -17.6356   24.8359 C   0  0  0  0  0  0
  -27.4665  -24.2537   23.0037 C   0  0  0  0  0  0
  -26.6210  -24.0966   20.6743 C   0  0  0  0  0  0
  -30.6225  -16.9917   20.9806 C   0  0  0  0  0  0
  -28.5838  -25.7171   21.2770 C   0  0  0  0  0  0
  -28.9361  -17.4474   23.8074 C   0  0  0  0  0  0
  -27.8987  -24.2859   21.5121 C   0  0  0  0  0  0
  -28.6199  -19.7047   22.7976 N   0  0  0  0  0  0
  -28.4678  -21.8837   21.8793 N   0  0  0  0  0  0
  -30.0338  -15.6257   20.9911 N   0  0  0  0  0  0
  -29.7072  -23.0728   20.3865 O   0  0  0  0  0  0
  -28.9349  -16.1685   23.4374 F   0  0  0  0  0  0
  -27.7798  -17.6651   24.4359 F   0  0  0  0  0  0
  -29.8479  -19.7083   20.5301 S   0  0  0  0  0  0
  -31.4605  -12.4229   19.1472 H   0  0  0  0  0  0
  -30.3108  -11.3405   19.8776 H   0  0  0  0  0  0
  -29.7431  -11.7522   17.4621 H   0  0  0  0  0  0
  -29.6557  -13.4718   17.7572 H   0  0  0  0  0  0
  -27.8383  -11.3006   18.8497 H   0  0  0  0  0  0
  -27.3660  -12.6035   17.7932 H   0  0  0  0  0  0
  -27.6806  -14.2570   19.5387 H   0  0  0  0  0  0
  -28.6824  -12.0454   21.3961 H   0  0  0  0  0  0
  -28.4575  -13.7138   21.8404 H   0  0  0  0  0  0
  -25.2770   -9.5680   22.4750 H   0  0  0  0  0  0
  -24.0002   -7.4638   22.7485 H   0  0  0  0  0  0
  -21.0845   -8.8771   19.8952 H   0  0  0  0  0  0
  -22.3704  -10.9668   19.6161 H   0  0  0  0  0  0
  -21.2009   -7.6148   23.9714 H   0  0  0  0  0  0
  -21.1482   -6.0522   25.9075 H   0  0  0  0  0  0
  -22.0601   -2.7609   23.2846 H   0  0  0  0  0  0
  -22.4127  -11.9864   22.4760 H   0  0  0  0  0  0
  -21.1118  -13.1232   22.2640 H   0  0  0  0  0  0
  -24.6600  -15.8462   20.5265 H   0  0  0  0  0  0
  -26.2795  -15.6334   20.0959 H   0  0  0  0  0  0
  -26.7147  -32.5523   23.1178 H   0  0  0  0  0  0
  -25.0101  -33.9784   25.0496 H   0  0  0  0  0  0
  -22.7028  -31.3094   21.4110 H   0  0  0  0  0  0
  -23.3753  -35.9635   23.3313 H   0  0  0  0  0  0
  -24.3583  -36.8912   22.2051 H   0  0  0  0  0  0
  -23.7242  -37.6507   23.6651 H   0  0  0  0  0  0
  -26.0693  -31.5656   20.6059 H   0  0  0  0  0  0
  -26.8312  -30.8643   22.0045 H   0  0  0  0  0  0
  -28.0909  -28.9989   21.2593 H   0  0  0  0  0  0
  -26.0574  -26.0353   18.8784 H   0  0  0  0  0  0
  -23.9929  -27.3532   18.9493 H   0  0  0  0  0  0
  -23.7423  -30.6075   19.4092 H   0  0  0  0  0  0
  -22.7476  -29.2541   19.8641 H   0  0  0  0  0  0
  -25.1285  -36.1977   25.0821 H   0  0  0  0  0  0
  -20.9960  -28.3261   24.1426 H   0  0  0  0  0  0
  -20.5706  -26.2297   23.3613 H   0  0  0  0  0  0
  -21.6642  -26.7474   22.1193 H   0  0  0  0  0  0
  -19.6926  -25.6292   21.1251 H   0  0  0  0  0  0
  -19.6685  -27.3204   20.6751 H   0  0  0  0  0  0
  -17.4203  -26.6694   21.4019 H   0  0  0  0  0  0
  -18.0307  -26.0069   22.9015 H   0  0  0  0  0  0
  -19.7936  -30.7259   24.2288 H   0  0  0  0  0  0
  -17.5017  -31.6272   24.5177 H   0  0  0  0  0  0
  -15.5354  -30.2994   23.7644 H   0  0  0  0  0  0
  -15.8674  -28.0830   22.7055 H   0  0  0  0  0  0
  -24.5940  -30.7017   25.7814 H   0  0  0  0  0  0
  -24.8867  -32.2860   26.4890 H   0  0  0  0  0  0
  -25.8059  -30.8929   27.0284 H   0  0  0  0  0  0
  -26.2901  -29.6791   24.1199 H   0  0  0  0  0  0
  -27.4082  -29.7287   25.4637 H   0  0  0  0  0  0
  -27.8747  -30.4352   23.9347 H   0  0  0  0  0  0
  -27.2703  -33.3643   26.2073 H   0  0  0  0  0  0
  -28.3869  -32.6864   25.0329 H   0  0  0  0  0  0
  -28.0734  -31.8470   26.5437 H   0  0  0  0  0  0
  -28.2599  -38.0098   24.7517 H   0  0  0  0  0  0
  -28.1074  -36.2633   24.6290 H   0  0  0  0  0  0
  -27.2302  -37.1452   25.8869 H   0  0  0  0  0  0
  -20.9361  -29.8757   21.6909 H   0  0  0  0  0  0
  -26.0195  -38.2868   24.1397 H   0  0  0  0  0  0
  -31.0340  -17.4490   24.3890 H   0  0  0  0  0  0
  -29.9410  -16.9556   25.6791 H   0  0  0  0  0  0
  -30.0619  -18.6531   25.2284 H   0  0  0  0  0  0
  -26.8562  -23.3856   23.2568 H   0  0  0  0  0  0
  -26.8606  -25.1257   23.2561 H   0  0  0  0  0  0
  -28.3312  -24.2593   23.6682 H   0  0  0  0  0  0
  -26.1684  -23.1177   20.8391 H   0  0  0  0  0  0
  -26.8376  -24.1619   19.6085 H   0  0  0  0  0  0
  -25.8596  -24.8287   20.9394 H   0  0  0  0  0  0
  -31.5331  -16.9541   21.5804 H   0  0  0  0  0  0
  -30.9626  -17.1931   19.9629 H   0  0  0  0  0  0
  -29.6660  -25.5833   21.2991 H   0  0  0  0  0  0
  -28.3999  -26.3600   22.1397 H   0  0  0  0  0  0
  -27.7534  -22.0237   22.5773 H   0  0  0  0  0  0
  -29.0861  -15.5086   21.3159 H   0  0  0  0  0  0
  1 25  1  0  0  0
  1 30  2  0  0  0
  1 84  1  0  0  0
  2  3  1  0  0  0
  2 25  1  0  0  0
  2 89  1  0  0  0
  2 90  1  0  0  0
  3  4  1  0  0  0
  3 91  1  0  0  0
  3 92  1  0  0  0
  4  5  1  0  0  0
  4 93  1  0  0  0
  4 94  1  0  0  0
  5  6  1  0  0  0
  5 26  1  0  0  0
  5 95  1  0  0  0
  6 25  1  0  0  0
  6 96  1  0  0  0
  6 97  1  0  0  0
  7  8  2  0  0  0
  7 26  1  0  0  0
  7 29  1  0  0  0
  8  9  1  0  0  0
  8 22  1  0  0  0
  9 10  1  0  0  0
  9 27  2  0  0  0
 10 11  2  0  0  0
 10 15  1  0  0  0
 11 12  1  0  0  0
 11 98  1  0  0  0
 12 13  2  0  0  0
 12 99  1  0  0  0
 13 14  1  0  0  0
 13 31  1  0  0  0
 14 15  2  0  0  0
 14100  1  0  0  0
 15101  1  0  0  0
 16 17  2  0  0  0
 16 21  1  0  0  0
 16 31  1  0  0  0
 17 18  1  0  0  0
 17102  1  0  0  0
 18 19  2  0  0  0
 18103  1  0  0  0
 19 20  1  0  0  0
 19 24  1  0  0  0
 20 21  2  0  0  0
 20104  1  0  0  0
 21 23  1  0  0  0
 22 28  1  0  0  0
 22 32  2  0  0  0
 26 27  1  0  0  0
 28105  1  0  0  0
 28106  1  0  0  0
 29107  1  0  0  0
 29108  1  0  0  0
 33 34  1  0  0  0
 33 66  1  0  0  0
 33 70  2  0  0  0
 34 36  1  0  0  0
 34 59  1  0  0  0
 34109  1  0  0  0
 35 44  2  0  0  0
 35 45  1  0  0  0
 35 68  1  0  0  0
 36 56  1  0  0  0
 36110  1  0  0  0
 37 39  1  0  0  0
 37 47  1  0  0  0
 37 66  1  0  0  0
 37111  1  0  0  0
 38 43  2  0  0  0
 38 46  1  0  0  0
 38 47  1  0  0  0
 39 64  1  0  0  0
 39 67  2  0  0  0
 40 52  1  0  0  0
 40 53  2  0  0  0
 40 58  1  0  0  0
 41112  1  0  0  0
 41113  1  0  0  0
 41114  1  0  0  0
 41 48  1  0  0  0
 42 43  1  0  0  0
 42 66  1  0  0  0
 42115  1  0  0  0
 42116  1  0  0  0
 43 44  1  0  0  0
 44117  1  0  0  0
 45 46  2  0  0  0
 45118  1  0  0  0
 46119  1  0  0  0
 47120  1  0  0  0
 47121  1  0  0  0
 48 56  1  0  0  0
 48 65  1  0  0  0
 48122  1  0  0  0
 49 50  1  0  0  0
 49 53  1  0  0  0
 49 64  1  0  0  0
 49123  1  0  0  0
 50 51  1  0  0  0
 50124  1  0  0  0
 50125  1  0  0  0
 51 52  1  0  0  0
 51126  1  0  0  0
 51127  1  0  0  0
 52128  1  0  0  0
 52129  1  0  0  0
 53 54  1  0  0  0
 54 55  2  0  0  0
 54130  1  0  0  0
 55 57  1  0  0  0
 55131  1  0  0  0
 56 69  2  0  0  0
 57 58  2  0  0  0
 57132  1  0  0  0
 58133  1  0  0  0
 59 60  1  0  0  0
 59 61  1  0  0  0
 59 62  1  0  0  0
 60134  1  0  0  0
 60135  1  0  0  0
 60136  1  0  0  0
 61137  1  0  0  0
 61138  1  0  0  0
 61139  1  0  0  0
 62140  1  0  0  0
 62141  1  0  0  0
 62142  1  0  0  0
 63 65  1  0  0  0
 63143  1  0  0  0
 63144  1  0  0  0
 63145  1  0  0  0
 64146  1  0  0  0
 65147  1  0  0  0
 68 79  1  0  0  0
 71 72  2  0  0  0
 71 80  1  0  0  0
 71 82  1  0  0  0
 72 78  1  0  0  0
 72 88  1  0  0  0
 73 82  2  0  0  0
 73 83  1  0  0  0
 73 88  1  0  0  0
 74 81  1  0  0  0
 74 83  1  0  0  0
 74 85  2  0  0  0
 75148  1  0  0  0
 75149  1  0  0  0
 75150  1  0  0  0
 75 80  1  0  0  0
 76151  1  0  0  0
 76152  1  0  0  0
 76153  1  0  0  0
 76 81  1  0  0  0
 77 81  1  0  0  0
 77154  1  0  0  0
 77155  1  0  0  0
 77156  1  0  0  0
 78 84  1  0  0  0
 78157  1  0  0  0
 78158  1  0  0  0
 79 81  1  0  0  0
 79159  1  0  0  0
 79160  1  0  0  0
 80 86  1  0  0  0
 80 87  1  0  0  0
 83161  1  0  0  0
 84162  1  0  0  0
M  ISO  4   1 100  68 101  79 101  84 100
M  END
> <chiral flag>
0

> <version>
0

> <s_m_source_file>
/data/baiqing/PycharmProjects/Reinvent-master-3.2/result/LINK_invent/BTK/process_docking_weight1_custom_product_contain_oxygen_bond_distance_aromatic_linkinvent_7_9_3/rearranged_h_0181.sdf

> <i_m_source_file_index>
24

> <r_mmod_Potential_Energy-OPLS-2005>
-97.4041442871094

> <r_mmod_Stretch_Energy-OPLS-2005>
55.8991394042969

> <r_mmod_Bend_Energy-OPLS-2005>
148.120895385742

> <r_mmod_Torsional_Energy-OPLS-2005>
241.325561523438

> <r_mmod_Improper_Torsional_Energy-OPLS-2005>
4.55258989334106

> <r_mmod_Van_der_Waal_Energy-OPLS-2005>
130.89111328125

> <r_mmod_Electrostatic_Energy-OPLS-2005>
-487.753356933594

> <r_mmod_Solvation_Energy-OPLS-2005>
-218.446228027344

> <b_mmod_Minimization_Converged-OPLS-2005>
0

> <r_mmod_RMS_Derivative-OPLS-2005>
1.47223317623138

$$$$
24
                    3D
 Structure written by MMmdl.
156164  0  0  1  0            999 V2000
  -30.5754  -14.8579   20.4178 C   0  0  0  0  0  0
  -30.4384  -12.5208   19.4969 C   0  0  0  0  0  0
  -29.5190  -12.5096   18.2544 C   0  0  0  0  0  0
  -28.0501  -12.3107   18.6733 C   0  0  0  0  0  0
  -27.6360  -13.2392   19.8448 C   0  0  2  0  0  0
  -28.6782  -13.2342   20.9835 C   0  0  0  0  0  0
  -25.2503  -13.8209   20.5707 C   0  0  0  0  0  0
  -24.1798  -13.0448   20.9214 C   0  0  0  0  0  0
  -24.6399  -11.6928   20.8755 C   0  0  0  0  0  0
  -23.9082  -10.4299   21.0414 C   0  0  0  0  0  0
  -24.3628   -9.4207   21.9187 C   0  0  0  0  0  0
  -23.6290   -8.2250   22.0761 C   0  0  0  0  0  0
  -22.4272   -8.0292   21.3556 C   0  0  0  0  0  0
  -21.9918   -9.0267   20.4659 C   0  0  0  0  0  0
  -22.7255  -10.2140   20.3067 C   0  0  0  0  0  0
  -21.6857   -6.0742   22.5282 C   0  0  0  0  0  0
  -21.4016   -6.5645   23.8214 C   0  0  0  0  0  0
  -21.3651   -5.6797   24.9174 C   0  0  0  0  0  0
  -21.6042   -4.3060   24.7222 C   0  0  0  0  0  0
  -21.8814   -3.8153   23.4341 C   0  0  0  0  0  0
  -21.9190   -4.6971   22.3401 C   0  0  0  0  0  0
  -22.7824  -13.5230   21.1857 C   0  0  0  0  0  0
  -22.1663   -4.2159   21.0980 F   0  0  0  0  0  0
  -21.5616   -3.4542   25.7731 F   0  0  0  0  0  0
  -29.9687  -13.6110   20.3927 N   0  0  0  0  0  0
  -26.2915  -12.9419   20.3270 N   0  0  0  0  0  0
  -25.9328  -11.6555   20.5756 N   0  0  0  0  0  0
  -22.0465  -12.8234   22.0414 N   0  0  0  0  0  0
  -25.4199  -15.1934   20.4138 N   0  0  0  0  0  0
  -31.7805  -14.9051   20.1594 O   0  0  0  0  0  0
  -21.6644   -6.8886   21.4246 O   0  0  0  0  0  0
  -22.3511  -14.5523   20.6677 O   0  0  0  0  0  0
  -24.6383  -31.8499   23.1933 C   0  0  0  0  0  0
  -25.9174  -32.4728   23.8307 C   0  0  1  0  0  0
  -27.2187  -27.2008   20.1264 C   0  0  0  0  0  0
  -25.5943  -33.8527   24.2229 N   0  0  0  0  0  0
  -23.4388  -30.4730   21.5378 C   0  0  2  0  0  0
  -24.8855  -28.9117   20.1103 C   0  0  0  0  0  0
  -22.7546  -29.4581   22.4872 C   0  0  0  0  0  0
  -18.0309  -28.1399   22.8477 C   0  0  0  0  0  0
  -24.1493  -36.7275   23.2641 C   0  0  0  0  0  0
  -25.9914  -30.7446   21.3810 C   0  0  0  0  0  0
  -26.0636  -29.3623   20.7197 C   0  0  0  0  0  0
  -27.2331  -28.5207   20.7151 C   0  0  0  0  0  0
  -26.0006  -26.8241   19.5175 C   0  0  0  0  0  0
  -24.8615  -27.6514   19.4980 C   0  0  0  0  0  0
  -23.6613  -29.8086   20.1546 C   0  0  0  0  0  0
  -25.4121  -36.3051   24.0323 C   0  0  1  0  0  0
  -20.5919  -28.3719   23.1244 C   0  0  2  0  0  0
  -20.6796  -26.9428   22.5402 C   0  0  0  0  0  0
  -19.5767  -26.6383   21.5212 C   0  0  0  0  0  0
  -18.1949  -26.7935   22.1625 C   0  0  0  0  0  0
  -19.1565  -28.8873   23.2855 C   0  0  0  0  0  0
  -18.9476  -30.1470   23.8879 C   0  0  0  0  0  0
  -17.6473  -30.6589   24.0562 C   0  0  0  0  0  0
  -25.9062  -34.9421   23.5080 C   0  0  0  0  0  0
  -16.5366  -29.9089   23.6329 C   0  0  0  0  0  0
  -16.7294  -28.6513   23.0343 C   0  0  0  0  0  0
  -26.4511  -31.6564   25.0716 C   0  0  0  0  0  0
  -25.3708  -31.3744   26.1422 C   0  0  0  0  0  0
  -27.0363  -30.2969   24.6241 C   0  0  0  0  0  0
  -27.6055  -32.4317   25.7489 C   0  0  0  0  0  0
  -27.5580  -37.1795   24.8464 C   0  0  0  0  0  0
  -21.4240  -29.3060   22.3619 N   0  0  0  0  0  0
  -26.4292  -37.3757   23.9403 N   0  0  0  0  0  0
  -24.7093  -31.0416   22.0935 N   0  0  0  0  0  0
  -23.4213  -28.8116   23.2991 O   0  0  0  0  0  0
  -28.2706  -26.2255   20.1941 O   0  0  0  0  0  0
  -26.5641  -34.8912   22.4655 O   0  0  0  0  0  0
  -23.5514  -32.1341   23.7193 O   0  0  0  0  0  0
  -30.5983  -19.5562   19.2972 C   0  0  0  0  0  0
  -30.8143  -18.1063   19.4431 C   0  0  0  0  0  0
  -29.5042  -20.1124   19.9462 C   0  0  0  0  0  0
  -29.9244  -17.4160   20.2663 C   0  0  0  0  0  0
  -28.6595  -23.7981   19.1913 C   0  0  0  0  0  0
  -28.4444  -25.2078   19.1930 C   0  0  0  0  0  0
  -28.8765  -22.6890   20.2298 C   0  0  0  0  0  0
  -31.4799  -20.4051   18.4147 C   0  0  0  0  0  0
  -31.9111  -17.4209   18.6734 C   0  0  0  0  0  0
  -28.4372  -25.9188   17.8296 C   0  0  0  0  0  0
  -28.9740  -21.4054   19.6601 N   0  0  0  0  0  0
  -29.7870  -16.0195   20.5742 N   0  0  0  0  0  0
  -28.9569  -22.8648   21.4461 O   0  0  0  0  0  0
  -28.7071  -23.2877   17.9447 O   0  0  0  0  0  0
  -28.7722  -18.7127   20.8265 S   0  0  0  0  0  0
  -31.4762  -12.6578   19.1890 H   0  0  0  0  0  0
  -30.4063  -11.5604   20.0151 H   0  0  0  0  0  0
  -29.8209  -11.7192   17.5672 H   0  0  0  0  0  0
  -29.6243  -13.4486   17.7088 H   0  0  0  0  0  0
  -27.9380  -11.2686   18.9762 H   0  0  0  0  0  0
  -27.3859  -12.4526   17.8198 H   0  0  0  0  0  0
  -27.6125  -14.2472   19.4291 H   0  0  0  0  0  0
  -28.7389  -12.2529   21.4547 H   0  0  0  0  0  0
  -28.3924  -13.9350   21.7694 H   0  0  0  0  0  0
  -25.2770   -9.5669   22.4767 H   0  0  0  0  0  0
  -23.9992   -7.4639   22.7483 H   0  0  0  0  0  0
  -21.0842   -8.8789   19.8970 H   0  0  0  0  0  0
  -22.3709  -10.9681   19.6180 H   0  0  0  0  0  0
  -21.2026   -7.6156   23.9715 H   0  0  0  0  0  0
  -21.1472   -6.0533   25.9075 H   0  0  0  0  0  0
  -22.0600   -2.7617   23.2841 H   0  0  0  0  0  0
  -22.4086  -11.9911   22.4824 H   0  0  0  0  0  0
  -21.1086  -13.1278   22.2613 H   0  0  0  0  0  0
  -24.6503  -15.8448   20.5249 H   0  0  0  0  0  0
  -26.2596  -15.6332   20.0607 H   0  0  0  0  0  0
  -26.7234  -32.5358   23.1037 H   0  0  0  0  0  0
  -25.0067  -33.9646   25.0362 H   0  0  0  0  0  0
  -22.7388  -31.2977   21.3887 H   0  0  0  0  0  0
  -23.3757  -35.9606   23.3289 H   0  0  0  0  0  0
  -24.3580  -36.8912   22.2057 H   0  0  0  0  0  0
  -23.7244  -37.6471   23.6678 H   0  0  0  0  0  0
  -26.1375  -31.5048   20.6127 H   0  0  0  0  0  0
  -26.8654  -30.7935   22.0182 H   0  0  0  0  0  0
  -28.1335  -28.8592   21.2061 H   0  0  0  0  0  0
  -25.9004  -25.8411   19.0820 H   0  0  0  0  0  0
  -23.9543  -27.2907   19.0326 H   0  0  0  0  0  0
  -23.7975  -30.5862   19.4022 H   0  0  0  0  0  0
  -22.7770  -29.2508   19.8421 H   0  0  0  0  0  0
  -25.1303  -36.1892   25.0817 H   0  0  0  0  0  0
  -21.0013  -28.3308   24.1362 H   0  0  0  0  0  0
  -20.5694  -26.2332   23.3616 H   0  0  0  0  0  0
  -21.6659  -26.7442   22.1190 H   0  0  0  0  0  0
  -19.6923  -25.6288   21.1253 H   0  0  0  0  0  0
  -19.6694  -27.3185   20.6735 H   0  0  0  0  0  0
  -17.4213  -26.6676   21.4038 H   0  0  0  0  0  0
  -18.0350  -26.0091   22.9034 H   0  0  0  0  0  0
  -19.7951  -30.7295   24.2236 H   0  0  0  0  0  0
  -17.5027  -31.6262   24.5173 H   0  0  0  0  0  0
  -15.5367  -30.2983   23.7659 H   0  0  0  0  0  0
  -15.8698  -28.0825   22.7058 H   0  0  0  0  0  0
  -24.5876  -30.7106   25.7743 H   0  0  0  0  0  0
  -24.8914  -32.2927   26.4822 H   0  0  0  0  0  0
  -25.7998  -30.8923   27.0214 H   0  0  0  0  0  0
  -26.2964  -29.6707   24.1242 H   0  0  0  0  0  0
  -27.3995  -29.7248   25.4789 H   0  0  0  0  0  0
  -27.8865  -30.4229   23.9533 H   0  0  0  0  0  0
  -27.2652  -33.3627   26.2037 H   0  0  0  0  0  0
  -28.3875  -32.6858   25.0319 H   0  0  0  0  0  0
  -28.0709  -31.8458   26.5423 H   0  0  0  0  0  0
  -28.2590  -38.0100   24.7506 H   0  0  0  0  0  0
  -28.1083  -36.2625   24.6293 H   0  0  0  0  0  0
  -27.2295  -37.1445   25.8869 H   0  0  0  0  0  0
  -20.9439  -29.8780   21.6812 H   0  0  0  0  0  0
  -26.0164  -38.2828   24.1407 H   0  0  0  0  0  0
  -32.5350  -20.2418   18.6338 H   0  0  0  0  0  0
  -31.3068  -21.4739   18.5369 H   0  0  0  0  0  0
  -31.3197  -20.1753   17.3613 H   0  0  0  0  0  0
  -32.3010  -18.0212   17.8539 H   0  0  0  0  0  0
  -31.5541  -16.5038   18.2075 H   0  0  0  0  0  0
  -32.7540  -17.1747   19.3184 H   0  0  0  0  0  0
  -28.5490  -26.9992   17.9280 H   0  0  0  0  0  0
  -27.5094  -25.7268   17.2887 H   0  0  0  0  0  0
  -29.2743  -25.6027   17.2065 H   0  0  0  0  0  0
  -28.8534  -21.5567   18.6642 H   0  0  0  0  0  0
  -28.8697  -15.7842   20.9221 H   0  0  0  0  0  0
  -28.5752  -24.0157   17.3509 H   0  0  0  0  0  0
  1 25  1  0  0  0
  1 30  2  0  0  0
  1 82  1  0  0  0
  2  3  1  0  0  0
  2 25  1  0  0  0
  2 86  1  0  0  0
  2 87  1  0  0  0
  3  4  1  0  0  0
  3 88  1  0  0  0
  3 89  1  0  0  0
  4  5  1  0  0  0
  4 90  1  0  0  0
  4 91  1  0  0  0
  5  6  1  0  0  0
  5 26  1  0  0  0
  5 92  1  0  0  0
  6 25  1  0  0  0
  6 93  1  0  0  0
  6 94  1  0  0  0
  7  8  2  0  0  0
  7 26  1  0  0  0
  7 29  1  0  0  0
  8  9  1  0  0  0
  8 22  1  0  0  0
  9 10  1  0  0  0
  9 27  2  0  0  0
 10 11  2  0  0  0
 10 15  1  0  0  0
 11 12  1  0  0  0
 11 95  1  0  0  0
 12 13  2  0  0  0
 12 96  1  0  0  0
 13 14  1  0  0  0
 13 31  1  0  0  0
 14 15  2  0  0  0
 14 97  1  0  0  0
 15 98  1  0  0  0
 16 17  2  0  0  0
 16 21  1  0  0  0
 16 31  1  0  0  0
 17 18  1  0  0  0
 17 99  1  0  0  0
 18 19  2  0  0  0
 18100  1  0  0  0
 19 20  1  0  0  0
 19 24  1  0  0  0
 20 21  2  0  0  0
 20101  1  0  0  0
 21 23  1  0  0  0
 22 28  1  0  0  0
 22 32  2  0  0  0
 26 27  1  0  0  0
 28102  1  0  0  0
 28103  1  0  0  0
 29104  1  0  0  0
 29105  1  0  0  0
 33 34  1  0  0  0
 33 66  1  0  0  0
 33 70  2  0  0  0
 34 36  1  0  0  0
 34 59  1  0  0  0
 34106  1  0  0  0
 35 44  2  0  0  0
 35 45  1  0  0  0
 35 68  1  0  0  0
 36 56  1  0  0  0
 36107  1  0  0  0
 37 39  1  0  0  0
 37 47  1  0  0  0
 37 66  1  0  0  0
 37108  1  0  0  0
 38 43  2  0  0  0
 38 46  1  0  0  0
 38 47  1  0  0  0
 39 64  1  0  0  0
 39 67  2  0  0  0
 40 52  1  0  0  0
 40 53  2  0  0  0
 40 58  1  0  0  0
 41109  1  0  0  0
 41110  1  0  0  0
 41111  1  0  0  0
 41 48  1  0  0  0
 42 43  1  0  0  0
 42 66  1  0  0  0
 42112  1  0  0  0
 42113  1  0  0  0
 43 44  1  0  0  0
 44114  1  0  0  0
 45 46  2  0  0  0
 45115  1  0  0  0
 46116  1  0  0  0
 47117  1  0  0  0
 47118  1  0  0  0
 48 56  1  0  0  0
 48 65  1  0  0  0
 48119  1  0  0  0
 49 50  1  0  0  0
 49 53  1  0  0  0
 49 64  1  0  0  0
 49120  1  0  0  0
 50 51  1  0  0  0
 50121  1  0  0  0
 50122  1  0  0  0
 51 52  1  0  0  0
 51123  1  0  0  0
 51124  1  0  0  0
 52125  1  0  0  0
 52126  1  0  0  0
 53 54  1  0  0  0
 54 55  2  0  0  0
 54127  1  0  0  0
 55 57  1  0  0  0
 55128  1  0  0  0
 56 69  2  0  0  0
 57 58  2  0  0  0
 57129  1  0  0  0
 58130  1  0  0  0
 59 60  1  0  0  0
 59 61  1  0  0  0
 59 62  1  0  0  0
 60131  1  0  0  0
 60132  1  0  0  0
 60133  1  0  0  0
 61134  1  0  0  0
 61135  1  0  0  0
 61136  1  0  0  0
 62137  1  0  0  0
 62138  1  0  0  0
 62139  1  0  0  0
 63 65  1  0  0  0
 63140  1  0  0  0
 63141  1  0  0  0
 63142  1  0  0  0
 64143  1  0  0  0
 65144  1  0  0  0
 68 76  1  0  0  0
 71 72  1  0  0  0
 71 73  2  0  0  0
 71 78  1  0  0  0
 72 74  2  0  0  0
 72 79  1  0  0  0
 73 81  1  0  0  0
 73 85  1  0  0  0
 74 82  1  0  0  0
 74 85  1  0  0  0
 75 76  2  0  0  0
 75 77  1  0  0  0
 75 84  1  0  0  0
 76 80  1  0  0  0
 77 81  1  0  0  0
 77 83  2  0  0  0
 78145  1  0  0  0
 78146  1  0  0  0
 78147  1  0  0  0
 79148  1  0  0  0
 79149  1  0  0  0
 79150  1  0  0  0
 80151  1  0  0  0
 80152  1  0  0  0
 80153  1  0  0  0
 81154  1  0  0  0
 82155  1  0  0  0
 84156  1  0  0  0
M  ISO  4   1 100  68 101  76 101  82 100
M  END
> <chiral flag>
0

> <version>
0

> <s_m_source_file>
/data/baiqing/PycharmProjects/Reinvent-master-3.2/result/LINK_invent/BTK/process_docking_weight1_custom_product_contain_oxygen_bond_distance_aromatic_linkinvent_7_9_3/rearranged_h_0181.sdf

> <i_m_source_file_index>
25

> <r_mmod_Potential_Energy-OPLS-2005>
353.720611572266

> <r_mmod_Stretch_Energy-OPLS-2005>
168.242813110352

> <r_mmod_Bend_Energy-OPLS-2005>
293.977386474609

> <r_mmod_Torsional_Energy-OPLS-2005>
252.857131958008

> <r_mmod_Improper_Torsional_Energy-OPLS-2005>
7.71363973617554

> <r_mmod_Van_der_Waal_Energy-OPLS-2005>
147.140197753906

> <r_mmod_Electrostatic_Energy-OPLS-2005>
-428.104370117188

> <r_mmod_Solvation_Energy-OPLS-2005>
-228.255752563477

> <b_mmod_Minimization_Converged-OPLS-2005>
0

> <r_mmod_RMS_Derivative-OPLS-2005>
1.5722484588623

$$$$
25
                    3D
 Structure written by MMmdl.
155163  0  0  1  0            999 V2000
  -30.6095  -14.7226   20.4738 C   0  0  0  0  0  0
  -30.4404  -12.4390   19.4749 C   0  0  0  0  0  0
  -29.5164  -12.5165   18.2386 C   0  0  0  0  0  0
  -28.0406  -12.3442   18.6476 C   0  0  0  0  0  0
  -27.6528  -13.2281   19.8629 C   0  0  2  0  0  0
  -28.6964  -13.1268   20.9984 C   0  0  0  0  0  0
  -25.2555  -13.8192   20.5681 C   0  0  0  0  0  0
  -24.1836  -13.0442   20.9190 C   0  0  0  0  0  0
  -24.6427  -11.6915   20.8744 C   0  0  0  0  0  0
  -23.9093  -10.4290   21.0400 C   0  0  0  0  0  0
  -24.3630   -9.4201   21.9184 C   0  0  0  0  0  0
  -23.6295   -8.2243   22.0764 C   0  0  0  0  0  0
  -22.4278   -8.0283   21.3550 C   0  0  0  0  0  0
  -21.9913   -9.0263   20.4653 C   0  0  0  0  0  0
  -22.7257  -10.2139   20.3054 C   0  0  0  0  0  0
  -21.6855   -6.0733   22.5277 C   0  0  0  0  0  0
  -21.4019   -6.5638   23.8208 C   0  0  0  0  0  0
  -21.3658   -5.6793   24.9174 C   0  0  0  0  0  0
  -21.6042   -4.3056   24.7225 C   0  0  0  0  0  0
  -21.8822   -3.8146   23.4345 C   0  0  0  0  0  0
  -21.9196   -4.6961   22.3403 C   0  0  0  0  0  0
  -22.7850  -13.5223   21.1847 C   0  0  0  0  0  0
  -22.1660   -4.2140   21.0981 F   0  0  0  0  0  0
  -21.5628   -3.4540   25.7740 F   0  0  0  0  0  0
  -30.0055  -13.4839   20.4313 N   0  0  0  0  0  0
  -26.3004  -12.9394   20.3329 N   0  0  0  0  0  0
  -25.9363  -11.6540   20.5762 N   0  0  0  0  0  0
  -22.0498  -12.8212   22.0398 N   0  0  0  0  0  0
  -25.4246  -15.1916   20.4081 N   0  0  0  0  0  0
  -31.7688  -14.8549   20.0695 O   0  0  0  0  0  0
  -21.6645   -6.8874   21.4237 O   0  0  0  0  0  0
  -22.3529  -14.5530   20.6698 O   0  0  0  0  0  0
  -24.6311  -31.8543   23.1997 C   0  0  0  0  0  0
  -25.9129  -32.4748   23.8332 C   0  0  1  0  0  0
  -27.2211  -27.2659   20.1283 C   0  0  0  0  0  0
  -25.5932  -33.8554   24.2247 N   0  0  0  0  0  0
  -23.4284  -30.4773   21.5424 C   0  0  2  0  0  0
  -24.8783  -28.9311   20.1027 C   0  0  0  0  0  0
  -22.7500  -29.4578   22.4906 C   0  0  0  0  0  0
  -18.0281  -28.1399   22.8473 C   0  0  0  0  0  0
  -24.1495  -36.7285   23.2642 C   0  0  0  0  0  0
  -25.9740  -30.7684   21.3815 C   0  0  0  0  0  0
  -26.0478  -29.3937   20.7190 C   0  0  0  0  0  0
  -27.2205  -28.5739   20.7215 C   0  0  0  0  0  0
  -26.0363  -26.8851   19.4560 C   0  0  0  0  0  0
  -24.8774  -27.6844   19.4605 C   0  0  0  0  0  0
  -23.6462  -29.8130   20.1573 C   0  0  0  0  0  0
  -25.4123  -36.3062   24.0322 C   0  0  1  0  0  0
  -20.5886  -28.3690   23.1267 C   0  0  2  0  0  0
  -20.6774  -26.9402   22.5414 C   0  0  0  0  0  0
  -19.5756  -26.6381   21.5217 C   0  0  0  0  0  0
  -18.1925  -26.7940   22.1616 C   0  0  0  0  0  0
  -19.1538  -28.8865   23.2860 C   0  0  0  0  0  0
  -18.9465  -30.1467   23.8872 C   0  0  0  0  0  0
  -17.6462  -30.6585   24.0564 C   0  0  0  0  0  0
  -25.9058  -34.9433   23.5084 C   0  0  0  0  0  0
  -16.5350  -29.9081   23.6342 C   0  0  0  0  0  0
  -16.7270  -28.6512   23.0341 C   0  0  0  0  0  0
  -26.4497  -31.6583   25.0728 C   0  0  0  0  0  0
  -25.3715  -31.3747   26.1442 C   0  0  0  0  0  0
  -27.0356  -30.3000   24.6238 C   0  0  0  0  0  0
  -27.6047  -32.4334   25.7496 C   0  0  0  0  0  0
  -27.5576  -37.1796   24.8459 C   0  0  0  0  0  0
  -21.4208  -29.3031   22.3651 N   0  0  0  0  0  0
  -26.4289  -37.3762   23.9401 N   0  0  0  0  0  0
  -24.6964  -31.0499   22.0980 N   0  0  0  0  0  0
  -23.4192  -28.8095   23.2992 O   0  0  0  0  0  0
  -28.3119  -26.3661   20.2255 O   0  0  0  0  0  0
  -26.5630  -34.8907   22.4657 O   0  0  0  0  0  0
  -23.5463  -32.1361   23.7294 O   0  0  0  0  0  0
  -29.6603  -19.8535   20.4815 C   0  0  0  0  0  0
  -30.2609  -19.2252   19.3943 C   0  0  0  0  0  0
  -29.9205  -17.2550   20.6105 C   0  0  0  0  0  0
  -29.4283  -21.3271   20.9282 C   0  0  0  0  0  0
  -27.0758  -24.4107   21.1826 C   0  0  0  0  0  0
  -29.3878  -23.8762   20.2891 C   0  0  2  0  0  0
  -28.1148  -24.8675   20.1336 C   0  0  2  0  0  0
  -30.5543  -24.3275   19.3815 C   0  0  0  0  0  0
  -30.3816  -17.8083   19.4737 N   0  0  0  0  0  0
  -30.7682  -19.8465   18.2495 N   0  0  0  0  0  0
  -29.8455  -15.7999   20.8836 N   0  0  0  0  0  0
  -29.1930  -22.3702   20.0580 N   0  0  0  0  0  0
  -29.4778  -21.5724   22.1360 O   0  0  0  0  0  0
  -31.5994  -23.5094   19.5306 F   0  0  0  0  0  0
  -30.1803  -24.2996   18.1016 F   0  0  0  0  0  0
  -30.9545  -25.5610   19.6892 F   0  0  0  0  0  0
  -29.2574  -18.5593   21.6565 S   0  0  0  0  0  0
  -31.4823  -12.5625   19.1744 H   0  0  0  0  0  0
  -30.3827  -11.4529   19.9381 H   0  0  0  0  0  0
  -29.7943  -11.7518   17.5123 H   0  0  0  0  0  0
  -29.6507  -13.4765   17.7375 H   0  0  0  0  0  0
  -27.8886  -11.2924   18.8932 H   0  0  0  0  0  0
  -27.3864  -12.5586   17.8016 H   0  0  0  0  0  0
  -27.6586  -14.2571   19.5050 H   0  0  0  0  0  0
  -28.7251  -12.1157   21.4087 H   0  0  0  0  0  0
  -28.4313  -13.7796   21.8321 H   0  0  0  0  0  0
  -25.2776   -9.5676   22.4752 H   0  0  0  0  0  0
  -24.0002   -7.4635   22.7493 H   0  0  0  0  0  0
  -21.0835   -8.8790   19.8952 H   0  0  0  0  0  0
  -22.3721  -10.9679   19.6158 H   0  0  0  0  0  0
  -21.2012   -7.6145   23.9709 H   0  0  0  0  0  0
  -21.1474   -6.0525   25.9077 H   0  0  0  0  0  0
  -22.0602   -2.7601   23.2858 H   0  0  0  0  0  0
  -22.4121  -11.9872   22.4770 H   0  0  0  0  0  0
  -21.1123  -13.1245   22.2621 H   0  0  0  0  0  0
  -24.6532  -15.8426   20.5084 H   0  0  0  0  0  0
  -26.2649  -15.6274   20.0501 H   0  0  0  0  0  0
  -26.7183  -32.5380   23.1063 H   0  0  0  0  0  0
  -25.0068  -33.9705   25.0380 H   0  0  0  0  0  0
  -22.7250  -31.3002   21.3986 H   0  0  0  0  0  0
  -23.3750  -35.9620   23.3306 H   0  0  0  0  0  0
  -24.3587  -36.8921   22.2056 H   0  0  0  0  0  0
  -23.7252  -37.6491   23.6672 H   0  0  0  0  0  0
  -26.1171  -31.5314   20.6152 H   0  0  0  0  0  0
  -26.8506  -30.8123   22.0170 H   0  0  0  0  0  0
  -28.1099  -28.9211   21.2281 H   0  0  0  0  0  0
  -25.9694  -25.9359   18.9480 H   0  0  0  0  0  0
  -23.9831  -27.3306   18.9655 H   0  0  0  0  0  0
  -23.7646  -30.5908   19.4010 H   0  0  0  0  0  0
  -22.7677  -29.2415   19.8522 H   0  0  0  0  0  0
  -25.1304  -36.1913   25.0813 H   0  0  0  0  0  0
  -20.9972  -28.3278   24.1395 H   0  0  0  0  0  0
  -20.5714  -26.2280   23.3619 H   0  0  0  0  0  0
  -21.6632  -26.7445   22.1187 H   0  0  0  0  0  0
  -19.6923  -25.6293   21.1250 H   0  0  0  0  0  0
  -19.6717  -27.3198   20.6760 H   0  0  0  0  0  0
  -17.4204  -26.6685   21.4010 H   0  0  0  0  0  0
  -18.0305  -26.0095   22.9032 H   0  0  0  0  0  0
  -19.7946  -30.7288   24.2224 H   0  0  0  0  0  0
  -17.5021  -31.6275   24.5163 H   0  0  0  0  0  0
  -15.5348  -30.2976   23.7704 H   0  0  0  0  0  0
  -15.8669  -28.0848   22.7042 H   0  0  0  0  0  0
  -24.5888  -30.7106   25.7760 H   0  0  0  0  0  0
  -24.8909  -32.2929   26.4829 H   0  0  0  0  0  0
  -25.8020  -30.8940   27.0233 H   0  0  0  0  0  0
  -26.2956  -29.6731   24.1254 H   0  0  0  0  0  0
  -27.4024  -29.7277   25.4766 H   0  0  0  0  0  0
  -27.8829  -30.4274   23.9497 H   0  0  0  0  0  0
  -27.2653  -33.3651   26.2026 H   0  0  0  0  0  0
  -28.3867  -32.6873   25.0329 H   0  0  0  0  0  0
  -28.0689  -31.8491   26.5451 H   0  0  0  0  0  0
  -28.2581  -38.0105   24.7502 H   0  0  0  0  0  0
  -28.1085  -36.2633   24.6282 H   0  0  0  0  0  0
  -27.2290  -37.1428   25.8862 H   0  0  0  0  0  0
  -20.9394  -29.8773   21.6872 H   0  0  0  0  0  0
  -26.0172  -38.2834   24.1421 H   0  0  0  0  0  0
  -26.0968  -24.8621   21.0497 H   0  0  0  0  0  0
  -27.4106  -24.6456   22.1924 H   0  0  0  0  0  0
  -26.9166  -23.3342   21.1353 H   0  0  0  0  0  0
  -29.7485  -23.9979   21.3101 H   0  0  0  0  0  0
  -27.7160  -24.6667   19.1404 H   0  0  0  0  0  0
  -30.9686  -20.8395   18.2454 H   0  0  0  0  0  0
  -31.3363  -19.3086   17.6038 H   0  0  0  0  0  0
  -29.0220  -15.5269   21.3946 H   0  0  0  0  0  0
  -29.0967  -22.1146   19.0853 H   0  0  0  0  0  0
  1 25  1  0  0  0
  1 30  2  0  0  0
  1 81  1  0  0  0
  2  3  1  0  0  0
  2 25  1  0  0  0
  2 88  1  0  0  0
  2 89  1  0  0  0
  3  4  1  0  0  0
  3 90  1  0  0  0
  3 91  1  0  0  0
  4  5  1  0  0  0
  4 92  1  0  0  0
  4 93  1  0  0  0
  5  6  1  0  0  0
  5 26  1  0  0  0
  5 94  1  0  0  0
  6 25  1  0  0  0
  6 95  1  0  0  0
  6 96  1  0  0  0
  7  8  2  0  0  0
  7 26  1  0  0  0
  7 29  1  0  0  0
  8  9  1  0  0  0
  8 22  1  0  0  0
  9 10  1  0  0  0
  9 27  2  0  0  0
 10 11  2  0  0  0
 10 15  1  0  0  0
 11 12  1  0  0  0
 11 97  1  0  0  0
 12 13  2  0  0  0
 12 98  1  0  0  0
 13 14  1  0  0  0
 13 31  1  0  0  0
 14 15  2  0  0  0
 14 99  1  0  0  0
 15100  1  0  0  0
 16 17  2  0  0  0
 16 21  1  0  0  0
 16 31  1  0  0  0
 17 18  1  0  0  0
 17101  1  0  0  0
 18 19  2  0  0  0
 18102  1  0  0  0
 19 20  1  0  0  0
 19 24  1  0  0  0
 20 21  2  0  0  0
 20103  1  0  0  0
 21 23  1  0  0  0
 22 28  1  0  0  0
 22 32  2  0  0  0
 26 27  1  0  0  0
 28104  1  0  0  0
 28105  1  0  0  0
 29106  1  0  0  0
 29107  1  0  0  0
 33 34  1  0  0  0
 33 66  1  0  0  0
 33 70  2  0  0  0
 34 36  1  0  0  0
 34 59  1  0  0  0
 34108  1  0  0  0
 35 44  2  0  0  0
 35 45  1  0  0  0
 35 68  1  0  0  0
 36 56  1  0  0  0
 36109  1  0  0  0
 37 39  1  0  0  0
 37 47  1  0  0  0
 37 66  1  0  0  0
 37110  1  0  0  0
 38 43  2  0  0  0
 38 46  1  0  0  0
 38 47  1  0  0  0
 39 64  1  0  0  0
 39 67  2  0  0  0
 40 52  1  0  0  0
 40 53  2  0  0  0
 40 58  1  0  0  0
 41111  1  0  0  0
 41112  1  0  0  0
 41113  1  0  0  0
 41 48  1  0  0  0
 42 43  1  0  0  0
 42 66  1  0  0  0
 42114  1  0  0  0
 42115  1  0  0  0
 43 44  1  0  0  0
 44116  1  0  0  0
 45 46  2  0  0  0
 45117  1  0  0  0
 46118  1  0  0  0
 47119  1  0  0  0
 47120  1  0  0  0
 48 56  1  0  0  0
 48 65  1  0  0  0
 48121  1  0  0  0
 49 50  1  0  0  0
 49 53  1  0  0  0
 49 64  1  0  0  0
 49122  1  0  0  0
 50 51  1  0  0  0
 50123  1  0  0  0
 50124  1  0  0  0
 51 52  1  0  0  0
 51125  1  0  0  0
 51126  1  0  0  0
 52127  1  0  0  0
 52128  1  0  0  0
 53 54  1  0  0  0
 54 55  2  0  0  0
 54129  1  0  0  0
 55 57  1  0  0  0
 55130  1  0  0  0
 56 69  2  0  0  0
 57 58  2  0  0  0
 57131  1  0  0  0
 58132  1  0  0  0
 59 60  1  0  0  0
 59 61  1  0  0  0
 59 62  1  0  0  0
 60133  1  0  0  0
 60134  1  0  0  0
 60135  1  0  0  0
 61136  1  0  0  0
 61137  1  0  0  0
 61138  1  0  0  0
 62139  1  0  0  0
 62140  1  0  0  0
 62141  1  0  0  0
 63 65  1  0  0  0
 63142  1  0  0  0
 63143  1  0  0  0
 63144  1  0  0  0
 64145  1  0  0  0
 65146  1  0  0  0
 68 77  1  0  0  0
 71 72  2  0  0  0
 71 74  1  0  0  0
 71 87  1  0  0  0
 72 79  1  0  0  0
 72 80  1  0  0  0
 73 79  2  0  0  0
 73 81  1  0  0  0
 73 87  1  0  0  0
 74 82  1  0  0  0
 74 83  2  0  0  0
 75147  1  0  0  0
 75148  1  0  0  0
 75149  1  0  0  0
 75 77  1  0  0  0
 76 77  1  0  0  0
 76 78  1  0  0  0
 76 82  1  0  0  0
 76150  1  0  0  0
 77151  1  0  0  0
 78 84  1  0  0  0
 78 85  1  0  0  0
 78 86  1  0  0  0
 80152  1  0  0  0
 80153  1  0  0  0
 81154  1  0  0  0
 82155  1  0  0  0
M  ISO  4   1 100  68 101  77 101  81 100
M  END
> <chiral flag>
0

> <version>
0

> <s_m_source_file>
/data/baiqing/PycharmProjects/Reinvent-master-3.2/result/LINK_invent/BTK/process_docking_weight1_custom_product_contain_oxygen_bond_distance_aromatic_linkinvent_7_9_3/rearranged_h_0181.sdf

> <i_m_source_file_index>
26

> <r_mmod_Potential_Energy-OPLS-2005>
-8.49856281280518

> <r_mmod_Stretch_Energy-OPLS-2005>
114.864532470703

> <r_mmod_Bend_Energy-OPLS-2005>
171.874450683594

> <r_mmod_Torsional_Energy-OPLS-2005>
247.142303466797

> <r_mmod_Improper_Torsional_Energy-OPLS-2005>
6.31030035018921

> <r_mmod_Van_der_Waal_Energy-OPLS-2005>
120.250534057617

> <r_mmod_Electrostatic_Energy-OPLS-2005>
-503.057159423828

> <r_mmod_Solvation_Energy-OPLS-2005>
-245.318389892578

> <b_mmod_Minimization_Converged-OPLS-2005>
0

> <r_mmod_RMS_Derivative-OPLS-2005>
2.16789269447327

$$$$
26
                    3D
 Structure written by MMmdl.
159167  0  0  1  0            999 V2000
  -30.6158  -14.7585   20.5084 C   0  0  0  0  0  0
  -30.4352  -12.4851   19.4549 C   0  0  0  0  0  0
  -29.5050  -12.5163   18.2227 C   0  0  0  0  0  0
  -28.0319  -12.3351   18.6365 C   0  0  0  0  0  0
  -27.6359  -13.2345   19.8381 C   0  0  2  0  0  0
  -28.6831  -13.1752   20.9689 C   0  0  0  0  0  0
  -25.2480  -13.8222   20.5731 C   0  0  0  0  0  0
  -24.1779  -13.0432   20.9232 C   0  0  0  0  0  0
  -24.6382  -11.6921   20.8739 C   0  0  0  0  0  0
  -23.9058  -10.4296   21.0399 C   0  0  0  0  0  0
  -24.3618   -9.4205   21.9156 C   0  0  0  0  0  0
  -23.6299   -8.2234   22.0740 C   0  0  0  0  0  0
  -22.4275   -8.0260   21.3540 C   0  0  0  0  0  0
  -21.9900   -9.0244   20.4653 C   0  0  0  0  0  0
  -22.7233  -10.2121   20.3053 C   0  0  0  0  0  0
  -21.6843   -6.0715   22.5283 C   0  0  0  0  0  0
  -21.4016   -6.5610   23.8214 C   0  0  0  0  0  0
  -21.3668   -5.6771   24.9182 C   0  0  0  0  0  0
  -21.6056   -4.3048   24.7232 C   0  0  0  0  0  0
  -21.8814   -3.8121   23.4353 C   0  0  0  0  0  0
  -21.9194   -4.6935   22.3410 C   0  0  0  0  0  0
  -22.7780  -13.5202   21.1900 C   0  0  0  0  0  0
  -22.1651   -4.2111   21.0975 F   0  0  0  0  0  0
  -21.5642   -3.4533   25.7744 F   0  0  0  0  0  0
  -29.9751  -13.5449   20.3817 N   0  0  0  0  0  0
  -26.2912  -12.9440   20.3252 N   0  0  0  0  0  0
  -25.9315  -11.6575   20.5680 N   0  0  0  0  0  0
  -22.0430  -12.8223   22.0494 N   0  0  0  0  0  0
  -25.4145  -15.1954   20.4187 N   0  0  0  0  0  0
  -31.8150  -14.8419   20.2174 O   0  0  0  0  0  0
  -21.6633   -6.8859   21.4242 O   0  0  0  0  0  0
  -22.3464  -14.5503   20.6745 O   0  0  0  0  0  0
  -24.6299  -31.8527   23.1979 C   0  0  0  0  0  0
  -25.9120  -32.4748   23.8329 C   0  0  1  0  0  0
  -27.2250  -27.2429   20.1293 C   0  0  0  0  0  0
  -25.5917  -33.8559   24.2234 N   0  0  0  0  0  0
  -23.4312  -30.4729   21.5423 C   0  0  2  0  0  0
  -24.8809  -28.9191   20.1102 C   0  0  0  0  0  0
  -22.7497  -29.4574   22.4915 C   0  0  0  0  0  0
  -18.0276  -28.1410   22.8469 C   0  0  0  0  0  0
  -24.1489  -36.7280   23.2634 C   0  0  0  0  0  0
  -25.9786  -30.7577   21.3842 C   0  0  0  0  0  0
  -26.0526  -29.3801   20.7229 C   0  0  0  0  0  0
  -27.2257  -28.5542   20.7218 C   0  0  0  0  0  0
  -26.0300  -26.8610   19.4754 C   0  0  0  0  0  0
  -24.8761  -27.6697   19.4754 C   0  0  0  0  0  0
  -23.6521  -29.8084   20.1587 C   0  0  0  0  0  0
  -25.4115  -36.3061   24.0310 C   0  0  1  0  0  0
  -20.5877  -28.3697   23.1272 C   0  0  2  0  0  0
  -20.6767  -26.9413   22.5410 C   0  0  0  0  0  0
  -19.5762  -26.6381   21.5201 C   0  0  0  0  0  0
  -18.1935  -26.7950   22.1608 C   0  0  0  0  0  0
  -19.1526  -28.8864   23.2864 C   0  0  0  0  0  0
  -18.9463  -30.1462   23.8885 C   0  0  0  0  0  0
  -17.6467  -30.6608   24.0557 C   0  0  0  0  0  0
  -25.9057  -34.9436   23.5076 C   0  0  0  0  0  0
  -16.5350  -29.9107   23.6343 C   0  0  0  0  0  0
  -16.7259  -28.6526   23.0353 C   0  0  0  0  0  0
  -26.4488  -31.6605   25.0744 C   0  0  0  0  0  0
  -25.3698  -31.3798   26.1456 C   0  0  0  0  0  0
  -27.0330  -30.3010   24.6270 C   0  0  0  0  0  0
  -27.6034  -32.4356   25.7524 C   0  0  0  0  0  0
  -27.5583  -37.1778   24.8440 C   0  0  0  0  0  0
  -21.4194  -29.3034   22.3653 N   0  0  0  0  0  0
  -26.4272  -37.3767   23.9423 N   0  0  0  0  0  0
  -24.6994  -31.0454   22.0983 N   0  0  0  0  0  0
  -23.4179  -28.8095   23.3008 O   0  0  0  0  0  0
  -28.3132  -26.3327   20.2096 O   0  0  0  0  0  0
  -26.5632  -34.8906   22.4651 O   0  0  0  0  0  0
  -23.5442  -32.1352   23.7261 O   0  0  0  0  0  0
  -30.6571  -17.7333   23.6599 C   0  0  0  0  0  0
  -29.8426  -18.4831   21.4189 C   0  0  0  0  0  0
  -30.0764  -17.0646   21.5488 C   0  0  0  0  0  0
  -28.7771  -22.1112   20.0841 C   0  0  0  0  0  0
  -30.1130  -19.9396   17.7898 C   0  0  0  0  0  0
  -31.9368  -19.4857   19.4955 C   0  0  0  0  0  0
  -28.0941  -24.8512   19.9529 C   0  0  0  0  0  0
  -29.4825  -19.5128   20.2716 C   0  0  2  0  0  0
  -30.4665  -19.2312   19.1042 C   0  0  0  0  0  0
  -29.0603  -23.6528   20.5076 C   0  0  0  0  0  0
  -30.5271  -16.7052   22.8266 N   0  0  0  0  0  0
  -29.8463  -15.9113   20.6566 N   0  0  0  0  0  0
  -29.4808  -21.0268   20.6127 N   0  0  0  0  0  0
  -27.9080  -21.9030   19.2342 O   0  0  0  0  0  0
  -29.0340  -23.7050   21.8398 F   0  0  0  0  0  0
  -30.3016  -23.9406   20.1162 F   0  0  0  0  0  0
  -30.2247  -19.2646   22.9527 S   0  0  0  0  0  0
  -31.4689  -12.6339   19.1409 H   0  0  0  0  0  0
  -30.4083  -11.5072   19.9397 H   0  0  0  0  0  0
  -29.7894  -11.7359   17.5160 H   0  0  0  0  0  0
  -29.6272  -13.4637   17.6939 H   0  0  0  0  0  0
  -27.8923  -11.2875   18.9001 H   0  0  0  0  0  0
  -27.3752  -12.5248   17.7857 H   0  0  0  0  0  0
  -27.6215  -14.2537   19.4520 H   0  0  0  0  0  0
  -28.7280  -12.1769   21.4074 H   0  0  0  0  0  0
  -28.4129  -13.8513   21.7805 H   0  0  0  0  0  0
  -25.2757   -9.5674   22.4727 H   0  0  0  0  0  0
  -23.9994   -7.4629   22.7456 H   0  0  0  0  0  0
  -21.0806   -8.8779   19.8985 H   0  0  0  0  0  0
  -22.3675  -10.9658   19.6162 H   0  0  0  0  0  0
  -21.1992   -7.6127   23.9708 H   0  0  0  0  0  0
  -21.1510   -6.0501   25.9080 H   0  0  0  0  0  0
  -22.0592   -2.7583   23.2860 H   0  0  0  0  0  0
  -22.4033  -11.9886   22.4911 H   0  0  0  0  0  0
  -21.1050  -13.1262   22.2685 H   0  0  0  0  0  0
  -24.6503  -15.8478   20.5521 H   0  0  0  0  0  0
  -26.2570  -15.6473   20.0876 H   0  0  0  0  0  0
  -26.7174  -32.5389   23.1054 H   0  0  0  0  0  0
  -25.0043  -33.9714   25.0361 H   0  0  0  0  0  0
  -22.7281  -31.2947   21.3952 H   0  0  0  0  0  0
  -23.3759  -35.9600   23.3266 H   0  0  0  0  0  0
  -24.3580  -36.8941   22.2054 H   0  0  0  0  0  0
  -23.7218  -37.6459   23.6688 H   0  0  0  0  0  0
  -26.1187  -31.5195   20.6176 H   0  0  0  0  0  0
  -26.8531  -30.8064   22.0204 H   0  0  0  0  0  0
  -28.1219  -28.9000   21.2185 H   0  0  0  0  0  0
  -25.9539  -25.9126   18.9673 H   0  0  0  0  0  0
  -23.9798  -27.3136   18.9866 H   0  0  0  0  0  0
  -23.7819  -30.5861   19.4056 H   0  0  0  0  0  0
  -22.7717  -29.2433   19.8480 H   0  0  0  0  0  0
  -25.1298  -36.1902   25.0793 H   0  0  0  0  0  0
  -20.9947  -28.3274   24.1402 H   0  0  0  0  0  0
  -20.5666  -26.2293   23.3607 H   0  0  0  0  0  0
  -21.6645  -26.7450   22.1213 H   0  0  0  0  0  0
  -19.6938  -25.6279   21.1267 H   0  0  0  0  0  0
  -19.6744  -27.3154   20.6710 H   0  0  0  0  0  0
  -17.4201  -26.6637   21.4024 H   0  0  0  0  0  0
  -18.0375  -26.0116   22.9037 H   0  0  0  0  0  0
  -19.7935  -30.7269   24.2270 H   0  0  0  0  0  0
  -17.5030  -31.6301   24.5146 H   0  0  0  0  0  0
  -15.5358  -30.3016   23.7702 H   0  0  0  0  0  0
  -15.8645  -28.0856   22.7097 H   0  0  0  0  0  0
  -24.5866  -30.7149   25.7790 H   0  0  0  0  0  0
  -24.8895  -32.2990   26.4826 H   0  0  0  0  0  0
  -25.7990  -30.9014   27.0265 H   0  0  0  0  0  0
  -26.2926  -29.6776   24.1236 H   0  0  0  0  0  0
  -27.3912  -29.7269   25.4824 H   0  0  0  0  0  0
  -27.8850  -30.4259   23.9581 H   0  0  0  0  0  0
  -27.2631  -33.3656   26.2080 H   0  0  0  0  0  0
  -28.3861  -32.6909   25.0376 H   0  0  0  0  0  0
  -28.0673  -31.8498   26.5462 H   0  0  0  0  0  0
  -28.2532  -38.0140   24.7580 H   0  0  0  0  0  0
  -28.1150  -36.2680   24.6157 H   0  0  0  0  0  0
  -27.2319  -37.1275   25.8839 H   0  0  0  0  0  0
  -20.9376  -29.8761   21.6862 H   0  0  0  0  0  0
  -26.0151  -38.2817   24.1519 H   0  0  0  0  0  0
  -30.9959  -17.5953   24.6774 H   0  0  0  0  0  0
  -30.6917  -19.5242   16.9641 H   0  0  0  0  0  0
  -30.3236  -21.0078   17.8325 H   0  0  0  0  0  0
  -29.0595  -19.8105   17.5459 H   0  0  0  0  0  0
  -32.6126  -19.2351   18.6784 H   0  0  0  0  0  0
  -32.2436  -18.8778   20.3490 H   0  0  0  0  0  0
  -32.1038  -20.5293   19.7617 H   0  0  0  0  0  0
  -27.0982  -24.5949   20.3141 H   0  0  0  0  0  0
  -28.0487  -24.7411   18.8686 H   0  0  0  0  0  0
  -28.4734  -19.2806   19.9302 H   0  0  0  0  0  0
  -30.3788  -18.1659   18.8816 H   0  0  0  0  0  0
  -28.8685  -15.7375   20.4857 H   0  0  0  0  0  0
  -30.1502  -21.2871   21.3217 H   0  0  0  0  0  0
  1 25  1  0  0  0
  1 30  2  0  0  0
  1 82  1  0  0  0
  2  3  1  0  0  0
  2 25  1  0  0  0
  2 88  1  0  0  0
  2 89  1  0  0  0
  3  4  1  0  0  0
  3 90  1  0  0  0
  3 91  1  0  0  0
  4  5  1  0  0  0
  4 92  1  0  0  0
  4 93  1  0  0  0
  5  6  1  0  0  0
  5 26  1  0  0  0
  5 94  1  0  0  0
  6 25  1  0  0  0
  6 95  1  0  0  0
  6 96  1  0  0  0
  7  8  2  0  0  0
  7 26  1  0  0  0
  7 29  1  0  0  0
  8  9  1  0  0  0
  8 22  1  0  0  0
  9 10  1  0  0  0
  9 27  2  0  0  0
 10 11  2  0  0  0
 10 15  1  0  0  0
 11 12  1  0  0  0
 11 97  1  0  0  0
 12 13  2  0  0  0
 12 98  1  0  0  0
 13 14  1  0  0  0
 13 31  1  0  0  0
 14 15  2  0  0  0
 14 99  1  0  0  0
 15100  1  0  0  0
 16 17  2  0  0  0
 16 21  1  0  0  0
 16 31  1  0  0  0
 17 18  1  0  0  0
 17101  1  0  0  0
 18 19  2  0  0  0
 18102  1  0  0  0
 19 20  1  0  0  0
 19 24  1  0  0  0
 20 21  2  0  0  0
 20103  1  0  0  0
 21 23  1  0  0  0
 22 28  1  0  0  0
 22 32  2  0  0  0
 26 27  1  0  0  0
 28104  1  0  0  0
 28105  1  0  0  0
 29106  1  0  0  0
 29107  1  0  0  0
 33 34  1  0  0  0
 33 66  1  0  0  0
 33 70  2  0  0  0
 34 36  1  0  0  0
 34 59  1  0  0  0
 34108  1  0  0  0
 35 44  2  0  0  0
 35 45  1  0  0  0
 35 68  1  0  0  0
 36 56  1  0  0  0
 36109  1  0  0  0
 37 39  1  0  0  0
 37 47  1  0  0  0
 37 66  1  0  0  0
 37110  1  0  0  0
 38 43  2  0  0  0
 38 46  1  0  0  0
 38 47  1  0  0  0
 39 64  1  0  0  0
 39 67  2  0  0  0
 40 52  1  0  0  0
 40 53  2  0  0  0
 40 58  1  0  0  0
 41111  1  0  0  0
 41112  1  0  0  0
 41113  1  0  0  0
 41 48  1  0  0  0
 42 43  1  0  0  0
 42 66  1  0  0  0
 42114  1  0  0  0
 42115  1  0  0  0
 43 44  1  0  0  0
 44116  1  0  0  0
 45 46  2  0  0  0
 45117  1  0  0  0
 46118  1  0  0  0
 47119  1  0  0  0
 47120  1  0  0  0
 48 56  1  0  0  0
 48 65  1  0  0  0
 48121  1  0  0  0
 49 50  1  0  0  0
 49 53  1  0  0  0
 49 64  1  0  0  0
 49122  1  0  0  0
 50 51  1  0  0  0
 50123  1  0  0  0
 50124  1  0  0  0
 51 52  1  0  0  0
 51125  1  0  0  0
 51126  1  0  0  0
 52127  1  0  0  0
 52128  1  0  0  0
 53 54  1  0  0  0
 54 55  2  0  0  0
 54129  1  0  0  0
 55 57  1  0  0  0
 55130  1  0  0  0
 56 69  2  0  0  0
 57 58  2  0  0  0
 57131  1  0  0  0
 58132  1  0  0  0
 59 60  1  0  0  0
 59 61  1  0  0  0
 59 62  1  0  0  0
 60133  1  0  0  0
 60134  1  0  0  0
 60135  1  0  0  0
 61136  1  0  0  0
 61137  1  0  0  0
 61138  1  0  0  0
 62139  1  0  0  0
 62140  1  0  0  0
 62141  1  0  0  0
 63 65  1  0  0  0
 63142  1  0  0  0
 63143  1  0  0  0
 63144  1  0  0  0
 64145  1  0  0  0
 65146  1  0  0  0
 68 77  1  0  0  0
 71 81  2  0  0  0
 71 87  1  0  0  0
 71147  1  0  0  0
 72 73  2  0  0  0
 72 78  1  0  0  0
 72 87  1  0  0  0
 73 81  1  0  0  0
 73 82  1  0  0  0
 74 80  1  0  0  0
 74 83  1  0  0  0
 74 84  2  0  0  0
 75148  1  0  0  0
 75149  1  0  0  0
 75150  1  0  0  0
 75 79  1  0  0  0
 76 79  1  0  0  0
 76151  1  0  0  0
 76152  1  0  0  0
 76153  1  0  0  0
 77 80  1  0  0  0
 77154  1  0  0  0
 77155  1  0  0  0
 78 79  1  0  0  0
 78 83  1  0  0  0
 78156  1  0  0  0
 79157  1  0  0  0
 80 85  1  0  0  0
 80 86  1  0  0  0
 82158  1  0  0  0
 83159  1  0  0  0
M  ISO  4   1 100  68 101  77 101  82 100
M  END
> <chiral flag>
0

> <version>
0

> <s_m_source_file>
/data/baiqing/PycharmProjects/Reinvent-master-3.2/result/LINK_invent/BTK/process_docking_weight1_custom_product_contain_oxygen_bond_distance_aromatic_linkinvent_7_9_3/rearranged_h_0181.sdf

> <i_m_source_file_index>
27

> <r_mmod_Potential_Energy-OPLS-2005>
199.788604736328

> <r_mmod_Stretch_Energy-OPLS-2005>
150.076736450195

> <r_mmod_Bend_Energy-OPLS-2005>
200.271499633789

> <r_mmod_Torsional_Energy-OPLS-2005>
238.84455871582

> <r_mmod_Improper_Torsional_Energy-OPLS-2005>
10.1655521392822

> <r_mmod_Van_der_Waal_Energy-OPLS-2005>
115.038917541504

> <r_mmod_Electrostatic_Energy-OPLS-2005>
-381.931823730469

> <r_mmod_Solvation_Energy-OPLS-2005>
-229.491607666016

> <b_mmod_Minimization_Converged-OPLS-2005>
0

> <r_mmod_RMS_Derivative-OPLS-2005>
4.24853897094727

$$$$
27
                    3D
 Structure written by MMmdl.
155163  0  0  1  0            999 V2000
  -30.6516  -14.5595   20.6029 C   0  0  0  0  0  0
  -30.4447  -12.3734   19.4305 C   0  0  0  0  0  0
  -29.5042  -12.5282   18.2146 C   0  0  0  0  0  0
  -28.0277  -12.3636   18.6272 C   0  0  0  0  0  0
  -27.6664  -13.2067   19.8776 C   0  0  2  0  0  0
  -28.7085  -12.9890   20.9985 C   0  0  0  0  0  0
  -25.2595  -13.8129   20.5661 C   0  0  0  0  0  0
  -24.1848  -13.0415   20.9168 C   0  0  0  0  0  0
  -24.6407  -11.6884   20.8706 C   0  0  0  0  0  0
  -23.9059  -10.4273   21.0365 C   0  0  0  0  0  0
  -24.3617   -9.4201   21.9159 C   0  0  0  0  0  0
  -23.6292   -8.2243   22.0743 C   0  0  0  0  0  0
  -22.4280   -8.0274   21.3545 C   0  0  0  0  0  0
  -21.9905   -9.0229   20.4637 C   0  0  0  0  0  0
  -22.7220  -10.2120   20.3028 C   0  0  0  0  0  0
  -21.6865   -6.0730   22.5263 C   0  0  0  0  0  0
  -21.4017   -6.5622   23.8198 C   0  0  0  0  0  0
  -21.3662   -5.6779   24.9162 C   0  0  0  0  0  0
  -21.6051   -4.3037   24.7217 C   0  0  0  0  0  0
  -21.8819   -3.8136   23.4339 C   0  0  0  0  0  0
  -21.9201   -4.6948   22.3398 C   0  0  0  0  0  0
  -22.7884  -13.5216   21.1820 C   0  0  0  0  0  0
  -22.1667   -4.2141   21.0977 F   0  0  0  0  0  0
  -21.5626   -3.4527   25.7728 F   0  0  0  0  0  0
  -30.0391  -13.3427   20.4645 N   0  0  0  0  0  0
  -26.3052  -12.9314   20.3372 N   0  0  0  0  0  0
  -25.9341  -11.6475   20.5778 N   0  0  0  0  0  0
  -22.0538  -12.8231   22.0388 N   0  0  0  0  0  0
  -25.4258  -15.1858   20.4089 N   0  0  0  0  0  0
  -31.7118  -14.8311   20.0258 O   0  0  0  0  0  0
  -21.6643   -6.8872   21.4232 O   0  0  0  0  0  0
  -22.3576  -14.5517   20.6642 O   0  0  0  0  0  0
  -24.6203  -31.8620   23.2026 C   0  0  0  0  0  0
  -25.9073  -32.4801   23.8354 C   0  0  1  0  0  0
  -27.2352  -27.3838   20.1168 C   0  0  0  0  0  0
  -25.5890  -33.8601   24.2273 N   0  0  0  0  0  0
  -23.4122  -30.4831   21.5465 C   0  0  2  0  0  0
  -24.8588  -28.9383   20.1162 C   0  0  0  0  0  0
  -22.7467  -29.4614   22.4965 C   0  0  0  0  0  0
  -18.0288  -28.1394   22.8464 C   0  0  0  0  0  0
  -24.1482  -36.7313   23.2634 C   0  0  0  0  0  0
  -25.9443  -30.8160   21.3602 C   0  0  0  0  0  0
  -26.0220  -29.4447   20.7105 C   0  0  0  0  0  0
  -27.2165  -28.6798   20.6968 C   0  0  0  0  0  0
  -26.0548  -26.9015   19.5154 C   0  0  0  0  0  0
  -24.8738  -27.6701   19.5096 C   0  0  0  0  0  0
  -23.6223  -29.8108   20.1634 C   0  0  0  0  0  0
  -25.4104  -36.3099   24.0327 C   0  0  1  0  0  0
  -20.5876  -28.3680   23.1299 C   0  0  2  0  0  0
  -20.6776  -26.9407   22.5413 C   0  0  0  0  0  0
  -19.5759  -26.6378   21.5215 C   0  0  0  0  0  0
  -18.1934  -26.7931   22.1619 C   0  0  0  0  0  0
  -19.1534  -28.8865   23.2867 C   0  0  0  0  0  0
  -18.9468  -30.1474   23.8874 C   0  0  0  0  0  0
  -17.6459  -30.6582   24.0586 C   0  0  0  0  0  0
  -25.9043  -34.9467   23.5103 C   0  0  0  0  0  0
  -16.5352  -29.9086   23.6337 C   0  0  0  0  0  0
  -16.7269  -28.6524   23.0317 C   0  0  0  0  0  0
  -26.4462  -31.6606   25.0718 C   0  0  0  0  0  0
  -25.3706  -31.3774   26.1464 C   0  0  0  0  0  0
  -27.0299  -30.3037   24.6127 C   0  0  0  0  0  0
  -27.6019  -32.4356   25.7482 C   0  0  0  0  0  0
  -27.5587  -37.1797   24.8458 C   0  0  0  0  0  0
  -21.4187  -29.3029   22.3714 N   0  0  0  0  0  0
  -26.4284  -37.3799   23.9420 N   0  0  0  0  0  0
  -24.6782  -31.0688   22.0948 N   0  0  0  0  0  0
  -23.4221  -28.8144   23.3026 O   0  0  0  0  0  0
  -28.3780  -26.5988   20.1093 O   0  0  0  0  0  0
  -26.5631  -34.8927   22.4684 O   0  0  0  0  0  0
  -23.5383  -32.1367   23.7396 O   0  0  0  0  0  0
  -28.1544  -16.7178   21.9255 C   0  0  0  0  0  0
  -27.9788  -19.0826   21.4760 C   0  0  0  0  0  0
  -27.4124  -17.9087   22.0046 C   0  0  0  0  0  0
  -29.4325  -16.6921   21.3373 C   0  0  0  0  0  0
  -29.2524  -19.0278   20.8920 C   0  0  0  0  0  0
  -26.0828  -17.9001   22.6518 C   0  0  0  0  0  0
  -29.0001  -22.6909   20.6703 C   0  0  0  0  0  0
  -28.6784  -24.0691   19.9423 C   0  0  0  0  0  0
  -29.0530  -21.3605   19.8484 C   0  0  0  0  0  0
  -28.2842  -25.3139   20.8020 C   0  0  0  0  0  0
  -29.9657  -17.8548   20.8277 N   0  0  0  0  0  0
  -25.3796  -18.9257   22.8909 N   0  0  0  0  0  0
  -30.0486  -15.3944   21.4825 N   0  0  0  0  0  0
  -29.8429  -20.2146   20.4012 N   0  0  0  0  0  0
  -29.2025  -22.6635   21.8903 O   0  0  0  0  0  0
  -28.7495  -24.1577   18.7094 O   0  0  0  0  0  0
  -31.4830  -12.5110   19.1243 H   0  0  0  0  0  0
  -30.3910  -11.3606   19.8293 H   0  0  0  0  0  0
  -29.7576  -11.7896   17.4530 H   0  0  0  0  0  0
  -29.6543  -13.5055   17.7511 H   0  0  0  0  0  0
  -27.8564  -11.3063   18.8332 H   0  0  0  0  0  0
  -27.3700  -12.6176   17.7950 H   0  0  0  0  0  0
  -27.7069  -14.2557   19.5820 H   0  0  0  0  0  0
  -28.7130  -11.9459   21.3156 H   0  0  0  0  0  0
  -28.4321  -13.5513   21.8888 H   0  0  0  0  0  0
  -25.2766   -9.5690   22.4727 H   0  0  0  0  0  0
  -23.9996   -7.4654   22.7468 H   0  0  0  0  0  0
  -21.0832   -8.8730   19.8971 H   0  0  0  0  0  0
  -22.3643  -10.9651   19.6136 H   0  0  0  0  0  0
  -21.2011   -7.6132   23.9697 H   0  0  0  0  0  0
  -21.1486   -6.0512   25.9064 H   0  0  0  0  0  0
  -22.0611   -2.7597   23.2839 H   0  0  0  0  0  0
  -22.4154  -11.9914   22.4820 H   0  0  0  0  0  0
  -21.1149  -13.1247   22.2548 H   0  0  0  0  0  0
  -24.6305  -15.8117   20.4617 H   0  0  0  0  0  0
  -26.2637  -15.6353   20.0637 H   0  0  0  0  0  0
  -26.7161  -32.5489   23.1124 H   0  0  0  0  0  0
  -25.0058  -33.9778   25.0430 H   0  0  0  0  0  0
  -22.7034  -31.3003   21.4015 H   0  0  0  0  0  0
  -23.3754  -35.9643   23.3274 H   0  0  0  0  0  0
  -24.3590  -36.8957   22.2060 H   0  0  0  0  0  0
  -23.7221  -37.6495   23.6677 H   0  0  0  0  0  0
  -26.0582  -31.5786   20.5890 H   0  0  0  0  0  0
  -26.8332  -30.8748   21.9767 H   0  0  0  0  0  0
  -28.1146  -29.0705   21.1540 H   0  0  0  0  0  0
  -26.0447  -25.9286   19.0474 H   0  0  0  0  0  0
  -23.9845  -27.2799   19.0350 H   0  0  0  0  0  0
  -23.7346  -30.5840   19.4030 H   0  0  0  0  0  0
  -22.7451  -29.2321   19.8671 H   0  0  0  0  0  0
  -25.1278  -36.1944   25.0824 H   0  0  0  0  0  0
  -20.9963  -28.3239   24.1422 H   0  0  0  0  0  0
  -20.5696  -26.2287   23.3605 H   0  0  0  0  0  0
  -21.6642  -26.7453   22.1185 H   0  0  0  0  0  0
  -19.6934  -25.6289   21.1244 H   0  0  0  0  0  0
  -19.6703  -27.3205   20.6762 H   0  0  0  0  0  0
  -17.4202  -26.6674   21.4017 H   0  0  0  0  0  0
  -18.0331  -26.0067   22.9015 H   0  0  0  0  0  0
  -19.7951  -30.7312   24.2174 H   0  0  0  0  0  0
  -17.5027  -31.6257   24.5213 H   0  0  0  0  0  0
  -15.5359  -30.3008   23.7667 H   0  0  0  0  0  0
  -15.8666  -28.0892   22.6973 H   0  0  0  0  0  0
  -24.5798  -30.7220   25.7786 H   0  0  0  0  0  0
  -24.9002  -32.2980   26.4935 H   0  0  0  0  0  0
  -25.8012  -30.8877   27.0204 H   0  0  0  0  0  0
  -26.2875  -29.6798   24.1125 H   0  0  0  0  0  0
  -27.3995  -29.7269   25.4610 H   0  0  0  0  0  0
  -27.8734  -30.4342   23.9346 H   0  0  0  0  0  0
  -27.2594  -33.3620   26.2101 H   0  0  0  0  0  0
  -28.3790  -32.6975   25.0297 H   0  0  0  0  0  0
  -28.0727  -31.8468   26.5352 H   0  0  0  0  0  0
  -28.2557  -38.0134   24.7547 H   0  0  0  0  0  0
  -28.1111  -36.2661   24.6209 H   0  0  0  0  0  0
  -27.2325  -37.1378   25.8863 H   0  0  0  0  0  0
  -20.9375  -29.8745   21.6905 H   0  0  0  0  0  0
  -26.0148  -38.2856   24.1478 H   0  0  0  0  0  0
  -27.7223  -15.8198   22.3467 H   0  0  0  0  0  0
  -27.4438  -20.0179   21.5482 H   0  0  0  0  0  0
  -25.7020  -16.9156   22.9362 H   0  0  0  0  0  0
  -29.4678  -21.5990   18.8689 H   0  0  0  0  0  0
  -28.0253  -21.0525   19.6556 H   0  0  0  0  0  0
  -28.9403  -25.3580   21.6711 H   0  0  0  0  0  0
  -27.2799  -25.1536   21.1961 H   0  0  0  0  0  0
  -25.8636  -19.7591   22.5795 H   0  0  0  0  0  0
  -29.5051  -14.8261   22.1105 H   0  0  0  0  0  0
  -30.7983  -20.1457   20.0696 H   0  0  0  0  0  0
  1 25  1  0  0  0
  1 30  2  0  0  0
  1 83  1  0  0  0
  2  3  1  0  0  0
  2 25  1  0  0  0
  2 87  1  0  0  0
  2 88  1  0  0  0
  3  4  1  0  0  0
  3 89  1  0  0  0
  3 90  1  0  0  0
  4  5  1  0  0  0
  4 91  1  0  0  0
  4 92  1  0  0  0
  5  6  1  0  0  0
  5 26  1  0  0  0
  5 93  1  0  0  0
  6 25  1  0  0  0
  6 94  1  0  0  0
  6 95  1  0  0  0
  7  8  2  0  0  0
  7 26  1  0  0  0
  7 29  1  0  0  0
  8  9  1  0  0  0
  8 22  1  0  0  0
  9 10  1  0  0  0
  9 27  2  0  0  0
 10 11  2  0  0  0
 10 15  1  0  0  0
 11 12  1  0  0  0
 11 96  1  0  0  0
 12 13  2  0  0  0
 12 97  1  0  0  0
 13 14  1  0  0  0
 13 31  1  0  0  0
 14 15  2  0  0  0
 14 98  1  0  0  0
 15 99  1  0  0  0
 16 17  2  0  0  0
 16 21  1  0  0  0
 16 31  1  0  0  0
 17 18  1  0  0  0
 17100  1  0  0  0
 18 19  2  0  0  0
 18101  1  0  0  0
 19 20  1  0  0  0
 19 24  1  0  0  0
 20 21  2  0  0  0
 20102  1  0  0  0
 21 23  1  0  0  0
 22 28  1  0  0  0
 22 32  2  0  0  0
 26 27  1  0  0  0
 28103  1  0  0  0
 28104  1  0  0  0
 29105  1  0  0  0
 29106  1  0  0  0
 33 34  1  0  0  0
 33 66  1  0  0  0
 33 70  2  0  0  0
 34 36  1  0  0  0
 34 59  1  0  0  0
 34107  1  0  0  0
 35 44  2  0  0  0
 35 45  1  0  0  0
 35 68  1  0  0  0
 36 56  1  0  0  0
 36108  1  0  0  0
 37 39  1  0  0  0
 37 47  1  0  0  0
 37 66  1  0  0  0
 37109  1  0  0  0
 38 43  2  0  0  0
 38 46  1  0  0  0
 38 47  1  0  0  0
 39 64  1  0  0  0
 39 67  2  0  0  0
 40 52  1  0  0  0
 40 53  2  0  0  0
 40 58  1  0  0  0
 41110  1  0  0  0
 41111  1  0  0  0
 41112  1  0  0  0
 41 48  1  0  0  0
 42 43  1  0  0  0
 42 66  1  0  0  0
 42113  1  0  0  0
 42114  1  0  0  0
 43 44  1  0  0  0
 44115  1  0  0  0
 45 46  2  0  0  0
 45116  1  0  0  0
 46117  1  0  0  0
 47118  1  0  0  0
 47119  1  0  0  0
 48 56  1  0  0  0
 48 65  1  0  0  0
 48120  1  0  0  0
 49 50  1  0  0  0
 49 53  1  0  0  0
 49 64  1  0  0  0
 49121  1  0  0  0
 50 51  1  0  0  0
 50122  1  0  0  0
 50123  1  0  0  0
 51 52  1  0  0  0
 51124  1  0  0  0
 51125  1  0  0  0
 52126  1  0  0  0
 52127  1  0  0  0
 53 54  1  0  0  0
 54 55  2  0  0  0
 54128  1  0  0  0
 55 57  1  0  0  0
 55129  1  0  0  0
 56 69  2  0  0  0
 57 58  2  0  0  0
 57130  1  0  0  0
 58131  1  0  0  0
 59 60  1  0  0  0
 59 61  1  0  0  0
 59 62  1  0  0  0
 60132  1  0  0  0
 60133  1  0  0  0
 60134  1  0  0  0
 61135  1  0  0  0
 61136  1  0  0  0
 61137  1  0  0  0
 62138  1  0  0  0
 62139  1  0  0  0
 62140  1  0  0  0
 63 65  1  0  0  0
 63141  1  0  0  0
 63142  1  0  0  0
 63143  1  0  0  0
 64144  1  0  0  0
 65145  1  0  0  0
 68 80  1  0  0  0
 71 73  2  0  0  0
 71 74  1  0  0  0
 71146  1  0  0  0
 72 73  1  0  0  0
 72 75  2  0  0  0
 72147  1  0  0  0
 73 76  1  0  0  0
 74 81  2  0  0  0
 74 83  1  0  0  0
 75 81  1  0  0  0
 75 84  1  0  0  0
 76 82  2  0  0  0
 76148  1  0  0  0
 77 78  1  0  0  0
 77 79  1  0  0  0
 77 85  2  0  0  0
 78 80  1  0  0  0
 78 86  2  0  0  0
 79 84  1  0  0  0
 79149  1  0  0  0
 79150  1  0  0  0
 80151  1  0  0  0
 80152  1  0  0  0
 82153  1  0  0  0
 83154  1  0  0  0
 84155  1  0  0  0
M  ISO  4   1 100  68 101  80 101  83 100
M  END
> <chiral flag>
0

> <version>
0

> <s_m_source_file>
/data/baiqing/PycharmProjects/Reinvent-master-3.2/result/LINK_invent/BTK/process_docking_weight1_custom_product_contain_oxygen_bond_distance_aromatic_linkinvent_7_9_3/rearranged_h_0181.sdf

> <i_m_source_file_index>
28

> <r_mmod_Potential_Energy-OPLS-2005>
-226.433349609375

> <r_mmod_Stretch_Energy-OPLS-2005>
60.6661109924316

> <r_mmod_Bend_Energy-OPLS-2005>
139.397613525391

> <r_mmod_Torsional_Energy-OPLS-2005>
245.287826538086

> <r_mmod_Improper_Torsional_Energy-OPLS-2005>
8.11600303649902

> <r_mmod_Van_der_Waal_Energy-OPLS-2005>
136.256759643555

> <r_mmod_Electrostatic_Energy-OPLS-2005>
-554.302490234375

> <r_mmod_Solvation_Energy-OPLS-2005>
-287.446655273438

> <b_mmod_Minimization_Converged-OPLS-2005>
0

> <r_mmod_RMS_Derivative-OPLS-2005>
3.02705812454224

$$$$
28
                    3D
 Structure written by MMmdl.
162170  0  0  1  0            999 V2000
  -30.6642  -14.5997   20.5539 C   0  0  0  0  0  0
  -30.4531  -12.3945   19.4258 C   0  0  0  0  0  0
  -29.5165  -12.5252   18.2029 C   0  0  0  0  0  0
  -28.0416  -12.3606   18.6186 C   0  0  0  0  0  0
  -27.6651  -13.2145   19.8611 C   0  0  2  0  0  0
  -28.7148  -13.0464   20.9881 C   0  0  0  0  0  0
  -25.2647  -13.8140   20.5708 C   0  0  0  0  0  0
  -24.1905  -13.0454   20.9177 C   0  0  0  0  0  0
  -24.6443  -11.6906   20.8693 C   0  0  0  0  0  0
  -23.9101  -10.4310   21.0398 C   0  0  0  0  0  0
  -24.3649   -9.4228   21.9197 C   0  0  0  0  0  0
  -23.6311   -8.2271   22.0761 C   0  0  0  0  0  0
  -22.4293   -8.0308   21.3538 C   0  0  0  0  0  0
  -21.9932   -9.0289   20.4652 C   0  0  0  0  0  0
  -22.7259  -10.2152   20.3065 C   0  0  0  0  0  0
  -21.6859   -6.0756   22.5291 C   0  0  0  0  0  0
  -21.4000   -6.5639   23.8238 C   0  0  0  0  0  0
  -21.3660   -5.6771   24.9180 C   0  0  0  0  0  0
  -21.6038   -4.3035   24.7223 C   0  0  0  0  0  0
  -21.8830   -3.8155   23.4329 C   0  0  0  0  0  0
  -21.9193   -4.6982   22.3401 C   0  0  0  0  0  0
  -22.7911  -13.5240   21.1871 C   0  0  0  0  0  0
  -22.1676   -4.2182   21.0978 F   0  0  0  0  0  0
  -21.5631   -3.4528   25.7730 F   0  0  0  0  0  0
  -30.0328  -13.3923   20.4273 N   0  0  0  0  0  0
  -26.3073  -12.9345   20.3260 N   0  0  0  0  0  0
  -25.9363  -11.6489   20.5665 N   0  0  0  0  0  0
  -22.0513  -12.8290   22.0400 N   0  0  0  0  0  0
  -25.4301  -15.1896   20.4195 N   0  0  0  0  0  0
  -31.8086  -14.7872   20.1234 O   0  0  0  0  0  0
  -21.6611   -6.8913   21.4271 O   0  0  0  0  0  0
  -22.3644  -14.5574   20.6697 O   0  0  0  0  0  0
  -24.6292  -31.8617   23.1858 C   0  0  0  0  0  0
  -25.9121  -32.4774   23.8219 C   0  0  1  0  0  0
  -27.2365  -27.3426   20.0812 C   0  0  0  0  0  0
  -25.5971  -33.8551   24.2238 N   0  0  0  0  0  0
  -23.4148  -30.4829   21.5370 C   0  0  2  0  0  0
  -24.8449  -28.9096   20.1188 C   0  0  0  0  0  0
  -22.7411  -29.4767   22.4976 C   0  0  0  0  0  0
  -18.0291  -28.1494   22.8478 C   0  0  0  0  0  0
  -24.1484  -36.7187   23.2638 C   0  0  0  0  0  0
  -25.9476  -30.7932   21.3369 C   0  0  0  0  0  0
  -26.0152  -29.4163   20.6946 C   0  0  0  0  0  0
  -27.2070  -28.6473   20.6531 C   0  0  0  0  0  0
  -26.0150  -26.8304   19.5858 C   0  0  0  0  0  0
  -24.8425  -27.6183   19.5648 C   0  0  0  0  0  0
  -23.6090  -29.7836   20.1656 C   0  0  0  0  0  0
  -25.4131  -36.3079   24.0359 C   0  0  1  0  0  0
  -20.5876  -28.3786   23.1274 C   0  0  2  0  0  0
  -20.6771  -26.9518   22.5393 C   0  0  0  0  0  0
  -19.5758  -26.6500   21.5194 C   0  0  0  0  0  0
  -18.1951  -26.8050   22.1621 C   0  0  0  0  0  0
  -19.1540  -28.8952   23.2886 C   0  0  0  0  0  0
  -18.9474  -30.1559   23.8909 C   0  0  0  0  0  0
  -17.6472  -30.6662   24.0638 C   0  0  0  0  0  0
  -25.9095  -34.9458   23.5117 C   0  0  0  0  0  0
  -16.5366  -29.9163   23.6398 C   0  0  0  0  0  0
  -16.7284  -28.6620   23.0343 C   0  0  0  0  0  0
  -26.4452  -31.6547   25.0595 C   0  0  0  0  0  0
  -25.3656  -31.3603   26.1295 C   0  0  0  0  0  0
  -27.0235  -30.2989   24.5960 C   0  0  0  0  0  0
  -27.6122  -32.4120   25.7372 C   0  0  0  0  0  0
  -27.5602  -37.1762   24.8512 C   0  0  0  0  0  0
  -21.4133  -29.3132   22.3636 N   0  0  0  0  0  0
  -26.4319  -37.3778   23.9448 N   0  0  0  0  0  0
  -24.6862  -31.0616   22.0808 N   0  0  0  0  0  0
  -23.4091  -28.8399   23.3153 O   0  0  0  0  0  0
  -28.4589  -26.6588   20.0914 O   0  0  0  0  0  0
  -26.5648  -34.8963   22.4670 O   0  0  0  0  0  0
  -23.5465  -32.1442   23.7225 O   0  0  0  0  0  0
  -30.6202  -18.1400   23.5838 C   0  0  0  0  0  0
  -30.3925  -16.9276   22.9205 C   0  0  0  0  0  0
  -30.7234  -19.3407   22.8511 C   0  0  0  0  0  0
  -30.2615  -16.9026   21.5238 C   0  0  0  0  0  0
  -30.4568  -19.3042   21.4507 C   0  0  0  0  0  0
  -29.5884  -21.6140   20.8451 C   0  0  0  0  0  0
  -30.2810  -25.8507   18.9274 C   0  0  0  0  0  0
  -28.0401  -24.9719   18.1727 C   0  0  0  0  0  0
  -29.7862  -22.9036   19.9704 C   0  0  0  0  0  0
  -29.0396  -24.2205   20.4484 C   0  0  0  0  0  0
  -31.1230  -20.5995   23.6336 C   0  0  0  0  0  0
  -28.8726  -25.4133   19.4151 C   0  0  0  0  0  0
  -30.2777  -18.0847   20.8255 N   0  0  0  0  0  0
  -30.4182  -20.5363   20.6837 N   0  0  0  0  0  0
  -29.8854  -15.6255   20.9817 N   0  0  0  0  0  0
  -28.6569  -21.5938   21.6510 O   0  0  0  0  0  0
  -30.0401  -21.1990   24.1255 F   0  0  0  0  0  0
  -31.8959  -20.2488   24.6631 F   0  0  0  0  0  0
  -31.8216  -21.4755   22.9054 F   0  0  0  0  0  0
  -30.3979  -11.3890   19.8450 H   0  0  0  0  0  0
  -31.4926  -12.5275   19.1163 H   0  0  0  0  0  0
  -29.7858  -11.7758   17.4564 H   0  0  0  0  0  0
  -29.6587  -13.4961   17.7218 H   0  0  0  0  0  0
  -27.8833  -11.3028   18.8236 H   0  0  0  0  0  0
  -27.3846  -12.6009   17.7801 H   0  0  0  0  0  0
  -27.6877  -14.2562   19.5376 H   0  0  0  0  0  0
  -28.7282  -12.0149   21.3495 H   0  0  0  0  0  0
  -28.4557  -13.6566   21.8528 H   0  0  0  0  0  0
  -25.2826   -9.5695   22.4745 H   0  0  0  0  0  0
  -24.0015   -7.4664   22.7477 H   0  0  0  0  0  0
  -21.0857   -8.8819   19.8969 H   0  0  0  0  0  0
  -22.3752  -10.9688   19.6154 H   0  0  0  0  0  0
  -21.1974   -7.6152   23.9771 H   0  0  0  0  0  0
  -21.1465   -6.0477   25.9088 H   0  0  0  0  0  0
  -22.0597   -2.7632   23.2814 H   0  0  0  0  0  0
  -22.4086  -11.9918   22.4767 H   0  0  0  0  0  0
  -21.1127  -13.1341   22.2562 H   0  0  0  0  0  0
  -24.6504  -15.8181   20.5789 H   0  0  0  0  0  0
  -26.2342  -15.6512   20.0188 H   0  0  0  0  0  0
  -26.7188  -32.5393   23.0963 H   0  0  0  0  0  0
  -25.0196  -33.9653   25.0448 H   0  0  0  0  0  0
  -22.7207  -31.3153   21.3824 H   0  0  0  0  0  0
  -23.3819  -35.9450   23.3376 H   0  0  0  0  0  0
  -24.3591  -36.8659   22.2034 H   0  0  0  0  0  0
  -23.7132  -37.6390   23.6541 H   0  0  0  0  0  0
  -26.0539  -31.5350   20.5443 H   0  0  0  0  0  0
  -26.8446  -30.8592   21.9423 H   0  0  0  0  0  0
  -28.1177  -29.0444   21.0744 H   0  0  0  0  0  0
  -25.9259  -25.8039   19.2583 H   0  0  0  0  0  0
  -23.9250  -27.2056   19.1662 H   0  0  0  0  0  0
  -23.6902  -30.5312   19.3761 H   0  0  0  0  0  0
  -22.7301  -29.1902   19.9055 H   0  0  0  0  0  0
  -25.1285  -36.1960   25.0848 H   0  0  0  0  0  0
  -21.0010  -28.3411   24.1378 H   0  0  0  0  0  0
  -20.5674  -26.2422   23.3602 H   0  0  0  0  0  0
  -21.6650  -26.7573   22.1211 H   0  0  0  0  0  0
  -19.6926  -25.6413   21.1232 H   0  0  0  0  0  0
  -19.6723  -27.3301   20.6727 H   0  0  0  0  0  0
  -17.4205  -26.6807   21.4041 H   0  0  0  0  0  0
  -18.0386  -26.0201   22.9027 H   0  0  0  0  0  0
  -19.7932  -30.7410   24.2239 H   0  0  0  0  0  0
  -17.5025  -31.6339   24.5269 H   0  0  0  0  0  0
  -15.5361  -30.3077   23.7777 H   0  0  0  0  0  0
  -15.8678  -28.0998   22.6986 H   0  0  0  0  0  0
  -24.6049  -30.6686   25.7608 H   0  0  0  0  0  0
  -24.8567  -32.2671   26.4568 H   0  0  0  0  0  0
  -25.8048  -30.8971   27.0142 H   0  0  0  0  0  0
  -26.2766  -29.6817   24.0952 H   0  0  0  0  0  0
  -27.3906  -29.7179   25.4421 H   0  0  0  0  0  0
  -27.8639  -30.4311   23.9143 H   0  0  0  0  0  0
  -27.2943  -33.3485   26.1955 H   0  0  0  0  0  0
  -28.3991  -32.6475   25.0182 H   0  0  0  0  0  0
  -28.0672  -31.8102   26.5247 H   0  0  0  0  0  0
  -28.2683  -38.0022   24.7618 H   0  0  0  0  0  0
  -28.1057  -36.2576   24.6307 H   0  0  0  0  0  0
  -27.2337  -37.1340   25.8921 H   0  0  0  0  0  0
  -20.9346  -29.8649   21.6639 H   0  0  0  0  0  0
  -26.0229  -38.2862   24.1446 H   0  0  0  0  0  0
  -30.7155  -18.1300   24.6632 H   0  0  0  0  0  0
  -30.2996  -16.0233   23.5055 H   0  0  0  0  0  0
  -30.8675  -25.0268   18.5202 H   0  0  0  0  0  0
  -30.8755  -26.2707   19.7426 H   0  0  0  0  0  0
  -30.2316  -26.6138   18.1470 H   0  0  0  0  0  0
  -27.5497  -25.8095   17.6752 H   0  0  0  0  0  0
  -27.2723  -24.2315   18.4152 H   0  0  0  0  0  0
  -28.6558  -24.5095   17.3968 H   0  0  0  0  0  0
  -29.4345  -22.6502   18.9725 H   0  0  0  0  0  0
  -30.8576  -23.1127   19.8836 H   0  0  0  0  0  0
  -28.0499  -23.9565   20.8293 H   0  0  0  0  0  0
  -29.5934  -24.5977   21.3122 H   0  0  0  0  0  0
  -31.0659  -20.5810   19.9087 H   0  0  0  0  0  0
  -28.9456  -15.3470   21.2084 H   0  0  0  0  0  0
  1 25  1  0  0  0
  1 30  2  0  0  0
  1 85  1  0  0  0
  2  3  1  0  0  0
  2 25  1  0  0  0
  2 90  1  0  0  0
  2 91  1  0  0  0
  3  4  1  0  0  0
  3 92  1  0  0  0
  3 93  1  0  0  0
  4  5  1  0  0  0
  4 94  1  0  0  0
  4 95  1  0  0  0
  5  6  1  0  0  0
  5 26  1  0  0  0
  5 96  1  0  0  0
  6 25  1  0  0  0
  6 97  1  0  0  0
  6 98  1  0  0  0
  7  8  2  0  0  0
  7 26  1  0  0  0
  7 29  1  0  0  0
  8  9  1  0  0  0
  8 22  1  0  0  0
  9 10  1  0  0  0
  9 27  2  0  0  0
 10 11  2  0  0  0
 10 15  1  0  0  0
 11 12  1  0  0  0
 11 99  1  0  0  0
 12 13  2  0  0  0
 12100  1  0  0  0
 13 14  1  0  0  0
 13 31  1  0  0  0
 14 15  2  0  0  0
 14101  1  0  0  0
 15102  1  0  0  0
 16 17  2  0  0  0
 16 21  1  0  0  0
 16 31  1  0  0  0
 17 18  1  0  0  0
 17103  1  0  0  0
 18 19  2  0  0  0
 18104  1  0  0  0
 19 20  1  0  0  0
 19 24  1  0  0  0
 20 21  2  0  0  0
 20105  1  0  0  0
 21 23  1  0  0  0
 22 28  1  0  0  0
 22 32  2  0  0  0
 26 27  1  0  0  0
 28106  1  0  0  0
 28107  1  0  0  0
 29108  1  0  0  0
 29109  1  0  0  0
 33 34  1  0  0  0
 33 66  1  0  0  0
 33 70  2  0  0  0
 34 36  1  0  0  0
 34 59  1  0  0  0
 34110  1  0  0  0
 35 44  2  0  0  0
 35 45  1  0  0  0
 35 68  1  0  0  0
 36 56  1  0  0  0
 36111  1  0  0  0
 37 39  1  0  0  0
 37 47  1  0  0  0
 37 66  1  0  0  0
 37112  1  0  0  0
 38 43  2  0  0  0
 38 46  1  0  0  0
 38 47  1  0  0  0
 39 64  1  0  0  0
 39 67  2  0  0  0
 40 52  1  0  0  0
 40 53  2  0  0  0
 40 58  1  0  0  0
 41113  1  0  0  0
 41114  1  0  0  0
 41115  1  0  0  0
 41 48  1  0  0  0
 42 43  1  0  0  0
 42 66  1  0  0  0
 42116  1  0  0  0
 42117  1  0  0  0
 43 44  1  0  0  0
 44118  1  0  0  0
 45 46  2  0  0  0
 45119  1  0  0  0
 46120  1  0  0  0
 47121  1  0  0  0
 47122  1  0  0  0
 48 56  1  0  0  0
 48 65  1  0  0  0
 48123  1  0  0  0
 49 50  1  0  0  0
 49 53  1  0  0  0
 49 64  1  0  0  0
 49124  1  0  0  0
 50 51  1  0  0  0
 50125  1  0  0  0
 50126  1  0  0  0
 51 52  1  0  0  0
 51127  1  0  0  0
 51128  1  0  0  0
 52129  1  0  0  0
 52130  1  0  0  0
 53 54  1  0  0  0
 54 55  2  0  0  0
 54131  1  0  0  0
 55 57  1  0  0  0
 55132  1  0  0  0
 56 69  2  0  0  0
 57 58  2  0  0  0
 57133  1  0  0  0
 58134  1  0  0  0
 59 60  1  0  0  0
 59 61  1  0  0  0
 59 62  1  0  0  0
 60135  1  0  0  0
 60136  1  0  0  0
 60137  1  0  0  0
 61138  1  0  0  0
 61139  1  0  0  0
 61140  1  0  0  0
 62141  1  0  0  0
 62142  1  0  0  0
 62143  1  0  0  0
 63 65  1  0  0  0
 63144  1  0  0  0
 63145  1  0  0  0
 63146  1  0  0  0
 64147  1  0  0  0
 65148  1  0  0  0
 68 82  1  0  0  0
 71 72  2  0  0  0
 71 73  1  0  0  0
 71149  1  0  0  0
 72 74  1  0  0  0
 72150  1  0  0  0
 73 75  2  0  0  0
 73 81  1  0  0  0
 74 83  2  0  0  0
 74 85  1  0  0  0
 75 83  1  0  0  0
 75 84  1  0  0  0
 76 79  1  0  0  0
 76 84  1  0  0  0
 76 86  2  0  0  0
 77151  1  0  0  0
 77152  1  0  0  0
 77153  1  0  0  0
 77 82  1  0  0  0
 78 82  1  0  0  0
 78154  1  0  0  0
 78155  1  0  0  0
 78156  1  0  0  0
 79 80  1  0  0  0
 79157  1  0  0  0
 79158  1  0  0  0
 80 82  1  0  0  0
 80159  1  0  0  0
 80160  1  0  0  0
 81 87  1  0  0  0
 81 88  1  0  0  0
 81 89  1  0  0  0
 84161  1  0  0  0
 85162  1  0  0  0
M  ISO  4   1 100  68 101  82 101  85 100
M  END
> <chiral flag>
0

> <version>
0

> <s_m_source_file>
/data/baiqing/PycharmProjects/Reinvent-master-3.2/result/LINK_invent/BTK/process_docking_weight1_custom_product_contain_oxygen_bond_distance_aromatic_linkinvent_7_9_3/rearranged_h_0181.sdf

> <i_m_source_file_index>
29

> <r_mmod_Potential_Energy-OPLS-2005>
-81.5867385864258

> <r_mmod_Stretch_Energy-OPLS-2005>
72.1363067626953

> <r_mmod_Bend_Energy-OPLS-2005>
171.479782104492

> <r_mmod_Torsional_Energy-OPLS-2005>
275.28759765625

> <r_mmod_Improper_Torsional_Energy-OPLS-2005>
7.21839046478271

> <r_mmod_Van_der_Waal_Energy-OPLS-2005>
149.426239013672

> <r_mmod_Electrostatic_Energy-OPLS-2005>
-562.303100585938

> <r_mmod_Solvation_Energy-OPLS-2005>
-231.066284179688

> <b_mmod_Minimization_Converged-OPLS-2005>
0

> <r_mmod_RMS_Derivative-OPLS-2005>
8.2263355255127

$$$$
29
                    3D
 Structure written by MMmdl.
159167  0  0  1  0            999 V2000
  -30.7008  -14.4501   20.6338 C   0  0  0  0  0  0
  -30.4338  -12.3143   19.4095 C   0  0  0  0  0  0
  -29.4976  -12.5277   18.2017 C   0  0  0  0  0  0
  -28.0176  -12.3847   18.6111 C   0  0  0  0  0  0
  -27.6690  -13.2039   19.8826 C   0  0  2  0  0  0
  -28.7085  -12.9411   20.9945 C   0  0  0  0  0  0
  -25.2611  -13.8149   20.5670 C   0  0  0  0  0  0
  -24.1855  -13.0448   20.9144 C   0  0  0  0  0  0
  -24.6403  -11.6896   20.8708 C   0  0  0  0  0  0
  -23.9066  -10.4287   21.0387 C   0  0  0  0  0  0
  -24.3614   -9.4211   21.9178 C   0  0  0  0  0  0
  -23.6280   -8.2252   22.0755 C   0  0  0  0  0  0
  -22.4265   -8.0283   21.3543 C   0  0  0  0  0  0
  -21.9907   -9.0252   20.4640 C   0  0  0  0  0  0
  -22.7241  -10.2122   20.3039 C   0  0  0  0  0  0
  -21.6848   -6.0735   22.5264 C   0  0  0  0  0  0
  -21.3995   -6.5632   23.8195 C   0  0  0  0  0  0
  -21.3647   -5.6784   24.9154 C   0  0  0  0  0  0
  -21.6050   -4.3052   24.7205 C   0  0  0  0  0  0
  -21.8833   -3.8145   23.4323 C   0  0  0  0  0  0
  -21.9202   -4.6964   22.3384 C   0  0  0  0  0  0
  -22.7872  -13.5235   21.1819 C   0  0  0  0  0  0
  -22.1674   -4.2158   21.0962 F   0  0  0  0  0  0
  -21.5633   -3.4534   25.7722 F   0  0  0  0  0  0
  -30.0460  -13.2676   20.4609 N   0  0  0  0  0  0
  -26.3060  -12.9321   20.3393 N   0  0  0  0  0  0
  -25.9335  -11.6473   20.5757 N   0  0  0  0  0  0
  -22.0515  -12.8221   22.0371 N   0  0  0  0  0  0
  -25.4348  -15.1876   20.4102 N   0  0  0  0  0  0
  -31.7755  -14.7122   20.0822 O   0  0  0  0  0  0
  -21.6639   -6.8875   21.4227 O   0  0  0  0  0  0
  -22.3554  -14.5558   20.6685 O   0  0  0  0  0  0
  -24.6136  -31.8709   23.2122 C   0  0  0  0  0  0
  -25.9051  -32.4823   23.8406 C   0  0  1  0  0  0
  -27.2409  -27.4318   20.1580 C   0  0  0  0  0  0
  -25.5933  -33.8620   24.2357 N   0  0  0  0  0  0
  -23.4001  -30.4948   21.5493 C   0  0  2  0  0  0
  -24.8531  -28.9593   20.1183 C   0  0  0  0  0  0
  -22.7392  -29.4686   22.4985 C   0  0  0  0  0  0
  -18.0272  -28.1379   22.8500 C   0  0  0  0  0  0
  -24.1447  -36.7236   23.2633 C   0  0  0  0  0  0
  -25.9252  -30.8450   21.3598 C   0  0  0  0  0  0
  -26.0081  -29.4748   20.7208 C   0  0  0  0  0  0
  -27.2044  -28.7242   20.7363 C   0  0  0  0  0  0
  -26.0771  -26.9402   19.5301 C   0  0  0  0  0  0
  -24.8839  -27.6903   19.5135 C   0  0  0  0  0  0
  -23.6116  -29.8246   20.1637 C   0  0  0  0  0  0
  -25.4085  -36.3103   24.0357 C   0  0  1  0  0  0
  -20.5868  -28.3653   23.1318 C   0  0  2  0  0  0
  -20.6768  -26.9384   22.5426 C   0  0  0  0  0  0
  -19.5751  -26.6375   21.5222 C   0  0  0  0  0  0
  -18.1915  -26.7938   22.1602 C   0  0  0  0  0  0
  -19.1526  -28.8829   23.2916 C   0  0  0  0  0  0
  -18.9458  -30.1441   23.8930 C   0  0  0  0  0  0
  -17.6467  -30.6586   24.0576 C   0  0  0  0  0  0
  -25.9041  -34.9476   23.5143 C   0  0  0  0  0  0
  -16.5350  -29.9093   23.6348 C   0  0  0  0  0  0
  -16.7263  -28.6509   23.0369 C   0  0  0  0  0  0
  -26.4491  -31.6569   25.0703 C   0  0  0  0  0  0
  -25.3775  -31.3654   26.1458 C   0  0  0  0  0  0
  -27.0289  -30.3012   24.6016 C   0  0  0  0  0  0
  -27.6081  -32.4262   25.7483 C   0  0  0  0  0  0
  -27.5576  -37.1749   24.8468 C   0  0  0  0  0  0
  -21.4122  -29.3034   22.3717 N   0  0  0  0  0  0
  -26.4246  -37.3817   23.9477 N   0  0  0  0  0  0
  -24.6641  -31.0842   22.0998 N   0  0  0  0  0  0
  -23.4168  -28.8241   23.3029 O   0  0  0  0  0  0
  -28.3585  -26.6194   20.1510 O   0  0  0  0  0  0
  -26.5584  -34.8931   22.4695 O   0  0  0  0  0  0
  -23.5335  -32.1454   23.7535 O   0  0  0  0  0  0
  -30.9951  -17.5775   20.8542 C   0  0  0  0  0  0
  -30.2108  -16.6796   21.5514 C   0  0  0  0  0  0
  -29.9947  -19.0653   22.2862 C   0  0  0  0  0  0
  -28.9049  -22.6151   22.5582 C   0  0  0  0  0  0
  -27.3413  -25.5309   22.9151 C   0  0  0  0  0  0
  -28.9364  -23.8719   21.6419 C   0  0  0  0  0  0
  -29.1272  -26.4843   21.3639 C   0  0  0  0  0  0
  -29.7443  -20.3263   23.0959 C   0  0  1  0  0  0
  -28.7403  -25.2908   22.3011 C   0  0  1  0  0  0
  -30.7625  -20.4730   24.2556 C   0  0  0  0  0  0
  -30.8557  -18.9178   21.2661 N   0  0  0  0  0  0
  -30.0650  -15.3268   21.4349 N   0  0  0  0  0  0
  -29.6714  -21.5426   22.2538 N   0  0  0  0  0  0
  -28.1576  -22.5908   23.5369 O   0  0  0  0  0  0
  -29.6030  -25.3752   23.3193 F   0  0  0  0  0  0
  -30.6441  -19.4415   25.0936 F   0  0  0  0  0  0
  -32.0139  -20.4979   23.7933 F   0  0  0  0  0  0
  -30.5604  -21.5878   24.9585 F   0  0  0  0  0  0
  -29.2574  -17.5305   22.7439 S   0  0  0  0  0  0
  -31.4768  -12.4332   19.1081 H   0  0  0  0  0  0
  -30.3500  -11.2926   19.7813 H   0  0  0  0  0  0
  -29.7361  -11.8153   17.4115 H   0  0  0  0  0  0
  -29.6638  -13.5200   17.7780 H   0  0  0  0  0  0
  -27.8211  -11.3264   18.7858 H   0  0  0  0  0  0
  -27.3705  -12.6810   17.7851 H   0  0  0  0  0  0
  -27.7232  -14.2601   19.6136 H   0  0  0  0  0  0
  -28.6837  -11.8899   21.2849 H   0  0  0  0  0  0
  -28.4530  -13.4892   21.9021 H   0  0  0  0  0  0
  -25.2756   -9.5702   22.4749 H   0  0  0  0  0  0
  -23.9992   -7.4652   22.7481 H   0  0  0  0  0  0
  -21.0843   -8.8766   19.8930 H   0  0  0  0  0  0
  -22.3712  -10.9661   19.6131 H   0  0  0  0  0  0
  -21.1952   -7.6132   23.9698 H   0  0  0  0  0  0
  -21.1452   -6.0503   25.9056 H   0  0  0  0  0  0
  -22.0620   -2.7608   23.2818 H   0  0  0  0  0  0
  -22.4101  -11.9857   22.4741 H   0  0  0  0  0  0
  -21.1138  -13.1265   22.2586 H   0  0  0  0  0  0
  -24.6697  -15.8451   20.5108 H   0  0  0  0  0  0
  -26.2969  -15.6280   20.1136 H   0  0  0  0  0  0
  -26.7129  -32.5558   23.1179 H   0  0  0  0  0  0
  -25.0201  -33.9806   25.0582 H   0  0  0  0  0  0
  -22.6888  -31.3118   21.4093 H   0  0  0  0  0  0
  -23.3781  -35.9487   23.3274 H   0  0  0  0  0  0
  -24.3538  -36.8871   22.2050 H   0  0  0  0  0  0
  -23.7080  -37.6380   23.6656 H   0  0  0  0  0  0
  -26.0302  -31.6039   20.5833 H   0  0  0  0  0  0
  -26.8153  -30.9084   21.9725 H   0  0  0  0  0  0
  -28.0880  -29.1484   21.1904 H   0  0  0  0  0  0
  -26.0893  -25.9579   19.0785 H   0  0  0  0  0  0
  -23.9986  -27.2865   19.0430 H   0  0  0  0  0  0
  -23.7179  -30.6007   19.4055 H   0  0  0  0  0  0
  -22.7362  -29.2454   19.8656 H   0  0  0  0  0  0
  -25.1239  -36.1951   25.0845 H   0  0  0  0  0  0
  -20.9980  -28.3216   24.1432 H   0  0  0  0  0  0
  -20.5670  -26.2256   23.3617 H   0  0  0  0  0  0
  -21.6632  -26.7437   22.1201 H   0  0  0  0  0  0
  -19.6896  -25.6281   21.1260 H   0  0  0  0  0  0
  -19.6722  -27.3187   20.6760 H   0  0  0  0  0  0
  -17.4212  -26.6765   21.3964 H   0  0  0  0  0  0
  -18.0245  -26.0039   22.8941 H   0  0  0  0  0  0
  -19.7944  -30.7251   24.2301 H   0  0  0  0  0  0
  -17.5026  -31.6289   24.5138 H   0  0  0  0  0  0
  -15.5356  -30.3012   23.7664 H   0  0  0  0  0  0
  -15.8652  -28.0837   22.7086 H   0  0  0  0  0  0
  -24.5966  -30.6981   25.7791 H   0  0  0  0  0  0
  -24.8955  -32.2799   26.4927 H   0  0  0  0  0  0
  -25.8144  -30.8811   27.0202 H   0  0  0  0  0  0
  -26.2787  -29.6769   24.1137 H   0  0  0  0  0  0
  -27.4157  -29.7228   25.4416 H   0  0  0  0  0  0
  -27.8589  -30.4324   23.9069 H   0  0  0  0  0  0
  -27.2729  -33.3582   26.2045 H   0  0  0  0  0  0
  -28.3932  -32.6771   25.0338 H   0  0  0  0  0  0
  -28.0693  -31.8375   26.5424 H   0  0  0  0  0  0
  -28.2541  -38.0109   24.7673 H   0  0  0  0  0  0
  -28.1138  -36.2664   24.6097 H   0  0  0  0  0  0
  -27.2331  -37.1144   25.8874 H   0  0  0  0  0  0
  -20.9260  -29.8720   21.6925 H   0  0  0  0  0  0
  -26.0127  -38.2852   24.1646 H   0  0  0  0  0  0
  -31.6853  -17.3549   20.0511 H   0  0  0  0  0  0
  -26.5525  -25.3443   22.1878 H   0  0  0  0  0  0
  -27.2296  -26.5615   23.2560 H   0  0  0  0  0  0
  -27.1519  -24.8998   23.7826 H   0  0  0  0  0  0
  -28.1651  -23.7357   20.8843 H   0  0  0  0  0  0
  -29.8879  -23.8644   21.1109 H   0  0  0  0  0  0
  -30.1685  -26.3661   21.0650 H   0  0  0  0  0  0
  -29.1202  -27.4048   21.9484 H   0  0  0  0  0  0
  -28.7653  -20.1768   23.5535 H   0  0  0  0  0  0
  -29.2776  -14.9313   21.9266 H   0  0  0  0  0  0
  -30.2767  -21.5597   21.4463 H   0  0  0  0  0  0
  1 25  1  0  0  0
  1 30  2  0  0  0
  1 82  1  0  0  0
  2  3  1  0  0  0
  2 25  1  0  0  0
  2 90  1  0  0  0
  2 91  1  0  0  0
  3  4  1  0  0  0
  3 92  1  0  0  0
  3 93  1  0  0  0
  4  5  1  0  0  0
  4 94  1  0  0  0
  4 95  1  0  0  0
  5  6  1  0  0  0
  5 26  1  0  0  0
  5 96  1  0  0  0
  6 25  1  0  0  0
  6 97  1  0  0  0
  6 98  1  0  0  0
  7  8  2  0  0  0
  7 26  1  0  0  0
  7 29  1  0  0  0
  8  9  1  0  0  0
  8 22  1  0  0  0
  9 10  1  0  0  0
  9 27  2  0  0  0
 10 11  2  0  0  0
 10 15  1  0  0  0
 11 12  1  0  0  0
 11 99  1  0  0  0
 12 13  2  0  0  0
 12100  1  0  0  0
 13 14  1  0  0  0
 13 31  1  0  0  0
 14 15  2  0  0  0
 14101  1  0  0  0
 15102  1  0  0  0
 16 17  2  0  0  0
 16 21  1  0  0  0
 16 31  1  0  0  0
 17 18  1  0  0  0
 17103  1  0  0  0
 18 19  2  0  0  0
 18104  1  0  0  0
 19 20  1  0  0  0
 19 24  1  0  0  0
 20 21  2  0  0  0
 20105  1  0  0  0
 21 23  1  0  0  0
 22 28  1  0  0  0
 22 32  2  0  0  0
 26 27  1  0  0  0
 28106  1  0  0  0
 28107  1  0  0  0
 29108  1  0  0  0
 29109  1  0  0  0
 33 34  1  0  0  0
 33 66  1  0  0  0
 33 70  2  0  0  0
 34 36  1  0  0  0
 34 59  1  0  0  0
 34110  1  0  0  0
 35 44  2  0  0  0
 35 45  1  0  0  0
 35 68  1  0  0  0
 36 56  1  0  0  0
 36111  1  0  0  0
 37 39  1  0  0  0
 37 47  1  0  0  0
 37 66  1  0  0  0
 37112  1  0  0  0
 38 43  2  0  0  0
 38 46  1  0  0  0
 38 47  1  0  0  0
 39 64  1  0  0  0
 39 67  2  0  0  0
 40 52  1  0  0  0
 40 53  2  0  0  0
 40 58  1  0  0  0
 41113  1  0  0  0
 41114  1  0  0  0
 41115  1  0  0  0
 41 48  1  0  0  0
 42 43  1  0  0  0
 42 66  1  0  0  0
 42116  1  0  0  0
 42117  1  0  0  0
 43 44  1  0  0  0
 44118  1  0  0  0
 45 46  2  0  0  0
 45119  1  0  0  0
 46120  1  0  0  0
 47121  1  0  0  0
 47122  1  0  0  0
 48 56  1  0  0  0
 48 65  1  0  0  0
 48123  1  0  0  0
 49 50  1  0  0  0
 49 53  1  0  0  0
 49 64  1  0  0  0
 49124  1  0  0  0
 50 51  1  0  0  0
 50125  1  0  0  0
 50126  1  0  0  0
 51 52  1  0  0  0
 51127  1  0  0  0
 51128  1  0  0  0
 52129  1  0  0  0
 52130  1  0  0  0
 53 54  1  0  0  0
 54 55  2  0  0  0
 54131  1  0  0  0
 55 57  1  0  0  0
 55132  1  0  0  0
 56 69  2  0  0  0
 57 58  2  0  0  0
 57133  1  0  0  0
 58134  1  0  0  0
 59 60  1  0  0  0
 59 61  1  0  0  0
 59 62  1  0  0  0
 60135  1  0  0  0
 60136  1  0  0  0
 60137  1  0  0  0
 61138  1  0  0  0
 61139  1  0  0  0
 61140  1  0  0  0
 62141  1  0  0  0
 62142  1  0  0  0
 62143  1  0  0  0
 63 65  1  0  0  0
 63144  1  0  0  0
 63145  1  0  0  0
 63146  1  0  0  0
 64147  1  0  0  0
 65148  1  0  0  0
 68 77  1  0  0  0
 71 72  2  0  0  0
 71 81  1  0  0  0
 71149  1  0  0  0
 72 82  1  0  0  0
 72 89  1  0  0  0
 73 78  1  0  0  0
 73 81  2  0  0  0
 73 89  1  0  0  0
 74 76  1  0  0  0
 74 83  1  0  0  0
 74 84  2  0  0  0
 75150  1  0  0  0
 75151  1  0  0  0
 75152  1  0  0  0
 75 79  1  0  0  0
 76 79  1  0  0  0
 76153  1  0  0  0
 76154  1  0  0  0
 77 79  1  0  0  0
 77155  1  0  0  0
 77156  1  0  0  0
 78 80  1  0  0  0
 78 83  1  0  0  0
 78157  1  0  0  0
 79 85  1  0  0  0
 80 86  1  0  0  0
 80 87  1  0  0  0
 80 88  1  0  0  0
 82158  1  0  0  0
 83159  1  0  0  0
M  ISO  4   1 100  68 101  77 101  82 100
M  END
> <chiral flag>
0

> <version>
0

> <s_m_source_file>
/data/baiqing/PycharmProjects/Reinvent-master-3.2/result/LINK_invent/BTK/process_docking_weight1_custom_product_contain_oxygen_bond_distance_aromatic_linkinvent_7_9_3/rearranged_h_0181.sdf

> <i_m_source_file_index>
30

> <r_mmod_Potential_Energy-OPLS-2005>
-209.023040771484

> <r_mmod_Stretch_Energy-OPLS-2005>
43.8464584350586

> <r_mmod_Bend_Energy-OPLS-2005>
121.723045349121

> <r_mmod_Torsional_Energy-OPLS-2005>
189.044372558594

> <r_mmod_Improper_Torsional_Energy-OPLS-2005>
2.6703884601593

> <r_mmod_Van_der_Waal_Energy-OPLS-2005>
128.287673950195

> <r_mmod_Electrostatic_Energy-OPLS-2005>
-481.938507080078

> <r_mmod_Solvation_Energy-OPLS-2005>
-225.080184936523

> <b_mmod_Minimization_Converged-OPLS-2005>
0

> <r_mmod_RMS_Derivative-OPLS-2005>
2.8298761844635

$$$$
30
                    3D
 Structure written by MMmdl.
149157  0  0  1  0            999 V2000
  -30.5827  -14.8012   20.4621 C   0  0  0  0  0  0
  -30.4399  -12.4914   19.4860 C   0  0  0  0  0  0
  -29.5157  -12.5160   18.2471 C   0  0  0  0  0  0
  -28.0444  -12.3231   18.6619 C   0  0  0  0  0  0
  -27.6408  -13.2322   19.8519 C   0  0  2  0  0  0
  -28.6832  -13.1833   20.9907 C   0  0  0  0  0  0
  -25.2507  -13.8199   20.5695 C   0  0  0  0  0  0
  -24.1800  -13.0444   20.9214 C   0  0  0  0  0  0
  -24.6392  -11.6920   20.8757 C   0  0  0  0  0  0
  -23.9073  -10.4291   21.0407 C   0  0  0  0  0  0
  -24.3618   -9.4205   21.9187 C   0  0  0  0  0  0
  -23.6285   -8.2245   22.0758 C   0  0  0  0  0  0
  -22.4271   -8.0280   21.3545 C   0  0  0  0  0  0
  -21.9907   -9.0257   20.4652 C   0  0  0  0  0  0
  -22.7246  -10.2133   20.3057 C   0  0  0  0  0  0
  -21.6854   -6.0734   22.5273 C   0  0  0  0  0  0
  -21.4017   -6.5641   23.8209 C   0  0  0  0  0  0
  -21.3659   -5.6794   24.9173 C   0  0  0  0  0  0
  -21.6040   -4.3055   24.7221 C   0  0  0  0  0  0
  -21.8825   -3.8147   23.4342 C   0  0  0  0  0  0
  -21.9193   -4.6963   22.3398 C   0  0  0  0  0  0
  -22.7823  -13.5226   21.1866 C   0  0  0  0  0  0
  -22.1664   -4.2147   21.0977 F   0  0  0  0  0  0
  -21.5624   -3.4539   25.7737 F   0  0  0  0  0  0
  -29.9818  -13.5565   20.4127 N   0  0  0  0  0  0
  -26.2932  -12.9401   20.3297 N   0  0  0  0  0  0
  -25.9323  -11.6544   20.5770 N   0  0  0  0  0  0
  -22.0475  -12.8210   22.0420 N   0  0  0  0  0  0
  -25.4214  -15.1925   20.4101 N   0  0  0  0  0  0
  -31.7694  -14.8983   20.1303 O   0  0  0  0  0  0
  -21.6643   -6.8872   21.4233 O   0  0  0  0  0  0
  -22.3506  -14.5531   20.6713 O   0  0  0  0  0  0
  -24.6326  -31.8520   23.1955 C   0  0  0  0  0  0
  -25.9141  -32.4738   23.8306 C   0  0  1  0  0  0
  -27.2227  -27.2300   20.1493 C   0  0  0  0  0  0
  -25.5930  -33.8542   24.2223 N   0  0  0  0  0  0
  -23.4327  -30.4745   21.5371 C   0  0  2  0  0  0
  -24.8835  -28.9151   20.1106 C   0  0  0  0  0  0
  -22.7522  -29.4602   22.4882 C   0  0  0  0  0  0
  -18.0305  -28.1403   22.8478 C   0  0  0  0  0  0
  -24.1495  -36.7266   23.2641 C   0  0  0  0  0  0
  -25.9813  -30.7562   21.3825 C   0  0  0  0  0  0
  -26.0539  -29.3748   20.7280 C   0  0  0  0  0  0
  -27.2255  -28.5443   20.7378 C   0  0  0  0  0  0
  -26.0329  -26.8500   19.4903 C   0  0  0  0  0  0
  -24.8800  -27.6610   19.4795 C   0  0  0  0  0  0
  -23.6551  -29.8061   20.1541 C   0  0  0  0  0  0
  -25.4129  -36.3058   24.0315 C   0  0  1  0  0  0
  -20.5912  -28.3710   23.1261 C   0  0  2  0  0  0
  -20.6806  -26.9423   22.5409 C   0  0  0  0  0  0
  -19.5778  -26.6384   21.5221 C   0  0  0  0  0  0
  -18.1947  -26.7946   22.1612 C   0  0  0  0  0  0
  -19.1561  -28.8874   23.2864 C   0  0  0  0  0  0
  -18.9475  -30.1468   23.8887 C   0  0  0  0  0  0
  -17.6476  -30.6596   24.0566 C   0  0  0  0  0  0
  -25.9060  -34.9435   23.5069 C   0  0  0  0  0  0
  -16.5365  -29.9095   23.6343 C   0  0  0  0  0  0
  -16.7287  -28.6519   23.0350 C   0  0  0  0  0  0
  -26.4509  -31.6591   25.0705 C   0  0  0  0  0  0
  -25.3717  -31.3760   26.1411 C   0  0  0  0  0  0
  -27.0371  -30.3007   24.6223 C   0  0  0  0  0  0
  -27.6053  -32.4347   25.7489 C   0  0  0  0  0  0
  -27.5573  -37.1801   24.8472 C   0  0  0  0  0  0
  -21.4228  -29.3042   22.3635 N   0  0  0  0  0  0
  -26.4299  -37.3761   23.9393 N   0  0  0  0  0  0
  -24.7012  -31.0475   22.0937 N   0  0  0  0  0  0
  -23.4210  -28.8154   23.3006 O   0  0  0  0  0  0
  -28.3042  -26.3075   20.1833 O   0  0  0  0  0  0
  -26.5636  -34.8921   22.4641 O   0  0  0  0  0  0
  -23.5464  -32.1336   23.7238 O   0  0  0  0  0  0
  -31.0461  -19.4190   20.1106 C   0  0  0  0  0  0
  -29.8340  -20.0470   20.3811 C   0  0  0  0  0  0
  -29.9554  -17.3965   20.5689 C   0  0  0  0  0  0
  -28.0743  -24.9007   20.3965 C   0  0  0  0  0  0
  -28.9629  -23.8347   20.2506 C   0  0  0  0  0  0
  -28.6279  -22.3656   20.5050 C   0  0  0  0  0  0
  -32.2997  -20.1355   19.7075 C   0  0  0  0  0  0
  -31.1018  -17.9961   20.2144 N   0  0  0  0  0  0
  -29.6504  -21.4532   20.2966 N   0  0  0  0  0  0
  -29.7778  -15.9151   20.7168 N   0  0  0  0  0  0
  -27.5178  -21.9809   20.8795 O   0  0  0  0  0  0
  -30.2140  -24.1176   19.8586 O   0  0  0  0  0  0
  -28.7025  -18.7073   20.8078 S   0  0  0  0  0  0
  -31.4783  -12.6295   19.1799 H   0  0  0  0  0  0
  -30.4030  -11.5193   19.9799 H   0  0  0  0  0  0
  -29.8108  -11.7382   17.5423 H   0  0  0  0  0  0
  -29.6284  -13.4668   17.7237 H   0  0  0  0  0  0
  -27.9170  -11.2762   18.9412 H   0  0  0  0  0  0
  -27.3830  -12.4965   17.8121 H   0  0  0  0  0  0
  -27.6305  -14.2496   19.4600 H   0  0  0  0  0  0
  -28.7327  -12.1878   21.4348 H   0  0  0  0  0  0
  -28.4034  -13.8623   21.7979 H   0  0  0  0  0  0
  -25.2760   -9.5688   22.4763 H   0  0  0  0  0  0
  -23.9999   -7.4639   22.7476 H   0  0  0  0  0  0
  -21.0843   -8.8776   19.8952 H   0  0  0  0  0  0
  -22.3702  -10.9673   19.6164 H   0  0  0  0  0  0
  -21.2013   -7.6151   23.9711 H   0  0  0  0  0  0
  -21.1475   -6.0527   25.9078 H   0  0  0  0  0  0
  -22.0600   -2.7607   23.2847 H   0  0  0  0  0  0
  -22.4083  -11.9854   22.4783 H   0  0  0  0  0  0
  -21.1098  -13.1234   22.2651 H   0  0  0  0  0  0
  -24.6482  -15.8425   20.5031 H   0  0  0  0  0  0
  -26.2563  -15.6269   20.0388 H   0  0  0  0  0  0
  -26.7195  -32.5381   23.1036 H   0  0  0  0  0  0
  -25.0099  -33.9687   25.0386 H   0  0  0  0  0  0
  -22.7292  -31.2969   21.3867 H   0  0  0  0  0  0
  -23.3746  -35.9610   23.3342 H   0  0  0  0  0  0
  -24.3570  -36.8847   22.2045 H   0  0  0  0  0  0
  -23.7274  -37.6487   23.6649 H   0  0  0  0  0  0
  -26.1263  -31.5156   20.6131 H   0  0  0  0  0  0
  -26.8580  -30.8052   22.0174 H   0  0  0  0  0  0
  -28.1200  -28.8906   21.2344 H   0  0  0  0  0  0
  -25.9764  -25.8901   18.9968 H   0  0  0  0  0  0
  -23.9852  -27.3027   18.9878 H   0  0  0  0  0  0
  -23.7840  -30.5807   19.3963 H   0  0  0  0  0  0
  -22.7729  -29.2411   19.8492 H   0  0  0  0  0  0
  -25.1335  -36.1890   25.0809 H   0  0  0  0  0  0
  -21.0007  -28.3283   24.1383 H   0  0  0  0  0  0
  -20.5726  -26.2316   23.3612 H   0  0  0  0  0  0
  -21.6670  -26.7457   22.1186 H   0  0  0  0  0  0
  -19.6938  -25.6299   21.1241 H   0  0  0  0  0  0
  -19.6718  -27.3212   20.6767 H   0  0  0  0  0  0
  -17.4227  -26.6689   21.3998 H   0  0  0  0  0  0
  -18.0321  -26.0115   22.9032 H   0  0  0  0  0  0
  -19.7956  -30.7289   24.2242 H   0  0  0  0  0  0
  -17.5035  -31.6285   24.5161 H   0  0  0  0  0  0
  -15.5370  -30.2989   23.7703 H   0  0  0  0  0  0
  -15.8683  -28.0847   22.7060 H   0  0  0  0  0  0
  -24.5894  -30.7117   25.7721 H   0  0  0  0  0  0
  -24.8905  -32.2947   26.4785 H   0  0  0  0  0  0
  -25.8003  -30.8952   27.0212 H   0  0  0  0  0  0
  -26.2973  -29.6732   24.1234 H   0  0  0  0  0  0
  -27.4048  -29.7292   25.4752 H   0  0  0  0  0  0
  -27.8857  -30.4279   23.9493 H   0  0  0  0  0  0
  -27.2656  -33.3663   26.2036 H   0  0  0  0  0  0
  -28.3895  -32.6879   25.0337 H   0  0  0  0  0  0
  -28.0703  -31.8489   26.5430 H   0  0  0  0  0  0
  -28.2626  -38.0059   24.7471 H   0  0  0  0  0  0
  -28.1032  -36.2588   24.6383 H   0  0  0  0  0  0
  -27.2274  -37.1563   25.8871 H   0  0  0  0  0  0
  -20.9413  -29.8740   21.6818 H   0  0  0  0  0  0
  -26.0161  -38.2832   24.1372 H   0  0  0  0  0  0
  -27.0596  -24.7104   20.7205 H   0  0  0  0  0  0
  -32.5690  -20.9013   20.4348 H   0  0  0  0  0  0
  -32.1761  -20.6257   18.7419 H   0  0  0  0  0  0
  -33.1493  -19.4589   19.6219 H   0  0  0  0  0  0
  -30.4818  -21.9554   20.0104 H   0  0  0  0  0  0
  -28.8453  -15.6549   20.9945 H   0  0  0  0  0  0
  -30.2601  -25.0596   19.7518 H   0  0  0  0  0  0
  1 25  1  0  0  0
  1 30  2  0  0  0
  1 80  1  0  0  0
  2  3  1  0  0  0
  2 25  1  0  0  0
  2 84  1  0  0  0
  2 85  1  0  0  0
  3  4  1  0  0  0
  3 86  1  0  0  0
  3 87  1  0  0  0
  4  5  1  0  0  0
  4 88  1  0  0  0
  4 89  1  0  0  0
  5  6  1  0  0  0
  5 26  1  0  0  0
  5 90  1  0  0  0
  6 25  1  0  0  0
  6 91  1  0  0  0
  6 92  1  0  0  0
  7  8  2  0  0  0
  7 26  1  0  0  0
  7 29  1  0  0  0
  8  9  1  0  0  0
  8 22  1  0  0  0
  9 10  1  0  0  0
  9 27  2  0  0  0
 10 11  2  0  0  0
 10 15  1  0  0  0
 11 12  1  0  0  0
 11 93  1  0  0  0
 12 13  2  0  0  0
 12 94  1  0  0  0
 13 14  1  0  0  0
 13 31  1  0  0  0
 14 15  2  0  0  0
 14 95  1  0  0  0
 15 96  1  0  0  0
 16 17  2  0  0  0
 16 21  1  0  0  0
 16 31  1  0  0  0
 17 18  1  0  0  0
 17 97  1  0  0  0
 18 19  2  0  0  0
 18 98  1  0  0  0
 19 20  1  0  0  0
 19 24  1  0  0  0
 20 21  2  0  0  0
 20 99  1  0  0  0
 21 23  1  0  0  0
 22 28  1  0  0  0
 22 32  2  0  0  0
 26 27  1  0  0  0
 28100  1  0  0  0
 28101  1  0  0  0
 29102  1  0  0  0
 29103  1  0  0  0
 33 34  1  0  0  0
 33 66  1  0  0  0
 33 70  2  0  0  0
 34 36  1  0  0  0
 34 59  1  0  0  0
 34104  1  0  0  0
 35 44  2  0  0  0
 35 45  1  0  0  0
 35 68  1  0  0  0
 36 56  1  0  0  0
 36105  1  0  0  0
 37 39  1  0  0  0
 37 47  1  0  0  0
 37 66  1  0  0  0
 37106  1  0  0  0
 38 43  2  0  0  0
 38 46  1  0  0  0
 38 47  1  0  0  0
 39 64  1  0  0  0
 39 67  2  0  0  0
 40 52  1  0  0  0
 40 53  2  0  0  0
 40 58  1  0  0  0
 41107  1  0  0  0
 41108  1  0  0  0
 41109  1  0  0  0
 41 48  1  0  0  0
 42 43  1  0  0  0
 42 66  1  0  0  0
 42110  1  0  0  0
 42111  1  0  0  0
 43 44  1  0  0  0
 44112  1  0  0  0
 45 46  2  0  0  0
 45113  1  0  0  0
 46114  1  0  0  0
 47115  1  0  0  0
 47116  1  0  0  0
 48 56  1  0  0  0
 48 65  1  0  0  0
 48117  1  0  0  0
 49 50  1  0  0  0
 49 53  1  0  0  0
 49 64  1  0  0  0
 49118  1  0  0  0
 50 51  1  0  0  0
 50119  1  0  0  0
 50120  1  0  0  0
 51 52  1  0  0  0
 51121  1  0  0  0
 51122  1  0  0  0
 52123  1  0  0  0
 52124  1  0  0  0
 53 54  1  0  0  0
 54 55  2  0  0  0
 54125  1  0  0  0
 55 57  1  0  0  0
 55126  1  0  0  0
 56 69  2  0  0  0
 57 58  2  0  0  0
 57127  1  0  0  0
 58128  1  0  0  0
 59 60  1  0  0  0
 59 61  1  0  0  0
 59 62  1  0  0  0
 60129  1  0  0  0
 60130  1  0  0  0
 60131  1  0  0  0
 61132  1  0  0  0
 61133  1  0  0  0
 61134  1  0  0  0
 62135  1  0  0  0
 62136  1  0  0  0
 62137  1  0  0  0
 63 65  1  0  0  0
 63138  1  0  0  0
 63139  1  0  0  0
 63140  1  0  0  0
 64141  1  0  0  0
 65142  1  0  0  0
 68 74  1  0  0  0
 71 72  2  0  0  0
 71 77  1  0  0  0
 71 78  1  0  0  0
 72 79  1  0  0  0
 72 83  1  0  0  0
 73 78  2  0  0  0
 73 80  1  0  0  0
 73 83  1  0  0  0
 74 75  2  0  0  0
 74143  1  0  0  0
 75 76  1  0  0  0
 75 82  1  0  0  0
 76 79  1  0  0  0
 76 81  2  0  0  0
 77144  1  0  0  0
 77145  1  0  0  0
 77146  1  0  0  0
 79147  1  0  0  0
 80148  1  0  0  0
 82149  1  0  0  0
M  ISO  4   1 100  68 101  74 101  80 100
M  END
> <chiral flag>
0

> <version>
0

> <s_m_source_file>
/data/baiqing/PycharmProjects/Reinvent-master-3.2/result/LINK_invent/BTK/process_docking_weight1_custom_product_contain_oxygen_bond_distance_aromatic_linkinvent_7_9_3/rearranged_h_0181.sdf

> <i_m_source_file_index>
31

> <r_mmod_Potential_Energy-OPLS-2005>
41.3210067749023

> <r_mmod_Stretch_Energy-OPLS-2005>
128.392349243164

> <r_mmod_Bend_Energy-OPLS-2005>
189.75553894043

> <r_mmod_Torsional_Energy-OPLS-2005>
188.455352783203

> <r_mmod_Improper_Torsional_Energy-OPLS-2005>
3.97958898544312

> <r_mmod_Van_der_Waal_Energy-OPLS-2005>
117.740432739258

> <r_mmod_Electrostatic_Energy-OPLS-2005>
-451.517883300781

> <r_mmod_Solvation_Energy-OPLS-2005>
-243.454620361328

> <b_mmod_Minimization_Converged-OPLS-2005>
0

> <r_mmod_RMS_Derivative-OPLS-2005>
1.94476997852325

$$$$
31
                    3D
 Structure written by MMmdl.
154162  0  0  1  0            999 V2000
  -30.6900  -14.5074   20.5403 C   0  0  0  0  0  0
  -30.4287  -12.3147   19.4393 C   0  0  0  0  0  0
  -29.5033  -12.4956   18.2161 C   0  0  0  0  0  0
  -28.0235  -12.3592   18.6280 C   0  0  0  0  0  0
  -27.6637  -13.2095   19.8753 C   0  0  2  0  0  0
  -28.7066  -13.0104   21.0008 C   0  0  0  0  0  0
  -25.2603  -13.8147   20.5688 C   0  0  0  0  0  0
  -24.1846  -13.0424   20.9163 C   0  0  0  0  0  0
  -24.6383  -11.6885   20.8706 C   0  0  0  0  0  0
  -23.9041  -10.4270   21.0372 C   0  0  0  0  0  0
  -24.3579   -9.4193   21.9159 C   0  0  0  0  0  0
  -23.6262   -8.2229   22.0743 C   0  0  0  0  0  0
  -22.4254   -8.0242   21.3530 C   0  0  0  0  0  0
  -21.9884   -9.0221   20.4647 C   0  0  0  0  0  0
  -22.7202  -10.2104   20.3039 C   0  0  0  0  0  0
  -21.6862   -6.0696   22.5265 C   0  0  0  0  0  0
  -21.4018   -6.5614   23.8187 C   0  0  0  0  0  0
  -21.3667   -5.6772   24.9150 C   0  0  0  0  0  0
  -21.6051   -4.3036   24.7222 C   0  0  0  0  0  0
  -21.8821   -3.8118   23.4349 C   0  0  0  0  0  0
  -21.9204   -4.6923   22.3394 C   0  0  0  0  0  0
  -22.7867  -13.5235   21.1825 C   0  0  0  0  0  0
  -22.1666   -4.2101   21.0976 F   0  0  0  0  0  0
  -21.5636   -3.4525   25.7746 F   0  0  0  0  0  0
  -30.0365  -13.3150   20.4477 N   0  0  0  0  0  0
  -26.3038  -12.9327   20.3366 N   0  0  0  0  0  0
  -25.9324  -11.6481   20.5741 N   0  0  0  0  0  0
  -22.0518  -12.8217   22.0378 N   0  0  0  0  0  0
  -25.4359  -15.1857   20.4102 N   0  0  0  0  0  0
  -31.8318  -14.6614   20.0970 O   0  0  0  0  0  0
  -21.6630   -6.8837   21.4225 O   0  0  0  0  0  0
  -22.3561  -14.5545   20.6675 O   0  0  0  0  0  0
  -24.6193  -31.8653   23.2065 C   0  0  0  0  0  0
  -25.9086  -32.4799   23.8367 C   0  0  1  0  0  0
  -27.2329  -27.3990   20.0900 C   0  0  0  0  0  0
  -25.5928  -33.8591   24.2299 N   0  0  0  0  0  0
  -23.4063  -30.4918   21.5480 C   0  0  2  0  0  0
  -24.8479  -28.9539   20.1131 C   0  0  0  0  0  0
  -22.7429  -29.4667   22.4961 C   0  0  0  0  0  0
  -18.0285  -28.1398   22.8483 C   0  0  0  0  0  0
  -24.1490  -36.7312   23.2635 C   0  0  0  0  0  0
  -25.9389  -30.8206   21.3635 C   0  0  0  0  0  0
  -26.0110  -29.4533   20.7093 C   0  0  0  0  0  0
  -27.2012  -28.6846   20.6924 C   0  0  0  0  0  0
  -26.0384  -26.9226   19.4943 C   0  0  0  0  0  0
  -24.8592  -27.6902   19.5035 C   0  0  0  0  0  0
  -23.6136  -29.8262   20.1623 C   0  0  0  0  0  0
  -25.4109  -36.3090   24.0331 C   0  0  1  0  0  0
  -20.5874  -28.3689   23.1300 C   0  0  2  0  0  0
  -20.6768  -26.9423   22.5408 C   0  0  0  0  0  0
  -19.5747  -26.6396   21.5205 C   0  0  0  0  0  0
  -18.1927  -26.7944   22.1620 C   0  0  0  0  0  0
  -19.1530  -28.8859   23.2891 C   0  0  0  0  0  0
  -18.9458  -30.1465   23.8899 C   0  0  0  0  0  0
  -17.6460  -30.6597   24.0568 C   0  0  0  0  0  0
  -25.9042  -34.9460   23.5111 C   0  0  0  0  0  0
  -16.5347  -29.9099   23.6329 C   0  0  0  0  0  0
  -16.7269  -28.6519   23.0335 C   0  0  0  0  0  0
  -26.4491  -31.6593   25.0713 C   0  0  0  0  0  0
  -25.3750  -31.3732   26.1460 C   0  0  0  0  0  0
  -27.0325  -30.3022   24.6134 C   0  0  0  0  0  0
  -27.6069  -32.4316   25.7488 C   0  0  0  0  0  0
  -27.5583  -37.1801   24.8458 C   0  0  0  0  0  0
  -21.4153  -29.3053   22.3701 N   0  0  0  0  0  0
  -26.4289  -37.3784   23.9410 N   0  0  0  0  0  0
  -24.6735  -31.0741   22.0976 N   0  0  0  0  0  0
  -23.4188  -28.8203   23.3012 O   0  0  0  0  0  0
  -28.4270  -26.6872   20.1129 O   0  0  0  0  0  0
  -26.5599  -34.8920   22.4667 O   0  0  0  0  0  0
  -23.5384  -32.1421   23.7453 O   0  0  0  0  0  0
  -29.5366  -19.1788   20.8093 C   0  0  0  0  0  0
  -30.5242  -19.1845   19.8519 C   0  0  0  0  0  0
  -30.1175  -16.9316   20.7236 C   0  0  0  0  0  0
  -28.7123  -20.3425   21.2126 C   0  0  0  0  0  0
  -30.8240  -21.7912   21.7995 C   0  0  0  0  0  0
  -28.8745  -24.3007   20.7753 C   0  0  0  0  0  0
  -28.9681  -22.8143   20.2990 C   0  0  0  0  0  0
  -28.5345  -25.3186   19.6481 C   0  0  0  0  0  0
  -29.3307  -21.7676   21.4068 C   0  0  1  0  0  0
  -29.3044  -17.8539   21.2765 N   0  0  0  0  0  0
  -29.9696  -15.5393   21.0371 N   0  0  0  0  0  0
  -27.5117  -20.2289   21.4879 O   0  0  0  0  0  0
  -30.9037  -20.2714   19.1371 F   0  0  0  0  0  0
  -31.2430  -17.6276   19.5477 S   0  0  0  0  0  0
  -31.4740  -12.4080   19.1373 H   0  0  0  0  0  0
  -30.3259  -11.3088   19.8514 H   0  0  0  0  0  0
  -29.7471  -11.7589   17.4498 H   0  0  0  0  0  0
  -29.6738  -13.4745   17.7639 H   0  0  0  0  0  0
  -27.8366  -11.3049   18.8351 H   0  0  0  0  0  0
  -27.3727  -12.6240   17.7936 H   0  0  0  0  0  0
  -27.7016  -14.2543   19.5656 H   0  0  0  0  0  0
  -28.6896  -11.9798   21.3591 H   0  0  0  0  0  0
  -28.4682  -13.6259   21.8701 H   0  0  0  0  0  0
  -25.2717   -9.5679   22.4731 H   0  0  0  0  0  0
  -23.9973   -7.4628   22.7463 H   0  0  0  0  0  0
  -21.0809   -8.8728   19.8973 H   0  0  0  0  0  0
  -22.3637  -10.9620   19.6138 H   0  0  0  0  0  0
  -21.2002   -7.6128   23.9676 H   0  0  0  0  0  0
  -21.1502   -6.0503   25.9053 H   0  0  0  0  0  0
  -22.0612   -2.7581   23.2855 H   0  0  0  0  0  0
  -22.4141  -11.9885   22.4770 H   0  0  0  0  0  0
  -21.1149  -13.1257   22.2613 H   0  0  0  0  0  0
  -24.6748  -15.8452   20.5285 H   0  0  0  0  0  0
  -26.2920  -15.6239   20.0942 H   0  0  0  0  0  0
  -26.7154  -32.5487   23.1123 H   0  0  0  0  0  0
  -25.0080  -33.9730   25.0446 H   0  0  0  0  0  0
  -22.6984  -31.3122   21.4097 H   0  0  0  0  0  0
  -23.3740  -35.9658   23.3294 H   0  0  0  0  0  0
  -24.3590  -36.8927   22.2051 H   0  0  0  0  0  0
  -23.7258  -37.6520   23.6657 H   0  0  0  0  0  0
  -26.0588  -31.5869   20.5961 H   0  0  0  0  0  0
  -26.8247  -30.8691   21.9857 H   0  0  0  0  0  0
  -28.0994  -29.0730   21.1508 H   0  0  0  0  0  0
  -25.9630  -25.9634   19.0103 H   0  0  0  0  0  0
  -23.9632  -27.3002   19.0395 H   0  0  0  0  0  0
  -23.7255  -30.6001   19.4023 H   0  0  0  0  0  0
  -22.7357  -29.2498   19.8646 H   0  0  0  0  0  0
  -25.1287  -36.1939   25.0823 H   0  0  0  0  0  0
  -20.9980  -28.3263   24.1416 H   0  0  0  0  0  0
  -20.5670  -26.2304   23.3603 H   0  0  0  0  0  0
  -21.6639  -26.7464   22.1205 H   0  0  0  0  0  0
  -19.6906  -25.6305   21.1240 H   0  0  0  0  0  0
  -19.6692  -27.3201   20.6731 H   0  0  0  0  0  0
  -17.4201  -26.6696   21.4019 H   0  0  0  0  0  0
  -18.0338  -26.0098   22.9030 H   0  0  0  0  0  0
  -19.7932  -30.7281   24.2276 H   0  0  0  0  0  0
  -17.5013  -31.6272   24.5186 H   0  0  0  0  0  0
  -15.5350  -30.2999   23.7652 H   0  0  0  0  0  0
  -15.8676  -28.0848   22.7029 H   0  0  0  0  0  0
  -24.5893  -30.7114   25.7790 H   0  0  0  0  0  0
  -24.8973  -32.2903   26.4918 H   0  0  0  0  0  0
  -25.8077  -30.8874   27.0213 H   0  0  0  0  0  0
  -26.2867  -29.6779   24.1187 H   0  0  0  0  0  0
  -27.4063  -29.7276   25.4620 H   0  0  0  0  0  0
  -27.8729  -30.4312   23.9311 H   0  0  0  0  0  0
  -27.2682  -33.3605   26.2094 H   0  0  0  0  0  0
  -28.3870  -32.6888   25.0311 H   0  0  0  0  0  0
  -28.0757  -31.8422   26.5378 H   0  0  0  0  0  0
  -28.2586  -38.0110   24.7509 H   0  0  0  0  0  0
  -28.1087  -36.2634   24.6269 H   0  0  0  0  0  0
  -27.2306  -37.1441   25.8862 H   0  0  0  0  0  0
  -20.9328  -29.8779   21.6916 H   0  0  0  0  0  0
  -26.0169  -38.2860   24.1404 H   0  0  0  0  0  0
  -31.1051  -20.9295   22.4067 H   0  0  0  0  0  0
  -31.0477  -22.6811   22.3891 H   0  0  0  0  0  0
  -31.4788  -21.8119   20.9289 H   0  0  0  0  0  0
  -29.8192  -24.5933   21.2347 H   0  0  0  0  0  0
  -28.1227  -24.3799   21.5612 H   0  0  0  0  0  0
  -29.7022  -22.7475   19.4946 H   0  0  0  0  0  0
  -28.0124  -22.5475   19.8466 H   0  0  0  0  0  0
  -27.6793  -24.9518   19.0911 H   0  0  0  0  0  0
  -29.3487  -25.3069   18.9230 H   0  0  0  0  0  0
  -28.8082  -22.1052   22.3027 H   0  0  0  0  0  0
  -29.1147  -15.2839   21.5028 H   0  0  0  0  0  0
  1 25  1  0  0  0
  1 30  2  0  0  0
  1 81  1  0  0  0
  2  3  1  0  0  0
  2 25  1  0  0  0
  2 85  1  0  0  0
  2 86  1  0  0  0
  3  4  1  0  0  0
  3 87  1  0  0  0
  3 88  1  0  0  0
  4  5  1  0  0  0
  4 89  1  0  0  0
  4 90  1  0  0  0
  5  6  1  0  0  0
  5 26  1  0  0  0
  5 91  1  0  0  0
  6 25  1  0  0  0
  6 92  1  0  0  0
  6 93  1  0  0  0
  7  8  2  0  0  0
  7 26  1  0  0  0
  7 29  1  0  0  0
  8  9  1  0  0  0
  8 22  1  0  0  0
  9 10  1  0  0  0
  9 27  2  0  0  0
 10 11  2  0  0  0
 10 15  1  0  0  0
 11 12  1  0  0  0
 11 94  1  0  0  0
 12 13  2  0  0  0
 12 95  1  0  0  0
 13 14  1  0  0  0
 13 31  1  0  0  0
 14 15  2  0  0  0
 14 96  1  0  0  0
 15 97  1  0  0  0
 16 17  2  0  0  0
 16 21  1  0  0  0
 16 31  1  0  0  0
 17 18  1  0  0  0
 17 98  1  0  0  0
 18 19  2  0  0  0
 18 99  1  0  0  0
 19 20  1  0  0  0
 19 24  1  0  0  0
 20 21  2  0  0  0
 20100  1  0  0  0
 21 23  1  0  0  0
 22 28  1  0  0  0
 22 32  2  0  0  0
 26 27  1  0  0  0
 28101  1  0  0  0
 28102  1  0  0  0
 29103  1  0  0  0
 29104  1  0  0  0
 33 34  1  0  0  0
 33 66  1  0  0  0
 33 70  2  0  0  0
 34 36  1  0  0  0
 34 59  1  0  0  0
 34105  1  0  0  0
 35 44  2  0  0  0
 35 45  1  0  0  0
 35 68  1  0  0  0
 36 56  1  0  0  0
 36106  1  0  0  0
 37 39  1  0  0  0
 37 47  1  0  0  0
 37 66  1  0  0  0
 37107  1  0  0  0
 38 43  2  0  0  0
 38 46  1  0  0  0
 38 47  1  0  0  0
 39 64  1  0  0  0
 39 67  2  0  0  0
 40 52  1  0  0  0
 40 53  2  0  0  0
 40 58  1  0  0  0
 41108  1  0  0  0
 41109  1  0  0  0
 41110  1  0  0  0
 41 48  1  0  0  0
 42 43  1  0  0  0
 42 66  1  0  0  0
 42111  1  0  0  0
 42112  1  0  0  0
 43 44  1  0  0  0
 44113  1  0  0  0
 45 46  2  0  0  0
 45114  1  0  0  0
 46115  1  0  0  0
 47116  1  0  0  0
 47117  1  0  0  0
 48 56  1  0  0  0
 48 65  1  0  0  0
 48118  1  0  0  0
 49 50  1  0  0  0
 49 53  1  0  0  0
 49 64  1  0  0  0
 49119  1  0  0  0
 50 51  1  0  0  0
 50120  1  0  0  0
 50121  1  0  0  0
 51 52  1  0  0  0
 51122  1  0  0  0
 51123  1  0  0  0
 52124  1  0  0  0
 52125  1  0  0  0
 53 54  1  0  0  0
 54 55  2  0  0  0
 54126  1  0  0  0
 55 57  1  0  0  0
 55127  1  0  0  0
 56 69  2  0  0  0
 57 58  2  0  0  0
 57128  1  0  0  0
 58129  1  0  0  0
 59 60  1  0  0  0
 59 61  1  0  0  0
 59 62  1  0  0  0
 60130  1  0  0  0
 60131  1  0  0  0
 60132  1  0  0  0
 61133  1  0  0  0
 61134  1  0  0  0
 61135  1  0  0  0
 62136  1  0  0  0
 62137  1  0  0  0
 62138  1  0  0  0
 63 65  1  0  0  0
 63139  1  0  0  0
 63140  1  0  0  0
 63141  1  0  0  0
 64142  1  0  0  0
 65143  1  0  0  0
 68 78  1  0  0  0
 71 72  2  0  0  0
 71 74  1  0  0  0
 71 80  1  0  0  0
 72 83  1  0  0  0
 72 84  1  0  0  0
 73 80  2  0  0  0
 73 81  1  0  0  0
 73 84  1  0  0  0
 74 79  1  0  0  0
 74 82  2  0  0  0
 75144  1  0  0  0
 75145  1  0  0  0
 75146  1  0  0  0
 75 79  1  0  0  0
 76 77  1  0  0  0
 76 78  1  0  0  0
 76147  1  0  0  0
 76148  1  0  0  0
 77 79  1  0  0  0
 77149  1  0  0  0
 77150  1  0  0  0
 78151  1  0  0  0
 78152  1  0  0  0
 79153  1  0  0  0
 81154  1  0  0  0
M  ISO  4   1 100  68 101  78 101  81 100
M  END
> <chiral flag>
0

> <version>
0

> <s_m_source_file>
/data/baiqing/PycharmProjects/Reinvent-master-3.2/result/LINK_invent/BTK/process_docking_weight1_custom_product_contain_oxygen_bond_distance_aromatic_linkinvent_7_9_3/rearranged_h_0181.sdf

> <i_m_source_file_index>
32

> <r_mmod_Potential_Energy-OPLS-2005>
20.023120880127

> <r_mmod_Stretch_Energy-OPLS-2005>
46.8140487670898

> <r_mmod_Bend_Energy-OPLS-2005>
127.4599609375

> <r_mmod_Torsional_Energy-OPLS-2005>
231.691543579102

> <r_mmod_Improper_Torsional_Energy-OPLS-2005>
4.41416501998901

> <r_mmod_Van_der_Waal_Energy-OPLS-2005>
131.209487915039

> <r_mmod_Electrostatic_Energy-OPLS-2005>
-328.991943359375

> <r_mmod_Solvation_Energy-OPLS-2005>
-210.369384765625

> <b_mmod_Minimization_Converged-OPLS-2005>
0

> <r_mmod_RMS_Derivative-OPLS-2005>
2.26653337478638

$$$$
32
                    3D
 Structure written by MMmdl.
154162  0  0  1  0            999 V2000
  -30.6688  -14.5001   20.5449 C   0  0  0  0  0  0
  -30.4348  -12.3162   19.4178 C   0  0  0  0  0  0
  -29.4990  -12.4996   18.2038 C   0  0  0  0  0  0
  -28.0222  -12.3354   18.6181 C   0  0  0  0  0  0
  -27.6608  -13.1732   19.8712 C   0  0  2  0  0  0
  -28.7064  -12.9765   20.9921 C   0  0  0  0  0  0
  -25.2662  -13.8084   20.5661 C   0  0  0  0  0  0
  -24.1865  -13.0417   20.9162 C   0  0  0  0  0  0
  -24.6362  -11.6861   20.8735 C   0  0  0  0  0  0
  -23.9019  -10.4273   21.0414 C   0  0  0  0  0  0
  -24.3583   -9.4191   21.9189 C   0  0  0  0  0  0
  -23.6270   -8.2222   22.0752 C   0  0  0  0  0  0
  -22.4256   -8.0259   21.3538 C   0  0  0  0  0  0
  -21.9882   -9.0233   20.4642 C   0  0  0  0  0  0
  -22.7199  -10.2118   20.3059 C   0  0  0  0  0  0
  -21.6845   -6.0724   22.5282 C   0  0  0  0  0  0
  -21.4009   -6.5631   23.8215 C   0  0  0  0  0  0
  -21.3661   -5.6786   24.9180 C   0  0  0  0  0  0
  -21.6045   -4.3049   24.7233 C   0  0  0  0  0  0
  -21.8820   -3.8139   23.4355 C   0  0  0  0  0  0
  -21.9188   -4.6953   22.3408 C   0  0  0  0  0  0
  -22.7899  -13.5251   21.1829 C   0  0  0  0  0  0
  -22.1655   -4.2138   21.0985 F   0  0  0  0  0  0
  -21.5632   -3.4535   25.7747 F   0  0  0  0  0  0
  -30.0337  -13.2993   20.4356 N   0  0  0  0  0  0
  -26.3027  -12.9154   20.3343 N   0  0  0  0  0  0
  -25.9270  -11.6356   20.5758 N   0  0  0  0  0  0
  -22.0526  -12.8255   22.0386 N   0  0  0  0  0  0
  -25.4501  -15.1796   20.4098 N   0  0  0  0  0  0
  -31.8170  -14.6877   20.1285 O   0  0  0  0  0  0
  -21.6619   -6.8858   21.4239 O   0  0  0  0  0  0
  -22.3592  -14.5557   20.6673 O   0  0  0  0  0  0
  -24.6133  -31.8680   23.2096 C   0  0  0  0  0  0
  -25.9026  -32.4825   23.8399 C   0  0  1  0  0  0
  -27.2452  -27.4470   20.1042 C   0  0  0  0  0  0
  -25.5880  -33.8626   24.2330 N   0  0  0  0  0  0
  -23.4030  -30.4888   21.5492 C   0  0  2  0  0  0
  -24.8553  -28.9550   20.1148 C   0  0  0  0  0  0
  -22.7412  -29.4650   22.4994 C   0  0  0  0  0  0
  -18.0268  -28.1375   22.8496 C   0  0  0  0  0  0
  -24.1485  -36.7324   23.2638 C   0  0  0  0  0  0
  -25.9303  -30.8385   21.3617 C   0  0  0  0  0  0
  -26.0129  -29.4729   20.7109 C   0  0  0  0  0  0
  -27.2136  -28.7267   20.7013 C   0  0  0  0  0  0
  -26.0759  -26.9401   19.5011 C   0  0  0  0  0  0
  -24.8813  -27.6872   19.5052 C   0  0  0  0  0  0
  -23.6133  -29.8172   20.1647 C   0  0  0  0  0  0
  -25.4105  -36.3123   24.0338 C   0  0  1  0  0  0
  -20.5859  -28.3661   23.1321 C   0  0  2  0  0  0
  -20.6757  -26.9396   22.5419 C   0  0  0  0  0  0
  -19.5736  -26.6382   21.5215 C   0  0  0  0  0  0
  -18.1914  -26.7922   22.1625 C   0  0  0  0  0  0
  -19.1518  -28.8835   23.2905 C   0  0  0  0  0  0
  -18.9447  -30.1442   23.8914 C   0  0  0  0  0  0
  -17.6450  -30.6584   24.0564 C   0  0  0  0  0  0
  -25.9029  -34.9482   23.5137 C   0  0  0  0  0  0
  -16.5341  -29.9086   23.6325 C   0  0  0  0  0  0
  -16.7258  -28.6501   23.0351 C   0  0  0  0  0  0
  -26.4455  -31.6598   25.0725 C   0  0  0  0  0  0
  -25.3722  -31.3700   26.1477 C   0  0  0  0  0  0
  -27.0279  -30.3041   24.6092 C   0  0  0  0  0  0
  -27.6039  -32.4308   25.7488 C   0  0  0  0  0  0
  -27.5583  -37.1814   24.8462 C   0  0  0  0  0  0
  -21.4139  -29.3027   22.3732 N   0  0  0  0  0  0
  -26.4296  -37.3801   23.9406 N   0  0  0  0  0  0
  -24.6667  -31.0791   22.0989 N   0  0  0  0  0  0
  -23.4186  -28.8201   23.3039 O   0  0  0  0  0  0
  -28.3906  -26.6841   20.1150 O   0  0  0  0  0  0
  -26.5601  -34.8930   22.4704 O   0  0  0  0  0  0
  -23.5322  -32.1430   23.7490 O   0  0  0  0  0  0
  -28.9785  -17.4368   19.8993 C   0  0  0  0  0  0
  -29.8776  -19.6638   20.3125 C   0  0  0  0  0  0
  -28.9399  -18.8300   19.6916 C   0  0  0  0  0  0
  -29.9938  -16.8904   20.7217 C   0  0  0  0  0  0
  -30.8695  -19.0337   21.1003 C   0  0  0  0  0  0
  -29.4642  -23.4555   20.2742 C   0  0  0  0  0  0
  -29.8810  -22.0887   20.9223 C   0  0  0  0  0  0
  -29.6012  -24.7319   21.1246 C   0  0  0  0  0  0
  -28.3594  -25.6586   21.1185 C   0  0  0  0  0  0
  -30.9193  -17.6911   21.3023 N   0  0  0  0  0  0
  -28.0247  -16.6324   19.2669 N   0  0  0  0  0  0
  -29.7850  -21.0691   20.0527 N   0  0  0  0  0  0
  -29.8856  -15.4972   20.9972 N   0  0  0  0  0  0
  -29.0371  -23.5156   19.1137 O   0  0  0  0  0  0
  -30.2329  -21.9698   22.0993 O   0  0  0  0  0  0
  -27.9860  -19.3638   18.8858 F   0  0  0  0  0  0
  -31.8590  -19.7709   21.6579 F   0  0  0  0  0  0
  -31.4765  -12.4334   19.1141 H   0  0  0  0  0  0
  -30.3531  -11.3038   19.8173 H   0  0  0  0  0  0
  -29.7492  -11.7815   17.4215 H   0  0  0  0  0  0
  -29.6508  -13.4886   17.7678 H   0  0  0  0  0  0
  -27.8477  -11.2778   18.8201 H   0  0  0  0  0  0
  -27.3674  -12.5968   17.7859 H   0  0  0  0  0  0
  -27.6918  -14.2057   19.5544 H   0  0  0  0  0  0
  -28.6964  -11.9422   21.3399 H   0  0  0  0  0  0
  -28.4581  -13.5775   21.8680 H   0  0  0  0  0  0
  -25.2727   -9.5667   22.4763 H   0  0  0  0  0  0
  -23.9978   -7.4612   22.7472 H   0  0  0  0  0  0
  -21.0813   -8.8754   19.8947 H   0  0  0  0  0  0
  -22.3660  -10.9660   19.6173 H   0  0  0  0  0  0
  -21.1995   -7.6139   23.9723 H   0  0  0  0  0  0
  -21.1485   -6.0512   25.9085 H   0  0  0  0  0  0
  -22.0596   -2.7601   23.2860 H   0  0  0  0  0  0
  -22.4121  -11.9910   22.4783 H   0  0  0  0  0  0
  -21.1145  -13.1294   22.2581 H   0  0  0  0  0  0
  -24.6935  -15.8439   20.5225 H   0  0  0  0  0  0
  -26.3159  -15.6217   20.0985 H   0  0  0  0  0  0
  -26.7106  -32.5551   23.1178 H   0  0  0  0  0  0
  -25.0006  -33.9788   25.0459 H   0  0  0  0  0  0
  -22.6910  -31.3043   21.4072 H   0  0  0  0  0  0
  -23.3743  -35.9662   23.3311 H   0  0  0  0  0  0
  -24.3578  -36.8928   22.2051 H   0  0  0  0  0  0
  -23.7241  -37.6533   23.6645 H   0  0  0  0  0  0
  -26.0389  -31.6047   20.5928 H   0  0  0  0  0  0
  -26.8190  -30.8954   21.9788 H   0  0  0  0  0  0
  -28.1083  -29.1218   21.1624 H   0  0  0  0  0  0
  -26.0917  -25.9644   19.0363 H   0  0  0  0  0  0
  -23.9925  -27.2816   19.0409 H   0  0  0  0  0  0
  -23.7161  -30.5904   19.4021 H   0  0  0  0  0  0
  -22.7404  -29.2303   19.8726 H   0  0  0  0  0  0
  -25.1280  -36.1995   25.0830 H   0  0  0  0  0  0
  -20.9946  -28.3221   24.1443 H   0  0  0  0  0  0
  -20.5652  -26.2268   23.3607 H   0  0  0  0  0  0
  -21.6627  -26.7433   22.1216 H   0  0  0  0  0  0
  -19.6892  -25.6294   21.1235 H   0  0  0  0  0  0
  -19.6675  -27.3204   20.6753 H   0  0  0  0  0  0
  -17.4184  -26.6677   21.4027 H   0  0  0  0  0  0
  -18.0311  -26.0058   22.9016 H   0  0  0  0  0  0
  -19.7923  -30.7250   24.2296 H   0  0  0  0  0  0
  -17.5005  -31.6265   24.5160 H   0  0  0  0  0  0
  -15.5344  -30.2993   23.7635 H   0  0  0  0  0  0
  -15.8658  -28.0822   22.7062 H   0  0  0  0  0  0
  -24.5886  -30.7063   25.7804 H   0  0  0  0  0  0
  -24.8927  -32.2856   26.4950 H   0  0  0  0  0  0
  -25.8074  -30.8841   27.0220 H   0  0  0  0  0  0
  -26.2824  -29.6822   24.1124 H   0  0  0  0  0  0
  -27.4023  -29.7256   25.4546 H   0  0  0  0  0  0
  -27.8670  -30.4359   23.9258 H   0  0  0  0  0  0
  -27.2661  -33.3585   26.2123 H   0  0  0  0  0  0
  -28.3823  -32.6905   25.0302 H   0  0  0  0  0  0
  -28.0741  -31.8398   26.5359 H   0  0  0  0  0  0
  -28.2606  -38.0107   24.7511 H   0  0  0  0  0  0
  -28.1074  -36.2639   24.6285 H   0  0  0  0  0  0
  -27.2303  -37.1467   25.8866 H   0  0  0  0  0  0
  -20.9302  -29.8752   21.6957 H   0  0  0  0  0  0
  -26.0191  -38.2882   24.1402 H   0  0  0  0  0  0
  -30.4895  -25.2787   20.8111 H   0  0  0  0  0  0
  -29.7862  -24.4254   22.1539 H   0  0  0  0  0  0
  -28.2960  -26.1472   22.0921 H   0  0  0  0  0  0
  -27.4506  -25.0600   21.0276 H   0  0  0  0  0  0
  -27.4405  -17.1587   18.6216 H   0  0  0  0  0  0
  -28.4148  -15.8304   18.7860 H   0  0  0  0  0  0
  -29.3750  -21.3445   19.1680 H   0  0  0  0  0  0
  -28.9391  -15.2017   21.1728 H   0  0  0  0  0  0
  1 25  1  0  0  0
  1 30  2  0  0  0
  1 83  1  0  0  0
  2  3  1  0  0  0
  2 25  1  0  0  0
  2 88  1  0  0  0
  2 89  1  0  0  0
  3  4  1  0  0  0
  3 90  1  0  0  0
  3 91  1  0  0  0
  4  5  1  0  0  0
  4 92  1  0  0  0
  4 93  1  0  0  0
  5  6  1  0  0  0
  5 26  1  0  0  0
  5 94  1  0  0  0
  6 25  1  0  0  0
  6 95  1  0  0  0
  6 96  1  0  0  0
  7  8  2  0  0  0
  7 26  1  0  0  0
  7 29  1  0  0  0
  8  9  1  0  0  0
  8 22  1  0  0  0
  9 10  1  0  0  0
  9 27  2  0  0  0
 10 11  2  0  0  0
 10 15  1  0  0  0
 11 12  1  0  0  0
 11 97  1  0  0  0
 12 13  2  0  0  0
 12 98  1  0  0  0
 13 14  1  0  0  0
 13 31  1  0  0  0
 14 15  2  0  0  0
 14 99  1  0  0  0
 15100  1  0  0  0
 16 17  2  0  0  0
 16 21  1  0  0  0
 16 31  1  0  0  0
 17 18  1  0  0  0
 17101  1  0  0  0
 18 19  2  0  0  0
 18102  1  0  0  0
 19 20  1  0  0  0
 19 24  1  0  0  0
 20 21  2  0  0  0
 20103  1  0  0  0
 21 23  1  0  0  0
 22 28  1  0  0  0
 22 32  2  0  0  0
 26 27  1  0  0  0
 28104  1  0  0  0
 28105  1  0  0  0
 29106  1  0  0  0
 29107  1  0  0  0
 33 34  1  0  0  0
 33 66  1  0  0  0
 33 70  2  0  0  0
 34 36  1  0  0  0
 34 59  1  0  0  0
 34108  1  0  0  0
 35 44  2  0  0  0
 35 45  1  0  0  0
 35 68  1  0  0  0
 36 56  1  0  0  0
 36109  1  0  0  0
 37 39  1  0  0  0
 37 47  1  0  0  0
 37 66  1  0  0  0
 37110  1  0  0  0
 38 43  2  0  0  0
 38 46  1  0  0  0
 38 47  1  0  0  0
 39 64  1  0  0  0
 39 67  2  0  0  0
 40 52  1  0  0  0
 40 53  2  0  0  0
 40 58  1  0  0  0
 41111  1  0  0  0
 41112  1  0  0  0
 41113  1  0  0  0
 41 48  1  0  0  0
 42 43  1  0  0  0
 42 66  1  0  0  0
 42114  1  0  0  0
 42115  1  0  0  0
 43 44  1  0  0  0
 44116  1  0  0  0
 45 46  2  0  0  0
 45117  1  0  0  0
 46118  1  0  0  0
 47119  1  0  0  0
 47120  1  0  0  0
 48 56  1  0  0  0
 48 65  1  0  0  0
 48121  1  0  0  0
 49 50  1  0  0  0
 49 53  1  0  0  0
 49 64  1  0  0  0
 49122  1  0  0  0
 50 51  1  0  0  0
 50123  1  0  0  0
 50124  1  0  0  0
 51 52  1  0  0  0
 51125  1  0  0  0
 51126  1  0  0  0
 52127  1  0  0  0
 52128  1  0  0  0
 53 54  1  0  0  0
 54 55  2  0  0  0
 54129  1  0  0  0
 55 57  1  0  0  0
 55130  1  0  0  0
 56 69  2  0  0  0
 57 58  2  0  0  0
 57131  1  0  0  0
 58132  1  0  0  0
 59 60  1  0  0  0
 59 61  1  0  0  0
 59 62  1  0  0  0
 60133  1  0  0  0
 60134  1  0  0  0
 60135  1  0  0  0
 61136  1  0  0  0
 61137  1  0  0  0
 61138  1  0  0  0
 62139  1  0  0  0
 62140  1  0  0  0
 62141  1  0  0  0
 63 65  1  0  0  0
 63142  1  0  0  0
 63143  1  0  0  0
 63144  1  0  0  0
 64145  1  0  0  0
 65146  1  0  0  0
 68 79  1  0  0  0
 71 73  2  0  0  0
 71 74  1  0  0  0
 71 81  1  0  0  0
 72 73  1  0  0  0
 72 75  2  0  0  0
 72 82  1  0  0  0
 73 86  1  0  0  0
 74 80  2  0  0  0
 74 83  1  0  0  0
 75 80  1  0  0  0
 75 87  1  0  0  0
 76 77  1  0  0  0
 76 78  1  0  0  0
 76 84  2  0  0  0
 77 82  1  0  0  0
 77 85  2  0  0  0
 78 79  1  0  0  0
 78147  1  0  0  0
 78148  1  0  0  0
 79149  1  0  0  0
 79150  1  0  0  0
 81151  1  0  0  0
 81152  1  0  0  0
 82153  1  0  0  0
 83154  1  0  0  0
M  ISO  4   1 100  68 101  79 101  83 100
M  END
> <chiral flag>
0

> <version>
0

> <s_m_source_file>
/data/baiqing/PycharmProjects/Reinvent-master-3.2/result/LINK_invent/BTK/process_docking_weight1_custom_product_contain_oxygen_bond_distance_aromatic_linkinvent_7_9_3/rearranged_h_0181.sdf

> <i_m_source_file_index>
33

> <r_mmod_Potential_Energy-OPLS-2005>
-242.924392700195

> <r_mmod_Stretch_Energy-OPLS-2005>
38.7743988037109

> <r_mmod_Bend_Energy-OPLS-2005>
104.179595947266

> <r_mmod_Torsional_Energy-OPLS-2005>
281.375701904297

> <r_mmod_Improper_Torsional_Energy-OPLS-2005>
12.3478965759277

> <r_mmod_Van_der_Waal_Energy-OPLS-2005>
157.963577270508

> <r_mmod_Electrostatic_Energy-OPLS-2005>
-613.025634765625

> <r_mmod_Solvation_Energy-OPLS-2005>
-239.670867919922

> <b_mmod_Minimization_Converged-OPLS-2005>
0

> <r_mmod_RMS_Derivative-OPLS-2005>
0.925536751747131

$$$$
33
                    3D
 Structure written by MMmdl.
166174  0  0  1  0            999 V2000
  -30.5629  -14.8298   20.4442 C   0  0  0  0  0  0
  -30.4374  -12.5079   19.4915 C   0  0  0  0  0  0
  -29.5157  -12.5345   18.2491 C   0  0  0  0  0  0
  -28.0429  -12.3295   18.6565 C   0  0  0  0  0  0
  -27.6403  -13.2145   19.8638 C   0  0  2  0  0  0
  -28.6867  -13.1796   21.0011 C   0  0  0  0  0  0
  -25.2515  -13.8154   20.5743 C   0  0  0  0  0  0
  -24.1791  -13.0422   20.9252 C   0  0  0  0  0  0
  -24.6363  -11.6889   20.8793 C   0  0  0  0  0  0
  -23.9032  -10.4277   21.0430 C   0  0  0  0  0  0
  -24.3602   -9.4201   21.9206 C   0  0  0  0  0  0
  -23.6304   -8.2227   22.0754 C   0  0  0  0  0  0
  -22.4297   -8.0258   21.3533 C   0  0  0  0  0  0
  -21.9907   -9.0235   20.4649 C   0  0  0  0  0  0
  -22.7211  -10.2129   20.3070 C   0  0  0  0  0  0
  -21.6852   -6.0734   22.5281 C   0  0  0  0  0  0
  -21.4002   -6.5637   23.8212 C   0  0  0  0  0  0
  -21.3668   -5.6789   24.9177 C   0  0  0  0  0  0
  -21.6055   -4.3049   24.7226 C   0  0  0  0  0  0
  -21.8821   -3.8142   23.4342 C   0  0  0  0  0  0
  -21.9188   -4.6961   22.3399 C   0  0  0  0  0  0
  -22.7815  -13.5238   21.1869 C   0  0  0  0  0  0
  -22.1663   -4.2149   21.0976 F   0  0  0  0  0  0
  -21.5637   -3.4530   25.7738 F   0  0  0  0  0  0
  -29.9810  -13.5717   20.4251 N   0  0  0  0  0  0
  -26.2926  -12.9319   20.3380 N   0  0  0  0  0  0
  -25.9299  -11.6486   20.5838 N   0  0  0  0  0  0
  -22.0405  -12.8281   22.0417 N   0  0  0  0  0  0
  -25.4200  -15.1884   20.4126 N   0  0  0  0  0  0
  -31.7174  -14.9548   20.0225 O   0  0  0  0  0  0
  -21.6639   -6.8878   21.4249 O   0  0  0  0  0  0
  -22.3534  -14.5536   20.6677 O   0  0  0  0  0  0
  -24.6330  -31.8476   23.1942 C   0  0  0  0  0  0
  -25.9135  -32.4704   23.8302 C   0  0  1  0  0  0
  -27.2417  -27.2386   20.1337 C   0  0  0  0  0  0
  -25.5917  -33.8516   24.2215 N   0  0  0  0  0  0
  -23.4327  -30.4644   21.5361 C   0  0  2  0  0  0
  -24.8867  -28.9011   20.1031 C   0  0  0  0  0  0
  -22.7503  -29.4553   22.4901 C   0  0  0  0  0  0
  -18.0282  -28.1386   22.8468 C   0  0  0  0  0  0
  -24.1482  -36.7289   23.2645 C   0  0  0  0  0  0
  -25.9768  -30.7522   21.3780 C   0  0  0  0  0  0
  -26.0508  -29.3714   20.7203 C   0  0  0  0  0  0
  -27.2227  -28.5490   20.7289 C   0  0  0  0  0  0
  -26.0597  -26.8347   19.4800 C   0  0  0  0  0  0
  -24.8975  -27.6422   19.4715 C   0  0  0  0  0  0
  -23.6539  -29.7880   20.1534 C   0  0  0  0  0  0
  -25.4104  -36.3040   24.0320 C   0  0  1  0  0  0
  -20.5883  -28.3702   23.1267 C   0  0  2  0  0  0
  -20.6770  -26.9414   22.5417 C   0  0  0  0  0  0
  -19.5758  -26.6368   21.5212 C   0  0  0  0  0  0
  -18.1932  -26.7921   22.1612 C   0  0  0  0  0  0
  -19.1534  -28.8861   23.2851 C   0  0  0  0  0  0
  -18.9456  -30.1457   23.8886 C   0  0  0  0  0  0
  -17.6454  -30.6588   24.0555 C   0  0  0  0  0  0
  -25.9055  -34.9413   23.5069 C   0  0  0  0  0  0
  -16.5346  -29.9083   23.6331 C   0  0  0  0  0  0
  -16.7270  -28.6500   23.0354 C   0  0  0  0  0  0
  -26.4493  -31.6567   25.0728 C   0  0  0  0  0  0
  -25.3710  -31.3749   26.1456 C   0  0  0  0  0  0
  -27.0349  -30.2966   24.6264 C   0  0  0  0  0  0
  -27.6015  -32.4332   25.7522 C   0  0  0  0  0  0
  -27.5561  -37.1793   24.8447 C   0  0  0  0  0  0
  -21.4208  -29.3035   22.3654 N   0  0  0  0  0  0
  -26.4269  -37.3744   23.9399 N   0  0  0  0  0  0
  -24.6991  -31.0413   22.0925 N   0  0  0  0  0  0
  -23.4186  -28.8107   23.3024 O   0  0  0  0  0  0
  -28.3510  -26.3663   20.2799 O   0  0  0  0  0  0
  -26.5637  -34.8904   22.4652 O   0  0  0  0  0  0
  -23.5476  -32.1316   23.7224 O   0  0  0  0  0  0
  -28.4124  -17.0739   19.2776 C   0  0  0  0  0  0
  -29.4359  -17.2313   20.2370 C   0  0  0  0  0  0
  -27.9712  -19.3524   19.1290 C   0  0  0  0  0  0
  -29.0323  -19.6606   20.0289 C   0  0  0  0  0  0
  -24.9827  -19.8330   19.4221 C   0  0  0  0  0  0
  -25.0782  -20.6397   20.7116 C   0  0  0  0  0  0
  -25.5413  -19.4224   16.9597 C   0  0  0  0  0  0
  -25.3233  -21.7270   17.8235 C   0  0  0  0  0  0
  -28.7397  -22.3032   20.7365 C   0  0  0  0  0  0
  -28.6157  -25.0556   19.5711 C   0  0  0  0  0  0
  -28.0814  -23.5194   19.8354 C   0  0  1  0  0  0
  -25.8122  -20.3106   18.1993 C   0  0  0  0  0  0
  -27.6821  -18.0858   18.7635 N   0  0  0  0  0  0
  -29.7419  -18.5716   20.5864 N   0  0  0  0  0  0
  -29.8285  -15.9357   20.8899 N   0  0  0  0  0  0
  -29.4589  -21.0533   20.1853 N   0  0  0  0  0  0
  -27.2531  -20.3803   18.5005 N   0  0  0  0  0  0
  -24.2652  -18.8308   19.3792 O   0  0  0  0  0  0
  -27.9480  -23.0029   18.6175 F   0  0  0  0  0  0
  -31.4764  -12.6471   19.1904 H   0  0  0  0  0  0
  -30.4005  -11.5319   19.9777 H   0  0  0  0  0  0
  -29.8174  -11.7635   17.5387 H   0  0  0  0  0  0
  -29.6239  -13.4900   17.7320 H   0  0  0  0  0  0
  -27.9096  -11.2767   18.9075 H   0  0  0  0  0  0
  -27.3845  -12.5293   17.8096 H   0  0  0  0  0  0
  -27.6173  -14.2216   19.4724 H   0  0  0  0  0  0
  -28.7487  -12.1835   21.4437 H   0  0  0  0  0  0
  -28.3956  -13.8505   21.8113 H   0  0  0  0  0  0
  -25.2740   -9.5702   22.4787 H   0  0  0  0  0  0
  -24.0012   -7.4634   22.7493 H   0  0  0  0  0  0
  -21.0821   -8.8757   19.8980 H   0  0  0  0  0  0
  -22.3656  -10.9677   19.6184 H   0  0  0  0  0  0
  -21.1970   -7.6139   23.9725 H   0  0  0  0  0  0
  -21.1506   -6.0507   25.9091 H   0  0  0  0  0  0
  -22.0589   -2.7605   23.2834 H   0  0  0  0  0  0
  -22.3984  -11.9958   22.4861 H   0  0  0  0  0  0
  -21.1031  -13.1371   22.2569 H   0  0  0  0  0  0
  -24.6336  -15.8256   20.4866 H   0  0  0  0  0  0
  -26.2341  -15.6228   20.0022 H   0  0  0  0  0  0
  -26.7201  -32.5331   23.1043 H   0  0  0  0  0  0
  -25.0007  -33.9637   25.0317 H   0  0  0  0  0  0
  -22.7301  -31.2867   21.3853 H   0  0  0  0  0  0
  -23.3723  -35.9642   23.3279 H   0  0  0  0  0  0
  -24.3585  -36.8950   22.2068 H   0  0  0  0  0  0
  -23.7266  -37.6492   23.6705 H   0  0  0  0  0  0
  -26.1166  -31.5112   20.6086 H   0  0  0  0  0  0
  -26.8537  -30.8032   22.0112 H   0  0  0  0  0  0
  -28.1090  -28.9004   21.2373 H   0  0  0  0  0  0
  -26.0117  -25.8623   19.0117 H   0  0  0  0  0  0
  -24.0057  -27.2761   18.9836 H   0  0  0  0  0  0
  -23.7730  -30.5620   19.3937 H   0  0  0  0  0  0
  -22.7734  -29.2164   19.8548 H   0  0  0  0  0  0
  -25.1288  -36.1859   25.0810 H   0  0  0  0  0  0
  -20.9951  -28.3297   24.1395 H   0  0  0  0  0  0
  -20.5671  -26.2308   23.3624 H   0  0  0  0  0  0
  -21.6640  -26.7438   22.1218 H   0  0  0  0  0  0
  -19.6922  -25.6270   21.1263 H   0  0  0  0  0  0
  -19.6708  -27.3159   20.6729 H   0  0  0  0  0  0
  -17.4200  -26.6660   21.4014 H   0  0  0  0  0  0
  -18.0335  -26.0076   22.9022 H   0  0  0  0  0  0
  -19.7936  -30.7260   24.2268 H   0  0  0  0  0  0
  -17.5018  -31.6277   24.5142 H   0  0  0  0  0  0
  -15.5345  -30.2980   23.7684 H   0  0  0  0  0  0
  -15.8660  -28.0820   22.7086 H   0  0  0  0  0  0
  -24.5868  -30.7107   25.7807 H   0  0  0  0  0  0
  -24.8940  -32.2945   26.4868 H   0  0  0  0  0  0
  -25.8043  -30.8942   27.0242 H   0  0  0  0  0  0
  -26.2958  -29.6705   24.1256 H   0  0  0  0  0  0
  -27.3955  -29.7243   25.4826 H   0  0  0  0  0  0
  -27.8869  -30.4211   23.9573 H   0  0  0  0  0  0
  -27.2575  -33.3617   26.2099 H   0  0  0  0  0  0
  -28.3853  -32.6919   25.0388 H   0  0  0  0  0  0
  -28.0664  -31.8466   26.5462 H   0  0  0  0  0  0
  -28.2546  -38.0114   24.7482 H   0  0  0  0  0  0
  -28.1080  -36.2638   24.6260 H   0  0  0  0  0  0
  -27.2289  -37.1430   25.8853 H   0  0  0  0  0  0
  -20.9409  -29.8745   21.6840 H   0  0  0  0  0  0
  -26.0125  -38.2806   24.1408 H   0  0  0  0  0  0
  -28.1091  -16.1041   18.9333 H   0  0  0  0  0  0
  -26.1068  -20.6763   21.0633 H   0  0  0  0  0  0
  -24.4712  -20.1801   21.4902 H   0  0  0  0  0  0
  -24.7208  -21.6566   20.5552 H   0  0  0  0  0  0
  -24.4901  -19.4707   16.6689 H   0  0  0  0  0  0
  -25.7633  -18.3689   17.1313 H   0  0  0  0  0  0
  -26.1253  -19.7499   16.0993 H   0  0  0  0  0  0
  -24.2535  -21.7334   17.6038 H   0  0  0  0  0  0
  -25.8325  -22.1092   16.9371 H   0  0  0  0  0  0
  -25.4877  -22.4530   18.6181 H   0  0  0  0  0  0
  -27.9476  -21.9220   21.3806 H   0  0  0  0  0  0
  -29.4295  -22.7725   21.4399 H   0  0  0  0  0  0
  -28.3403  -25.2837   18.5401 H   0  0  0  0  0  0
  -29.7022  -24.9817   19.5251 H   0  0  0  0  0  0
  -27.0546  -23.6396   20.1843 H   0  0  0  0  0  0
  -29.0732  -15.5952   21.4636 H   0  0  0  0  0  0
  -30.4365  -21.0749   20.4554 H   0  0  0  0  0  0
  -27.6069  -21.2900   18.7963 H   0  0  0  0  0  0
  1 25  1  0  0  0
  1 30  2  0  0  0
  1 85  1  0  0  0
  2  3  1  0  0  0
  2 25  1  0  0  0
  2 90  1  0  0  0
  2 91  1  0  0  0
  3  4  1  0  0  0
  3 92  1  0  0  0
  3 93  1  0  0  0
  4  5  1  0  0  0
  4 94  1  0  0  0
  4 95  1  0  0  0
  5  6  1  0  0  0
  5 26  1  0  0  0
  5 96  1  0  0  0
  6 25  1  0  0  0
  6 97  1  0  0  0
  6 98  1  0  0  0
  7  8  2  0  0  0
  7 26  1  0  0  0
  7 29  1  0  0  0
  8  9  1  0  0  0
  8 22  1  0  0  0
  9 10  1  0  0  0
  9 27  2  0  0  0
 10 11  2  0  0  0
 10 15  1  0  0  0
 11 12  1  0  0  0
 11 99  1  0  0  0
 12 13  2  0  0  0
 12100  1  0  0  0
 13 14  1  0  0  0
 13 31  1  0  0  0
 14 15  2  0  0  0
 14101  1  0  0  0
 15102  1  0  0  0
 16 17  2  0  0  0
 16 21  1  0  0  0
 16 31  1  0  0  0
 17 18  1  0  0  0
 17103  1  0  0  0
 18 19  2  0  0  0
 18104  1  0  0  0
 19 20  1  0  0  0
 19 24  1  0  0  0
 20 21  2  0  0  0
 20105  1  0  0  0
 21 23  1  0  0  0
 22 28  1  0  0  0
 22 32  2  0  0  0
 26 27  1  0  0  0
 28106  1  0  0  0
 28107  1  0  0  0
 29108  1  0  0  0
 29109  1  0  0  0
 33 34  1  0  0  0
 33 66  1  0  0  0
 33 70  2  0  0  0
 34 36  1  0  0  0
 34 59  1  0  0  0
 34110  1  0  0  0
 35 44  2  0  0  0
 35 45  1  0  0  0
 35 68  1  0  0  0
 36 56  1  0  0  0
 36111  1  0  0  0
 37 39  1  0  0  0
 37 47  1  0  0  0
 37 66  1  0  0  0
 37112  1  0  0  0
 38 43  2  0  0  0
 38 46  1  0  0  0
 38 47  1  0  0  0
 39 64  1  0  0  0
 39 67  2  0  0  0
 40 52  1  0  0  0
 40 53  2  0  0  0
 40 58  1  0  0  0
 41113  1  0  0  0
 41114  1  0  0  0
 41115  1  0  0  0
 41 48  1  0  0  0
 42 43  1  0  0  0
 42 66  1  0  0  0
 42116  1  0  0  0
 42117  1  0  0  0
 43 44  1  0  0  0
 44118  1  0  0  0
 45 46  2  0  0  0
 45119  1  0  0  0
 46120  1  0  0  0
 47121  1  0  0  0
 47122  1  0  0  0
 48 56  1  0  0  0
 48 65  1  0  0  0
 48123  1  0  0  0
 49 50  1  0  0  0
 49 53  1  0  0  0
 49 64  1  0  0  0
 49124  1  0  0  0
 50 51  1  0  0  0
 50125  1  0  0  0
 50126  1  0  0  0
 51 52  1  0  0  0
 51127  1  0  0  0
 51128  1  0  0  0
 52129  1  0  0  0
 52130  1  0  0  0
 53 54  1  0  0  0
 54 55  2  0  0  0
 54131  1  0  0  0
 55 57  1  0  0  0
 55132  1  0  0  0
 56 69  2  0  0  0
 57 58  2  0  0  0
 57133  1  0  0  0
 58134  1  0  0  0
 59 60  1  0  0  0
 59 61  1  0  0  0
 59 62  1  0  0  0
 60135  1  0  0  0
 60136  1  0  0  0
 60137  1  0  0  0
 61138  1  0  0  0
 61139  1  0  0  0
 61140  1  0  0  0
 62141  1  0  0  0
 62142  1  0  0  0
 62143  1  0  0  0
 63 65  1  0  0  0
 63144  1  0  0  0
 63145  1  0  0  0
 63146  1  0  0  0
 64147  1  0  0  0
 65148  1  0  0  0
 68 80  1  0  0  0
 71 72  2  0  0  0
 71 83  1  0  0  0
 71149  1  0  0  0
 72 84  1  0  0  0
 72 85  1  0  0  0
 73 74  1  0  0  0
 73 83  2  0  0  0
 73 87  1  0  0  0
 74 84  2  0  0  0
 74 86  1  0  0  0
 75 76  1  0  0  0
 75 82  1  0  0  0
 75 88  2  0  0  0
 76150  1  0  0  0
 76151  1  0  0  0
 76152  1  0  0  0
 77153  1  0  0  0
 77154  1  0  0  0
 77155  1  0  0  0
 77 82  1  0  0  0
 78 82  1  0  0  0
 78156  1  0  0  0
 78157  1  0  0  0
 78158  1  0  0  0
 79 81  1  0  0  0
 79 86  1  0  0  0
 79159  1  0  0  0
 79160  1  0  0  0
 80 81  1  0  0  0
 80161  1  0  0  0
 80162  1  0  0  0
 81 89  1  0  0  0
 81163  1  0  0  0
 82 87  1  0  0  0
 85164  1  0  0  0
 86165  1  0  0  0
 87166  1  0  0  0
M  ISO  4   1 100  68 101  80 101  85 100
M  END
> <chiral flag>
0

> <version>
0

> <s_m_source_file>
/data/baiqing/PycharmProjects/Reinvent-master-3.2/result/LINK_invent/BTK/process_docking_weight1_custom_product_contain_oxygen_bond_distance_aromatic_linkinvent_7_9_3/rearranged_h_0181.sdf

> <i_m_source_file_index>
34

> <r_mmod_Potential_Energy-OPLS-2005>
317.819030761719

> <r_mmod_Stretch_Energy-OPLS-2005>
172.295974731445

> <r_mmod_Bend_Energy-OPLS-2005>
312.829284667969

> <r_mmod_Torsional_Energy-OPLS-2005>
292.41015625

> <r_mmod_Improper_Torsional_Energy-OPLS-2005>
14.590841293335

> <r_mmod_Van_der_Waal_Energy-OPLS-2005>
137.823852539062

> <r_mmod_Electrostatic_Energy-OPLS-2005>
-480.89208984375

> <r_mmod_Solvation_Energy-OPLS-2005>
-246.609420776367

> <b_mmod_Minimization_Converged-OPLS-2005>
0

> <r_mmod_RMS_Derivative-OPLS-2005>
2.59013843536377

$$$$
34
                    3D
 Structure written by MMmdl.
150158  0  0  1  0            999 V2000
  -29.2507  -16.3013   21.0558 C   0  0  0  0  0  0
  -30.1605  -13.7927   19.8264 C   0  0  0  0  0  0
  -29.5520  -12.9897   18.5842 C   0  0  0  0  0  0
  -28.1978  -12.3535   18.9166 C   0  0  0  0  0  0
  -27.4922  -13.3187   19.8735 C   0  0  2  0  0  0
  -28.2976  -13.7320   21.1183 C   0  0  0  0  0  0
  -25.1655  -13.8161   20.5570 C   0  0  0  0  0  0
  -24.1228  -13.0291   20.9265 C   0  0  0  0  0  0
  -24.6003  -11.6815   20.8709 C   0  0  0  0  0  0
  -23.8838  -10.4193   21.0425 C   0  0  0  0  0  0
  -24.3498   -9.4135   21.9173 C   0  0  0  0  0  0
  -23.6222   -8.2150   22.0739 C   0  0  0  0  0  0
  -22.4208   -8.0174   21.3523 C   0  0  0  0  0  0
  -21.9788   -9.0106   20.4619 C   0  0  0  0  0  0
  -22.7055  -10.1999   20.3033 C   0  0  0  0  0  0
  -21.6823   -6.0653   22.5288 C   0  0  0  0  0  0
  -21.3992   -6.5591   23.8208 C   0  0  0  0  0  0
  -21.3657   -5.6764   24.9179 C   0  0  0  0  0  0
  -21.6051   -4.3027   24.7249 C   0  0  0  0  0  0
  -21.8821   -3.8095   23.4380 C   0  0  0  0  0  0
  -21.9188   -4.6888   22.3424 C   0  0  0  0  0  0
  -22.7323  -13.5049   21.1988 C   0  0  0  0  0  0
  -22.1655   -4.2086   21.0993 F   0  0  0  0  0  0
  -21.5645   -3.4518   25.7764 F   0  0  0  0  0  0
  -29.1915  -14.7947   20.6470 N   0  0  0  0  0  0
  -26.1881  -12.9383   20.2885 N   0  0  0  0  0  0
  -25.8858  -11.6490   20.5514 N   0  0  0  0  0  0
  -22.0074  -12.8042   22.0608 N   0  0  0  0  0  0
  -25.3310  -15.1919   20.3963 N   0  0  0  0  0  0
  -30.5251  -16.3578   20.8752 O   0  0  0  0  0  0
  -21.6595   -6.8767   21.4232 O   0  0  0  0  0  0
  -22.3063  -14.5390   20.6853 O   0  0  0  0  0  0
  -24.9164  -31.8527   23.2159 C   0  0  0  0  0  0
  -26.0758  -32.5509   23.9028 C   0  0  1  0  0  0
  -25.3105  -27.5412   20.3673 C   0  0  0  0  0  0
  -25.6610  -33.9035   24.2673 N   0  0  0  0  0  0
  -24.4311  -29.6726   22.1756 C   0  0  2  0  0  0
  -25.0932  -29.8353   19.6378 C   0  0  0  0  0  0
  -24.4366  -27.8408   22.7593 C   0  0  0  0  0  0
  -18.3458  -27.6674   22.7825 C   0  0  0  0  0  0
  -24.1462  -36.7453   23.2512 C   0  0  0  0  0  0
  -26.4381  -30.7689   21.5402 C   0  0  0  0  0  0
  -26.2355  -29.7122   20.4531 C   0  0  0  0  0  0
  -26.4795  -28.3565   20.7528 C   0  0  0  0  0  0
  -25.4574  -27.4385   19.0258 C   0  0  0  0  0  0
  -24.9199  -28.7109   18.7028 C   0  0  0  0  0  0
  -23.9649  -30.3072   20.6270 C   0  0  0  0  0  0
  -25.4070  -36.3324   24.0277 C   0  0  1  0  0  0
  -21.0959  -26.7306   22.3983 C   0  0  2  0  0  0
  -20.6236  -26.5198   21.0848 C   0  0  0  0  0  0
  -19.1239  -26.3732   20.8947 C   0  0  0  0  0  0
  -18.1989  -26.3686   22.0989 C   0  0  0  0  0  0
  -19.7408  -27.9874   23.0226 C   0  0  0  0  0  0
  -19.6332  -29.3630   23.6328 C   0  0  0  0  0  0
  -18.4216  -30.1607   23.8972 C   0  0  0  0  0  0
  -25.9143  -34.9773   23.5128 C   0  0  0  0  0  0
  -17.1341  -29.6825   23.5991 C   0  0  0  0  0  0
  -17.1276  -28.4053   23.0299 C   0  0  0  0  0  0
  -26.5314  -31.7184   25.1608 C   0  0  0  0  0  0
  -25.3967  -31.4159   26.1715 C   0  0  0  0  0  0
  -27.1816  -30.3612   24.7845 C   0  0  0  0  0  0
  -27.6411  -32.5114   25.8733 C   0  0  0  0  0  0
  -27.5606  -37.1904   24.8424 C   0  0  0  0  0  0
  -23.1618  -26.6496   22.2167 N   0  0  0  0  0  0
  -26.4230  -37.4049   23.9490 N   0  0  0  0  0  0
  -25.3033  -30.7613   22.4797 N   0  0  0  0  0  0
  -24.9512  -27.8592   23.8328 O   0  0  0  0  0  0
  -23.7407  -28.0090   20.6094 O   0  0  0  0  0  0
  -26.5483  -34.9147   22.4552 O   0  0  0  0  0  0
  -23.7425  -32.1307   23.5477 O   0  0  0  0  0  0
  -25.7256  -22.0831   23.0246 C   0  0  0  0  0  0
  -26.9430  -21.8731   23.7128 C   0  0  0  0  0  0
  -27.3731  -19.3758   22.1311 C   0  0  0  0  0  0
  -22.4854  -27.3216   24.3437 C   0  0  0  0  0  0
  -24.4069  -25.1947   25.5893 C   0  0  0  0  0  0
  -22.2878  -28.7026   22.3322 C   0  0  0  0  0  0
  -23.6704  -25.1671   24.2443 C   0  0  2  0  0  0
  -26.1523  -20.5424   22.1600 N   0  0  0  0  0  0
  -24.5797  -23.6462   23.2503 N   0  0  0  0  0  0
  -28.0731  -17.5971   21.4369 N   0  0  0  0  0  0
  -21.9844  -27.7203   25.4006 O   0  0  0  0  0  0
  -27.3301  -22.8095   24.6192 F   0  0  0  0  0  0
  -28.1435  -20.4025   23.4511 S   0  0  0  0  0  0
  -30.9811  -14.3885   19.4285 H   0  0  0  0  0  0
  -30.6574  -13.1012   20.5104 H   0  0  0  0  0  0
  -30.2564  -12.2361   18.2276 H   0  0  0  0  0  0
  -29.4071  -13.6883   17.7575 H   0  0  0  0  0  0
  -28.3651  -11.3964   19.4128 H   0  0  0  0  0  0
  -27.6113  -12.1575   18.0167 H   0  0  0  0  0  0
  -27.3427  -14.2063   19.2564 H   0  0  0  0  0  0
  -28.7803  -12.8868   21.6157 H   0  0  0  0  0  0
  -27.6454  -14.1803   21.8706 H   0  0  0  0  0  0
  -25.2627   -9.5667   22.4747 H   0  0  0  0  0  0
  -23.9948   -7.4542   22.7454 H   0  0  0  0  0  0
  -21.0725   -8.8551   19.8943 H   0  0  0  0  0  0
  -22.3453  -10.9512   19.6156 H   0  0  0  0  0  0
  -21.1966   -7.6097   23.9691 H   0  0  0  0  0  0
  -21.1491   -6.0494   25.9075 H   0  0  0  0  0  0
  -22.0611   -2.7560   23.2893 H   0  0  0  0  0  0
  -22.3755  -11.9706   22.4979 H   0  0  0  0  0  0
  -21.0693  -13.1032   22.2899 H   0  0  0  0  0  0
  -24.4776  -15.7394   20.3612 H   0  0  0  0  0  0
  -26.0069  -15.5072   19.7146 H   0  0  0  0  0  0
  -26.9330  -32.6184   23.2334 H   0  0  0  0  0  0
  -25.1059  -34.0126   25.1019 H   0  0  0  0  0  0
  -23.9321  -29.9012   23.1069 H   0  0  0  0  0  0
  -23.3804  -35.9697   23.3076 H   0  0  0  0  0  0
  -24.3608  -36.9154   22.1948 H   0  0  0  0  0  0
  -23.7075  -37.6584   23.6541 H   0  0  0  0  0  0
  -26.5424  -31.7475   21.0681 H   0  0  0  0  0  0
  -27.3786  -30.5638   22.0468 H   0  0  0  0  0  0
  -27.0839  -28.0934   21.6118 H   0  0  0  0  0  0
  -25.0149  -26.6154   18.4793 H   0  0  0  0  0  0
  -24.1538  -28.7495   17.9420 H   0  0  0  0  0  0
  -23.9308  -31.3978   20.6091 H   0  0  0  0  0  0
  -22.9678  -30.0564   20.2608 H   0  0  0  0  0  0
  -25.1160  -36.2208   25.0742 H   0  0  0  0  0  0
  -20.8486  -25.7974   22.9164 H   0  0  0  0  0  0
  -21.1248  -25.6568   20.6459 H   0  0  0  0  0  0
  -20.9358  -27.3372   20.4368 H   0  0  0  0  0  0
  -18.9494  -25.4634   20.3211 H   0  0  0  0  0  0
  -18.7863  -27.1718   20.2261 H   0  0  0  0  0  0
  -17.1712  -26.1865   21.7821 H   0  0  0  0  0  0
  -18.4620  -25.5579   22.7765 H   0  0  0  0  0  0
  -20.5447  -29.8585   23.9175 H   0  0  0  0  0  0
  -18.5279  -31.1460   24.3278 H   0  0  0  0  0  0
  -16.2339  -30.2516   23.7822 H   0  0  0  0  0  0
  -16.1717  -27.9639   22.7734 H   0  0  0  0  0  0
  -24.6444  -30.7356   25.7705 H   0  0  0  0  0  0
  -24.8854  -32.3255   26.4864 H   0  0  0  0  0  0
  -25.7911  -30.9483   27.0754 H   0  0  0  0  0  0
  -26.5037  -29.6517   24.3300 H   0  0  0  0  0  0
  -27.5474  -29.8570   25.6808 H   0  0  0  0  0  0
  -28.0477  -30.4867   24.1356 H   0  0  0  0  0  0
  -27.2719  -33.4493   26.2910 H   0  0  0  0  0  0
  -28.4567  -32.7615   25.1924 H   0  0  0  0  0  0
  -28.0722  -31.9523   26.7056 H   0  0  0  0  0  0
  -28.2478  -38.0356   24.7804 H   0  0  0  0  0  0
  -28.1252  -36.2940   24.5825 H   0  0  0  0  0  0
  -27.2382  -37.1061   25.8815 H   0  0  0  0  0  0
  -23.5012  -25.7000   22.2780 H   0  0  0  0  0  0
  -26.0128  -38.3076   24.1725 H   0  0  0  0  0  0
  -25.3573  -24.6704   25.5233 H   0  0  0  0  0  0
  -23.8295  -24.7387   26.4006 H   0  0  0  0  0  0
  -24.6093  -26.2259   25.8771 H   0  0  0  0  0  0
  -22.1857  -29.7508   22.6119 H   0  0  0  0  0  0
  -21.3807  -28.8246   21.7608 H   0  0  0  0  0  0
  -22.8066  -24.5419   24.4781 H   0  0  0  0  0  0
  -24.2466  -23.7625   22.2984 H   0  0  0  0  0  0
  -27.2334  -17.1120   21.1425 H   0  0  0  0  0  0
  1 25  1  0  0  0
  1 30  2  0  0  0
  1 80  1  0  0  0
  2  3  1  0  0  0
  2 25  1  0  0  0
  2 84  1  0  0  0
  2 85  1  0  0  0
  3  4  1  0  0  0
  3 86  1  0  0  0
  3 87  1  0  0  0
  4  5  1  0  0  0
  4 88  1  0  0  0
  4 89  1  0  0  0
  5  6  1  0  0  0
  5 26  1  0  0  0
  5 90  1  0  0  0
  6 25  1  0  0  0
  6 91  1  0  0  0
  6 92  1  0  0  0
  7  8  2  0  0  0
  7 26  1  0  0  0
  7 29  1  0  0  0
  8  9  1  0  0  0
  8 22  1  0  0  0
  9 10  1  0  0  0
  9 27  2  0  0  0
 10 11  2  0  0  0
 10 15  1  0  0  0
 11 12  1  0  0  0
 11 93  1  0  0  0
 12 13  2  0  0  0
 12 94  1  0  0  0
 13 14  1  0  0  0
 13 31  1  0  0  0
 14 15  2  0  0  0
 14 95  1  0  0  0
 15 96  1  0  0  0
 16 17  2  0  0  0
 16 21  1  0  0  0
 16 31  1  0  0  0
 17 18  1  0  0  0
 17 97  1  0  0  0
 18 19  2  0  0  0
 18 98  1  0  0  0
 19 20  1  0  0  0
 19 24  1  0  0  0
 20 21  2  0  0  0
 20 99  1  0  0  0
 21 23  1  0  0  0
 22 28  1  0  0  0
 22 32  2  0  0  0
 26 27  1  0  0  0
 28100  1  0  0  0
 28101  1  0  0  0
 29102  1  0  0  0
 29103  1  0  0  0
 33 34  1  0  0  0
 33 66  1  0  0  0
 33 70  2  0  0  0
 34 36  1  0  0  0
 34 59  1  0  0  0
 34104  1  0  0  0
 35 44  2  0  0  0
 35 45  1  0  0  0
 35 68  1  0  0  0
 36 56  1  0  0  0
 36105  1  0  0  0
 37 39  1  0  0  0
 37 47  1  0  0  0
 37 66  1  0  0  0
 37106  1  0  0  0
 38 43  2  0  0  0
 38 46  1  0  0  0
 38 47  1  0  0  0
 39 64  1  0  0  0
 39 67  2  0  0  0
 40 52  1  0  0  0
 40 53  2  0  0  0
 40 58  1  0  0  0
 41107  1  0  0  0
 41108  1  0  0  0
 41109  1  0  0  0
 41 48  1  0  0  0
 42 43  1  0  0  0
 42 66  1  0  0  0
 42110  1  0  0  0
 42111  1  0  0  0
 43 44  1  0  0  0
 44112  1  0  0  0
 45 46  2  0  0  0
 45113  1  0  0  0
 46114  1  0  0  0
 47115  1  0  0  0
 47116  1  0  0  0
 48 56  1  0  0  0
 48 65  1  0  0  0
 48117  1  0  0  0
 49 50  1  0  0  0
 49 53  1  0  0  0
 49 64  1  0  0  0
 49118  1  0  0  0
 50 51  1  0  0  0
 50119  1  0  0  0
 50120  1  0  0  0
 51 52  1  0  0  0
 51121  1  0  0  0
 51122  1  0  0  0
 52123  1  0  0  0
 52124  1  0  0  0
 53 54  1  0  0  0
 54 55  2  0  0  0
 54125  1  0  0  0
 55 57  1  0  0  0
 55126  1  0  0  0
 56 69  2  0  0  0
 57 58  2  0  0  0
 57127  1  0  0  0
 58128  1  0  0  0
 59 60  1  0  0  0
 59 61  1  0  0  0
 59 62  1  0  0  0
 60129  1  0  0  0
 60130  1  0  0  0
 60131  1  0  0  0
 61132  1  0  0  0
 61133  1  0  0  0
 61134  1  0  0  0
 62135  1  0  0  0
 62136  1  0  0  0
 62137  1  0  0  0
 63 65  1  0  0  0
 63138  1  0  0  0
 63139  1  0  0  0
 63140  1  0  0  0
 64141  1  0  0  0
 65142  1  0  0  0
 68 76  1  0  0  0
 71 72  2  0  0  0
 71 78  1  0  0  0
 71 79  1  0  0  0
 72 82  1  0  0  0
 72 83  1  0  0  0
 73 78  2  0  0  0
 73 80  1  0  0  0
 73 83  1  0  0  0
 74 76  1  0  0  0
 74 77  1  0  0  0
 74 81  2  0  0  0
 75143  1  0  0  0
 75144  1  0  0  0
 75145  1  0  0  0
 75 77  1  0  0  0
 76146  1  0  0  0
 76147  1  0  0  0
 77 79  1  0  0  0
 77148  1  0  0  0
 79149  1  0  0  0
 80150  1  0  0  0
M  ISO  4   1 100  68 101  76 101  80 100
M  END
> <chiral flag>
0

> <version>
0

> <s_m_source_file>
/data/baiqing/PycharmProjects/Reinvent-master-3.2/result/LINK_invent/BTK/process_docking_weight1_custom_product_contain_oxygen_bond_distance_aromatic_linkinvent_7_9_3/rearranged_h_0181.sdf

> <i_m_source_file_index>
35

> <r_mmod_Potential_Energy-OPLS-2005>
20897.037109375

> <r_mmod_Stretch_Energy-OPLS-2005>
7974.2568359375

> <r_mmod_Bend_Energy-OPLS-2005>
1883.96960449219

> <r_mmod_Torsional_Energy-OPLS-2005>
685.330932617188

> <r_mmod_Improper_Torsional_Energy-OPLS-2005>
118.701454162598

> <r_mmod_Van_der_Waal_Energy-OPLS-2005>
2295.33715820312

> <r_mmod_Electrostatic_Energy-OPLS-2005>
-321.797546386719

> <r_mmod_Solvation_Energy-OPLS-2005>
-228.67170715332

> <b_mmod_Minimization_Converged-OPLS-2005>
0

> <r_mmod_RMS_Derivative-OPLS-2005>
11.6597757339478

$$$$
35
                    3D
 Structure written by MMmdl.
156164  0  0  1  0            999 V2000
  -30.6052  -14.7529   20.4775 C   0  0  0  0  0  0
  -30.4453  -12.4659   19.4656 C   0  0  0  0  0  0
  -29.5152  -12.5116   18.2342 C   0  0  0  0  0  0
  -28.0420  -12.3316   18.6501 C   0  0  0  0  0  0
  -27.6465  -13.2276   19.8533 C   0  0  2  0  0  0
  -28.6947  -13.1579   20.9870 C   0  0  0  0  0  0
  -25.2542  -13.8190   20.5679 C   0  0  0  0  0  0
  -24.1834  -13.0438   20.9184 C   0  0  0  0  0  0
  -24.6415  -11.6915   20.8772 C   0  0  0  0  0  0
  -23.9082  -10.4294   21.0417 C   0  0  0  0  0  0
  -24.3633   -9.4206   21.9181 C   0  0  0  0  0  0
  -23.6294   -8.2254   22.0762 C   0  0  0  0  0  0
  -22.4275   -8.0292   21.3546 C   0  0  0  0  0  0
  -21.9919   -9.0273   20.4652 C   0  0  0  0  0  0
  -22.7261  -10.2137   20.3054 C   0  0  0  0  0  0
  -21.6862   -6.0737   22.5274 C   0  0  0  0  0  0
  -21.4018   -6.5641   23.8206 C   0  0  0  0  0  0
  -21.3650   -5.6793   24.9178 C   0  0  0  0  0  0
  -21.6052   -4.3060   24.7224 C   0  0  0  0  0  0
  -21.8814   -3.8146   23.4350 C   0  0  0  0  0  0
  -21.9194   -4.6965   22.3406 C   0  0  0  0  0  0
  -22.7850  -13.5227   21.1849 C   0  0  0  0  0  0
  -22.1664   -4.2149   21.0984 F   0  0  0  0  0  0
  -21.5624   -3.4543   25.7740 F   0  0  0  0  0  0
  -29.9962  -13.5182   20.4047 N   0  0  0  0  0  0
  -26.2965  -12.9395   20.3274 N   0  0  0  0  0  0
  -25.9335  -11.6540   20.5756 N   0  0  0  0  0  0
  -22.0488  -12.8215   22.0412 N   0  0  0  0  0  0
  -25.4215  -15.1916   20.4086 N   0  0  0  0  0  0
  -31.7953  -14.8674   20.1633 O   0  0  0  0  0  0
  -21.6646   -6.8887   21.4234 O   0  0  0  0  0  0
  -22.3536  -14.5532   20.6702 O   0  0  0  0  0  0
  -24.6313  -31.8553   23.2006 C   0  0  0  0  0  0
  -25.9114  -32.4744   23.8352 C   0  0  1  0  0  0
  -27.2052  -27.2526   20.1323 C   0  0  0  0  0  0
  -25.5931  -33.8569   24.2267 N   0  0  0  0  0  0
  -23.4267  -30.4787   21.5400 C   0  0  2  0  0  0
  -24.8715  -28.9278   20.1104 C   0  0  0  0  0  0
  -22.7513  -29.4580   22.4892 C   0  0  0  0  0  0
  -18.0274  -28.1380   22.8464 C   0  0  0  0  0  0
  -24.1499  -36.7292   23.2640 C   0  0  0  0  0  0
  -25.9730  -30.7646   21.3825 C   0  0  0  0  0  0
  -26.0406  -29.3875   20.7257 C   0  0  0  0  0  0
  -27.2059  -28.5562   20.7331 C   0  0  0  0  0  0
  -26.0117  -26.8703   19.4740 C   0  0  0  0  0  0
  -24.8606  -27.6798   19.4740 C   0  0  0  0  0  0
  -23.6478  -29.8198   20.1525 C   0  0  0  0  0  0
  -25.4113  -36.3065   24.0339 C   0  0  1  0  0  0
  -20.5886  -28.3675   23.1289 C   0  0  2  0  0  0
  -20.6761  -26.9384   22.5419 C   0  0  0  0  0  0
  -19.5738  -26.6378   21.5206 C   0  0  0  0  0  0
  -18.1916  -26.7911   22.1618 C   0  0  0  0  0  0
  -19.1538  -28.8840   23.2856 C   0  0  0  0  0  0
  -18.9470  -30.1445   23.8873 C   0  0  0  0  0  0
  -17.6468  -30.6582   24.0558 C   0  0  0  0  0  0
  -25.9063  -34.9440   23.5100 C   0  0  0  0  0  0
  -16.5358  -29.9082   23.6329 C   0  0  0  0  0  0
  -16.7262  -28.6512   23.0328 C   0  0  0  0  0  0
  -26.4491  -31.6574   25.0738 C   0  0  0  0  0  0
  -25.3730  -31.3749   26.1470 C   0  0  0  0  0  0
  -27.0334  -30.3005   24.6205 C   0  0  0  0  0  0
  -27.6024  -32.4325   25.7515 C   0  0  0  0  0  0
  -27.5568  -37.1808   24.8463 C   0  0  0  0  0  0
  -21.4217  -29.3033   22.3678 N   0  0  0  0  0  0
  -26.4277  -37.3768   23.9415 N   0  0  0  0  0  0
  -24.6950  -31.0514   22.0977 N   0  0  0  0  0  0
  -23.4236  -28.8097   23.2960 O   0  0  0  0  0  0
  -28.3202  -26.3842   20.2223 O   0  0  0  0  0  0
  -26.5619  -34.8896   22.4660 O   0  0  0  0  0  0
  -23.5461  -32.1365   23.7292 O   0  0  0  0  0  0
  -31.1018  -19.3221   21.1565 C   0  0  0  0  0  0
  -29.8945  -19.9382   20.8463 C   0  0  0  0  0  0
  -29.9983  -17.3175   20.7185 C   0  0  0  0  0  0
  -28.7501  -22.2249   20.4348 C   0  0  0  0  0  0
  -32.3493  -20.0327   21.5944 C   0  0  0  0  0  0
  -30.1441  -24.1773   21.4162 C   0  0  0  0  0  0
  -27.7444  -23.8526   22.0811 C   0  0  0  0  0  0
  -28.2917  -24.9194   19.8486 C   0  0  0  0  0  0
  -28.7451  -23.7776   20.9098 C   0  0  0  0  0  0
  -31.1537  -17.9020   21.0694 N   0  0  0  0  0  0
  -29.6629  -21.3270   20.9554 N   0  0  0  0  0  0
  -29.7788  -15.8500   20.6786 N   0  0  0  0  0  0
  -27.8993  -21.8526   19.6277 O   0  0  0  0  0  0
  -28.7564  -18.6132   20.4395 S   0  0  0  0  0  0
  -31.4800  -12.6113   19.1525 H   0  0  0  0  0  0
  -30.4121  -11.4869   19.9446 H   0  0  0  0  0  0
  -29.8006  -11.7403   17.5175 H   0  0  0  0  0  0
  -29.6357  -13.4650   17.7192 H   0  0  0  0  0  0
  -27.9028  -11.2810   18.9111 H   0  0  0  0  0  0
  -27.3840  -12.5255   17.8010 H   0  0  0  0  0  0
  -27.6414  -14.2482   19.4722 H   0  0  0  0  0  0
  -28.7352  -12.1601   21.4277 H   0  0  0  0  0  0
  -28.4263  -13.8368   21.7976 H   0  0  0  0  0  0
  -25.2776   -9.5687   22.4753 H   0  0  0  0  0  0
  -24.0002   -7.4654   22.7487 H   0  0  0  0  0  0
  -21.0846   -8.8788   19.8968 H   0  0  0  0  0  0
  -22.3712  -10.9677   19.6167 H   0  0  0  0  0  0
  -21.2013   -7.6144   23.9708 H   0  0  0  0  0  0
  -21.1475   -6.0530   25.9076 H   0  0  0  0  0  0
  -22.0602   -2.7605   23.2852 H   0  0  0  0  0  0
  -22.4101  -11.9876   22.4801 H   0  0  0  0  0  0
  -21.1097  -13.1246   22.2605 H   0  0  0  0  0  0
  -24.6472  -15.8384   20.5205 H   0  0  0  0  0  0
  -26.2484  -15.6340   20.0287 H   0  0  0  0  0  0
  -26.7174  -32.5387   23.1086 H   0  0  0  0  0  0
  -25.0072  -33.9713   25.0410 H   0  0  0  0  0  0
  -22.7190  -31.2964   21.3949 H   0  0  0  0  0  0
  -23.3740  -35.9641   23.3309 H   0  0  0  0  0  0
  -24.3580  -36.8918   22.2047 H   0  0  0  0  0  0
  -23.7274  -37.6507   23.6671 H   0  0  0  0  0  0
  -26.1090  -31.5248   20.6125 H   0  0  0  0  0  0
  -26.8515  -30.8194   22.0137 H   0  0  0  0  0  0
  -28.0998  -28.8880   21.2428 H   0  0  0  0  0  0
  -25.9154  -25.9338   18.9552 H   0  0  0  0  0  0
  -23.9604  -27.3322   18.9836 H   0  0  0  0  0  0
  -23.7971  -30.6005   19.4061 H   0  0  0  0  0  0
  -22.7618  -29.2663   19.8337 H   0  0  0  0  0  0
  -25.1296  -36.1912   25.0839 H   0  0  0  0  0  0
  -20.9949  -28.3222   24.1427 H   0  0  0  0  0  0
  -20.5657  -26.2269   23.3610 H   0  0  0  0  0  0
  -21.6631  -26.7394   22.1221 H   0  0  0  0  0  0
  -19.6912  -25.6288   21.1239 H   0  0  0  0  0  0
  -19.6707  -27.3178   20.6723 H   0  0  0  0  0  0
  -17.4197  -26.6640   21.4011 H   0  0  0  0  0  0
  -18.0311  -26.0052   22.9026 H   0  0  0  0  0  0
  -19.7954  -30.7251   24.2243 H   0  0  0  0  0  0
  -17.5035  -31.6254   24.5158 H   0  0  0  0  0  0
  -15.5353  -30.2991   23.7669 H   0  0  0  0  0  0
  -15.8652  -28.0842   22.7035 H   0  0  0  0  0  0
  -24.5908  -30.7076   25.7843 H   0  0  0  0  0  0
  -24.8901  -32.2931   26.4837 H   0  0  0  0  0  0
  -25.8062  -30.8993   27.0286 H   0  0  0  0  0  0
  -26.2931  -29.6750   24.1198 H   0  0  0  0  0  0
  -27.4012  -29.7247   25.4702 H   0  0  0  0  0  0
  -27.8817  -30.4272   23.9459 H   0  0  0  0  0  0
  -27.2619  -33.3632   26.2053 H   0  0  0  0  0  0
  -28.3866  -32.6878   25.0389 H   0  0  0  0  0  0
  -28.0658  -31.8491   26.5476 H   0  0  0  0  0  0
  -28.2587  -38.0098   24.7468 H   0  0  0  0  0  0
  -28.1055  -36.2630   24.6330 H   0  0  0  0  0  0
  -27.2279  -37.1497   25.8861 H   0  0  0  0  0  0
  -20.9378  -29.8860   21.6994 H   0  0  0  0  0  0
  -26.0153  -38.2849   24.1408 H   0  0  0  0  0  0
  -32.2080  -20.5259   22.5553 H   0  0  0  0  0  0
  -32.6419  -20.7941   20.8709 H   0  0  0  0  0  0
  -33.1938  -19.3496   21.7077 H   0  0  0  0  0  0
  -30.4702  -23.5920   22.2778 H   0  0  0  0  0  0
  -30.1478  -25.2238   21.7242 H   0  0  0  0  0  0
  -30.8941  -24.0732   20.6345 H   0  0  0  0  0  0
  -27.9592  -23.1049   22.8467 H   0  0  0  0  0  0
  -26.7181  -23.6941   21.7434 H   0  0  0  0  0  0
  -27.7803  -24.8313   22.5606 H   0  0  0  0  0  0
  -27.3338  -24.6076   19.4528 H   0  0  0  0  0  0
  -28.9652  -24.8403   18.9914 H   0  0  0  0  0  0
  -30.3412  -21.7985   21.5378 H   0  0  0  0  0  0
  -28.8088  -15.5928   20.7682 H   0  0  0  0  0  0
  1 25  1  0  0  0
  1 30  2  0  0  0
  1 82  1  0  0  0
  2  3  1  0  0  0
  2 25  1  0  0  0
  2 85  1  0  0  0
  2 86  1  0  0  0
  3  4  1  0  0  0
  3 87  1  0  0  0
  3 88  1  0  0  0
  4  5  1  0  0  0
  4 89  1  0  0  0
  4 90  1  0  0  0
  5  6  1  0  0  0
  5 26  1  0  0  0
  5 91  1  0  0  0
  6 25  1  0  0  0
  6 92  1  0  0  0
  6 93  1  0  0  0
  7  8  2  0  0  0
  7 26  1  0  0  0
  7 29  1  0  0  0
  8  9  1  0  0  0
  8 22  1  0  0  0
  9 10  1  0  0  0
  9 27  2  0  0  0
 10 11  2  0  0  0
 10 15  1  0  0  0
 11 12  1  0  0  0
 11 94  1  0  0  0
 12 13  2  0  0  0
 12 95  1  0  0  0
 13 14  1  0  0  0
 13 31  1  0  0  0
 14 15  2  0  0  0
 14 96  1  0  0  0
 15 97  1  0  0  0
 16 17  2  0  0  0
 16 21  1  0  0  0
 16 31  1  0  0  0
 17 18  1  0  0  0
 17 98  1  0  0  0
 18 19  2  0  0  0
 18 99  1  0  0  0
 19 20  1  0  0  0
 19 24  1  0  0  0
 20 21  2  0  0  0
 20100  1  0  0  0
 21 23  1  0  0  0
 22 28  1  0  0  0
 22 32  2  0  0  0
 26 27  1  0  0  0
 28101  1  0  0  0
 28102  1  0  0  0
 29103  1  0  0  0
 29104  1  0  0  0
 33 34  1  0  0  0
 33 66  1  0  0  0
 33 70  2  0  0  0
 34 36  1  0  0  0
 34 59  1  0  0  0
 34105  1  0  0  0
 35 44  2  0  0  0
 35 45  1  0  0  0
 35 68  1  0  0  0
 36 56  1  0  0  0
 36106  1  0  0  0
 37 39  1  0  0  0
 37 47  1  0  0  0
 37 66  1  0  0  0
 37107  1  0  0  0
 38 43  2  0  0  0
 38 46  1  0  0  0
 38 47  1  0  0  0
 39 64  1  0  0  0
 39 67  2  0  0  0
 40 52  1  0  0  0
 40 53  2  0  0  0
 40 58  1  0  0  0
 41108  1  0  0  0
 41109  1  0  0  0
 41110  1  0  0  0
 41 48  1  0  0  0
 42 43  1  0  0  0
 42 66  1  0  0  0
 42111  1  0  0  0
 42112  1  0  0  0
 43 44  1  0  0  0
 44113  1  0  0  0
 45 46  2  0  0  0
 45114  1  0  0  0
 46115  1  0  0  0
 47116  1  0  0  0
 47117  1  0  0  0
 48 56  1  0  0  0
 48 65  1  0  0  0
 48118  1  0  0  0
 49 50  1  0  0  0
 49 53  1  0  0  0
 49 64  1  0  0  0
 49119  1  0  0  0
 50 51  1  0  0  0
 50120  1  0  0  0
 50121  1  0  0  0
 51 52  1  0  0  0
 51122  1  0  0  0
 51123  1  0  0  0
 52124  1  0  0  0
 52125  1  0  0  0
 53 54  1  0  0  0
 54 55  2  0  0  0
 54126  1  0  0  0
 55 57  1  0  0  0
 55127  1  0  0  0
 56 69  2  0  0  0
 57 58  2  0  0  0
 57128  1  0  0  0
 58129  1  0  0  0
 59 60  1  0  0  0
 59 61  1  0  0  0
 59 62  1  0  0  0
 60130  1  0  0  0
 60131  1  0  0  0
 60132  1  0  0  0
 61133  1  0  0  0
 61134  1  0  0  0
 61135  1  0  0  0
 62136  1  0  0  0
 62137  1  0  0  0
 62138  1  0  0  0
 63 65  1  0  0  0
 63139  1  0  0  0
 63140  1  0  0  0
 63141  1  0  0  0
 64142  1  0  0  0
 65143  1  0  0  0
 68 78  1  0  0  0
 71 72  2  0  0  0
 71 75  1  0  0  0
 71 80  1  0  0  0
 72 81  1  0  0  0
 72 84  1  0  0  0
 73 80  2  0  0  0
 73 82  1  0  0  0
 73 84  1  0  0  0
 74 79  1  0  0  0
 74 81  1  0  0  0
 74 83  2  0  0  0
 75144  1  0  0  0
 75145  1  0  0  0
 75146  1  0  0  0
 76147  1  0  0  0
 76148  1  0  0  0
 76149  1  0  0  0
 76 79  1  0  0  0
 77 79  1  0  0  0
 77150  1  0  0  0
 77151  1  0  0  0
 77152  1  0  0  0
 78 79  1  0  0  0
 78153  1  0  0  0
 78154  1  0  0  0
 81155  1  0  0  0
 82156  1  0  0  0
M  ISO  4   1 100  68 101  78 101  82 100
M  END
> <chiral flag>
0

> <version>
0

> <s_m_source_file>
/data/baiqing/PycharmProjects/Reinvent-master-3.2/result/LINK_invent/BTK/process_docking_weight1_custom_product_contain_oxygen_bond_distance_aromatic_linkinvent_7_9_3/rearranged_h_0181.sdf

> <i_m_source_file_index>
36

> <r_mmod_Potential_Energy-OPLS-2005>
72.5783081054688

> <r_mmod_Stretch_Energy-OPLS-2005>
118.316459655762

> <r_mmod_Bend_Energy-OPLS-2005>
191.819122314453

> <r_mmod_Torsional_Energy-OPLS-2005>
228.832595825195

> <r_mmod_Improper_Torsional_Energy-OPLS-2005>
5.93286323547363

> <r_mmod_Van_der_Waal_Energy-OPLS-2005>
116.477203369141

> <r_mmod_Electrostatic_Energy-OPLS-2005>
-435.359313964844

> <r_mmod_Solvation_Energy-OPLS-2005>
-241.854309082031

> <b_mmod_Minimization_Converged-OPLS-2005>
0

> <r_mmod_RMS_Derivative-OPLS-2005>
4.60236692428589

$$$$
36
                    3D
 Structure written by MMmdl.
156164  0  0  1  0            999 V2000
  -30.7045  -14.5241   20.5223 C   0  0  0  0  0  0
  -30.4209  -12.3260   19.4372 C   0  0  0  0  0  0
  -29.4975  -12.5015   18.2134 C   0  0  0  0  0  0
  -28.0194  -12.3606   18.6241 C   0  0  0  0  0  0
  -27.6587  -13.2153   19.8694 C   0  0  2  0  0  0
  -28.7049  -13.0475   20.9962 C   0  0  0  0  0  0
  -25.2579  -13.8177   20.5681 C   0  0  0  0  0  0
  -24.1839  -13.0450   20.9173 C   0  0  0  0  0  0
  -24.6406  -11.6909   20.8737 C   0  0  0  0  0  0
  -23.9062  -10.4296   21.0398 C   0  0  0  0  0  0
  -24.3617   -9.4215   21.9174 C   0  0  0  0  0  0
  -23.6296   -8.2248   22.0749 C   0  0  0  0  0  0
  -22.4276   -8.0284   21.3542 C   0  0  0  0  0  0
  -21.9903   -9.0254   20.4643 C   0  0  0  0  0  0
  -22.7229  -10.2138   20.3048 C   0  0  0  0  0  0
  -21.6859   -6.0735   22.5271 C   0  0  0  0  0  0
  -21.4019   -6.5639   23.8210 C   0  0  0  0  0  0
  -21.3661   -5.6791   24.9165 C   0  0  0  0  0  0
  -21.6041   -4.3056   24.7219 C   0  0  0  0  0  0
  -21.8821   -3.8145   23.4346 C   0  0  0  0  0  0
  -21.9200   -4.6960   22.3397 C   0  0  0  0  0  0
  -22.7861  -13.5241   21.1840 C   0  0  0  0  0  0
  -22.1666   -4.2143   21.0979 F   0  0  0  0  0  0
  -21.5628   -3.4542   25.7736 F   0  0  0  0  0  0
  -30.0324  -13.3402   20.4331 N   0  0  0  0  0  0
  -26.3030  -12.9359   20.3357 N   0  0  0  0  0  0
  -25.9337  -11.6513   20.5766 N   0  0  0  0  0  0
  -22.0501  -12.8238   22.0399 N   0  0  0  0  0  0
  -25.4296  -15.1895   20.4056 N   0  0  0  0  0  0
  -31.8628  -14.6361   20.1102 O   0  0  0  0  0  0
  -21.6654   -6.8880   21.4231 O   0  0  0  0  0  0
  -22.3547  -14.5551   20.6694 O   0  0  0  0  0  0
  -24.6199  -31.8670   23.2101 C   0  0  0  0  0  0
  -25.9082  -32.4813   23.8395 C   0  0  1  0  0  0
  -27.2157  -27.3822   20.1019 C   0  0  0  0  0  0
  -25.5939  -33.8619   24.2330 N   0  0  0  0  0  0
  -23.4070  -30.4944   21.5548 C   0  0  2  0  0  0
  -24.8479  -28.9646   20.1102 C   0  0  0  0  0  0
  -22.7437  -29.4664   22.5004 C   0  0  0  0  0  0
  -18.0270  -28.1377   22.8487 C   0  0  0  0  0  0
  -24.1493  -36.7309   23.2625 C   0  0  0  0  0  0
  -25.9433  -30.8175   21.3691 C   0  0  0  0  0  0
  -26.0144  -29.4515   20.7115 C   0  0  0  0  0  0
  -27.1998  -28.6703   20.7014 C   0  0  0  0  0  0
  -26.0226  -26.9348   19.4807 C   0  0  0  0  0  0
  -24.8513  -27.7088   19.4873 C   0  0  0  0  0  0
  -23.6117  -29.8349   20.1668 C   0  0  0  0  0  0
  -25.4109  -36.3110   24.0336 C   0  0  1  0  0  0
  -20.5873  -28.3675   23.1316 C   0  0  2  0  0  0
  -20.6768  -26.9407   22.5426 C   0  0  0  0  0  0
  -19.5753  -26.6382   21.5217 C   0  0  0  0  0  0
  -18.1921  -26.7928   22.1606 C   0  0  0  0  0  0
  -19.1520  -28.8842   23.2896 C   0  0  0  0  0  0
  -18.9439  -30.1444   23.8920 C   0  0  0  0  0  0
  -17.6436  -30.6590   24.0559 C   0  0  0  0  0  0
  -25.9060  -34.9480   23.5130 C   0  0  0  0  0  0
  -16.5334  -29.9089   23.6332 C   0  0  0  0  0  0
  -16.7254  -28.6499   23.0361 C   0  0  0  0  0  0
  -26.4482  -31.6592   25.0731 C   0  0  0  0  0  0
  -25.3732  -31.3720   26.1464 C   0  0  0  0  0  0
  -27.0272  -30.3014   24.6126 C   0  0  0  0  0  0
  -27.6076  -32.4286   25.7494 C   0  0  0  0  0  0
  -27.5610  -37.1776   24.8430 C   0  0  0  0  0  0
  -21.4161  -29.3038   22.3730 N   0  0  0  0  0  0
  -26.4279  -37.3813   23.9440 N   0  0  0  0  0  0
  -24.6761  -31.0743   22.1020 N   0  0  0  0  0  0
  -23.4193  -28.8199   23.3053 O   0  0  0  0  0  0
  -28.3673  -26.5956   20.1571 O   0  0  0  0  0  0
  -26.5608  -34.8936   22.4687 O   0  0  0  0  0  0
  -23.5388  -32.1452   23.7488 O   0  0  0  0  0  0
  -29.2694  -18.0129   20.9921 C   0  0  0  0  0  0
  -30.2576  -16.9952   20.7860 C   0  0  0  0  0  0
  -29.9410  -19.1891   20.7474 C   0  0  0  0  0  0
  -28.7645  -22.7888   20.8425 C   0  0  0  0  0  0
  -29.6921  -21.6350   20.3241 C   0  0  0  0  0  0
  -28.5057  -24.9757   18.3588 C   0  0  0  0  0  0
  -32.4229  -19.7074   20.2110 C   0  0  0  0  0  0
  -29.2270  -24.2670   20.6984 C   0  0  0  0  0  0
  -28.2631  -25.1698   19.8654 C   0  0  1  0  0  0
  -31.4384  -17.5222   20.4678 N   0  0  0  0  0  0
  -31.2634  -18.8692   20.4566 N   0  0  0  0  0  0
  -29.9702  -15.5920   20.9244 N   0  0  0  0  0  0
  -29.3784  -20.4355   20.8749 N   0  0  0  0  0  0
  -27.6809  -22.5297   21.3816 O   0  0  0  0  0  0
  -30.5623  -21.8336   19.4726 O   0  0  0  0  0  0
  -31.4665  -12.4093   19.1355 H   0  0  0  0  0  0
  -30.3175  -11.3253   19.8587 H   0  0  0  0  0  0
  -29.7438  -11.7679   17.4452 H   0  0  0  0  0  0
  -29.6621  -13.4815   17.7625 H   0  0  0  0  0  0
  -27.8319  -11.3064   18.8308 H   0  0  0  0  0  0
  -27.3708  -12.6250   17.7886 H   0  0  0  0  0  0
  -27.6861  -14.2562   19.5460 H   0  0  0  0  0  0
  -28.6878  -12.0303   21.3901 H   0  0  0  0  0  0
  -28.4696  -13.6927   21.8438 H   0  0  0  0  0  0
  -25.2764   -9.5709   22.4750 H   0  0  0  0  0  0
  -24.0014   -7.4645   22.7475 H   0  0  0  0  0  0
  -21.0831   -8.8766   19.8960 H   0  0  0  0  0  0
  -22.3674  -10.9672   19.6166 H   0  0  0  0  0  0
  -21.2012   -7.6155   23.9706 H   0  0  0  0  0  0
  -21.1477   -6.0527   25.9070 H   0  0  0  0  0  0
  -22.0602   -2.7606   23.2839 H   0  0  0  0  0  0
  -22.4120  -11.9904   22.4790 H   0  0  0  0  0  0
  -21.1115  -13.1250   22.2593 H   0  0  0  0  0  0
  -24.6579  -15.8411   20.5001 H   0  0  0  0  0  0
  -26.2740  -15.6244   20.0569 H   0  0  0  0  0  0
  -26.7155  -32.5492   23.1156 H   0  0  0  0  0  0
  -25.0087  -33.9773   25.0472 H   0  0  0  0  0  0
  -22.6960  -31.3131   21.4225 H   0  0  0  0  0  0
  -23.3791  -35.9597   23.3204 H   0  0  0  0  0  0
  -24.3616  -36.9007   22.2056 H   0  0  0  0  0  0
  -23.7177  -37.6465   23.6688 H   0  0  0  0  0  0
  -26.0626  -31.5829   20.6017 H   0  0  0  0  0  0
  -26.8286  -30.8657   21.9899 H   0  0  0  0  0  0
  -28.0966  -29.0428   21.1759 H   0  0  0  0  0  0
  -25.9506  -25.9788   18.9849 H   0  0  0  0  0  0
  -23.9569  -27.3337   19.0099 H   0  0  0  0  0  0
  -23.7120  -30.6136   19.4104 H   0  0  0  0  0  0
  -22.7327  -29.2575   19.8744 H   0  0  0  0  0  0
  -25.1272  -36.1959   25.0821 H   0  0  0  0  0  0
  -20.9934  -28.3232   24.1453 H   0  0  0  0  0  0
  -20.5675  -26.2275   23.3617 H   0  0  0  0  0  0
  -21.6640  -26.7460   22.1211 H   0  0  0  0  0  0
  -19.6924  -25.6297   21.1239 H   0  0  0  0  0  0
  -19.6714  -27.3198   20.6756 H   0  0  0  0  0  0
  -17.4206  -26.6692   21.3996 H   0  0  0  0  0  0
  -18.0307  -26.0065   22.8990 H   0  0  0  0  0  0
  -19.7913  -30.7243   24.2317 H   0  0  0  0  0  0
  -17.4996  -31.6280   24.5137 H   0  0  0  0  0  0
  -15.5331  -30.2988   23.7668 H   0  0  0  0  0  0
  -15.8646  -28.0816   22.7098 H   0  0  0  0  0  0
  -24.5947  -30.7016   25.7807 H   0  0  0  0  0  0
  -24.8868  -32.2870   26.4861 H   0  0  0  0  0  0
  -25.8069  -30.8940   27.0255 H   0  0  0  0  0  0
  -26.2799  -29.6815   24.1155 H   0  0  0  0  0  0
  -27.3973  -29.7224   25.4599 H   0  0  0  0  0  0
  -27.8686  -30.4294   23.9309 H   0  0  0  0  0  0
  -27.2732  -33.3591   26.2096 H   0  0  0  0  0  0
  -28.3888  -32.6828   25.0317 H   0  0  0  0  0  0
  -28.0742  -31.8376   26.5386 H   0  0  0  0  0  0
  -28.2518  -38.0185   24.7662 H   0  0  0  0  0  0
  -28.1222  -36.2737   24.6014 H   0  0  0  0  0  0
  -27.2372  -37.1112   25.8833 H   0  0  0  0  0  0
  -20.9328  -29.8723   21.6915 H   0  0  0  0  0  0
  -26.0167  -38.2867   24.1551 H   0  0  0  0  0  0
  -28.2312  -17.8944   21.2694 H   0  0  0  0  0  0
  -28.3549  -23.9379   18.0631 H   0  0  0  0  0  0
  -29.5266  -25.2505   18.0931 H   0  0  0  0  0  0
  -27.8381  -25.5887   17.7551 H   0  0  0  0  0  0
  -32.4107  -20.5668   20.8812 H   0  0  0  0  0  0
  -32.4150  -20.0546   19.1776 H   0  0  0  0  0  0
  -33.3454  -19.1524   20.3861 H   0  0  0  0  0  0
  -30.2363  -24.3060   20.2897 H   0  0  0  0  0  0
  -29.2966  -24.6641   21.7102 H   0  0  0  0  0  0
  -27.2631  -24.8177   20.1246 H   0  0  0  0  0  0
  -29.0410  -15.3664   21.2421 H   0  0  0  0  0  0
  -28.5496  -20.4900   21.4506 H   0  0  0  0  0  0
  1 25  1  0  0  0
  1 30  2  0  0  0
  1 82  1  0  0  0
  2  3  1  0  0  0
  2 25  1  0  0  0
  2 86  1  0  0  0
  2 87  1  0  0  0
  3  4  1  0  0  0
  3 88  1  0  0  0
  3 89  1  0  0  0
  4  5  1  0  0  0
  4 90  1  0  0  0
  4 91  1  0  0  0
  5  6  1  0  0  0
  5 26  1  0  0  0
  5 92  1  0  0  0
  6 25  1  0  0  0
  6 93  1  0  0  0
  6 94  1  0  0  0
  7  8  2  0  0  0
  7 26  1  0  0  0
  7 29  1  0  0  0
  8  9  1  0  0  0
  8 22  1  0  0  0
  9 10  1  0  0  0
  9 27  2  0  0  0
 10 11  2  0  0  0
 10 15  1  0  0  0
 11 12  1  0  0  0
 11 95  1  0  0  0
 12 13  2  0  0  0
 12 96  1  0  0  0
 13 14  1  0  0  0
 13 31  1  0  0  0
 14 15  2  0  0  0
 14 97  1  0  0  0
 15 98  1  0  0  0
 16 17  2  0  0  0
 16 21  1  0  0  0
 16 31  1  0  0  0
 17 18  1  0  0  0
 17 99  1  0  0  0
 18 19  2  0  0  0
 18100  1  0  0  0
 19 20  1  0  0  0
 19 24  1  0  0  0
 20 21  2  0  0  0
 20101  1  0  0  0
 21 23  1  0  0  0
 22 28  1  0  0  0
 22 32  2  0  0  0
 26 27  1  0  0  0
 28102  1  0  0  0
 28103  1  0  0  0
 29104  1  0  0  0
 29105  1  0  0  0
 33 34  1  0  0  0
 33 66  1  0  0  0
 33 70  2  0  0  0
 34 36  1  0  0  0
 34 59  1  0  0  0
 34106  1  0  0  0
 35 44  2  0  0  0
 35 45  1  0  0  0
 35 68  1  0  0  0
 36 56  1  0  0  0
 36107  1  0  0  0
 37 39  1  0  0  0
 37 47  1  0  0  0
 37 66  1  0  0  0
 37108  1  0  0  0
 38 43  2  0  0  0
 38 46  1  0  0  0
 38 47  1  0  0  0
 39 64  1  0  0  0
 39 67  2  0  0  0
 40 52  1  0  0  0
 40 53  2  0  0  0
 40 58  1  0  0  0
 41109  1  0  0  0
 41110  1  0  0  0
 41111  1  0  0  0
 41 48  1  0  0  0
 42 43  1  0  0  0
 42 66  1  0  0  0
 42112  1  0  0  0
 42113  1  0  0  0
 43 44  1  0  0  0
 44114  1  0  0  0
 45 46  2  0  0  0
 45115  1  0  0  0
 46116  1  0  0  0
 47117  1  0  0  0
 47118  1  0  0  0
 48 56  1  0  0  0
 48 65  1  0  0  0
 48119  1  0  0  0
 49 50  1  0  0  0
 49 53  1  0  0  0
 49 64  1  0  0  0
 49120  1  0  0  0
 50 51  1  0  0  0
 50121  1  0  0  0
 50122  1  0  0  0
 51 52  1  0  0  0
 51123  1  0  0  0
 51124  1  0  0  0
 52125  1  0  0  0
 52126  1  0  0  0
 53 54  1  0  0  0
 54 55  2  0  0  0
 54127  1  0  0  0
 55 57  1  0  0  0
 55128  1  0  0  0
 56 69  2  0  0  0
 57 58  2  0  0  0
 57129  1  0  0  0
 58130  1  0  0  0
 59 60  1  0  0  0
 59 61  1  0  0  0
 59 62  1  0  0  0
 60131  1  0  0  0
 60132  1  0  0  0
 60133  1  0  0  0
 61134  1  0  0  0
 61135  1  0  0  0
 61136  1  0  0  0
 62137  1  0  0  0
 62138  1  0  0  0
 62139  1  0  0  0
 63 65  1  0  0  0
 63140  1  0  0  0
 63141  1  0  0  0
 63142  1  0  0  0
 64143  1  0  0  0
 65144  1  0  0  0
 68 79  1  0  0  0
 71 72  1  0  0  0
 71 73  2  0  0  0
 71145  1  0  0  0
 72 80  2  0  0  0
 72 82  1  0  0  0
 73 81  1  0  0  0
 73 83  1  0  0  0
 74 75  1  0  0  0
 74 78  1  0  0  0
 74 84  2  0  0  0
 75 83  1  0  0  0
 75 85  2  0  0  0
 76146  1  0  0  0
 76147  1  0  0  0
 76148  1  0  0  0
 76 79  1  0  0  0
 77 81  1  0  0  0
 77149  1  0  0  0
 77150  1  0  0  0
 77151  1  0  0  0
 78 79  1  0  0  0
 78152  1  0  0  0
 78153  1  0  0  0
 79154  1  0  0  0
 80 81  1  0  0  0
 82155  1  0  0  0
 83156  1  0  0  0
M  ISO  4   1 100  68 101  79 101  82 100
M  END
> <chiral flag>
0

> <version>
0

> <s_m_source_file>
/data/baiqing/PycharmProjects/Reinvent-master-3.2/result/LINK_invent/BTK/process_docking_weight1_custom_product_contain_oxygen_bond_distance_aromatic_linkinvent_7_9_3/rearranged_h_0181.sdf

> <i_m_source_file_index>
37

> <r_mmod_Potential_Energy-OPLS-2005>
-138.720947265625

> <r_mmod_Stretch_Energy-OPLS-2005>
47.8490829467773

> <r_mmod_Bend_Energy-OPLS-2005>
131.188095092773

> <r_mmod_Torsional_Energy-OPLS-2005>
202.807434082031

> <r_mmod_Improper_Torsional_Energy-OPLS-2005>
4.64941883087158

> <r_mmod_Van_der_Waal_Energy-OPLS-2005>
139.351699829102

> <r_mmod_Electrostatic_Energy-OPLS-2005>
-430.509552001953

> <r_mmod_Solvation_Energy-OPLS-2005>
-258.511138916016

> <b_mmod_Minimization_Converged-OPLS-2005>
0

> <r_mmod_RMS_Derivative-OPLS-2005>
2.14915752410889

$$$$
37
                    3D
 Structure written by MMmdl.
162170  0  0  1  0            999 V2000
  -30.6794  -14.5195   20.5986 C   0  0  0  0  0  0
  -30.4354  -12.3471   19.4205 C   0  0  0  0  0  0
  -29.4999  -12.5093   18.2043 C   0  0  0  0  0  0
  -28.0185  -12.3656   18.6123 C   0  0  0  0  0  0
  -27.6561  -13.2118   19.8622 C   0  0  2  0  0  0
  -28.6979  -13.0021   20.9817 C   0  0  0  0  0  0
  -25.2584  -13.8185   20.5668 C   0  0  0  0  0  0
  -24.1842  -13.0458   20.9177 C   0  0  0  0  0  0
  -24.6408  -11.6925   20.8716 C   0  0  0  0  0  0
  -23.9084  -10.4307   21.0405 C   0  0  0  0  0  0
  -24.3627   -9.4217   21.9186 C   0  0  0  0  0  0
  -23.6297   -8.2255   22.0760 C   0  0  0  0  0  0
  -22.4286   -8.0291   21.3544 C   0  0  0  0  0  0
  -21.9923   -9.0266   20.4645 C   0  0  0  0  0  0
  -22.7262  -10.2141   20.3046 C   0  0  0  0  0  0
  -21.6857   -6.0756   22.5291 C   0  0  0  0  0  0
  -21.4015   -6.5653   23.8228 C   0  0  0  0  0  0
  -21.3656   -5.6796   24.9181 C   0  0  0  0  0  0
  -21.6031   -4.3057   24.7225 C   0  0  0  0  0  0
  -21.8823   -3.8164   23.4344 C   0  0  0  0  0  0
  -21.9193   -4.6984   22.3403 C   0  0  0  0  0  0
  -22.7862  -13.5249   21.1834 C   0  0  0  0  0  0
  -22.1663   -4.2173   21.0977 F   0  0  0  0  0  0
  -21.5618   -3.4530   25.7737 F   0  0  0  0  0  0
  -30.0270  -13.3317   20.4340 N   0  0  0  0  0  0
  -26.2998  -12.9359   20.3280 N   0  0  0  0  0  0
  -25.9328  -11.6520   20.5706 N   0  0  0  0  0  0
  -22.0484  -12.8229   22.0365 N   0  0  0  0  0  0
  -25.4349  -15.1902   20.4133 N   0  0  0  0  0  0
  -31.8138  -14.7269   20.1626 O   0  0  0  0  0  0
  -21.6637   -6.8900   21.4255 O   0  0  0  0  0  0
  -22.3554  -14.5570   20.6706 O   0  0  0  0  0  0
  -24.6200  -31.8627   23.2069 C   0  0  0  0  0  0
  -25.9068  -32.4801   23.8377 C   0  0  1  0  0  0
  -27.2328  -27.4035   20.1009 C   0  0  0  0  0  0
  -25.5900  -33.8596   24.2313 N   0  0  0  0  0  0
  -23.4062  -30.4922   21.5457 C   0  0  2  0  0  0
  -24.8557  -28.9604   20.1053 C   0  0  0  0  0  0
  -22.7438  -29.4643   22.4922 C   0  0  0  0  0  0
  -18.0281  -28.1377   22.8473 C   0  0  0  0  0  0
  -24.1486  -36.7319   23.2648 C   0  0  0  0  0  0
  -25.9419  -30.8254   21.3608 C   0  0  0  0  0  0
  -26.0189  -29.4603   20.7053 C   0  0  0  0  0  0
  -27.2112  -28.6879   20.7026 C   0  0  0  0  0  0
  -26.0558  -26.9476   19.4639 C   0  0  0  0  0  0
  -24.8715  -27.7073   19.4799 C   0  0  0  0  0  0
  -23.6165  -29.8284   20.1586 C   0  0  0  0  0  0
  -25.4103  -36.3097   24.0335 C   0  0  1  0  0  0
  -20.5883  -28.3661   23.1296 C   0  0  2  0  0  0
  -20.6772  -26.9388   22.5407 C   0  0  0  0  0  0
  -19.5754  -26.6367   21.5209 C   0  0  0  0  0  0
  -18.1929  -26.7927   22.1609 C   0  0  0  0  0  0
  -19.1533  -28.8835   23.2881 C   0  0  0  0  0  0
  -18.9465  -30.1448   23.8890 C   0  0  0  0  0  0
  -17.6465  -30.6581   24.0573 C   0  0  0  0  0  0
  -25.9020  -34.9458   23.5122 C   0  0  0  0  0  0
  -16.5354  -29.9074   23.6345 C   0  0  0  0  0  0
  -16.7265  -28.6504   23.0334 C   0  0  0  0  0  0
  -26.4470  -31.6592   25.0724 C   0  0  0  0  0  0
  -25.3724  -31.3675   26.1463 C   0  0  0  0  0  0
  -27.0312  -30.3054   24.6093 C   0  0  0  0  0  0
  -27.6051  -32.4314   25.7488 C   0  0  0  0  0  0
  -27.5568  -37.1819   24.8471 C   0  0  0  0  0  0
  -21.4159  -29.3030   22.3702 N   0  0  0  0  0  0
  -26.4287  -37.3786   23.9404 N   0  0  0  0  0  0
  -24.6745  -31.0750   22.0961 N   0  0  0  0  0  0
  -23.4212  -28.8172   23.2949 O   0  0  0  0  0  0
  -28.3553  -26.5815   20.1750 O   0  0  0  0  0  0
  -26.5602  -34.8921   22.4698 O   0  0  0  0  0  0
  -23.5384  -32.1356   23.7471 O   0  0  0  0  0  0
  -31.3900  -20.3037   21.2231 C   0  0  0  0  0  0
  -30.5284  -19.3582   20.6927 C   0  0  0  0  0  0
  -29.7142  -21.7310   20.5784 C   0  0  0  0  0  0
  -29.2976  -24.2502   20.5886 C   0  0  0  0  0  0
  -32.7414  -20.0755   21.8312 C   0  0  0  0  0  0
  -27.5247  -25.2586   22.0720 C   0  0  0  0  0  0
  -28.8708  -17.3836   22.2077 C   0  0  0  0  0  0
  -31.2319  -16.8050   22.7973 C   0  0  0  0  0  0
  -30.7354  -17.8463   20.5176 C   0  0  0  0  0  0
  -28.0792  -25.2187   20.6311 C   0  0  1  0  0  0
  -30.2117  -16.8744   21.6401 C   0  0  0  0  0  0
  -30.9176  -21.6316   21.1553 N   0  0  0  0  0  0
  -28.9749  -22.9458   20.4078 N   0  0  0  0  0  0
  -29.9318  -15.4907   21.1711 N   0  0  0  0  0  0
  -30.4504  -24.6793   20.7086 O   0  0  0  0  0  0
  -29.0641  -20.1509   20.1199 S   0  0  0  0  0  0
  -31.4757  -12.4784   19.1175 H   0  0  0  0  0  0
  -30.3674  -11.3399   19.8341 H   0  0  0  0  0  0
  -29.7492  -11.7740   17.4377 H   0  0  0  0  0  0
  -29.6589  -13.4884   17.7498 H   0  0  0  0  0  0
  -27.8284  -11.3105   18.8095 H   0  0  0  0  0  0
  -27.3744  -12.6360   17.7742 H   0  0  0  0  0  0
  -27.6933  -14.2575   19.5550 H   0  0  0  0  0  0
  -28.6852  -11.9641   21.3165 H   0  0  0  0  0  0
  -28.4402  -13.5917   21.8634 H   0  0  0  0  0  0
  -25.2771   -9.5690   22.4752 H   0  0  0  0  0  0
  -24.0010   -7.4647   22.7472 H   0  0  0  0  0  0
  -21.0864   -8.8795   19.8933 H   0  0  0  0  0  0
  -22.3748  -10.9678   19.6132 H   0  0  0  0  0  0
  -21.2014   -7.6164   23.9744 H   0  0  0  0  0  0
  -21.1461   -6.0516   25.9085 H   0  0  0  0  0  0
  -22.0603   -2.7627   23.2834 H   0  0  0  0  0  0
  -22.4071  -11.9864   22.4728 H   0  0  0  0  0  0
  -21.1086  -13.1243   22.2520 H   0  0  0  0  0  0
  -24.6790  -15.8537   20.5431 H   0  0  0  0  0  0
  -26.2947  -15.6285   20.1079 H   0  0  0  0  0  0
  -26.7143  -32.5494   23.1129 H   0  0  0  0  0  0
  -25.0071  -33.9758   25.0478 H   0  0  0  0  0  0
  -22.6983  -31.3127   21.4044 H   0  0  0  0  0  0
  -23.3741  -35.9663   23.3320 H   0  0  0  0  0  0
  -24.3587  -36.8922   22.2059 H   0  0  0  0  0  0
  -23.7229  -37.6527   23.6661 H   0  0  0  0  0  0
  -26.0608  -31.5936   20.5956 H   0  0  0  0  0  0
  -26.8303  -30.8775   21.9778 H   0  0  0  0  0  0
  -28.0974  -29.0559   21.1994 H   0  0  0  0  0  0
  -26.0310  -25.9959   18.9568 H   0  0  0  0  0  0
  -23.9804  -27.3207   19.0060 H   0  0  0  0  0  0
  -23.7217  -30.6075   19.4012 H   0  0  0  0  0  0
  -22.7403  -29.2505   19.8572 H   0  0  0  0  0  0
  -25.1275  -36.1953   25.0825 H   0  0  0  0  0  0
  -20.9988  -28.3210   24.1404 H   0  0  0  0  0  0
  -20.5693  -26.2246   23.3576 H   0  0  0  0  0  0
  -21.6631  -26.7417   22.1184 H   0  0  0  0  0  0
  -19.6933  -25.6286   21.1208 H   0  0  0  0  0  0
  -19.6729  -27.3207   20.6774 H   0  0  0  0  0  0
  -17.4204  -26.6684   21.4004 H   0  0  0  0  0  0
  -18.0317  -26.0072   22.9007 H   0  0  0  0  0  0
  -19.7947  -30.7272   24.2227 H   0  0  0  0  0  0
  -17.5019  -31.6260   24.5172 H   0  0  0  0  0  0
  -15.5362  -30.2973   23.7680 H   0  0  0  0  0  0
  -15.8660  -28.0844   22.7025 H   0  0  0  0  0  0
  -24.5958  -30.6946   25.7804 H   0  0  0  0  0  0
  -24.8859  -32.2821   26.4888 H   0  0  0  0  0  0
  -25.8071  -30.8887   27.0246 H   0  0  0  0  0  0
  -26.2869  -29.6811   24.1143 H   0  0  0  0  0  0
  -27.4099  -29.7280   25.4543 H   0  0  0  0  0  0
  -27.8675  -30.4420   23.9227 H   0  0  0  0  0  0
  -27.2705  -33.3655   26.2015 H   0  0  0  0  0  0
  -28.3870  -32.6801   25.0293 H   0  0  0  0  0  0
  -28.0678  -31.8447   26.5432 H   0  0  0  0  0  0
  -28.2592  -38.0119   24.7500 H   0  0  0  0  0  0
  -28.1044  -36.2641   24.6295 H   0  0  0  0  0  0
  -27.2283  -37.1440   25.8877 H   0  0  0  0  0  0
  -20.9299  -29.8778   21.6961 H   0  0  0  0  0  0
  -26.0169  -38.2860   24.1414 H   0  0  0  0  0  0
  -33.1121  -19.0671   21.6515 H   0  0  0  0  0  0
  -32.7159  -20.2165   22.9117 H   0  0  0  0  0  0
  -33.4777  -20.7703   21.4259 H   0  0  0  0  0  0
  -27.4590  -24.2623   22.5115 H   0  0  0  0  0  0
  -26.5192  -25.6760   22.0968 H   0  0  0  0  0  0
  -28.1514  -25.8662   22.7240 H   0  0  0  0  0  0
  -28.9752  -18.3564   22.6901 H   0  0  0  0  0  0
  -28.4635  -16.7003   22.9554 H   0  0  0  0  0  0
  -28.1201  -17.4896   21.4225 H   0  0  0  0  0  0
  -31.4729  -17.7997   23.1759 H   0  0  0  0  0  0
  -32.1702  -16.3429   22.4859 H   0  0  0  0  0  0
  -30.8463  -16.2254   23.6379 H   0  0  0  0  0  0
  -31.7952  -17.6483   20.3556 H   0  0  0  0  0  0
  -30.2643  -17.5637   19.5757 H   0  0  0  0  0  0
  -27.3396  -24.7476   19.9861 H   0  0  0  0  0  0
  -28.0033  -22.8001   20.1763 H   0  0  0  0  0  0
  -28.9918  -15.1794   21.3617 H   0  0  0  0  0  0
  1 25  1  0  0  0
  1 30  2  0  0  0
  1 84  1  0  0  0
  2  3  1  0  0  0
  2 25  1  0  0  0
  2 87  1  0  0  0
  2 88  1  0  0  0
  3  4  1  0  0  0
  3 89  1  0  0  0
  3 90  1  0  0  0
  4  5  1  0  0  0
  4 91  1  0  0  0
  4 92  1  0  0  0
  5  6  1  0  0  0
  5 26  1  0  0  0
  5 93  1  0  0  0
  6 25  1  0  0  0
  6 94  1  0  0  0
  6 95  1  0  0  0
  7  8  2  0  0  0
  7 26  1  0  0  0
  7 29  1  0  0  0
  8  9  1  0  0  0
  8 22  1  0  0  0
  9 10  1  0  0  0
  9 27  2  0  0  0
 10 11  2  0  0  0
 10 15  1  0  0  0
 11 12  1  0  0  0
 11 96  1  0  0  0
 12 13  2  0  0  0
 12 97  1  0  0  0
 13 14  1  0  0  0
 13 31  1  0  0  0
 14 15  2  0  0  0
 14 98  1  0  0  0
 15 99  1  0  0  0
 16 17  2  0  0  0
 16 21  1  0  0  0
 16 31  1  0  0  0
 17 18  1  0  0  0
 17100  1  0  0  0
 18 19  2  0  0  0
 18101  1  0  0  0
 19 20  1  0  0  0
 19 24  1  0  0  0
 20 21  2  0  0  0
 20102  1  0  0  0
 21 23  1  0  0  0
 22 28  1  0  0  0
 22 32  2  0  0  0
 26 27  1  0  0  0
 28103  1  0  0  0
 28104  1  0  0  0
 29105  1  0  0  0
 29106  1  0  0  0
 33 34  1  0  0  0
 33 66  1  0  0  0
 33 70  2  0  0  0
 34 36  1  0  0  0
 34 59  1  0  0  0
 34107  1  0  0  0
 35 44  2  0  0  0
 35 45  1  0  0  0
 35 68  1  0  0  0
 36 56  1  0  0  0
 36108  1  0  0  0
 37 39  1  0  0  0
 37 47  1  0  0  0
 37 66  1  0  0  0
 37109  1  0  0  0
 38 43  2  0  0  0
 38 46  1  0  0  0
 38 47  1  0  0  0
 39 64  1  0  0  0
 39 67  2  0  0  0
 40 52  1  0  0  0
 40 53  2  0  0  0
 40 58  1  0  0  0
 41110  1  0  0  0
 41111  1  0  0  0
 41112  1  0  0  0
 41 48  1  0  0  0
 42 43  1  0  0  0
 42 66  1  0  0  0
 42113  1  0  0  0
 42114  1  0  0  0
 43 44  1  0  0  0
 44115  1  0  0  0
 45 46  2  0  0  0
 45116  1  0  0  0
 46117  1  0  0  0
 47118  1  0  0  0
 47119  1  0  0  0
 48 56  1  0  0  0
 48 65  1  0  0  0
 48120  1  0  0  0
 49 50  1  0  0  0
 49 53  1  0  0  0
 49 64  1  0  0  0
 49121  1  0  0  0
 50 51  1  0  0  0
 50122  1  0  0  0
 50123  1  0  0  0
 51 52  1  0  0  0
 51124  1  0  0  0
 51125  1  0  0  0
 52126  1  0  0  0
 52127  1  0  0  0
 53 54  1  0  0  0
 54 55  2  0  0  0
 54128  1  0  0  0
 55 57  1  0  0  0
 55129  1  0  0  0
 56 69  2  0  0  0
 57 58  2  0  0  0
 57130  1  0  0  0
 58131  1  0  0  0
 59 60  1  0  0  0
 59 61  1  0  0  0
 59 62  1  0  0  0
 60132  1  0  0  0
 60133  1  0  0  0
 60134  1  0  0  0
 61135  1  0  0  0
 61136  1  0  0  0
 61137  1  0  0  0
 62138  1  0  0  0
 62139  1  0  0  0
 62140  1  0  0  0
 63 65  1  0  0  0
 63141  1  0  0  0
 63142  1  0  0  0
 63143  1  0  0  0
 64144  1  0  0  0
 65145  1  0  0  0
 68 80  1  0  0  0
 71 72  2  0  0  0
 71 75  1  0  0  0
 71 82  1  0  0  0
 72 79  1  0  0  0
 72 86  1  0  0  0
 73 82  2  0  0  0
 73 83  1  0  0  0
 73 86  1  0  0  0
 74 80  1  0  0  0
 74 83  1  0  0  0
 74 85  2  0  0  0
 75146  1  0  0  0
 75147  1  0  0  0
 75148  1  0  0  0
 76149  1  0  0  0
 76150  1  0  0  0
 76151  1  0  0  0
 76 80  1  0  0  0
 77152  1  0  0  0
 77153  1  0  0  0
 77154  1  0  0  0
 77 81  1  0  0  0
 78 81  1  0  0  0
 78155  1  0  0  0
 78156  1  0  0  0
 78157  1  0  0  0
 79 81  1  0  0  0
 79158  1  0  0  0
 79159  1  0  0  0
 80160  1  0  0  0
 81 84  1  0  0  0
 83161  1  0  0  0
 84162  1  0  0  0
M  ISO  4   1 100  68 101  80 101  84 100
M  END
> <chiral flag>
0

> <version>
0

> <s_m_source_file>
/data/baiqing/PycharmProjects/Reinvent-master-3.2/result/LINK_invent/BTK/process_docking_weight1_custom_product_contain_oxygen_bond_distance_aromatic_linkinvent_7_9_3/rearranged_h_0181.sdf

> <i_m_source_file_index>
38

> <r_mmod_Potential_Energy-OPLS-2005>
-151.768844604492

> <r_mmod_Stretch_Energy-OPLS-2005>
50.2333488464355

> <r_mmod_Bend_Energy-OPLS-2005>
129.372985839844

> <r_mmod_Torsional_Energy-OPLS-2005>
202.350219726562

> <r_mmod_Improper_Torsional_Energy-OPLS-2005>
2.96872091293335

> <r_mmod_Van_der_Waal_Energy-OPLS-2005>
124.409843444824

> <r_mmod_Electrostatic_Energy-OPLS-2005>
-434.663391113281

> <r_mmod_Solvation_Energy-OPLS-2005>
-248.7822265625

> <b_mmod_Minimization_Converged-OPLS-2005>
0

> <r_mmod_RMS_Derivative-OPLS-2005>
3.24259352684021

$$$$
38
                    3D
 Structure written by MMmdl.
155163  0  0  1  0            999 V2000
  -30.6497  -14.5984   20.4633 C   0  0  0  0  0  0
  -30.4286  -12.3556   19.4660 C   0  0  0  0  0  0
  -29.5114  -12.4940   18.2324 C   0  0  0  0  0  0
  -28.0333  -12.3465   18.6359 C   0  0  0  0  0  0
  -27.6546  -13.2193   19.8609 C   0  0  2  0  0  0
  -28.6942  -13.0853   20.9969 C   0  0  0  0  0  0
  -25.2586  -13.8172   20.5693 C   0  0  0  0  0  0
  -24.1842  -13.0434   20.9170 C   0  0  0  0  0  0
  -24.6406  -11.6905   20.8714 C   0  0  0  0  0  0
  -23.9064  -10.4286   21.0373 C   0  0  0  0  0  0
  -24.3599   -9.4206   21.9152 C   0  0  0  0  0  0
  -23.6273   -8.2243   22.0743 C   0  0  0  0  0  0
  -22.4249   -8.0288   21.3542 C   0  0  0  0  0  0
  -21.9885   -9.0260   20.4642 C   0  0  0  0  0  0
  -22.7224  -10.2138   20.3041 C   0  0  0  0  0  0
  -21.6861   -6.0725   22.5271 C   0  0  0  0  0  0
  -21.4033   -6.5621   23.8208 C   0  0  0  0  0  0
  -21.3652   -5.6769   24.9154 C   0  0  0  0  0  0
  -21.6044   -4.3036   24.7212 C   0  0  0  0  0  0
  -21.8823   -3.8134   23.4330 C   0  0  0  0  0  0
  -21.9199   -4.6955   22.3389 C   0  0  0  0  0  0
  -22.7863  -13.5252   21.1817 C   0  0  0  0  0  0
  -22.1642   -4.2143   21.0960 F   0  0  0  0  0  0
  -21.5630   -3.4517   25.7724 F   0  0  0  0  0  0
  -30.0165  -13.3876   20.4360 N   0  0  0  0  0  0
  -26.3005  -12.9361   20.3298 N   0  0  0  0  0  0
  -25.9335  -11.6509   20.5707 N   0  0  0  0  0  0
  -22.0492  -12.8260   22.0377 N   0  0  0  0  0  0
  -25.4312  -15.1884   20.4171 N   0  0  0  0  0  0
  -31.8217  -14.7205   20.0934 O   0  0  0  0  0  0
  -21.6633   -6.8873   21.4237 O   0  0  0  0  0  0
  -22.3545  -14.5554   20.6658 O   0  0  0  0  0  0
  -24.6220  -31.8624   23.2068 C   0  0  0  0  0  0
  -25.9093  -32.4783   23.8367 C   0  0  1  0  0  0
  -27.2180  -27.3580   20.0861 C   0  0  0  0  0  0
  -25.5926  -33.8582   24.2293 N   0  0  0  0  0  0
  -23.4110  -30.4885   21.5504 C   0  0  2  0  0  0
  -24.8515  -28.9476   20.1107 C   0  0  0  0  0  0
  -22.7448  -29.4633   22.4976 C   0  0  0  0  0  0
  -18.0272  -28.1391   22.8486 C   0  0  0  0  0  0
  -24.1478  -36.7291   23.2634 C   0  0  0  0  0  0
  -25.9492  -30.8025   21.3697 C   0  0  0  0  0  0
  -26.0198  -29.4333   20.7106 C   0  0  0  0  0  0
  -27.2032  -28.6461   20.6943 C   0  0  0  0  0  0
  -26.0173  -26.8987   19.4971 C   0  0  0  0  0  0
  -24.8493  -27.6831   19.5022 C   0  0  0  0  0  0
  -23.6201  -29.8261   20.1634 C   0  0  0  0  0  0
  -25.4101  -36.3083   24.0334 C   0  0  1  0  0  0
  -20.5865  -28.3678   23.1312 C   0  0  2  0  0  0
  -20.6762  -26.9405   22.5422 C   0  0  0  0  0  0
  -19.5745  -26.6389   21.5214 C   0  0  0  0  0  0
  -18.1922  -26.7935   22.1616 C   0  0  0  0  0  0
  -19.1526  -28.8855   23.2889 C   0  0  0  0  0  0
  -18.9447  -30.1462   23.8899 C   0  0  0  0  0  0
  -17.6449  -30.6590   24.0569 C   0  0  0  0  0  0
  -25.9047  -34.9457   23.5113 C   0  0  0  0  0  0
  -16.5339  -29.9089   23.6323 C   0  0  0  0  0  0
  -16.7267  -28.6508   23.0339 C   0  0  0  0  0  0
  -26.4496  -31.6579   25.0719 C   0  0  0  0  0  0
  -25.3758  -31.3731   26.1476 C   0  0  0  0  0  0
  -27.0313  -30.2998   24.6146 C   0  0  0  0  0  0
  -27.6076  -32.4308   25.7480 C   0  0  0  0  0  0
  -27.5582  -37.1787   24.8458 C   0  0  0  0  0  0
  -21.4166  -29.3037   22.3724 N   0  0  0  0  0  0
  -26.4279  -37.3776   23.9418 N   0  0  0  0  0  0
  -24.6798  -31.0670   22.0997 N   0  0  0  0  0  0
  -23.4202  -28.8162   23.3019 O   0  0  0  0  0  0
  -28.3735  -26.5774   20.1147 O   0  0  0  0  0  0
  -26.5609  -34.8925   22.4670 O   0  0  0  0  0  0
  -23.5403  -32.1417   23.7434 O   0  0  0  0  0  0
  -29.7508  -18.4946   18.0187 C   0  0  0  0  0  0
  -29.4407  -19.0668   19.2357 C   0  0  0  0  0  0
  -29.8384  -16.8775   19.8994 C   0  0  0  0  0  0
  -28.7623  -22.7793   19.4471 C   0  0  0  0  0  0
  -28.4502  -23.9800   20.0351 C   0  0  0  0  0  0
  -28.7810  -21.4382   20.0979 C   0  0  0  0  0  0
  -28.4035  -19.0479   15.9501 C   0  0  0  0  0  0
  -29.7620  -19.1307   16.6590 C   0  0  0  0  0  0
  -28.5017  -25.3591   19.3096 C   0  0  0  0  0  0
  -29.4581  -18.1233   20.3084 N   0  0  0  0  0  0
  -29.1616  -20.4857   19.2127 N   0  0  0  0  0  0
  -29.8885  -15.6978   20.7346 N   0  0  0  0  0  0
  -28.4900  -21.2060   21.2763 O   0  0  0  0  0  0
  -28.0826  -24.1288   21.3199 O   0  0  0  0  0  0
  -29.0980  -22.8291   18.1434 F   0  0  0  0  0  0
  -30.1401  -16.8008   18.1662 S   0  0  0  0  0  0
  -31.4746  -12.4508   19.1688 H   0  0  0  0  0  0
  -30.3342  -11.3642   19.9116 H   0  0  0  0  0  0
  -29.7691  -11.7439   17.4848 H   0  0  0  0  0  0
  -29.6714  -13.4647   17.7582 H   0  0  0  0  0  0
  -27.8577  -11.2944   18.8614 H   0  0  0  0  0  0
  -27.3902  -12.5857   17.7891 H   0  0  0  0  0  0
  -27.6753  -14.2530   19.5137 H   0  0  0  0  0  0
  -28.6907  -12.0770   21.4101 H   0  0  0  0  0  0
  -28.4501  -13.7477   21.8277 H   0  0  0  0  0  0
  -25.2735   -9.5681   22.4735 H   0  0  0  0  0  0
  -23.9998   -7.4645   22.7460 H   0  0  0  0  0  0
  -21.0825   -8.8769   19.8952 H   0  0  0  0  0  0
  -22.3659  -10.9670   19.6158 H   0  0  0  0  0  0
  -21.2031   -7.6125   23.9704 H   0  0  0  0  0  0
  -21.1463   -6.0486   25.9062 H   0  0  0  0  0  0
  -22.0618   -2.7610   23.2825 H   0  0  0  0  0  0
  -22.4081  -11.9908   22.4756 H   0  0  0  0  0  0
  -21.1138  -13.1341   22.2607 H   0  0  0  0  0  0
  -24.6735  -15.8481   20.5562 H   0  0  0  0  0  0
  -26.2851  -15.6331   20.1091 H   0  0  0  0  0  0
  -26.7160  -32.5449   23.1116 H   0  0  0  0  0  0
  -25.0105  -33.9718   25.0465 H   0  0  0  0  0  0
  -22.7025  -31.3089   21.4142 H   0  0  0  0  0  0
  -23.3743  -35.9616   23.3281 H   0  0  0  0  0  0
  -24.3592  -36.8927   22.2055 H   0  0  0  0  0  0
  -23.7237  -37.6492   23.6665 H   0  0  0  0  0  0
  -26.0774  -31.5681   20.6031 H   0  0  0  0  0  0
  -26.8335  -30.8521   21.9941 H   0  0  0  0  0  0
  -28.1053  -29.0150   21.1617 H   0  0  0  0  0  0
  -25.9385  -25.9178   19.0542 H   0  0  0  0  0  0
  -23.9474  -27.2978   19.0465 H   0  0  0  0  0  0
  -23.7369  -30.6052   19.4091 H   0  0  0  0  0  0
  -22.7371  -29.2587   19.8619 H   0  0  0  0  0  0
  -25.1272  -36.1928   25.0827 H   0  0  0  0  0  0
  -20.9964  -28.3244   24.1429 H   0  0  0  0  0  0
  -20.5662  -26.2271   23.3609 H   0  0  0  0  0  0
  -21.6634  -26.7443   22.1217 H   0  0  0  0  0  0
  -19.6898  -25.6304   21.1238 H   0  0  0  0  0  0
  -19.6688  -27.3201   20.6751 H   0  0  0  0  0  0
  -17.4188  -26.6694   21.4021 H   0  0  0  0  0  0
  -18.0310  -26.0088   22.9023 H   0  0  0  0  0  0
  -19.7924  -30.7280   24.2270 H   0  0  0  0  0  0
  -17.4999  -31.6273   24.5175 H   0  0  0  0  0  0
  -15.5337  -30.2982   23.7672 H   0  0  0  0  0  0
  -15.8665  -28.0842   22.7042 H   0  0  0  0  0  0
  -24.5895  -30.7104   25.7840 H   0  0  0  0  0  0
  -24.8982  -32.2903   26.4936 H   0  0  0  0  0  0
  -25.8104  -30.8894   27.0235 H   0  0  0  0  0  0
  -26.2857  -29.6764   24.1190 H   0  0  0  0  0  0
  -27.4047  -29.7244   25.4631 H   0  0  0  0  0  0
  -27.8722  -30.4283   23.9326 H   0  0  0  0  0  0
  -27.2699  -33.3619   26.2050 H   0  0  0  0  0  0
  -28.3881  -32.6851   25.0294 H   0  0  0  0  0  0
  -28.0739  -31.8430   26.5397 H   0  0  0  0  0  0
  -28.2574  -38.0108   24.7527 H   0  0  0  0  0  0
  -28.1101  -36.2640   24.6230 H   0  0  0  0  0  0
  -27.2316  -37.1395   25.8867 H   0  0  0  0  0  0
  -20.9342  -29.8753   21.6937 H   0  0  0  0  0  0
  -26.0155  -38.2844   24.1444 H   0  0  0  0  0  0
  -28.4418  -19.5315   14.9730 H   0  0  0  0  0  0
  -27.6264  -19.5452   16.5313 H   0  0  0  0  0  0
  -28.0913  -18.0144   15.7956 H   0  0  0  0  0  0
  -30.5118  -18.6389   16.0373 H   0  0  0  0  0  0
  -30.0786  -20.1716   16.7251 H   0  0  0  0  0  0
  -27.8501  -25.3432   18.4360 H   0  0  0  0  0  0
  -29.5002  -25.4167   18.8759 H   0  0  0  0  0  0
  -29.3057  -20.9090   18.3057 H   0  0  0  0  0  0
  -29.0664  -15.5368   21.2926 H   0  0  0  0  0  0
  -28.0676  -23.2634   21.7156 H   0  0  0  0  0  0
  1 25  1  0  0  0
  1 30  2  0  0  0
  1 82  1  0  0  0
  2  3  1  0  0  0
  2 25  1  0  0  0
  2 87  1  0  0  0
  2 88  1  0  0  0
  3  4  1  0  0  0
  3 89  1  0  0  0
  3 90  1  0  0  0
  4  5  1  0  0  0
  4 91  1  0  0  0
  4 92  1  0  0  0
  5  6  1  0  0  0
  5 26  1  0  0  0
  5 93  1  0  0  0
  6 25  1  0  0  0
  6 94  1  0  0  0
  6 95  1  0  0  0
  7  8  2  0  0  0
  7 26  1  0  0  0
  7 29  1  0  0  0
  8  9  1  0  0  0
  8 22  1  0  0  0
  9 10  1  0  0  0
  9 27  2  0  0  0
 10 11  2  0  0  0
 10 15  1  0  0  0
 11 12  1  0  0  0
 11 96  1  0  0  0
 12 13  2  0  0  0
 12 97  1  0  0  0
 13 14  1  0  0  0
 13 31  1  0  0  0
 14 15  2  0  0  0
 14 98  1  0  0  0
 15 99  1  0  0  0
 16 17  2  0  0  0
 16 21  1  0  0  0
 16 31  1  0  0  0
 17 18  1  0  0  0
 17100  1  0  0  0
 18 19  2  0  0  0
 18101  1  0  0  0
 19 20  1  0  0  0
 19 24  1  0  0  0
 20 21  2  0  0  0
 20102  1  0  0  0
 21 23  1  0  0  0
 22 28  1  0  0  0
 22 32  2  0  0  0
 26 27  1  0  0  0
 28103  1  0  0  0
 28104  1  0  0  0
 29105  1  0  0  0
 29106  1  0  0  0
 33 34  1  0  0  0
 33 66  1  0  0  0
 33 70  2  0  0  0
 34 36  1  0  0  0
 34 59  1  0  0  0
 34107  1  0  0  0
 35 44  2  0  0  0
 35 45  1  0  0  0
 35 68  1  0  0  0
 36 56  1  0  0  0
 36108  1  0  0  0
 37 39  1  0  0  0
 37 47  1  0  0  0
 37 66  1  0  0  0
 37109  1  0  0  0
 38 43  2  0  0  0
 38 46  1  0  0  0
 38 47  1  0  0  0
 39 64  1  0  0  0
 39 67  2  0  0  0
 40 52  1  0  0  0
 40 53  2  0  0  0
 40 58  1  0  0  0
 41110  1  0  0  0
 41111  1  0  0  0
 41112  1  0  0  0
 41 48  1  0  0  0
 42 43  1  0  0  0
 42 66  1  0  0  0
 42113  1  0  0  0
 42114  1  0  0  0
 43 44  1  0  0  0
 44115  1  0  0  0
 45 46  2  0  0  0
 45116  1  0  0  0
 46117  1  0  0  0
 47118  1  0  0  0
 47119  1  0  0  0
 48 56  1  0  0  0
 48 65  1  0  0  0
 48120  1  0  0  0
 49 50  1  0  0  0
 49 53  1  0  0  0
 49 64  1  0  0  0
 49121  1  0  0  0
 50 51  1  0  0  0
 50122  1  0  0  0
 50123  1  0  0  0
 51 52  1  0  0  0
 51124  1  0  0  0
 51125  1  0  0  0
 52126  1  0  0  0
 52127  1  0  0  0
 53 54  1  0  0  0
 54 55  2  0  0  0
 54128  1  0  0  0
 55 57  1  0  0  0
 55129  1  0  0  0
 56 69  2  0  0  0
 57 58  2  0  0  0
 57130  1  0  0  0
 58131  1  0  0  0
 59 60  1  0  0  0
 59 61  1  0  0  0
 59 62  1  0  0  0
 60132  1  0  0  0
 60133  1  0  0  0
 60134  1  0  0  0
 61135  1  0  0  0
 61136  1  0  0  0
 61137  1  0  0  0
 62138  1  0  0  0
 62139  1  0  0  0
 62140  1  0  0  0
 63 65  1  0  0  0
 63141  1  0  0  0
 63142  1  0  0  0
 63143  1  0  0  0
 64144  1  0  0  0
 65145  1  0  0  0
 68 79  1  0  0  0
 71 72  2  0  0  0
 71 78  1  0  0  0
 71 86  1  0  0  0
 72 80  1  0  0  0
 72 81  1  0  0  0
 73 80  2  0  0  0
 73 82  1  0  0  0
 73 86  1  0  0  0
 74 75  2  0  0  0
 74 76  1  0  0  0
 74 85  1  0  0  0
 75 79  1  0  0  0
 75 84  1  0  0  0
 76 81  1  0  0  0
 76 83  2  0  0  0
 77 78  1  0  0  0
 77146  1  0  0  0
 77147  1  0  0  0
 77148  1  0  0  0
 78149  1  0  0  0
 78150  1  0  0  0
 79151  1  0  0  0
 79152  1  0  0  0
 81153  1  0  0  0
 82154  1  0  0  0
 84155  1  0  0  0
M  ISO  4   1 100  68 101  79 101  82 100
M  END
> <chiral flag>
0

> <version>
0

> <s_m_source_file>
/data/baiqing/PycharmProjects/Reinvent-master-3.2/result/LINK_invent/BTK/process_docking_weight1_custom_product_contain_oxygen_bond_distance_aromatic_linkinvent_7_9_3/rearranged_h_0181.sdf

> <i_m_source_file_index>
39

> <r_mmod_Potential_Energy-OPLS-2005>
-52.9690093994141

> <r_mmod_Stretch_Energy-OPLS-2005>
60.0299758911133

> <r_mmod_Bend_Energy-OPLS-2005>
157.034072875977

> <r_mmod_Torsional_Energy-OPLS-2005>
199.577697753906

> <r_mmod_Improper_Torsional_Energy-OPLS-2005>
6.13635540008545

> <r_mmod_Van_der_Waal_Energy-OPLS-2005>
124.689567565918

> <r_mmod_Electrostatic_Energy-OPLS-2005>
-398.463592529297

> <r_mmod_Solvation_Energy-OPLS-2005>
-237.41682434082

> <b_mmod_Minimization_Converged-OPLS-2005>
0

> <r_mmod_RMS_Derivative-OPLS-2005>
2.57887482643127

$$$$
39
                    3D
 Structure written by MMmdl.
158166  0  0  1  0            999 V2000
  -30.5982  -14.7660   20.4334 C   0  0  0  0  0  0
  -30.4287  -12.4693   19.4563 C   0  0  0  0  0  0
  -29.5028  -12.5052   18.2226 C   0  0  0  0  0  0
  -28.0300  -12.3247   18.6459 C   0  0  0  0  0  0
  -27.6337  -13.2299   19.8436 C   0  0  2  0  0  0
  -28.6849  -13.1766   20.9723 C   0  0  0  0  0  0
  -25.2512  -13.8189   20.5692 C   0  0  0  0  0  0
  -24.1788  -13.0434   20.9190 C   0  0  0  0  0  0
  -24.6375  -11.6934   20.8743 C   0  0  0  0  0  0
  -23.9055  -10.4281   21.0399 C   0  0  0  0  0  0
  -24.3622   -9.4196   21.9169 C   0  0  0  0  0  0
  -23.6286   -8.2232   22.0745 C   0  0  0  0  0  0
  -22.4267   -8.0265   21.3527 C   0  0  0  0  0  0
  -21.9910   -9.0235   20.4641 C   0  0  0  0  0  0
  -22.7239  -10.2115   20.3047 C   0  0  0  0  0  0
  -21.6867   -6.0724   22.5279 C   0  0  0  0  0  0
  -21.4005   -6.5621   23.8215 C   0  0  0  0  0  0
  -21.3675   -5.6775   24.9174 C   0  0  0  0  0  0
  -21.6049   -4.3042   24.7230 C   0  0  0  0  0  0
  -21.8826   -3.8138   23.4346 C   0  0  0  0  0  0
  -21.9192   -4.6941   22.3411 C   0  0  0  0  0  0
  -22.7813  -13.5220   21.1862 C   0  0  0  0  0  0
  -22.1660   -4.2133   21.0980 F   0  0  0  0  0  0
  -21.5645   -3.4539   25.7745 F   0  0  0  0  0  0
  -29.9742  -13.5372   20.3765 N   0  0  0  0  0  0
  -26.2912  -12.9383   20.3285 N   0  0  0  0  0  0
  -25.9293  -11.6534   20.5732 N   0  0  0  0  0  0
  -22.0461  -12.8195   22.0413 N   0  0  0  0  0  0
  -25.4176  -15.1922   20.4141 N   0  0  0  0  0  0
  -31.7962  -14.8309   20.1463 O   0  0  0  0  0  0
  -21.6644   -6.8861   21.4233 O   0  0  0  0  0  0
  -22.3488  -14.5480   20.6657 O   0  0  0  0  0  0
  -24.6424  -31.8502   23.1933 C   0  0  0  0  0  0
  -25.9201  -32.4726   23.8326 C   0  0  1  0  0  0
  -27.2234  -27.2207   20.1158 C   0  0  0  0  0  0
  -25.5962  -33.8528   24.2239 N   0  0  0  0  0  0
  -23.4403  -30.4743   21.5346 C   0  0  2  0  0  0
  -24.8821  -28.9101   20.1054 C   0  0  0  0  0  0
  -22.7545  -29.4595   22.4833 C   0  0  0  0  0  0
  -18.0302  -28.1429   22.8466 C   0  0  0  0  0  0
  -24.1473  -36.7253   23.2643 C   0  0  0  0  0  0
  -25.9901  -30.7462   21.3785 C   0  0  0  0  0  0
  -26.0590  -29.3682   20.7101 C   0  0  0  0  0  0
  -27.2285  -28.5371   20.6998 C   0  0  0  0  0  0
  -26.0102  -26.8195   19.5152 C   0  0  0  0  0  0
  -24.8639  -27.6424   19.5013 C   0  0  0  0  0  0
  -23.6606  -29.8111   20.1503 C   0  0  0  0  0  0
  -25.4100  -36.3034   24.0329 C   0  0  1  0  0  0
  -20.5914  -28.3745   23.1211 C   0  0  2  0  0  0
  -20.6791  -26.9450   22.5382 C   0  0  0  0  0  0
  -19.5768  -26.6397   21.5197 C   0  0  0  0  0  0
  -18.1942  -26.7949   22.1617 C   0  0  0  0  0  0
  -19.1565  -28.8902   23.2835 C   0  0  0  0  0  0
  -18.9493  -30.1469   23.8904 C   0  0  0  0  0  0
  -17.6504  -30.6615   24.0572 C   0  0  0  0  0  0
  -25.9062  -34.9419   23.5089 C   0  0  0  0  0  0
  -16.5389  -29.9116   23.6345 C   0  0  0  0  0  0
  -16.7293  -28.6528   23.0372 C   0  0  0  0  0  0
  -26.4532  -31.6604   25.0780 C   0  0  0  0  0  0
  -25.3729  -31.3781   26.1493 C   0  0  0  0  0  0
  -27.0409  -30.3012   24.6358 C   0  0  0  0  0  0
  -27.6093  -32.4370   25.7520 C   0  0  0  0  0  0
  -27.5556  -37.1766   24.8455 C   0  0  0  0  0  0
  -21.4242  -29.3081   22.3576 N   0  0  0  0  0  0
  -26.4264  -37.3767   23.9421 N   0  0  0  0  0  0
  -24.7110  -31.0429   22.0916 N   0  0  0  0  0  0
  -23.4216  -28.8118   23.2953 O   0  0  0  0  0  0
  -28.3336  -26.3396   20.1934 O   0  0  0  0  0  0
  -26.5641  -34.8914   22.4666 O   0  0  0  0  0  0
  -23.5560  -32.1335   23.7210 O   0  0  0  0  0  0
  -31.3920  -17.5997   21.3959 C   0  0  0  0  0  0
  -31.7675  -18.8916   21.8112 C   0  0  0  0  0  0
  -30.8937  -19.9937   21.5598 C   0  0  0  0  0  0
  -30.1728  -17.3500   20.7491 C   0  0  0  0  0  0
  -29.7300  -19.7783   20.7796 C   0  0  0  0  0  0
  -33.0749  -18.9865   22.5277 C   0  0  0  0  0  0
  -28.4484  -23.6122   20.3301 C   0  0  0  0  0  0
  -31.1515  -21.3514   22.2251 C   0  0  0  0  0  0
  -29.2132  -22.0887   18.3109 C   0  0  0  0  0  0
  -28.4370  -24.9982   19.4892 C   0  0  0  0  0  0
  -29.2348  -22.2417   19.8436 C   0  0  2  0  0  0
  -29.3829  -18.4679   20.4415 N   0  0  0  0  0  0
  -29.8138  -15.9171   20.5433 N   0  0  0  0  0  0
  -28.8524  -20.8898   20.4562 N   0  0  0  0  0  0
  -33.6603  -20.0319   22.8254 O   0  0  0  0  0  0
  -27.8268  -23.5959   21.3943 O   0  0  0  0  0  0
  -31.4673  -12.5993   19.1474 H   0  0  0  0  0  0
  -30.3845  -11.4994   19.9498 H   0  0  0  0  0  0
  -29.7861  -11.7295   17.5108 H   0  0  0  0  0  0
  -29.6222  -13.4567   17.7032 H   0  0  0  0  0  0
  -27.8913  -11.2748   18.9113 H   0  0  0  0  0  0
  -27.3675  -12.5077   17.7989 H   0  0  0  0  0  0
  -27.6167  -14.2477   19.4530 H   0  0  0  0  0  0
  -28.7391  -12.1805   21.4122 H   0  0  0  0  0  0
  -28.4206  -13.8579   21.7835 H   0  0  0  0  0  0
  -25.2776   -9.5684   22.4745 H   0  0  0  0  0  0
  -24.0018   -7.4635   22.7484 H   0  0  0  0  0  0
  -21.0844   -8.8732   19.8966 H   0  0  0  0  0  0
  -22.3680  -10.9629   19.6158 H   0  0  0  0  0  0
  -21.1976   -7.6137   23.9704 H   0  0  0  0  0  0
  -21.1501   -6.0511   25.9075 H   0  0  0  0  0  0
  -22.0594   -2.7596   23.2855 H   0  0  0  0  0  0
  -22.4089  -11.9885   22.4846 H   0  0  0  0  0  0
  -21.1062  -13.1208   22.2602 H   0  0  0  0  0  0
  -24.6481  -15.8403   20.5431 H   0  0  0  0  0  0
  -26.2557  -15.6479   20.0759 H   0  0  0  0  0  0
  -26.7288  -32.5325   23.1083 H   0  0  0  0  0  0
  -25.0136  -33.9635   25.0392 H   0  0  0  0  0  0
  -22.7477  -31.3035   21.3865 H   0  0  0  0  0  0
  -23.3753  -35.9561   23.3291 H   0  0  0  0  0  0
  -24.3595  -36.8900   22.2070 H   0  0  0  0  0  0
  -23.7200  -37.6438   23.6681 H   0  0  0  0  0  0
  -26.1513  -31.5102   20.6162 H   0  0  0  0  0  0
  -26.8620  -30.7852   22.0212 H   0  0  0  0  0  0
  -28.1337  -28.8850   21.1777 H   0  0  0  0  0  0
  -25.8976  -25.8339   19.0924 H   0  0  0  0  0  0
  -23.9484  -27.2796   19.0502 H   0  0  0  0  0  0
  -23.7973  -30.5890   19.3982 H   0  0  0  0  0  0
  -22.7748  -29.2565   19.8385 H   0  0  0  0  0  0
  -25.1274  -36.1898   25.0821 H   0  0  0  0  0  0
  -21.0041  -28.3351   24.1327 H   0  0  0  0  0  0
  -20.5691  -26.2375   23.3609 H   0  0  0  0  0  0
  -21.6652  -26.7449   22.1184 H   0  0  0  0  0  0
  -19.6925  -25.6293   21.1261 H   0  0  0  0  0  0
  -19.6710  -27.3185   20.6705 H   0  0  0  0  0  0
  -17.4201  -26.6704   21.4016 H   0  0  0  0  0  0
  -18.0341  -26.0093   22.9032 H   0  0  0  0  0  0
  -19.7974  -30.7261   24.2300 H   0  0  0  0  0  0
  -17.5072  -31.6302   24.5186 H   0  0  0  0  0  0
  -15.5391  -30.3068   23.7642 H   0  0  0  0  0  0
  -15.8673  -28.0857   22.7127 H   0  0  0  0  0  0
  -24.5891  -30.7162   25.7786 H   0  0  0  0  0  0
  -24.8955  -32.2975   26.4907 H   0  0  0  0  0  0
  -25.8029  -30.8948   27.0280 H   0  0  0  0  0  0
  -26.3044  -29.6741   24.1355 H   0  0  0  0  0  0
  -27.4009  -29.7325   25.4934 H   0  0  0  0  0  0
  -27.8930  -30.4255   23.9682 H   0  0  0  0  0  0
  -27.2726  -33.3698   26.2051 H   0  0  0  0  0  0
  -28.3900  -32.6921   25.0334 H   0  0  0  0  0  0
  -28.0782  -31.8565   26.5474 H   0  0  0  0  0  0
  -28.2540  -38.0091   24.7574 H   0  0  0  0  0  0
  -28.1088  -36.2651   24.6194 H   0  0  0  0  0  0
  -27.2306  -37.1300   25.8859 H   0  0  0  0  0  0
  -20.9452  -29.8860   21.6811 H   0  0  0  0  0  0
  -26.0133  -38.2806   24.1535 H   0  0  0  0  0  0
  -32.0474  -16.7766   21.6409 H   0  0  0  0  0  0
  -33.5074  -18.0165   22.7781 H   0  0  0  0  0  0
  -30.2527  -21.9624   22.2884 H   0  0  0  0  0  0
  -31.9179  -21.9151   21.6941 H   0  0  0  0  0  0
  -31.4662  -21.2359   23.2632 H   0  0  0  0  0  0
  -28.2896  -21.6223   17.9625 H   0  0  0  0  0  0
  -30.0438  -21.4585   17.9831 H   0  0  0  0  0  0
  -29.3142  -23.0407   17.7889 H   0  0  0  0  0  0
  -27.6718  -24.9057   18.7221 H   0  0  0  0  0  0
  -29.3724  -25.0331   18.9310 H   0  0  0  0  0  0
  -30.2833  -22.4071   20.0917 H   0  0  0  0  0  0
  -28.8231  -15.7389   20.5155 H   0  0  0  0  0  0
  -27.8987  -20.6186   20.2542 H   0  0  0  0  0  0
  1 25  1  0  0  0
  1 30  2  0  0  0
  1 83  1  0  0  0
  2  3  1  0  0  0
  2 25  1  0  0  0
  2 87  1  0  0  0
  2 88  1  0  0  0
  3  4  1  0  0  0
  3 89  1  0  0  0
  3 90  1  0  0  0
  4  5  1  0  0  0
  4 91  1  0  0  0
  4 92  1  0  0  0
  5  6  1  0  0  0
  5 26  1  0  0  0
  5 93  1  0  0  0
  6 25  1  0  0  0
  6 94  1  0  0  0
  6 95  1  0  0  0
  7  8  2  0  0  0
  7 26  1  0  0  0
  7 29  1  0  0  0
  8  9  1  0  0  0
  8 22  1  0  0  0
  9 10  1  0  0  0
  9 27  2  0  0  0
 10 11  2  0  0  0
 10 15  1  0  0  0
 11 12  1  0  0  0
 11 96  1  0  0  0
 12 13  2  0  0  0
 12 97  1  0  0  0
 13 14  1  0  0  0
 13 31  1  0  0  0
 14 15  2  0  0  0
 14 98  1  0  0  0
 15 99  1  0  0  0
 16 17  2  0  0  0
 16 21  1  0  0  0
 16 31  1  0  0  0
 17 18  1  0  0  0
 17100  1  0  0  0
 18 19  2  0  0  0
 18101  1  0  0  0
 19 20  1  0  0  0
 19 24  1  0  0  0
 20 21  2  0  0  0
 20102  1  0  0  0
 21 23  1  0  0  0
 22 28  1  0  0  0
 22 32  2  0  0  0
 26 27  1  0  0  0
 28103  1  0  0  0
 28104  1  0  0  0
 29105  1  0  0  0
 29106  1  0  0  0
 33 34  1  0  0  0
 33 66  1  0  0  0
 33 70  2  0  0  0
 34 36  1  0  0  0
 34 59  1  0  0  0
 34107  1  0  0  0
 35 44  2  0  0  0
 35 45  1  0  0  0
 35 68  1  0  0  0
 36 56  1  0  0  0
 36108  1  0  0  0
 37 39  1  0  0  0
 37 47  1  0  0  0
 37 66  1  0  0  0
 37109  1  0  0  0
 38 43  2  0  0  0
 38 46  1  0  0  0
 38 47  1  0  0  0
 39 64  1  0  0  0
 39 67  2  0  0  0
 40 52  1  0  0  0
 40 53  2  0  0  0
 40 58  1  0  0  0
 41110  1  0  0  0
 41111  1  0  0  0
 41112  1  0  0  0
 41 48  1  0  0  0
 42 43  1  0  0  0
 42 66  1  0  0  0
 42113  1  0  0  0
 42114  1  0  0  0
 43 44  1  0  0  0
 44115  1  0  0  0
 45 46  2  0  0  0
 45116  1  0  0  0
 46117  1  0  0  0
 47118  1  0  0  0
 47119  1  0  0  0
 48 56  1  0  0  0
 48 65  1  0  0  0
 48120  1  0  0  0
 49 50  1  0  0  0
 49 53  1  0  0  0
 49 64  1  0  0  0
 49121  1  0  0  0
 50 51  1  0  0  0
 50122  1  0  0  0
 50123  1  0  0  0
 51 52  1  0  0  0
 51124  1  0  0  0
 51125  1  0  0  0
 52126  1  0  0  0
 52127  1  0  0  0
 53 54  1  0  0  0
 54 55  2  0  0  0
 54128  1  0  0  0
 55 57  1  0  0  0
 55129  1  0  0  0
 56 69  2  0  0  0
 57 58  2  0  0  0
 57130  1  0  0  0
 58131  1  0  0  0
 59 60  1  0  0  0
 59 61  1  0  0  0
 59 62  1  0  0  0
 60132  1  0  0  0
 60133  1  0  0  0
 60134  1  0  0  0
 61135  1  0  0  0
 61136  1  0  0  0
 61137  1  0  0  0
 62138  1  0  0  0
 62139  1  0  0  0
 62140  1  0  0  0
 63 65  1  0  0  0
 63141  1  0  0  0
 63142  1  0  0  0
 63143  1  0  0  0
 64144  1  0  0  0
 65145  1  0  0  0
 68 80  1  0  0  0
 71 72  2  0  0  0
 71 74  1  0  0  0
 71146  1  0  0  0
 72 73  1  0  0  0
 72 76  1  0  0  0
 73 75  2  0  0  0
 73 78  1  0  0  0
 74 82  2  0  0  0
 74 83  1  0  0  0
 75 82  1  0  0  0
 75 84  1  0  0  0
 76 85  2  0  0  0
 76147  1  0  0  0
 77 80  1  0  0  0
 77 81  1  0  0  0
 77 86  2  0  0  0
 78148  1  0  0  0
 78149  1  0  0  0
 78150  1  0  0  0
 79151  1  0  0  0
 79152  1  0  0  0
 79153  1  0  0  0
 79 81  1  0  0  0
 80154  1  0  0  0
 80155  1  0  0  0
 81 84  1  0  0  0
 81156  1  0  0  0
 83157  1  0  0  0
 84158  1  0  0  0
M  ISO  4   1 100  68 101  80 101  83 100
M  END
> <chiral flag>
0

> <version>
0

> <s_m_source_file>
/data/baiqing/PycharmProjects/Reinvent-master-3.2/result/LINK_invent/BTK/process_docking_weight1_custom_product_contain_oxygen_bond_distance_aromatic_linkinvent_7_9_3/rearranged_h_0181.sdf

> <i_m_source_file_index>
40

> <r_mmod_Potential_Energy-OPLS-2005>
29.9688205718994

> <r_mmod_Stretch_Energy-OPLS-2005>
150.370864868164

> <r_mmod_Bend_Energy-OPLS-2005>
198.624588012695

> <r_mmod_Torsional_Energy-OPLS-2005>
233.774703979492

> <r_mmod_Improper_Torsional_Energy-OPLS-2005>
8.98882961273193

> <r_mmod_Van_der_Waal_Energy-OPLS-2005>
153.123382568359

> <r_mmod_Electrostatic_Energy-OPLS-2005>
-559.899475097656

> <r_mmod_Solvation_Energy-OPLS-2005>
-256.283905029297

> <b_mmod_Minimization_Converged-OPLS-2005>
0

> <r_mmod_RMS_Derivative-OPLS-2005>
5.86745643615723

$$$$
40
                    3D
 Structure written by MMmdl.
158166  0  0  1  0            999 V2000
  -30.6450  -14.5220   20.5779 C   0  0  0  0  0  0
  -30.4343  -12.3376   19.4252 C   0  0  0  0  0  0
  -29.4978  -12.5060   18.2083 C   0  0  0  0  0  0
  -28.0178  -12.3557   18.6179 C   0  0  0  0  0  0
  -27.6566  -13.2001   19.8686 C   0  0  2  0  0  0
  -28.6964  -12.9806   20.9903 C   0  0  0  0  0  0
  -25.2553  -13.8140   20.5619 C   0  0  0  0  0  0
  -24.1817  -13.0430   20.9173 C   0  0  0  0  0  0
  -24.6365  -11.6895   20.8733 C   0  0  0  0  0  0
  -23.9030  -10.4286   21.0407 C   0  0  0  0  0  0
  -24.3592   -9.4205   21.9181 C   0  0  0  0  0  0
  -23.6279   -8.2233   22.0746 C   0  0  0  0  0  0
  -22.4263   -8.0273   21.3537 C   0  0  0  0  0  0
  -21.9892   -9.0242   20.4635 C   0  0  0  0  0  0
  -22.7206  -10.2124   20.3050 C   0  0  0  0  0  0
  -21.6857   -6.0723   22.5275 C   0  0  0  0  0  0
  -21.4017   -6.5628   23.8209 C   0  0  0  0  0  0
  -21.3657   -5.6783   24.9171 C   0  0  0  0  0  0
  -21.6046   -4.3045   24.7226 C   0  0  0  0  0  0
  -21.8820   -3.8133   23.4348 C   0  0  0  0  0  0
  -21.9196   -4.6950   22.3403 C   0  0  0  0  0  0
  -22.7844  -13.5235   21.1854 C   0  0  0  0  0  0
  -22.1659   -4.2134   21.0980 F   0  0  0  0  0  0
  -21.5636   -3.4531   25.7744 F   0  0  0  0  0  0
  -30.0220  -13.3164   20.4435 N   0  0  0  0  0  0
  -26.2982  -12.9293   20.3309 N   0  0  0  0  0  0
  -25.9287  -11.6464   20.5748 N   0  0  0  0  0  0
  -22.0481  -12.8234   22.0415 N   0  0  0  0  0  0
  -25.4260  -15.1855   20.3921 N   0  0  0  0  0  0
  -31.7846  -14.7309   20.1473 O   0  0  0  0  0  0
  -21.6631   -6.8868   21.4237 O   0  0  0  0  0  0
  -22.3528  -14.5547   20.6711 O   0  0  0  0  0  0
  -24.6159  -31.8656   23.2078 C   0  0  0  0  0  0
  -25.9039  -32.4815   23.8380 C   0  0  1  0  0  0
  -27.2339  -27.4054   20.0947 C   0  0  0  0  0  0
  -25.5898  -33.8623   24.2300 N   0  0  0  0  0  0
  -23.4046  -30.4890   21.5480 C   0  0  2  0  0  0
  -24.8491  -28.9498   20.1127 C   0  0  0  0  0  0
  -22.7410  -29.4640   22.4966 C   0  0  0  0  0  0
  -18.0278  -28.1378   22.8490 C   0  0  0  0  0  0
  -24.1489  -36.7296   23.2641 C   0  0  0  0  0  0
  -25.9363  -30.8210   21.3652 C   0  0  0  0  0  0
  -26.0098  -29.4542   20.7095 C   0  0  0  0  0  0
  -27.1999  -28.6885   20.6976 C   0  0  0  0  0  0
  -26.0477  -26.9200   19.4970 C   0  0  0  0  0  0
  -24.8645  -27.6827   19.5047 C   0  0  0  0  0  0
  -23.6135  -29.8202   20.1627 C   0  0  0  0  0  0
  -25.4117  -36.3109   24.0339 C   0  0  1  0  0  0
  -20.5868  -28.3655   23.1320 C   0  0  2  0  0  0
  -20.6768  -26.9390   22.5417 C   0  0  0  0  0  0
  -19.5751  -26.6388   21.5208 C   0  0  0  0  0  0
  -18.1927  -26.7927   22.1618 C   0  0  0  0  0  0
  -19.1528  -28.8830   23.2909 C   0  0  0  0  0  0
  -18.9459  -30.1440   23.8906 C   0  0  0  0  0  0
  -17.6460  -30.6585   24.0560 C   0  0  0  0  0  0
  -25.9054  -34.9481   23.5120 C   0  0  0  0  0  0
  -16.5349  -29.9089   23.6334 C   0  0  0  0  0  0
  -16.7266  -28.6508   23.0344 C   0  0  0  0  0  0
  -26.4448  -31.6616   25.0726 C   0  0  0  0  0  0
  -25.3707  -31.3756   26.1476 C   0  0  0  0  0  0
  -27.0253  -30.3051   24.6109 C   0  0  0  0  0  0
  -27.6014  -32.4333   25.7494 C   0  0  0  0  0  0
  -27.5584  -37.1804   24.8472 C   0  0  0  0  0  0
  -21.4137  -29.3025   22.3714 N   0  0  0  0  0  0
  -26.4300  -37.3801   23.9423 N   0  0  0  0  0  0
  -24.6702  -31.0742   22.0976 N   0  0  0  0  0  0
  -23.4173  -28.8187   23.3016 O   0  0  0  0  0  0
  -28.4251  -26.6959   20.1200 O   0  0  0  0  0  0
  -26.5622  -34.8927   22.4686 O   0  0  0  0  0  0
  -23.5355  -32.1409   23.7474 O   0  0  0  0  0  0
  -30.8155  -18.7926   22.2529 C   0  0  0  0  0  0
  -30.0519  -19.4109   21.2758 C   0  0  0  0  0  0
  -30.1054  -16.8990   21.1869 C   0  0  0  0  0  0
  -29.4070  -23.0632   20.5410 C   0  0  0  0  0  0
  -29.0180  -21.5316   20.4686 C   0  0  0  0  0  0
  -30.6657  -19.6418   24.6184 C   0  0  0  0  0  0
  -26.8822  -23.7790   20.8149 C   0  0  0  0  0  0
  -28.5378  -25.3506   19.5984 C   0  0  0  0  0  0
  -31.5533  -19.4703   23.3805 C   0  0  1  0  0  0
  -28.3530  -24.2145   20.6619 C   0  0  2  0  0  0
  -30.8205  -17.3852   22.2012 N   0  0  0  0  0  0
  -29.9231  -20.7708   21.1255 N   0  0  0  0  0  0
  -29.8496  -15.5025   21.0620 N   0  0  0  0  0  0
  -30.6059  -23.3704   20.5514 O   0  0  0  0  0  0
  -28.0304  -21.0970   19.8666 O   0  0  0  0  0  0
  -32.6475  -18.7953   23.7431 F   0  0  0  0  0  0
  -29.3048  -18.1750   20.2533 S   0  0  0  0  0  0
  -31.4747  -12.4671   19.1219 H   0  0  0  0  0  0
  -30.3631  -11.3254   19.8277 H   0  0  0  0  0  0
  -29.7482  -11.7755   17.4381 H   0  0  0  0  0  0
  -29.6542  -13.4872   17.7588 H   0  0  0  0  0  0
  -27.8374  -11.3001   18.8223 H   0  0  0  0  0  0
  -27.3661  -12.6171   17.7831 H   0  0  0  0  0  0
  -27.6966  -14.2456   19.5646 H   0  0  0  0  0  0
  -28.6867  -11.9391   21.3174 H   0  0  0  0  0  0
  -28.4442  -13.5625   21.8780 H   0  0  0  0  0  0
  -25.2737   -9.5696   22.4746 H   0  0  0  0  0  0
  -23.9995   -7.4631   22.7473 H   0  0  0  0  0  0
  -21.0820   -8.8753   19.8947 H   0  0  0  0  0  0
  -22.3659  -10.9661   19.6155 H   0  0  0  0  0  0
  -21.2002   -7.6137   23.9715 H   0  0  0  0  0  0
  -21.1484   -6.0507   25.9079 H   0  0  0  0  0  0
  -22.0602   -2.7596   23.2852 H   0  0  0  0  0  0
  -22.4084  -11.9880   22.4787 H   0  0  0  0  0  0
  -21.1108  -13.1280   22.2641 H   0  0  0  0  0  0
  -24.6439  -15.8291   20.4540 H   0  0  0  0  0  0
  -26.2552  -15.6114   19.9968 H   0  0  0  0  0  0
  -26.7098  -32.5495   23.1131 H   0  0  0  0  0  0
  -25.0062  -33.9789   25.0451 H   0  0  0  0  0  0
  -22.6951  -31.3071   21.4072 H   0  0  0  0  0  0
  -23.3771  -35.9607   23.3313 H   0  0  0  0  0  0
  -24.3583  -36.8909   22.2053 H   0  0  0  0  0  0
  -23.7210  -37.6496   23.6639 H   0  0  0  0  0  0
  -26.0625  -31.5875   20.5982 H   0  0  0  0  0  0
  -26.8210  -30.8669   21.9889 H   0  0  0  0  0  0
  -28.0964  -29.0762   21.1621 H   0  0  0  0  0  0
  -26.0014  -25.9499   19.0269 H   0  0  0  0  0  0
  -23.9703  -27.2854   19.0440 H   0  0  0  0  0  0
  -23.7258  -30.5946   19.4032 H   0  0  0  0  0  0
  -22.7349  -29.2441   19.8657 H   0  0  0  0  0  0
  -25.1297  -36.1978   25.0832 H   0  0  0  0  0  0
  -20.9966  -28.3219   24.1438 H   0  0  0  0  0  0
  -20.5675  -26.2241   23.3597 H   0  0  0  0  0  0
  -21.6639  -26.7441   22.1193 H   0  0  0  0  0  0
  -19.6914  -25.6308   21.1221 H   0  0  0  0  0  0
  -19.6710  -27.3215   20.6753 H   0  0  0  0  0  0
  -17.4198  -26.6676   21.4017 H   0  0  0  0  0  0
  -18.0323  -26.0068   22.9011 H   0  0  0  0  0  0
  -19.7936  -30.7258   24.2258 H   0  0  0  0  0  0
  -17.5026  -31.6265   24.5167 H   0  0  0  0  0  0
  -15.5352  -30.2994   23.7666 H   0  0  0  0  0  0
  -15.8661  -28.0844   22.7040 H   0  0  0  0  0  0
  -24.5915  -30.7039   25.7863 H   0  0  0  0  0  0
  -24.8844  -32.2909   26.4855 H   0  0  0  0  0  0
  -25.8077  -30.9022   27.0274 H   0  0  0  0  0  0
  -26.2784  -29.6859   24.1122 H   0  0  0  0  0  0
  -27.3973  -29.7262   25.4570 H   0  0  0  0  0  0
  -27.8642  -30.4381   23.9278 H   0  0  0  0  0  0
  -27.2666  -33.3708   26.1945 H   0  0  0  0  0  0
  -28.3894  -32.6760   25.0356 H   0  0  0  0  0  0
  -28.0554  -31.8505   26.5522 H   0  0  0  0  0  0
  -28.2606  -38.0099   24.7554 H   0  0  0  0  0  0
  -28.1081  -36.2640   24.6271 H   0  0  0  0  0  0
  -27.2299  -37.1424   25.8873 H   0  0  0  0  0  0
  -20.9276  -29.8767   21.6966 H   0  0  0  0  0  0
  -26.0195  -38.2882   24.1438 H   0  0  0  0  0  0
  -31.2068  -20.1338   25.4255 H   0  0  0  0  0  0
  -30.3142  -18.6787   24.9886 H   0  0  0  0  0  0
  -29.7908  -20.2493   24.3885 H   0  0  0  0  0  0
  -26.7658  -22.9862   21.5539 H   0  0  0  0  0  0
  -26.4720  -23.4255   19.8688 H   0  0  0  0  0  0
  -26.2670  -24.6140   21.1513 H   0  0  0  0  0  0
  -27.9234  -25.1812   18.7162 H   0  0  0  0  0  0
  -29.5538  -25.3067   19.2041 H   0  0  0  0  0  0
  -31.9157  -20.4476   23.0601 H   0  0  0  0  0  0
  -28.6224  -24.6631   21.6170 H   0  0  0  0  0  0
  -30.6299  -21.3458   21.5662 H   0  0  0  0  0  0
  -28.9055  -15.2165   21.2645 H   0  0  0  0  0  0
  1 25  1  0  0  0
  1 30  2  0  0  0
  1 83  1  0  0  0
  2  3  1  0  0  0
  2 25  1  0  0  0
  2 88  1  0  0  0
  2 89  1  0  0  0
  3  4  1  0  0  0
  3 90  1  0  0  0
  3 91  1  0  0  0
  4  5  1  0  0  0
  4 92  1  0  0  0
  4 93  1  0  0  0
  5  6  1  0  0  0
  5 26  1  0  0  0
  5 94  1  0  0  0
  6 25  1  0  0  0
  6 95  1  0  0  0
  6 96  1  0  0  0
  7  8  2  0  0  0
  7 26  1  0  0  0
  7 29  1  0  0  0
  8  9  1  0  0  0
  8 22  1  0  0  0
  9 10  1  0  0  0
  9 27  2  0  0  0
 10 11  2  0  0  0
 10 15  1  0  0  0
 11 12  1  0  0  0
 11 97  1  0  0  0
 12 13  2  0  0  0
 12 98  1  0  0  0
 13 14  1  0  0  0
 13 31  1  0  0  0
 14 15  2  0  0  0
 14 99  1  0  0  0
 15100  1  0  0  0
 16 17  2  0  0  0
 16 21  1  0  0  0
 16 31  1  0  0  0
 17 18  1  0  0  0
 17101  1  0  0  0
 18 19  2  0  0  0
 18102  1  0  0  0
 19 20  1  0  0  0
 19 24  1  0  0  0
 20 21  2  0  0  0
 20103  1  0  0  0
 21 23  1  0  0  0
 22 28  1  0  0  0
 22 32  2  0  0  0
 26 27  1  0  0  0
 28104  1  0  0  0
 28105  1  0  0  0
 29106  1  0  0  0
 29107  1  0  0  0
 33 34  1  0  0  0
 33 66  1  0  0  0
 33 70  2  0  0  0
 34 36  1  0  0  0
 34 59  1  0  0  0
 34108  1  0  0  0
 35 44  2  0  0  0
 35 45  1  0  0  0
 35 68  1  0  0  0
 36 56  1  0  0  0
 36109  1  0  0  0
 37 39  1  0  0  0
 37 47  1  0  0  0
 37 66  1  0  0  0
 37110  1  0  0  0
 38 43  2  0  0  0
 38 46  1  0  0  0
 38 47  1  0  0  0
 39 64  1  0  0  0
 39 67  2  0  0  0
 40 52  1  0  0  0
 40 53  2  0  0  0
 40 58  1  0  0  0
 41111  1  0  0  0
 41112  1  0  0  0
 41113  1  0  0  0
 41 48  1  0  0  0
 42 43  1  0  0  0
 42 66  1  0  0  0
 42114  1  0  0  0
 42115  1  0  0  0
 43 44  1  0  0  0
 44116  1  0  0  0
 45 46  2  0  0  0
 45117  1  0  0  0
 46118  1  0  0  0
 47119  1  0  0  0
 47120  1  0  0  0
 48 56  1  0  0  0
 48 65  1  0  0  0
 48121  1  0  0  0
 49 50  1  0  0  0
 49 53  1  0  0  0
 49 64  1  0  0  0
 49122  1  0  0  0
 50 51  1  0  0  0
 50123  1  0  0  0
 50124  1  0  0  0
 51 52  1  0  0  0
 51125  1  0  0  0
 51126  1  0  0  0
 52127  1  0  0  0
 52128  1  0  0  0
 53 54  1  0  0  0
 54 55  2  0  0  0
 54129  1  0  0  0
 55 57  1  0  0  0
 55130  1  0  0  0
 56 69  2  0  0  0
 57 58  2  0  0  0
 57131  1  0  0  0
 58132  1  0  0  0
 59 60  1  0  0  0
 59 61  1  0  0  0
 59 62  1  0  0  0
 60133  1  0  0  0
 60134  1  0  0  0
 60135  1  0  0  0
 61136  1  0  0  0
 61137  1  0  0  0
 61138  1  0  0  0
 62139  1  0  0  0
 62140  1  0  0  0
 62141  1  0  0  0
 63 65  1  0  0  0
 63142  1  0  0  0
 63143  1  0  0  0
 63144  1  0  0  0
 64145  1  0  0  0
 65146  1  0  0  0
 68 78  1  0  0  0
 71 72  2  0  0  0
 71 79  1  0  0  0
 71 81  1  0  0  0
 72 82  1  0  0  0
 72 87  1  0  0  0
 73 81  2  0  0  0
 73 83  1  0  0  0
 73 87  1  0  0  0
 74 75  1  0  0  0
 74 80  1  0  0  0
 74 84  2  0  0  0
 75 82  1  0  0  0
 75 85  2  0  0  0
 76147  1  0  0  0
 76148  1  0  0  0
 76149  1  0  0  0
 76 79  1  0  0  0
 77150  1  0  0  0
 77151  1  0  0  0
 77152  1  0  0  0
 77 80  1  0  0  0
 78 80  1  0  0  0
 78153  1  0  0  0
 78154  1  0  0  0
 79 86  1  0  0  0
 79155  1  0  0  0
 80156  1  0  0  0
 82157  1  0  0  0
 83158  1  0  0  0
M  ISO  4   1 100  68 101  78 101  83 100
M  END
> <chiral flag>
0

> <version>
0

> <s_m_source_file>
/data/baiqing/PycharmProjects/Reinvent-master-3.2/result/LINK_invent/BTK/process_docking_weight1_custom_product_contain_oxygen_bond_distance_aromatic_linkinvent_7_9_3/rearranged_h_0181.sdf

> <i_m_source_file_index>
41

> <r_mmod_Potential_Energy-OPLS-2005>
-21.3995113372803

> <r_mmod_Stretch_Energy-OPLS-2005>
46.6450843811035

> <r_mmod_Bend_Energy-OPLS-2005>
137.581604003906

> <r_mmod_Torsional_Energy-OPLS-2005>
232.079528808594

> <r_mmod_Improper_Torsional_Energy-OPLS-2005>
5.8767466545105

> <r_mmod_Van_der_Waal_Energy-OPLS-2005>
126.540885925293

> <r_mmod_Electrostatic_Energy-OPLS-2005>
-343.986358642578

> <r_mmod_Solvation_Energy-OPLS-2005>
-244.868453979492

> <b_mmod_Minimization_Converged-OPLS-2005>
0

> <r_mmod_RMS_Derivative-OPLS-2005>
1.8440705537796

$$$$
41
                    3D
 Structure written by MMmdl.
153161  0  0  1  0            999 V2000
  -30.6359  -14.7662   20.4304 C   0  0  0  0  0  0
  -30.4258  -12.4693   19.4740 C   0  0  0  0  0  0
  -29.5111  -12.5061   18.2305 C   0  0  0  0  0  0
  -28.0338  -12.3515   18.6395 C   0  0  0  0  0  0
  -27.6383  -13.2474   19.8463 C   0  0  2  0  0  0
  -28.6877  -13.1957   20.9788 C   0  0  0  0  0  0
  -25.2494  -13.8239   20.5716 C   0  0  0  0  0  0
  -24.1804  -13.0456   20.9222 C   0  0  0  0  0  0
  -24.6404  -11.6950   20.8760 C   0  0  0  0  0  0
  -23.9080  -10.4314   21.0402 C   0  0  0  0  0  0
  -24.3635   -9.4217   21.9174 C   0  0  0  0  0  0
  -23.6326   -8.2253   22.0742 C   0  0  0  0  0  0
  -22.4313   -8.0273   21.3516 C   0  0  0  0  0  0
  -21.9939   -9.0249   20.4637 C   0  0  0  0  0  0
  -22.7267  -10.2142   20.3057 C   0  0  0  0  0  0
  -21.6864   -6.0736   22.5264 C   0  0  0  0  0  0
  -21.4031   -6.5645   23.8201 C   0  0  0  0  0  0
  -21.3681   -5.6794   24.9161 C   0  0  0  0  0  0
  -21.6049   -4.3044   24.7198 C   0  0  0  0  0  0
  -21.8825   -3.8141   23.4316 C   0  0  0  0  0  0
  -21.9193   -4.6966   22.3373 C   0  0  0  0  0  0
  -22.7820  -13.5204   21.1859 C   0  0  0  0  0  0
  -22.1650   -4.2149   21.0952 F   0  0  0  0  0  0
  -21.5633   -3.4531   25.7708 F   0  0  0  0  0  0
  -29.9821  -13.5499   20.3871 N   0  0  0  0  0  0
  -26.2936  -12.9469   20.3292 N   0  0  0  0  0  0
  -25.9338  -11.6599   20.5758 N   0  0  0  0  0  0
  -22.0454  -12.8250   22.0444 N   0  0  0  0  0  0
  -25.4150  -15.1970   20.4166 N   0  0  0  0  0  0
  -31.8456  -14.7705   20.1915 O   0  0  0  0  0  0
  -21.6664   -6.8879   21.4228 O   0  0  0  0  0  0
  -22.3508  -14.5470   20.6626 O   0  0  0  0  0  0
  -24.6322  -31.8540   23.1969 C   0  0  0  0  0  0
  -25.9140  -32.4737   23.8323 C   0  0  1  0  0  0
  -27.2239  -27.2597   20.1345 C   0  0  0  0  0  0
  -25.5946  -33.8542   24.2262 N   0  0  0  0  0  0
  -23.4313  -30.4740   21.5390 C   0  0  2  0  0  0
  -24.8785  -28.9158   20.1118 C   0  0  0  0  0  0
  -22.7526  -29.4573   22.4888 C   0  0  0  0  0  0
  -18.0307  -28.1374   22.8474 C   0  0  0  0  0  0
  -24.1486  -36.7280   23.2638 C   0  0  0  0  0  0
  -25.9764  -30.7621   21.3789 C   0  0  0  0  0  0
  -26.0505  -29.3852   20.7221 C   0  0  0  0  0  0
  -27.2298  -28.5721   20.7167 C   0  0  0  0  0  0
  -26.0325  -26.8522   19.5011 C   0  0  0  0  0  0
  -24.8760  -27.6568   19.4884 C   0  0  0  0  0  0
  -23.6517  -29.8075   20.1552 C   0  0  0  0  0  0
  -25.4106  -36.3066   24.0338 C   0  0  1  0  0  0
  -20.5902  -28.3691   23.1263 C   0  0  2  0  0  0
  -20.6786  -26.9407   22.5397 C   0  0  0  0  0  0
  -19.5756  -26.6366   21.5212 C   0  0  0  0  0  0
  -18.1946  -26.7918   22.1621 C   0  0  0  0  0  0
  -19.1559  -28.8853   23.2855 C   0  0  0  0  0  0
  -18.9465  -30.1454   23.8876 C   0  0  0  0  0  0
  -17.6460  -30.6577   24.0559 C   0  0  0  0  0  0
  -25.9049  -34.9435   23.5101 C   0  0  0  0  0  0
  -16.5353  -29.9063   23.6335 C   0  0  0  0  0  0
  -16.7288  -28.6482   23.0352 C   0  0  0  0  0  0
  -26.4495  -31.6563   25.0728 C   0  0  0  0  0  0
  -25.3709  -31.3738   26.1451 C   0  0  0  0  0  0
  -27.0350  -30.2980   24.6235 C   0  0  0  0  0  0
  -27.6049  -32.4305   25.7509 C   0  0  0  0  0  0
  -27.5585  -37.1792   24.8463 C   0  0  0  0  0  0
  -21.4224  -29.3035   22.3651 N   0  0  0  0  0  0
  -26.4289  -37.3760   23.9425 N   0  0  0  0  0  0
  -24.6990  -31.0488   22.0951 N   0  0  0  0  0  0
  -23.4238  -28.8141   23.3002 O   0  0  0  0  0  0
  -28.3134  -26.3625   20.1360 O   0  0  0  0  0  0
  -26.5611  -34.8914   22.4662 O   0  0  0  0  0  0
  -23.5466  -32.1376   23.7260 O   0  0  0  0  0  0
  -31.4691  -17.6598   19.5917 C   0  0  0  0  0  0
  -31.8522  -18.9655   19.2448 C   0  0  0  0  0  0
  -31.0045  -20.0555   19.5064 C   0  0  0  0  0  0
  -30.2352  -17.3873   20.2266 C   0  0  0  0  0  0
  -29.7592  -19.8189   20.1248 C   0  0  0  0  0  0
  -28.6873  -23.6791   20.0077 C   0  0  0  0  0  0
  -30.3734  -22.5079   21.6124 C   0  0  0  0  0  0
  -28.0904  -24.9924   20.7233 C   0  0  0  0  0  0
  -29.0331  -22.3304   20.8685 C   0  0  2  0  0  0
  -29.4007  -18.4997   20.4562 N   0  0  0  0  0  0
  -29.9003  -15.9553   20.5417 N   0  0  0  0  0  0
  -28.8278  -20.9260   20.2885 N   0  0  0  0  0  0
  -28.8648  -23.7054   18.7852 O   0  0  0  0  0  0
  -33.0369  -19.1631   18.6146 F   0  0  0  0  0  0
  -31.3721  -21.2926   19.0893 F   0  0  0  0  0  0
  -31.4674  -12.5872   19.1698 H   0  0  0  0  0  0
  -30.3686  -11.5003   19.9737 H   0  0  0  0  0  0
  -29.7971  -11.7176   17.5302 H   0  0  0  0  0  0
  -29.6556  -13.4510   17.7021 H   0  0  0  0  0  0
  -27.8788  -11.3021   18.8931 H   0  0  0  0  0  0
  -27.3859  -12.5579   17.7856 H   0  0  0  0  0  0
  -27.6233  -14.2727   19.4727 H   0  0  0  0  0  0
  -28.7321  -12.1986   21.4190 H   0  0  0  0  0  0
  -28.4277  -13.8810   21.7875 H   0  0  0  0  0  0
  -25.2767   -9.5718   22.4752 H   0  0  0  0  0  0
  -24.0029   -7.4663   22.7491 H   0  0  0  0  0  0
  -21.0846   -8.8784   19.8963 H   0  0  0  0  0  0
  -22.3702  -10.9677   19.6174 H   0  0  0  0  0  0
  -21.2037   -7.6168   23.9699 H   0  0  0  0  0  0
  -21.1507   -6.0524   25.9068 H   0  0  0  0  0  0
  -22.0586   -2.7602   23.2805 H   0  0  0  0  0  0
  -22.4071  -11.9969   22.4934 H   0  0  0  0  0  0
  -21.1018  -13.1246   22.2520 H   0  0  0  0  0  0
  -24.6513  -15.8499   20.5566 H   0  0  0  0  0  0
  -26.2608  -15.6419   20.0840 H   0  0  0  0  0  0
  -26.7221  -32.5390   23.1068 H   0  0  0  0  0  0
  -25.0130  -33.9671   25.0441 H   0  0  0  0  0  0
  -22.7280  -31.2964   21.3922 H   0  0  0  0  0  0
  -23.3754  -35.9602   23.3268 H   0  0  0  0  0  0
  -24.3580  -36.8930   22.2060 H   0  0  0  0  0  0
  -23.7225  -37.6469   23.6673 H   0  0  0  0  0  0
  -26.1227  -31.5202   20.6091 H   0  0  0  0  0  0
  -26.8527  -30.8088   22.0149 H   0  0  0  0  0  0
  -28.1286  -28.9317   21.1976 H   0  0  0  0  0  0
  -25.9919  -25.8864   19.0161 H   0  0  0  0  0  0
  -23.9814  -27.2932   19.0024 H   0  0  0  0  0  0
  -23.7887  -30.5872   19.4044 H   0  0  0  0  0  0
  -22.7694  -29.2469   19.8445 H   0  0  0  0  0  0
  -25.1282  -36.1897   25.0826 H   0  0  0  0  0  0
  -20.9996  -28.3248   24.1382 H   0  0  0  0  0  0
  -20.5680  -26.2305   23.3601 H   0  0  0  0  0  0
  -21.6652  -26.7417   22.1194 H   0  0  0  0  0  0
  -19.6916  -25.6275   21.1258 H   0  0  0  0  0  0
  -19.6692  -27.3156   20.6738 H   0  0  0  0  0  0
  -17.4215  -26.6674   21.4019 H   0  0  0  0  0  0
  -18.0326  -26.0058   22.9014 H   0  0  0  0  0  0
  -19.7939  -30.7280   24.2230 H   0  0  0  0  0  0
  -17.5010  -31.6255   24.5156 H   0  0  0  0  0  0
  -15.5353  -30.2949   23.7665 H   0  0  0  0  0  0
  -15.8695  -28.0798   22.7060 H   0  0  0  0  0  0
  -24.5853  -30.7123   25.7784 H   0  0  0  0  0  0
  -24.8935  -32.2922   26.4885 H   0  0  0  0  0  0
  -25.8007  -30.8899   27.0234 H   0  0  0  0  0  0
  -26.2956  -29.6715   24.1241 H   0  0  0  0  0  0
  -27.4010  -29.7247   25.4763 H   0  0  0  0  0  0
  -27.8839  -30.4253   23.9518 H   0  0  0  0  0  0
  -27.2650  -33.3592   26.2113 H   0  0  0  0  0  0
  -28.3855  -32.6886   25.0338 H   0  0  0  0  0  0
  -28.0733  -31.8416   26.5411 H   0  0  0  0  0  0
  -28.2571  -38.0121   24.7534 H   0  0  0  0  0  0
  -28.1115  -36.2650   24.6237 H   0  0  0  0  0  0
  -27.2326  -37.1389   25.8873 H   0  0  0  0  0  0
  -20.9423  -29.8752   21.6848 H   0  0  0  0  0  0
  -26.0160  -38.2838   24.1403 H   0  0  0  0  0  0
  -32.1657  -16.8884   19.3143 H   0  0  0  0  0  0
  -30.3341  -23.3476   22.3078 H   0  0  0  0  0  0
  -31.2015  -22.7143   20.9344 H   0  0  0  0  0  0
  -30.6217  -21.6288   22.2050 H   0  0  0  0  0  0
  -28.4957  -25.0200   21.7336 H   0  0  0  0  0  0
  -27.0216  -24.8228   20.8480 H   0  0  0  0  0  0
  -28.2950  -22.3356   21.6716 H   0  0  0  0  0  0
  -28.9361  -15.8071   20.7899 H   0  0  0  0  0  0
  -27.8671  -20.6232   20.3848 H   0  0  0  0  0  0
  1 25  1  0  0  0
  1 30  2  0  0  0
  1 81  1  0  0  0
  2  3  1  0  0  0
  2 25  1  0  0  0
  2 86  1  0  0  0
  2 87  1  0  0  0
  3  4  1  0  0  0
  3 88  1  0  0  0
  3 89  1  0  0  0
  4  5  1  0  0  0
  4 90  1  0  0  0
  4 91  1  0  0  0
  5  6  1  0  0  0
  5 26  1  0  0  0
  5 92  1  0  0  0
  6 25  1  0  0  0
  6 93  1  0  0  0
  6 94  1  0  0  0
  7  8  2  0  0  0
  7 26  1  0  0  0
  7 29  1  0  0  0
  8  9  1  0  0  0
  8 22  1  0  0  0
  9 10  1  0  0  0
  9 27  2  0  0  0
 10 11  2  0  0  0
 10 15  1  0  0  0
 11 12  1  0  0  0
 11 95  1  0  0  0
 12 13  2  0  0  0
 12 96  1  0  0  0
 13 14  1  0  0  0
 13 31  1  0  0  0
 14 15  2  0  0  0
 14 97  1  0  0  0
 15 98  1  0  0  0
 16 17  2  0  0  0
 16 21  1  0  0  0
 16 31  1  0  0  0
 17 18  1  0  0  0
 17 99  1  0  0  0
 18 19  2  0  0  0
 18100  1  0  0  0
 19 20  1  0  0  0
 19 24  1  0  0  0
 20 21  2  0  0  0
 20101  1  0  0  0
 21 23  1  0  0  0
 22 28  1  0  0  0
 22 32  2  0  0  0
 26 27  1  0  0  0
 28102  1  0  0  0
 28103  1  0  0  0
 29104  1  0  0  0
 29105  1  0  0  0
 33 34  1  0  0  0
 33 66  1  0  0  0
 33 70  2  0  0  0
 34 36  1  0  0  0
 34 59  1  0  0  0
 34106  1  0  0  0
 35 44  2  0  0  0
 35 45  1  0  0  0
 35 68  1  0  0  0
 36 56  1  0  0  0
 36107  1  0  0  0
 37 39  1  0  0  0
 37 47  1  0  0  0
 37 66  1  0  0  0
 37108  1  0  0  0
 38 43  2  0  0  0
 38 46  1  0  0  0
 38 47  1  0  0  0
 39 64  1  0  0  0
 39 67  2  0  0  0
 40 52  1  0  0  0
 40 53  2  0  0  0
 40 58  1  0  0  0
 41109  1  0  0  0
 41110  1  0  0  0
 41111  1  0  0  0
 41 48  1  0  0  0
 42 43  1  0  0  0
 42 66  1  0  0  0
 42112  1  0  0  0
 42113  1  0  0  0
 43 44  1  0  0  0
 44114  1  0  0  0
 45 46  2  0  0  0
 45115  1  0  0  0
 46116  1  0  0  0
 47117  1  0  0  0
 47118  1  0  0  0
 48 56  1  0  0  0
 48 65  1  0  0  0
 48119  1  0  0  0
 49 50  1  0  0  0
 49 53  1  0  0  0
 49 64  1  0  0  0
 49120  1  0  0  0
 50 51  1  0  0  0
 50121  1  0  0  0
 50122  1  0  0  0
 51 52  1  0  0  0
 51123  1  0  0  0
 51124  1  0  0  0
 52125  1  0  0  0
 52126  1  0  0  0
 53 54  1  0  0  0
 54 55  2  0  0  0
 54127  1  0  0  0
 55 57  1  0  0  0
 55128  1  0  0  0
 56 69  2  0  0  0
 57 58  2  0  0  0
 57129  1  0  0  0
 58130  1  0  0  0
 59 60  1  0  0  0
 59 61  1  0  0  0
 59 62  1  0  0  0
 60131  1  0  0  0
 60132  1  0  0  0
 60133  1  0  0  0
 61134  1  0  0  0
 61135  1  0  0  0
 61136  1  0  0  0
 62137  1  0  0  0
 62138  1  0  0  0
 62139  1  0  0  0
 63 65  1  0  0  0
 63140  1  0  0  0
 63141  1  0  0  0
 63142  1  0  0  0
 64143  1  0  0  0
 65144  1  0  0  0
 68 78  1  0  0  0
 71 72  2  0  0  0
 71 74  1  0  0  0
 71145  1  0  0  0
 72 73  1  0  0  0
 72 84  1  0  0  0
 73 75  2  0  0  0
 73 85  1  0  0  0
 74 80  2  0  0  0
 74 81  1  0  0  0
 75 80  1  0  0  0
 75 82  1  0  0  0
 76 78  1  0  0  0
 76 79  1  0  0  0
 76 83  2  0  0  0
 77146  1  0  0  0
 77147  1  0  0  0
 77148  1  0  0  0
 77 79  1  0  0  0
 78149  1  0  0  0
 78150  1  0  0  0
 79 82  1  0  0  0
 79151  1  0  0  0
 81152  1  0  0  0
 82153  1  0  0  0
M  ISO  4   1 100  68 101  78 101  81 100
M  END
> <chiral flag>
0

> <version>
0

> <s_m_source_file>
/data/baiqing/PycharmProjects/Reinvent-master-3.2/result/LINK_invent/BTK/process_docking_weight1_custom_product_contain_oxygen_bond_distance_aromatic_linkinvent_7_9_3/rearranged_h_0181.sdf

> <i_m_source_file_index>
42

> <r_mmod_Potential_Energy-OPLS-2005>
122.713569641113

> <r_mmod_Stretch_Energy-OPLS-2005>
144.690368652344

> <r_mmod_Bend_Energy-OPLS-2005>
194.317474365234

> <r_mmod_Torsional_Energy-OPLS-2005>
249.315460205078

> <r_mmod_Improper_Torsional_Energy-OPLS-2005>
6.5766429901123

> <r_mmod_Van_der_Waal_Energy-OPLS-2005>
141.548843383789

> <r_mmod_Electrostatic_Energy-OPLS-2005>
-456.860626220703

> <r_mmod_Solvation_Energy-OPLS-2005>
-248.202178955078

> <b_mmod_Minimization_Converged-OPLS-2005>
0

> <r_mmod_RMS_Derivative-OPLS-2005>
3.91496348381042

$$$$
42
                    3D
 Structure written by MMmdl.
159167  0  0  1  0            999 V2000
  -30.6360  -14.7376   20.4140 C   0  0  0  0  0  0
  -30.4243  -12.4402   19.4717 C   0  0  0  0  0  0
  -29.5070  -12.4947   18.2319 C   0  0  0  0  0  0
  -28.0332  -12.3316   18.6457 C   0  0  0  0  0  0
  -27.6411  -13.2352   19.8464 C   0  0  2  0  0  0
  -28.6888  -13.1838   20.9799 C   0  0  0  0  0  0
  -25.2538  -13.8197   20.5723 C   0  0  0  0  0  0
  -24.1835  -13.0437   20.9222 C   0  0  0  0  0  0
  -24.6420  -11.6913   20.8738 C   0  0  0  0  0  0
  -23.9089  -10.4283   21.0393 C   0  0  0  0  0  0
  -24.3647   -9.4207   21.9177 C   0  0  0  0  0  0
  -23.6312   -8.2249   22.0748 C   0  0  0  0  0  0
  -22.4286   -8.0290   21.3545 C   0  0  0  0  0  0
  -21.9923   -9.0258   20.4639 C   0  0  0  0  0  0
  -22.7257  -10.2132   20.3041 C   0  0  0  0  0  0
  -21.6865   -6.0735   22.5278 C   0  0  0  0  0  0
  -21.4016   -6.5644   23.8207 C   0  0  0  0  0  0
  -21.3663   -5.6798   24.9175 C   0  0  0  0  0  0
  -21.6047   -4.3057   24.7230 C   0  0  0  0  0  0
  -21.8823   -3.8155   23.4349 C   0  0  0  0  0  0
  -21.9199   -4.6967   22.3409 C   0  0  0  0  0  0
  -22.7854  -13.5207   21.1865 C   0  0  0  0  0  0
  -22.1669   -4.2161   21.0980 F   0  0  0  0  0  0
  -21.5632   -3.4532   25.7740 F   0  0  0  0  0  0
  -29.9895  -13.5210   20.3903 N   0  0  0  0  0  0
  -26.2951  -12.9409   20.3282 N   0  0  0  0  0  0
  -25.9359  -11.6548   20.5755 N   0  0  0  0  0  0
  -22.0516  -12.8187   22.0425 N   0  0  0  0  0  0
  -25.4233  -15.1924   20.4176 N   0  0  0  0  0  0
  -31.8440  -14.7676   20.1570 O   0  0  0  0  0  0
  -21.6662   -6.8879   21.4238 O   0  0  0  0  0  0
  -22.3536  -14.5515   20.6715 O   0  0  0  0  0  0
  -24.6326  -31.8555   23.2015 C   0  0  0  0  0  0
  -25.9145  -32.4766   23.8355 C   0  0  1  0  0  0
  -27.2115  -27.2476   20.1268 C   0  0  0  0  0  0
  -25.5929  -33.8568   24.2270 N   0  0  0  0  0  0
  -23.4296  -30.4800   21.5450 C   0  0  2  0  0  0
  -24.8763  -28.9318   20.1103 C   0  0  0  0  0  0
  -22.7506  -29.4605   22.4916 C   0  0  0  0  0  0
  -18.0298  -28.1388   22.8508 C   0  0  0  0  0  0
  -24.1484  -36.7287   23.2639 C   0  0  0  0  0  0
  -25.9787  -30.7624   21.3866 C   0  0  0  0  0  0
  -26.0502  -29.3856   20.7259 C   0  0  0  0  0  0
  -27.2185  -28.5539   20.7297 C   0  0  0  0  0  0
  -26.0150  -26.8790   19.4652 C   0  0  0  0  0  0
  -24.8646  -27.6867   19.4706 C   0  0  0  0  0  0
  -23.6479  -29.8197   20.1597 C   0  0  0  0  0  0
  -25.4114  -36.3082   24.0335 C   0  0  1  0  0  0
  -20.5905  -28.3697   23.1279 C   0  0  2  0  0  0
  -20.6781  -26.9408   22.5417 C   0  0  0  0  0  0
  -19.5746  -26.6380   21.5235 C   0  0  0  0  0  0
  -18.1929  -26.7930   22.1646 C   0  0  0  0  0  0
  -19.1551  -28.8864   23.2886 C   0  0  0  0  0  0
  -18.9457  -30.1471   23.8900 C   0  0  0  0  0  0
  -17.6453  -30.6586   24.0569 C   0  0  0  0  0  0
  -25.9060  -34.9448   23.5113 C   0  0  0  0  0  0
  -16.5349  -29.9086   23.6331 C   0  0  0  0  0  0
  -16.7283  -28.6499   23.0360 C   0  0  0  0  0  0
  -26.4491  -31.6595   25.0749 C   0  0  0  0  0  0
  -25.3684  -31.3757   26.1444 C   0  0  0  0  0  0
  -27.0346  -30.3004   24.6272 C   0  0  0  0  0  0
  -27.6053  -32.4332   25.7517 C   0  0  0  0  0  0
  -27.5586  -37.1800   24.8468 C   0  0  0  0  0  0
  -21.4206  -29.3045   22.3662 N   0  0  0  0  0  0
  -26.4296  -37.3780   23.9409 N   0  0  0  0  0  0
  -24.6997  -31.0509   22.1007 N   0  0  0  0  0  0
  -23.4195  -28.8124   23.3006 O   0  0  0  0  0  0
  -28.2806  -26.3169   20.2027 O   0  0  0  0  0  0
  -26.5640  -34.8927   22.4687 O   0  0  0  0  0  0
  -23.5469  -32.1402   23.7293 O   0  0  0  0  0  0
  -30.8837  -17.2159   18.6941 C   0  0  0  0  0  0
  -30.7239  -19.6174   18.4758 C   0  0  0  0  0  0
  -31.1820  -18.3882   18.0009 C   0  0  0  0  0  0
  -30.1523  -17.2526   19.8978 C   0  0  0  0  0  0
  -29.9370  -19.7116   19.6379 C   0  0  0  0  0  0
  -28.9160  -23.6722   20.3602 C   0  0  0  0  0  0
  -28.1634  -23.0641   16.3588 C   0  0  0  0  0  0
  -27.9777  -24.8766   19.8580 C   0  0  0  0  0  0
  -29.1171  -22.3432   19.4345 C   0  0  1  0  0  0
  -29.4342  -22.3203   16.8087 C   0  0  0  0  0  0
  -29.9892  -22.7843   18.1951 C   0  0  0  0  0  0
  -29.6790  -18.5139   20.3265 N   0  0  0  0  0  0
  -29.8987  -15.9193   20.5231 N   0  0  0  0  0  0
  -29.4923  -21.0129   20.1398 N   0  0  0  0  0  0
  -29.4606  -23.7619   21.4646 O   0  0  0  0  0  0
  -31.9193  -18.3342   16.8658 F   0  0  0  0  0  0
  -29.0981  -21.0331   16.7846 F   0  0  0  0  0  0
  -30.3643  -22.5351   15.8770 F   0  0  0  0  0  0
  -31.2680  -22.4786   18.4181 F   0  0  0  0  0  0
  -30.0171  -24.1139   18.0550 F   0  0  0  0  0  0
  -31.4683  -12.5357   19.1678 H   0  0  0  0  0  0
  -30.3467  -11.4678   19.9611 H   0  0  0  0  0  0
  -29.7811  -11.7113   17.5230 H   0  0  0  0  0  0
  -29.6480  -13.4424   17.7097 H   0  0  0  0  0  0
  -27.8813  -11.2840   18.9090 H   0  0  0  0  0  0
  -27.3796  -12.5256   17.7953 H   0  0  0  0  0  0
  -27.6293  -14.2561   19.4649 H   0  0  0  0  0  0
  -28.7262  -12.1902   21.4305 H   0  0  0  0  0  0
  -28.4285  -13.8782   21.7799 H   0  0  0  0  0  0
  -25.2787   -9.5700   22.4745 H   0  0  0  0  0  0
  -24.0044   -7.4639   22.7454 H   0  0  0  0  0  0
  -21.0857   -8.8756   19.8939 H   0  0  0  0  0  0
  -22.3695  -10.9678   19.6153 H   0  0  0  0  0  0
  -21.1995   -7.6140   23.9709 H   0  0  0  0  0  0
  -21.1484   -6.0523   25.9072 H   0  0  0  0  0  0
  -22.0597   -2.7618   23.2846 H   0  0  0  0  0  0
  -22.4159  -11.9861   22.4814 H   0  0  0  0  0  0
  -21.1114  -13.1170   22.2604 H   0  0  0  0  0  0
  -24.6573  -15.8457   20.5368 H   0  0  0  0  0  0
  -26.2652  -15.6338   20.0716 H   0  0  0  0  0  0
  -26.7214  -32.5399   23.1097 H   0  0  0  0  0  0
  -25.0026  -33.9709   25.0380 H   0  0  0  0  0  0
  -22.7272  -31.3035   21.4014 H   0  0  0  0  0  0
  -23.3764  -35.9603   23.3305 H   0  0  0  0  0  0
  -24.3566  -36.8906   22.2053 H   0  0  0  0  0  0
  -23.7222  -37.6484   23.6660 H   0  0  0  0  0  0
  -26.1225  -31.5203   20.6163 H   0  0  0  0  0  0
  -26.8552  -30.8084   22.0205 H   0  0  0  0  0  0
  -28.1097  -28.8892   21.2419 H   0  0  0  0  0  0
  -25.9188  -25.9370   18.9488 H   0  0  0  0  0  0
  -23.9676  -27.3340   18.9802 H   0  0  0  0  0  0
  -23.7721  -30.5990   19.4073 H   0  0  0  0  0  0
  -22.7657  -29.2548   19.8537 H   0  0  0  0  0  0
  -25.1294  -36.1945   25.0835 H   0  0  0  0  0  0
  -21.0011  -28.3273   24.1398 H   0  0  0  0  0  0
  -20.5687  -26.2300   23.3620 H   0  0  0  0  0  0
  -21.6637  -26.7424   22.1192 H   0  0  0  0  0  0
  -19.6888  -25.6292   21.1261 H   0  0  0  0  0  0
  -19.6684  -27.3198   20.6770 H   0  0  0  0  0  0
  -17.4193  -26.6710   21.4049 H   0  0  0  0  0  0
  -18.0308  -26.0069   22.9032 H   0  0  0  0  0  0
  -19.7928  -30.7302   24.2247 H   0  0  0  0  0  0
  -17.4997  -31.6262   24.5165 H   0  0  0  0  0  0
  -15.5347  -30.2975   23.7652 H   0  0  0  0  0  0
  -15.8682  -28.0813   22.7074 H   0  0  0  0  0  0
  -24.5862  -30.7124   25.7738 H   0  0  0  0  0  0
  -24.8868  -32.2928   26.4847 H   0  0  0  0  0  0
  -25.7949  -30.8918   27.0235 H   0  0  0  0  0  0
  -26.2953  -29.6749   24.1254 H   0  0  0  0  0  0
  -27.3957  -29.7283   25.4829 H   0  0  0  0  0  0
  -27.8862  -30.4273   23.9587 H   0  0  0  0  0  0
  -27.2679  -33.3638   26.2096 H   0  0  0  0  0  0
  -28.3858  -32.6878   25.0334 H   0  0  0  0  0  0
  -28.0730  -31.8448   26.5423 H   0  0  0  0  0  0
  -28.2602  -38.0097   24.7514 H   0  0  0  0  0  0
  -28.1084  -36.2630   24.6293 H   0  0  0  0  0  0
  -27.2300  -37.1448   25.8868 H   0  0  0  0  0  0
  -20.9387  -29.8769   21.6873 H   0  0  0  0  0  0
  -26.0187  -38.2862   24.1395 H   0  0  0  0  0  0
  -31.2441  -16.2912   18.2693 H   0  0  0  0  0  0
  -31.0309  -20.4455   17.8769 H   0  0  0  0  0  0
  -27.3397  -22.9028   17.0515 H   0  0  0  0  0  0
  -27.8359  -22.7061   15.3823 H   0  0  0  0  0  0
  -28.3208  -24.1392   16.2684 H   0  0  0  0  0  0
  -27.0043  -24.6316   20.2852 H   0  0  0  0  0  0
  -27.8620  -24.7956   18.7788 H   0  0  0  0  0  0
  -28.1220  -22.1389   19.0408 H   0  0  0  0  0  0
  -28.9855  -15.8121   20.9340 H   0  0  0  0  0  0
  -29.1146  -20.9820   21.0790 H   0  0  0  0  0  0
  1 25  1  0  0  0
  1 30  2  0  0  0
  1 83  1  0  0  0
  2  3  1  0  0  0
  2 25  1  0  0  0
  2 91  1  0  0  0
  2 92  1  0  0  0
  3  4  1  0  0  0
  3 93  1  0  0  0
  3 94  1  0  0  0
  4  5  1  0  0  0
  4 95  1  0  0  0
  4 96  1  0  0  0
  5  6  1  0  0  0
  5 26  1  0  0  0
  5 97  1  0  0  0
  6 25  1  0  0  0
  6 98  1  0  0  0
  6 99  1  0  0  0
  7  8  2  0  0  0
  7 26  1  0  0  0
  7 29  1  0  0  0
  8  9  1  0  0  0
  8 22  1  0  0  0
  9 10  1  0  0  0
  9 27  2  0  0  0
 10 11  2  0  0  0
 10 15  1  0  0  0
 11 12  1  0  0  0
 11100  1  0  0  0
 12 13  2  0  0  0
 12101  1  0  0  0
 13 14  1  0  0  0
 13 31  1  0  0  0
 14 15  2  0  0  0
 14102  1  0  0  0
 15103  1  0  0  0
 16 17  2  0  0  0
 16 21  1  0  0  0
 16 31  1  0  0  0
 17 18  1  0  0  0
 17104  1  0  0  0
 18 19  2  0  0  0
 18105  1  0  0  0
 19 20  1  0  0  0
 19 24  1  0  0  0
 20 21  2  0  0  0
 20106  1  0  0  0
 21 23  1  0  0  0
 22 28  1  0  0  0
 22 32  2  0  0  0
 26 27  1  0  0  0
 28107  1  0  0  0
 28108  1  0  0  0
 29109  1  0  0  0
 29110  1  0  0  0
 33 34  1  0  0  0
 33 66  1  0  0  0
 33 70  2  0  0  0
 34 36  1  0  0  0
 34 59  1  0  0  0
 34111  1  0  0  0
 35 44  2  0  0  0
 35 45  1  0  0  0
 35 68  1  0  0  0
 36 56  1  0  0  0
 36112  1  0  0  0
 37 39  1  0  0  0
 37 47  1  0  0  0
 37 66  1  0  0  0
 37113  1  0  0  0
 38 43  2  0  0  0
 38 46  1  0  0  0
 38 47  1  0  0  0
 39 64  1  0  0  0
 39 67  2  0  0  0
 40 52  1  0  0  0
 40 53  2  0  0  0
 40 58  1  0  0  0
 41114  1  0  0  0
 41115  1  0  0  0
 41116  1  0  0  0
 41 48  1  0  0  0
 42 43  1  0  0  0
 42 66  1  0  0  0
 42117  1  0  0  0
 42118  1  0  0  0
 43 44  1  0  0  0
 44119  1  0  0  0
 45 46  2  0  0  0
 45120  1  0  0  0
 46121  1  0  0  0
 47122  1  0  0  0
 47123  1  0  0  0
 48 56  1  0  0  0
 48 65  1  0  0  0
 48124  1  0  0  0
 49 50  1  0  0  0
 49 53  1  0  0  0
 49 64  1  0  0  0
 49125  1  0  0  0
 50 51  1  0  0  0
 50126  1  0  0  0
 50127  1  0  0  0
 51 52  1  0  0  0
 51128  1  0  0  0
 51129  1  0  0  0
 52130  1  0  0  0
 52131  1  0  0  0
 53 54  1  0  0  0
 54 55  2  0  0  0
 54132  1  0  0  0
 55 57  1  0  0  0
 55133  1  0  0  0
 56 69  2  0  0  0
 57 58  2  0  0  0
 57134  1  0  0  0
 58135  1  0  0  0
 59 60  1  0  0  0
 59 61  1  0  0  0
 59 62  1  0  0  0
 60136  1  0  0  0
 60137  1  0  0  0
 60138  1  0  0  0
 61139  1  0  0  0
 61140  1  0  0  0
 61141  1  0  0  0
 62142  1  0  0  0
 62143  1  0  0  0
 62144  1  0  0  0
 63 65  1  0  0  0
 63145  1  0  0  0
 63146  1  0  0  0
 63147  1  0  0  0
 64148  1  0  0  0
 65149  1  0  0  0
 68 78  1  0  0  0
 71 73  2  0  0  0
 71 74  1  0  0  0
 71150  1  0  0  0
 72 73  1  0  0  0
 72 75  2  0  0  0
 72151  1  0  0  0
 73 86  1  0  0  0
 74 82  2  0  0  0
 74 83  1  0  0  0
 75 82  1  0  0  0
 75 84  1  0  0  0
 76 78  1  0  0  0
 76 79  1  0  0  0
 76 85  2  0  0  0
 77152  1  0  0  0
 77153  1  0  0  0
 77154  1  0  0  0
 77 80  1  0  0  0
 78155  1  0  0  0
 78156  1  0  0  0
 79 81  1  0  0  0
 79 84  1  0  0  0
 79157  1  0  0  0
 80 81  1  0  0  0
 80 87  1  0  0  0
 80 88  1  0  0  0
 81 89  1  0  0  0
 81 90  1  0  0  0
 83158  1  0  0  0
 84159  1  0  0  0
M  ISO  4   1 100  68 101  78 101  83 100
M  END
> <chiral flag>
0

> <version>
0

> <s_m_source_file>
/data/baiqing/PycharmProjects/Reinvent-master-3.2/result/LINK_invent/BTK/process_docking_weight1_custom_product_contain_oxygen_bond_distance_aromatic_linkinvent_7_9_3/rearranged_h_0181.sdf

> <i_m_source_file_index>
43

> <r_mmod_Potential_Energy-OPLS-2005>
10.8640556335449

> <r_mmod_Stretch_Energy-OPLS-2005>
153.859649658203

> <r_mmod_Bend_Energy-OPLS-2005>
208.806594848633

> <r_mmod_Torsional_Energy-OPLS-2005>
218.309371948242

> <r_mmod_Improper_Torsional_Energy-OPLS-2005>
6.22848129272461

> <r_mmod_Van_der_Waal_Energy-OPLS-2005>
173.504058837891

> <r_mmod_Electrostatic_Energy-OPLS-2005>
-595.908996582031

> <r_mmod_Solvation_Energy-OPLS-2005>
-246.67448425293

> <b_mmod_Minimization_Converged-OPLS-2005>
0

> <r_mmod_RMS_Derivative-OPLS-2005>
2.17248153686523

$$$$
43
                    3D
 Structure written by MMmdl.
152160  0  0  1  0            999 V2000
  -30.6744  -14.5643   20.4885 C   0  0  0  0  0  0
  -30.4242  -12.3417   19.4492 C   0  0  0  0  0  0
  -29.4997  -12.4956   18.2219 C   0  0  0  0  0  0
  -28.0225  -12.3498   18.6343 C   0  0  0  0  0  0
  -27.6560  -13.2172   19.8686 C   0  0  2  0  0  0
  -28.7017  -13.0666   20.9992 C   0  0  0  0  0  0
  -25.2562  -13.8186   20.5699 C   0  0  0  0  0  0
  -24.1829  -13.0448   20.9196 C   0  0  0  0  0  0
  -24.6402  -11.6913   20.8759 C   0  0  0  0  0  0
  -23.9074  -10.4294   21.0415 C   0  0  0  0  0  0
  -24.3621   -9.4209   21.9196 C   0  0  0  0  0  0
  -23.6288   -8.2249   22.0766 C   0  0  0  0  0  0
  -22.4274   -8.0287   21.3548 C   0  0  0  0  0  0
  -21.9918   -9.0266   20.4650 C   0  0  0  0  0  0
  -22.7252  -10.2141   20.3059 C   0  0  0  0  0  0
  -21.6851   -6.0738   22.5274 C   0  0  0  0  0  0
  -21.4015   -6.5639   23.8210 C   0  0  0  0  0  0
  -21.3661   -5.6793   24.9174 C   0  0  0  0  0  0
  -21.6044   -4.3055   24.7223 C   0  0  0  0  0  0
  -21.8819   -3.8145   23.4344 C   0  0  0  0  0  0
  -21.9196   -4.6965   22.3401 C   0  0  0  0  0  0
  -22.7846  -13.5236   21.1843 C   0  0  0  0  0  0
  -22.1661   -4.2150   21.0980 F   0  0  0  0  0  0
  -21.5629   -3.4539   25.7736 F   0  0  0  0  0  0
  -30.0258  -13.3647   20.4332 N   0  0  0  0  0  0
  -26.3004  -12.9375   20.3357 N   0  0  0  0  0  0
  -25.9338  -11.6525   20.5792 N   0  0  0  0  0  0
  -22.0475  -12.8227   22.0383 N   0  0  0  0  0  0
  -25.4252  -15.1913   20.4104 N   0  0  0  0  0  0
  -31.8375  -14.6965   20.1008 O   0  0  0  0  0  0
  -21.6635   -6.8885   21.4238 O   0  0  0  0  0  0
  -22.3539  -14.5551   20.6698 O   0  0  0  0  0  0
  -24.6203  -31.8652   23.2068 C   0  0  0  0  0  0
  -25.9076  -32.4811   23.8376 C   0  0  1  0  0  0
  -27.2292  -27.3714   20.1086 C   0  0  0  0  0  0
  -25.5910  -33.8608   24.2306 N   0  0  0  0  0  0
  -23.4116  -30.4888   21.5495 C   0  0  2  0  0  0
  -24.8580  -28.9522   20.1121 C   0  0  0  0  0  0
  -22.7448  -29.4644   22.4968 C   0  0  0  0  0  0
  -18.0281  -28.1380   22.8500 C   0  0  0  0  0  0
  -24.1481  -36.7302   23.2637 C   0  0  0  0  0  0
  -25.9478  -30.8110   21.3717 C   0  0  0  0  0  0
  -26.0230  -29.4426   20.7146 C   0  0  0  0  0  0
  -27.2103  -28.6615   20.7079 C   0  0  0  0  0  0
  -26.0431  -26.9242   19.4777 C   0  0  0  0  0  0
  -24.8670  -27.6957   19.4879 C   0  0  0  0  0  0
  -23.6227  -29.8244   20.1643 C   0  0  0  0  0  0
  -25.4109  -36.3105   24.0332 C   0  0  1  0  0  0
  -20.5876  -28.3687   23.1303 C   0  0  2  0  0  0
  -20.6770  -26.9417   22.5417 C   0  0  0  0  0  0
  -19.5746  -26.6390   21.5217 C   0  0  0  0  0  0
  -18.1925  -26.7929   22.1622 C   0  0  0  0  0  0
  -19.1532  -28.8849   23.2895 C   0  0  0  0  0  0
  -18.9455  -30.1447   23.8915 C   0  0  0  0  0  0
  -17.6459  -30.6591   24.0560 C   0  0  0  0  0  0
  -25.9046  -34.9473   23.5121 C   0  0  0  0  0  0
  -16.5350  -29.9093   23.6324 C   0  0  0  0  0  0
  -16.7268  -28.6499   23.0367 C   0  0  0  0  0  0
  -26.4479  -31.6607   25.0726 C   0  0  0  0  0  0
  -25.3716  -31.3721   26.1452 C   0  0  0  0  0  0
  -27.0327  -30.3042   24.6150 C   0  0  0  0  0  0
  -27.6037  -32.4341   25.7507 C   0  0  0  0  0  0
  -27.5591  -37.1797   24.8452 C   0  0  0  0  0  0
  -21.4169  -29.3040   22.3704 N   0  0  0  0  0  0
  -26.4288  -37.3804   23.9420 N   0  0  0  0  0  0
  -24.6785  -31.0701   22.1003 N   0  0  0  0  0  0
  -23.4192  -28.8186   23.3029 O   0  0  0  0  0  0
  -28.3692  -26.5702   20.1657 O   0  0  0  0  0  0
  -26.5620  -34.8938   22.4690 O   0  0  0  0  0  0
  -23.5377  -32.1430   23.7423 O   0  0  0  0  0  0
  -30.1199  -18.2244   21.0798 C   0  0  0  0  0  0
  -30.4822  -18.2596   22.4095 C   0  0  0  0  0  0
  -29.9091  -20.5018   21.5000 C   0  0  0  0  0  0
  -29.2458  -24.2164   20.6077 C   0  0  0  0  0  0
  -29.1993  -22.6581   20.3044 C   0  0  0  0  0  0
  -30.9284  -17.1263   23.2778 C   0  0  0  0  0  0
  -30.1217  -17.0087   20.1458 C   0  0  0  0  0  0
  -28.1998  -25.1366   19.9098 C   0  0  0  0  0  0
  -29.7902  -19.5176   20.5818 N   0  0  0  0  0  0
  -29.7194  -21.9168   21.3115 N   0  0  0  0  0  0
  -29.8994  -15.6518   20.7236 N   0  0  0  0  0  0
  -30.0731  -24.6880   21.4005 O   0  0  0  0  0  0
  -28.7340  -22.1985   19.2552 O   0  0  0  0  0  0
  -30.4212  -19.8825   23.0631 S   0  0  0  0  0  0
  -31.4699  -12.4320   19.1476 H   0  0  0  0  0  0
  -30.3240  -11.3462   19.8834 H   0  0  0  0  0  0
  -29.7484  -11.7498   17.4664 H   0  0  0  0  0  0
  -29.6582  -13.4696   17.7561 H   0  0  0  0  0  0
  -27.8440  -11.2970   18.8557 H   0  0  0  0  0  0
  -27.3701  -12.5945   17.7954 H   0  0  0  0  0  0
  -27.6784  -14.2543   19.5320 H   0  0  0  0  0  0
  -28.6897  -12.0530   21.4020 H   0  0  0  0  0  0
  -28.4669  -13.7246   21.8378 H   0  0  0  0  0  0
  -25.2769   -9.5684   22.4770 H   0  0  0  0  0  0
  -23.9990   -7.4644   22.7496 H   0  0  0  0  0  0
  -21.0853   -8.8804   19.8948 H   0  0  0  0  0  0
  -22.3728  -10.9688   19.6168 H   0  0  0  0  0  0
  -21.2007   -7.6150   23.9713 H   0  0  0  0  0  0
  -21.1479   -6.0523   25.9078 H   0  0  0  0  0  0
  -22.0597   -2.7603   23.2844 H   0  0  0  0  0  0
  -22.4074  -11.9881   22.4774 H   0  0  0  0  0  0
  -21.1095  -13.1258   22.2588 H   0  0  0  0  0  0
  -24.6552  -15.8418   20.5231 H   0  0  0  0  0  0
  -26.2709  -15.6340   20.0747 H   0  0  0  0  0  0
  -26.7147  -32.5507   23.1135 H   0  0  0  0  0  0
  -25.0044  -33.9759   25.0442 H   0  0  0  0  0  0
  -22.7030  -31.3077   21.4095 H   0  0  0  0  0  0
  -23.3771  -35.9605   23.3266 H   0  0  0  0  0  0
  -24.3581  -36.8959   22.2057 H   0  0  0  0  0  0
  -23.7196  -37.6478   23.6679 H   0  0  0  0  0  0
  -26.0719  -31.5774   20.6048 H   0  0  0  0  0  0
  -26.8307  -30.8606   21.9973 H   0  0  0  0  0  0
  -28.1052  -29.0322   21.1887 H   0  0  0  0  0  0
  -25.9957  -25.9709   18.9723 H   0  0  0  0  0  0
  -23.9747  -27.3161   19.0096 H   0  0  0  0  0  0
  -23.7341  -30.6003   19.4063 H   0  0  0  0  0  0
  -22.7443  -29.2484   19.8676 H   0  0  0  0  0  0
  -25.1281  -36.1964   25.0823 H   0  0  0  0  0  0
  -20.9962  -28.3256   24.1422 H   0  0  0  0  0  0
  -20.5688  -26.2290   23.3612 H   0  0  0  0  0  0
  -21.6642  -26.7460   22.1206 H   0  0  0  0  0  0
  -19.6913  -25.6306   21.1239 H   0  0  0  0  0  0
  -19.6681  -27.3206   20.6752 H   0  0  0  0  0  0
  -17.4201  -26.6700   21.4015 H   0  0  0  0  0  0
  -18.0302  -26.0058   22.8998 H   0  0  0  0  0  0
  -19.7931  -30.7251   24.2305 H   0  0  0  0  0  0
  -17.5016  -31.6278   24.5158 H   0  0  0  0  0  0
  -15.5352  -30.3003   23.7636 H   0  0  0  0  0  0
  -15.8664  -28.0813   22.7096 H   0  0  0  0  0  0
  -24.5883  -30.7091   25.7767 H   0  0  0  0  0  0
  -24.8916  -32.2878   26.4911 H   0  0  0  0  0  0
  -25.8032  -30.8864   27.0210 H   0  0  0  0  0  0
  -26.2898  -29.6801   24.1168 H   0  0  0  0  0  0
  -27.4037  -29.7285   25.4641 H   0  0  0  0  0  0
  -27.8759  -30.4353   23.9364 H   0  0  0  0  0  0
  -27.2645  -33.3631   26.2107 H   0  0  0  0  0  0
  -28.3844  -32.6923   25.0339 H   0  0  0  0  0  0
  -28.0716  -31.8456   26.5411 H   0  0  0  0  0  0
  -28.2564  -38.0142   24.7590 H   0  0  0  0  0  0
  -28.1131  -36.2678   24.6165 H   0  0  0  0  0  0
  -27.2318  -37.1317   25.8854 H   0  0  0  0  0  0
  -20.9344  -29.8747   21.6909 H   0  0  0  0  0  0
  -26.0170  -38.2871   24.1467 H   0  0  0  0  0  0
  -31.7300  -16.5617   22.8001 H   0  0  0  0  0  0
  -30.1044  -16.4414   23.4794 H   0  0  0  0  0  0
  -31.3057  -17.4820   24.2368 H   0  0  0  0  0  0
  -31.0508  -17.0206   19.5738 H   0  0  0  0  0  0
  -29.3427  -17.1433   19.3946 H   0  0  0  0  0  0
  -27.2305  -24.8009   20.2782 H   0  0  0  0  0  0
  -28.2230  -24.9565   18.8349 H   0  0  0  0  0  0
  -30.0231  -22.4909   22.0867 H   0  0  0  0  0  0
  -28.9674  -15.4676   21.0607 H   0  0  0  0  0  0
  1 25  1  0  0  0
  1 30  2  0  0  0
  1 81  1  0  0  0
  2  3  1  0  0  0
  2 25  1  0  0  0
  2 85  1  0  0  0
  2 86  1  0  0  0
  3  4  1  0  0  0
  3 87  1  0  0  0
  3 88  1  0  0  0
  4  5  1  0  0  0
  4 89  1  0  0  0
  4 90  1  0  0  0
  5  6  1  0  0  0
  5 26  1  0  0  0
  5 91  1  0  0  0
  6 25  1  0  0  0
  6 92  1  0  0  0
  6 93  1  0  0  0
  7  8  2  0  0  0
  7 26  1  0  0  0
  7 29  1  0  0  0
  8  9  1  0  0  0
  8 22  1  0  0  0
  9 10  1  0  0  0
  9 27  2  0  0  0
 10 11  2  0  0  0
 10 15  1  0  0  0
 11 12  1  0  0  0
 11 94  1  0  0  0
 12 13  2  0  0  0
 12 95  1  0  0  0
 13 14  1  0  0  0
 13 31  1  0  0  0
 14 15  2  0  0  0
 14 96  1  0  0  0
 15 97  1  0  0  0
 16 17  2  0  0  0
 16 21  1  0  0  0
 16 31  1  0  0  0
 17 18  1  0  0  0
 17 98  1  0  0  0
 18 19  2  0  0  0
 18 99  1  0  0  0
 19 20  1  0  0  0
 19 24  1  0  0  0
 20 21  2  0  0  0
 20100  1  0  0  0
 21 23  1  0  0  0
 22 28  1  0  0  0
 22 32  2  0  0  0
 26 27  1  0  0  0
 28101  1  0  0  0
 28102  1  0  0  0
 29103  1  0  0  0
 29104  1  0  0  0
 33 34  1  0  0  0
 33 66  1  0  0  0
 33 70  2  0  0  0
 34 36  1  0  0  0
 34 59  1  0  0  0
 34105  1  0  0  0
 35 44  2  0  0  0
 35 45  1  0  0  0
 35 68  1  0  0  0
 36 56  1  0  0  0
 36106  1  0  0  0
 37 39  1  0  0  0
 37 47  1  0  0  0
 37 66  1  0  0  0
 37107  1  0  0  0
 38 43  2  0  0  0
 38 46  1  0  0  0
 38 47  1  0  0  0
 39 64  1  0  0  0
 39 67  2  0  0  0
 40 52  1  0  0  0
 40 53  2  0  0  0
 40 58  1  0  0  0
 41108  1  0  0  0
 41109  1  0  0  0
 41110  1  0  0  0
 41 48  1  0  0  0
 42 43  1  0  0  0
 42 66  1  0  0  0
 42111  1  0  0  0
 42112  1  0  0  0
 43 44  1  0  0  0
 44113  1  0  0  0
 45 46  2  0  0  0
 45114  1  0  0  0
 46115  1  0  0  0
 47116  1  0  0  0
 47117  1  0  0  0
 48 56  1  0  0  0
 48 65  1  0  0  0
 48118  1  0  0  0
 49 50  1  0  0  0
 49 53  1  0  0  0
 49 64  1  0  0  0
 49119  1  0  0  0
 50 51  1  0  0  0
 50120  1  0  0  0
 50121  1  0  0  0
 51 52  1  0  0  0
 51122  1  0  0  0
 51123  1  0  0  0
 52124  1  0  0  0
 52125  1  0  0  0
 53 54  1  0  0  0
 54 55  2  0  0  0
 54126  1  0  0  0
 55 57  1  0  0  0
 55127  1  0  0  0
 56 69  2  0  0  0
 57 58  2  0  0  0
 57128  1  0  0  0
 58129  1  0  0  0
 59 60  1  0  0  0
 59 61  1  0  0  0
 59 62  1  0  0  0
 60130  1  0  0  0
 60131  1  0  0  0
 60132  1  0  0  0
 61133  1  0  0  0
 61134  1  0  0  0
 61135  1  0  0  0
 62136  1  0  0  0
 62137  1  0  0  0
 62138  1  0  0  0
 63 65  1  0  0  0
 63139  1  0  0  0
 63140  1  0  0  0
 63141  1  0  0  0
 64142  1  0  0  0
 65143  1  0  0  0
 68 78  1  0  0  0
 71 72  2  0  0  0
 71 77  1  0  0  0
 71 79  1  0  0  0
 72 76  1  0  0  0
 72 84  1  0  0  0
 73 79  2  0  0  0
 73 80  1  0  0  0
 73 84  1  0  0  0
 74 75  1  0  0  0
 74 78  1  0  0  0
 74 82  2  0  0  0
 75 80  1  0  0  0
 75 83  2  0  0  0
 76144  1  0  0  0
 76145  1  0  0  0
 76146  1  0  0  0
 77 81  1  0  0  0
 77147  1  0  0  0
 77148  1  0  0  0
 78149  1  0  0  0
 78150  1  0  0  0
 80151  1  0  0  0
 81152  1  0  0  0
M  ISO  4   1 100  68 101  78 101  81 100
M  END
> <chiral flag>
0

> <version>
0

> <s_m_source_file>
/data/baiqing/PycharmProjects/Reinvent-master-3.2/result/LINK_invent/BTK/process_docking_weight1_custom_product_contain_oxygen_bond_distance_aromatic_linkinvent_7_9_3/rearranged_h_0181.sdf

> <i_m_source_file_index>
44

> <r_mmod_Potential_Energy-OPLS-2005>
-158.499114990234

> <r_mmod_Stretch_Energy-OPLS-2005>
54.435977935791

> <r_mmod_Bend_Energy-OPLS-2005>
123.018623352051

> <r_mmod_Torsional_Energy-OPLS-2005>
204.484008789062

> <r_mmod_Improper_Torsional_Energy-OPLS-2005>
7.88254261016846

> <r_mmod_Van_der_Waal_Energy-OPLS-2005>
126.789535522461

> <r_mmod_Electrostatic_Energy-OPLS-2005>
-454.689727783203

> <r_mmod_Solvation_Energy-OPLS-2005>
-250.494018554688

> <b_mmod_Minimization_Converged-OPLS-2005>
0

> <r_mmod_RMS_Derivative-OPLS-2005>
1.0498526096344

$$$$
44
                    3D
 Structure written by MMmdl.
151159  0  0  1  0            999 V2000
  -30.6182  -14.6782   20.4327 C   0  0  0  0  0  0
  -30.4220  -12.3926   19.4936 C   0  0  0  0  0  0
  -29.5150  -12.4860   18.2470 C   0  0  0  0  0  0
  -28.0331  -12.3321   18.6416 C   0  0  0  0  0  0
  -27.6401  -13.2263   19.8478 C   0  0  2  0  0  0
  -28.6750  -13.1443   20.9865 C   0  0  0  0  0  0
  -25.2483  -13.8219   20.5644 C   0  0  0  0  0  0
  -24.1786  -13.0469   20.9213 C   0  0  0  0  0  0
  -24.6342  -11.6931   20.8730 C   0  0  0  0  0  0
  -23.9026  -10.4311   21.0403 C   0  0  0  0  0  0
  -24.3607   -9.4228   21.9173 C   0  0  0  0  0  0
  -23.6298   -8.2248   22.0744 C   0  0  0  0  0  0
  -22.4263   -8.0290   21.3555 C   0  0  0  0  0  0
  -21.9900   -9.0248   20.4645 C   0  0  0  0  0  0
  -22.7206  -10.2129   20.3065 C   0  0  0  0  0  0
  -21.6870   -6.0720   22.5270 C   0  0  0  0  0  0
  -21.4015   -6.5626   23.8202 C   0  0  0  0  0  0
  -21.3681   -5.6779   24.9169 C   0  0  0  0  0  0
  -21.6055   -4.3042   24.7222 C   0  0  0  0  0  0
  -21.8827   -3.8139   23.4344 C   0  0  0  0  0  0
  -21.9192   -4.6945   22.3395 C   0  0  0  0  0  0
  -22.7817  -13.5260   21.1885 C   0  0  0  0  0  0
  -22.1670   -4.2130   21.0970 F   0  0  0  0  0  0
  -21.5632   -3.4531   25.7742 F   0  0  0  0  0  0
  -29.9927  -13.4573   20.4260 N   0  0  0  0  0  0
  -26.2890  -12.9399   20.3220 N   0  0  0  0  0  0
  -25.9263  -11.6542   20.5697 N   0  0  0  0  0  0
  -22.0472  -12.8245   22.0470 N   0  0  0  0  0  0
  -25.4169  -15.1954   20.3984 N   0  0  0  0  0  0
  -31.8084  -14.7420   20.1073 O   0  0  0  0  0  0
  -21.6653   -6.8870   21.4237 O   0  0  0  0  0  0
  -22.3479  -14.5533   20.6682 O   0  0  0  0  0  0
  -24.6255  -31.8626   23.2044 C   0  0  0  0  0  0
  -25.9106  -32.4797   23.8375 C   0  0  1  0  0  0
  -27.2298  -27.3527   20.1184 C   0  0  0  0  0  0
  -25.5932  -33.8601   24.2321 N   0  0  0  0  0  0
  -23.4170  -30.4835   21.5474 C   0  0  2  0  0  0
  -24.8644  -28.9385   20.1098 C   0  0  0  0  0  0
  -22.7497  -29.4629   22.4976 C   0  0  0  0  0  0
  -18.0292  -28.1346   22.8485 C   0  0  0  0  0  0
  -24.1479  -36.7294   23.2637 C   0  0  0  0  0  0
  -25.9510  -30.8039   21.3658 C   0  0  0  0  0  0
  -26.0298  -29.4322   20.7107 C   0  0  0  0  0  0
  -27.2189  -28.6505   20.7051 C   0  0  0  0  0  0
  -26.0544  -26.9039   19.4865 C   0  0  0  0  0  0
  -24.8778  -27.6777   19.4894 C   0  0  0  0  0  0
  -23.6275  -29.8134   20.1617 C   0  0  0  0  0  0
  -25.4098  -36.3110   24.0350 C   0  0  1  0  0  0
  -20.5887  -28.3641   23.1328 C   0  0  2  0  0  0
  -20.6776  -26.9374   22.5422 C   0  0  0  0  0  0
  -19.5770  -26.6334   21.5216 C   0  0  0  0  0  0
  -18.1956  -26.7878   22.1628 C   0  0  0  0  0  0
  -19.1534  -28.8817   23.2883 C   0  0  0  0  0  0
  -18.9438  -30.1429   23.8887 C   0  0  0  0  0  0
  -17.6442  -30.6562   24.0538 C   0  0  0  0  0  0
  -25.9052  -34.9469   23.5134 C   0  0  0  0  0  0
  -16.5343  -29.9060   23.6311 C   0  0  0  0  0  0
  -16.7274  -28.6468   23.0347 C   0  0  0  0  0  0
  -26.4508  -31.6587   25.0709 C   0  0  0  0  0  0
  -25.3782  -31.3689   26.1460 C   0  0  0  0  0  0
  -27.0338  -30.3026   24.6092 C   0  0  0  0  0  0
  -27.6075  -32.4330   25.7474 C   0  0  0  0  0  0
  -27.5590  -37.1791   24.8460 C   0  0  0  0  0  0
  -21.4210  -29.3005   22.3708 N   0  0  0  0  0  0
  -26.4281  -37.3805   23.9427 N   0  0  0  0  0  0
  -24.6839  -31.0671   22.0974 N   0  0  0  0  0  0
  -23.4224  -28.8184   23.3061 O   0  0  0  0  0  0
  -28.3455  -26.5149   20.1348 O   0  0  0  0  0  0
  -26.5592  -34.8936   22.4693 O   0  0  0  0  0  0
  -23.5422  -32.1391   23.7386 O   0  0  0  0  0  0
  -27.6161  -20.4585   20.2050 C   0  0  0  0  0  0
  -28.1231  -19.1037   20.1539 C   0  0  0  0  0  0
  -28.5261  -21.4410   20.5387 C   0  0  0  0  0  0
  -29.4538  -18.9929   20.4870 C   0  0  0  0  0  0
  -28.7775  -23.9476   20.3377 C   0  0  0  0  0  0
  -27.1075  -25.1850   21.9439 C   0  0  0  0  0  0
  -28.3367  -25.3189   21.0113 C   0  0  2  0  0  0
  -28.2360  -22.7767   20.7922 N   0  0  0  0  0  0
  -29.8860  -15.8988   20.6622 N   0  0  0  0  0  0
  -29.6223  -23.9596   19.4389 O   0  0  0  0  0  0
  -31.3544  -17.6158   19.3395 O   0  0  0  0  0  0
  -31.3317  -17.7203   21.8716 O   0  0  0  0  0  0
  -30.0812  -20.6313   20.7952 S   0  0  0  0  0  0
  -30.6003  -17.5373   20.6063 S   0  0  0  0  0  0
  -31.4702  -12.4902   19.2005 H   0  0  0  0  0  0
  -30.3334  -11.4115   19.9656 H   0  0  0  0  0  0
  -29.7917  -11.7254   17.5133 H   0  0  0  0  0  0
  -29.6692  -13.4492   17.7601 H   0  0  0  0  0  0
  -27.8588  -11.2821   18.8780 H   0  0  0  0  0  0
  -27.3994  -12.5585   17.7843 H   0  0  0  0  0  0
  -27.6448  -14.2520   19.4782 H   0  0  0  0  0  0
  -28.6821  -12.1497   21.4417 H   0  0  0  0  0  0
  -28.4171  -13.8374   21.7884 H   0  0  0  0  0  0
  -25.2757   -9.5717   22.4725 H   0  0  0  0  0  0
  -24.0023   -7.4649   22.7452 H   0  0  0  0  0  0
  -21.0842   -8.8777   19.8946 H   0  0  0  0  0  0
  -22.3690  -10.9660   19.6172 H   0  0  0  0  0  0
  -21.2014   -7.6133   23.9720 H   0  0  0  0  0  0
  -21.1502   -6.0492   25.9067 H   0  0  0  0  0  0
  -22.0584   -2.7597   23.2852 H   0  0  0  0  0  0
  -22.4081  -11.9883   22.4824 H   0  0  0  0  0  0
  -21.1087  -13.1242   22.2684 H   0  0  0  0  0  0
  -24.6438  -15.8440   20.5070 H   0  0  0  0  0  0
  -26.2355  -15.6259   19.9908 H   0  0  0  0  0  0
  -26.7191  -32.5481   23.1154 H   0  0  0  0  0  0
  -25.0156  -33.9723   25.0522 H   0  0  0  0  0  0
  -22.7073  -31.3024   21.4093 H   0  0  0  0  0  0
  -23.3770  -35.9604   23.3266 H   0  0  0  0  0  0
  -24.3558  -36.8902   22.2049 H   0  0  0  0  0  0
  -23.7192  -37.6484   23.6654 H   0  0  0  0  0  0
  -26.0746  -31.5697   20.5991 H   0  0  0  0  0  0
  -26.8355  -30.8591   21.9888 H   0  0  0  0  0  0
  -28.1178  -29.0285   21.1709 H   0  0  0  0  0  0
  -26.0380  -25.9333   19.0173 H   0  0  0  0  0  0
  -23.9833  -27.2961   19.0191 H   0  0  0  0  0  0
  -23.7464  -30.5917   19.4069 H   0  0  0  0  0  0
  -22.7439  -29.2458   19.8642 H   0  0  0  0  0  0
  -25.1281  -36.1958   25.0846 H   0  0  0  0  0  0
  -21.0028  -28.3202   24.1439 H   0  0  0  0  0  0
  -20.5712  -26.2252   23.3588 H   0  0  0  0  0  0
  -21.6635  -26.7453   22.1202 H   0  0  0  0  0  0
  -19.6926  -25.6262   21.1199 H   0  0  0  0  0  0
  -19.6669  -27.3171   20.6759 H   0  0  0  0  0  0
  -17.4246  -26.6709   21.3998 H   0  0  0  0  0  0
  -18.0315  -25.9980   22.8984 H   0  0  0  0  0  0
  -19.7916  -30.7234   24.2271 H   0  0  0  0  0  0
  -17.5023  -31.6234   24.5146 H   0  0  0  0  0  0
  -15.5341  -30.2956   23.7648 H   0  0  0  0  0  0
  -15.8700  -28.0765   22.7072 H   0  0  0  0  0  0
  -24.5928  -30.7061   25.7813 H   0  0  0  0  0  0
  -24.9029  -32.2847   26.5001 H   0  0  0  0  0  0
  -25.8136  -30.8792   27.0174 H   0  0  0  0  0  0
  -26.2887  -29.6785   24.1142 H   0  0  0  0  0  0
  -27.4108  -29.7238   25.4539 H   0  0  0  0  0  0
  -27.8728  -30.4341   23.9246 H   0  0  0  0  0  0
  -27.2677  -33.3608   26.2095 H   0  0  0  0  0  0
  -28.3860  -32.6925   25.0291 H   0  0  0  0  0  0
  -28.0803  -31.8447   26.5342 H   0  0  0  0  0  0
  -28.2618  -38.0097   24.7571 H   0  0  0  0  0  0
  -28.1077  -36.2631   24.6220 H   0  0  0  0  0  0
  -27.2292  -37.1349   25.8858 H   0  0  0  0  0  0
  -20.9394  -29.8747   21.6924 H   0  0  0  0  0  0
  -26.0157  -38.2874   24.1475 H   0  0  0  0  0  0
  -26.5747  -20.6682   20.0030 H   0  0  0  0  0  0
  -27.4814  -18.2773   19.8848 H   0  0  0  0  0  0
  -26.9556  -26.1061   22.5072 H   0  0  0  0  0  0
  -27.2402  -24.4020   22.6895 H   0  0  0  0  0  0
  -26.1983  -24.9590   21.3869 H   0  0  0  0  0  0
  -29.1615  -25.5189   21.6966 H   0  0  0  0  0  0
  -27.4744  -22.9317   21.4402 H   0  0  0  0  0  0
  -28.9397  -15.8968   21.0318 H   0  0  0  0  0  0
  1 25  1  0  0  0
  1 30  2  0  0  0
  1 79  1  0  0  0
  2  3  1  0  0  0
  2 25  1  0  0  0
  2 85  1  0  0  0
  2 86  1  0  0  0
  3  4  1  0  0  0
  3 87  1  0  0  0
  3 88  1  0  0  0
  4  5  1  0  0  0
  4 89  1  0  0  0
  4 90  1  0  0  0
  5  6  1  0  0  0
  5 26  1  0  0  0
  5 91  1  0  0  0
  6 25  1  0  0  0
  6 92  1  0  0  0
  6 93  1  0  0  0
  7  8  2  0  0  0
  7 26  1  0  0  0
  7 29  1  0  0  0
  8  9  1  0  0  0
  8 22  1  0  0  0
  9 10  1  0  0  0
  9 27  2  0  0  0
 10 11  2  0  0  0
 10 15  1  0  0  0
 11 12  1  0  0  0
 11 94  1  0  0  0
 12 13  2  0  0  0
 12 95  1  0  0  0
 13 14  1  0  0  0
 13 31  1  0  0  0
 14 15  2  0  0  0
 14 96  1  0  0  0
 15 97  1  0  0  0
 16 17  2  0  0  0
 16 21  1  0  0  0
 16 31  1  0  0  0
 17 18  1  0  0  0
 17 98  1  0  0  0
 18 19  2  0  0  0
 18 99  1  0  0  0
 19 20  1  0  0  0
 19 24  1  0  0  0
 20 21  2  0  0  0
 20100  1  0  0  0
 21 23  1  0  0  0
 22 28  1  0  0  0
 22 32  2  0  0  0
 26 27  1  0  0  0
 28101  1  0  0  0
 28102  1  0  0  0
 29103  1  0  0  0
 29104  1  0  0  0
 33 34  1  0  0  0
 33 66  1  0  0  0
 33 70  2  0  0  0
 34 36  1  0  0  0
 34 59  1  0  0  0
 34105  1  0  0  0
 35 44  2  0  0  0
 35 45  1  0  0  0
 35 68  1  0  0  0
 36 56  1  0  0  0
 36106  1  0  0  0
 37 39  1  0  0  0
 37 47  1  0  0  0
 37 66  1  0  0  0
 37107  1  0  0  0
 38 43  2  0  0  0
 38 46  1  0  0  0
 38 47  1  0  0  0
 39 64  1  0  0  0
 39 67  2  0  0  0
 40 52  1  0  0  0
 40 53  2  0  0  0
 40 58  1  0  0  0
 41108  1  0  0  0
 41109  1  0  0  0
 41110  1  0  0  0
 41 48  1  0  0  0
 42 43  1  0  0  0
 42 66  1  0  0  0
 42111  1  0  0  0
 42112  1  0  0  0
 43 44  1  0  0  0
 44113  1  0  0  0
 45 46  2  0  0  0
 45114  1  0  0  0
 46115  1  0  0  0
 47116  1  0  0  0
 47117  1  0  0  0
 48 56  1  0  0  0
 48 65  1  0  0  0
 48118  1  0  0  0
 49 50  1  0  0  0
 49 53  1  0  0  0
 49 64  1  0  0  0
 49119  1  0  0  0
 50 51  1  0  0  0
 50120  1  0  0  0
 50121  1  0  0  0
 51 52  1  0  0  0
 51122  1  0  0  0
 51123  1  0  0  0
 52124  1  0  0  0
 52125  1  0  0  0
 53 54  1  0  0  0
 54 55  2  0  0  0
 54126  1  0  0  0
 55 57  1  0  0  0
 55127  1  0  0  0
 56 69  2  0  0  0
 57 58  2  0  0  0
 57128  1  0  0  0
 58129  1  0  0  0
 59 60  1  0  0  0
 59 61  1  0  0  0
 59 62  1  0  0  0
 60130  1  0  0  0
 60131  1  0  0  0
 60132  1  0  0  0
 61133  1  0  0  0
 61134  1  0  0  0
 61135  1  0  0  0
 62136  1  0  0  0
 62137  1  0  0  0
 62138  1  0  0  0
 63 65  1  0  0  0
 63139  1  0  0  0
 63140  1  0  0  0
 63141  1  0  0  0
 64142  1  0  0  0
 65143  1  0  0  0
 68 77  1  0  0  0
 71 72  1  0  0  0
 71 73  2  0  0  0
 71144  1  0  0  0
 72 74  2  0  0  0
 72145  1  0  0  0
 73 78  1  0  0  0
 73 83  1  0  0  0
 74 83  1  0  0  0
 74 84  1  0  0  0
 75 77  1  0  0  0
 75 78  1  0  0  0
 75 80  2  0  0  0
 76146  1  0  0  0
 76147  1  0  0  0
 76148  1  0  0  0
 76 77  1  0  0  0
 77149  1  0  0  0
 78150  1  0  0  0
 79151  1  0  0  0
 79 84  1  0  0  0
 81 84  2  0  0  0
 82 84  2  0  0  0
M  ISO  4   1 100  68 101  77 101  79 100
M  END
> <chiral flag>
0

> <version>
0

> <s_m_source_file>
/data/baiqing/PycharmProjects/Reinvent-master-3.2/result/LINK_invent/BTK/process_docking_weight1_custom_product_contain_oxygen_bond_distance_aromatic_linkinvent_7_9_3/rearranged_h_0181.sdf

> <i_m_source_file_index>
45

> <r_mmod_Potential_Energy-OPLS-2005>
-109.692779541016

> <r_mmod_Stretch_Energy-OPLS-2005>
74.0942306518555

> <r_mmod_Bend_Energy-OPLS-2005>
170.035446166992

> <r_mmod_Torsional_Energy-OPLS-2005>
257.591491699219

> <r_mmod_Improper_Torsional_Energy-OPLS-2005>
4.65308332443237

> <r_mmod_Van_der_Waal_Energy-OPLS-2005>
114.192588806152

> <r_mmod_Electrostatic_Energy-OPLS-2005>
-476.421142578125

> <r_mmod_Solvation_Energy-OPLS-2005>
-306.15966796875

> <b_mmod_Minimization_Converged-OPLS-2005>
0

> <r_mmod_RMS_Derivative-OPLS-2005>
5.32824516296387

$$$$
45
                    3D
 Structure written by MMmdl.
163171  0  0  1  0            999 V2000
  -30.5765  -14.6864   20.5028 C   0  0  0  0  0  0
  -30.4465  -12.4145   19.4850 C   0  0  0  0  0  0
  -29.5258  -12.4986   18.2481 C   0  0  0  0  0  0
  -28.0440  -12.3336   18.6482 C   0  0  0  0  0  0
  -27.6540  -13.2127   19.8692 C   0  0  2  0  0  0
  -28.6898  -13.0721   21.0053 C   0  0  0  0  0  0
  -25.2578  -13.8138   20.5729 C   0  0  0  0  0  0
  -24.1825  -13.0405   20.9151 C   0  0  0  0  0  0
  -24.6392  -11.6878   20.8713 C   0  0  0  0  0  0
  -23.9059  -10.4264   21.0395 C   0  0  0  0  0  0
  -24.3595   -9.4191   21.9184 C   0  0  0  0  0  0
  -23.6268   -8.2239   22.0784 C   0  0  0  0  0  0
  -22.4258   -8.0263   21.3558 C   0  0  0  0  0  0
  -21.9879   -9.0231   20.4664 C   0  0  0  0  0  0
  -22.7216  -10.2109   20.3062 C   0  0  0  0  0  0
  -21.6845   -6.0721   22.5275 C   0  0  0  0  0  0
  -21.4011   -6.5637   23.8203 C   0  0  0  0  0  0
  -21.3665   -5.6805   24.9174 C   0  0  0  0  0  0
  -21.6048   -4.3062   24.7226 C   0  0  0  0  0  0
  -21.8810   -3.8136   23.4342 C   0  0  0  0  0  0
  -21.9187   -4.6952   22.3397 C   0  0  0  0  0  0
  -22.7864  -13.5223   21.1779 C   0  0  0  0  0  0
  -22.1656   -4.2127   21.0979 F   0  0  0  0  0  0
  -21.5627   -3.4553   25.7740 F   0  0  0  0  0  0
  -29.9993  -13.4410   20.4508 N   0  0  0  0  0  0
  -26.2987  -12.9319   20.3308 N   0  0  0  0  0  0
  -25.9317  -11.6467   20.5701 N   0  0  0  0  0  0
  -22.0493  -12.8276   22.0380 N   0  0  0  0  0  0
  -25.4314  -15.1863   20.4254 N   0  0  0  0  0  0
  -31.7237  -14.8685   20.0808 O   0  0  0  0  0  0
  -21.6637   -6.8846   21.4237 O   0  0  0  0  0  0
  -22.3578  -14.5534   20.6601 O   0  0  0  0  0  0
  -24.6337  -31.8503   23.1949 C   0  0  0  0  0  0
  -25.9156  -32.4713   23.8286 C   0  0  1  0  0  0
  -27.2305  -27.2423   20.1354 C   0  0  0  0  0  0
  -25.5917  -33.8515   24.2210 N   0  0  0  0  0  0
  -23.4303  -30.4701   21.5369 C   0  0  2  0  0  0
  -24.8798  -28.9106   20.1116 C   0  0  0  0  0  0
  -22.7477  -29.4574   22.4899 C   0  0  0  0  0  0
  -18.0248  -28.1388   22.8442 C   0  0  0  0  0  0
  -24.1482  -36.7284   23.2656 C   0  0  0  0  0  0
  -25.9737  -30.7564   21.3791 C   0  0  0  0  0  0
  -26.0480  -29.3744   20.7244 C   0  0  0  0  0  0
  -27.2204  -28.5486   20.7344 C   0  0  0  0  0  0
  -26.0440  -26.8632   19.4636 C   0  0  0  0  0  0
  -24.8845  -27.6626   19.4728 C   0  0  0  0  0  0
  -23.6516  -29.7991   20.1543 C   0  0  0  0  0  0
  -25.4099  -36.3044   24.0339 C   0  0  1  0  0  0
  -20.5848  -28.3700   23.1248 C   0  0  2  0  0  0
  -20.6721  -26.9404   22.5405 C   0  0  0  0  0  0
  -19.5742  -26.6376   21.5173 C   0  0  0  0  0  0
  -18.1915  -26.7912   22.1590 C   0  0  0  0  0  0
  -19.1492  -28.8863   23.2850 C   0  0  0  0  0  0
  -18.9430  -30.1438   23.8924 C   0  0  0  0  0  0
  -17.6442  -30.6600   24.0529 C   0  0  0  0  0  0
  -25.9043  -34.9416   23.5084 C   0  0  0  0  0  0
  -16.5335  -29.9097   23.6328 C   0  0  0  0  0  0
  -16.7231  -28.6498   23.0379 C   0  0  0  0  0  0
  -26.4506  -31.6553   25.0682 C   0  0  0  0  0  0
  -25.3739  -31.3738   26.1420 C   0  0  0  0  0  0
  -27.0332  -30.2959   24.6195 C   0  0  0  0  0  0
  -27.5999  -32.4336   25.7484 C   0  0  0  0  0  0
  -27.5560  -37.1794   24.8478 C   0  0  0  0  0  0
  -21.4172  -29.3053   22.3650 N   0  0  0  0  0  0
  -26.4261  -37.3749   23.9408 N   0  0  0  0  0  0
  -24.6963  -31.0476   22.0926 N   0  0  0  0  0  0
  -23.4161  -28.8103   23.2995 O   0  0  0  0  0  0
  -28.3290  -26.3484   20.2429 O   0  0  0  0  0  0
  -26.5637  -34.8892   22.4673 O   0  0  0  0  0  0
  -23.5493  -32.1309   23.7260 O   0  0  0  0  0  0
  -29.2631  -17.5723   19.3485 C   0  0  0  0  0  0
  -28.9938  -19.0015   19.2966 C   0  0  0  0  0  0
  -29.6944  -17.0625   20.5580 C   0  0  0  0  0  0
  -29.2885  -19.6891   20.4640 C   0  0  0  0  0  0
  -28.8578  -23.7393   20.6822 C   0  0  0  0  0  0
  -28.3765  -19.6474   18.0882 C   0  0  0  0  0  0
  -31.8447  -21.9646   20.9096 C   0  0  0  0  0  0
  -31.3051  -21.5660   18.4805 C   0  0  0  0  0  0
  -31.4649  -23.8510   19.3310 C   0  0  0  0  0  0
  -28.2280  -24.9112   19.7883 C   0  0  0  0  0  0
  -29.4170  -22.3421   20.0288 C   0  0  1  0  0  0
  -30.9725  -22.4317   19.7131 C   0  0  0  0  0  0
  -29.7803  -15.7234   20.9470 N   0  0  0  0  0  0
  -29.1213  -21.0874   20.8355 N   0  0  0  0  0  0
  -28.8871  -23.8985   21.9086 O   0  0  0  0  0  0
  -29.8169  -18.4646   21.6566 S   0  0  0  0  0  0
  -31.4913  -12.5484   19.1991 H   0  0  0  0  0  0
  -30.3896  -11.4258   19.9371 H   0  0  0  0  0  0
  -29.8022  -11.7283   17.5254 H   0  0  0  0  0  0
  -29.6727  -13.4577   17.7483 H   0  0  0  0  0  0
  -27.8821  -11.2802   18.8818 H   0  0  0  0  0  0
  -27.3962  -12.5551   17.7969 H   0  0  0  0  0  0
  -27.6732  -14.2451   19.5228 H   0  0  0  0  0  0
  -28.7204  -12.0447   21.3706 H   0  0  0  0  0  0
  -28.4189  -13.6857   21.8681 H   0  0  0  0  0  0
  -25.2722   -9.5685   22.4765 H   0  0  0  0  0  0
  -23.9961   -7.4647   22.7549 H   0  0  0  0  0  0
  -21.0785   -8.8715   19.9005 H   0  0  0  0  0  0
  -22.3615  -10.9634   19.6168 H   0  0  0  0  0  0
  -21.2016   -7.6142   23.9687 H   0  0  0  0  0  0
  -21.1509   -6.0543   25.9063 H   0  0  0  0  0  0
  -22.0589   -2.7598   23.2851 H   0  0  0  0  0  0
  -22.4083  -11.9930   22.4766 H   0  0  0  0  0  0
  -21.1099  -13.1352   22.2551 H   0  0  0  0  0  0
  -24.6680  -15.8346   20.5821 H   0  0  0  0  0  0
  -26.2821  -15.6436   20.1243 H   0  0  0  0  0  0
  -26.7198  -32.5344   23.0983 H   0  0  0  0  0  0
  -24.9950  -33.9627   25.0290 H   0  0  0  0  0  0
  -22.7328  -31.2933   21.3886 H   0  0  0  0  0  0
  -23.3702  -35.9664   23.3331 H   0  0  0  0  0  0
  -24.3599  -36.8894   22.2075 H   0  0  0  0  0  0
  -23.7276  -37.6506   23.6672 H   0  0  0  0  0  0
  -26.1162  -31.5095   20.6041 H   0  0  0  0  0  0
  -26.8528  -30.8102   22.0084 H   0  0  0  0  0  0
  -28.1079  -28.8906   21.2521 H   0  0  0  0  0  0
  -25.9672  -25.9293   18.9345 H   0  0  0  0  0  0
  -23.9974  -27.3008   18.9752 H   0  0  0  0  0  0
  -23.7801  -30.5725   19.3973 H   0  0  0  0  0  0
  -22.7690  -29.2378   19.8468 H   0  0  0  0  0  0
  -25.1290  -36.1868   25.0832 H   0  0  0  0  0  0
  -20.9922  -28.3245   24.1379 H   0  0  0  0  0  0
  -20.5551  -26.2290   23.3604 H   0  0  0  0  0  0
  -21.6596  -26.7383   22.1263 H   0  0  0  0  0  0
  -19.6903  -25.6282   21.1234 H   0  0  0  0  0  0
  -19.6703  -27.3143   20.6674 H   0  0  0  0  0  0
  -17.4153  -26.6569   21.4029 H   0  0  0  0  0  0
  -18.0377  -26.0072   22.9028 H   0  0  0  0  0  0
  -19.7923  -30.7201   24.2325 H   0  0  0  0  0  0
  -17.5030  -31.6294   24.5105 H   0  0  0  0  0  0
  -15.5352  -30.3030   23.7699 H   0  0  0  0  0  0
  -15.8590  -28.0853   22.7150 H   0  0  0  0  0  0
  -24.5864  -30.7131   25.7773 H   0  0  0  0  0  0
  -24.8989  -32.2924   26.4883 H   0  0  0  0  0  0
  -25.8075  -30.8884   27.0174 H   0  0  0  0  0  0
  -26.2908  -29.6716   24.1192 H   0  0  0  0  0  0
  -27.3937  -29.7234   25.4752 H   0  0  0  0  0  0
  -27.8838  -30.4204   23.9479 H   0  0  0  0  0  0
  -27.2518  -33.3591   26.2093 H   0  0  0  0  0  0
  -28.3796  -32.6991   25.0330 H   0  0  0  0  0  0
  -28.0676  -31.8457   26.5394 H   0  0  0  0  0  0
  -28.2592  -38.0062   24.7449 H   0  0  0  0  0  0
  -28.1013  -36.2593   24.6356 H   0  0  0  0  0  0
  -27.2301  -37.1535   25.8888 H   0  0  0  0  0  0
  -20.9346  -29.8821   21.6922 H   0  0  0  0  0  0
  -26.0133  -38.2832   24.1346 H   0  0  0  0  0  0
  -29.0376  -16.9319   18.5059 H   0  0  0  0  0  0
  -27.8181  -18.9186   17.4980 H   0  0  0  0  0  0
  -29.1324  -20.0792   17.4354 H   0  0  0  0  0  0
  -27.6789  -20.4391   18.3634 H   0  0  0  0  0  0
  -32.9039  -22.1464   20.7324 H   0  0  0  0  0  0
  -31.7580  -20.8932   21.0874 H   0  0  0  0  0  0
  -31.5756  -22.4743   21.8338 H   0  0  0  0  0  0
  -32.3483  -21.6709   18.1858 H   0  0  0  0  0  0
  -30.7061  -21.8635   17.6182 H   0  0  0  0  0  0
  -31.1449  -20.5047   18.6559 H   0  0  0  0  0  0
  -32.5204  -23.8285   19.0472 H   0  0  0  0  0  0
  -31.3965  -24.5601   20.1550 H   0  0  0  0  0  0
  -30.9272  -24.2610   18.4758 H   0  0  0  0  0  0
  -27.1873  -24.6056   19.7214 H   0  0  0  0  0  0
  -28.6483  -24.8419   18.7851 H   0  0  0  0  0  0
  -28.8952  -22.2320   19.0779 H   0  0  0  0  0  0
  -28.9539  -15.3833   21.4212 H   0  0  0  0  0  0
  -29.1146  -21.2868   21.8295 H   0  0  0  0  0  0
  1 25  1  0  0  0
  1 30  2  0  0  0
  1 83  1  0  0  0
  2  3  1  0  0  0
  2 25  1  0  0  0
  2 87  1  0  0  0
  2 88  1  0  0  0
  3  4  1  0  0  0
  3 89  1  0  0  0
  3 90  1  0  0  0
  4  5  1  0  0  0
  4 91  1  0  0  0
  4 92  1  0  0  0
  5  6  1  0  0  0
  5 26  1  0  0  0
  5 93  1  0  0  0
  6 25  1  0  0  0
  6 94  1  0  0  0
  6 95  1  0  0  0
  7  8  2  0  0  0
  7 26  1  0  0  0
  7 29  1  0  0  0
  8  9  1  0  0  0
  8 22  1  0  0  0
  9 10  1  0  0  0
  9 27  2  0  0  0
 10 11  2  0  0  0
 10 15  1  0  0  0
 11 12  1  0  0  0
 11 96  1  0  0  0
 12 13  2  0  0  0
 12 97  1  0  0  0
 13 14  1  0  0  0
 13 31  1  0  0  0
 14 15  2  0  0  0
 14 98  1  0  0  0
 15 99  1  0  0  0
 16 17  2  0  0  0
 16 21  1  0  0  0
 16 31  1  0  0  0
 17 18  1  0  0  0
 17100  1  0  0  0
 18 19  2  0  0  0
 18101  1  0  0  0
 19 20  1  0  0  0
 19 24  1  0  0  0
 20 21  2  0  0  0
 20102  1  0  0  0
 21 23  1  0  0  0
 22 28  1  0  0  0
 22 32  2  0  0  0
 26 27  1  0  0  0
 28103  1  0  0  0
 28104  1  0  0  0
 29105  1  0  0  0
 29106  1  0  0  0
 33 34  1  0  0  0
 33 66  1  0  0  0
 33 70  2  0  0  0
 34 36  1  0  0  0
 34 59  1  0  0  0
 34107  1  0  0  0
 35 44  2  0  0  0
 35 45  1  0  0  0
 35 68  1  0  0  0
 36 56  1  0  0  0
 36108  1  0  0  0
 37 39  1  0  0  0
 37 47  1  0  0  0
 37 66  1  0  0  0
 37109  1  0  0  0
 38 43  2  0  0  0
 38 46  1  0  0  0
 38 47  1  0  0  0
 39 64  1  0  0  0
 39 67  2  0  0  0
 40 52  1  0  0  0
 40 53  2  0  0  0
 40 58  1  0  0  0
 41110  1  0  0  0
 41111  1  0  0  0
 41112  1  0  0  0
 41 48  1  0  0  0
 42 43  1  0  0  0
 42 66  1  0  0  0
 42113  1  0  0  0
 42114  1  0  0  0
 43 44  1  0  0  0
 44115  1  0  0  0
 45 46  2  0  0  0
 45116  1  0  0  0
 46117  1  0  0  0
 47118  1  0  0  0
 47119  1  0  0  0
 48 56  1  0  0  0
 48 65  1  0  0  0
 48120  1  0  0  0
 49 50  1  0  0  0
 49 53  1  0  0  0
 49 64  1  0  0  0
 49121  1  0  0  0
 50 51  1  0  0  0
 50122  1  0  0  0
 50123  1  0  0  0
 51 52  1  0  0  0
 51124  1  0  0  0
 51125  1  0  0  0
 52126  1  0  0  0
 52127  1  0  0  0
 53 54  1  0  0  0
 54 55  2  0  0  0
 54128  1  0  0  0
 55 57  1  0  0  0
 55129  1  0  0  0
 56 69  2  0  0  0
 57 58  2  0  0  0
 57130  1  0  0  0
 58131  1  0  0  0
 59 60  1  0  0  0
 59 61  1  0  0  0
 59 62  1  0  0  0
 60132  1  0  0  0
 60133  1  0  0  0
 60134  1  0  0  0
 61135  1  0  0  0
 61136  1  0  0  0
 61137  1  0  0  0
 62138  1  0  0  0
 62139  1  0  0  0
 62140  1  0  0  0
 63 65  1  0  0  0
 63141  1  0  0  0
 63142  1  0  0  0
 63143  1  0  0  0
 64144  1  0  0  0
 65145  1  0  0  0
 68 80  1  0  0  0
 71 72  1  0  0  0
 71 73  2  0  0  0
 71146  1  0  0  0
 72 74  2  0  0  0
 72 76  1  0  0  0
 73 83  1  0  0  0
 73 86  1  0  0  0
 74 84  1  0  0  0
 74 86  1  0  0  0
 75 80  1  0  0  0
 75 81  1  0  0  0
 75 85  2  0  0  0
 76147  1  0  0  0
 76148  1  0  0  0
 76149  1  0  0  0
 77150  1  0  0  0
 77151  1  0  0  0
 77152  1  0  0  0
 77 82  1  0  0  0
 78 82  1  0  0  0
 78153  1  0  0  0
 78154  1  0  0  0
 78155  1  0  0  0
 79 82  1  0  0  0
 79156  1  0  0  0
 79157  1  0  0  0
 79158  1  0  0  0
 80159  1  0  0  0
 80160  1  0  0  0
 81 82  1  0  0  0
 81 84  1  0  0  0
 81161  1  0  0  0
 83162  1  0  0  0
 84163  1  0  0  0
M  ISO  4   1 100  68 101  80 101  83 100
M  END
> <chiral flag>
0

> <version>
0

> <s_m_source_file>
/data/baiqing/PycharmProjects/Reinvent-master-3.2/result/LINK_invent/BTK/process_docking_weight1_custom_product_contain_oxygen_bond_distance_aromatic_linkinvent_7_9_3/rearranged_h_0181.sdf

> <i_m_source_file_index>
46

> <r_mmod_Potential_Energy-OPLS-2005>
219.576538085938

> <r_mmod_Stretch_Energy-OPLS-2005>
119.88109588623

> <r_mmod_Bend_Energy-OPLS-2005>
182.882385253906

> <r_mmod_Torsional_Energy-OPLS-2005>
262.079772949219

> <r_mmod_Improper_Torsional_Energy-OPLS-2005>
6.81500482559204

> <r_mmod_Van_der_Waal_Energy-OPLS-2005>
124.081146240234

> <r_mmod_Electrostatic_Energy-OPLS-2005>
-327.219451904297

> <r_mmod_Solvation_Energy-OPLS-2005>
-228.02685546875

> <b_mmod_Minimization_Converged-OPLS-2005>
0

> <r_mmod_RMS_Derivative-OPLS-2005>
5.8861722946167

$$$$
46
                    3D
 Structure written by MMmdl.
146154  0  0  1  0            999 V2000
  -30.4897  -15.0339   20.4052 C   0  0  0  0  0  0
  -30.4489  -12.6435   19.5066 C   0  0  0  0  0  0
  -29.5293  -12.5439   18.2650 C   0  0  0  0  0  0
  -28.0647  -12.3128   18.6833 C   0  0  0  0  0  0
  -27.6286  -13.2516   19.8375 C   0  0  2  0  0  0
  -28.6700  -13.3018   20.9759 C   0  0  0  0  0  0
  -25.2457  -13.8215   20.5712 C   0  0  0  0  0  0
  -24.1780  -13.0436   20.9236 C   0  0  0  0  0  0
  -24.6400  -11.6922   20.8755 C   0  0  0  0  0  0
  -23.9084  -10.4292   21.0408 C   0  0  0  0  0  0
  -24.3630   -9.4205   21.9185 C   0  0  0  0  0  0
  -23.6300   -8.2243   22.0754 C   0  0  0  0  0  0
  -22.4281   -8.0283   21.3545 C   0  0  0  0  0  0
  -21.9920   -9.0258   20.4647 C   0  0  0  0  0  0
  -22.7254  -10.2135   20.3057 C   0  0  0  0  0  0
  -21.6855   -6.0737   22.5279 C   0  0  0  0  0  0
  -21.4016   -6.5640   23.8212 C   0  0  0  0  0  0
  -21.3660   -5.6793   24.9174 C   0  0  0  0  0  0
  -21.6044   -4.3055   24.7225 C   0  0  0  0  0  0
  -21.8818   -3.8148   23.4346 C   0  0  0  0  0  0
  -21.9193   -4.6965   22.3402 C   0  0  0  0  0  0
  -22.7799  -13.5205   21.1888 C   0  0  0  0  0  0
  -22.1661   -4.2151   21.0980 F   0  0  0  0  0  0
  -21.5628   -3.4538   25.7737 F   0  0  0  0  0  0
  -29.9367  -13.7459   20.3769 N   0  0  0  0  0  0
  -26.2883  -12.9451   20.3237 N   0  0  0  0  0  0
  -25.9334  -11.6579   20.5733 N   0  0  0  0  0  0
  -22.0450  -12.8192   22.0443 N   0  0  0  0  0  0
  -25.4107  -15.1946   20.4120 N   0  0  0  0  0  0
  -31.6928  -15.1215   20.1303 O   0  0  0  0  0  0
  -21.6642   -6.8881   21.4241 O   0  0  0  0  0  0
  -22.3482  -14.5508   20.6729 O   0  0  0  0  0  0
  -24.6497  -31.8379   23.1829 C   0  0  0  0  0  0
  -25.9241  -32.4663   23.8242 C   0  0  1  0  0  0
  -27.2193  -27.0727   20.1603 C   0  0  0  0  0  0
  -25.5962  -33.8471   24.2154 N   0  0  0  0  0  0
  -23.4571  -30.4551   21.5295 C   0  0  2  0  0  0
  -24.9089  -28.8710   20.1103 C   0  0  0  0  0  0
  -22.7602  -29.4515   22.4832 C   0  0  0  0  0  0
  -18.0311  -28.1401   22.8472 C   0  0  0  0  0  0
  -24.1493  -36.7242   23.2644 C   0  0  0  0  0  0
  -26.0179  -30.6911   21.3921 C   0  0  0  0  0  0
  -26.0889  -29.2962   20.7338 C   0  0  0  0  0  0
  -27.2436  -28.4149   20.7395 C   0  0  0  0  0  0
  -26.0119  -26.7669   19.4929 C   0  0  0  0  0  0
  -24.8873  -27.6221   19.4725 C   0  0  0  0  0  0
  -23.6883  -29.7808   20.1508 C   0  0  0  0  0  0
  -25.4128  -36.3013   24.0310 C   0  0  1  0  0  0
  -20.5928  -28.3734   23.1218 C   0  0  2  0  0  0
  -20.6793  -26.9429   22.5403 C   0  0  0  0  0  0
  -19.5767  -26.6380   21.5213 C   0  0  0  0  0  0
  -18.1948  -26.7936   22.1623 C   0  0  0  0  0  0
  -19.1569  -28.8886   23.2836 C   0  0  0  0  0  0
  -18.9483  -30.1479   23.8866 C   0  0  0  0  0  0
  -17.6478  -30.6594   24.0557 C   0  0  0  0  0  0
  -25.9082  -34.9390   23.5045 C   0  0  0  0  0  0
  -16.5369  -29.9085   23.6338 C   0  0  0  0  0  0
  -16.7294  -28.6504   23.0358 C   0  0  0  0  0  0
  -26.4537  -31.6556   25.0713 C   0  0  0  0  0  0
  -25.3700  -31.3768   26.1394 C   0  0  0  0  0  0
  -27.0412  -30.2940   24.6348 C   0  0  0  0  0  0
  -27.6053  -32.4337   25.7505 C   0  0  0  0  0  0
  -27.5574  -37.1778   24.8465 C   0  0  0  0  0  0
  -21.4286  -29.3048   22.3582 N   0  0  0  0  0  0
  -26.4286  -37.3733   23.9407 N   0  0  0  0  0  0
  -24.7285  -31.0175   22.0894 N   0  0  0  0  0  0
  -23.4214  -28.8069   23.3012 O   0  0  0  0  0  0
  -28.2453  -26.0387   20.2377 O   0  0  0  0  0  0
  -26.5676  -34.8899   22.4629 O   0  0  0  0  0  0
  -23.5600  -32.1283   23.7008 O   0  0  0  0  0  0
  -30.8830  -18.5827   20.1254 C   0  0  0  0  0  0
  -28.7752  -18.7744   20.5326 C   0  0  0  0  0  0
  -29.7568  -17.7452   20.4236 C   0  0  0  0  0  0
  -28.9290  -23.1942   20.3559 C   0  0  0  0  0  0
  -28.5107  -21.5670   20.1750 C   0  0  0  0  0  0
  -27.9041  -24.4999   20.0491 C   0  0  0  0  0  0
  -30.5952  -19.9206   20.0505 N   0  0  0  0  0  0
  -29.2645  -20.1357   20.3197 N   0  0  0  0  0  0
  -29.6498  -16.1915   20.5573 N   0  0  0  0  0  0
  -30.0719  -23.4529   20.7485 O   0  0  0  0  0  0
  -31.4774  -12.8247   19.1906 H   0  0  0  0  0  0
  -30.4683  -11.6989   20.0524 H   0  0  0  0  0  0
  -29.8635  -11.7398   17.6080 H   0  0  0  0  0  0
  -29.6016  -13.4645   17.6837 H   0  0  0  0  0  0
  -27.9743  -11.2738   19.0024 H   0  0  0  0  0  0
  -27.4005  -12.4272   17.8258 H   0  0  0  0  0  0
  -27.5834  -14.2482   19.3976 H   0  0  0  0  0  0
  -28.7775  -12.3280   21.4559 H   0  0  0  0  0  0
  -28.3537  -13.9962   21.7558 H   0  0  0  0  0  0
  -25.2773   -9.5680   22.4763 H   0  0  0  0  0  0
  -24.0006   -7.4633   22.7474 H   0  0  0  0  0  0
  -21.0852   -8.8781   19.8952 H   0  0  0  0  0  0
  -22.3713  -10.9675   19.6168 H   0  0  0  0  0  0
  -21.2009   -7.6148   23.9716 H   0  0  0  0  0  0
  -21.1482   -6.0523   25.9077 H   0  0  0  0  0  0
  -22.0597   -2.7610   23.2845 H   0  0  0  0  0  0
  -22.4075  -11.9860   22.4835 H   0  0  0  0  0  0
  -21.1064  -13.1208   22.2646 H   0  0  0  0  0  0
  -24.6343  -15.8394   20.5131 H   0  0  0  0  0  0
  -26.2386  -15.6323   20.0302 H   0  0  0  0  0  0
  -26.7308  -32.5248   23.0966 H   0  0  0  0  0  0
  -25.0075  -33.9574   25.0280 H   0  0  0  0  0  0
  -22.7630  -31.2829   21.3700 H   0  0  0  0  0  0
  -23.3761  -35.9566   23.3288 H   0  0  0  0  0  0
  -24.3575  -36.8897   22.2062 H   0  0  0  0  0  0
  -23.7243  -37.6428   23.6699 H   0  0  0  0  0  0
  -26.1821  -31.4421   20.6181 H   0  0  0  0  0  0
  -26.8846  -30.7426   22.0395 H   0  0  0  0  0  0
  -28.1392  -28.7353   21.2531 H   0  0  0  0  0  0
  -25.8996  -25.8137   18.9989 H   0  0  0  0  0  0
  -23.9884  -27.2919   18.9700 H   0  0  0  0  0  0
  -23.8311  -30.5538   19.3948 H   0  0  0  0  0  0
  -22.8016  -29.2269   19.8375 H   0  0  0  0  0  0
  -25.1320  -36.1830   25.0802 H   0  0  0  0  0  0
  -21.0018  -28.3330   24.1341 H   0  0  0  0  0  0
  -20.5681  -26.2350   23.3630 H   0  0  0  0  0  0
  -21.6658  -26.7424   22.1206 H   0  0  0  0  0  0
  -19.6927  -25.6282   21.1265 H   0  0  0  0  0  0
  -19.6704  -27.3171   20.6727 H   0  0  0  0  0  0
  -17.4216  -26.6677   21.4028 H   0  0  0  0  0  0
  -18.0348  -26.0087   22.9029 H   0  0  0  0  0  0
  -19.7959  -30.7304   24.2221 H   0  0  0  0  0  0
  -17.5031  -31.6271   24.5165 H   0  0  0  0  0  0
  -15.5368  -30.2976   23.7681 H   0  0  0  0  0  0
  -15.8695  -28.0812   22.7090 H   0  0  0  0  0  0
  -24.5893  -30.7102   25.7712 H   0  0  0  0  0  0
  -24.8876  -32.2957   26.4734 H   0  0  0  0  0  0
  -25.7966  -30.8998   27.0227 H   0  0  0  0  0  0
  -26.3048  -29.6647   24.1338 H   0  0  0  0  0  0
  -27.3976  -29.7263   25.4954 H   0  0  0  0  0  0
  -27.8977  -30.4153   23.9714 H   0  0  0  0  0  0
  -27.2635  -33.3664   26.2006 H   0  0  0  0  0  0
  -28.3905  -32.6857   25.0364 H   0  0  0  0  0  0
  -28.0676  -31.8515   26.5486 H   0  0  0  0  0  0
  -28.2582  -38.0084   24.7510 H   0  0  0  0  0  0
  -28.1081  -36.2612   24.6295 H   0  0  0  0  0  0
  -27.2291  -37.1427   25.8868 H   0  0  0  0  0  0
  -20.9511  -29.8753   21.6744 H   0  0  0  0  0  0
  -26.0146  -38.2798   24.1410 H   0  0  0  0  0  0
  -31.9016  -18.2710   19.9408 H   0  0  0  0  0  0
  -27.7190  -18.6508   20.7280 H   0  0  0  0  0  0
  -28.0832  -21.5414   19.1731 H   0  0  0  0  0  0
  -27.6395  -21.4746   20.8229 H   0  0  0  0  0  0
  -27.0071  -24.3095   20.6386 H   0  0  0  0  0  0
  -27.5968  -24.3791   19.0107 H   0  0  0  0  0  0
  -28.7099  -15.8927   20.7695 H   0  0  0  0  0  0
  1 25  1  0  0  0
  1 30  2  0  0  0
  1 79  1  0  0  0
  2  3  1  0  0  0
  2 25  1  0  0  0
  2 81  1  0  0  0
  2 82  1  0  0  0
  3  4  1  0  0  0
  3 83  1  0  0  0
  3 84  1  0  0  0
  4  5  1  0  0  0
  4 85  1  0  0  0
  4 86  1  0  0  0
  5  6  1  0  0  0
  5 26  1  0  0  0
  5 87  1  0  0  0
  6 25  1  0  0  0
  6 88  1  0  0  0
  6 89  1  0  0  0
  7  8  2  0  0  0
  7 26  1  0  0  0
  7 29  1  0  0  0
  8  9  1  0  0  0
  8 22  1  0  0  0
  9 10  1  0  0  0
  9 27  2  0  0  0
 10 11  2  0  0  0
 10 15  1  0  0  0
 11 12  1  0  0  0
 11 90  1  0  0  0
 12 13  2  0  0  0
 12 91  1  0  0  0
 13 14  1  0  0  0
 13 31  1  0  0  0
 14 15  2  0  0  0
 14 92  1  0  0  0
 15 93  1  0  0  0
 16 17  2  0  0  0
 16 21  1  0  0  0
 16 31  1  0  0  0
 17 18  1  0  0  0
 17 94  1  0  0  0
 18 19  2  0  0  0
 18 95  1  0  0  0
 19 20  1  0  0  0
 19 24  1  0  0  0
 20 21  2  0  0  0
 20 96  1  0  0  0
 21 23  1  0  0  0
 22 28  1  0  0  0
 22 32  2  0  0  0
 26 27  1  0  0  0
 28 97  1  0  0  0
 28 98  1  0  0  0
 29 99  1  0  0  0
 29100  1  0  0  0
 33 34  1  0  0  0
 33 66  1  0  0  0
 33 70  2  0  0  0
 34 36  1  0  0  0
 34 59  1  0  0  0
 34101  1  0  0  0
 35 44  2  0  0  0
 35 45  1  0  0  0
 35 68  1  0  0  0
 36 56  1  0  0  0
 36102  1  0  0  0
 37 39  1  0  0  0
 37 47  1  0  0  0
 37 66  1  0  0  0
 37103  1  0  0  0
 38 43  2  0  0  0
 38 46  1  0  0  0
 38 47  1  0  0  0
 39 64  1  0  0  0
 39 67  2  0  0  0
 40 52  1  0  0  0
 40 53  2  0  0  0
 40 58  1  0  0  0
 41104  1  0  0  0
 41105  1  0  0  0
 41106  1  0  0  0
 41 48  1  0  0  0
 42 43  1  0  0  0
 42 66  1  0  0  0
 42107  1  0  0  0
 42108  1  0  0  0
 43 44  1  0  0  0
 44109  1  0  0  0
 45 46  2  0  0  0
 45110  1  0  0  0
 46111  1  0  0  0
 47112  1  0  0  0
 47113  1  0  0  0
 48 56  1  0  0  0
 48 65  1  0  0  0
 48114  1  0  0  0
 49 50  1  0  0  0
 49 53  1  0  0  0
 49 64  1  0  0  0
 49115  1  0  0  0
 50 51  1  0  0  0
 50116  1  0  0  0
 50117  1  0  0  0
 51 52  1  0  0  0
 51118  1  0  0  0
 51119  1  0  0  0
 52120  1  0  0  0
 52121  1  0  0  0
 53 54  1  0  0  0
 54 55  2  0  0  0
 54122  1  0  0  0
 55 57  1  0  0  0
 55123  1  0  0  0
 56 69  2  0  0  0
 57 58  2  0  0  0
 57124  1  0  0  0
 58125  1  0  0  0
 59 60  1  0  0  0
 59 61  1  0  0  0
 59 62  1  0  0  0
 60126  1  0  0  0
 60127  1  0  0  0
 60128  1  0  0  0
 61129  1  0  0  0
 61130  1  0  0  0
 61131  1  0  0  0
 62132  1  0  0  0
 62133  1  0  0  0
 62134  1  0  0  0
 63 65  1  0  0  0
 63135  1  0  0  0
 63136  1  0  0  0
 63137  1  0  0  0
 64138  1  0  0  0
 65139  1  0  0  0
 68 76  1  0  0  0
 71 73  1  0  0  0
 71 77  2  0  0  0
 71140  1  0  0  0
 72 73  2  0  0  0
 72 78  1  0  0  0
 72141  1  0  0  0
 73 79  1  0  0  0
 74 75  1  0  0  0
 74 76  1  0  0  0
 74 80  2  0  0  0
 75 78  1  0  0  0
 75142  1  0  0  0
 75143  1  0  0  0
 76144  1  0  0  0
 76145  1  0  0  0
 77 78  1  0  0  0
 79146  1  0  0  0
M  ISO  4   1 100  68 101  76 101  79 100
M  END
> <chiral flag>
0

> <version>
0

> <s_m_source_file>
/data/baiqing/PycharmProjects/Reinvent-master-3.2/result/LINK_invent/BTK/process_docking_weight1_custom_product_contain_oxygen_bond_distance_aromatic_linkinvent_7_9_3/rearranged_h_0181.sdf

> <i_m_source_file_index>
47

> <r_mmod_Potential_Energy-OPLS-2005>
621.164916992188

> <r_mmod_Stretch_Energy-OPLS-2005>
319.884521484375

> <r_mmod_Bend_Energy-OPLS-2005>
300.967102050781

> <r_mmod_Torsional_Energy-OPLS-2005>
217.559478759766

> <r_mmod_Improper_Torsional_Energy-OPLS-2005>
4.834397315979

> <r_mmod_Van_der_Waal_Energy-OPLS-2005>
107.625099182129

> <r_mmod_Electrostatic_Energy-OPLS-2005>
-313.306091308594

> <r_mmod_Solvation_Energy-OPLS-2005>
-275.453765869141

> <b_mmod_Minimization_Converged-OPLS-2005>
0

> <r_mmod_RMS_Derivative-OPLS-2005>
0.0772481486201286

$$$$
47
                    3D
 Structure written by MMmdl.
151159  0  0  1  0            999 V2000
  -30.6193  -14.8073   20.4591 C   0  0  0  0  0  0
  -30.4361  -12.5043   19.4651 C   0  0  0  0  0  0
  -29.5106  -12.5053   18.2306 C   0  0  0  0  0  0
  -28.0379  -12.3232   18.6500 C   0  0  0  0  0  0
  -27.6348  -13.2376   19.8378 C   0  0  2  0  0  0
  -28.6872  -13.2212   20.9655 C   0  0  0  0  0  0
  -25.2500  -13.8207   20.5701 C   0  0  0  0  0  0
  -24.1805  -13.0441   20.9231 C   0  0  0  0  0  0
  -24.6404  -11.6922   20.8758 C   0  0  0  0  0  0
  -23.9084  -10.4292   21.0401 C   0  0  0  0  0  0
  -24.3635   -9.4203   21.9175 C   0  0  0  0  0  0
  -23.6305   -8.2241   22.0741 C   0  0  0  0  0  0
  -22.4285   -8.0283   21.3533 C   0  0  0  0  0  0
  -21.9926   -9.0258   20.4632 C   0  0  0  0  0  0
  -22.7260  -10.2136   20.3043 C   0  0  0  0  0  0
  -21.6856   -6.0734   22.5268 C   0  0  0  0  0  0
  -21.4019   -6.5635   23.8203 C   0  0  0  0  0  0
  -21.3665   -5.6785   24.9164 C   0  0  0  0  0  0
  -21.6053   -4.3050   24.7208 C   0  0  0  0  0  0
  -21.8827   -3.8146   23.4325 C   0  0  0  0  0  0
  -21.9201   -4.6964   22.3386 C   0  0  0  0  0  0
  -22.7824  -13.5212   21.1891 C   0  0  0  0  0  0
  -22.1664   -4.2149   21.0961 F   0  0  0  0  0  0
  -21.5634   -3.4533   25.7720 F   0  0  0  0  0  0
  -29.9681  -13.5928   20.3539 N   0  0  0  0  0  0
  -26.2923  -12.9419   20.3263 N   0  0  0  0  0  0
  -25.9333  -11.6559   20.5758 N   0  0  0  0  0  0
  -22.0475  -12.8196   22.0442 N   0  0  0  0  0  0
  -25.4182  -15.1933   20.4097 N   0  0  0  0  0  0
  -31.8394  -14.8296   20.2767 O   0  0  0  0  0  0
  -21.6646   -6.8880   21.4230 O   0  0  0  0  0  0
  -22.3505  -14.5515   20.6731 O   0  0  0  0  0  0
  -24.6399  -31.8498   23.1964 C   0  0  0  0  0  0
  -25.9194  -32.4733   23.8324 C   0  0  1  0  0  0
  -27.2097  -27.2035   20.1166 C   0  0  0  0  0  0
  -25.5956  -33.8537   24.2228 N   0  0  0  0  0  0
  -23.4373  -30.4765   21.5441 C   0  0  2  0  0  0
  -24.8779  -28.9211   20.1140 C   0  0  0  0  0  0
  -22.7537  -29.4600   22.4921 C   0  0  0  0  0  0
  -18.0301  -28.1400   22.8483 C   0  0  0  0  0  0
  -24.1483  -36.7268   23.2640 C   0  0  0  0  0  0
  -25.9913  -30.7447   21.3849 C   0  0  0  0  0  0
  -26.0595  -29.3652   20.7214 C   0  0  0  0  0  0
  -27.2271  -28.5221   20.7080 C   0  0  0  0  0  0
  -25.9842  -26.8425   19.5036 C   0  0  0  0  0  0
  -24.8485  -27.6683   19.4954 C   0  0  0  0  0  0
  -23.6540  -29.8140   20.1611 C   0  0  0  0  0  0
  -25.4116  -36.3053   24.0317 C   0  0  1  0  0  0
  -20.5906  -28.3718   23.1251 C   0  0  2  0  0  0
  -20.6792  -26.9432   22.5396 C   0  0  0  0  0  0
  -19.5762  -26.6393   21.5210 C   0  0  0  0  0  0
  -18.1945  -26.7940   22.1627 C   0  0  0  0  0  0
  -19.1551  -28.8880   23.2856 C   0  0  0  0  0  0
  -18.9469  -30.1482   23.8873 C   0  0  0  0  0  0
  -17.6464  -30.6595   24.0564 C   0  0  0  0  0  0
  -25.9067  -34.9433   23.5078 C   0  0  0  0  0  0
  -16.5358  -29.9083   23.6346 C   0  0  0  0  0  0
  -16.7282  -28.6505   23.0361 C   0  0  0  0  0  0
  -26.4521  -31.6588   25.0749 C   0  0  0  0  0  0
  -25.3711  -31.3765   26.1447 C   0  0  0  0  0  0
  -27.0381  -30.2986   24.6309 C   0  0  0  0  0  0
  -27.6054  -32.4350   25.7526 C   0  0  0  0  0  0
  -27.5572  -37.1791   24.8465 C   0  0  0  0  0  0
  -21.4239  -29.3054   22.3641 N   0  0  0  0  0  0
  -26.4284  -37.3759   23.9408 N   0  0  0  0  0  0
  -24.7100  -31.0411   22.0978 N   0  0  0  0  0  0
  -23.4201  -28.8138   23.3046 O   0  0  0  0  0  0
  -28.2880  -26.2595   20.1583 O   0  0  0  0  0  0
  -26.5626  -34.8918   22.4640 O   0  0  0  0  0  0
  -23.5531  -32.1357   23.7212 O   0  0  0  0  0  0
  -29.6597  -18.6093   20.1318 C   0  0  0  0  0  0
  -29.4415  -18.7844   18.7688 C   0  0  0  0  0  0
  -29.1232  -20.9806   20.0022 C   0  0  0  0  0  0
  -30.2888  -17.2926   20.7762 C   0  0  0  0  0  0
  -29.0710  -23.6113   20.1188 C   0  0  0  0  0  0
  -28.1175  -24.8396   18.1588 C   0  0  0  0  0  0
  -28.0604  -24.8152   19.7048 C   0  0  2  0  0  0
  -29.4355  -19.8957   20.8004 N   0  0  0  0  0  0
  -29.5502  -17.8753   17.7136 N   0  0  0  0  0  0
  -28.6104  -22.3253   20.4030 N   0  0  0  0  0  0
  -29.8762  -15.9938   20.4580 N   0  0  0  0  0  0
  -31.1894  -17.4536   21.6104 O   0  0  0  0  0  0
  -30.2808  -23.8569   20.1546 O   0  0  0  0  0  0
  -29.0390  -20.4499   18.3269 S   0  0  0  0  0  0
  -31.4730  -12.6429   19.1546 H   0  0  0  0  0  0
  -30.4014  -11.5426   19.9809 H   0  0  0  0  0  0
  -29.8031  -11.7133   17.5398 H   0  0  0  0  0  0
  -29.6257  -13.4454   17.6895 H   0  0  0  0  0  0
  -27.9048  -11.2776   18.9296 H   0  0  0  0  0  0
  -27.3777  -12.4962   17.7990 H   0  0  0  0  0  0
  -27.6115  -14.2489   19.4337 H   0  0  0  0  0  0
  -28.7477  -12.2359   21.4300 H   0  0  0  0  0  0
  -28.4208  -13.9243   21.7558 H   0  0  0  0  0  0
  -25.2776   -9.5682   22.4757 H   0  0  0  0  0  0
  -24.0013   -7.4633   22.7459 H   0  0  0  0  0  0
  -21.0857   -8.8782   19.8932 H   0  0  0  0  0  0
  -22.3716  -10.9678   19.6158 H   0  0  0  0  0  0
  -21.2003   -7.6143   23.9705 H   0  0  0  0  0  0
  -21.1486   -6.0509   25.9067 H   0  0  0  0  0  0
  -22.0605   -2.7607   23.2820 H   0  0  0  0  0  0
  -22.4093  -11.9849   22.4819 H   0  0  0  0  0  0
  -21.1081  -13.1198   22.2621 H   0  0  0  0  0  0
  -24.6548  -15.8504   20.5269 H   0  0  0  0  0  0
  -26.2604  -15.6302   20.0602 H   0  0  0  0  0  0
  -26.7268  -32.5349   23.1068 H   0  0  0  0  0  0
  -25.0112  -33.9665   25.0381 H   0  0  0  0  0  0
  -22.7396  -31.3029   21.3982 H   0  0  0  0  0  0
  -23.3751  -35.9592   23.3296 H   0  0  0  0  0  0
  -24.3572  -36.8904   22.2058 H   0  0  0  0  0  0
  -23.7240  -37.6469   23.6670 H   0  0  0  0  0  0
  -26.1400  -31.5060   20.6173 H   0  0  0  0  0  0
  -26.8665  -30.7877   22.0228 H   0  0  0  0  0  0
  -28.1309  -28.8580   21.1962 H   0  0  0  0  0  0
  -25.8370  -25.8845   19.0341 H   0  0  0  0  0  0
  -23.9408  -27.3147   19.0253 H   0  0  0  0  0  0
  -23.7805  -30.5898   19.4054 H   0  0  0  0  0  0
  -22.7699  -29.2504   19.8568 H   0  0  0  0  0  0
  -25.1304  -36.1894   25.0810 H   0  0  0  0  0  0
  -20.9992  -28.3298   24.1373 H   0  0  0  0  0  0
  -20.5713  -26.2326   23.3605 H   0  0  0  0  0  0
  -21.6659  -26.7467   22.1175 H   0  0  0  0  0  0
  -19.6925  -25.6297   21.1261 H   0  0  0  0  0  0
  -19.6699  -27.3188   20.6731 H   0  0  0  0  0  0
  -17.4210  -26.6681   21.4035 H   0  0  0  0  0  0
  -18.0347  -26.0083   22.9031 H   0  0  0  0  0  0
  -19.7942  -30.7312   24.2222 H   0  0  0  0  0  0
  -17.5015  -31.6275   24.5167 H   0  0  0  0  0  0
  -15.5356  -30.2976   23.7694 H   0  0  0  0  0  0
  -15.8684  -28.0824   22.7085 H   0  0  0  0  0  0
  -24.5889  -30.7115   25.7768 H   0  0  0  0  0  0
  -24.8903  -32.2946   26.4829 H   0  0  0  0  0  0
  -25.8002  -30.8970   27.0256 H   0  0  0  0  0  0
  -26.2997  -29.6726   24.1284 H   0  0  0  0  0  0
  -27.3967  -29.7271   25.4883 H   0  0  0  0  0  0
  -27.8916  -30.4224   23.9637 H   0  0  0  0  0  0
  -27.2638  -33.3659   26.2059 H   0  0  0  0  0  0
  -28.3879  -32.6905   25.0367 H   0  0  0  0  0  0
  -28.0701  -31.8515   26.5485 H   0  0  0  0  0  0
  -28.2590  -38.0087   24.7510 H   0  0  0  0  0  0
  -28.1073  -36.2626   24.6292 H   0  0  0  0  0  0
  -27.2290  -37.1436   25.8867 H   0  0  0  0  0  0
  -20.9440  -29.8750   21.6813 H   0  0  0  0  0  0
  -26.0162  -38.2832   24.1407 H   0  0  0  0  0  0
  -27.7813  -23.8910   17.7383 H   0  0  0  0  0  0
  -29.1381  -25.0081   17.8117 H   0  0  0  0  0  0
  -27.5122  -25.6209   17.7065 H   0  0  0  0  0  0
  -27.0793  -24.4895   20.0500 H   0  0  0  0  0  0
  -29.9232  -16.9335   17.7883 H   0  0  0  0  0  0
  -29.4499  -18.1624   16.7429 H   0  0  0  0  0  0
  -27.6123  -22.3172   20.5510 H   0  0  0  0  0  0
  -28.9378  -15.9234   20.1054 H   0  0  0  0  0  0
  1 25  1  0  0  0
  1 30  2  0  0  0
  1 81  1  0  0  0
  2  3  1  0  0  0
  2 25  1  0  0  0
  2 85  1  0  0  0
  2 86  1  0  0  0
  3  4  1  0  0  0
  3 87  1  0  0  0
  3 88  1  0  0  0
  4  5  1  0  0  0
  4 89  1  0  0  0
  4 90  1  0  0  0
  5  6  1  0  0  0
  5 26  1  0  0  0
  5 91  1  0  0  0
  6 25  1  0  0  0
  6 92  1  0  0  0
  6 93  1  0  0  0
  7  8  2  0  0  0
  7 26  1  0  0  0
  7 29  1  0  0  0
  8  9  1  0  0  0
  8 22  1  0  0  0
  9 10  1  0  0  0
  9 27  2  0  0  0
 10 11  2  0  0  0
 10 15  1  0  0  0
 11 12  1  0  0  0
 11 94  1  0  0  0
 12 13  2  0  0  0
 12 95  1  0  0  0
 13 14  1  0  0  0
 13 31  1  0  0  0
 14 15  2  0  0  0
 14 96  1  0  0  0
 15 97  1  0  0  0
 16 17  2  0  0  0
 16 21  1  0  0  0
 16 31  1  0  0  0
 17 18  1  0  0  0
 17 98  1  0  0  0
 18 19  2  0  0  0
 18 99  1  0  0  0
 19 20  1  0  0  0
 19 24  1  0  0  0
 20 21  2  0  0  0
 20100  1  0  0  0
 21 23  1  0  0  0
 22 28  1  0  0  0
 22 32  2  0  0  0
 26 27  1  0  0  0
 28101  1  0  0  0
 28102  1  0  0  0
 29103  1  0  0  0
 29104  1  0  0  0
 33 34  1  0  0  0
 33 66  1  0  0  0
 33 70  2  0  0  0
 34 36  1  0  0  0
 34 59  1  0  0  0
 34105  1  0  0  0
 35 44  2  0  0  0
 35 45  1  0  0  0
 35 68  1  0  0  0
 36 56  1  0  0  0
 36106  1  0  0  0
 37 39  1  0  0  0
 37 47  1  0  0  0
 37 66  1  0  0  0
 37107  1  0  0  0
 38 43  2  0  0  0
 38 46  1  0  0  0
 38 47  1  0  0  0
 39 64  1  0  0  0
 39 67  2  0  0  0
 40 52  1  0  0  0
 40 53  2  0  0  0
 40 58  1  0  0  0
 41108  1  0  0  0
 41109  1  0  0  0
 41110  1  0  0  0
 41 48  1  0  0  0
 42 43  1  0  0  0
 42 66  1  0  0  0
 42111  1  0  0  0
 42112  1  0  0  0
 43 44  1  0  0  0
 44113  1  0  0  0
 45 46  2  0  0  0
 45114  1  0  0  0
 46115  1  0  0  0
 47116  1  0  0  0
 47117  1  0  0  0
 48 56  1  0  0  0
 48 65  1  0  0  0
 48118  1  0  0  0
 49 50  1  0  0  0
 49 53  1  0  0  0
 49 64  1  0  0  0
 49119  1  0  0  0
 50 51  1  0  0  0
 50120  1  0  0  0
 50121  1  0  0  0
 51 52  1  0  0  0
 51122  1  0  0  0
 51123  1  0  0  0
 52124  1  0  0  0
 52125  1  0  0  0
 53 54  1  0  0  0
 54 55  2  0  0  0
 54126  1  0  0  0
 55 57  1  0  0  0
 55127  1  0  0  0
 56 69  2  0  0  0
 57 58  2  0  0  0
 57128  1  0  0  0
 58129  1  0  0  0
 59 60  1  0  0  0
 59 61  1  0  0  0
 59 62  1  0  0  0
 60130  1  0  0  0
 60131  1  0  0  0
 60132  1  0  0  0
 61133  1  0  0  0
 61134  1  0  0  0
 61135  1  0  0  0
 62136  1  0  0  0
 62137  1  0  0  0
 62138  1  0  0  0
 63 65  1  0  0  0
 63139  1  0  0  0
 63140  1  0  0  0
 63141  1  0  0  0
 64142  1  0  0  0
 65143  1  0  0  0
 68 77  1  0  0  0
 71 72  2  0  0  0
 71 74  1  0  0  0
 71 78  1  0  0  0
 72 79  1  0  0  0
 72 84  1  0  0  0
 73 78  2  0  0  0
 73 80  1  0  0  0
 73 84  1  0  0  0
 74 81  1  0  0  0
 74 82  2  0  0  0
 75 77  1  0  0  0
 75 80  1  0  0  0
 75 83  2  0  0  0
 76144  1  0  0  0
 76145  1  0  0  0
 76146  1  0  0  0
 76 77  1  0  0  0
 77147  1  0  0  0
 79148  1  0  0  0
 79149  1  0  0  0
 80150  1  0  0  0
 81151  1  0  0  0
M  ISO  4   1 100  68 101  77 101  81 100
M  END
> <chiral flag>
0

> <version>
0

> <s_m_source_file>
/data/baiqing/PycharmProjects/Reinvent-master-3.2/result/LINK_invent/BTK/process_docking_weight1_custom_product_contain_oxygen_bond_distance_aromatic_linkinvent_7_9_3/rearranged_h_0181.sdf

> <i_m_source_file_index>
48

> <r_mmod_Potential_Energy-OPLS-2005>
290.439788818359

> <r_mmod_Stretch_Energy-OPLS-2005>
156.256240844727

> <r_mmod_Bend_Energy-OPLS-2005>
198.322875976562

> <r_mmod_Torsional_Energy-OPLS-2005>
298.385864257812

> <r_mmod_Improper_Torsional_Energy-OPLS-2005>
12.5217885971069

> <r_mmod_Van_der_Waal_Energy-OPLS-2005>
121.872337341309

> <r_mmod_Electrostatic_Energy-OPLS-2005>
-340.180389404297

> <r_mmod_Solvation_Energy-OPLS-2005>
-280.698089599609

> <b_mmod_Minimization_Converged-OPLS-2005>
0

> <r_mmod_RMS_Derivative-OPLS-2005>
1.49921035766602

$$$$
48
                    3D
 Structure written by MMmdl.
156164  0  0  1  0            999 V2000
  -30.5422  -15.0266   20.4482 C   0  0  0  0  0  0
  -30.4296  -12.6384   19.5471 C   0  0  0  0  0  0
  -29.5351  -12.5428   18.2854 C   0  0  0  0  0  0
  -28.0690  -12.3022   18.6842 C   0  0  0  0  0  0
  -27.6182  -13.2530   19.8196 C   0  0  2  0  0  0
  -28.6368  -13.3220   20.9703 C   0  0  0  0  0  0
  -25.2425  -13.8222   20.5689 C   0  0  0  0  0  0
  -24.1748  -13.0452   20.9234 C   0  0  0  0  0  0
  -24.6363  -11.6939   20.8727 C   0  0  0  0  0  0
  -23.9058  -10.4313   21.0400 C   0  0  0  0  0  0
  -24.3627   -9.4223   21.9164 C   0  0  0  0  0  0
  -23.6308   -8.2251   22.0736 C   0  0  0  0  0  0
  -22.4286   -8.0285   21.3533 C   0  0  0  0  0  0
  -21.9909   -9.0261   20.4635 C   0  0  0  0  0  0
  -22.7235  -10.2139   20.3045 C   0  0  0  0  0  0
  -21.6852   -6.0746   22.5286 C   0  0  0  0  0  0
  -21.4020   -6.5645   23.8225 C   0  0  0  0  0  0
  -21.3665   -5.6788   24.9178 C   0  0  0  0  0  0
  -21.6047   -4.3050   24.7218 C   0  0  0  0  0  0
  -21.8826   -3.8155   23.4337 C   0  0  0  0  0  0
  -21.9191   -4.6977   22.3399 C   0  0  0  0  0  0
  -22.7786  -13.5228   21.1918 C   0  0  0  0  0  0
  -22.1662   -4.2170   21.0972 F   0  0  0  0  0  0
  -21.5618   -3.4528   25.7724 F   0  0  0  0  0  0
  -29.9281  -13.7584   20.4137 N   0  0  0  0  0  0
  -26.2805  -12.9450   20.3090 N   0  0  0  0  0  0
  -25.9281  -11.6585   20.5656 N   0  0  0  0  0  0
  -22.0434  -12.8211   22.0461 N   0  0  0  0  0  0
  -25.4131  -15.1954   20.4186 N   0  0  0  0  0  0
  -31.7192  -15.0349   20.0617 O   0  0  0  0  0  0
  -21.6645   -6.8884   21.4244 O   0  0  0  0  0  0
  -22.3475  -14.5540   20.6768 O   0  0  0  0  0  0
  -24.6502  -31.8380   23.1839 C   0  0  0  0  0  0
  -25.9256  -32.4658   23.8242 C   0  0  1  0  0  0
  -27.2122  -27.0754   20.1594 C   0  0  0  0  0  0
  -25.5991  -33.8468   24.2155 N   0  0  0  0  0  0
  -23.4566  -30.4583   21.5290 C   0  0  2  0  0  0
  -24.9055  -28.8736   20.1123 C   0  0  0  0  0  0
  -22.7600  -29.4528   22.4811 C   0  0  0  0  0  0
  -18.0313  -28.1397   22.8475 C   0  0  0  0  0  0
  -24.1495  -36.7229   23.2642 C   0  0  0  0  0  0
  -26.0188  -30.6922   21.3924 C   0  0  0  0  0  0
  -26.0876  -29.2973   20.7344 C   0  0  0  0  0  0
  -27.2437  -28.4182   20.7348 C   0  0  0  0  0  0
  -26.0055  -26.7722   19.4911 C   0  0  0  0  0  0
  -24.8810  -27.6264   19.4718 C   0  0  0  0  0  0
  -23.6875  -29.7858   20.1503 C   0  0  0  0  0  0
  -25.4125  -36.2995   24.0304 C   0  0  1  0  0  0
  -20.5932  -28.3737   23.1212 C   0  0  2  0  0  0
  -20.6793  -26.9429   22.5397 C   0  0  0  0  0  0
  -19.5756  -26.6378   21.5214 C   0  0  0  0  0  0
  -18.1943  -26.7934   22.1624 C   0  0  0  0  0  0
  -19.1572  -28.8880   23.2840 C   0  0  0  0  0  0
  -18.9488  -30.1478   23.8873 C   0  0  0  0  0  0
  -17.6480  -30.6595   24.0555 C   0  0  0  0  0  0
  -25.9083  -34.9380   23.5019 C   0  0  0  0  0  0
  -16.5373  -29.9087   23.6333 C   0  0  0  0  0  0
  -16.7297  -28.6503   23.0363 C   0  0  0  0  0  0
  -26.4559  -31.6545   25.0700 C   0  0  0  0  0  0
  -25.3746  -31.3751   26.1391 C   0  0  0  0  0  0
  -27.0425  -30.2927   24.6315 C   0  0  0  0  0  0
  -27.6057  -32.4328   25.7504 C   0  0  0  0  0  0
  -27.5562  -37.1771   24.8463 C   0  0  0  0  0  0
  -21.4287  -29.3058   22.3573 N   0  0  0  0  0  0
  -26.4274  -37.3719   23.9400 N   0  0  0  0  0  0
  -24.7290  -31.0183   22.0900 N   0  0  0  0  0  0
  -23.4204  -28.8075   23.2986 O   0  0  0  0  0  0
  -28.2398  -26.0444   20.1957 O   0  0  0  0  0  0
  -26.5665  -34.8895   22.4594 O   0  0  0  0  0  0
  -23.5609  -32.1291   23.7024 O   0  0  0  0  0  0
  -28.9190  -18.2820   21.8051 C   0  0  0  0  0  0
  -29.4155  -18.8305   20.6390 C   0  0  0  0  0  0
  -29.8686  -16.4874   20.7350 C   0  0  0  0  0  0
  -28.8621  -23.1881   20.1093 C   0  0  0  0  0  0
  -29.7335  -16.7492   24.3357 C   0  0  0  0  0  0
  -29.0665  -21.7437   22.2612 C   0  0  0  0  0  0
  -27.8786  -24.5180   20.4365 C   0  0  0  0  0  0
  -29.0891  -16.1050   23.0973 C   0  0  0  0  0  0
  -28.7023  -21.5963   20.7735 C   0  0  2  0  0  0
  -29.2796  -16.9225   21.8832 N   0  0  0  0  0  0
  -30.0158  -17.6803   20.0138 N   0  3  0  0  0  0
  -29.3828  -20.2770   20.2001 N   0  0  0  0  0  0
  -29.7877  -23.3779   19.3151 O   0  0  0  0  0  0
  -31.4712  -12.7687   19.2500 H   0  0  0  0  0  0
  -30.4117  -11.6970   20.0988 H   0  0  0  0  0  0
  -29.8832  -11.7360   17.6391 H   0  0  0  0  0  0
  -29.6165  -13.4613   17.7026 H   0  0  0  0  0  0
  -27.9856  -11.2678   19.0211 H   0  0  0  0  0  0
  -27.4125  -12.3930   17.8175 H   0  0  0  0  0  0
  -27.5744  -14.2465   19.3707 H   0  0  0  0  0  0
  -28.7290  -12.3592   21.4760 H   0  0  0  0  0  0
  -28.2515  -14.0117   21.7130 H   0  0  0  0  0  0
  -25.2767   -9.5711   22.4741 H   0  0  0  0  0  0
  -24.0024   -7.4643   22.7455 H   0  0  0  0  0  0
  -21.0837   -8.8791   19.8945 H   0  0  0  0  0  0
  -22.3685  -10.9688   19.6168 H   0  0  0  0  0  0
  -21.2022   -7.6156   23.9743 H   0  0  0  0  0  0
  -21.1468   -6.0500   25.9080 H   0  0  0  0  0  0
  -22.0593   -2.7622   23.2820 H   0  0  0  0  0  0
  -22.4043  -11.9870   22.4849 H   0  0  0  0  0  0
  -21.1058  -13.1236   22.2708 H   0  0  0  0  0  0
  -24.6395  -15.8420   20.5251 H   0  0  0  0  0  0
  -26.2469  -15.6356   20.0543 H   0  0  0  0  0  0
  -26.7308  -32.5224   23.0955 H   0  0  0  0  0  0
  -25.0161  -33.9576   25.0318 H   0  0  0  0  0  0
  -22.7626  -31.2858   21.3710 H   0  0  0  0  0  0
  -23.3758  -35.9558   23.3292 H   0  0  0  0  0  0
  -24.3591  -36.8873   22.2061 H   0  0  0  0  0  0
  -23.7262  -37.6421   23.6700 H   0  0  0  0  0  0
  -26.1833  -31.4430   20.6193 H   0  0  0  0  0  0
  -26.8868  -30.7413   22.0383 H   0  0  0  0  0  0
  -28.1475  -28.7409   21.2339 H   0  0  0  0  0  0
  -25.9026  -25.8302   18.9761 H   0  0  0  0  0  0
  -23.9841  -27.2994   18.9634 H   0  0  0  0  0  0
  -23.8350  -30.5593   19.3965 H   0  0  0  0  0  0
  -22.8001  -29.2362   19.8343 H   0  0  0  0  0  0
  -25.1328  -36.1800   25.0800 H   0  0  0  0  0  0
  -21.0036  -28.3341   24.1325 H   0  0  0  0  0  0
  -20.5688  -26.2357   23.3634 H   0  0  0  0  0  0
  -21.6660  -26.7421   22.1193 H   0  0  0  0  0  0
  -19.6919  -25.6284   21.1258 H   0  0  0  0  0  0
  -19.6687  -27.3179   20.6739 H   0  0  0  0  0  0
  -17.4212  -26.6687   21.4027 H   0  0  0  0  0  0
  -18.0336  -26.0088   22.9029 H   0  0  0  0  0  0
  -19.7970  -30.7298   24.2228 H   0  0  0  0  0  0
  -17.5042  -31.6273   24.5161 H   0  0  0  0  0  0
  -15.5376  -30.2978   23.7682 H   0  0  0  0  0  0
  -15.8701  -28.0819   22.7083 H   0  0  0  0  0  0
  -24.5907  -30.7121   25.7721 H   0  0  0  0  0  0
  -24.8970  -32.2943   26.4790 H   0  0  0  0  0  0
  -25.8038  -30.8938   27.0185 H   0  0  0  0  0  0
  -26.3050  -29.6642   24.1310 H   0  0  0  0  0  0
  -27.4006  -29.7244   25.4908 H   0  0  0  0  0  0
  -27.8977  -30.4145   23.9665 H   0  0  0  0  0  0
  -27.2618  -33.3638   26.2026 H   0  0  0  0  0  0
  -28.3915  -32.6876   25.0384 H   0  0  0  0  0  0
  -28.0674  -31.8495   26.5478 H   0  0  0  0  0  0
  -28.2570  -38.0077   24.7499 H   0  0  0  0  0  0
  -28.1066  -36.2599   24.6303 H   0  0  0  0  0  0
  -27.2277  -37.1434   25.8868 H   0  0  0  0  0  0
  -20.9508  -29.8773   21.6754 H   0  0  0  0  0  0
  -26.0121  -38.2766   24.1435 H   0  0  0  0  0  0
  -28.4011  -18.7599   22.6200 H   0  0  0  0  0  0
  -29.5946  -16.1190   25.2143 H   0  0  0  0  0  0
  -29.3046  -17.7247   24.5630 H   0  0  0  0  0  0
  -30.8070  -16.8779   24.1947 H   0  0  0  0  0  0
  -28.6443  -22.6525   22.6924 H   0  0  0  0  0  0
  -30.1484  -21.7946   22.3977 H   0  0  0  0  0  0
  -28.6857  -20.9236   22.8643 H   0  0  0  0  0  0
  -27.6009  -24.4354   21.4866 H   0  0  0  0  0  0
  -26.9631  -24.3042   19.8881 H   0  0  0  0  0  0
  -28.0187  -15.9526   23.2415 H   0  0  0  0  0  0
  -29.5549  -15.1311   22.9722 H   0  0  0  0  0  0
  -27.6333  -21.3812   20.7371 H   0  0  0  0  0  0
  -30.5275  -17.7125   19.1421 H   0  0  0  0  0  0
  -29.8841  -20.4571   19.3369 H   0  0  0  0  0  0
  1 25  1  0  0  0
  1 30  2  0  0  0
  1 73  1  0  0  0
  2  3  1  0  0  0
  2 25  1  0  0  0
  2 84  1  0  0  0
  2 85  1  0  0  0
  3  4  1  0  0  0
  3 86  1  0  0  0
  3 87  1  0  0  0
  4  5  1  0  0  0
  4 88  1  0  0  0
  4 89  1  0  0  0
  5  6  1  0  0  0
  5 26  1  0  0  0
  5 90  1  0  0  0
  6 25  1  0  0  0
  6 91  1  0  0  0
  6 92  1  0  0  0
  7  8  2  0  0  0
  7 26  1  0  0  0
  7 29  1  0  0  0
  8  9  1  0  0  0
  8 22  1  0  0  0
  9 10  1  0  0  0
  9 27  2  0  0  0
 10 11  2  0  0  0
 10 15  1  0  0  0
 11 12  1  0  0  0
 11 93  1  0  0  0
 12 13  2  0  0  0
 12 94  1  0  0  0
 13 14  1  0  0  0
 13 31  1  0  0  0
 14 15  2  0  0  0
 14 95  1  0  0  0
 15 96  1  0  0  0
 16 17  2  0  0  0
 16 21  1  0  0  0
 16 31  1  0  0  0
 17 18  1  0  0  0
 17 97  1  0  0  0
 18 19  2  0  0  0
 18 98  1  0  0  0
 19 20  1  0  0  0
 19 24  1  0  0  0
 20 21  2  0  0  0
 20 99  1  0  0  0
 21 23  1  0  0  0
 22 28  1  0  0  0
 22 32  2  0  0  0
 26 27  1  0  0  0
 28100  1  0  0  0
 28101  1  0  0  0
 29102  1  0  0  0
 29103  1  0  0  0
 33 34  1  0  0  0
 33 66  1  0  0  0
 33 70  2  0  0  0
 34 36  1  0  0  0
 34 59  1  0  0  0
 34104  1  0  0  0
 35 44  2  0  0  0
 35 45  1  0  0  0
 35 68  1  0  0  0
 36 56  1  0  0  0
 36105  1  0  0  0
 37 39  1  0  0  0
 37 47  1  0  0  0
 37 66  1  0  0  0
 37106  1  0  0  0
 38 43  2  0  0  0
 38 46  1  0  0  0
 38 47  1  0  0  0
 39 64  1  0  0  0
 39 67  2  0  0  0
 40 52  1  0  0  0
 40 53  2  0  0  0
 40 58  1  0  0  0
 41107  1  0  0  0
 41108  1  0  0  0
 41109  1  0  0  0
 41 48  1  0  0  0
 42 43  1  0  0  0
 42 66  1  0  0  0
 42110  1  0  0  0
 42111  1  0  0  0
 43 44  1  0  0  0
 44112  1  0  0  0
 45 46  2  0  0  0
 45113  1  0  0  0
 46114  1  0  0  0
 47115  1  0  0  0
 47116  1  0  0  0
 48 56  1  0  0  0
 48 65  1  0  0  0
 48117  1  0  0  0
 49 50  1  0  0  0
 49 53  1  0  0  0
 49 64  1  0  0  0
 49118  1  0  0  0
 50 51  1  0  0  0
 50119  1  0  0  0
 50120  1  0  0  0
 51 52  1  0  0  0
 51121  1  0  0  0
 51122  1  0  0  0
 52123  1  0  0  0
 52124  1  0  0  0
 53 54  1  0  0  0
 54 55  2  0  0  0
 54125  1  0  0  0
 55 57  1  0  0  0
 55126  1  0  0  0
 56 69  2  0  0  0
 57 58  2  0  0  0
 57127  1  0  0  0
 58128  1  0  0  0
 59 60  1  0  0  0
 59 61  1  0  0  0
 59 62  1  0  0  0
 60129  1  0  0  0
 60130  1  0  0  0
 60131  1  0  0  0
 61132  1  0  0  0
 61133  1  0  0  0
 61134  1  0  0  0
 62135  1  0  0  0
 62136  1  0  0  0
 62137  1  0  0  0
 63 65  1  0  0  0
 63138  1  0  0  0
 63139  1  0  0  0
 63140  1  0  0  0
 64141  1  0  0  0
 65142  1  0  0  0
 68 77  1  0  0  0
 71 72  2  0  0  0
 71 80  1  0  0  0
 71143  1  0  0  0
 72 81  1  0  0  0
 72 82  1  0  0  0
 73 80  1  0  0  0
 73 81  2  0  0  0
 74 77  1  0  0  0
 74 79  1  0  0  0
 74 83  2  0  0  0
 75 78  1  0  0  0
 75144  1  0  0  0
 75145  1  0  0  0
 75146  1  0  0  0
 76147  1  0  0  0
 76148  1  0  0  0
 76149  1  0  0  0
 76 79  1  0  0  0
 77150  1  0  0  0
 77151  1  0  0  0
 78 80  1  0  0  0
 78152  1  0  0  0
 78153  1  0  0  0
 79 82  1  0  0  0
 79154  1  0  0  0
 81155  1  0  0  0
 82156  1  0  0  0
M  CHG  1  81   1
M  ISO  4   1 100  68 101  73 100  77 101
M  END
> <chiral flag>
0

> <version>
0

> <s_m_source_file>
/data/baiqing/PycharmProjects/Reinvent-master-3.2/result/LINK_invent/BTK/process_docking_weight1_custom_product_contain_oxygen_bond_distance_aromatic_linkinvent_7_9_3/rearranged_h_0181.sdf

> <i_m_source_file_index>
49

> <r_mmod_Potential_Energy-OPLS-2005>
582.594360351562

> <r_mmod_Stretch_Energy-OPLS-2005>
320.529754638672

> <r_mmod_Bend_Energy-OPLS-2005>
317.404449462891

> <r_mmod_Torsional_Energy-OPLS-2005>
232.719314575195

> <r_mmod_Improper_Torsional_Energy-OPLS-2005>
5.86982011795044

> <r_mmod_Van_der_Waal_Energy-OPLS-2005>
110.382057189941

> <r_mmod_Electrostatic_Energy-OPLS-2005>
-202.332489013672

> <r_mmod_Solvation_Energy-OPLS-2005>
-448.896820068359

> <b_mmod_Minimization_Converged-OPLS-2005>
0

> <r_mmod_RMS_Derivative-OPLS-2005>
2.30225920677185

$$$$
49
                    3D
 Structure written by MMmdl.
154162  0  0  1  0            999 V2000
  -30.6051  -14.7341   20.4402 C   0  0  0  0  0  0
  -30.4306  -12.4394   19.4852 C   0  0  0  0  0  0
  -29.5157  -12.5033   18.2420 C   0  0  0  0  0  0
  -28.0373  -12.3390   18.6454 C   0  0  0  0  0  0
  -27.6432  -13.2341   19.8502 C   0  0  2  0  0  0
  -28.6832  -13.1590   20.9895 C   0  0  0  0  0  0
  -25.2505  -13.8206   20.5678 C   0  0  0  0  0  0
  -24.1791  -13.0453   20.9198 C   0  0  0  0  0  0
  -24.6385  -11.6935   20.8740 C   0  0  0  0  0  0
  -23.9070  -10.4301   21.0394 C   0  0  0  0  0  0
  -24.3621   -9.4220   21.9169 C   0  0  0  0  0  0
  -23.6299   -8.2250   22.0748 C   0  0  0  0  0  0
  -22.4275   -8.0282   21.3547 C   0  0  0  0  0  0
  -21.9911   -9.0256   20.4647 C   0  0  0  0  0  0
  -22.7240  -10.2136   20.3047 C   0  0  0  0  0  0
  -21.6856   -6.0733   22.5276 C   0  0  0  0  0  0
  -21.4013   -6.5634   23.8209 C   0  0  0  0  0  0
  -21.3660   -5.6788   24.9174 C   0  0  0  0  0  0
  -21.6046   -4.3055   24.7221 C   0  0  0  0  0  0
  -21.8817   -3.8146   23.4342 C   0  0  0  0  0  0
  -21.9186   -4.6960   22.3399 C   0  0  0  0  0  0
  -22.7805  -13.5233   21.1861 C   0  0  0  0  0  0
  -22.1656   -4.2145   21.0976 F   0  0  0  0  0  0
  -21.5638   -3.4539   25.7738 F   0  0  0  0  0  0
  -29.9907  -13.5028   20.4181 N   0  0  0  0  0  0
  -26.2934  -12.9426   20.3260 N   0  0  0  0  0  0
  -25.9314  -11.6567   20.5731 N   0  0  0  0  0  0
  -22.0445  -12.8226   22.0417 N   0  0  0  0  0  0
  -25.4217  -15.1929   20.4087 N   0  0  0  0  0  0
  -31.7954  -14.8287   20.1256 O   0  0  0  0  0  0
  -21.6645   -6.8879   21.4241 O   0  0  0  0  0  0
  -22.3482  -14.5537   20.6707 O   0  0  0  0  0  0
  -24.6306  -31.8552   23.1959 C   0  0  0  0  0  0
  -25.9135  -32.4749   23.8306 C   0  0  1  0  0  0
  -27.2241  -27.2677   20.1248 C   0  0  0  0  0  0
  -25.5933  -33.8552   24.2237 N   0  0  0  0  0  0
  -23.4262  -30.4758   21.5397 C   0  0  2  0  0  0
  -24.8724  -28.9203   20.1063 C   0  0  0  0  0  0
  -22.7498  -29.4599   22.4917 C   0  0  0  0  0  0
  -18.0293  -28.1392   22.8483 C   0  0  0  0  0  0
  -24.1493  -36.7280   23.2639 C   0  0  0  0  0  0
  -25.9694  -30.7702   21.3718 C   0  0  0  0  0  0
  -26.0410  -29.3923   20.7154 C   0  0  0  0  0  0
  -27.2150  -28.5764   20.7153 C   0  0  0  0  0  0
  -26.0291  -26.8544   19.4953 C   0  0  0  0  0  0
  -24.8716  -27.6599   19.4870 C   0  0  0  0  0  0
  -23.6419  -29.8058   20.1556 C   0  0  0  0  0  0
  -25.4122  -36.3066   24.0323 C   0  0  1  0  0  0
  -20.5895  -28.3703   23.1276 C   0  0  2  0  0  0
  -20.6784  -26.9425   22.5412 C   0  0  0  0  0  0
  -19.5758  -26.6390   21.5216 C   0  0  0  0  0  0
  -18.1936  -26.7936   22.1625 C   0  0  0  0  0  0
  -19.1545  -28.8864   23.2873 C   0  0  0  0  0  0
  -18.9467  -30.1463   23.8894 C   0  0  0  0  0  0
  -17.6467  -30.6594   24.0562 C   0  0  0  0  0  0
  -25.9062  -34.9440   23.5084 C   0  0  0  0  0  0
  -16.5359  -29.9091   23.6326 C   0  0  0  0  0  0
  -16.7280  -28.6508   23.0351 C   0  0  0  0  0  0
  -26.4503  -31.6575   25.0691 C   0  0  0  0  0  0
  -25.3722  -31.3721   26.1408 C   0  0  0  0  0  0
  -27.0344  -30.2995   24.6160 C   0  0  0  0  0  0
  -27.6059  -32.4310   25.7469 C   0  0  0  0  0  0
  -27.5584  -37.1795   24.8466 C   0  0  0  0  0  0
  -21.4207  -29.3043   22.3663 N   0  0  0  0  0  0
  -26.4293  -37.3769   23.9410 N   0  0  0  0  0  0
  -24.6946  -31.0522   22.0924 N   0  0  0  0  0  0
  -23.4201  -28.8163   23.3033 O   0  0  0  0  0  0
  -28.3434  -26.4125   20.2232 O   0  0  0  0  0  0
  -26.5641  -34.8922   22.4656 O   0  0  0  0  0  0
  -23.5460  -32.1381   23.7257 O   0  0  0  0  0  0
  -29.4369  -18.4687   20.5702 C   0  0  0  0  0  0
  -29.7424  -19.6464   18.4781 C   0  0  0  0  0  0
  -29.3853  -19.7382   19.8422 C   0  0  0  0  0  0
  -29.8767  -17.1991   19.9882 C   0  0  0  0  0  0
  -30.1845  -18.4485   17.8903 C   0  0  0  0  0  0
  -30.2556  -17.2493   18.6227 C   0  0  0  0  0  0
  -28.4643  -23.7308   20.4452 C   0  0  0  0  0  0
  -30.2584  -22.6599   18.8584 C   0  0  0  0  0  0
  -28.4589  -25.0725   19.5541 C   0  0  0  0  0  0
  -29.4336  -22.4408   20.1415 C   0  0  2  0  0  0
  -29.8320  -15.8682   20.6633 N   0  0  0  0  0  0
  -28.9104  -21.0138   20.3729 N   0  0  0  0  0  0
  -27.6931  -23.6828   21.4074 O   0  0  0  0  0  0
  -30.5131  -18.4425   16.5750 F   0  0  0  0  0  0
  -30.6244  -16.1283   17.9575 F   0  0  0  0  0  0
  -31.4756  -12.5523   19.1925 H   0  0  0  0  0  0
  -30.3622  -11.4624   19.9655 H   0  0  0  0  0  0
  -29.7969  -11.7294   17.5264 H   0  0  0  0  0  0
  -29.6548  -13.4573   17.7312 H   0  0  0  0  0  0
  -27.8773  -11.2898   18.8959 H   0  0  0  0  0  0
  -27.3887  -12.5484   17.7944 H   0  0  0  0  0  0
  -27.6433  -14.2572   19.4724 H   0  0  0  0  0  0
  -28.7093  -12.1599   21.4266 H   0  0  0  0  0  0
  -28.4195  -13.8393   21.8001 H   0  0  0  0  0  0
  -25.2763   -9.5704   22.4747 H   0  0  0  0  0  0
  -24.0011   -7.4644   22.7460 H   0  0  0  0  0  0
  -21.0847   -8.8778   19.8952 H   0  0  0  0  0  0
  -22.3694  -10.9675   19.6158 H   0  0  0  0  0  0
  -21.2009   -7.6144   23.9719 H   0  0  0  0  0  0
  -21.1486   -6.0515   25.9079 H   0  0  0  0  0  0
  -22.0597   -2.7607   23.2843 H   0  0  0  0  0  0
  -22.4061  -11.9893   22.4823 H   0  0  0  0  0  0
  -21.1060  -13.1249   22.2617 H   0  0  0  0  0  0
  -24.6572  -15.8506   20.5132 H   0  0  0  0  0  0
  -26.2710  -15.6280   20.0736 H   0  0  0  0  0  0
  -26.7199  -32.5401   23.1045 H   0  0  0  0  0  0
  -25.0067  -33.9680   25.0373 H   0  0  0  0  0  0
  -22.7225  -31.2978   21.3931 H   0  0  0  0  0  0
  -23.3757  -35.9608   23.3290 H   0  0  0  0  0  0
  -24.3588  -36.8913   22.2056 H   0  0  0  0  0  0
  -23.7242  -37.6476   23.6670 H   0  0  0  0  0  0
  -26.1045  -31.5296   20.6002 H   0  0  0  0  0  0
  -26.8491  -30.8218   22.0018 H   0  0  0  0  0  0
  -28.1105  -28.9330   21.2055 H   0  0  0  0  0  0
  -25.9437  -25.8810   19.0386 H   0  0  0  0  0  0
  -23.9733  -27.2878   19.0135 H   0  0  0  0  0  0
  -23.7638  -30.5809   19.3982 H   0  0  0  0  0  0
  -22.7600  -29.2372   19.8535 H   0  0  0  0  0  0
  -25.1302  -36.1908   25.0815 H   0  0  0  0  0  0
  -20.9983  -28.3283   24.1399 H   0  0  0  0  0  0
  -20.5703  -26.2311   23.3617 H   0  0  0  0  0  0
  -21.6652  -26.7466   22.1198 H   0  0  0  0  0  0
  -19.6925  -25.6298   21.1250 H   0  0  0  0  0  0
  -19.6696  -27.3196   20.6744 H   0  0  0  0  0  0
  -17.4214  -26.6685   21.4020 H   0  0  0  0  0  0
  -18.0334  -26.0080   22.9024 H   0  0  0  0  0  0
  -19.7943  -30.7278   24.2268 H   0  0  0  0  0  0
  -17.5022  -31.6274   24.5163 H   0  0  0  0  0  0
  -15.5358  -30.2996   23.7650 H   0  0  0  0  0  0
  -15.8679  -28.0825   22.7069 H   0  0  0  0  0  0
  -24.5907  -30.7061   25.7733 H   0  0  0  0  0  0
  -24.8893  -32.2883   26.4817 H   0  0  0  0  0  0
  -25.8031  -30.8913   27.0195 H   0  0  0  0  0  0
  -26.2910  -29.6742   24.1199 H   0  0  0  0  0  0
  -27.4057  -29.7264   25.4665 H   0  0  0  0  0  0
  -27.8777  -30.4282   23.9369 H   0  0  0  0  0  0
  -27.2675  -33.3623   26.2028 H   0  0  0  0  0  0
  -28.3878  -32.6851   25.0298 H   0  0  0  0  0  0
  -28.0715  -31.8440   26.5397 H   0  0  0  0  0  0
  -28.2595  -38.0099   24.7522 H   0  0  0  0  0  0
  -28.1084  -36.2629   24.6276 H   0  0  0  0  0  0
  -27.2301  -37.1427   25.8869 H   0  0  0  0  0  0
  -20.9405  -29.8740   21.6840 H   0  0  0  0  0  0
  -26.0167  -38.2841   24.1408 H   0  0  0  0  0  0
  -29.1176  -18.4616   21.6023 H   0  0  0  0  0  0
  -29.6406  -20.4872   17.8165 H   0  0  0  0  0  0
  -30.7947  -23.6078   18.8891 H   0  0  0  0  0  0
  -29.6342  -22.6648   17.9645 H   0  0  0  0  0  0
  -31.0461  -21.9162   18.7484 H   0  0  0  0  0  0
  -27.7110  -24.9491   18.7749 H   0  0  0  0  0  0
  -29.3984  -25.1233   19.0113 H   0  0  0  0  0  0
  -30.1844  -22.5119   20.9300 H   0  0  0  0  0  0
  -28.9732  -15.6835   21.1584 H   0  0  0  0  0  0
  -28.3838  -20.9475   21.2428 H   0  0  0  0  0  0
  1 25  1  0  0  0
  1 30  2  0  0  0
  1 81  1  0  0  0
  2  3  1  0  0  0
  2 25  1  0  0  0
  2 86  1  0  0  0
  2 87  1  0  0  0
  3  4  1  0  0  0
  3 88  1  0  0  0
  3 89  1  0  0  0
  4  5  1  0  0  0
  4 90  1  0  0  0
  4 91  1  0  0  0
  5  6  1  0  0  0
  5 26  1  0  0  0
  5 92  1  0  0  0
  6 25  1  0  0  0
  6 93  1  0  0  0
  6 94  1  0  0  0
  7  8  2  0  0  0
  7 26  1  0  0  0
  7 29  1  0  0  0
  8  9  1  0  0  0
  8 22  1  0  0  0
  9 10  1  0  0  0
  9 27  2  0  0  0
 10 11  2  0  0  0
 10 15  1  0  0  0
 11 12  1  0  0  0
 11 95  1  0  0  0
 12 13  2  0  0  0
 12 96  1  0  0  0
 13 14  1  0  0  0
 13 31  1  0  0  0
 14 15  2  0  0  0
 14 97  1  0  0  0
 15 98  1  0  0  0
 16 17  2  0  0  0
 16 21  1  0  0  0
 16 31  1  0  0  0
 17 18  1  0  0  0
 17 99  1  0  0  0
 18 19  2  0  0  0
 18100  1  0  0  0
 19 20  1  0  0  0
 19 24  1  0  0  0
 20 21  2  0  0  0
 20101  1  0  0  0
 21 23  1  0  0  0
 22 28  1  0  0  0
 22 32  2  0  0  0
 26 27  1  0  0  0
 28102  1  0  0  0
 28103  1  0  0  0
 29104  1  0  0  0
 29105  1  0  0  0
 33 34  1  0  0  0
 33 66  1  0  0  0
 33 70  2  0  0  0
 34 36  1  0  0  0
 34 59  1  0  0  0
 34106  1  0  0  0
 35 44  2  0  0  0
 35 45  1  0  0  0
 35 68  1  0  0  0
 36 56  1  0  0  0
 36107  1  0  0  0
 37 39  1  0  0  0
 37 47  1  0  0  0
 37 66  1  0  0  0
 37108  1  0  0  0
 38 43  2  0  0  0
 38 46  1  0  0  0
 38 47  1  0  0  0
 39 64  1  0  0  0
 39 67  2  0  0  0
 40 52  1  0  0  0
 40 53  2  0  0  0
 40 58  1  0  0  0
 41109  1  0  0  0
 41110  1  0  0  0
 41111  1  0  0  0
 41 48  1  0  0  0
 42 43  1  0  0  0
 42 66  1  0  0  0
 42112  1  0  0  0
 42113  1  0  0  0
 43 44  1  0  0  0
 44114  1  0  0  0
 45 46  2  0  0  0
 45115  1  0  0  0
 46116  1  0  0  0
 47117  1  0  0  0
 47118  1  0  0  0
 48 56  1  0  0  0
 48 65  1  0  0  0
 48119  1  0  0  0
 49 50  1  0  0  0
 49 53  1  0  0  0
 49 64  1  0  0  0
 49120  1  0  0  0
 50 51  1  0  0  0
 50121  1  0  0  0
 50122  1  0  0  0
 51 52  1  0  0  0
 51123  1  0  0  0
 51124  1  0  0  0
 52125  1  0  0  0
 52126  1  0  0  0
 53 54  1  0  0  0
 54 55  2  0  0  0
 54127  1  0  0  0
 55 57  1  0  0  0
 55128  1  0  0  0
 56 69  2  0  0  0
 57 58  2  0  0  0
 57129  1  0  0  0
 58130  1  0  0  0
 59 60  1  0  0  0
 59 61  1  0  0  0
 59 62  1  0  0  0
 60131  1  0  0  0
 60132  1  0  0  0
 60133  1  0  0  0
 61134  1  0  0  0
 61135  1  0  0  0
 61136  1  0  0  0
 62137  1  0  0  0
 62138  1  0  0  0
 62139  1  0  0  0
 63 65  1  0  0  0
 63140  1  0  0  0
 63141  1  0  0  0
 63142  1  0  0  0
 64143  1  0  0  0
 65144  1  0  0  0
 68 79  1  0  0  0
 71 73  2  0  0  0
 71 74  1  0  0  0
 71145  1  0  0  0
 72 73  1  0  0  0
 72 75  2  0  0  0
 72146  1  0  0  0
 73 82  1  0  0  0
 74 76  2  0  0  0
 74 81  1  0  0  0
 75 76  1  0  0  0
 75 84  1  0  0  0
 76 85  1  0  0  0
 77 79  1  0  0  0
 77 80  1  0  0  0
 77 83  2  0  0  0
 78147  1  0  0  0
 78148  1  0  0  0
 78149  1  0  0  0
 78 80  1  0  0  0
 79150  1  0  0  0
 79151  1  0  0  0
 80 82  1  0  0  0
 80152  1  0  0  0
 81153  1  0  0  0
 82154  1  0  0  0
M  ISO  4   1 100  68 101  79 101  81 100
M  END
> <chiral flag>
0

> <version>
0

> <s_m_source_file>
/data/baiqing/PycharmProjects/Reinvent-master-3.2/result/LINK_invent/BTK/process_docking_weight1_custom_product_contain_oxygen_bond_distance_aromatic_linkinvent_7_9_3/rearranged_h_0181.sdf

> <i_m_source_file_index>
50

> <r_mmod_Potential_Energy-OPLS-2005>
275.486572265625

> <r_mmod_Stretch_Energy-OPLS-2005>
136.955459594727

> <r_mmod_Bend_Energy-OPLS-2005>
195.84326171875

> <r_mmod_Torsional_Energy-OPLS-2005>
245.884979248047

> <r_mmod_Improper_Torsional_Energy-OPLS-2005>
6.69718980789185

> <r_mmod_Van_der_Waal_Energy-OPLS-2005>
148.35774230957

> <r_mmod_Electrostatic_Energy-OPLS-2005>
-300.542663574219

> <r_mmod_Solvation_Energy-OPLS-2005>
-238.228149414062

> <b_mmod_Minimization_Converged-OPLS-2005>
0

> <r_mmod_RMS_Derivative-OPLS-2005>
1.42837882041931

$$$$
50
                    3D
 Structure written by MMmdl.
143150  0  0  1  0            999 V2000
  -30.2175  -15.8040   20.3030 C   0  0  0  0  0  0
  -30.4204  -13.1942   19.5726 C   0  0  0  0  0  0
  -29.5731  -12.7005   18.3567 C   0  0  0  0  0  0
  -28.1524  -12.3073   18.7879 C   0  0  0  0  0  0
  -27.5848  -13.3288   19.7948 C   0  0  2  0  0  0
  -28.5752  -13.7361   20.9095 C   0  0  0  0  0  0
  -25.2265  -13.8304   20.5772 C   0  0  0  0  0  0
  -24.1690  -13.0433   20.9303 C   0  0  0  0  0  0
  -24.6419  -11.6950   20.8740 C   0  0  0  0  0  0
  -23.9132  -10.4291   21.0383 C   0  0  0  0  0  0
  -24.3664   -9.4201   21.9167 C   0  0  0  0  0  0
  -23.6319   -8.2242   22.0745 C   0  0  0  0  0  0
  -22.4298   -8.0282   21.3543 C   0  0  0  0  0  0
  -21.9944   -9.0256   20.4643 C   0  0  0  0  0  0
  -22.7290  -10.2128   20.3041 C   0  0  0  0  0  0
  -21.6857   -6.0741   22.5281 C   0  0  0  0  0  0
  -21.4017   -6.5644   23.8213 C   0  0  0  0  0  0
  -21.3657   -5.6796   24.9179 C   0  0  0  0  0  0
  -21.6046   -4.3059   24.7228 C   0  0  0  0  0  0
  -21.8817   -3.8149   23.4350 C   0  0  0  0  0  0
  -21.9196   -4.6967   22.3405 C   0  0  0  0  0  0
  -22.7700  -13.5142   21.1954 C   0  0  0  0  0  0
  -22.1662   -4.2150   21.0983 F   0  0  0  0  0  0
  -21.5630   -3.4542   25.7742 F   0  0  0  0  0  0
  -29.7508  -14.3931   20.2799 N   0  0  0  0  0  0
  -26.2722  -12.9669   20.3124 N   0  0  0  0  0  0
  -25.9363  -11.6725   20.5609 N   0  0  0  0  0  0
  -22.0380  -12.8101   22.0505 N   0  0  0  0  0  0
  -25.3838  -15.2048   20.4224 N   0  0  0  0  0  0
  -31.4628  -15.7195   20.1949 O   0  0  0  0  0  0
  -21.6650   -6.8883   21.4244 O   0  0  0  0  0  0
  -22.3360  -14.5441   20.6800 O   0  0  0  0  0  0
  -24.6960  -31.7863   23.1419 C   0  0  0  0  0  0
  -25.9485  -32.4398   23.8003 C   0  0  1  0  0  0
  -27.2247  -26.5787   20.2431 C   0  0  0  0  0  0
  -25.6016  -33.8225   24.1884 N   0  0  0  0  0  0
  -23.5253  -30.3847   21.4988 C   0  0  2  0  0  0
  -24.9805  -28.6948   20.1312 C   0  0  0  0  0  0
  -22.7810  -29.4263   22.4682 C   0  0  0  0  0  0
  -18.0347  -28.1420   22.8477 C   0  0  0  0  0  0
  -24.1484  -36.7108   23.2655 C   0  0  0  0  0  0
  -26.1113  -30.4800   21.4228 C   0  0  0  0  0  0
  -26.1734  -29.0290   20.7826 C   0  0  0  0  0  0
  -27.2781  -28.0056   20.7959 C   0  0  0  0  0  0
  -25.9952  -26.4836   19.5355 C   0  0  0  0  0  0
  -24.9358  -27.4476   19.4846 C   0  0  0  0  0  0
  -23.7855  -29.6681   20.1414 C   0  0  0  0  0  0
  -25.4136  -36.2846   24.0284 C   0  0  1  0  0  0
  -20.5996  -28.3788   23.1120 C   0  0  2  0  0  0
  -20.6793  -26.9431   22.5409 C   0  0  0  0  0  0
  -19.5764  -26.6366   21.5226 C   0  0  0  0  0  0
  -18.1953  -26.7951   22.1634 C   0  0  0  0  0  0
  -19.1622  -28.8929   23.2778 C   0  0  0  0  0  0
  -18.9526  -30.1509   23.8831 C   0  0  0  0  0  0
  -17.6515  -30.6610   24.0554 C   0  0  0  0  0  0
  -25.9134  -34.9248   23.4928 C   0  0  0  0  0  0
  -16.5406  -29.9098   23.6360 C   0  0  0  0  0  0
  -16.7324  -28.6512   23.0394 C   0  0  0  0  0  0
  -26.4604  -31.6481   25.0677 C   0  0  0  0  0  0
  -25.3642  -31.3862   26.1278 C   0  0  0  0  0  0
  -27.0547  -30.2805   24.6661 C   0  0  0  0  0  0
  -27.6021  -32.4369   25.7513 C   0  0  0  0  0  0
  -27.5548  -37.1707   24.8470 C   0  0  0  0  0  0
  -21.4449  -29.3024   22.3428 N   0  0  0  0  0  0
  -26.4242  -37.3631   23.9427 N   0  0  0  0  0  0
  -24.8024  -30.9198   22.0735 N   0  0  0  0  0  0
  -23.4199  -28.7877   23.3075 O   0  0  0  0  0  0
  -28.2022  -25.3265   20.2184 O   0  0  0  0  0  0
  -26.5774  -34.8857   22.4548 O   0  0  0  0  0  0
  -23.5957  -32.0993   23.6307 O   0  0  0  0  0  0
  -26.8469  -23.3876   21.2684 C   0  0  0  0  0  0
  -28.6712  -21.6680   19.9633 C   0  0  0  0  0  0
  -28.2102  -23.5337   20.5825 C   0  0  1  0  0  0
  -29.4191  -17.3158   20.2849 N   0  0  0  0  0  0
  -29.0418  -19.5029   22.1537 O   0  0  0  0  0  0
  -30.9834  -19.7297   20.6269 O   0  0  0  0  0  0
  -29.5336  -19.5020   20.7643 S   0  0  0  0  0  0
  -31.4080  -13.4749   19.2061 H   0  0  0  0  0  0
  -30.6039  -12.3785   20.2742 H   0  0  0  0  0  0
  -30.0652  -11.8607   17.8656 H   0  0  0  0  0  0
  -29.5165  -13.4997   17.6164 H   0  0  0  0  0  0
  -28.2037  -11.3253   19.2593 H   0  0  0  0  0  0
  -27.4968  -12.2041   17.9219 H   0  0  0  0  0  0
  -27.4238  -14.2253   19.1934 H   0  0  0  0  0  0
  -28.8513  -12.8868   21.5361 H   0  0  0  0  0  0
  -28.1025  -14.4585   21.5769 H   0  0  0  0  0  0
  -25.2804   -9.5679   22.4751 H   0  0  0  0  0  0
  -24.0028   -7.4633   22.7463 H   0  0  0  0  0  0
  -21.0874   -8.8780   19.8945 H   0  0  0  0  0  0
  -22.3740  -10.9669   19.6154 H   0  0  0  0  0  0
  -21.2002   -7.6150   23.9718 H   0  0  0  0  0  0
  -21.1482   -6.0526   25.9081 H   0  0  0  0  0  0
  -22.0596   -2.7610   23.2851 H   0  0  0  0  0  0
  -22.4036  -11.9776   22.4889 H   0  0  0  0  0  0
  -21.0982  -13.1060   22.2709 H   0  0  0  0  0  0
  -24.6108  -15.8526   20.5346 H   0  0  0  0  0  0
  -26.2155  -15.6408   20.0479 H   0  0  0  0  0  0
  -26.7579  -32.4834   23.0722 H   0  0  0  0  0  0
  -25.0087  -33.9226   24.9989 H   0  0  0  0  0  0
  -22.8595  -31.2265   21.2979 H   0  0  0  0  0  0
  -23.3766  -35.9415   23.3265 H   0  0  0  0  0  0
  -24.3554  -36.8821   22.2078 H   0  0  0  0  0  0
  -23.7218  -37.6266   23.6765 H   0  0  0  0  0  0
  -26.3253  -31.1935   20.6262 H   0  0  0  0  0  0
  -26.9584  -30.5541   22.0920 H   0  0  0  0  0  0
  -28.1797  -28.2818   21.3239 H   0  0  0  0  0  0
  -25.8155  -25.5509   19.0203 H   0  0  0  0  0  0
  -24.0376  -27.1798   18.9449 H   0  0  0  0  0  0
  -23.9754  -30.4199   19.3746 H   0  0  0  0  0  0
  -22.8873  -29.1423   19.8138 H   0  0  0  0  0  0
  -25.1353  -36.1581   25.0771 H   0  0  0  0  0  0
  -21.0091  -28.3409   24.1239 H   0  0  0  0  0  0
  -20.5624  -26.2425   23.3689 H   0  0  0  0  0  0
  -21.6652  -26.7335   22.1240 H   0  0  0  0  0  0
  -19.6908  -25.6263   21.1285 H   0  0  0  0  0  0
  -19.6687  -27.3151   20.6737 H   0  0  0  0  0  0
  -17.4217  -26.6727   21.4030 H   0  0  0  0  0  0
  -18.0313  -26.0102   22.9032 H   0  0  0  0  0  0
  -19.8003  -30.7338   24.2163 H   0  0  0  0  0  0
  -17.5075  -31.6284   24.5158 H   0  0  0  0  0  0
  -15.5402  -30.2977   23.7717 H   0  0  0  0  0  0
  -15.8728  -28.0791   22.7168 H   0  0  0  0  0  0
  -24.5843  -30.7190   25.7595 H   0  0  0  0  0  0
  -24.8809  -32.3108   26.4452 H   0  0  0  0  0  0
  -25.7787  -30.9199   27.0225 H   0  0  0  0  0  0
  -26.3296  -29.6396   24.1639 H   0  0  0  0  0  0
  -27.3911  -29.7294   25.5448 H   0  0  0  0  0  0
  -27.9297  -30.3909   24.0256 H   0  0  0  0  0  0
  -27.2536  -33.3750   26.1854 H   0  0  0  0  0  0
  -28.3958  -32.6801   25.0438 H   0  0  0  0  0  0
  -28.0548  -31.8656   26.5631 H   0  0  0  0  0  0
  -28.2539  -38.0025   24.7519 H   0  0  0  0  0  0
  -28.1065  -36.2551   24.6289 H   0  0  0  0  0  0
  -27.2272  -37.1347   25.8873 H   0  0  0  0  0  0
  -20.9767  -29.8689   21.6493 H   0  0  0  0  0  0
  -26.0054  -38.2666   24.1467 H   0  0  0  0  0  0
  -26.7699  -22.4316   21.7876 H   0  0  0  0  0  0
  -26.0368  -23.4389   20.5407 H   0  0  0  0  0  0
  -26.6839  -24.1748   22.0058 H   0  0  0  0  0  0
  -29.3621  -21.8550   19.1435 H   0  0  0  0  0  0
  -27.7742  -21.3541   19.4318 H   0  0  0  0  0  0
  -28.9315  -23.5903   21.3984 H   0  0  0  0  0  0
  -28.4202  -17.1777   20.1399 H   0  0  0  0  0  0
  1 25  1  0  0  0
  1 30  2  0  0  0
  1 74  1  0  0  0
  2  3  1  0  0  0
  2 25  1  0  0  0
  2 78  1  0  0  0
  2 79  1  0  0  0
  3  4  1  0  0  0
  3 80  1  0  0  0
  3 81  1  0  0  0
  4  5  1  0  0  0
  4 82  1  0  0  0
  4 83  1  0  0  0
  5  6  1  0  0  0
  5 26  1  0  0  0
  5 84  1  0  0  0
  6 25  1  0  0  0
  6 85  1  0  0  0
  6 86  1  0  0  0
  7  8  2  0  0  0
  7 26  1  0  0  0
  7 29  1  0  0  0
  8  9  1  0  0  0
  8 22  1  0  0  0
  9 10  1  0  0  0
  9 27  2  0  0  0
 10 11  2  0  0  0
 10 15  1  0  0  0
 11 12  1  0  0  0
 11 87  1  0  0  0
 12 13  2  0  0  0
 12 88  1  0  0  0
 13 14  1  0  0  0
 13 31  1  0  0  0
 14 15  2  0  0  0
 14 89  1  0  0  0
 15 90  1  0  0  0
 16 17  2  0  0  0
 16 21  1  0  0  0
 16 31  1  0  0  0
 17 18  1  0  0  0
 17 91  1  0  0  0
 18 19  2  0  0  0
 18 92  1  0  0  0
 19 20  1  0  0  0
 19 24  1  0  0  0
 20 21  2  0  0  0
 20 93  1  0  0  0
 21 23  1  0  0  0
 22 28  1  0  0  0
 22 32  2  0  0  0
 26 27  1  0  0  0
 28 94  1  0  0  0
 28 95  1  0  0  0
 29 96  1  0  0  0
 29 97  1  0  0  0
 33 34  1  0  0  0
 33 66  1  0  0  0
 33 70  2  0  0  0
 34 36  1  0  0  0
 34 59  1  0  0  0
 34 98  1  0  0  0
 35 44  2  0  0  0
 35 45  1  0  0  0
 35 68  1  0  0  0
 36 56  1  0  0  0
 36 99  1  0  0  0
 37 39  1  0  0  0
 37 47  1  0  0  0
 37 66  1  0  0  0
 37100  1  0  0  0
 38 43  2  0  0  0
 38 46  1  0  0  0
 38 47  1  0  0  0
 39 64  1  0  0  0
 39 67  2  0  0  0
 40 52  1  0  0  0
 40 53  2  0  0  0
 40 58  1  0  0  0
 41101  1  0  0  0
 41102  1  0  0  0
 41103  1  0  0  0
 41 48  1  0  0  0
 42 43  1  0  0  0
 42 66  1  0  0  0
 42104  1  0  0  0
 42105  1  0  0  0
 43 44  1  0  0  0
 44106  1  0  0  0
 45 46  2  0  0  0
 45107  1  0  0  0
 46108  1  0  0  0
 47109  1  0  0  0
 47110  1  0  0  0
 48 56  1  0  0  0
 48 65  1  0  0  0
 48111  1  0  0  0
 49 50  1  0  0  0
 49 53  1  0  0  0
 49 64  1  0  0  0
 49112  1  0  0  0
 50 51  1  0  0  0
 50113  1  0  0  0
 50114  1  0  0  0
 51 52  1  0  0  0
 51115  1  0  0  0
 51116  1  0  0  0
 52117  1  0  0  0
 52118  1  0  0  0
 53 54  1  0  0  0
 54 55  2  0  0  0
 54119  1  0  0  0
 55 57  1  0  0  0
 55120  1  0  0  0
 56 69  2  0  0  0
 57 58  2  0  0  0
 57121  1  0  0  0
 58122  1  0  0  0
 59 60  1  0  0  0
 59 61  1  0  0  0
 59 62  1  0  0  0
 60123  1  0  0  0
 60124  1  0  0  0
 60125  1  0  0  0
 61126  1  0  0  0
 61127  1  0  0  0
 61128  1  0  0  0
 62129  1  0  0  0
 62130  1  0  0  0
 62131  1  0  0  0
 63 65  1  0  0  0
 63132  1  0  0  0
 63133  1  0  0  0
 63134  1  0  0  0
 64135  1  0  0  0
 65136  1  0  0  0
 68 73  1  0  0  0
 71137  1  0  0  0
 71138  1  0  0  0
 71139  1  0  0  0
 71 73  1  0  0  0
 72 73  1  0  0  0
 72140  1  0  0  0
 72141  1  0  0  0
 72 77  1  0  0  0
 73142  1  0  0  0
 74 77  1  0  0  0
 74143  1  0  0  0
 75 77  2  0  0  0
 76 77  2  0  0  0
M  ISO  4   1 100  68 101  73 101  74 100
M  END
> <chiral flag>
0

> <version>
0

> <s_m_source_file>
/data/baiqing/PycharmProjects/Reinvent-master-3.2/result/LINK_invent/BTK/process_docking_weight1_custom_product_contain_oxygen_bond_distance_aromatic_linkinvent_7_9_3/rearranged_h_0181.sdf

> <i_m_source_file_index>
51

> <r_mmod_Potential_Energy-OPLS-2005>
3143.74096679688

> <r_mmod_Stretch_Energy-OPLS-2005>
1553.53515625

> <r_mmod_Bend_Energy-OPLS-2005>
846.112670898438

> <r_mmod_Torsional_Energy-OPLS-2005>
220.965072631836

> <r_mmod_Improper_Torsional_Energy-OPLS-2005>
4.02176761627197

> <r_mmod_Van_der_Waal_Energy-OPLS-2005>
107.626274108887

> <r_mmod_Electrostatic_Energy-OPLS-2005>
-473.325653076172

> <r_mmod_Solvation_Energy-OPLS-2005>
-281.483306884766

> <b_mmod_Minimization_Converged-OPLS-2005>
0

> <r_mmod_RMS_Derivative-OPLS-2005>
1.71993803977966

$$$$
51
                    3D
 Structure written by MMmdl.
157165  0  0  1  0            999 V2000
  -30.6592  -14.5403   20.5259 C   0  0  0  0  0  0
  -30.4331  -12.3330   19.4365 C   0  0  0  0  0  0
  -29.5019  -12.5036   18.2164 C   0  0  0  0  0  0
  -28.0207  -12.3664   18.6222 C   0  0  0  0  0  0
  -27.6602  -13.2111   19.8731 C   0  0  2  0  0  0
  -28.7031  -13.0071   20.9952 C   0  0  0  0  0  0
  -25.2577  -13.8183   20.5665 C   0  0  0  0  0  0
  -24.1841  -13.0446   20.9196 C   0  0  0  0  0  0
  -24.6400  -11.6922   20.8737 C   0  0  0  0  0  0
  -23.9073  -10.4304   21.0412 C   0  0  0  0  0  0
  -24.3620   -9.4218   21.9188 C   0  0  0  0  0  0
  -23.6288   -8.2249   22.0754 C   0  0  0  0  0  0
  -22.4265   -8.0296   21.3548 C   0  0  0  0  0  0
  -21.9921   -9.0270   20.4645 C   0  0  0  0  0  0
  -22.7253  -10.2146   20.3059 C   0  0  0  0  0  0
  -21.6849   -6.0748   22.5286 C   0  0  0  0  0  0
  -21.4001   -6.5644   23.8223 C   0  0  0  0  0  0
  -21.3662   -5.6791   24.9184 C   0  0  0  0  0  0
  -21.6047   -4.3057   24.7224 C   0  0  0  0  0  0
  -21.8822   -3.8156   23.4343 C   0  0  0  0  0  0
  -21.9187   -4.6973   22.3403 C   0  0  0  0  0  0
  -22.7862  -13.5241   21.1857 C   0  0  0  0  0  0
  -22.1665   -4.2163   21.0977 F   0  0  0  0  0  0
  -21.5634   -3.4536   25.7736 F   0  0  0  0  0  0
  -30.0314  -13.3292   20.4447 N   0  0  0  0  0  0
  -26.3012  -12.9347   20.3348 N   0  0  0  0  0  0
  -25.9325  -11.6513   20.5759 N   0  0  0  0  0  0
  -22.0484  -12.8234   22.0402 N   0  0  0  0  0  0
  -25.4307  -15.1900   20.4055 N   0  0  0  0  0  0
  -31.7992  -14.7174   20.0835 O   0  0  0  0  0  0
  -21.6641   -6.8888   21.4242 O   0  0  0  0  0  0
  -22.3558  -14.5555   20.6718 O   0  0  0  0  0  0
  -24.6216  -31.8645   23.2033 C   0  0  0  0  0  0
  -25.9069  -32.4796   23.8368 C   0  0  1  0  0  0
  -27.2398  -27.3820   20.0856 C   0  0  0  0  0  0
  -25.5870  -33.8577   24.2320 N   0  0  0  0  0  0
  -23.4144  -30.4840   21.5443 C   0  0  2  0  0  0
  -24.8616  -28.9400   20.1100 C   0  0  0  0  0  0
  -22.7463  -29.4602   22.4945 C   0  0  0  0  0  0
  -18.0281  -28.1351   22.8493 C   0  0  0  0  0  0
  -24.1491  -36.7312   23.2627 C   0  0  0  0  0  0
  -25.9475  -30.8068   21.3720 C   0  0  0  0  0  0
  -26.0232  -29.4367   20.7153 C   0  0  0  0  0  0
  -27.2099  -28.6600   20.7087 C   0  0  0  0  0  0
  -26.0568  -26.9118   19.4735 C   0  0  0  0  0  0
  -24.8750  -27.6782   19.4868 C   0  0  0  0  0  0
  -23.6280  -29.8130   20.1608 C   0  0  0  0  0  0
  -25.4105  -36.3087   24.0338 C   0  0  1  0  0  0
  -20.5879  -28.3641   23.1300 C   0  0  2  0  0  0
  -20.6765  -26.9384   22.5393 C   0  0  0  0  0  0
  -19.5742  -26.6366   21.5175 C   0  0  0  0  0  0
  -18.1919  -26.7908   22.1598 C   0  0  0  0  0  0
  -19.1530  -28.8814   23.2902 C   0  0  0  0  0  0
  -18.9474  -30.1424   23.8913 C   0  0  0  0  0  0
  -17.6473  -30.6576   24.0541 C   0  0  0  0  0  0
  -25.9026  -34.9445   23.5138 C   0  0  0  0  0  0
  -16.5361  -29.9082   23.6301 C   0  0  0  0  0  0
  -16.7266  -28.6476   23.0356 C   0  0  0  0  0  0
  -26.4456  -31.6571   25.0712 C   0  0  0  0  0  0
  -25.3713  -31.3674   26.1449 C   0  0  0  0  0  0
  -27.0275  -30.3003   24.6110 C   0  0  0  0  0  0
  -27.6059  -32.4267   25.7471 C   0  0  0  0  0  0
  -27.5606  -37.1792   24.8441 C   0  0  0  0  0  0
  -21.4166  -29.3010   22.3708 N   0  0  0  0  0  0
  -26.4288  -37.3789   23.9406 N   0  0  0  0  0  0
  -24.6797  -31.0688   22.0968 N   0  0  0  0  0  0
  -23.4192  -28.8142   23.3018 O   0  0  0  0  0  0
  -28.3978  -26.6146   20.1357 O   0  0  0  0  0  0
  -26.5618  -34.8915   22.4722 O   0  0  0  0  0  0
  -23.5385  -32.1413   23.7377 O   0  0  0  0  0  0
  -29.6299  -19.4682   20.7848 C   0  0  0  0  0  0
  -30.4831  -18.9794   19.8086 C   0  0  0  0  0  0
  -29.9535  -16.9690   20.7998 C   0  0  0  0  0  0
  -29.2586  -20.8379   21.2997 C   0  0  0  0  0  0
  -28.2546  -24.1066   19.5663 C   0  0  0  0  0  0
  -28.0848  -23.6446   21.9935 C   0  0  0  0  0  0
  -30.3865  -23.8910   20.9540 C   0  0  0  0  0  0
  -28.6389  -25.5694   19.1566 C   0  0  0  0  0  0
  -28.9552  -23.3548   20.7445 C   0  0  0  0  0  0
  -30.6385  -17.5785   19.8169 N   0  0  0  0  0  0
  -31.2161  -19.7210   18.8768 N   0  0  0  0  0  0
  -29.9085  -15.5480   21.0333 N   0  0  0  0  0  0
  -29.0743  -21.8818   20.4447 N   0  0  0  0  0  0
  -29.1524  -20.9827   22.5197 O   0  0  0  0  0  0
  -27.3734  -23.5171   18.9307 O   0  0  0  0  0  0
  -29.0096  -18.1213   21.7478 S   0  0  0  0  0  0
  -31.4750  -12.4469   19.1334 H   0  0  0  0  0  0
  -30.3535  -11.3246   19.8473 H   0  0  0  0  0  0
  -29.7454  -11.7672   17.4502 H   0  0  0  0  0  0
  -29.6687  -13.4817   17.7629 H   0  0  0  0  0  0
  -27.8281  -11.3120   18.8207 H   0  0  0  0  0  0
  -27.3764  -12.6401   17.7860 H   0  0  0  0  0  0
  -27.6980  -14.2565   19.5675 H   0  0  0  0  0  0
  -28.6874  -11.9716   21.3398 H   0  0  0  0  0  0
  -28.4587  -13.6077   21.8716 H   0  0  0  0  0  0
  -25.2754   -9.5694   22.4782 H   0  0  0  0  0  0
  -24.0003   -7.4641   22.7476 H   0  0  0  0  0  0
  -21.0860   -8.8786   19.8947 H   0  0  0  0  0  0
  -22.3706  -10.9688   19.6181 H   0  0  0  0  0  0
  -21.1984   -7.6149   23.9726 H   0  0  0  0  0  0
  -21.1486   -6.0523   25.9087 H   0  0  0  0  0  0
  -22.0592   -2.7615   23.2836 H   0  0  0  0  0  0
  -22.4059  -11.9870   22.4783 H   0  0  0  0  0  0
  -21.1106  -13.1286   22.2594 H   0  0  0  0  0  0
  -24.6609  -15.8435   20.5063 H   0  0  0  0  0  0
  -26.2734  -15.6229   20.0488 H   0  0  0  0  0  0
  -26.7164  -32.5474   23.1147 H   0  0  0  0  0  0
  -24.9929  -33.9703   25.0387 H   0  0  0  0  0  0
  -22.7045  -31.3002   21.4008 H   0  0  0  0  0  0
  -23.3745  -35.9642   23.3223 H   0  0  0  0  0  0
  -24.3600  -36.8982   22.2056 H   0  0  0  0  0  0
  -23.7246  -37.6491   23.6687 H   0  0  0  0  0  0
  -26.0784  -31.5731   20.6064 H   0  0  0  0  0  0
  -26.8263  -30.8523   22.0007 H   0  0  0  0  0  0
  -28.1028  -29.0343   21.1899 H   0  0  0  0  0  0
  -26.0187  -25.9380   19.0051 H   0  0  0  0  0  0
  -23.9803  -27.2860   19.0214 H   0  0  0  0  0  0
  -23.7489  -30.5852   19.3995 H   0  0  0  0  0  0
  -22.7524  -29.2338   19.8627 H   0  0  0  0  0  0
  -25.1307  -36.1947   25.0840 H   0  0  0  0  0  0
  -20.9989  -28.3236   24.1417 H   0  0  0  0  0  0
  -20.5624  -26.2263   23.3584 H   0  0  0  0  0  0
  -21.6658  -26.7404   22.1246 H   0  0  0  0  0  0
  -19.6886  -25.6273   21.1204 H   0  0  0  0  0  0
  -19.6690  -27.3169   20.6705 H   0  0  0  0  0  0
  -17.4203  -26.6633   21.4005 H   0  0  0  0  0  0
  -18.0345  -26.0052   22.9007 H   0  0  0  0  0  0
  -19.7952  -30.7208   24.2314 H   0  0  0  0  0  0
  -17.5033  -31.6259   24.5143 H   0  0  0  0  0  0
  -15.5356  -30.2983   23.7609 H   0  0  0  0  0  0
  -15.8663  -28.0784   22.7085 H   0  0  0  0  0  0
  -24.5943  -30.6975   25.7755 H   0  0  0  0  0  0
  -24.8817  -32.2802   26.4883 H   0  0  0  0  0  0
  -25.8076  -30.8869   27.0223 H   0  0  0  0  0  0
  -26.2839  -29.6754   24.1165 H   0  0  0  0  0  0
  -27.4008  -29.7271   25.4597 H   0  0  0  0  0  0
  -27.8695  -30.4265   23.9299 H   0  0  0  0  0  0
  -27.2747  -33.3594   26.2066 H   0  0  0  0  0  0
  -28.3873  -32.6777   25.0279 H   0  0  0  0  0  0
  -28.0708  -31.8344   26.5360 H   0  0  0  0  0  0
  -28.2568  -38.0154   24.7603 H   0  0  0  0  0  0
  -28.1190  -36.2705   24.6155 H   0  0  0  0  0  0
  -27.2338  -37.1281   25.8842 H   0  0  0  0  0  0
  -20.9332  -29.8777   21.6969 H   0  0  0  0  0  0
  -26.0178  -38.2847   24.1468 H   0  0  0  0  0  0
  -27.8497  -24.7050   22.0847 H   0  0  0  0  0  0
  -28.5829  -23.3685   22.9241 H   0  0  0  0  0  0
  -27.1362  -23.1070   21.9501 H   0  0  0  0  0  0
  -30.3979  -24.9594   21.1788 H   0  0  0  0  0  0
  -31.0111  -23.7274   20.0737 H   0  0  0  0  0  0
  -30.8707  -23.3882   21.7918 H   0  0  0  0  0  0
  -28.1584  -25.8194   18.2111 H   0  0  0  0  0  0
  -29.7042  -25.5733   18.9360 H   0  0  0  0  0  0
  -31.3458  -20.7183   19.0051 H   0  0  0  0  0  0
  -31.9811  -19.2682   18.3884 H   0  0  0  0  0  0
  -29.0969  -15.2358   21.5412 H   0  0  0  0  0  0
  -29.0744  -21.6505   19.4594 H   0  0  0  0  0  0
  1 25  1  0  0  0
  1 30  2  0  0  0
  1 82  1  0  0  0
  2  3  1  0  0  0
  2 25  1  0  0  0
  2 87  1  0  0  0
  2 88  1  0  0  0
  3  4  1  0  0  0
  3 89  1  0  0  0
  3 90  1  0  0  0
  4  5  1  0  0  0
  4 91  1  0  0  0
  4 92  1  0  0  0
  5  6  1  0  0  0
  5 26  1  0  0  0
  5 93  1  0  0  0
  6 25  1  0  0  0
  6 94  1  0  0  0
  6 95  1  0  0  0
  7  8  2  0  0  0
  7 26  1  0  0  0
  7 29  1  0  0  0
  8  9  1  0  0  0
  8 22  1  0  0  0
  9 10  1  0  0  0
  9 27  2  0  0  0
 10 11  2  0  0  0
 10 15  1  0  0  0
 11 12  1  0  0  0
 11 96  1  0  0  0
 12 13  2  0  0  0
 12 97  1  0  0  0
 13 14  1  0  0  0
 13 31  1  0  0  0
 14 15  2  0  0  0
 14 98  1  0  0  0
 15 99  1  0  0  0
 16 17  2  0  0  0
 16 21  1  0  0  0
 16 31  1  0  0  0
 17 18  1  0  0  0
 17100  1  0  0  0
 18 19  2  0  0  0
 18101  1  0  0  0
 19 20  1  0  0  0
 19 24  1  0  0  0
 20 21  2  0  0  0
 20102  1  0  0  0
 21 23  1  0  0  0
 22 28  1  0  0  0
 22 32  2  0  0  0
 26 27  1  0  0  0
 28103  1  0  0  0
 28104  1  0  0  0
 29105  1  0  0  0
 29106  1  0  0  0
 33 34  1  0  0  0
 33 66  1  0  0  0
 33 70  2  0  0  0
 34 36  1  0  0  0
 34 59  1  0  0  0
 34107  1  0  0  0
 35 44  2  0  0  0
 35 45  1  0  0  0
 35 68  1  0  0  0
 36 56  1  0  0  0
 36108  1  0  0  0
 37 39  1  0  0  0
 37 47  1  0  0  0
 37 66  1  0  0  0
 37109  1  0  0  0
 38 43  2  0  0  0
 38 46  1  0  0  0
 38 47  1  0  0  0
 39 64  1  0  0  0
 39 67  2  0  0  0
 40 52  1  0  0  0
 40 53  2  0  0  0
 40 58  1  0  0  0
 41110  1  0  0  0
 41111  1  0  0  0
 41112  1  0  0  0
 41 48  1  0  0  0
 42 43  1  0  0  0
 42 66  1  0  0  0
 42113  1  0  0  0
 42114  1  0  0  0
 43 44  1  0  0  0
 44115  1  0  0  0
 45 46  2  0  0  0
 45116  1  0  0  0
 46117  1  0  0  0
 47118  1  0  0  0
 47119  1  0  0  0
 48 56  1  0  0  0
 48 65  1  0  0  0
 48120  1  0  0  0
 49 50  1  0  0  0
 49 53  1  0  0  0
 49 64  1  0  0  0
 49121  1  0  0  0
 50 51  1  0  0  0
 50122  1  0  0  0
 50123  1  0  0  0
 51 52  1  0  0  0
 51124  1  0  0  0
 51125  1  0  0  0
 52126  1  0  0  0
 52127  1  0  0  0
 53 54  1  0  0  0
 54 55  2  0  0  0
 54128  1  0  0  0
 55 57  1  0  0  0
 55129  1  0  0  0
 56 69  2  0  0  0
 57 58  2  0  0  0
 57130  1  0  0  0
 58131  1  0  0  0
 59 60  1  0  0  0
 59 61  1  0  0  0
 59 62  1  0  0  0
 60132  1  0  0  0
 60133  1  0  0  0
 60134  1  0  0  0
 61135  1  0  0  0
 61136  1  0  0  0
 61137  1  0  0  0
 62138  1  0  0  0
 62139  1  0  0  0
 62140  1  0  0  0
 63 65  1  0  0  0
 63141  1  0  0  0
 63142  1  0  0  0
 63143  1  0  0  0
 64144  1  0  0  0
 65145  1  0  0  0
 68 78  1  0  0  0
 71 72  2  0  0  0
 71 74  1  0  0  0
 71 86  1  0  0  0
 72 80  1  0  0  0
 72 81  1  0  0  0
 73 80  2  0  0  0
 73 82  1  0  0  0
 73 86  1  0  0  0
 74 83  1  0  0  0
 74 84  2  0  0  0
 75 78  1  0  0  0
 75 79  1  0  0  0
 75 85  2  0  0  0
 76146  1  0  0  0
 76147  1  0  0  0
 76148  1  0  0  0
 76 79  1  0  0  0
 77 79  1  0  0  0
 77149  1  0  0  0
 77150  1  0  0  0
 77151  1  0  0  0
 78152  1  0  0  0
 78153  1  0  0  0
 79 83  1  0  0  0
 81154  1  0  0  0
 81155  1  0  0  0
 82156  1  0  0  0
 83157  1  0  0  0
M  ISO  4   1 100  68 101  78 101  82 100
M  END
> <chiral flag>
0

> <version>
0

> <s_m_source_file>
/data/baiqing/PycharmProjects/Reinvent-master-3.2/result/LINK_invent/BTK/process_docking_weight1_custom_product_contain_oxygen_bond_distance_aromatic_linkinvent_7_9_3/rearranged_h_0181.sdf

> <i_m_source_file_index>
52

> <r_mmod_Potential_Energy-OPLS-2005>
-77.6491241455078

> <r_mmod_Stretch_Energy-OPLS-2005>
54.9565238952637

> <r_mmod_Bend_Energy-OPLS-2005>
137.118591308594

> <r_mmod_Torsional_Energy-OPLS-2005>
247.798950195312

> <r_mmod_Improper_Torsional_Energy-OPLS-2005>
6.27654600143433

> <r_mmod_Van_der_Waal_Energy-OPLS-2005>
128.142044067383

> <r_mmod_Electrostatic_Energy-OPLS-2005>
-419.555572509766

> <r_mmod_Solvation_Energy-OPLS-2005>
-255.728729248047

> <b_mmod_Minimization_Converged-OPLS-2005>
0

> <r_mmod_RMS_Derivative-OPLS-2005>
3.46349859237671

$$$$
52
                    3D
 Structure written by MMmdl.
155163  0  0  1  0            999 V2000
  -30.5885  -14.7799   20.4239 C   0  0  0  0  0  0
  -30.4251  -12.4655   19.4870 C   0  0  0  0  0  0
  -29.5124  -12.4956   18.2411 C   0  0  0  0  0  0
  -28.0362  -12.3212   18.6477 C   0  0  0  0  0  0
  -27.6322  -13.2332   19.8376 C   0  0  2  0  0  0
  -28.6713  -13.1917   20.9774 C   0  0  0  0  0  0
  -25.2468  -13.8190   20.5681 C   0  0  0  0  0  0
  -24.1781  -13.0434   20.9218 C   0  0  0  0  0  0
  -24.6369  -11.6914   20.8733 C   0  0  0  0  0  0
  -23.9047  -10.4290   21.0392 C   0  0  0  0  0  0
  -24.3608   -9.4213   21.9177 C   0  0  0  0  0  0
  -23.6291   -8.2244   22.0757 C   0  0  0  0  0  0
  -22.4275   -8.0268   21.3545 C   0  0  0  0  0  0
  -21.9908   -9.0237   20.4640 C   0  0  0  0  0  0
  -22.7222  -10.2118   20.3043 C   0  0  0  0  0  0
  -21.6854   -6.0722   22.5282 C   0  0  0  0  0  0
  -21.4018   -6.5633   23.8212 C   0  0  0  0  0  0
  -21.3670   -5.6789   24.9180 C   0  0  0  0  0  0
  -21.6044   -4.3051   24.7230 C   0  0  0  0  0  0
  -21.8816   -3.8142   23.4349 C   0  0  0  0  0  0
  -21.9196   -4.6955   22.3402 C   0  0  0  0  0  0
  -22.7798  -13.5214   21.1877 C   0  0  0  0  0  0
  -22.1658   -4.2138   21.0981 F   0  0  0  0  0  0
  -21.5637   -3.4532   25.7741 F   0  0  0  0  0  0
  -29.9694  -13.5462   20.3951 N   0  0  0  0  0  0
  -26.2875  -12.9401   20.3200 N   0  0  0  0  0  0
  -25.9285  -11.6541   20.5702 N   0  0  0  0  0  0
  -22.0438  -12.8201   22.0417 N   0  0  0  0  0  0
  -25.4141  -15.1919   20.4095 N   0  0  0  0  0  0
  -31.8042  -14.8188   20.2074 O   0  0  0  0  0  0
  -21.6644   -6.8864   21.4242 O   0  0  0  0  0  0
  -22.3483  -14.5517   20.6712 O   0  0  0  0  0  0
  -24.6319  -31.8541   23.1922 C   0  0  0  0  0  0
  -25.9145  -32.4736   23.8284 C   0  0  1  0  0  0
  -27.2194  -27.2454   20.1541 C   0  0  0  0  0  0
  -25.5938  -33.8541   24.2225 N   0  0  0  0  0  0
  -23.4295  -30.4718   21.5366 C   0  0  2  0  0  0
  -24.8772  -28.9048   20.1173 C   0  0  0  0  0  0
  -22.7507  -29.4600   22.4907 C   0  0  0  0  0  0
  -18.0297  -28.1391   22.8478 C   0  0  0  0  0  0
  -24.1503  -36.7286   23.2637 C   0  0  0  0  0  0
  -25.9731  -30.7638   21.3711 C   0  0  0  0  0  0
  -26.0474  -29.3795   20.7248 C   0  0  0  0  0  0
  -27.2247  -28.5647   20.7243 C   0  0  0  0  0  0
  -26.0308  -26.8323   19.5220 C   0  0  0  0  0  0
  -24.8742  -27.6405   19.5029 C   0  0  0  0  0  0
  -23.6490  -29.7948   20.1567 C   0  0  0  0  0  0
  -25.4128  -36.3067   24.0320 C   0  0  1  0  0  0
  -20.5901  -28.3710   23.1264 C   0  0  2  0  0  0
  -20.6794  -26.9427   22.5405 C   0  0  0  0  0  0
  -19.5768  -26.6386   21.5215 C   0  0  0  0  0  0
  -18.1945  -26.7933   22.1622 C   0  0  0  0  0  0
  -19.1549  -28.8867   23.2867 C   0  0  0  0  0  0
  -18.9472  -30.1468   23.8880 C   0  0  0  0  0  0
  -17.6470  -30.6591   24.0563 C   0  0  0  0  0  0
  -25.9066  -34.9432   23.5083 C   0  0  0  0  0  0
  -16.5362  -29.9085   23.6334 C   0  0  0  0  0  0
  -16.7284  -28.6508   23.0348 C   0  0  0  0  0  0
  -26.4508  -31.6548   25.0670 C   0  0  0  0  0  0
  -25.3712  -31.3702   26.1371 C   0  0  0  0  0  0
  -27.0344  -30.2958   24.6147 C   0  0  0  0  0  0
  -27.6055  -32.4279   25.7458 C   0  0  0  0  0  0
  -27.5591  -37.1800   24.8464 C   0  0  0  0  0  0
  -21.4212  -29.3049   22.3644 N   0  0  0  0  0  0
  -26.4304  -37.3766   23.9402 N   0  0  0  0  0  0
  -24.6972  -31.0491   22.0901 N   0  0  0  0  0  0
  -23.4194  -28.8161   23.3037 O   0  0  0  0  0  0
  -28.3344  -26.3765   20.1247 O   0  0  0  0  0  0
  -26.5643  -34.8916   22.4653 O   0  0  0  0  0  0
  -23.5471  -32.1364   23.7218 O   0  0  0  0  0  0
  -31.0602  -18.8364   18.4747 C   0  0  0  0  0  0
  -30.8482  -17.5333   18.9421 C   0  0  0  0  0  0
  -30.0025  -17.3437   20.0596 C   0  0  0  0  0  0
  -29.6022  -19.7592   19.9928 C   0  0  0  0  0  0
  -29.3001  -22.3083   20.3114 C   0  0  0  0  0  0
  -29.8047  -25.2404   21.4916 C   0  0  0  0  0  0
  -27.3973  -25.0153   22.0062 C   0  0  0  0  0  0
  -28.3377  -23.5966   20.0511 C   0  0  0  0  0  0
  -28.4183  -25.0448   20.8485 C   0  0  0  0  0  0
  -30.4546  -19.9179   18.9904 N   0  0  0  0  0  0
  -29.3472  -18.5056   20.5278 N   0  0  0  0  0  0
  -29.8047  -15.9363   20.5480 N   0  0  0  0  0  0
  -28.8834  -20.9683   20.3272 N   0  0  0  0  0  0
  -30.4968  -22.5555   20.4856 O   0  0  0  0  0  0
  -31.4158  -16.5052   18.2677 F   0  0  0  0  0  0
  -31.4691  -12.5813   19.1908 H   0  0  0  0  0  0
  -30.3628  -11.4974   19.9864 H   0  0  0  0  0  0
  -29.7996  -11.7085   17.5425 H   0  0  0  0  0  0
  -29.6435  -13.4404   17.7109 H   0  0  0  0  0  0
  -27.8931  -11.2746   18.9198 H   0  0  0  0  0  0
  -27.3856  -12.5017   17.7912 H   0  0  0  0  0  0
  -27.6175  -14.2485   19.4401 H   0  0  0  0  0  0
  -28.7112  -12.2005   21.4301 H   0  0  0  0  0  0
  -28.3969  -13.8825   21.7760 H   0  0  0  0  0  0
  -25.2752   -9.5694   22.4754 H   0  0  0  0  0  0
  -23.9998   -7.4639   22.7479 H   0  0  0  0  0  0
  -21.0848   -8.8739   19.8937 H   0  0  0  0  0  0
  -22.3681  -10.9648   19.6145 H   0  0  0  0  0  0
  -21.2006   -7.6140   23.9710 H   0  0  0  0  0  0
  -21.1501   -6.0522   25.9079 H   0  0  0  0  0  0
  -22.0587   -2.7600   23.2854 H   0  0  0  0  0  0
  -22.4062  -11.9873   22.4828 H   0  0  0  0  0  0
  -21.1038  -13.1197   22.2573 H   0  0  0  0  0  0
  -24.6420  -15.8393   20.5231 H   0  0  0  0  0  0
  -26.2442  -15.6344   20.0382 H   0  0  0  0  0  0
  -26.7204  -32.5393   23.1021 H   0  0  0  0  0  0
  -25.0077  -33.9670   25.0367 H   0  0  0  0  0  0
  -22.7268  -31.2930   21.3837 H   0  0  0  0  0  0
  -23.3766  -35.9621   23.3292 H   0  0  0  0  0  0
  -24.3595  -36.8918   22.2055 H   0  0  0  0  0  0
  -23.7261  -37.6483   23.6668 H   0  0  0  0  0  0
  -26.1065  -31.5170   20.5933 H   0  0  0  0  0  0
  -26.8532  -30.8217   21.9997 H   0  0  0  0  0  0
  -28.1282  -28.9295   21.1927 H   0  0  0  0  0  0
  -25.9973  -25.8608   19.0492 H   0  0  0  0  0  0
  -23.9798  -27.2729   19.0191 H   0  0  0  0  0  0
  -23.7740  -30.5635   19.3936 H   0  0  0  0  0  0
  -22.7684  -29.2249   19.8551 H   0  0  0  0  0  0
  -25.1318  -36.1909   25.0814 H   0  0  0  0  0  0
  -20.9998  -28.3296   24.1385 H   0  0  0  0  0  0
  -20.5723  -26.2319   23.3612 H   0  0  0  0  0  0
  -21.6659  -26.7467   22.1185 H   0  0  0  0  0  0
  -19.6941  -25.6296   21.1248 H   0  0  0  0  0  0
  -19.6705  -27.3193   20.6740 H   0  0  0  0  0  0
  -17.4224  -26.6685   21.4016 H   0  0  0  0  0  0
  -18.0341  -26.0073   22.9014 H   0  0  0  0  0  0
  -19.7949  -30.7295   24.2237 H   0  0  0  0  0  0
  -17.5024  -31.6264   24.5179 H   0  0  0  0  0  0
  -15.5365  -30.2987   23.7662 H   0  0  0  0  0  0
  -15.8685  -28.0827   22.7062 H   0  0  0  0  0  0
  -24.5907  -30.7043   25.7672 H   0  0  0  0  0  0
  -24.8886  -32.2874   26.4749 H   0  0  0  0  0  0
  -25.8011  -30.8894   27.0165 H   0  0  0  0  0  0
  -26.2912  -29.6692   24.1203 H   0  0  0  0  0  0
  -27.4053  -29.7232   25.4656 H   0  0  0  0  0  0
  -27.8778  -30.4213   23.9357 H   0  0  0  0  0  0
  -27.2662  -33.3583   26.2017 H   0  0  0  0  0  0
  -28.3883  -32.6824   25.0302 H   0  0  0  0  0  0
  -28.0695  -31.8406   26.5388 H   0  0  0  0  0  0
  -28.2594  -38.0109   24.7518 H   0  0  0  0  0  0
  -28.1105  -36.2639   24.6290 H   0  0  0  0  0  0
  -27.2305  -37.1441   25.8864 H   0  0  0  0  0  0
  -20.9414  -29.8726   21.6796 H   0  0  0  0  0  0
  -26.0185  -38.2845   24.1381 H   0  0  0  0  0  0
  -31.7032  -19.0120   17.6260 H   0  0  0  0  0  0
  -29.8685  -26.1908   22.0234 H   0  0  0  0  0  0
  -30.5938  -25.2420   20.7382 H   0  0  0  0  0  0
  -30.0323  -24.4589   22.2165 H   0  0  0  0  0  0
  -26.3723  -24.9624   21.6385 H   0  0  0  0  0  0
  -27.4769  -25.8972   22.6436 H   0  0  0  0  0  0
  -27.5517  -24.1430   22.6422 H   0  0  0  0  0  0
  -27.3061  -23.2448   20.0779 H   0  0  0  0  0  0
  -28.5034  -23.8316   18.9996 H   0  0  0  0  0  0
  -28.8854  -15.7632   20.9158 H   0  0  0  0  0  0
  -27.8909  -20.8307   20.4410 H   0  0  0  0  0  0
  1 25  1  0  0  0
  1 30  2  0  0  0
  1 82  1  0  0  0
  2  3  1  0  0  0
  2 25  1  0  0  0
  2 86  1  0  0  0
  2 87  1  0  0  0
  3  4  1  0  0  0
  3 88  1  0  0  0
  3 89  1  0  0  0
  4  5  1  0  0  0
  4 90  1  0  0  0
  4 91  1  0  0  0
  5  6  1  0  0  0
  5 26  1  0  0  0
  5 92  1  0  0  0
  6 25  1  0  0  0
  6 93  1  0  0  0
  6 94  1  0  0  0
  7  8  2  0  0  0
  7 26  1  0  0  0
  7 29  1  0  0  0
  8  9  1  0  0  0
  8 22  1  0  0  0
  9 10  1  0  0  0
  9 27  2  0  0  0
 10 11  2  0  0  0
 10 15  1  0  0  0
 11 12  1  0  0  0
 11 95  1  0  0  0
 12 13  2  0  0  0
 12 96  1  0  0  0
 13 14  1  0  0  0
 13 31  1  0  0  0
 14 15  2  0  0  0
 14 97  1  0  0  0
 15 98  1  0  0  0
 16 17  2  0  0  0
 16 21  1  0  0  0
 16 31  1  0  0  0
 17 18  1  0  0  0
 17 99  1  0  0  0
 18 19  2  0  0  0
 18100  1  0  0  0
 19 20  1  0  0  0
 19 24  1  0  0  0
 20 21  2  0  0  0
 20101  1  0  0  0
 21 23  1  0  0  0
 22 28  1  0  0  0
 22 32  2  0  0  0
 26 27  1  0  0  0
 28102  1  0  0  0
 28103  1  0  0  0
 29104  1  0  0  0
 29105  1  0  0  0
 33 34  1  0  0  0
 33 66  1  0  0  0
 33 70  2  0  0  0
 34 36  1  0  0  0
 34 59  1  0  0  0
 34106  1  0  0  0
 35 44  2  0  0  0
 35 45  1  0  0  0
 35 68  1  0  0  0
 36 56  1  0  0  0
 36107  1  0  0  0
 37 39  1  0  0  0
 37 47  1  0  0  0
 37 66  1  0  0  0
 37108  1  0  0  0
 38 43  2  0  0  0
 38 46  1  0  0  0
 38 47  1  0  0  0
 39 64  1  0  0  0
 39 67  2  0  0  0
 40 52  1  0  0  0
 40 53  2  0  0  0
 40 58  1  0  0  0
 41109  1  0  0  0
 41110  1  0  0  0
 41111  1  0  0  0
 41 48  1  0  0  0
 42 43  1  0  0  0
 42 66  1  0  0  0
 42112  1  0  0  0
 42113  1  0  0  0
 43 44  1  0  0  0
 44114  1  0  0  0
 45 46  2  0  0  0
 45115  1  0  0  0
 46116  1  0  0  0
 47117  1  0  0  0
 47118  1  0  0  0
 48 56  1  0  0  0
 48 65  1  0  0  0
 48119  1  0  0  0
 49 50  1  0  0  0
 49 53  1  0  0  0
 49 64  1  0  0  0
 49120  1  0  0  0
 50 51  1  0  0  0
 50121  1  0  0  0
 50122  1  0  0  0
 51 52  1  0  0  0
 51123  1  0  0  0
 51124  1  0  0  0
 52125  1  0  0  0
 52126  1  0  0  0
 53 54  1  0  0  0
 54 55  2  0  0  0
 54127  1  0  0  0
 55 57  1  0  0  0
 55128  1  0  0  0
 56 69  2  0  0  0
 57 58  2  0  0  0
 57129  1  0  0  0
 58130  1  0  0  0
 59 60  1  0  0  0
 59 61  1  0  0  0
 59 62  1  0  0  0
 60131  1  0  0  0
 60132  1  0  0  0
 60133  1  0  0  0
 61134  1  0  0  0
 61135  1  0  0  0
 61136  1  0  0  0
 62137  1  0  0  0
 62138  1  0  0  0
 62139  1  0  0  0
 63 65  1  0  0  0
 63140  1  0  0  0
 63141  1  0  0  0
 63142  1  0  0  0
 64143  1  0  0  0
 65144  1  0  0  0
 68 79  1  0  0  0
 71 72  2  0  0  0
 71 80  1  0  0  0
 71145  1  0  0  0
 72 73  1  0  0  0
 72 85  1  0  0  0
 73 81  2  0  0  0
 73 82  1  0  0  0
 74 80  2  0  0  0
 74 81  1  0  0  0
 74 83  1  0  0  0
 75 78  1  0  0  0
 75 83  1  0  0  0
 75 84  2  0  0  0
 76146  1  0  0  0
 76147  1  0  0  0
 76148  1  0  0  0
 76 79  1  0  0  0
 77 79  1  0  0  0
 77149  1  0  0  0
 77150  1  0  0  0
 77151  1  0  0  0
 78 79  1  0  0  0
 78152  1  0  0  0
 78153  1  0  0  0
 82154  1  0  0  0
 83155  1  0  0  0
M  ISO  4   1 100  68 101  79 101  82 100
M  END
> <chiral flag>
0

> <version>
0

> <s_m_source_file>
/data/baiqing/PycharmProjects/Reinvent-master-3.2/result/LINK_invent/BTK/process_docking_weight1_custom_product_contain_oxygen_bond_distance_aromatic_linkinvent_7_9_3/rearranged_h_0181.sdf

> <i_m_source_file_index>
53

> <r_mmod_Potential_Energy-OPLS-2005>
-85.1965866088867

> <r_mmod_Stretch_Energy-OPLS-2005>
158.01399230957

> <r_mmod_Bend_Energy-OPLS-2005>
207.301528930664

> <r_mmod_Torsional_Energy-OPLS-2005>
266.555206298828

> <r_mmod_Improper_Torsional_Energy-OPLS-2005>
4.9892692565918

> <r_mmod_Van_der_Waal_Energy-OPLS-2005>
151.979125976562

> <r_mmod_Electrostatic_Energy-OPLS-2005>
-713.911804199219

> <r_mmod_Solvation_Energy-OPLS-2005>
-256.119659423828

> <b_mmod_Minimization_Converged-OPLS-2005>
0

> <r_mmod_RMS_Derivative-OPLS-2005>
1.38734912872314

$$$$
53
                    3D
 Structure written by MMmdl.
161169  0  0  1  0            999 V2000
  -30.6666  -14.5994   20.5238 C   0  0  0  0  0  0
  -30.4269  -12.3740   19.4511 C   0  0  0  0  0  0
  -29.5054  -12.5075   18.2210 C   0  0  0  0  0  0
  -28.0282  -12.3478   18.6316 C   0  0  0  0  0  0
  -27.6510  -13.2192   19.8597 C   0  0  2  0  0  0
  -28.6939  -13.0840   20.9919 C   0  0  0  0  0  0
  -25.2551  -13.8175   20.5687 C   0  0  0  0  0  0
  -24.1825  -13.0435   20.9193 C   0  0  0  0  0  0
  -24.6396  -11.6907   20.8733 C   0  0  0  0  0  0
  -23.9061  -10.4290   21.0397 C   0  0  0  0  0  0
  -24.3610   -9.4206   21.9173 C   0  0  0  0  0  0
  -23.6290   -8.2241   22.0748 C   0  0  0  0  0  0
  -22.4274   -8.0282   21.3543 C   0  0  0  0  0  0
  -21.9902   -9.0252   20.4645 C   0  0  0  0  0  0
  -22.7232  -10.2132   20.3050 C   0  0  0  0  0  0
  -21.6857   -6.0732   22.5278 C   0  0  0  0  0  0
  -21.4017   -6.5635   23.8211 C   0  0  0  0  0  0
  -21.3655   -5.6788   24.9173 C   0  0  0  0  0  0
  -21.6047   -4.3053   24.7225 C   0  0  0  0  0  0
  -21.8816   -3.8142   23.4344 C   0  0  0  0  0  0
  -21.9192   -4.6958   22.3401 C   0  0  0  0  0  0
  -22.7846  -13.5232   21.1846 C   0  0  0  0  0  0
  -22.1665   -4.2140   21.0980 F   0  0  0  0  0  0
  -21.5625   -3.4536   25.7737 F   0  0  0  0  0  0
  -30.0101  -13.4034   20.4231 N   0  0  0  0  0  0
  -26.2977  -12.9365   20.3294 N   0  0  0  0  0  0
  -25.9323  -11.6516   20.5728 N   0  0  0  0  0  0
  -22.0479  -12.8237   22.0402 N   0  0  0  0  0  0
  -25.4239  -15.1900   20.4102 N   0  0  0  0  0  0
  -31.8363  -14.7040   20.1396 O   0  0  0  0  0  0
  -21.6646   -6.8877   21.4241 O   0  0  0  0  0  0
  -22.3536  -14.5536   20.6686 O   0  0  0  0  0  0
  -24.6233  -31.8636   23.2040 C   0  0  0  0  0  0
  -25.9103  -32.4796   23.8366 C   0  0  1  0  0  0
  -27.2228  -27.3562   20.1225 C   0  0  0  0  0  0
  -25.5943  -33.8595   24.2306 N   0  0  0  0  0  0
  -23.4151  -30.4876   21.5443 C   0  0  2  0  0  0
  -24.8623  -28.9413   20.1178 C   0  0  0  0  0  0
  -22.7460  -29.4650   22.4932 C   0  0  0  0  0  0
  -18.0295  -28.1389   22.8487 C   0  0  0  0  0  0
  -24.1489  -36.7286   23.2633 C   0  0  0  0  0  0
  -25.9519  -30.8046   21.3717 C   0  0  0  0  0  0
  -26.0278  -29.4305   20.7244 C   0  0  0  0  0  0
  -27.2140  -28.6465   20.7226 C   0  0  0  0  0  0
  -26.0459  -26.9105   19.4914 C   0  0  0  0  0  0
  -24.8692  -27.6824   19.4955 C   0  0  0  0  0  0
  -23.6301  -29.8194   20.1606 C   0  0  0  0  0  0
  -25.4110  -36.3088   24.0335 C   0  0  1  0  0  0
  -20.5891  -28.3694   23.1283 C   0  0  2  0  0  0
  -20.6785  -26.9421   22.5403 C   0  0  0  0  0  0
  -19.5760  -26.6394   21.5207 C   0  0  0  0  0  0
  -18.1941  -26.7933   22.1621 C   0  0  0  0  0  0
  -19.1546  -28.8853   23.2887 C   0  0  0  0  0  0
  -18.9464  -30.1455   23.8906 C   0  0  0  0  0  0
  -17.6463  -30.6587   24.0565 C   0  0  0  0  0  0
  -25.9043  -34.9462   23.5109 C   0  0  0  0  0  0
  -16.5356  -29.9087   23.6324 C   0  0  0  0  0  0
  -16.7282  -28.6502   23.0349 C   0  0  0  0  0  0
  -26.4505  -31.6587   25.0713 C   0  0  0  0  0  0
  -25.3748  -31.3716   26.1441 C   0  0  0  0  0  0
  -27.0333  -30.3016   24.6130 C   0  0  0  0  0  0
  -27.6078  -32.4307   25.7482 C   0  0  0  0  0  0
  -27.5575  -37.1797   24.8466 C   0  0  0  0  0  0
  -21.4174  -29.3057   22.3674 N   0  0  0  0  0  0
  -26.4288  -37.3779   23.9410 N   0  0  0  0  0  0
  -24.6816  -31.0682   22.0970 N   0  0  0  0  0  0
  -23.4190  -28.8202   23.3015 O   0  0  0  0  0  0
  -28.3453  -26.5384   20.0702 O   0  0  0  0  0  0
  -26.5588  -34.8929   22.4662 O   0  0  0  0  0  0
  -23.5410  -32.1428   23.7394 O   0  0  0  0  0  0
  -29.3797  -18.1439   20.7598 C   0  0  0  0  0  0
  -29.7510  -19.5200   20.9471 C   0  0  0  0  0  0
  -31.0513  -19.7623   21.4281 C   0  0  0  0  0  0
  -30.3088  -17.0776   21.0182 C   0  0  0  0  0  0
  -31.8998  -18.6682   21.6655 C   0  0  0  0  0  0
  -29.2886  -23.1879   19.8891 C   0  0  0  0  0  0
  -26.8052  -23.6589   20.2058 C   0  0  0  0  0  0
  -30.0863  -21.2656   18.6155 C   0  0  0  0  0  0
  -28.8154  -20.7403   20.6642 C   0  0  0  0  0  0
  -28.4700  -25.4735   21.0672 C   0  0  0  0  0  0
  -28.2168  -23.9264   20.7530 C   0  0  2  0  0  0
  -31.5491  -17.3835   21.4755 N   0  0  0  0  0  0
  -33.1866  -18.8803   22.1349 N   0  0  0  0  0  0
  -29.9050  -15.6937   20.8376 N   0  0  0  0  0  0
  -29.3657  -21.8140   19.7754 N   0  0  0  0  0  0
  -30.0410  -23.9049   19.2212 O   0  0  0  0  0  0
  -31.4818  -21.0260   21.6723 F   0  0  0  0  0  0
  -31.4720  -12.4758   19.1540 H   0  0  0  0  0  0
  -30.3406  -11.3805   19.8921 H   0  0  0  0  0  0
  -29.7698  -11.7617   17.4702 H   0  0  0  0  0  0
  -29.6539  -13.4814   17.7502 H   0  0  0  0  0  0
  -27.8646  -11.2946   18.8613 H   0  0  0  0  0  0
  -27.3745  -12.5799   17.7898 H   0  0  0  0  0  0
  -27.6667  -14.2528   19.5138 H   0  0  0  0  0  0
  -28.6970  -12.0704   21.3962 H   0  0  0  0  0  0
  -28.4453  -13.7391   21.8282 H   0  0  0  0  0  0
  -25.2751   -9.5696   22.4746 H   0  0  0  0  0  0
  -24.0002   -7.4637   22.7471 H   0  0  0  0  0  0
  -21.0826   -8.8769   19.8955 H   0  0  0  0  0  0
  -22.3682  -10.9665   19.6157 H   0  0  0  0  0  0
  -21.2020   -7.6145   23.9713 H   0  0  0  0  0  0
  -21.1479   -6.0519   25.9074 H   0  0  0  0  0  0
  -22.0600   -2.7601   23.2847 H   0  0  0  0  0  0
  -22.4094  -11.9919   22.4832 H   0  0  0  0  0  0
  -21.1086  -13.1261   22.2575 H   0  0  0  0  0  0
  -24.6484  -15.8358   20.5134 H   0  0  0  0  0  0
  -26.2584  -15.6295   20.0443 H   0  0  0  0  0  0
  -26.7169  -32.5487   23.1119 H   0  0  0  0  0  0
  -25.0163  -33.9751   25.0502 H   0  0  0  0  0  0
  -22.7072  -31.3061   21.3999 H   0  0  0  0  0  0
  -23.3760  -35.9610   23.3298 H   0  0  0  0  0  0
  -24.3578  -36.8892   22.2044 H   0  0  0  0  0  0
  -23.7248  -37.6498   23.6637 H   0  0  0  0  0  0
  -26.0773  -31.5665   20.6011 H   0  0  0  0  0  0
  -26.8352  -30.8579   21.9964 H   0  0  0  0  0  0
  -28.1145  -29.0224   21.1894 H   0  0  0  0  0  0
  -26.0332  -25.9611   18.9823 H   0  0  0  0  0  0
  -23.9804  -27.3025   19.0096 H   0  0  0  0  0  0
  -23.7495  -30.5931   19.4005 H   0  0  0  0  0  0
  -22.7518  -29.2468   19.8584 H   0  0  0  0  0  0
  -25.1300  -36.1935   25.0830 H   0  0  0  0  0  0
  -20.9999  -28.3267   24.1396 H   0  0  0  0  0  0
  -20.5691  -26.2306   23.3605 H   0  0  0  0  0  0
  -21.6655  -26.7458   22.1195 H   0  0  0  0  0  0
  -19.6917  -25.6305   21.1239 H   0  0  0  0  0  0
  -19.6693  -27.3195   20.6730 H   0  0  0  0  0  0
  -17.4216  -26.6691   21.4018 H   0  0  0  0  0  0
  -18.0332  -26.0082   22.9022 H   0  0  0  0  0  0
  -19.7942  -30.7274   24.2278 H   0  0  0  0  0  0
  -17.5018  -31.6267   24.5171 H   0  0  0  0  0  0
  -15.5355  -30.2991   23.7637 H   0  0  0  0  0  0
  -15.8688  -28.0819   22.7055 H   0  0  0  0  0  0
  -24.5927  -30.7057   25.7768 H   0  0  0  0  0  0
  -24.8932  -32.2878   26.4864 H   0  0  0  0  0  0
  -25.8088  -30.8901   27.0212 H   0  0  0  0  0  0
  -26.2877  -29.6772   24.1187 H   0  0  0  0  0  0
  -27.4082  -29.7265   25.4610 H   0  0  0  0  0  0
  -27.8735  -30.4313   23.9303 H   0  0  0  0  0  0
  -27.2693  -33.3603   26.2070 H   0  0  0  0  0  0
  -28.3885  -32.6867   25.0303 H   0  0  0  0  0  0
  -28.0748  -31.8423   26.5393 H   0  0  0  0  0  0
  -28.2607  -38.0081   24.7513 H   0  0  0  0  0  0
  -28.1065  -36.2620   24.6299 H   0  0  0  0  0  0
  -27.2292  -37.1455   25.8869 H   0  0  0  0  0  0
  -20.9341  -29.8773   21.6887 H   0  0  0  0  0  0
  -26.0174  -38.2857   24.1410 H   0  0  0  0  0  0
  -28.3852  -17.9113   20.4042 H   0  0  0  0  0  0
  -26.5282  -22.6112   20.3224 H   0  0  0  0  0  0
  -26.7426  -23.8918   19.1432 H   0  0  0  0  0  0
  -26.0546  -24.2483   20.7342 H   0  0  0  0  0  0
  -29.9415  -21.8650   17.7142 H   0  0  0  0  0  0
  -29.7420  -20.2613   18.3656 H   0  0  0  0  0  0
  -31.1561  -21.2133   18.8199 H   0  0  0  0  0  0
  -28.5522  -21.1685   21.6309 H   0  0  0  0  0  0
  -27.8830  -20.3777   20.2306 H   0  0  0  0  0  0
  -29.4906  -25.5601   21.4415 H   0  0  0  0  0  0
  -27.8530  -25.7422   21.9268 H   0  0  0  0  0  0
  -28.2695  -23.4426   21.7280 H   0  0  0  0  0  0
  -33.3603  -19.8069   22.5061 H   0  0  0  0  0  0
  -33.6188  -18.1334   22.6623 H   0  0  0  0  0  0
  -28.9233  -15.5066   20.9500 H   0  0  0  0  0  0
  1 25  1  0  0  0
  1 30  2  0  0  0
  1 84  1  0  0  0
  2  3  1  0  0  0
  2 25  1  0  0  0
  2 88  1  0  0  0
  2 89  1  0  0  0
  3  4  1  0  0  0
  3 90  1  0  0  0
  3 91  1  0  0  0
  4  5  1  0  0  0
  4 92  1  0  0  0
  4 93  1  0  0  0
  5  6  1  0  0  0
  5 26  1  0  0  0
  5 94  1  0  0  0
  6 25  1  0  0  0
  6 95  1  0  0  0
  6 96  1  0  0  0
  7  8  2  0  0  0
  7 26  1  0  0  0
  7 29  1  0  0  0
  8  9  1  0  0  0
  8 22  1  0  0  0
  9 10  1  0  0  0
  9 27  2  0  0  0
 10 11  2  0  0  0
 10 15  1  0  0  0
 11 12  1  0  0  0
 11 97  1  0  0  0
 12 13  2  0  0  0
 12 98  1  0  0  0
 13 14  1  0  0  0
 13 31  1  0  0  0
 14 15  2  0  0  0
 14 99  1  0  0  0
 15100  1  0  0  0
 16 17  2  0  0  0
 16 21  1  0  0  0
 16 31  1  0  0  0
 17 18  1  0  0  0
 17101  1  0  0  0
 18 19  2  0  0  0
 18102  1  0  0  0
 19 20  1  0  0  0
 19 24  1  0  0  0
 20 21  2  0  0  0
 20103  1  0  0  0
 21 23  1  0  0  0
 22 28  1  0  0  0
 22 32  2  0  0  0
 26 27  1  0  0  0
 28104  1  0  0  0
 28105  1  0  0  0
 29106  1  0  0  0
 29107  1  0  0  0
 33 34  1  0  0  0
 33 66  1  0  0  0
 33 70  2  0  0  0
 34 36  1  0  0  0
 34 59  1  0  0  0
 34108  1  0  0  0
 35 44  2  0  0  0
 35 45  1  0  0  0
 35 68  1  0  0  0
 36 56  1  0  0  0
 36109  1  0  0  0
 37 39  1  0  0  0
 37 47  1  0  0  0
 37 66  1  0  0  0
 37110  1  0  0  0
 38 43  2  0  0  0
 38 46  1  0  0  0
 38 47  1  0  0  0
 39 64  1  0  0  0
 39 67  2  0  0  0
 40 52  1  0  0  0
 40 53  2  0  0  0
 40 58  1  0  0  0
 41111  1  0  0  0
 41112  1  0  0  0
 41113  1  0  0  0
 41 48  1  0  0  0
 42 43  1  0  0  0
 42 66  1  0  0  0
 42114  1  0  0  0
 42115  1  0  0  0
 43 44  1  0  0  0
 44116  1  0  0  0
 45 46  2  0  0  0
 45117  1  0  0  0
 46118  1  0  0  0
 47119  1  0  0  0
 47120  1  0  0  0
 48 56  1  0  0  0
 48 65  1  0  0  0
 48121  1  0  0  0
 49 50  1  0  0  0
 49 53  1  0  0  0
 49 64  1  0  0  0
 49122  1  0  0  0
 50 51  1  0  0  0
 50123  1  0  0  0
 50124  1  0  0  0
 51 52  1  0  0  0
 51125  1  0  0  0
 51126  1  0  0  0
 52127  1  0  0  0
 52128  1  0  0  0
 53 54  1  0  0  0
 54 55  2  0  0  0
 54129  1  0  0  0
 55 57  1  0  0  0
 55130  1  0  0  0
 56 69  2  0  0  0
 57 58  2  0  0  0
 57131  1  0  0  0
 58132  1  0  0  0
 59 60  1  0  0  0
 59 61  1  0  0  0
 59 62  1  0  0  0
 60133  1  0  0  0
 60134  1  0  0  0
 60135  1  0  0  0
 61136  1  0  0  0
 61137  1  0  0  0
 61138  1  0  0  0
 62139  1  0  0  0
 62140  1  0  0  0
 62141  1  0  0  0
 63 65  1  0  0  0
 63142  1  0  0  0
 63143  1  0  0  0
 63144  1  0  0  0
 64145  1  0  0  0
 65146  1  0  0  0
 68 80  1  0  0  0
 71 72  2  0  0  0
 71 74  1  0  0  0
 71147  1  0  0  0
 72 73  1  0  0  0
 72 79  1  0  0  0
 73 75  2  0  0  0
 73 87  1  0  0  0
 74 82  2  0  0  0
 74 84  1  0  0  0
 75 82  1  0  0  0
 75 83  1  0  0  0
 76 81  1  0  0  0
 76 85  1  0  0  0
 76 86  2  0  0  0
 77148  1  0  0  0
 77149  1  0  0  0
 77150  1  0  0  0
 77 81  1  0  0  0
 78 85  1  0  0  0
 78151  1  0  0  0
 78152  1  0  0  0
 78153  1  0  0  0
 79 85  1  0  0  0
 79154  1  0  0  0
 79155  1  0  0  0
 80 81  1  0  0  0
 80156  1  0  0  0
 80157  1  0  0  0
 81158  1  0  0  0
 83159  1  0  0  0
 83160  1  0  0  0
 84161  1  0  0  0
M  ISO  4   1 100  68 101  80 101  84 100
M  END
> <chiral flag>
0

> <version>
0

> <s_m_source_file>
/data/baiqing/PycharmProjects/Reinvent-master-3.2/result/LINK_invent/BTK/process_docking_weight1_custom_product_contain_oxygen_bond_distance_aromatic_linkinvent_7_9_3/rearranged_h_0181.sdf

> <i_m_source_file_index>
54

> <r_mmod_Potential_Energy-OPLS-2005>
-119.488243103027

> <r_mmod_Stretch_Energy-OPLS-2005>
69.7365036010742

> <r_mmod_Bend_Energy-OPLS-2005>
141.05632019043

> <r_mmod_Torsional_Energy-OPLS-2005>
261.764526367188

> <r_mmod_Improper_Torsional_Energy-OPLS-2005>
9.62460422515869

> <r_mmod_Van_der_Waal_Energy-OPLS-2005>
148.897232055664

> <r_mmod_Electrostatic_Energy-OPLS-2005>
-516.727783203125

> <r_mmod_Solvation_Energy-OPLS-2005>
-268.297424316406

> <b_mmod_Minimization_Converged-OPLS-2005>
0

> <r_mmod_RMS_Derivative-OPLS-2005>
1.76350831985474

$$$$
54
                    3D
 Structure written by MMmdl.
153161  0  0  1  0            999 V2000
  -30.6105  -14.6451   20.5093 C   0  0  0  0  0  0
  -30.4449  -12.3966   19.4541 C   0  0  0  0  0  0
  -29.5125  -12.5152   18.2273 C   0  0  0  0  0  0
  -28.0348  -12.3507   18.6381 C   0  0  0  0  0  0
  -27.6576  -13.2155   19.8701 C   0  0  2  0  0  0
  -28.7023  -13.0570   20.9987 C   0  0  0  0  0  0
  -25.2571  -13.8162   20.5678 C   0  0  0  0  0  0
  -24.1830  -13.0431   20.9175 C   0  0  0  0  0  0
  -24.6398  -11.6903   20.8731 C   0  0  0  0  0  0
  -23.9063  -10.4285   21.0399 C   0  0  0  0  0  0
  -24.3610   -9.4204   21.9177 C   0  0  0  0  0  0
  -23.6286   -8.2241   22.0749 C   0  0  0  0  0  0
  -22.4270   -8.0274   21.3543 C   0  0  0  0  0  0
  -21.9906   -9.0248   20.4646 C   0  0  0  0  0  0
  -22.7235  -10.2129   20.3052 C   0  0  0  0  0  0
  -21.6855   -6.0728   22.5275 C   0  0  0  0  0  0
  -21.4016   -6.5632   23.8206 C   0  0  0  0  0  0
  -21.3662   -5.6790   24.9170 C   0  0  0  0  0  0
  -21.6045   -4.3048   24.7227 C   0  0  0  0  0  0
  -21.8819   -3.8140   23.4347 C   0  0  0  0  0  0
  -21.9192   -4.6956   22.3403 C   0  0  0  0  0  0
  -22.7851  -13.5224   21.1841 C   0  0  0  0  0  0
  -22.1660   -4.2137   21.0982 F   0  0  0  0  0  0
  -21.5633   -3.4536   25.7740 F   0  0  0  0  0  0
  -30.0196  -13.4095   20.4417 N   0  0  0  0  0  0
  -26.3011  -12.9343   20.3349 N   0  0  0  0  0  0
  -25.9331  -11.6494   20.5763 N   0  0  0  0  0  0
  -22.0494  -12.8221   22.0402 N   0  0  0  0  0  0
  -25.4280  -15.1880   20.4076 N   0  0  0  0  0  0
  -31.7524  -14.8419   20.0855 O   0  0  0  0  0  0
  -21.6640   -6.8874   21.4237 O   0  0  0  0  0  0
  -22.3536  -14.5535   20.6699 O   0  0  0  0  0  0
  -24.6266  -31.8615   23.2017 C   0  0  0  0  0  0
  -25.9112  -32.4797   23.8357 C   0  0  1  0  0  0
  -27.2241  -27.3185   20.1252 C   0  0  0  0  0  0
  -25.5922  -33.8593   24.2286 N   0  0  0  0  0  0
  -23.4206  -30.4852   21.5439 C   0  0  2  0  0  0
  -24.8689  -28.9393   20.1132 C   0  0  0  0  0  0
  -22.7479  -29.4645   22.4923 C   0  0  0  0  0  0
  -18.0301  -28.1401   22.8502 C   0  0  0  0  0  0
  -24.1486  -36.7291   23.2636 C   0  0  0  0  0  0
  -25.9614  -30.7931   21.3733 C   0  0  0  0  0  0
  -26.0377  -29.4188   20.7186 C   0  0  0  0  0  0
  -27.2221  -28.6211   20.7133 C   0  0  0  0  0  0
  -26.0380  -26.8983   19.4840 C   0  0  0  0  0  0
  -24.8709  -27.6848   19.4848 C   0  0  0  0  0  0
  -23.6366  -29.8193   20.1603 C   0  0  0  0  0  0
  -25.4116  -36.3095   24.0330 C   0  0  1  0  0  0
  -20.5902  -28.3712   23.1289 C   0  0  2  0  0  0
  -20.6788  -26.9433   22.5412 C   0  0  0  0  0  0
  -19.5756  -26.6408   21.5219 C   0  0  0  0  0  0
  -18.1941  -26.7949   22.1636 C   0  0  0  0  0  0
  -19.1550  -28.8870   23.2897 C   0  0  0  0  0  0
  -18.9466  -30.1466   23.8925 C   0  0  0  0  0  0
  -17.6465  -30.6597   24.0579 C   0  0  0  0  0  0
  -25.9049  -34.9463   23.5109 C   0  0  0  0  0  0
  -16.5360  -29.9102   23.6328 C   0  0  0  0  0  0
  -16.7289  -28.6517   23.0363 C   0  0  0  0  0  0
  -26.4493  -31.6596   25.0720 C   0  0  0  0  0  0
  -25.3720  -31.3732   26.1441 C   0  0  0  0  0  0
  -27.0332  -30.3023   24.6160 C   0  0  0  0  0  0
  -27.6060  -32.4319   25.7489 C   0  0  0  0  0  0
  -27.5582  -37.1805   24.8473 C   0  0  0  0  0  0
  -21.4188  -29.3058   22.3666 N   0  0  0  0  0  0
  -26.4300  -37.3787   23.9408 N   0  0  0  0  0  0
  -24.6883  -31.0628   22.0972 N   0  0  0  0  0  0
  -23.4201  -28.8194   23.3011 O   0  0  0  0  0  0
  -28.3238  -26.4484   20.1577 O   0  0  0  0  0  0
  -26.5619  -34.8928   22.4674 O   0  0  0  0  0  0
  -23.5426  -32.1423   23.7336 O   0  0  0  0  0  0
  -28.7282  -19.2902   21.1941 C   0  0  0  0  0  0
  -30.7550  -17.8666   20.0043 C   0  0  0  0  0  0
  -29.8297  -17.1134   20.7695 C   0  0  0  0  0  0
  -28.8023  -17.8825   21.3657 C   0  0  0  0  0  0
  -29.6984  -19.9595   20.4189 C   0  0  0  0  0  0
  -29.0481  -23.9141   20.2190 C   0  0  0  0  0  0
  -29.1679  -22.4913   22.3414 C   0  0  0  0  0  0
  -28.0350  -25.0639   20.6228 C   0  0  0  0  0  0
  -28.8771  -22.4353   20.8271 C   0  0  2  0  0  0
  -30.6873  -19.2282   19.8380 N   0  0  0  0  0  0
  -29.8092  -15.6597   20.9542 N   0  0  0  0  0  0
  -29.7182  -21.3733   20.1817 N   0  0  0  0  0  0
  -29.9723  -24.1701   19.4409 O   0  0  0  0  0  0
  -27.8592  -17.2521   22.1074 F   0  0  0  0  0  0
  -31.4853  -12.5293   19.1520 H   0  0  0  0  0  0
  -30.3845  -11.3966   19.8869 H   0  0  0  0  0  0
  -29.7769  -11.7689   17.4767 H   0  0  0  0  0  0
  -29.6544  -13.4875   17.7539 H   0  0  0  0  0  0
  -27.8723  -11.2968   18.8664 H   0  0  0  0  0  0
  -27.3799  -12.5835   17.7972 H   0  0  0  0  0  0
  -27.6792  -14.2532   19.5354 H   0  0  0  0  0  0
  -28.7147  -12.0307   21.3683 H   0  0  0  0  0  0
  -28.4425  -13.6743   21.8596 H   0  0  0  0  0  0
  -25.2754   -9.5683   22.4748 H   0  0  0  0  0  0
  -23.9991   -7.4641   22.7471 H   0  0  0  0  0  0
  -21.0837   -8.8773   19.8957 H   0  0  0  0  0  0
  -22.3690  -10.9666   19.6159 H   0  0  0  0  0  0
  -21.2006   -7.6139   23.9708 H   0  0  0  0  0  0
  -21.1488   -6.0518   25.9074 H   0  0  0  0  0  0
  -22.0596   -2.7600   23.2853 H   0  0  0  0  0  0
  -22.4104  -11.9881   22.4798 H   0  0  0  0  0  0
  -21.1109  -13.1247   22.2595 H   0  0  0  0  0  0
  -24.6646  -15.8446   20.5285 H   0  0  0  0  0  0
  -26.2847  -15.6314   20.1037 H   0  0  0  0  0  0
  -26.7177  -32.5487   23.1106 H   0  0  0  0  0  0
  -25.0062  -33.9748   25.0425 H   0  0  0  0  0  0
  -22.7141  -31.3048   21.4000 H   0  0  0  0  0  0
  -23.3755  -35.9618   23.3321 H   0  0  0  0  0  0
  -24.3564  -36.8890   22.2043 H   0  0  0  0  0  0
  -23.7229  -37.6495   23.6646 H   0  0  0  0  0  0
  -26.0901  -31.5545   20.6029 H   0  0  0  0  0  0
  -26.8407  -30.8461   22.0022 H   0  0  0  0  0  0
  -28.1180  -28.9857   21.1959 H   0  0  0  0  0  0
  -25.9982  -25.9461   18.9749 H   0  0  0  0  0  0
  -23.9785  -27.3162   18.9975 H   0  0  0  0  0  0
  -23.7569  -30.5948   19.4032 H   0  0  0  0  0  0
  -22.7571  -29.2491   19.8572 H   0  0  0  0  0  0
  -25.1291  -36.1949   25.0825 H   0  0  0  0  0  0
  -21.0024  -28.3294   24.1398 H   0  0  0  0  0  0
  -20.5696  -26.2320   23.3619 H   0  0  0  0  0  0
  -21.6658  -26.7465   22.1190 H   0  0  0  0  0  0
  -19.6912  -25.6324   21.1239 H   0  0  0  0  0  0
  -19.6687  -27.3223   20.6756 H   0  0  0  0  0  0
  -17.4209  -26.6719   21.4036 H   0  0  0  0  0  0
  -18.0338  -26.0083   22.9023 H   0  0  0  0  0  0
  -19.7933  -30.7280   24.2314 H   0  0  0  0  0  0
  -17.5013  -31.6281   24.5169 H   0  0  0  0  0  0
  -15.5360  -30.3007   23.7627 H   0  0  0  0  0  0
  -15.8700  -28.0832   22.7071 H   0  0  0  0  0  0
  -24.5904  -30.7073   25.7763 H   0  0  0  0  0  0
  -24.8899  -32.2899   26.4848 H   0  0  0  0  0  0
  -25.8036  -30.8922   27.0224 H   0  0  0  0  0  0
  -26.2906  -29.6781   24.1181 H   0  0  0  0  0  0
  -27.4036  -29.7272   25.4655 H   0  0  0  0  0  0
  -27.8772  -30.4319   23.9382 H   0  0  0  0  0  0
  -27.2687  -33.3622   26.2070 H   0  0  0  0  0  0
  -28.3874  -32.6870   25.0315 H   0  0  0  0  0  0
  -28.0729  -31.8436   26.5401 H   0  0  0  0  0  0
  -28.2616  -38.0083   24.7509 H   0  0  0  0  0  0
  -28.1057  -36.2619   24.6317 H   0  0  0  0  0  0
  -27.2298  -37.1475   25.8874 H   0  0  0  0  0  0
  -20.9371  -29.8782   21.6877 H   0  0  0  0  0  0
  -26.0183  -38.2865   24.1404 H   0  0  0  0  0  0
  -27.9190  -19.8288   21.6625 H   0  0  0  0  0  0
  -31.5695  -17.3797   19.4896 H   0  0  0  0  0  0
  -30.2007  -22.7848   22.5367 H   0  0  0  0  0  0
  -29.0061  -21.5303   22.8270 H   0  0  0  0  0  0
  -28.5206  -23.2029   22.8540 H   0  0  0  0  0  0
  -27.9795  -25.0948   21.7104 H   0  0  0  0  0  0
  -27.0539  -24.7289   20.2938 H   0  0  0  0  0  0
  -27.8362  -22.1420   20.6885 H   0  0  0  0  0  0
  -28.9620  -15.3261   21.3901 H   0  0  0  0  0  0
  -30.4306  -21.7314   19.5529 H   0  0  0  0  0  0
  1 25  1  0  0  0
  1 30  2  0  0  0
  1 81  1  0  0  0
  2  3  1  0  0  0
  2 25  1  0  0  0
  2 85  1  0  0  0
  2 86  1  0  0  0
  3  4  1  0  0  0
  3 87  1  0  0  0
  3 88  1  0  0  0
  4  5  1  0  0  0
  4 89  1  0  0  0
  4 90  1  0  0  0
  5  6  1  0  0  0
  5 26  1  0  0  0
  5 91  1  0  0  0
  6 25  1  0  0  0
  6 92  1  0  0  0
  6 93  1  0  0  0
  7  8  2  0  0  0
  7 26  1  0  0  0
  7 29  1  0  0  0
  8  9  1  0  0  0
  8 22  1  0  0  0
  9 10  1  0  0  0
  9 27  2  0  0  0
 10 11  2  0  0  0
 10 15  1  0  0  0
 11 12  1  0  0  0
 11 94  1  0  0  0
 12 13  2  0  0  0
 12 95  1  0  0  0
 13 14  1  0  0  0
 13 31  1  0  0  0
 14 15  2  0  0  0
 14 96  1  0  0  0
 15 97  1  0  0  0
 16 17  2  0  0  0
 16 21  1  0  0  0
 16 31  1  0  0  0
 17 18  1  0  0  0
 17 98  1  0  0  0
 18 19  2  0  0  0
 18 99  1  0  0  0
 19 20  1  0  0  0
 19 24  1  0  0  0
 20 21  2  0  0  0
 20100  1  0  0  0
 21 23  1  0  0  0
 22 28  1  0  0  0
 22 32  2  0  0  0
 26 27  1  0  0  0
 28101  1  0  0  0
 28102  1  0  0  0
 29103  1  0  0  0
 29104  1  0  0  0
 33 34  1  0  0  0
 33 66  1  0  0  0
 33 70  2  0  0  0
 34 36  1  0  0  0
 34 59  1  0  0  0
 34105  1  0  0  0
 35 44  2  0  0  0
 35 45  1  0  0  0
 35 68  1  0  0  0
 36 56  1  0  0  0
 36106  1  0  0  0
 37 39  1  0  0  0
 37 47  1  0  0  0
 37 66  1  0  0  0
 37107  1  0  0  0
 38 43  2  0  0  0
 38 46  1  0  0  0
 38 47  1  0  0  0
 39 64  1  0  0  0
 39 67  2  0  0  0
 40 52  1  0  0  0
 40 53  2  0  0  0
 40 58  1  0  0  0
 41108  1  0  0  0
 41109  1  0  0  0
 41110  1  0  0  0
 41 48  1  0  0  0
 42 43  1  0  0  0
 42 66  1  0  0  0
 42111  1  0  0  0
 42112  1  0  0  0
 43 44  1  0  0  0
 44113  1  0  0  0
 45 46  2  0  0  0
 45114  1  0  0  0
 46115  1  0  0  0
 47116  1  0  0  0
 47117  1  0  0  0
 48 56  1  0  0  0
 48 65  1  0  0  0
 48118  1  0  0  0
 49 50  1  0  0  0
 49 53  1  0  0  0
 49 64  1  0  0  0
 49119  1  0  0  0
 50 51  1  0  0  0
 50120  1  0  0  0
 50121  1  0  0  0
 51 52  1  0  0  0
 51122  1  0  0  0
 51123  1  0  0  0
 52124  1  0  0  0
 52125  1  0  0  0
 53 54  1  0  0  0
 54 55  2  0  0  0
 54126  1  0  0  0
 55 57  1  0  0  0
 55127  1  0  0  0
 56 69  2  0  0  0
 57 58  2  0  0  0
 57128  1  0  0  0
 58129  1  0  0  0
 59 60  1  0  0  0
 59 61  1  0  0  0
 59 62  1  0  0  0
 60130  1  0  0  0
 60131  1  0  0  0
 60132  1  0  0  0
 61133  1  0  0  0
 61134  1  0  0  0
 61135  1  0  0  0
 62136  1  0  0  0
 62137  1  0  0  0
 62138  1  0  0  0
 63 65  1  0  0  0
 63139  1  0  0  0
 63140  1  0  0  0
 63141  1  0  0  0
 64142  1  0  0  0
 65143  1  0  0  0
 68 78  1  0  0  0
 71 74  2  0  0  0
 71 75  1  0  0  0
 71144  1  0  0  0
 72 73  2  0  0  0
 72 80  1  0  0  0
 72145  1  0  0  0
 73 74  1  0  0  0
 73 81  1  0  0  0
 74 84  1  0  0  0
 75 80  2  0  0  0
 75 82  1  0  0  0
 76 78  1  0  0  0
 76 79  1  0  0  0
 76 83  2  0  0  0
 77146  1  0  0  0
 77147  1  0  0  0
 77148  1  0  0  0
 77 79  1  0  0  0
 78149  1  0  0  0
 78150  1  0  0  0
 79 82  1  0  0  0
 79151  1  0  0  0
 81152  1  0  0  0
 82153  1  0  0  0
M  ISO  4   1 100  68 101  78 101  81 100
M  END
> <chiral flag>
0

> <version>
0

> <s_m_source_file>
/data/baiqing/PycharmProjects/Reinvent-master-3.2/result/LINK_invent/BTK/process_docking_weight1_custom_product_contain_oxygen_bond_distance_aromatic_linkinvent_7_9_3/rearranged_h_0181.sdf

> <i_m_source_file_index>
55

> <r_mmod_Potential_Energy-OPLS-2005>
-252.693954467773

> <r_mmod_Stretch_Energy-OPLS-2005>
80.1847686767578

> <r_mmod_Bend_Energy-OPLS-2005>
149.134078979492

> <r_mmod_Torsional_Energy-OPLS-2005>
215.840377807617

> <r_mmod_Improper_Torsional_Energy-OPLS-2005>
3.41514229774475

> <r_mmod_Van_der_Waal_Energy-OPLS-2005>
143.852844238281

> <r_mmod_Electrostatic_Energy-OPLS-2005>
-657.292724609375

> <r_mmod_Solvation_Energy-OPLS-2005>
-238.461624145508

> <b_mmod_Minimization_Converged-OPLS-2005>
0

> <r_mmod_RMS_Derivative-OPLS-2005>
1.43151760101318

$$$$
55
                    3D
 Structure written by MMmdl.
153161  0  0  1  0            999 V2000
  -30.5988  -14.7798   20.4201 C   0  0  0  0  0  0
  -30.4307  -12.4703   19.4807 C   0  0  0  0  0  0
  -29.5120  -12.5048   18.2390 C   0  0  0  0  0  0
  -28.0381  -12.3254   18.6517 C   0  0  0  0  0  0
  -27.6369  -13.2352   19.8436 C   0  0  2  0  0  0
  -28.6804  -13.1939   20.9803 C   0  0  0  0  0  0
  -25.2488  -13.8199   20.5690 C   0  0  0  0  0  0
  -24.1789  -13.0437   20.9211 C   0  0  0  0  0  0
  -24.6386  -11.6918   20.8744 C   0  0  0  0  0  0
  -23.9067  -10.4291   21.0402 C   0  0  0  0  0  0
  -24.3620   -9.4207   21.9182 C   0  0  0  0  0  0
  -23.6294   -8.2240   22.0753 C   0  0  0  0  0  0
  -22.4275   -8.0279   21.3544 C   0  0  0  0  0  0
  -21.9910   -9.0252   20.4647 C   0  0  0  0  0  0
  -22.7237  -10.2131   20.3055 C   0  0  0  0  0  0
  -21.6854   -6.0735   22.5277 C   0  0  0  0  0  0
  -21.4018   -6.5640   23.8211 C   0  0  0  0  0  0
  -21.3662   -5.6793   24.9174 C   0  0  0  0  0  0
  -21.6042   -4.3055   24.7224 C   0  0  0  0  0  0
  -21.8819   -3.8146   23.4346 C   0  0  0  0  0  0
  -21.9192   -4.6962   22.3402 C   0  0  0  0  0  0
  -22.7812  -13.5216   21.1870 C   0  0  0  0  0  0
  -22.1658   -4.2148   21.0980 F   0  0  0  0  0  0
  -21.5628   -3.4541   25.7738 F   0  0  0  0  0  0
  -29.9784  -13.5472   20.3938 N   0  0  0  0  0  0
  -26.2911  -12.9413   20.3247 N   0  0  0  0  0  0
  -25.9315  -11.6554   20.5737 N   0  0  0  0  0  0
  -22.0456  -12.8215   22.0430 N   0  0  0  0  0  0
  -25.4161  -15.1927   20.4109 N   0  0  0  0  0  0
  -31.8120  -14.8257   20.1943 O   0  0  0  0  0  0
  -21.6639   -6.8877   21.4239 O   0  0  0  0  0  0
  -22.3498  -14.5517   20.6707 O   0  0  0  0  0  0
  -24.6326  -31.8536   23.1956 C   0  0  0  0  0  0
  -25.9141  -32.4747   23.8316 C   0  0  1  0  0  0
  -27.2188  -27.2472   20.1424 C   0  0  0  0  0  0
  -25.5928  -33.8549   24.2237 N   0  0  0  0  0  0
  -23.4306  -30.4739   21.5398 C   0  0  2  0  0  0
  -24.8788  -28.9126   20.1152 C   0  0  0  0  0  0
  -22.7509  -29.4591   22.4910 C   0  0  0  0  0  0
  -18.0293  -28.1386   22.8485 C   0  0  0  0  0  0
  -24.1490  -36.7280   23.2641 C   0  0  0  0  0  0
  -25.9771  -30.7628   21.3766 C   0  0  0  0  0  0
  -26.0513  -29.3821   20.7222 C   0  0  0  0  0  0
  -27.2286  -28.5642   20.7182 C   0  0  0  0  0  0
  -26.0254  -26.8414   19.5132 C   0  0  0  0  0  0
  -24.8712  -27.6508   19.4981 C   0  0  0  0  0  0
  -23.6508  -29.8031   20.1581 C   0  0  0  0  0  0
  -25.4118  -36.3064   24.0323 C   0  0  1  0  0  0
  -20.5898  -28.3698   23.1267 C   0  0  2  0  0  0
  -20.6780  -26.9414   22.5408 C   0  0  0  0  0  0
  -19.5756  -26.6381   21.5212 C   0  0  0  0  0  0
  -18.1937  -26.7928   22.1624 C   0  0  0  0  0  0
  -19.1547  -28.8859   23.2870 C   0  0  0  0  0  0
  -18.9468  -30.1460   23.8890 C   0  0  0  0  0  0
  -17.6465  -30.6588   24.0560 C   0  0  0  0  0  0
  -25.9059  -34.9436   23.5084 C   0  0  0  0  0  0
  -16.5357  -29.9084   23.6331 C   0  0  0  0  0  0
  -16.7279  -28.6500   23.0356 C   0  0  0  0  0  0
  -26.4499  -31.6582   25.0717 C   0  0  0  0  0  0
  -25.3712  -31.3742   26.1431 C   0  0  0  0  0  0
  -27.0353  -30.2999   24.6217 C   0  0  0  0  0  0
  -27.6044  -32.4332   25.7496 C   0  0  0  0  0  0
  -27.5577  -37.1796   24.8463 C   0  0  0  0  0  0
  -21.4215  -29.3040   22.3653 N   0  0  0  0  0  0
  -26.4290  -37.3765   23.9406 N   0  0  0  0  0  0
  -24.6993  -31.0487   22.0937 N   0  0  0  0  0  0
  -23.4201  -28.8135   23.3019 O   0  0  0  0  0  0
  -28.3046  -26.3432   20.1405 O   0  0  0  0  0  0
  -26.5639  -34.8915   22.4658 O   0  0  0  0  0  0
  -23.5472  -32.1360   23.7242 O   0  0  0  0  0  0
  -31.0316  -18.8431   18.4185 C   0  0  0  0  0  0
  -30.8331  -17.5466   18.9318 C   0  0  0  0  0  0
  -30.3742  -19.9558   18.9691 C   0  0  0  0  0  0
  -30.0036  -17.3394   20.0672 C   0  0  0  0  0  0
  -29.5048  -19.7664   20.0605 C   0  0  0  0  0  0
  -28.5544  -23.6348   20.0346 C   0  0  0  0  0  0
  -30.6131  -22.4925   21.1545 C   0  0  0  0  0  0
  -28.1192  -24.9928   20.7924 C   0  0  0  0  0  0
  -29.1078  -22.3324   20.8644 C   0  0  2  0  0  0
  -29.3335  -18.4716   20.5758 N   0  0  0  0  0  0
  -29.8169  -15.9330   20.5515 N   0  0  0  0  0  0
  -28.7110  -20.8867   20.5330 N   0  0  0  0  0  0
  -28.4526  -23.5973   18.8055 O   0  0  0  0  0  0
  -31.4040  -16.5169   18.2626 F   0  0  0  0  0  0
  -30.5241  -21.1692   18.3843 F   0  0  0  0  0  0
  -31.4723  -12.5931   19.1788 H   0  0  0  0  0  0
  -30.3768  -11.5006   19.9782 H   0  0  0  0  0  0
  -29.8001  -11.7244   17.5334 H   0  0  0  0  0  0
  -29.6354  -13.4537   17.7139 H   0  0  0  0  0  0
  -27.9007  -11.2786   18.9256 H   0  0  0  0  0  0
  -27.3814  -12.5043   17.7993 H   0  0  0  0  0  0
  -27.6233  -14.2512   19.4487 H   0  0  0  0  0  0
  -28.7219  -12.2039   21.4366 H   0  0  0  0  0  0
  -28.4113  -13.8880   21.7780 H   0  0  0  0  0  0
  -25.2763   -9.5688   22.4757 H   0  0  0  0  0  0
  -24.0004   -7.4635   22.7473 H   0  0  0  0  0  0
  -21.0841   -8.8771   19.8955 H   0  0  0  0  0  0
  -22.3691  -10.9671   19.6166 H   0  0  0  0  0  0
  -21.2013   -7.6148   23.9716 H   0  0  0  0  0  0
  -21.1484   -6.0523   25.9078 H   0  0  0  0  0  0
  -22.0595   -2.7608   23.2845 H   0  0  0  0  0  0
  -22.4081  -11.9891   22.4836 H   0  0  0  0  0  0
  -21.1068  -13.1235   22.2622 H   0  0  0  0  0  0
  -24.6437  -15.8411   20.5204 H   0  0  0  0  0  0
  -26.2550  -15.6362   20.0607 H   0  0  0  0  0  0
  -26.7208  -32.5393   23.1056 H   0  0  0  0  0  0
  -25.0062  -33.9682   25.0374 H   0  0  0  0  0  0
  -22.7277  -31.2962   21.3905 H   0  0  0  0  0  0
  -23.3753  -35.9611   23.3300 H   0  0  0  0  0  0
  -24.3579  -36.8911   22.2056 H   0  0  0  0  0  0
  -23.7242  -37.6477   23.6675 H   0  0  0  0  0  0
  -26.1167  -31.5210   20.6049 H   0  0  0  0  0  0
  -26.8539  -30.8138   22.0107 H   0  0  0  0  0  0
  -28.1306  -28.9221   21.1945 H   0  0  0  0  0  0
  -25.9807  -25.8713   19.0382 H   0  0  0  0  0  0
  -23.9740  -27.2861   19.0170 H   0  0  0  0  0  0
  -23.7787  -30.5770   19.4003 H   0  0  0  0  0  0
  -22.7684  -29.2382   19.8521 H   0  0  0  0  0  0
  -25.1302  -36.1905   25.0816 H   0  0  0  0  0  0
  -20.9992  -28.3278   24.1387 H   0  0  0  0  0  0
  -20.5679  -26.2309   23.3616 H   0  0  0  0  0  0
  -21.6650  -26.7436   22.1204 H   0  0  0  0  0  0
  -19.6918  -25.6289   21.1250 H   0  0  0  0  0  0
  -19.6693  -27.3186   20.6737 H   0  0  0  0  0  0
  -17.4206  -26.6675   21.4027 H   0  0  0  0  0  0
  -18.0336  -26.0072   22.9023 H   0  0  0  0  0  0
  -19.7945  -30.7277   24.2258 H   0  0  0  0  0  0
  -17.5020  -31.6269   24.5160 H   0  0  0  0  0  0
  -15.5356  -30.2982   23.7659 H   0  0  0  0  0  0
  -15.8681  -28.0812   22.7079 H   0  0  0  0  0  0
  -24.5885  -30.7097   25.7754 H   0  0  0  0  0  0
  -24.8908  -32.2918   26.4839 H   0  0  0  0  0  0
  -25.8018  -30.8926   27.0219 H   0  0  0  0  0  0
  -26.2946  -29.6742   24.1226 H   0  0  0  0  0  0
  -27.4013  -29.7268   25.4745 H   0  0  0  0  0  0
  -27.8829  -30.4271   23.9480 H   0  0  0  0  0  0
  -27.2642  -33.3635   26.2058 H   0  0  0  0  0  0
  -28.3864  -32.6892   25.0334 H   0  0  0  0  0  0
  -28.0704  -31.8472   26.5428 H   0  0  0  0  0  0
  -28.2591  -38.0096   24.7512 H   0  0  0  0  0  0
  -28.1078  -36.2627   24.6290 H   0  0  0  0  0  0
  -27.2298  -37.1443   25.8867 H   0  0  0  0  0  0
  -20.9406  -29.8755   21.6847 H   0  0  0  0  0  0
  -26.0165  -38.2838   24.1408 H   0  0  0  0  0  0
  -31.6608  -18.9762   17.5520 H   0  0  0  0  0  0
  -30.8208  -23.4641   21.6052 H   0  0  0  0  0  0
  -31.2218  -22.4290   20.2543 H   0  0  0  0  0  0
  -30.9659  -21.7351   21.8547 H   0  0  0  0  0  0
  -28.6644  -25.0192   21.7355 H   0  0  0  0  0  0
  -27.0714  -24.8766   21.0708 H   0  0  0  0  0  0
  -28.6455  -22.4496   21.8453 H   0  0  0  0  0  0
  -28.9016  -15.7561   20.9290 H   0  0  0  0  0  0
  -27.9159  -20.5847   21.0822 H   0  0  0  0  0  0
  1 25  1  0  0  0
  1 30  2  0  0  0
  1 81  1  0  0  0
  2  3  1  0  0  0
  2 25  1  0  0  0
  2 86  1  0  0  0
  2 87  1  0  0  0
  3  4  1  0  0  0
  3 88  1  0  0  0
  3 89  1  0  0  0
  4  5  1  0  0  0
  4 90  1  0  0  0
  4 91  1  0  0  0
  5  6  1  0  0  0
  5 26  1  0  0  0
  5 92  1  0  0  0
  6 25  1  0  0  0
  6 93  1  0  0  0
  6 94  1  0  0  0
  7  8  2  0  0  0
  7 26  1  0  0  0
  7 29  1  0  0  0
  8  9  1  0  0  0
  8 22  1  0  0  0
  9 10  1  0  0  0
  9 27  2  0  0  0
 10 11  2  0  0  0
 10 15  1  0  0  0
 11 12  1  0  0  0
 11 95  1  0  0  0
 12 13  2  0  0  0
 12 96  1  0  0  0
 13 14  1  0  0  0
 13 31  1  0  0  0
 14 15  2  0  0  0
 14 97  1  0  0  0
 15 98  1  0  0  0
 16 17  2  0  0  0
 16 21  1  0  0  0
 16 31  1  0  0  0
 17 18  1  0  0  0
 17 99  1  0  0  0
 18 19  2  0  0  0
 18100  1  0  0  0
 19 20  1  0  0  0
 19 24  1  0  0  0
 20 21  2  0  0  0
 20101  1  0  0  0
 21 23  1  0  0  0
 22 28  1  0  0  0
 22 32  2  0  0  0
 26 27  1  0  0  0
 28102  1  0  0  0
 28103  1  0  0  0
 29104  1  0  0  0
 29105  1  0  0  0
 33 34  1  0  0  0
 33 66  1  0  0  0
 33 70  2  0  0  0
 34 36  1  0  0  0
 34 59  1  0  0  0
 34106  1  0  0  0
 35 44  2  0  0  0
 35 45  1  0  0  0
 35 68  1  0  0  0
 36 56  1  0  0  0
 36107  1  0  0  0
 37 39  1  0  0  0
 37 47  1  0  0  0
 37 66  1  0  0  0
 37108  1  0  0  0
 38 43  2  0  0  0
 38 46  1  0  0  0
 38 47  1  0  0  0
 39 64  1  0  0  0
 39 67  2  0  0  0
 40 52  1  0  0  0
 40 53  2  0  0  0
 40 58  1  0  0  0
 41109  1  0  0  0
 41110  1  0  0  0
 41111  1  0  0  0
 41 48  1  0  0  0
 42 43  1  0  0  0
 42 66  1  0  0  0
 42112  1  0  0  0
 42113  1  0  0  0
 43 44  1  0  0  0
 44114  1  0  0  0
 45 46  2  0  0  0
 45115  1  0  0  0
 46116  1  0  0  0
 47117  1  0  0  0
 47118  1  0  0  0
 48 56  1  0  0  0
 48 65  1  0  0  0
 48119  1  0  0  0
 49 50  1  0  0  0
 49 53  1  0  0  0
 49 64  1  0  0  0
 49120  1  0  0  0
 50 51  1  0  0  0
 50121  1  0  0  0
 50122  1  0  0  0
 51 52  1  0  0  0
 51123  1  0  0  0
 51124  1  0  0  0
 52125  1  0  0  0
 52126  1  0  0  0
 53 54  1  0  0  0
 54 55  2  0  0  0
 54127  1  0  0  0
 55 57  1  0  0  0
 55128  1  0  0  0
 56 69  2  0  0  0
 57 58  2  0  0  0
 57129  1  0  0  0
 58130  1  0  0  0
 59 60  1  0  0  0
 59 61  1  0  0  0
 59 62  1  0  0  0
 60131  1  0  0  0
 60132  1  0  0  0
 60133  1  0  0  0
 61134  1  0  0  0
 61135  1  0  0  0
 61136  1  0  0  0
 62137  1  0  0  0
 62138  1  0  0  0
 62139  1  0  0  0
 63 65  1  0  0  0
 63140  1  0  0  0
 63141  1  0  0  0
 63142  1  0  0  0
 64143  1  0  0  0
 65144  1  0  0  0
 68 78  1  0  0  0
 71 72  2  0  0  0
 71 73  1  0  0  0
 71145  1  0  0  0
 72 74  1  0  0  0
 72 84  1  0  0  0
 73 75  2  0  0  0
 73 85  1  0  0  0
 74 80  2  0  0  0
 74 81  1  0  0  0
 75 80  1  0  0  0
 75 82  1  0  0  0
 76 78  1  0  0  0
 76 79  1  0  0  0
 76 83  2  0  0  0
 77146  1  0  0  0
 77147  1  0  0  0
 77148  1  0  0  0
 77 79  1  0  0  0
 78149  1  0  0  0
 78150  1  0  0  0
 79 82  1  0  0  0
 79151  1  0  0  0
 81152  1  0  0  0
 82153  1  0  0  0
M  ISO  4   1 100  68 101  78 101  81 100
M  END
> <chiral flag>
0

> <version>
0

> <s_m_source_file>
/data/baiqing/PycharmProjects/Reinvent-master-3.2/result/LINK_invent/BTK/process_docking_weight1_custom_product_contain_oxygen_bond_distance_aromatic_linkinvent_7_9_3/rearranged_h_0181.sdf

> <i_m_source_file_index>
56

> <r_mmod_Potential_Energy-OPLS-2005>
127.996459960938

> <r_mmod_Stretch_Energy-OPLS-2005>
145.205230712891

> <r_mmod_Bend_Energy-OPLS-2005>
195.76904296875

> <r_mmod_Torsional_Energy-OPLS-2005>
260.833953857422

> <r_mmod_Improper_Torsional_Energy-OPLS-2005>
6.51380395889282

> <r_mmod_Van_der_Waal_Energy-OPLS-2005>
137.382293701172

> <r_mmod_Electrostatic_Energy-OPLS-2005>
-461.521392822266

> <r_mmod_Solvation_Energy-OPLS-2005>
-254.834548950195

> <b_mmod_Minimization_Converged-OPLS-2005>
0

> <r_mmod_RMS_Derivative-OPLS-2005>
0.554744362831116

$$$$
56
                    3D
 Structure written by MMmdl.
152160  0  0  1  0            999 V2000
  -30.6792  -14.5119   20.4898 C   0  0  0  0  0  0
  -30.4162  -12.3007   19.4523 C   0  0  0  0  0  0
  -29.5022  -12.4803   18.2214 C   0  0  0  0  0  0
  -28.0193  -12.3545   18.6237 C   0  0  0  0  0  0
  -27.6559  -13.2109   19.8674 C   0  0  2  0  0  0
  -28.6952  -13.0353   20.9987 C   0  0  0  0  0  0
  -25.2565  -13.8174   20.5679 C   0  0  0  0  0  0
  -24.1827  -13.0445   20.9190 C   0  0  0  0  0  0
  -24.6382  -11.6914   20.8730 C   0  0  0  0  0  0
  -23.9050  -10.4302   21.0399 C   0  0  0  0  0  0
  -24.3609   -9.4221   21.9176 C   0  0  0  0  0  0
  -23.6293   -8.2254   22.0755 C   0  0  0  0  0  0
  -22.4275   -8.0286   21.3545 C   0  0  0  0  0  0
  -21.9906   -9.0258   20.4645 C   0  0  0  0  0  0
  -22.7225  -10.2140   20.3049 C   0  0  0  0  0  0
  -21.6860   -6.0734   22.5282 C   0  0  0  0  0  0
  -21.4010   -6.5636   23.8215 C   0  0  0  0  0  0
  -21.3667   -5.6790   24.9179 C   0  0  0  0  0  0
  -21.6054   -4.3055   24.7232 C   0  0  0  0  0  0
  -21.8817   -3.8147   23.4354 C   0  0  0  0  0  0
  -21.9192   -4.6959   22.3403 C   0  0  0  0  0  0
  -22.7847  -13.5243   21.1865 C   0  0  0  0  0  0
  -22.1653   -4.2145   21.0980 F   0  0  0  0  0  0
  -21.5649   -3.4540   25.7745 F   0  0  0  0  0  0
  -30.0261  -13.3180   20.4424 N   0  0  0  0  0  0
  -26.2994  -12.9347   20.3331 N   0  0  0  0  0  0
  -25.9307  -11.6506   20.5755 N   0  0  0  0  0  0
  -22.0483  -12.8228   22.0413 N   0  0  0  0  0  0
  -25.4283  -15.1893   20.4087 N   0  0  0  0  0  0
  -31.8534  -14.6347   20.1269 O   0  0  0  0  0  0
  -21.6651   -6.8876   21.4243 O   0  0  0  0  0  0
  -22.3535  -14.5556   20.6733 O   0  0  0  0  0  0
  -24.6181  -31.8670   23.2092 C   0  0  0  0  0  0
  -25.9063  -32.4814   23.8395 C   0  0  1  0  0  0
  -27.2259  -27.4017   20.1013 C   0  0  0  0  0  0
  -25.5909  -33.8616   24.2319 N   0  0  0  0  0  0
  -23.4066  -30.4929   21.5506 C   0  0  2  0  0  0
  -24.8508  -28.9602   20.1123 C   0  0  0  0  0  0
  -22.7423  -29.4671   22.4984 C   0  0  0  0  0  0
  -18.0273  -28.1376   22.8490 C   0  0  0  0  0  0
  -24.1489  -36.7312   23.2637 C   0  0  0  0  0  0
  -25.9411  -30.8227   21.3685 C   0  0  0  0  0  0
  -26.0158  -29.4578   20.7099 C   0  0  0  0  0  0
  -27.2071  -28.6887   20.6973 C   0  0  0  0  0  0
  -26.0390  -26.9370   19.4843 C   0  0  0  0  0  0
  -24.8598  -27.7005   19.4949 C   0  0  0  0  0  0
  -23.6142  -29.8288   20.1646 C   0  0  0  0  0  0
  -25.4112  -36.3109   24.0334 C   0  0  1  0  0  0
  -20.5868  -28.3673   23.1300 C   0  0  2  0  0  0
  -20.6771  -26.9408   22.5408 C   0  0  0  0  0  0
  -19.5750  -26.6381   21.5209 C   0  0  0  0  0  0
  -18.1924  -26.7922   22.1620 C   0  0  0  0  0  0
  -19.1525  -28.8841   23.2890 C   0  0  0  0  0  0
  -18.9453  -30.1447   23.8900 C   0  0  0  0  0  0
  -17.6456  -30.6587   24.0560 C   0  0  0  0  0  0
  -25.9041  -34.9473   23.5124 C   0  0  0  0  0  0
  -16.5346  -29.9086   23.6329 C   0  0  0  0  0  0
  -16.7262  -28.6500   23.0356 C   0  0  0  0  0  0
  -26.4467  -31.6605   25.0739 C   0  0  0  0  0  0
  -25.3719  -31.3730   26.1480 C   0  0  0  0  0  0
  -27.0296  -30.3036   24.6152 C   0  0  0  0  0  0
  -27.6044  -32.4323   25.7498 C   0  0  0  0  0  0
  -27.5588  -37.1807   24.8460 C   0  0  0  0  0  0
  -21.4150  -29.3045   22.3713 N   0  0  0  0  0  0
  -26.4296  -37.3795   23.9411 N   0  0  0  0  0  0
  -24.6738  -31.0754   22.1002 N   0  0  0  0  0  0
  -23.4180  -28.8210   23.3036 O   0  0  0  0  0  0
  -28.3713  -26.6164   20.1469 O   0  0  0  0  0  0
  -26.5605  -34.8924   22.4685 O   0  0  0  0  0  0
  -23.5366  -32.1439   23.7468 O   0  0  0  0  0  0
  -29.8673  -19.1552   18.4725 C   0  0  0  0  0  0
  -30.1708  -16.7688   18.6164 C   0  0  0  0  0  0
  -30.1384  -17.9360   17.8479 C   0  0  0  0  0  0
  -29.6348  -19.1955   19.8626 C   0  0  0  0  0  0
  -29.9308  -16.8322   20.0065 C   0  0  0  0  0  0
  -28.9677  -22.8376   20.8778 C   0  0  0  0  0  0
  -29.7211  -21.7023   20.1098 C   0  0  0  0  0  0
  -29.3522  -24.3146   20.5928 C   0  0  0  0  0  0
  -28.1627  -25.1807   20.0997 C   0  0  0  0  0  0
  -29.6387  -18.0353   20.5899 N   0  0  0  0  0  0
  -29.3173  -20.4557   20.4658 N   0  0  0  0  0  0
  -29.9122  -15.5990   20.7462 N   0  0  0  0  0  0
  -28.0852  -22.5730   21.7042 O   0  0  0  0  0  0
  -30.6098  -21.9553   19.2868 O   0  0  0  0  0  0
  -30.3567  -17.8831   16.5120 F   0  0  0  0  0  0
  -31.4660  -12.3766   19.1616 H   0  0  0  0  0  0
  -30.2968  -11.3022   19.8767 H   0  0  0  0  0  0
  -29.7459  -11.7349   17.4628 H   0  0  0  0  0  0
  -29.6807  -13.4537   17.7616 H   0  0  0  0  0  0
  -27.8235  -11.3017   18.8295 H   0  0  0  0  0  0
  -27.3775  -12.6219   17.7833 H   0  0  0  0  0  0
  -27.6856  -14.2517   19.5448 H   0  0  0  0  0  0
  -28.6687  -12.0166   21.3889 H   0  0  0  0  0  0
  -28.4651  -13.6843   21.8451 H   0  0  0  0  0  0
  -25.2754   -9.5728   22.4743 H   0  0  0  0  0  0
  -24.0024   -7.4653   22.7474 H   0  0  0  0  0  0
  -21.0840   -8.8769   19.8940 H   0  0  0  0  0  0
  -22.3681  -10.9677   19.6164 H   0  0  0  0  0  0
  -21.1982   -7.6141   23.9717 H   0  0  0  0  0  0
  -21.1497   -6.0523   25.9084 H   0  0  0  0  0  0
  -22.0583   -2.7607   23.2860 H   0  0  0  0  0  0
  -22.4097  -11.9868   22.4765 H   0  0  0  0  0  0
  -21.1108  -13.1272   22.2629 H   0  0  0  0  0  0
  -24.6613  -15.8446   20.5178 H   0  0  0  0  0  0
  -26.2742  -15.6291   20.0691 H   0  0  0  0  0  0
  -26.7137  -32.5499   23.1159 H   0  0  0  0  0  0
  -25.0063  -33.9777   25.0465 H   0  0  0  0  0  0
  -22.6967  -31.3113   21.4125 H   0  0  0  0  0  0
  -23.3751  -35.9644   23.3298 H   0  0  0  0  0  0
  -24.3588  -36.8929   22.2054 H   0  0  0  0  0  0
  -23.7240  -37.6516   23.6650 H   0  0  0  0  0  0
  -26.0652  -31.5899   20.6029 H   0  0  0  0  0  0
  -26.8242  -30.8671   21.9942 H   0  0  0  0  0  0
  -28.1028  -29.0670   21.1701 H   0  0  0  0  0  0
  -25.9941  -25.9763   18.9933 H   0  0  0  0  0  0
  -23.9660  -27.3107   19.0269 H   0  0  0  0  0  0
  -23.7205  -30.6041   19.4050 H   0  0  0  0  0  0
  -22.7361  -29.2496   19.8716 H   0  0  0  0  0  0
  -25.1288  -36.1977   25.0827 H   0  0  0  0  0  0
  -20.9958  -28.3240   24.1421 H   0  0  0  0  0  0
  -20.5678  -26.2285   23.3600 H   0  0  0  0  0  0
  -21.6641  -26.7453   22.1202 H   0  0  0  0  0  0
  -19.6917  -25.6289   21.1245 H   0  0  0  0  0  0
  -19.6690  -27.3187   20.6736 H   0  0  0  0  0  0
  -17.4198  -26.6665   21.4018 H   0  0  0  0  0  0
  -18.0327  -26.0055   22.9009 H   0  0  0  0  0  0
  -19.7930  -30.7264   24.2268 H   0  0  0  0  0  0
  -17.5013  -31.6271   24.5157 H   0  0  0  0  0  0
  -15.5349  -30.2996   23.7655 H   0  0  0  0  0  0
  -15.8656  -28.0824   22.7079 H   0  0  0  0  0  0
  -24.5883  -30.7087   25.7815 H   0  0  0  0  0  0
  -24.8917  -32.2892   26.4927 H   0  0  0  0  0  0
  -25.8056  -30.8895   27.0243 H   0  0  0  0  0  0
  -26.2862  -29.6808   24.1162 H   0  0  0  0  0  0
  -27.3996  -29.7267   25.4641 H   0  0  0  0  0  0
  -27.8728  -30.4338   23.9365 H   0  0  0  0  0  0
  -27.2670  -33.3612   26.2108 H   0  0  0  0  0  0
  -28.3835  -32.6901   25.0311 H   0  0  0  0  0  0
  -28.0733  -31.8425   26.5387 H   0  0  0  0  0  0
  -28.2596  -38.0113   24.7520 H   0  0  0  0  0  0
  -28.1092  -36.2644   24.6265 H   0  0  0  0  0  0
  -27.2305  -37.1438   25.8861 H   0  0  0  0  0  0
  -20.9315  -29.8778   21.6941 H   0  0  0  0  0  0
  -26.0184  -38.2873   24.1407 H   0  0  0  0  0  0
  -29.8303  -20.0429   17.8593 H   0  0  0  0  0  0
  -30.3748  -15.8363   18.1125 H   0  0  0  0  0  0
  -30.1714  -24.3587   19.8758 H   0  0  0  0  0  0
  -29.7369  -24.7266   21.5252 H   0  0  0  0  0  0
  -27.2882  -24.9295   20.7044 H   0  0  0  0  0  0
  -27.9360  -24.8905   19.0724 H   0  0  0  0  0  0
  -28.6850  -20.4381   21.2543 H   0  0  0  0  0  0
  -29.0688  -15.4246   21.2690 H   0  0  0  0  0  0
  1 25  1  0  0  0
  1 30  2  0  0  0
  1 82  1  0  0  0
  2  3  1  0  0  0
  2 25  1  0  0  0
  2 86  1  0  0  0
  2 87  1  0  0  0
  3  4  1  0  0  0
  3 88  1  0  0  0
  3 89  1  0  0  0
  4  5  1  0  0  0
  4 90  1  0  0  0
  4 91  1  0  0  0
  5  6  1  0  0  0
  5 26  1  0  0  0
  5 92  1  0  0  0
  6 25  1  0  0  0
  6 93  1  0  0  0
  6 94  1  0  0  0
  7  8  2  0  0  0
  7 26  1  0  0  0
  7 29  1  0  0  0
  8  9  1  0  0  0
  8 22  1  0  0  0
  9 10  1  0  0  0
  9 27  2  0  0  0
 10 11  2  0  0  0
 10 15  1  0  0  0
 11 12  1  0  0  0
 11 95  1  0  0  0
 12 13  2  0  0  0
 12 96  1  0  0  0
 13 14  1  0  0  0
 13 31  1  0  0  0
 14 15  2  0  0  0
 14 97  1  0  0  0
 15 98  1  0  0  0
 16 17  2  0  0  0
 16 21  1  0  0  0
 16 31  1  0  0  0
 17 18  1  0  0  0
 17 99  1  0  0  0
 18 19  2  0  0  0
 18100  1  0  0  0
 19 20  1  0  0  0
 19 24  1  0  0  0
 20 21  2  0  0  0
 20101  1  0  0  0
 21 23  1  0  0  0
 22 28  1  0  0  0
 22 32  2  0  0  0
 26 27  1  0  0  0
 28102  1  0  0  0
 28103  1  0  0  0
 29104  1  0  0  0
 29105  1  0  0  0
 33 34  1  0  0  0
 33 66  1  0  0  0
 33 70  2  0  0  0
 34 36  1  0  0  0
 34 59  1  0  0  0
 34106  1  0  0  0
 35 44  2  0  0  0
 35 45  1  0  0  0
 35 68  1  0  0  0
 36 56  1  0  0  0
 36107  1  0  0  0
 37 39  1  0  0  0
 37 47  1  0  0  0
 37 66  1  0  0  0
 37108  1  0  0  0
 38 43  2  0  0  0
 38 46  1  0  0  0
 38 47  1  0  0  0
 39 64  1  0  0  0
 39 67  2  0  0  0
 40 52  1  0  0  0
 40 53  2  0  0  0
 40 58  1  0  0  0
 41109  1  0  0  0
 41110  1  0  0  0
 41111  1  0  0  0
 41 48  1  0  0  0
 42 43  1  0  0  0
 42 66  1  0  0  0
 42112  1  0  0  0
 42113  1  0  0  0
 43 44  1  0  0  0
 44114  1  0  0  0
 45 46  2  0  0  0
 45115  1  0  0  0
 46116  1  0  0  0
 47117  1  0  0  0
 47118  1  0  0  0
 48 56  1  0  0  0
 48 65  1  0  0  0
 48119  1  0  0  0
 49 50  1  0  0  0
 49 53  1  0  0  0
 49 64  1  0  0  0
 49120  1  0  0  0
 50 51  1  0  0  0
 50121  1  0  0  0
 50122  1  0  0  0
 51 52  1  0  0  0
 51123  1  0  0  0
 51124  1  0  0  0
 52125  1  0  0  0
 52126  1  0  0  0
 53 54  1  0  0  0
 54 55  2  0  0  0
 54127  1  0  0  0
 55 57  1  0  0  0
 55128  1  0  0  0
 56 69  2  0  0  0
 57 58  2  0  0  0
 57129  1  0  0  0
 58130  1  0  0  0
 59 60  1  0  0  0
 59 61  1  0  0  0
 59 62  1  0  0  0
 60131  1  0  0  0
 60132  1  0  0  0
 60133  1  0  0  0
 61134  1  0  0  0
 61135  1  0  0  0
 61136  1  0  0  0
 62137  1  0  0  0
 62138  1  0  0  0
 62139  1  0  0  0
 63 65  1  0  0  0
 63140  1  0  0  0
 63141  1  0  0  0
 63142  1  0  0  0
 64143  1  0  0  0
 65144  1  0  0  0
 68 79  1  0  0  0
 71 73  2  0  0  0
 71 74  1  0  0  0
 71145  1  0  0  0
 72 73  1  0  0  0
 72 75  2  0  0  0
 72146  1  0  0  0
 73 85  1  0  0  0
 74 80  2  0  0  0
 74 81  1  0  0  0
 75 80  1  0  0  0
 75 82  1  0  0  0
 76 77  1  0  0  0
 76 78  1  0  0  0
 76 83  2  0  0  0
 77 81  1  0  0  0
 77 84  2  0  0  0
 78 79  1  0  0  0
 78147  1  0  0  0
 78148  1  0  0  0
 79149  1  0  0  0
 79150  1  0  0  0
 81151  1  0  0  0
 82152  1  0  0  0
M  ISO  4   1 100  68 101  79 101  82 100
M  END
> <chiral flag>
0

> <version>
0

> <s_m_source_file>
/data/baiqing/PycharmProjects/Reinvent-master-3.2/result/LINK_invent/BTK/process_docking_weight1_custom_product_contain_oxygen_bond_distance_aromatic_linkinvent_7_9_3/rearranged_h_0181.sdf

> <i_m_source_file_index>
57

> <r_mmod_Potential_Energy-OPLS-2005>
-244.915176391602

> <r_mmod_Stretch_Energy-OPLS-2005>
46.5289726257324

> <r_mmod_Bend_Energy-OPLS-2005>
101.413307189941

> <r_mmod_Torsional_Energy-OPLS-2005>
262.059051513672

> <r_mmod_Improper_Torsional_Energy-OPLS-2005>
6.64236116409302

> <r_mmod_Van_der_Waal_Energy-OPLS-2005>
164.961563110352

> <r_mmod_Electrostatic_Energy-OPLS-2005>
-612.110900878906

> <r_mmod_Solvation_Energy-OPLS-2005>
-237.038208007812

> <b_mmod_Minimization_Converged-OPLS-2005>
0

> <r_mmod_RMS_Derivative-OPLS-2005>
1.2372715473175

$$$$
57
                    3D
 Structure written by MMmdl.
156164  0  0  1  0            999 V2000
  -30.7034  -14.4804   20.5638 C   0  0  0  0  0  0
  -30.4178  -12.3069   19.4423 C   0  0  0  0  0  0
  -29.5061  -12.5160   18.2156 C   0  0  0  0  0  0
  -28.0203  -12.3829   18.6103 C   0  0  0  0  0  0
  -27.6633  -13.2134   19.8738 C   0  0  2  0  0  0
  -28.6989  -13.0090   21.0023 C   0  0  0  0  0  0
  -25.2617  -13.8189   20.5652 C   0  0  0  0  0  0
  -24.1885  -13.0445   20.9170 C   0  0  0  0  0  0
  -24.6425  -11.6921   20.8695 C   0  0  0  0  0  0
  -23.9082  -10.4306   21.0371 C   0  0  0  0  0  0
  -24.3648   -9.4230   21.9160 C   0  0  0  0  0  0
  -23.6314   -8.2269   22.0747 C   0  0  0  0  0  0
  -22.4290   -8.0303   21.3557 C   0  0  0  0  0  0
  -21.9915   -9.0273   20.4646 C   0  0  0  0  0  0
  -22.7244  -10.2147   20.3034 C   0  0  0  0  0  0
  -21.6863   -6.0754   22.5279 C   0  0  0  0  0  0
  -21.4020   -6.5657   23.8220 C   0  0  0  0  0  0
  -21.3664   -5.6797   24.9178 C   0  0  0  0  0  0
  -21.6031   -4.3057   24.7214 C   0  0  0  0  0  0
  -21.8829   -3.8164   23.4333 C   0  0  0  0  0  0
  -21.9202   -4.6983   22.3403 C   0  0  0  0  0  0
  -22.7908  -13.5252   21.1808 C   0  0  0  0  0  0
  -22.1669   -4.2173   21.0973 F   0  0  0  0  0  0
  -21.5619   -3.4538   25.7733 F   0  0  0  0  0  0
  -30.0334  -13.2985   20.4600 N   0  0  0  0  0  0
  -26.3049  -12.9349   20.3341 N   0  0  0  0  0  0
  -25.9347  -11.6513   20.5745 N   0  0  0  0  0  0
  -22.0532  -12.8293   22.0371 N   0  0  0  0  0  0
  -25.4369  -15.1898   20.4083 N   0  0  0  0  0  0
  -31.8374  -14.6392   20.1041 O   0  0  0  0  0  0
  -21.6648   -6.8898   21.4250 O   0  0  0  0  0  0
  -22.3603  -14.5544   20.6614 O   0  0  0  0  0  0
  -24.6166  -31.8647   23.2114 C   0  0  0  0  0  0
  -25.9053  -32.4793   23.8403 C   0  0  1  0  0  0
  -27.2318  -27.4184   20.0941 C   0  0  0  0  0  0
  -25.5889  -33.8584   24.2313 N   0  0  0  0  0  0
  -23.4099  -30.4942   21.5519 C   0  0  2  0  0  0
  -24.8582  -28.9717   20.1072 C   0  0  0  0  0  0
  -22.7442  -29.4652   22.4953 C   0  0  0  0  0  0
  -18.0283  -28.1393   22.8484 C   0  0  0  0  0  0
  -24.1493  -36.7294   23.2642 C   0  0  0  0  0  0
  -25.9476  -30.8246   21.3793 C   0  0  0  0  0  0
  -26.0244  -29.4700   20.7015 C   0  0  0  0  0  0
  -27.2196  -28.7080   20.6805 C   0  0  0  0  0  0
  -26.0532  -26.9598   19.4622 C   0  0  0  0  0  0
  -24.8711  -27.7177   19.4780 C   0  0  0  0  0  0
  -23.6199  -29.8350   20.1656 C   0  0  0  0  0  0
  -25.4114  -36.3087   24.0340 C   0  0  1  0  0  0
  -20.5885  -28.3676   23.1287 C   0  0  2  0  0  0
  -20.6779  -26.9406   22.5401 C   0  0  0  0  0  0
  -19.5763  -26.6392   21.5202 C   0  0  0  0  0  0
  -18.1937  -26.7943   22.1615 C   0  0  0  0  0  0
  -19.1536  -28.8855   23.2892 C   0  0  0  0  0  0
  -18.9469  -30.1459   23.8905 C   0  0  0  0  0  0
  -17.6468  -30.6596   24.0569 C   0  0  0  0  0  0
  -25.9032  -34.9440   23.5120 C   0  0  0  0  0  0
  -16.5358  -29.9098   23.6326 C   0  0  0  0  0  0
  -16.7271  -28.6522   23.0340 C   0  0  0  0  0  0
  -26.4435  -31.6617   25.0776 C   0  0  0  0  0  0
  -25.3659  -31.3825   26.1519 C   0  0  0  0  0  0
  -27.0280  -30.3019   24.6286 C   0  0  0  0  0  0
  -27.5996  -32.4384   25.7508 C   0  0  0  0  0  0
  -27.5594  -37.1792   24.8450 C   0  0  0  0  0  0
  -21.4167  -29.3037   22.3684 N   0  0  0  0  0  0
  -26.4294  -37.3781   23.9411 N   0  0  0  0  0  0
  -24.6758  -31.0736   22.1032 N   0  0  0  0  0  0
  -23.4202  -28.8155   23.2989 O   0  0  0  0  0  0
  -28.3506  -26.5986   20.1699 O   0  0  0  0  0  0
  -26.5597  -34.8895   22.4683 O   0  0  0  0  0  0
  -23.5344  -32.1398   23.7476 O   0  0  0  0  0  0
  -29.7576  -18.7127   18.8882 C   0  0  0  0  0  0
  -29.4967  -19.0333   20.2047 C   0  0  0  0  0  0
  -29.9490  -16.7991   20.4438 C   0  0  0  0  0  0
  -29.5603  -21.5456   20.3420 C   0  0  0  0  0  0
  -29.6471  -19.5514   17.6559 C   0  0  0  0  0  0
  -27.7586  -25.3438   22.1819 C   0  0  0  0  0  0
  -28.7582  -22.7632   20.8547 C   0  0  0  0  0  0
  -29.1898  -24.1966   20.3867 C   0  0  0  0  0  0
  -28.0857  -25.2587   20.6774 C   0  0  2  0  0  0
  -29.5447  -17.9204   21.0749 N   0  0  0  0  0  0
  -29.0433  -20.3227   20.6233 N   0  0  0  0  0  0
  -30.0151  -15.5209   21.0773 N   0  0  0  0  0  0
  -30.6174  -21.7190   19.7310 O   0  0  0  0  0  0
  -30.2396  -17.0449   18.7247 S   0  0  0  0  0  0
  -31.4675  -12.3832   19.1515 H   0  0  0  0  0  0
  -30.2963  -11.2971   19.8362 H   0  0  0  0  0  0
  -29.7545  -11.7949   17.4355 H   0  0  0  0  0  0
  -29.6848  -13.5045   17.7895 H   0  0  0  0  0  0
  -27.8055  -11.3276   18.7818 H   0  0  0  0  0  0
  -27.3861  -12.6862   17.7768 H   0  0  0  0  0  0
  -27.7029  -14.2619   19.5773 H   0  0  0  0  0  0
  -28.6719  -11.9772   21.3528 H   0  0  0  0  0  0
  -28.4553  -13.6208   21.8724 H   0  0  0  0  0  0
  -25.2780   -9.5728   22.4749 H   0  0  0  0  0  0
  -24.0027   -7.4663   22.7473 H   0  0  0  0  0  0
  -21.0840   -8.8790   19.8965 H   0  0  0  0  0  0
  -22.3676  -10.9701   19.6158 H   0  0  0  0  0  0
  -21.2016   -7.6163   23.9740 H   0  0  0  0  0  0
  -21.1465   -6.0516   25.9082 H   0  0  0  0  0  0
  -22.0601   -2.7627   23.2827 H   0  0  0  0  0  0
  -22.4092  -11.9951   22.4815 H   0  0  0  0  0  0
  -21.1145  -13.1361   22.2513 H   0  0  0  0  0  0
  -24.6744  -15.8499   20.5203 H   0  0  0  0  0  0
  -26.2975  -15.6271   20.1046 H   0  0  0  0  0  0
  -26.7134  -32.5481   23.1168 H   0  0  0  0  0  0
  -25.0003  -33.9722   25.0441 H   0  0  0  0  0  0
  -22.7027  -31.3149   21.4136 H   0  0  0  0  0  0
  -23.3749  -35.9628   23.3267 H   0  0  0  0  0  0
  -24.3615  -36.8935   22.2069 H   0  0  0  0  0  0
  -23.7244  -37.6489   23.6671 H   0  0  0  0  0  0
  -26.0992  -31.6113   20.6388 H   0  0  0  0  0  0
  -26.8165  -30.8398   22.0270 H   0  0  0  0  0  0
  -28.1181  -29.0908   21.1461 H   0  0  0  0  0  0
  -26.0285  -26.0089   18.9511 H   0  0  0  0  0  0
  -23.9812  -27.3334   18.9997 H   0  0  0  0  0  0
  -23.7235  -30.6117   19.4067 H   0  0  0  0  0  0
  -22.7471  -29.2497   19.8727 H   0  0  0  0  0  0
  -25.1302  -36.1933   25.0839 H   0  0  0  0  0  0
  -20.9997  -28.3235   24.1400 H   0  0  0  0  0  0
  -20.5666  -26.2280   23.3590 H   0  0  0  0  0  0
  -21.6654  -26.7429   22.1208 H   0  0  0  0  0  0
  -19.6908  -25.6295   21.1250 H   0  0  0  0  0  0
  -19.6726  -27.3185   20.6722 H   0  0  0  0  0  0
  -17.4216  -26.6683   21.4014 H   0  0  0  0  0  0
  -18.0345  -26.0082   22.9011 H   0  0  0  0  0  0
  -19.7943  -30.7274   24.2290 H   0  0  0  0  0  0
  -17.5024  -31.6286   24.5157 H   0  0  0  0  0  0
  -15.5360  -30.3008   23.7662 H   0  0  0  0  0  0
  -15.8673  -28.0853   22.7042 H   0  0  0  0  0  0
  -24.5749  -30.7279   25.7855 H   0  0  0  0  0  0
  -24.8947  -32.3038   26.4945 H   0  0  0  0  0  0
  -25.7928  -30.8967   27.0300 H   0  0  0  0  0  0
  -26.2904  -29.6795   24.1209 H   0  0  0  0  0  0
  -27.3833  -29.7267   25.4845 H   0  0  0  0  0  0
  -27.8824  -30.4276   23.9637 H   0  0  0  0  0  0
  -27.2578  -33.3658   26.2116 H   0  0  0  0  0  0
  -28.3744  -32.7009   25.0296 H   0  0  0  0  0  0
  -28.0735  -31.8524   26.5391 H   0  0  0  0  0  0
  -28.2572  -38.0126   24.7529 H   0  0  0  0  0  0
  -28.1136  -36.2649   24.6231 H   0  0  0  0  0  0
  -27.2317  -37.1399   25.8856 H   0  0  0  0  0  0
  -20.9311  -29.8748   21.6900 H   0  0  0  0  0  0
  -26.0164  -38.2846   24.1433 H   0  0  0  0  0  0
  -30.5982  -20.0324   17.4310 H   0  0  0  0  0  0
  -28.8860  -20.3239   17.7666 H   0  0  0  0  0  0
  -29.3666  -18.9395   16.7972 H   0  0  0  0  0  0
  -27.3463  -24.4047   22.5519 H   0  0  0  0  0  0
  -27.0074  -26.1051   22.3859 H   0  0  0  0  0  0
  -28.6392  -25.5781   22.7783 H   0  0  0  0  0  0
  -28.7597  -22.7259   21.9442 H   0  0  0  0  0  0
  -27.7259  -22.6006   20.5439 H   0  0  0  0  0  0
  -29.3897  -24.1860   19.3159 H   0  0  0  0  0  0
  -30.1306  -24.4792   20.8640 H   0  0  0  0  0  0
  -27.2031  -24.8528   20.1935 H   0  0  0  0  0  0
  -28.2249  -20.3203   21.2126 H   0  0  0  0  0  0
  -29.2473  -15.2963   21.6880 H   0  0  0  0  0  0
  1 25  1  0  0  0
  1 30  2  0  0  0
  1 82  1  0  0  0
  2  3  1  0  0  0
  2 25  1  0  0  0
  2 85  1  0  0  0
  2 86  1  0  0  0
  3  4  1  0  0  0
  3 87  1  0  0  0
  3 88  1  0  0  0
  4  5  1  0  0  0
  4 89  1  0  0  0
  4 90  1  0  0  0
  5  6  1  0  0  0
  5 26  1  0  0  0
  5 91  1  0  0  0
  6 25  1  0  0  0
  6 92  1  0  0  0
  6 93  1  0  0  0
  7  8  2  0  0  0
  7 26  1  0  0  0
  7 29  1  0  0  0
  8  9  1  0  0  0
  8 22  1  0  0  0
  9 10  1  0  0  0
  9 27  2  0  0  0
 10 11  2  0  0  0
 10 15  1  0  0  0
 11 12  1  0  0  0
 11 94  1  0  0  0
 12 13  2  0  0  0
 12 95  1  0  0  0
 13 14  1  0  0  0
 13 31  1  0  0  0
 14 15  2  0  0  0
 14 96  1  0  0  0
 15 97  1  0  0  0
 16 17  2  0  0  0
 16 21  1  0  0  0
 16 31  1  0  0  0
 17 18  1  0  0  0
 17 98  1  0  0  0
 18 19  2  0  0  0
 18 99  1  0  0  0
 19 20  1  0  0  0
 19 24  1  0  0  0
 20 21  2  0  0  0
 20100  1  0  0  0
 21 23  1  0  0  0
 22 28  1  0  0  0
 22 32  2  0  0  0
 26 27  1  0  0  0
 28101  1  0  0  0
 28102  1  0  0  0
 29103  1  0  0  0
 29104  1  0  0  0
 33 34  1  0  0  0
 33 66  1  0  0  0
 33 70  2  0  0  0
 34 36  1  0  0  0
 34 59  1  0  0  0
 34105  1  0  0  0
 35 44  2  0  0  0
 35 45  1  0  0  0
 35 68  1  0  0  0
 36 56  1  0  0  0
 36106  1  0  0  0
 37 39  1  0  0  0
 37 47  1  0  0  0
 37 66  1  0  0  0
 37107  1  0  0  0
 38 43  2  0  0  0
 38 46  1  0  0  0
 38 47  1  0  0  0
 39 64  1  0  0  0
 39 67  2  0  0  0
 40 52  1  0  0  0
 40 53  2  0  0  0
 40 58  1  0  0  0
 41108  1  0  0  0
 41109  1  0  0  0
 41110  1  0  0  0
 41 48  1  0  0  0
 42 43  1  0  0  0
 42 66  1  0  0  0
 42111  1  0  0  0
 42112  1  0  0  0
 43 44  1  0  0  0
 44113  1  0  0  0
 45 46  2  0  0  0
 45114  1  0  0  0
 46115  1  0  0  0
 47116  1  0  0  0
 47117  1  0  0  0
 48 56  1  0  0  0
 48 65  1  0  0  0
 48118  1  0  0  0
 49 50  1  0  0  0
 49 53  1  0  0  0
 49 64  1  0  0  0
 49119  1  0  0  0
 50 51  1  0  0  0
 50120  1  0  0  0
 50121  1  0  0  0
 51 52  1  0  0  0
 51122  1  0  0  0
 51123  1  0  0  0
 52124  1  0  0  0
 52125  1  0  0  0
 53 54  1  0  0  0
 54 55  2  0  0  0
 54126  1  0  0  0
 55 57  1  0  0  0
 55127  1  0  0  0
 56 69  2  0  0  0
 57 58  2  0  0  0
 57128  1  0  0  0
 58129  1  0  0  0
 59 60  1  0  0  0
 59 61  1  0  0  0
 59 62  1  0  0  0
 60130  1  0  0  0
 60131  1  0  0  0
 60132  1  0  0  0
 61133  1  0  0  0
 61134  1  0  0  0
 61135  1  0  0  0
 62136  1  0  0  0
 62137  1  0  0  0
 62138  1  0  0  0
 63 65  1  0  0  0
 63139  1  0  0  0
 63140  1  0  0  0
 63141  1  0  0  0
 64142  1  0  0  0
 65143  1  0  0  0
 68 79  1  0  0  0
 71 72  2  0  0  0
 71 75  1  0  0  0
 71 84  1  0  0  0
 72 80  1  0  0  0
 72 81  1  0  0  0
 73 80  2  0  0  0
 73 82  1  0  0  0
 73 84  1  0  0  0
 74 77  1  0  0  0
 74 81  1  0  0  0
 74 83  2  0  0  0
 75144  1  0  0  0
 75145  1  0  0  0
 75146  1  0  0  0
 76147  1  0  0  0
 76148  1  0  0  0
 76149  1  0  0  0
 76 79  1  0  0  0
 77 78  1  0  0  0
 77150  1  0  0  0
 77151  1  0  0  0
 78 79  1  0  0  0
 78152  1  0  0  0
 78153  1  0  0  0
 79154  1  0  0  0
 81155  1  0  0  0
 82156  1  0  0  0
M  ISO  4   1 100  68 101  79 101  82 100
M  END
> <chiral flag>
0

> <version>
0

> <s_m_source_file>
/data/baiqing/PycharmProjects/Reinvent-master-3.2/result/LINK_invent/BTK/process_docking_weight1_custom_product_contain_oxygen_bond_distance_aromatic_linkinvent_7_9_3/rearranged_h_0181.sdf

> <i_m_source_file_index>
58

> <r_mmod_Potential_Energy-OPLS-2005>
-162.110214233398

> <r_mmod_Stretch_Energy-OPLS-2005>
42.0836372375488

> <r_mmod_Bend_Energy-OPLS-2005>
103.897354125977

> <r_mmod_Torsional_Energy-OPLS-2005>
260.275390625

> <r_mmod_Improper_Torsional_Energy-OPLS-2005>
5.86137104034424

> <r_mmod_Van_der_Waal_Energy-OPLS-2005>
135.485397338867

> <r_mmod_Electrostatic_Energy-OPLS-2005>
-495.63671875

> <r_mmod_Solvation_Energy-OPLS-2005>
-233.04280090332

> <b_mmod_Minimization_Converged-OPLS-2005>
0

> <r_mmod_RMS_Derivative-OPLS-2005>
4.20528841018677

$$$$
58
                    3D
 Structure written by MMmdl.
162170  0  0  1  0            999 V2000
  -30.6305  -14.5884   20.5884 C   0  0  0  0  0  0
  -30.4424  -12.3824   19.4422 C   0  0  0  0  0  0
  -29.5054  -12.5365   18.2226 C   0  0  0  0  0  0
  -28.0285  -12.3709   18.6306 C   0  0  0  0  0  0
  -27.6619  -13.2102   19.8816 C   0  0  2  0  0  0
  -28.7031  -13.0034   21.0046 C   0  0  0  0  0  0
  -25.2556  -13.8070   20.5618 C   0  0  0  0  0  0
  -24.1822  -13.0376   20.9157 C   0  0  0  0  0  0
  -24.6403  -11.6858   20.8739 C   0  0  0  0  0  0
  -23.9063  -10.4259   21.0407 C   0  0  0  0  0  0
  -24.3614   -9.4181   21.9188 C   0  0  0  0  0  0
  -23.6279   -8.2224   22.0760 C   0  0  0  0  0  0
  -22.4263   -8.0267   21.3545 C   0  0  0  0  0  0
  -21.9899   -9.0245   20.4651 C   0  0  0  0  0  0
  -22.7234  -10.2119   20.3060 C   0  0  0  0  0  0
  -21.6850   -6.0724   22.5279 C   0  0  0  0  0  0
  -21.4013   -6.5637   23.8211 C   0  0  0  0  0  0
  -21.3655   -5.6795   24.9174 C   0  0  0  0  0  0
  -21.6040   -4.3057   24.7230 C   0  0  0  0  0  0
  -21.8817   -3.8143   23.4355 C   0  0  0  0  0  0
  -21.9191   -4.6955   22.3407 C   0  0  0  0  0  0
  -22.7855  -13.5200   21.1828 C   0  0  0  0  0  0
  -22.1658   -4.2137   21.0985 F   0  0  0  0  0  0
  -21.5626   -3.4544   25.7743 F   0  0  0  0  0  0
  -30.0310  -13.3612   20.4683 N   0  0  0  0  0  0
  -26.3030  -12.9285   20.3384 N   0  0  0  0  0  0
  -25.9346  -11.6445   20.5804 N   0  0  0  0  0  0
  -22.0505  -12.8215   22.0405 N   0  0  0  0  0  0
  -25.4204  -15.1741   20.3913 N   0  0  0  0  0  0
  -31.7024  -14.8536   20.0348 O   0  0  0  0  0  0
  -21.6628   -6.8865   21.4239 O   0  0  0  0  0  0
  -22.3545  -14.5508   20.6680 O   0  0  0  0  0  0
  -24.6211  -31.8620   23.2040 C   0  0  0  0  0  0
  -25.9071  -32.4796   23.8363 C   0  0  1  0  0  0
  -27.2385  -27.3627   20.1242 C   0  0  0  0  0  0
  -25.5904  -33.8598   24.2293 N   0  0  0  0  0  0
  -23.4145  -30.4813   21.5458 C   0  0  2  0  0  0
  -24.8637  -28.9302   20.1214 C   0  0  0  0  0  0
  -22.7453  -29.4625   22.4973 C   0  0  0  0  0  0
  -18.0280  -28.1384   22.8490 C   0  0  0  0  0  0
  -24.1485  -36.7309   23.2639 C   0  0  0  0  0  0
  -25.9485  -30.8070   21.3649 C   0  0  0  0  0  0
  -26.0277  -29.4324   20.7182 C   0  0  0  0  0  0
  -27.2204  -28.6599   20.7073 C   0  0  0  0  0  0
  -26.0553  -26.8858   19.5241 C   0  0  0  0  0  0
  -24.8758  -27.6593   19.5185 C   0  0  0  0  0  0
  -23.6288  -29.8068   20.1638 C   0  0  0  0  0  0
  -25.4111  -36.3100   24.0331 C   0  0  1  0  0  0
  -20.5877  -28.3674   23.1307 C   0  0  2  0  0  0
  -20.6773  -26.9402   22.5419 C   0  0  0  0  0  0
  -19.5751  -26.6386   21.5215 C   0  0  0  0  0  0
  -18.1928  -26.7929   22.1626 C   0  0  0  0  0  0
  -19.1532  -28.8847   23.2895 C   0  0  0  0  0  0
  -18.9457  -30.1450   23.8911 C   0  0  0  0  0  0
  -17.6458  -30.6588   24.0567 C   0  0  0  0  0  0
  -25.9047  -34.9465   23.5115 C   0  0  0  0  0  0
  -16.5349  -29.9093   23.6326 C   0  0  0  0  0  0
  -16.7268  -28.6510   23.0347 C   0  0  0  0  0  0
  -26.4476  -31.6595   25.0716 C   0  0  0  0  0  0
  -25.3729  -31.3722   26.1461 C   0  0  0  0  0  0
  -27.0301  -30.3027   24.6120 C   0  0  0  0  0  0
  -27.6050  -32.4317   25.7481 C   0  0  0  0  0  0
  -27.5581  -37.1808   24.8461 C   0  0  0  0  0  0
  -21.4171  -29.3031   22.3709 N   0  0  0  0  0  0
  -26.4291  -37.3790   23.9409 N   0  0  0  0  0  0
  -24.6802  -31.0659   22.0967 N   0  0  0  0  0  0
  -23.4192  -28.8171   23.3045 O   0  0  0  0  0  0
  -28.3923  -26.5878   20.0779 O   0  0  0  0  0  0
  -26.5618  -34.8925   22.4683 O   0  0  0  0  0  0
  -23.5382  -32.1397   23.7390 O   0  0  0  0  0  0
  -29.9539  -17.9515   20.6649 C   0  0  0  0  0  0
  -29.0082  -19.0662   20.7676 C   0  0  0  0  0  0
  -27.7755  -18.6819   21.2795 C   0  0  0  0  0  0
  -29.4872  -16.7479   21.1941 C   0  0  0  0  0  0
  -29.2457  -22.9001   20.0271 C   0  0  0  0  0  0
  -29.2331  -21.5934   20.9341 C   0  0  0  0  0  0
  -26.1047  -20.3593   20.2665 C   0  0  0  0  0  0
  -26.3326  -20.1333   22.7812 C   0  0  0  0  0  0
  -25.2455  -18.3949   21.4092 C   0  0  0  0  0  0
  -28.1070  -23.9679   20.1732 C   0  0  0  0  0  0
  -28.4349  -25.3517   20.8584 C   0  0  0  0  0  0
  -26.4252  -19.3961   21.4320 C   0  0  0  0  0  0
  -29.2816  -20.4040   20.2632 N   0  0  0  0  0  0
  -29.9814  -15.4723   21.3942 N   0  0  0  0  0  0
  -30.1251  -23.0607   19.1737 O   0  0  0  0  0  0
  -29.2436  -21.6831   22.1649 O   0  0  0  0  0  0
  -27.8990  -17.0260   21.8496 S   0  0  0  0  0  0
  -31.4816  -12.5212   19.1400 H   0  0  0  0  0  0
  -30.3831  -11.3700   19.8464 H   0  0  0  0  0  0
  -29.7637  -11.8092   17.4519 H   0  0  0  0  0  0
  -29.6487  -13.5214   17.7750 H   0  0  0  0  0  0
  -27.8547  -11.3128   18.8318 H   0  0  0  0  0  0
  -27.3743  -12.6338   17.7980 H   0  0  0  0  0  0
  -27.6986  -14.2587   19.5851 H   0  0  0  0  0  0
  -28.7062  -11.9620   21.3298 H   0  0  0  0  0  0
  -28.4287  -13.5755   21.8913 H   0  0  0  0  0  0
  -25.2763   -9.5650   22.4759 H   0  0  0  0  0  0
  -23.9981   -7.4619   22.7491 H   0  0  0  0  0  0
  -21.0819   -8.8771   19.8973 H   0  0  0  0  0  0
  -22.3690  -10.9663   19.6174 H   0  0  0  0  0  0
  -21.2009   -7.6144   23.9709 H   0  0  0  0  0  0
  -21.1477   -6.0529   25.9076 H   0  0  0  0  0  0
  -22.0599   -2.7604   23.2865 H   0  0  0  0  0  0
  -22.4116  -11.9868   22.4779 H   0  0  0  0  0  0
  -21.1140  -13.1272   22.2639 H   0  0  0  0  0  0
  -24.6558  -15.8265   20.5180 H   0  0  0  0  0  0
  -26.2814  -15.6200   20.1051 H   0  0  0  0  0  0
  -26.7147  -32.5495   23.1128 H   0  0  0  0  0  0
  -25.0025  -33.9748   25.0417 H   0  0  0  0  0  0
  -22.7066  -31.2999   21.4002 H   0  0  0  0  0  0
  -23.3741  -35.9649   23.3306 H   0  0  0  0  0  0
  -24.3565  -36.8922   22.2051 H   0  0  0  0  0  0
  -23.7244  -37.6518   23.6652 H   0  0  0  0  0  0
  -26.0643  -31.5660   20.5900 H   0  0  0  0  0  0
  -26.8353  -30.8666   21.9844 H   0  0  0  0  0  0
  -28.1227  -29.0483   21.1586 H   0  0  0  0  0  0
  -26.0454  -25.9128   19.0539 H   0  0  0  0  0  0
  -23.9820  -27.2676   19.0523 H   0  0  0  0  0  0
  -23.7464  -30.5798   19.4034 H   0  0  0  0  0  0
  -22.7503  -29.2320   19.8646 H   0  0  0  0  0  0
  -25.1285  -36.1961   25.0823 H   0  0  0  0  0  0
  -20.9962  -28.3241   24.1432 H   0  0  0  0  0  0
  -20.5667  -26.2281   23.3611 H   0  0  0  0  0  0
  -21.6644  -26.7433   22.1216 H   0  0  0  0  0  0
  -19.6911  -25.6299   21.1237 H   0  0  0  0  0  0
  -19.6695  -27.3203   20.6751 H   0  0  0  0  0  0
  -17.4196  -26.6670   21.4029 H   0  0  0  0  0  0
  -18.0329  -26.0071   22.9024 H   0  0  0  0  0  0
  -19.7934  -30.7253   24.2296 H   0  0  0  0  0  0
  -17.5017  -31.6265   24.5171 H   0  0  0  0  0  0
  -15.5350  -30.3001   23.7642 H   0  0  0  0  0  0
  -15.8670  -28.0836   22.7051 H   0  0  0  0  0  0
  -24.5899  -30.7071   25.7800 H   0  0  0  0  0  0
  -24.8925  -32.2885   26.4904 H   0  0  0  0  0  0
  -25.8072  -30.8896   27.0224 H   0  0  0  0  0  0
  -26.2849  -29.6800   24.1154 H   0  0  0  0  0  0
  -27.4031  -29.7258   25.4591 H   0  0  0  0  0  0
  -27.8704  -30.4332   23.9297 H   0  0  0  0  0  0
  -27.2672  -33.3616   26.2066 H   0  0  0  0  0  0
  -28.3856  -32.6874   25.0305 H   0  0  0  0  0  0
  -28.0719  -31.8433   26.5389 H   0  0  0  0  0  0
  -28.2603  -38.0101   24.7498 H   0  0  0  0  0  0
  -28.1067  -36.2629   24.6291 H   0  0  0  0  0  0
  -27.2294  -37.1469   25.8863 H   0  0  0  0  0  0
  -20.9351  -29.8751   21.6918 H   0  0  0  0  0  0
  -26.0175  -38.2866   24.1412 H   0  0  0  0  0  0
  -30.9364  -18.0802   20.2330 H   0  0  0  0  0  0
  -26.7242  -21.2464   20.2506 H   0  0  0  0  0  0
  -25.0811  -20.7315   20.3275 H   0  0  0  0  0  0
  -26.2105  -19.8622   19.3014 H   0  0  0  0  0  0
  -27.0412  -20.9504   22.8623 H   0  0  0  0  0  0
  -26.5242  -19.4570   23.6156 H   0  0  0  0  0  0
  -25.3440  -20.5680   22.9325 H   0  0  0  0  0  0
  -25.2211  -17.8439   20.4695 H   0  0  0  0  0  0
  -24.2837  -18.9006   21.5029 H   0  0  0  0  0  0
  -25.2821  -17.6756   22.2281 H   0  0  0  0  0  0
  -27.3036  -23.4952   20.7373 H   0  0  0  0  0  0
  -27.6936  -24.1470   19.1821 H   0  0  0  0  0  0
  -29.4380  -25.2960   21.2827 H   0  0  0  0  0  0
  -27.7807  -25.4683   21.7242 H   0  0  0  0  0  0
  -29.4841  -20.4841   19.2759 H   0  0  0  0  0  0
  -29.3659  -14.9450   21.9953 H   0  0  0  0  0  0
  1 25  1  0  0  0
  1 30  2  0  0  0
  1 84  1  0  0  0
  2  3  1  0  0  0
  2 25  1  0  0  0
  2 88  1  0  0  0
  2 89  1  0  0  0
  3  4  1  0  0  0
  3 90  1  0  0  0
  3 91  1  0  0  0
  4  5  1  0  0  0
  4 92  1  0  0  0
  4 93  1  0  0  0
  5  6  1  0  0  0
  5 26  1  0  0  0
  5 94  1  0  0  0
  6 25  1  0  0  0
  6 95  1  0  0  0
  6 96  1  0  0  0
  7  8  2  0  0  0
  7 26  1  0  0  0
  7 29  1  0  0  0
  8  9  1  0  0  0
  8 22  1  0  0  0
  9 10  1  0  0  0
  9 27  2  0  0  0
 10 11  2  0  0  0
 10 15  1  0  0  0
 11 12  1  0  0  0
 11 97  1  0  0  0
 12 13  2  0  0  0
 12 98  1  0  0  0
 13 14  1  0  0  0
 13 31  1  0  0  0
 14 15  2  0  0  0
 14 99  1  0  0  0
 15100  1  0  0  0
 16 17  2  0  0  0
 16 21  1  0  0  0
 16 31  1  0  0  0
 17 18  1  0  0  0
 17101  1  0  0  0
 18 19  2  0  0  0
 18102  1  0  0  0
 19 20  1  0  0  0
 19 24  1  0  0  0
 20 21  2  0  0  0
 20103  1  0  0  0
 21 23  1  0  0  0
 22 28  1  0  0  0
 22 32  2  0  0  0
 26 27  1  0  0  0
 28104  1  0  0  0
 28105  1  0  0  0
 29106  1  0  0  0
 29107  1  0  0  0
 33 34  1  0  0  0
 33 66  1  0  0  0
 33 70  2  0  0  0
 34 36  1  0  0  0
 34 59  1  0  0  0
 34108  1  0  0  0
 35 44  2  0  0  0
 35 45  1  0  0  0
 35 68  1  0  0  0
 36 56  1  0  0  0
 36109  1  0  0  0
 37 39  1  0  0  0
 37 47  1  0  0  0
 37 66  1  0  0  0
 37110  1  0  0  0
 38 43  2  0  0  0
 38 46  1  0  0  0
 38 47  1  0  0  0
 39 64  1  0  0  0
 39 67  2  0  0  0
 40 52  1  0  0  0
 40 53  2  0  0  0
 40 58  1  0  0  0
 41111  1  0  0  0
 41112  1  0  0  0
 41113  1  0  0  0
 41 48  1  0  0  0
 42 43  1  0  0  0
 42 66  1  0  0  0
 42114  1  0  0  0
 42115  1  0  0  0
 43 44  1  0  0  0
 44116  1  0  0  0
 45 46  2  0  0  0
 45117  1  0  0  0
 46118  1  0  0  0
 47119  1  0  0  0
 47120  1  0  0  0
 48 56  1  0  0  0
 48 65  1  0  0  0
 48121  1  0  0  0
 49 50  1  0  0  0
 49 53  1  0  0  0
 49 64  1  0  0  0
 49122  1  0  0  0
 50 51  1  0  0  0
 50123  1  0  0  0
 50124  1  0  0  0
 51 52  1  0  0  0
 51125  1  0  0  0
 51126  1  0  0  0
 52127  1  0  0  0
 52128  1  0  0  0
 53 54  1  0  0  0
 54 55  2  0  0  0
 54129  1  0  0  0
 55 57  1  0  0  0
 55130  1  0  0  0
 56 69  2  0  0  0
 57 58  2  0  0  0
 57131  1  0  0  0
 58132  1  0  0  0
 59 60  1  0  0  0
 59 61  1  0  0  0
 59 62  1  0  0  0
 60133  1  0  0  0
 60134  1  0  0  0
 60135  1  0  0  0
 61136  1  0  0  0
 61137  1  0  0  0
 61138  1  0  0  0
 62139  1  0  0  0
 62140  1  0  0  0
 62141  1  0  0  0
 63 65  1  0  0  0
 63142  1  0  0  0
 63143  1  0  0  0
 63144  1  0  0  0
 64145  1  0  0  0
 65146  1  0  0  0
 68 81  1  0  0  0
 71 72  1  0  0  0
 71 74  2  0  0  0
 71147  1  0  0  0
 72 73  2  0  0  0
 72 83  1  0  0  0
 73 82  1  0  0  0
 73 87  1  0  0  0
 74 84  1  0  0  0
 74 87  1  0  0  0
 75 76  1  0  0  0
 75 80  1  0  0  0
 75 85  2  0  0  0
 76 83  1  0  0  0
 76 86  2  0  0  0
 77148  1  0  0  0
 77149  1  0  0  0
 77150  1  0  0  0
 77 82  1  0  0  0
 78 82  1  0  0  0
 78151  1  0  0  0
 78152  1  0  0  0
 78153  1  0  0  0
 79 82  1  0  0  0
 79154  1  0  0  0
 79155  1  0  0  0
 79156  1  0  0  0
 80 81  1  0  0  0
 80157  1  0  0  0
 80158  1  0  0  0
 81159  1  0  0  0
 81160  1  0  0  0
 83161  1  0  0  0
 84162  1  0  0  0
M  ISO  4   1 100  68 101  81 101  84 100
M  END
> <chiral flag>
0

> <version>
0

> <s_m_source_file>
/data/baiqing/PycharmProjects/Reinvent-master-3.2/result/LINK_invent/BTK/process_docking_weight1_custom_product_contain_oxygen_bond_distance_aromatic_linkinvent_7_9_3/rearranged_h_0181.sdf

> <i_m_source_file_index>
59

> <r_mmod_Potential_Energy-OPLS-2005>
44.6130409240723

> <r_mmod_Stretch_Energy-OPLS-2005>
67.1849822998047

> <r_mmod_Bend_Energy-OPLS-2005>
167.63395690918

> <r_mmod_Torsional_Energy-OPLS-2005>
274.002807617188

> <r_mmod_Improper_Torsional_Energy-OPLS-2005>
6.28671503067017

> <r_mmod_Van_der_Waal_Energy-OPLS-2005>
114.255737304688

> <r_mmod_Electrostatic_Energy-OPLS-2005>
-385.800140380859

> <r_mmod_Solvation_Energy-OPLS-2005>
-229.793258666992

> <b_mmod_Minimization_Converged-OPLS-2005>
0

> <r_mmod_RMS_Derivative-OPLS-2005>
1.17307448387146

$$$$
59
                    3D
 Structure written by MMmdl.
159167  0  0  1  0            999 V2000
  -30.6186  -14.7600   20.4269 C   0  0  0  0  0  0
  -30.4296  -12.4621   19.4705 C   0  0  0  0  0  0
  -29.5144  -12.5107   18.2279 C   0  0  0  0  0  0
  -28.0282  -12.3689   18.6161 C   0  0  0  0  0  0
  -27.6385  -13.2455   19.8388 C   0  0  2  0  0  0
  -28.6859  -13.1756   20.9705 C   0  0  0  0  0  0
  -25.2524  -13.8250   20.5668 C   0  0  0  0  0  0
  -24.1820  -13.0478   20.9187 C   0  0  0  0  0  0
  -24.6432  -11.6977   20.8719 C   0  0  0  0  0  0
  -23.9105  -10.4338   21.0375 C   0  0  0  0  0  0
  -24.3661   -9.4246   21.9145 C   0  0  0  0  0  0
  -23.6339   -8.2278   22.0716 C   0  0  0  0  0  0
  -22.4317   -8.0297   21.3519 C   0  0  0  0  0  0
  -21.9952   -9.0264   20.4616 C   0  0  0  0  0  0
  -22.7277  -10.2151   20.3026 C   0  0  0  0  0  0
  -21.6873   -6.0749   22.5274 C   0  0  0  0  0  0
  -21.4012   -6.5639   23.8207 C   0  0  0  0  0  0
  -21.3670   -5.6793   24.9175 C   0  0  0  0  0  0
  -21.6051   -4.3050   24.7199 C   0  0  0  0  0  0
  -21.8839   -3.8153   23.4318 C   0  0  0  0  0  0
  -21.9209   -4.6980   22.3397 C   0  0  0  0  0  0
  -22.7834  -13.5218   21.1854 C   0  0  0  0  0  0
  -22.1665   -4.2180   21.0963 F   0  0  0  0  0  0
  -21.5649   -3.4523   25.7691 F   0  0  0  0  0  0
  -29.9863  -13.5326   20.3956 N   0  0  0  0  0  0
  -26.2931  -12.9471   20.3203 N   0  0  0  0  0  0
  -25.9350  -11.6603   20.5680 N   0  0  0  0  0  0
  -22.0502  -12.8212   22.0412 N   0  0  0  0  0  0
  -25.4260  -15.1976   20.4126 N   0  0  0  0  0  0
  -31.8203  -14.8103   20.1492 O   0  0  0  0  0  0
  -21.6691   -6.8888   21.4225 O   0  0  0  0  0  0
  -22.3467  -14.5491   20.6677 O   0  0  0  0  0  0
  -24.6342  -31.8519   23.2004 C   0  0  0  0  0  0
  -25.9162  -32.4721   23.8337 C   0  0  1  0  0  0
  -27.2181  -27.2430   20.1322 C   0  0  0  0  0  0
  -25.5960  -33.8533   24.2267 N   0  0  0  0  0  0
  -23.4326  -30.4773   21.5417 C   0  0  2  0  0  0
  -24.8795  -28.9174   20.1130 C   0  0  0  0  0  0
  -22.7507  -29.4579   22.4884 C   0  0  0  0  0  0
  -18.0299  -28.1419   22.8486 C   0  0  0  0  0  0
  -24.1477  -36.7281   23.2637 C   0  0  0  0  0  0
  -25.9798  -30.7598   21.3796 C   0  0  0  0  0  0
  -26.0532  -29.3799   20.7237 C   0  0  0  0  0  0
  -27.2285  -28.5594   20.7141 C   0  0  0  0  0  0
  -26.0200  -26.8462   19.5046 C   0  0  0  0  0  0
  -24.8690  -27.6597   19.4908 C   0  0  0  0  0  0
  -23.6545  -29.8145   20.1559 C   0  0  0  0  0  0
  -25.4106  -36.3059   24.0326 C   0  0  1  0  0  0
  -20.5905  -28.3729   23.1281 C   0  0  2  0  0  0
  -20.6807  -26.9447   22.5417 C   0  0  0  0  0  0
  -19.5778  -26.6407   21.5237 C   0  0  0  0  0  0
  -18.1950  -26.7962   22.1618 C   0  0  0  0  0  0
  -19.1548  -28.8891   23.2883 C   0  0  0  0  0  0
  -18.9458  -30.1492   23.8913 C   0  0  0  0  0  0
  -17.6447  -30.6609   24.0570 C   0  0  0  0  0  0
  -25.9053  -34.9420   23.5088 C   0  0  0  0  0  0
  -16.5349  -29.9107   23.6329 C   0  0  0  0  0  0
  -16.7274  -28.6529   23.0349 C   0  0  0  0  0  0
  -26.4523  -31.6561   25.0739 C   0  0  0  0  0  0
  -25.3743  -31.3704   26.1448 C   0  0  0  0  0  0
  -27.0364  -30.2976   24.6236 C   0  0  0  0  0  0
  -27.6071  -32.4300   25.7520 C   0  0  0  0  0  0
  -27.5571  -37.1800   24.8454 C   0  0  0  0  0  0
  -21.4208  -29.3054   22.3636 N   0  0  0  0  0  0
  -26.4281  -37.3768   23.9401 N   0  0  0  0  0  0
  -24.7022  -31.0470   22.0978 N   0  0  0  0  0  0
  -23.4176  -28.8115   23.2994 O   0  0  0  0  0  0
  -28.3047  -26.3361   20.1213 O   0  0  0  0  0  0
  -26.5598  -34.8903   22.4639 O   0  0  0  0  0  0
  -23.5487  -32.1330   23.7303 O   0  0  0  0  0  0
  -30.9195  -17.4781   18.9706 C   0  0  0  0  0  0
  -31.0563  -18.7237   18.3297 C   0  0  0  0  0  0
  -30.3358  -19.8463   18.7803 C   0  0  0  0  0  0
  -30.0457  -17.3080   20.0660 C   0  0  0  0  0  0
  -29.5032  -19.7149   19.9084 C   0  0  0  0  0  0
  -28.6437  -23.6269   19.9202 C   0  0  0  0  0  0
  -31.6837  -22.2395   20.5647 C   0  0  0  0  0  0
  -30.5618  -21.5406   22.7307 C   0  0  0  0  0  0
  -28.0932  -24.9435   20.6841 C   0  0  0  0  0  0
  -29.0586  -22.2739   20.7625 C   0  0  2  0  0  0
  -30.4463  -22.4105   21.4656 C   0  0  0  0  0  0
  -29.3488  -18.4512   20.4951 N   0  0  0  0  0  0
  -29.8602  -15.9216   20.5930 N   0  0  0  0  0  0
  -28.6995  -20.8401   20.3465 N   0  0  0  0  0  0
  -28.7394  -23.6645   18.6927 O   0  0  0  0  0  0
  -31.8659  -18.8292   17.2467 F   0  0  0  0  0  0
  -30.4229  -21.0139   18.0959 F   0  0  0  0  0  0
  -31.4700  -12.5794   19.1653 H   0  0  0  0  0  0
  -30.3714  -11.4877   19.9563 H   0  0  0  0  0  0
  -29.7922  -11.7249   17.5239 H   0  0  0  0  0  0
  -29.6644  -13.4567   17.7057 H   0  0  0  0  0  0
  -27.8372  -11.3166   18.8223 H   0  0  0  0  0  0
  -27.4011  -12.6249   17.7608 H   0  0  0  0  0  0
  -27.6234  -14.2720   19.4722 H   0  0  0  0  0  0
  -28.7274  -12.1711   21.3927 H   0  0  0  0  0  0
  -28.4218  -13.8464   21.7903 H   0  0  0  0  0  0
  -25.2814   -9.5738   22.4697 H   0  0  0  0  0  0
  -24.0071   -7.4686   22.7447 H   0  0  0  0  0  0
  -21.0877   -8.8772   19.8928 H   0  0  0  0  0  0
  -22.3713  -10.9678   19.6128 H   0  0  0  0  0  0
  -21.1972   -7.6139   23.9698 H   0  0  0  0  0  0
  -21.1474   -6.0521   25.9077 H   0  0  0  0  0  0
  -22.0606   -2.7612   23.2816 H   0  0  0  0  0  0
  -22.4114  -11.9895   22.4874 H   0  0  0  0  0  0
  -21.1057  -13.1147   22.2473 H   0  0  0  0  0  0
  -24.6692  -15.8598   20.5364 H   0  0  0  0  0  0
  -26.2724  -15.6326   20.0667 H   0  0  0  0  0  0
  -26.7214  -32.5358   23.1060 H   0  0  0  0  0  0
  -25.0114  -33.9636   25.0423 H   0  0  0  0  0  0
  -22.7318  -31.3031   21.3982 H   0  0  0  0  0  0
  -23.3734  -35.9614   23.3269 H   0  0  0  0  0  0
  -24.3576  -36.8926   22.2055 H   0  0  0  0  0  0
  -23.7232  -37.6479   23.6681 H   0  0  0  0  0  0
  -26.1109  -31.5193   20.6088 H   0  0  0  0  0  0
  -26.8614  -30.8164   22.0059 H   0  0  0  0  0  0
  -28.1337  -28.9116   21.1880 H   0  0  0  0  0  0
  -25.9686  -25.8799   19.0243 H   0  0  0  0  0  0
  -23.9749  -27.3045   18.9946 H   0  0  0  0  0  0
  -23.7817  -30.5980   19.4065 H   0  0  0  0  0  0
  -22.7699  -29.2573   19.8416 H   0  0  0  0  0  0
  -25.1282  -36.1893   25.0825 H   0  0  0  0  0  0
  -20.9997  -28.3325   24.1402 H   0  0  0  0  0  0
  -20.5787  -26.2318   23.3610 H   0  0  0  0  0  0
  -21.6668  -26.7519   22.1164 H   0  0  0  0  0  0
  -19.6947  -25.6312   21.1293 H   0  0  0  0  0  0
  -19.6760  -27.3196   20.6758 H   0  0  0  0  0  0
  -17.4233  -26.6718   21.4008 H   0  0  0  0  0  0
  -18.0337  -26.0128   22.9035 H   0  0  0  0  0  0
  -19.7921  -30.7341   24.2290 H   0  0  0  0  0  0
  -17.4983  -31.6300   24.5151 H   0  0  0  0  0  0
  -15.5345  -30.3011   23.7684 H   0  0  0  0  0  0
  -15.8658  -28.0873   22.7051 H   0  0  0  0  0  0
  -24.5941  -30.7024   25.7773 H   0  0  0  0  0  0
  -24.8911  -32.2869   26.4853 H   0  0  0  0  0  0
  -25.8069  -30.8901   27.0236 H   0  0  0  0  0  0
  -26.2953  -29.6726   24.1242 H   0  0  0  0  0  0
  -27.3999  -29.7231   25.4768 H   0  0  0  0  0  0
  -27.8855  -30.4215   23.9508 H   0  0  0  0  0  0
  -27.2675  -33.3595   26.2091 H   0  0  0  0  0  0
  -28.3913  -32.6854   25.0385 H   0  0  0  0  0  0
  -28.0712  -31.8428   26.5450 H   0  0  0  0  0  0
  -28.2560  -38.0120   24.7501 H   0  0  0  0  0  0
  -28.1096  -36.2648   24.6272 H   0  0  0  0  0  0
  -27.2289  -37.1422   25.8857 H   0  0  0  0  0  0
  -20.9397  -29.8706   21.6778 H   0  0  0  0  0  0
  -26.0137  -38.2829   24.1443 H   0  0  0  0  0  0
  -31.4814  -16.6560   18.5573 H   0  0  0  0  0  0
  -32.5729  -22.6552   21.0409 H   0  0  0  0  0  0
  -31.5661  -22.7382   19.6032 H   0  0  0  0  0  0
  -31.9088  -21.1929   20.3744 H   0  0  0  0  0  0
  -31.4972  -21.7404   23.2553 H   0  0  0  0  0  0
  -30.5443  -20.4745   22.5028 H   0  0  0  0  0  0
  -29.7427  -21.7414   23.4240 H   0  0  0  0  0  0
  -28.5587  -24.9316   21.6678 H   0  0  0  0  0  0
  -27.0303  -24.7801   20.8625 H   0  0  0  0  0  0
  -28.3688  -22.3467   21.6007 H   0  0  0  0  0  0
  -30.4940  -23.4428   21.8138 H   0  0  0  0  0  0
  -28.9576  -15.7623   21.0098 H   0  0  0  0  0  0
  -27.8978  -20.5185   20.8733 H   0  0  0  0  0  0
  1 25  1  0  0  0
  1 30  2  0  0  0
  1 83  1  0  0  0
  2  3  1  0  0  0
  2 25  1  0  0  0
  2 88  1  0  0  0
  2 89  1  0  0  0
  3  4  1  0  0  0
  3 90  1  0  0  0
  3 91  1  0  0  0
  4  5  1  0  0  0
  4 92  1  0  0  0
  4 93  1  0  0  0
  5  6  1  0  0  0
  5 26  1  0  0  0
  5 94  1  0  0  0
  6 25  1  0  0  0
  6 95  1  0  0  0
  6 96  1  0  0  0
  7  8  2  0  0  0
  7 26  1  0  0  0
  7 29  1  0  0  0
  8  9  1  0  0  0
  8 22  1  0  0  0
  9 10  1  0  0  0
  9 27  2  0  0  0
 10 11  2  0  0  0
 10 15  1  0  0  0
 11 12  1  0  0  0
 11 97  1  0  0  0
 12 13  2  0  0  0
 12 98  1  0  0  0
 13 14  1  0  0  0
 13 31  1  0  0  0
 14 15  2  0  0  0
 14 99  1  0  0  0
 15100  1  0  0  0
 16 17  2  0  0  0
 16 21  1  0  0  0
 16 31  1  0  0  0
 17 18  1  0  0  0
 17101  1  0  0  0
 18 19  2  0  0  0
 18102  1  0  0  0
 19 20  1  0  0  0
 19 24  1  0  0  0
 20 21  2  0  0  0
 20103  1  0  0  0
 21 23  1  0  0  0
 22 28  1  0  0  0
 22 32  2  0  0  0
 26 27  1  0  0  0
 28104  1  0  0  0
 28105  1  0  0  0
 29106  1  0  0  0
 29107  1  0  0  0
 33 34  1  0  0  0
 33 66  1  0  0  0
 33 70  2  0  0  0
 34 36  1  0  0  0
 34 59  1  0  0  0
 34108  1  0  0  0
 35 44  2  0  0  0
 35 45  1  0  0  0
 35 68  1  0  0  0
 36 56  1  0  0  0
 36109  1  0  0  0
 37 39  1  0  0  0
 37 47  1  0  0  0
 37 66  1  0  0  0
 37110  1  0  0  0
 38 43  2  0  0  0
 38 46  1  0  0  0
 38 47  1  0  0  0
 39 64  1  0  0  0
 39 67  2  0  0  0
 40 52  1  0  0  0
 40 53  2  0  0  0
 40 58  1  0  0  0
 41111  1  0  0  0
 41112  1  0  0  0
 41113  1  0  0  0
 41 48  1  0  0  0
 42 43  1  0  0  0
 42 66  1  0  0  0
 42114  1  0  0  0
 42115  1  0  0  0
 43 44  1  0  0  0
 44116  1  0  0  0
 45 46  2  0  0  0
 45117  1  0  0  0
 46118  1  0  0  0
 47119  1  0  0  0
 47120  1  0  0  0
 48 56  1  0  0  0
 48 65  1  0  0  0
 48121  1  0  0  0
 49 50  1  0  0  0
 49 53  1  0  0  0
 49 64  1  0  0  0
 49122  1  0  0  0
 50 51  1  0  0  0
 50123  1  0  0  0
 50124  1  0  0  0
 51 52  1  0  0  0
 51125  1  0  0  0
 51126  1  0  0  0
 52127  1  0  0  0
 52128  1  0  0  0
 53 54  1  0  0  0
 54 55  2  0  0  0
 54129  1  0  0  0
 55 57  1  0  0  0
 55130  1  0  0  0
 56 69  2  0  0  0
 57 58  2  0  0  0
 57131  1  0  0  0
 58132  1  0  0  0
 59 60  1  0  0  0
 59 61  1  0  0  0
 59 62  1  0  0  0
 60133  1  0  0  0
 60134  1  0  0  0
 60135  1  0  0  0
 61136  1  0  0  0
 61137  1  0  0  0
 61138  1  0  0  0
 62139  1  0  0  0
 62140  1  0  0  0
 62141  1  0  0  0
 63 65  1  0  0  0
 63142  1  0  0  0
 63143  1  0  0  0
 63144  1  0  0  0
 64145  1  0  0  0
 65146  1  0  0  0
 68 79  1  0  0  0
 71 72  2  0  0  0
 71 74  1  0  0  0
 71147  1  0  0  0
 72 73  1  0  0  0
 72 86  1  0  0  0
 73 75  2  0  0  0
 73 87  1  0  0  0
 74 82  2  0  0  0
 74 83  1  0  0  0
 75 82  1  0  0  0
 75 84  1  0  0  0
 76 79  1  0  0  0
 76 80  1  0  0  0
 76 85  2  0  0  0
 77148  1  0  0  0
 77149  1  0  0  0
 77150  1  0  0  0
 77 81  1  0  0  0
 78 81  1  0  0  0
 78151  1  0  0  0
 78152  1  0  0  0
 78153  1  0  0  0
 79154  1  0  0  0
 79155  1  0  0  0
 80 81  1  0  0  0
 80 84  1  0  0  0
 80156  1  0  0  0
 81157  1  0  0  0
 83158  1  0  0  0
 84159  1  0  0  0
M  ISO  4   1 100  68 101  79 101  83 100
M  END
> <chiral flag>
0

> <version>
0

> <s_m_source_file>
/data/baiqing/PycharmProjects/Reinvent-master-3.2/result/LINK_invent/BTK/process_docking_weight1_custom_product_contain_oxygen_bond_distance_aromatic_linkinvent_7_9_3/rearranged_h_0181.sdf

> <i_m_source_file_index>
60

> <r_mmod_Potential_Energy-OPLS-2005>
151.938934326172

> <r_mmod_Stretch_Energy-OPLS-2005>
147.611694335938

> <r_mmod_Bend_Energy-OPLS-2005>
219.826858520508

> <r_mmod_Torsional_Energy-OPLS-2005>
265.491241455078

> <r_mmod_Improper_Torsional_Energy-OPLS-2005>
7.56599569320679

> <r_mmod_Van_der_Waal_Energy-OPLS-2005>
131.737289428711

> <r_mmod_Electrostatic_Energy-OPLS-2005>
-466.132110595703

> <r_mmod_Solvation_Energy-OPLS-2005>
-246.475708007812

> <b_mmod_Minimization_Converged-OPLS-2005>
0

> <r_mmod_RMS_Derivative-OPLS-2005>
4.61416864395142

$$$$
60
                    3D
 Structure written by MMmdl.
157165  0  0  1  0            999 V2000
  -30.6164  -14.7680   20.4491 C   0  0  0  0  0  0
  -30.4430  -12.4707   19.4538 C   0  0  0  0  0  0
  -29.5050  -12.4838   18.2255 C   0  0  0  0  0  0
  -28.0391  -12.2951   18.6600 C   0  0  0  0  0  0
  -27.6423  -13.2235   19.8370 C   0  0  2  0  0  0
  -28.6967  -13.1909   20.9647 C   0  0  0  0  0  0
  -25.2543  -13.8172   20.5655 C   0  0  0  0  0  0
  -24.1844  -13.0427   20.9200 C   0  0  0  0  0  0
  -24.6431  -11.6902   20.8772 C   0  0  0  0  0  0
  -23.9113  -10.4287   21.0430 C   0  0  0  0  0  0
  -24.3657   -9.4199   21.9201 C   0  0  0  0  0  0
  -23.6310   -8.2244   22.0763 C   0  0  0  0  0  0
  -22.4290   -8.0292   21.3550 C   0  0  0  0  0  0
  -21.9946   -9.0281   20.4650 C   0  0  0  0  0  0
  -22.7293  -10.2149   20.3068 C   0  0  0  0  0  0
  -21.6852   -6.0755   22.5286 C   0  0  0  0  0  0
  -21.4009   -6.5649   23.8226 C   0  0  0  0  0  0
  -21.3650   -5.6794   24.9179 C   0  0  0  0  0  0
  -21.6051   -4.3059   24.7226 C   0  0  0  0  0  0
  -21.8817   -3.8159   23.4345 C   0  0  0  0  0  0
  -21.9190   -4.6982   22.3404 C   0  0  0  0  0  0
  -22.7867  -13.5214   21.1854 C   0  0  0  0  0  0
  -22.1657   -4.2173   21.0982 F   0  0  0  0  0  0
  -21.5634   -3.4536   25.7737 F   0  0  0  0  0  0
  -29.9879  -13.5453   20.3630 N   0  0  0  0  0  0
  -26.2967  -12.9368   20.3254 N   0  0  0  0  0  0
  -25.9365  -11.6527   20.5789 N   0  0  0  0  0  0
  -22.0514  -12.8213   22.0405 N   0  0  0  0  0  0
  -25.4195  -15.1898   20.4014 N   0  0  0  0  0  0
  -31.8302  -14.8492   20.2425 O   0  0  0  0  0  0
  -21.6626   -6.8909   21.4253 O   0  0  0  0  0  0
  -22.3572  -14.5529   20.6703 O   0  0  0  0  0  0
  -24.6335  -31.8544   23.1944 C   0  0  0  0  0  0
  -25.9153  -32.4751   23.8313 C   0  0  1  0  0  0
  -27.2179  -27.2307   20.1419 C   0  0  0  0  0  0
  -25.5975  -33.8553   24.2251 N   0  0  0  0  0  0
  -23.4308  -30.4724   21.5416 C   0  0  2  0  0  0
  -24.8780  -28.9127   20.1138 C   0  0  0  0  0  0
  -22.7512  -29.4578   22.4915 C   0  0  0  0  0  0
  -18.0328  -28.1327   22.8457 C   0  0  0  0  0  0
  -24.1515  -36.7244   23.2653 C   0  0  0  0  0  0
  -25.9801  -30.7538   21.3806 C   0  0  0  0  0  0
  -26.0519  -29.3740   20.7226 C   0  0  0  0  0  0
  -27.2244  -28.5475   20.7230 C   0  0  0  0  0  0
  -26.0208  -26.8436   19.5001 C   0  0  0  0  0  0
  -24.8666  -27.6550   19.4933 C   0  0  0  0  0  0
  -23.6503  -29.8033   20.1590 C   0  0  0  0  0  0
  -25.4129  -36.3035   24.0339 C   0  0  1  0  0  0
  -20.5926  -28.3659   23.1245 C   0  0  2  0  0  0
  -20.6826  -26.9374   22.5378 C   0  0  0  0  0  0
  -19.5815  -26.6355   21.5169 C   0  0  0  0  0  0
  -18.1987  -26.7872   22.1584 C   0  0  0  0  0  0
  -19.1576  -28.8806   23.2858 C   0  0  0  0  0  0
  -18.9509  -30.1412   23.8866 C   0  0  0  0  0  0
  -17.6503  -30.6548   24.0525 C   0  0  0  0  0  0
  -25.9088  -34.9431   23.5101 C   0  0  0  0  0  0
  -16.5396  -29.9035   23.6295 C   0  0  0  0  0  0
  -16.7312  -28.6440   23.0344 C   0  0  0  0  0  0
  -26.4504  -31.6584   25.0708 C   0  0  0  0  0  0
  -25.3688  -31.3741   26.1397 C   0  0  0  0  0  0
  -27.0409  -30.3034   24.6186 C   0  0  0  0  0  0
  -27.6094  -32.4311   25.7443 C   0  0  0  0  0  0
  -27.5573  -37.1752   24.8476 C   0  0  0  0  0  0
  -21.4237  -29.3000   22.3616 N   0  0  0  0  0  0
  -26.4288  -37.3733   23.9431 N   0  0  0  0  0  0
  -24.7014  -31.0465   22.0941 N   0  0  0  0  0  0
  -23.4204  -28.8119   23.3016 O   0  0  0  0  0  0
  -28.3216  -26.3360   20.1816 O   0  0  0  0  0  0
  -26.5653  -34.8912   22.4651 O   0  0  0  0  0  0
  -23.5493  -32.1430   23.7197 O   0  0  0  0  0  0
  -31.2083  -20.4044   22.7982 C   0  0  0  0  0  0
  -30.6495  -19.4677   21.9084 C   0  0  0  0  0  0
  -29.8556  -19.7220   20.8015 C   0  0  0  0  0  0
  -30.0962  -17.3200   20.7690 C   0  0  0  0  0  0
  -29.1286  -22.2701   20.8733 C   0  0  0  0  0  0
  -31.8911  -23.8261   20.9338 C   0  0  0  0  0  0
  -29.7132  -23.6066   18.7325 C   0  0  0  0  0  0
  -30.4908  -24.4625   20.9917 C   0  0  0  0  0  0
  -28.1021  -24.8374   20.3166 C   0  0  0  0  0  0
  -29.3331  -23.7569   20.2239 C   0  0  2  0  0  0
  -31.6711  -21.1710   23.5345 N   0  0  0  0  0  0
  -29.5466  -18.4434   20.1731 N   0  0  0  0  0  0
  -29.5650  -21.0923   20.2652 N   0  0  0  0  0  0
  -29.8148  -15.9045   20.4224 N   0  0  0  0  0  0
  -28.5726  -22.2087   21.9723 O   0  0  0  0  0  0
  -31.0672  -17.7776   22.1654 S   0  0  0  0  0  0
  -31.4781  -12.6088   19.1374 H   0  0  0  0  0  0
  -30.4107  -11.5037   19.9597 H   0  0  0  0  0  0
  -29.7869  -11.6921   17.5291 H   0  0  0  0  0  0
  -29.6097  -13.4241   17.6824 H   0  0  0  0  0  0
  -27.9260  -11.2535   18.9632 H   0  0  0  0  0  0
  -27.3667  -12.4370   17.8134 H   0  0  0  0  0  0
  -27.6252  -14.2320   19.4253 H   0  0  0  0  0  0
  -28.7481  -12.2062   21.4276 H   0  0  0  0  0  0
  -28.4370  -13.8904   21.7606 H   0  0  0  0  0  0
  -25.2812   -9.5643   22.4771 H   0  0  0  0  0  0
  -24.0001   -7.4638   22.7489 H   0  0  0  0  0  0
  -21.0874   -8.8826   19.8965 H   0  0  0  0  0  0
  -22.3776  -10.9698   19.6174 H   0  0  0  0  0  0
  -21.1998   -7.6153   23.9737 H   0  0  0  0  0  0
  -21.1465   -6.0518   25.9085 H   0  0  0  0  0  0
  -22.0605   -2.7625   23.2832 H   0  0  0  0  0  0
  -22.4115  -11.9859   22.4771 H   0  0  0  0  0  0
  -21.1155  -13.1263   22.2637 H   0  0  0  0  0  0
  -24.6385  -15.8294   20.5040 H   0  0  0  0  0  0
  -26.2485  -15.6406   20.0383 H   0  0  0  0  0  0
  -26.7202  -32.5401   23.1044 H   0  0  0  0  0  0
  -25.0092  -33.9717   25.0375 H   0  0  0  0  0  0
  -22.7277  -31.2944   21.3931 H   0  0  0  0  0  0
  -23.3799  -35.9555   23.3313 H   0  0  0  0  0  0
  -24.3612  -36.8865   22.2065 H   0  0  0  0  0  0
  -23.7273  -37.6452   23.6673 H   0  0  0  0  0  0
  -26.1280  -31.5116   20.6106 H   0  0  0  0  0  0
  -26.8559  -30.7991   22.0175 H   0  0  0  0  0  0
  -28.1251  -28.8953   21.2082 H   0  0  0  0  0  0
  -25.9399  -25.8913   18.9973 H   0  0  0  0  0  0
  -23.9626  -27.3010   19.0151 H   0  0  0  0  0  0
  -23.7797  -30.5853   19.4109 H   0  0  0  0  0  0
  -22.7686  -29.2394   19.8473 H   0  0  0  0  0  0
  -25.1305  -36.1873   25.0839 H   0  0  0  0  0  0
  -20.9998  -28.3269   24.1383 H   0  0  0  0  0  0
  -20.5746  -26.2257   23.3568 H   0  0  0  0  0  0
  -21.6679  -26.7409   22.1153 H   0  0  0  0  0  0
  -19.6958  -25.6273   21.1211 H   0  0  0  0  0  0
  -19.6759  -27.3145   20.6680 H   0  0  0  0  0  0
  -17.4231  -26.6616   21.4001 H   0  0  0  0  0  0
  -18.0426  -25.9978   22.8963 H   0  0  0  0  0  0
  -19.8010  -30.7214   24.2229 H   0  0  0  0  0  0
  -17.5086  -31.6243   24.5107 H   0  0  0  0  0  0
  -15.5402  -30.2919   23.7663 H   0  0  0  0  0  0
  -15.8718  -28.0759   22.7052 H   0  0  0  0  0  0
  -24.5863  -30.7105   25.7681 H   0  0  0  0  0  0
  -24.8850  -32.2904   26.4786 H   0  0  0  0  0  0
  -25.7914  -30.8912   27.0206 H   0  0  0  0  0  0
  -26.3015  -29.6724   24.1235 H   0  0  0  0  0  0
  -27.4211  -29.7338   25.4682 H   0  0  0  0  0  0
  -27.8825  -30.4429   23.9391 H   0  0  0  0  0  0
  -27.2785  -33.3671   26.1964 H   0  0  0  0  0  0
  -28.3876  -32.6777   25.0195 H   0  0  0  0  0  0
  -28.0786  -31.8455   26.5367 H   0  0  0  0  0  0
  -28.2549  -38.0075   24.7512 H   0  0  0  0  0  0
  -28.1099  -36.2600   24.6303 H   0  0  0  0  0  0
  -27.2296  -37.1387   25.8878 H   0  0  0  0  0  0
  -20.9427  -29.8689   21.6792 H   0  0  0  0  0  0
  -26.0181  -38.2813   24.1412 H   0  0  0  0  0  0
  -32.5896  -24.4091   21.5376 H   0  0  0  0  0  0
  -32.2820  -23.8174   19.9186 H   0  0  0  0  0  0
  -31.9078  -22.8084   21.3154 H   0  0  0  0  0  0
  -30.6186  -23.0164   18.5948 H   0  0  0  0  0  0
  -29.8888  -24.5819   18.2745 H   0  0  0  0  0  0
  -28.9231  -23.1189   18.1614 H   0  0  0  0  0  0
  -30.6047  -25.4758   20.6061 H   0  0  0  0  0  0
  -30.2017  -24.5836   22.0389 H   0  0  0  0  0  0
  -27.5812  -24.6899   21.2647 H   0  0  0  0  0  0
  -27.3964  -24.5177   19.5548 H   0  0  0  0  0  0
  -29.8507  -21.2188   19.3055 H   0  0  0  0  0  0
  -28.8487  -15.7104   20.2190 H   0  0  0  0  0  0
  1 25  1  0  0  0
  1 30  2  0  0  0
  1 84  1  0  0  0
  2  3  1  0  0  0
  2 25  1  0  0  0
  2 87  1  0  0  0
  2 88  1  0  0  0
  3  4  1  0  0  0
  3 89  1  0  0  0
  3 90  1  0  0  0
  4  5  1  0  0  0
  4 91  1  0  0  0
  4 92  1  0  0  0
  5  6  1  0  0  0
  5 26  1  0  0  0
  5 93  1  0  0  0
  6 25  1  0  0  0
  6 94  1  0  0  0
  6 95  1  0  0  0
  7  8  2  0  0  0
  7 26  1  0  0  0
  7 29  1  0  0  0
  8  9  1  0  0  0
  8 22  1  0  0  0
  9 10  1  0  0  0
  9 27  2  0  0  0
 10 11  2  0  0  0
 10 15  1  0  0  0
 11 12  1  0  0  0
 11 96  1  0  0  0
 12 13  2  0  0  0
 12 97  1  0  0  0
 13 14  1  0  0  0
 13 31  1  0  0  0
 14 15  2  0  0  0
 14 98  1  0  0  0
 15 99  1  0  0  0
 16 17  2  0  0  0
 16 21  1  0  0  0
 16 31  1  0  0  0
 17 18  1  0  0  0
 17100  1  0  0  0
 18 19  2  0  0  0
 18101  1  0  0  0
 19 20  1  0  0  0
 19 24  1  0  0  0
 20 21  2  0  0  0
 20102  1  0  0  0
 21 23  1  0  0  0
 22 28  1  0  0  0
 22 32  2  0  0  0
 26 27  1  0  0  0
 28103  1  0  0  0
 28104  1  0  0  0
 29105  1  0  0  0
 29106  1  0  0  0
 33 34  1  0  0  0
 33 66  1  0  0  0
 33 70  2  0  0  0
 34 36  1  0  0  0
 34 59  1  0  0  0
 34107  1  0  0  0
 35 44  2  0  0  0
 35 45  1  0  0  0
 35 68  1  0  0  0
 36 56  1  0  0  0
 36108  1  0  0  0
 37 39  1  0  0  0
 37 47  1  0  0  0
 37 66  1  0  0  0
 37109  1  0  0  0
 38 43  2  0  0  0
 38 46  1  0  0  0
 38 47  1  0  0  0
 39 64  1  0  0  0
 39 67  2  0  0  0
 40 52  1  0  0  0
 40 53  2  0  0  0
 40 58  1  0  0  0
 41110  1  0  0  0
 41111  1  0  0  0
 41112  1  0  0  0
 41 48  1  0  0  0
 42 43  1  0  0  0
 42 66  1  0  0  0
 42113  1  0  0  0
 42114  1  0  0  0
 43 44  1  0  0  0
 44115  1  0  0  0
 45 46  2  0  0  0
 45116  1  0  0  0
 46117  1  0  0  0
 47118  1  0  0  0
 47119  1  0  0  0
 48 56  1  0  0  0
 48 65  1  0  0  0
 48120  1  0  0  0
 49 50  1  0  0  0
 49 53  1  0  0  0
 49 64  1  0  0  0
 49121  1  0  0  0
 50 51  1  0  0  0
 50122  1  0  0  0
 50123  1  0  0  0
 51 52  1  0  0  0
 51124  1  0  0  0
 51125  1  0  0  0
 52126  1  0  0  0
 52127  1  0  0  0
 53 54  1  0  0  0
 54 55  2  0  0  0
 54128  1  0  0  0
 55 57  1  0  0  0
 55129  1  0  0  0
 56 69  2  0  0  0
 57 58  2  0  0  0
 57130  1  0  0  0
 58131  1  0  0  0
 59 60  1  0  0  0
 59 61  1  0  0  0
 59 62  1  0  0  0
 60132  1  0  0  0
 60133  1  0  0  0
 60134  1  0  0  0
 61135  1  0  0  0
 61136  1  0  0  0
 61137  1  0  0  0
 62138  1  0  0  0
 62139  1  0  0  0
 62140  1  0  0  0
 63 65  1  0  0  0
 63141  1  0  0  0
 63142  1  0  0  0
 63143  1  0  0  0
 64144  1  0  0  0
 65145  1  0  0  0
 68 79  1  0  0  0
 71 72  1  0  0  0
 71 81  3  0  0  0
 72 73  2  0  0  0
 72 86  1  0  0  0
 73 82  1  0  0  0
 73 83  1  0  0  0
 74 82  2  0  0  0
 74 84  1  0  0  0
 74 86  1  0  0  0
 75 83  1  0  0  0
 75 85  2  0  0  0
 75 80  1  0  0  0
 76 78  1  0  0  0
 76146  1  0  0  0
 76147  1  0  0  0
 76148  1  0  0  0
 77149  1  0  0  0
 77150  1  0  0  0
 77151  1  0  0  0
 77 80  1  0  0  0
 78 80  1  0  0  0
 78152  1  0  0  0
 78153  1  0  0  0
 79 80  1  0  0  0
 79154  1  0  0  0
 79155  1  0  0  0
 83156  1  0  0  0
 84157  1  0  0  0
M  ISO  4   1 100  68 101  79 101  84 100
M  END
> <chiral flag>
0

> <version>
0

> <s_m_source_file>
/data/baiqing/PycharmProjects/Reinvent-master-3.2/result/LINK_invent/BTK/process_docking_weight1_custom_product_contain_oxygen_bond_distance_aromatic_linkinvent_7_9_3/rearranged_h_0181.sdf

> <i_m_source_file_index>
61

> <r_mmod_Potential_Energy-OPLS-2005>
167.298324584961

> <r_mmod_Stretch_Energy-OPLS-2005>
144.262756347656

> <r_mmod_Bend_Energy-OPLS-2005>
181.96989440918

> <r_mmod_Torsional_Energy-OPLS-2005>
277.984924316406

> <r_mmod_Improper_Torsional_Energy-OPLS-2005>
10.67640209198

> <r_mmod_Van_der_Waal_Energy-OPLS-2005>
115.546180725098

> <r_mmod_Electrostatic_Energy-OPLS-2005>
-427.388732910156

> <r_mmod_Solvation_Energy-OPLS-2005>
-238.270355224609

> <b_mmod_Minimization_Converged-OPLS-2005>
0

> <r_mmod_RMS_Derivative-OPLS-2005>
3.79870915412903

$$$$
61
                    3D
 Structure written by MMmdl.
157165  0  0  1  0            999 V2000
  -30.6854  -14.5373   20.4991 C   0  0  0  0  0  0
  -30.4197  -12.3259   19.4455 C   0  0  0  0  0  0
  -29.5015  -12.5026   18.2170 C   0  0  0  0  0  0
  -28.0205  -12.3646   18.6232 C   0  0  0  0  0  0
  -27.6553  -13.2192   19.8682 C   0  0  2  0  0  0
  -28.7002  -13.0506   20.9972 C   0  0  0  0  0  0
  -25.2565  -13.8168   20.5698 C   0  0  0  0  0  0
  -24.1825  -13.0432   20.9191 C   0  0  0  0  0  0
  -24.6386  -11.6904   20.8728 C   0  0  0  0  0  0
  -23.9060  -10.4286   21.0379 C   0  0  0  0  0  0
  -24.3601   -9.4209   21.9169 C   0  0  0  0  0  0
  -23.6289   -8.2240   22.0743 C   0  0  0  0  0  0
  -22.4272   -8.0265   21.3540 C   0  0  0  0  0  0
  -21.9901   -9.0243   20.4648 C   0  0  0  0  0  0
  -22.7223  -10.2129   20.3053 C   0  0  0  0  0  0
  -21.6851   -6.0739   22.5279 C   0  0  0  0  0  0
  -21.4015   -6.5640   23.8210 C   0  0  0  0  0  0
  -21.3662   -5.6784   24.9172 C   0  0  0  0  0  0
  -21.6049   -4.3051   24.7213 C   0  0  0  0  0  0
  -21.8810   -3.8147   23.4329 C   0  0  0  0  0  0
  -21.9189   -4.6970   22.3389 C   0  0  0  0  0  0
  -22.7843  -13.5231   21.1858 C   0  0  0  0  0  0
  -22.1654   -4.2154   21.0962 F   0  0  0  0  0  0
  -21.5637   -3.4534   25.7728 F   0  0  0  0  0  0
  -30.0283  -13.3438   20.4364 N   0  0  0  0  0  0
  -26.3000  -12.9365   20.3346 N   0  0  0  0  0  0
  -25.9316  -11.6509   20.5738 N   0  0  0  0  0  0
  -22.0493  -12.8223   22.0417 N   0  0  0  0  0  0
  -25.4287  -15.1887   20.4142 N   0  0  0  0  0  0
  -31.8481  -14.6597   20.1054 O   0  0  0  0  0  0
  -21.6626   -6.8881   21.4243 O   0  0  0  0  0  0
  -22.3535  -14.5542   20.6717 O   0  0  0  0  0  0
  -24.6206  -31.8668   23.2104 C   0  0  0  0  0  0
  -25.9088  -32.4810   23.8407 C   0  0  1  0  0  0
  -27.2195  -27.3828   20.0848 C   0  0  0  0  0  0
  -25.5940  -33.8612   24.2343 N   0  0  0  0  0  0
  -23.4084  -30.4968   21.5520 C   0  0  2  0  0  0
  -24.8494  -28.9650   20.1119 C   0  0  0  0  0  0
  -22.7435  -29.4669   22.4957 C   0  0  0  0  0  0
  -18.0285  -28.1368   22.8488 C   0  0  0  0  0  0
  -24.1499  -36.7310   23.2632 C   0  0  0  0  0  0
  -25.9457  -30.8151   21.3739 C   0  0  0  0  0  0
  -26.0160  -29.4479   20.7161 C   0  0  0  0  0  0
  -27.1997  -28.6631   20.7052 C   0  0  0  0  0  0
  -26.0256  -26.9458   19.4578 C   0  0  0  0  0  0
  -24.8520  -27.7144   19.4817 C   0  0  0  0  0  0
  -23.6183  -29.8411   20.1636 C   0  0  0  0  0  0
  -25.4116  -36.3097   24.0337 C   0  0  1  0  0  0
  -20.5876  -28.3667   23.1298 C   0  0  2  0  0  0
  -20.6780  -26.9398   22.5406 C   0  0  0  0  0  0
  -19.5751  -26.6373   21.5209 C   0  0  0  0  0  0
  -18.1935  -26.7912   22.1622 C   0  0  0  0  0  0
  -19.1529  -28.8833   23.2893 C   0  0  0  0  0  0
  -18.9459  -30.1443   23.8902 C   0  0  0  0  0  0
  -17.6456  -30.6570   24.0564 C   0  0  0  0  0  0
  -25.9054  -34.9469   23.5128 C   0  0  0  0  0  0
  -16.5352  -29.9078   23.6316 C   0  0  0  0  0  0
  -16.7274  -28.6494   23.0338 C   0  0  0  0  0  0
  -26.4499  -31.6579   25.0735 C   0  0  0  0  0  0
  -25.3766  -31.3683   26.1478 C   0  0  0  0  0  0
  -27.0331  -30.3018   24.6129 C   0  0  0  0  0  0
  -27.6076  -32.4287   25.7501 C   0  0  0  0  0  0
  -27.5586  -37.1807   24.8462 C   0  0  0  0  0  0
  -21.4155  -29.3037   22.3703 N   0  0  0  0  0  0
  -26.4295  -37.3787   23.9414 N   0  0  0  0  0  0
  -24.6770  -31.0741   22.1026 N   0  0  0  0  0  0
  -23.4198  -28.8187   23.2986 O   0  0  0  0  0  0
  -28.3722  -26.5972   20.1213 O   0  0  0  0  0  0
  -26.5589  -34.8914   22.4681 O   0  0  0  0  0  0
  -23.5389  -32.1444   23.7472 O   0  0  0  0  0  0
  -29.6482  -19.2465   20.2929 C   0  0  0  0  0  0
  -30.4854  -19.1124   19.1991 C   0  0  0  0  0  0
  -30.1129  -16.9643   20.3992 C   0  0  0  0  0  0
  -29.6466  -21.8565   20.7351 C   0  0  0  0  0  0
  -29.3309  -24.2613   20.2553 C   0  0  0  0  0  0
  -28.6332  -25.3346   18.0659 C   0  0  0  0  0  0
  -28.8859  -20.4949   20.7785 C   0  0  2  0  0  0
  -28.3324  -25.2436   19.5724 C   0  0  2  0  0  0
  -29.4285  -17.9936   20.9380 N   0  0  0  0  0  0
  -30.8627  -20.0582   18.2491 N   0  0  0  0  0  0
  -29.9497  -15.6135   20.8668 N   0  0  0  0  0  0
  -28.9846  -22.9427   20.2511 N   0  0  0  0  0  0
  -28.5125  -20.2937   22.1840 N   0  3  0  0  0  0
  -30.7815  -21.9088   21.2234 O   0  0  0  0  0  0
  -30.3661  -24.7128   20.7593 O   0  0  0  0  0  0
  -31.0892  -17.4768   19.0196 S   0  0  0  0  0  0
  -31.4680  -12.4069   19.1513 H   0  0  0  0  0  0
  -30.3066  -11.3292   19.8725 H   0  0  0  0  0  0
  -29.7443  -11.7691   17.4477 H   0  0  0  0  0  0
  -29.6711  -13.4822   17.7661 H   0  0  0  0  0  0
  -27.8318  -11.3117   18.8304 H   0  0  0  0  0  0
  -27.3704  -12.6319   17.7884 H   0  0  0  0  0  0
  -27.6808  -14.2587   19.5415 H   0  0  0  0  0  0
  -28.6842  -12.0303   21.3836 H   0  0  0  0  0  0
  -28.4655  -13.6977   21.8436 H   0  0  0  0  0  0
  -25.2741   -9.5707   22.4753 H   0  0  0  0  0  0
  -24.0021   -7.4632   22.7454 H   0  0  0  0  0  0
  -21.0844   -8.8746   19.8949 H   0  0  0  0  0  0
  -22.3659  -10.9665   19.6163 H   0  0  0  0  0  0
  -21.2004   -7.6153   23.9714 H   0  0  0  0  0  0
  -21.1505   -6.0524   25.9080 H   0  0  0  0  0  0
  -22.0594   -2.7614   23.2823 H   0  0  0  0  0  0
  -22.4093  -11.9866   22.4770 H   0  0  0  0  0  0
  -21.1116  -13.1249   22.2610 H   0  0  0  0  0  0
  -24.6661  -15.8454   20.5399 H   0  0  0  0  0  0
  -26.2770  -15.6265   20.0781 H   0  0  0  0  0  0
  -26.7151  -32.5507   23.1157 H   0  0  0  0  0  0
  -25.0129  -33.9779   25.0510 H   0  0  0  0  0  0
  -22.6979  -31.3148   21.4173 H   0  0  0  0  0  0
  -23.3754  -35.9647   23.3287 H   0  0  0  0  0  0
  -24.3603  -36.8932   22.2048 H   0  0  0  0  0  0
  -23.7252  -37.6517   23.6654 H   0  0  0  0  0  0
  -26.0693  -31.5820   20.6078 H   0  0  0  0  0  0
  -26.8299  -30.8617   21.9979 H   0  0  0  0  0  0
  -28.0968  -29.0286   21.1859 H   0  0  0  0  0  0
  -25.9529  -26.0114   18.9258 H   0  0  0  0  0  0
  -23.9568  -27.3417   19.0017 H   0  0  0  0  0  0
  -23.7362  -30.6222   19.4113 H   0  0  0  0  0  0
  -22.7384  -29.2717   19.8599 H   0  0  0  0  0  0
  -25.1286  -36.1962   25.0826 H   0  0  0  0  0  0
  -20.9987  -28.3243   24.1409 H   0  0  0  0  0  0
  -20.5669  -26.2286   23.3606 H   0  0  0  0  0  0
  -21.6652  -26.7428   22.1212 H   0  0  0  0  0  0
  -19.6919  -25.6285   21.1234 H   0  0  0  0  0  0
  -19.6690  -27.3184   20.6743 H   0  0  0  0  0  0
  -17.4209  -26.6656   21.4024 H   0  0  0  0  0  0
  -18.0342  -26.0050   22.9019 H   0  0  0  0  0  0
  -19.7939  -30.7251   24.2278 H   0  0  0  0  0  0
  -17.5016  -31.6251   24.5165 H   0  0  0  0  0  0
  -15.5357  -30.2977   23.7627 H   0  0  0  0  0  0
  -15.8681  -28.0820   22.7032 H   0  0  0  0  0  0
  -24.5962  -30.6993   25.7823 H   0  0  0  0  0  0
  -24.8926  -32.2831   26.4911 H   0  0  0  0  0  0
  -25.8131  -30.8878   27.0245 H   0  0  0  0  0  0
  -26.2879  -29.6761   24.1194 H   0  0  0  0  0  0
  -27.4102  -29.7260   25.4591 H   0  0  0  0  0  0
  -27.8721  -30.4316   23.9287 H   0  0  0  0  0  0
  -27.2714  -33.3592   26.2086 H   0  0  0  0  0  0
  -28.3892  -32.6827   25.0328 H   0  0  0  0  0  0
  -28.0736  -31.8397   26.5410 H   0  0  0  0  0  0
  -28.2582  -38.0118   24.7522 H   0  0  0  0  0  0
  -28.1093  -36.2652   24.6267 H   0  0  0  0  0  0
  -27.2311  -37.1436   25.8861 H   0  0  0  0  0  0
  -20.9315  -29.8817   21.6979 H   0  0  0  0  0  0
  -26.0178  -38.2866   24.1405 H   0  0  0  0  0  0
  -28.6398  -24.3499   17.5970 H   0  0  0  0  0  0
  -29.6063  -25.7912   17.8876 H   0  0  0  0  0  0
  -27.8922  -25.9368   17.5427 H   0  0  0  0  0  0
  -27.9710  -20.5816   20.1924 H   0  0  0  0  0  0
  -27.3625  -24.7814   19.7475 H   0  0  0  0  0  0
  -30.4768  -20.9910   18.1407 H   0  0  0  0  0  0
  -31.4761  -19.8238   17.4720 H   0  0  0  0  0  0
  -29.0800  -15.4135   21.3318 H   0  0  0  0  0  0
  -28.0836  -22.7556   19.8365 H   0  0  0  0  0  0
  -29.3343  -20.4112   22.7478 H   0  0  0  0  0  0
  -28.1817  -19.3521   22.2909 H   0  0  0  0  0  0
  -27.8140  -20.9459   22.4856 H   0  0  0  0  0  0
  1 25  1  0  0  0
  1 30  2  0  0  0
  1 81  1  0  0  0
  2  3  1  0  0  0
  2 25  1  0  0  0
  2 87  1  0  0  0
  2 88  1  0  0  0
  3  4  1  0  0  0
  3 89  1  0  0  0
  3 90  1  0  0  0
  4  5  1  0  0  0
  4 91  1  0  0  0
  4 92  1  0  0  0
  5  6  1  0  0  0
  5 26  1  0  0  0
  5 93  1  0  0  0
  6 25  1  0  0  0
  6 94  1  0  0  0
  6 95  1  0  0  0
  7  8  2  0  0  0
  7 26  1  0  0  0
  7 29  1  0  0  0
  8  9  1  0  0  0
  8 22  1  0  0  0
  9 10  1  0  0  0
  9 27  2  0  0  0
 10 11  2  0  0  0
 10 15  1  0  0  0
 11 12  1  0  0  0
 11 96  1  0  0  0
 12 13  2  0  0  0
 12 97  1  0  0  0
 13 14  1  0  0  0
 13 31  1  0  0  0
 14 15  2  0  0  0
 14 98  1  0  0  0
 15 99  1  0  0  0
 16 17  2  0  0  0
 16 21  1  0  0  0
 16 31  1  0  0  0
 17 18  1  0  0  0
 17100  1  0  0  0
 18 19  2  0  0  0
 18101  1  0  0  0
 19 20  1  0  0  0
 19 24  1  0  0  0
 20 21  2  0  0  0
 20102  1  0  0  0
 21 23  1  0  0  0
 22 28  1  0  0  0
 22 32  2  0  0  0
 26 27  1  0  0  0
 28103  1  0  0  0
 28104  1  0  0  0
 29105  1  0  0  0
 29106  1  0  0  0
 33 34  1  0  0  0
 33 66  1  0  0  0
 33 70  2  0  0  0
 34 36  1  0  0  0
 34 59  1  0  0  0
 34107  1  0  0  0
 35 44  2  0  0  0
 35 45  1  0  0  0
 35 68  1  0  0  0
 36 56  1  0  0  0
 36108  1  0  0  0
 37 39  1  0  0  0
 37 47  1  0  0  0
 37 66  1  0  0  0
 37109  1  0  0  0
 38 43  2  0  0  0
 38 46  1  0  0  0
 38 47  1  0  0  0
 39 64  1  0  0  0
 39 67  2  0  0  0
 40 52  1  0  0  0
 40 53  2  0  0  0
 40 58  1  0  0  0
 41110  1  0  0  0
 41111  1  0  0  0
 41112  1  0  0  0
 41 48  1  0  0  0
 42 43  1  0  0  0
 42 66  1  0  0  0
 42113  1  0  0  0
 42114  1  0  0  0
 43 44  1  0  0  0
 44115  1  0  0  0
 45 46  2  0  0  0
 45116  1  0  0  0
 46117  1  0  0  0
 47118  1  0  0  0
 47119  1  0  0  0
 48 56  1  0  0  0
 48 65  1  0  0  0
 48120  1  0  0  0
 49 50  1  0  0  0
 49 53  1  0  0  0
 49 64  1  0  0  0
 49121  1  0  0  0
 50 51  1  0  0  0
 50122  1  0  0  0
 50123  1  0  0  0
 51 52  1  0  0  0
 51124  1  0  0  0
 51125  1  0  0  0
 52126  1  0  0  0
 52127  1  0  0  0
 53 54  1  0  0  0
 54 55  2  0  0  0
 54128  1  0  0  0
 55 57  1  0  0  0
 55129  1  0  0  0
 56 69  2  0  0  0
 57 58  2  0  0  0
 57130  1  0  0  0
 58131  1  0  0  0
 59 60  1  0  0  0
 59 61  1  0  0  0
 59 62  1  0  0  0
 60132  1  0  0  0
 60133  1  0  0  0
 60134  1  0  0  0
 61135  1  0  0  0
 61136  1  0  0  0
 61137  1  0  0  0
 62138  1  0  0  0
 62139  1  0  0  0
 62140  1  0  0  0
 63 65  1  0  0  0
 63141  1  0  0  0
 63142  1  0  0  0
 63143  1  0  0  0
 64144  1  0  0  0
 65145  1  0  0  0
 68 78  1  0  0  0
 71 72  2  0  0  0
 71 77  1  0  0  0
 71 79  1  0  0  0
 72 80  1  0  0  0
 72 86  1  0  0  0
 73 79  2  0  0  0
 73 81  1  0  0  0
 73 86  1  0  0  0
 74 77  1  0  0  0
 74 82  1  0  0  0
 74 84  2  0  0  0
 75 78  1  0  0  0
 75 82  1  0  0  0
 75 85  2  0  0  0
 76146  1  0  0  0
 76147  1  0  0  0
 76148  1  0  0  0
 76 78  1  0  0  0
 77 83  1  0  0  0
 77149  1  0  0  0
 78150  1  0  0  0
 80151  1  0  0  0
 80152  1  0  0  0
 81153  1  0  0  0
 82154  1  0  0  0
 83155  1  0  0  0
 83156  1  0  0  0
 83157  1  0  0  0
M  CHG  1  83   1
M  ISO  4   1 100  68 101  78 101  81 100
M  END
> <chiral flag>
0

> <version>
0

> <s_m_source_file>
/data/baiqing/PycharmProjects/Reinvent-master-3.2/result/LINK_invent/BTK/process_docking_weight1_custom_product_contain_oxygen_bond_distance_aromatic_linkinvent_7_9_3/rearranged_h_0181.sdf

> <i_m_source_file_index>
62

> <r_mmod_Potential_Energy-OPLS-2005>
-653.804504394531

> <r_mmod_Stretch_Energy-OPLS-2005>
52.0748977661133

> <r_mmod_Bend_Energy-OPLS-2005>
124.730964660645

> <r_mmod_Torsional_Energy-OPLS-2005>
213.468643188477

> <r_mmod_Improper_Torsional_Energy-OPLS-2005>
5.58678150177002

> <r_mmod_Van_der_Waal_Energy-OPLS-2005>
141.521606445312

> <r_mmod_Electrostatic_Energy-OPLS-2005>
-580.37451171875

> <r_mmod_Solvation_Energy-OPLS-2005>
-636.003234863281

> <b_mmod_Minimization_Converged-OPLS-2005>
0

> <r_mmod_RMS_Derivative-OPLS-2005>
2.57020258903503

$$$$
62
                    3D
 Structure written by MMmdl.
152160  0  0  1  0            999 V2000
  -30.6146  -14.6992   20.4695 C   0  0  0  0  0  0
  -30.4350  -12.4241   19.4638 C   0  0  0  0  0  0
  -29.5125  -12.5172   18.2273 C   0  0  0  0  0  0
  -28.0348  -12.3457   18.6347 C   0  0  0  0  0  0
  -27.6471  -13.2289   19.8523 C   0  0  2  0  0  0
  -28.6905  -13.1265   20.9878 C   0  0  0  0  0  0
  -25.2546  -13.8187   20.5672 C   0  0  0  0  0  0
  -24.1828  -13.0425   20.9173 C   0  0  0  0  0  0
  -24.6420  -11.6907   20.8747 C   0  0  0  0  0  0
  -23.9101  -10.4278   21.0396 C   0  0  0  0  0  0
  -24.3647   -9.4197   21.9183 C   0  0  0  0  0  0
  -23.6311   -8.2243   22.0757 C   0  0  0  0  0  0
  -22.4301   -8.0292   21.3540 C   0  0  0  0  0  0
  -21.9926   -9.0263   20.4646 C   0  0  0  0  0  0
  -22.7262  -10.2131   20.3052 C   0  0  0  0  0  0
  -21.6855   -6.0757   22.5287 C   0  0  0  0  0  0
  -21.4009   -6.5658   23.8229 C   0  0  0  0  0  0
  -21.3652   -5.6797   24.9179 C   0  0  0  0  0  0
  -21.6045   -4.3067   24.7222 C   0  0  0  0  0  0
  -21.8814   -3.8164   23.4343 C   0  0  0  0  0  0
  -21.9188   -4.6981   22.3398 C   0  0  0  0  0  0
  -22.7849  -13.5219   21.1837 C   0  0  0  0  0  0
  -22.1661   -4.2173   21.0982 F   0  0  0  0  0  0
  -21.5617   -3.4546   25.7731 F   0  0  0  0  0  0
  -30.0003  -13.4696   20.4177 N   0  0  0  0  0  0
  -26.2981  -12.9398   20.3276 N   0  0  0  0  0  0
  -25.9366  -11.6534   20.5752 N   0  0  0  0  0  0
  -22.0494  -12.8215   22.0393 N   0  0  0  0  0  0
  -25.4168  -15.1915   20.4097 N   0  0  0  0  0  0
  -31.7969  -14.8097   20.1309 O   0  0  0  0  0  0
  -21.6643   -6.8907   21.4259 O   0  0  0  0  0  0
  -22.3541  -14.5531   20.6688 O   0  0  0  0  0  0
  -24.6299  -31.8565   23.1987 C   0  0  0  0  0  0
  -25.9129  -32.4756   23.8330 C   0  0  1  0  0  0
  -27.2099  -27.2734   20.1299 C   0  0  0  0  0  0
  -25.5954  -33.8558   24.2262 N   0  0  0  0  0  0
  -23.4248  -30.4799   21.5402 C   0  0  2  0  0  0
  -24.8702  -28.9270   20.1145 C   0  0  0  0  0  0
  -22.7482  -29.4608   22.4898 C   0  0  0  0  0  0
  -18.0295  -28.1413   22.8493 C   0  0  0  0  0  0
  -24.1484  -36.7270   23.2639 C   0  0  0  0  0  0
  -25.9690  -30.7734   21.3752 C   0  0  0  0  0  0
  -26.0406  -29.3929   20.7284 C   0  0  0  0  0  0
  -27.2153  -28.5764   20.7295 C   0  0  0  0  0  0
  -26.0298  -26.8831   19.4699 C   0  0  0  0  0  0
  -24.8672  -27.6772   19.4789 C   0  0  0  0  0  0
  -23.6424  -29.8144   20.1541 C   0  0  0  0  0  0
  -25.4109  -36.3065   24.0330 C   0  0  1  0  0  0
  -20.5895  -28.3700   23.1283 C   0  0  2  0  0  0
  -20.6778  -26.9414   22.5419 C   0  0  0  0  0  0
  -19.5742  -26.6407   21.5228 C   0  0  0  0  0  0
  -18.1926  -26.7959   22.1639 C   0  0  0  0  0  0
  -19.1550  -28.8868   23.2900 C   0  0  0  0  0  0
  -18.9474  -30.1479   23.8900 C   0  0  0  0  0  0
  -17.6474  -30.6604   24.0577 C   0  0  0  0  0  0
  -25.9056  -34.9440   23.5088 C   0  0  0  0  0  0
  -16.5362  -29.9101   23.6351 C   0  0  0  0  0  0
  -16.7283  -28.6533   23.0349 C   0  0  0  0  0  0
  -26.4517  -31.6565   25.0688 C   0  0  0  0  0  0
  -25.3746  -31.3724   26.1402 C   0  0  0  0  0  0
  -27.0340  -30.2980   24.6158 C   0  0  0  0  0  0
  -27.6070  -32.4295   25.7471 C   0  0  0  0  0  0
  -27.5566  -37.1788   24.8478 C   0  0  0  0  0  0
  -21.4187  -29.3053   22.3655 N   0  0  0  0  0  0
  -26.4283  -37.3763   23.9413 N   0  0  0  0  0  0
  -24.6939  -31.0548   22.0951 N   0  0  0  0  0  0
  -23.4191  -28.8147   23.2982 O   0  0  0  0  0  0
  -28.3038  -26.3875   20.1070 O   0  0  0  0  0  0
  -26.5612  -34.8935   22.4647 O   0  0  0  0  0  0
  -23.5456  -32.1374   23.7297 O   0  0  0  0  0  0
  -29.5083  -19.5790   20.4213 C   0  0  0  0  0  0
  -30.8122  -19.5817   19.9343 C   0  0  0  0  0  0
  -30.0538  -17.2379   20.5007 C   0  0  0  0  0  0
  -28.5518  -20.7697   20.5764 C   0  0  0  0  0  0
  -29.0048  -22.3594   20.5965 C   0  0  0  0  0  0
  -26.6300  -23.1964   19.8664 C   0  0  0  0  0  0
  -28.2120  -25.0433   20.7759 C   0  0  0  0  0  0
  -28.1177  -23.5923   20.0287 C   0  0  1  0  0  0
  -29.1207  -18.2106   20.7187 N   0  0  0  0  0  0
  -31.6119  -20.6331   19.4857 N   0  0  0  0  0  0
  -29.8188  -15.7997   20.7313 N   0  0  0  0  0  0
  -27.3500  -20.5472   20.7776 O   0  0  0  0  0  0
  -30.0960  -22.6403   21.1087 O   0  0  0  0  0  0
  -31.5308  -17.9645   19.8713 S   0  0  0  0  0  0
  -31.4796  -12.5393   19.1659 H   0  0  0  0  0  0
  -30.3647  -11.4364   19.9231 H   0  0  0  0  0  0
  -29.7905  -11.7654   17.4866 H   0  0  0  0  0  0
  -29.6474  -13.4877   17.7469 H   0  0  0  0  0  0
  -27.8745  -11.2946   18.8764 H   0  0  0  0  0  0
  -27.3824  -12.5631   17.7871 H   0  0  0  0  0  0
  -27.6506  -14.2586   19.4949 H   0  0  0  0  0  0
  -28.7134  -12.1175   21.4023 H   0  0  0  0  0  0
  -28.4340  -13.7898   21.8161 H   0  0  0  0  0  0
  -25.2792   -9.5681   22.4750 H   0  0  0  0  0  0
  -24.0014   -7.4641   22.7490 H   0  0  0  0  0  0
  -21.0840   -8.8796   19.8964 H   0  0  0  0  0  0
  -22.3731  -10.9678   19.6163 H   0  0  0  0  0  0
  -21.2021   -7.6162   23.9743 H   0  0  0  0  0  0
  -21.1470   -6.0523   25.9086 H   0  0  0  0  0  0
  -22.0603   -2.7627   23.2828 H   0  0  0  0  0  0
  -22.4097  -11.9882   22.4797 H   0  0  0  0  0  0
  -21.1119  -13.1259   22.2616 H   0  0  0  0  0  0
  -24.6361  -15.8311   20.5128 H   0  0  0  0  0  0
  -26.2599  -15.6444   20.0806 H   0  0  0  0  0  0
  -26.7168  -32.5412   23.1047 H   0  0  0  0  0  0
  -25.0099  -33.9717   25.0408 H   0  0  0  0  0  0
  -22.7214  -31.3027   21.3972 H   0  0  0  0  0  0
  -23.3753  -35.9596   23.3315 H   0  0  0  0  0  0
  -24.3565  -36.8868   22.2052 H   0  0  0  0  0  0
  -23.7262  -37.6486   23.6649 H   0  0  0  0  0  0
  -26.1005  -31.5290   20.5993 H   0  0  0  0  0  0
  -26.8514  -30.8297   22.0015 H   0  0  0  0  0  0
  -28.1122  -28.9322   21.2161 H   0  0  0  0  0  0
  -26.0062  -25.9605   18.9171 H   0  0  0  0  0  0
  -23.9746  -27.3240   18.9790 H   0  0  0  0  0  0
  -23.7624  -30.5887   19.3946 H   0  0  0  0  0  0
  -22.7652  -29.2418   19.8489 H   0  0  0  0  0  0
  -25.1295  -36.1890   25.0824 H   0  0  0  0  0  0
  -21.0027  -28.3275   24.1389 H   0  0  0  0  0  0
  -20.5701  -26.2288   23.3610 H   0  0  0  0  0  0
  -21.6637  -26.7443   22.1193 H   0  0  0  0  0  0
  -19.6890  -25.6327   21.1228 H   0  0  0  0  0  0
  -19.6699  -27.3244   20.6780 H   0  0  0  0  0  0
  -17.4204  -26.6732   21.4037 H   0  0  0  0  0  0
  -18.0315  -26.0118   22.9051 H   0  0  0  0  0  0
  -19.7939  -30.7326   24.2259 H   0  0  0  0  0  0
  -17.5010  -31.6282   24.5176 H   0  0  0  0  0  0
  -15.5355  -30.3000   23.7684 H   0  0  0  0  0  0
  -15.8685  -28.0869   22.7030 H   0  0  0  0  0  0
  -24.5949  -30.7038   25.7743 H   0  0  0  0  0  0
  -24.8909  -32.2897   26.4763 H   0  0  0  0  0  0
  -25.8077  -30.8965   27.0206 H   0  0  0  0  0  0
  -26.2907  -29.6752   24.1170 H   0  0  0  0  0  0
  -27.4013  -29.7220   25.4664 H   0  0  0  0  0  0
  -27.8797  -30.4256   23.9392 H   0  0  0  0  0  0
  -27.2676  -33.3602   26.2026 H   0  0  0  0  0  0
  -28.3907  -32.6823   25.0316 H   0  0  0  0  0  0
  -28.0694  -31.8414   26.5409 H   0  0  0  0  0  0
  -28.2605  -38.0063   24.7487 H   0  0  0  0  0  0
  -28.1035  -36.2598   24.6333 H   0  0  0  0  0  0
  -27.2266  -37.1451   25.8876 H   0  0  0  0  0  0
  -20.9354  -29.8756   21.6855 H   0  0  0  0  0  0
  -26.0151  -38.2823   24.1429 H   0  0  0  0  0  0
  -26.4976  -22.3832   19.1522 H   0  0  0  0  0  0
  -26.0121  -24.0093   19.5084 H   0  0  0  0  0  0
  -26.1926  -22.8843   20.8164 H   0  0  0  0  0  0
  -29.1052  -25.0230   21.3982 H   0  0  0  0  0  0
  -27.4001  -25.0932   21.5031 H   0  0  0  0  0  0
  -28.5144  -23.7388   19.0239 H   0  0  0  0  0  0
  -31.4947  -21.5775   19.8510 H   0  0  0  0  0  0
  -32.5782  -20.4609   19.2193 H   0  0  0  0  0  0
  -28.8841  -15.5729   21.0308 H   0  0  0  0  0  0
  1 25  1  0  0  0
  1 30  2  0  0  0
  1 81  1  0  0  0
  2  3  1  0  0  0
  2 25  1  0  0  0
  2 85  1  0  0  0
  2 86  1  0  0  0
  3  4  1  0  0  0
  3 87  1  0  0  0
  3 88  1  0  0  0
  4  5  1  0  0  0
  4 89  1  0  0  0
  4 90  1  0  0  0
  5  6  1  0  0  0
  5 26  1  0  0  0
  5 91  1  0  0  0
  6 25  1  0  0  0
  6 92  1  0  0  0
  6 93  1  0  0  0
  7  8  2  0  0  0
  7 26  1  0  0  0
  7 29  1  0  0  0
  8  9  1  0  0  0
  8 22  1  0  0  0
  9 10  1  0  0  0
  9 27  2  0  0  0
 10 11  2  0  0  0
 10 15  1  0  0  0
 11 12  1  0  0  0
 11 94  1  0  0  0
 12 13  2  0  0  0
 12 95  1  0  0  0
 13 14  1  0  0  0
 13 31  1  0  0  0
 14 15  2  0  0  0
 14 96  1  0  0  0
 15 97  1  0  0  0
 16 17  2  0  0  0
 16 21  1  0  0  0
 16 31  1  0  0  0
 17 18  1  0  0  0
 17 98  1  0  0  0
 18 19  2  0  0  0
 18 99  1  0  0  0
 19 20  1  0  0  0
 19 24  1  0  0  0
 20 21  2  0  0  0
 20100  1  0  0  0
 21 23  1  0  0  0
 22 28  1  0  0  0
 22 32  2  0  0  0
 26 27  1  0  0  0
 28101  1  0  0  0
 28102  1  0  0  0
 29103  1  0  0  0
 29104  1  0  0  0
 33 34  1  0  0  0
 33 66  1  0  0  0
 33 70  2  0  0  0
 34 36  1  0  0  0
 34 59  1  0  0  0
 34105  1  0  0  0
 35 44  2  0  0  0
 35 45  1  0  0  0
 35 68  1  0  0  0
 36 56  1  0  0  0
 36106  1  0  0  0
 37 39  1  0  0  0
 37 47  1  0  0  0
 37 66  1  0  0  0
 37107  1  0  0  0
 38 43  2  0  0  0
 38 46  1  0  0  0
 38 47  1  0  0  0
 39 64  1  0  0  0
 39 67  2  0  0  0
 40 52  1  0  0  0
 40 53  2  0  0  0
 40 58  1  0  0  0
 41108  1  0  0  0
 41109  1  0  0  0
 41110  1  0  0  0
 41 48  1  0  0  0
 42 43  1  0  0  0
 42 66  1  0  0  0
 42111  1  0  0  0
 42112  1  0  0  0
 43 44  1  0  0  0
 44113  1  0  0  0
 45 46  2  0  0  0
 45114  1  0  0  0
 46115  1  0  0  0
 47116  1  0  0  0
 47117  1  0  0  0
 48 56  1  0  0  0
 48 65  1  0  0  0
 48118  1  0  0  0
 49 50  1  0  0  0
 49 53  1  0  0  0
 49 64  1  0  0  0
 49119  1  0  0  0
 50 51  1  0  0  0
 50120  1  0  0  0
 50121  1  0  0  0
 51 52  1  0  0  0
 51122  1  0  0  0
 51123  1  0  0  0
 52124  1  0  0  0
 52125  1  0  0  0
 53 54  1  0  0  0
 54 55  2  0  0  0
 54126  1  0  0  0
 55 57  1  0  0  0
 55127  1  0  0  0
 56 69  2  0  0  0
 57 58  2  0  0  0
 57128  1  0  0  0
 58129  1  0  0  0
 59 60  1  0  0  0
 59 61  1  0  0  0
 59 62  1  0  0  0
 60130  1  0  0  0
 60131  1  0  0  0
 60132  1  0  0  0
 61133  1  0  0  0
 61134  1  0  0  0
 61135  1  0  0  0
 62136  1  0  0  0
 62137  1  0  0  0
 62138  1  0  0  0
 63 65  1  0  0  0
 63139  1  0  0  0
 63140  1  0  0  0
 63141  1  0  0  0
 64142  1  0  0  0
 65143  1  0  0  0
 68 77  1  0  0  0
 71 72  2  0  0  0
 71 74  1  0  0  0
 71 79  1  0  0  0
 72 80  1  0  0  0
 72 84  1  0  0  0
 73 79  2  0  0  0
 73 81  1  0  0  0
 73 84  1  0  0  0
 74 75  1  0  0  0
 74 82  2  0  0  0
 75 78  1  0  0  0
 75 83  2  0  0  0
 76144  1  0  0  0
 76145  1  0  0  0
 76146  1  0  0  0
 76 78  1  0  0  0
 77 78  1  0  0  0
 77147  1  0  0  0
 77148  1  0  0  0
 78149  1  0  0  0
 80150  1  0  0  0
 80151  1  0  0  0
 81152  1  0  0  0
M  ISO  4   1 100  68 101  77 101  81 100
M  END
> <chiral flag>
0

> <version>
0

> <s_m_source_file>
/data/baiqing/PycharmProjects/Reinvent-master-3.2/result/LINK_invent/BTK/process_docking_weight1_custom_product_contain_oxygen_bond_distance_aromatic_linkinvent_7_9_3/rearranged_h_0181.sdf

> <i_m_source_file_index>
63

> <r_mmod_Potential_Energy-OPLS-2005>
318.528900146484

> <r_mmod_Stretch_Energy-OPLS-2005>
130.509353637695

> <r_mmod_Bend_Energy-OPLS-2005>
176.76106262207

> <r_mmod_Torsional_Energy-OPLS-2005>
242.710083007812

> <r_mmod_Improper_Torsional_Energy-OPLS-2005>
7.34024000167847

> <r_mmod_Van_der_Waal_Energy-OPLS-2005>
123.577331542969

> <r_mmod_Electrostatic_Energy-OPLS-2005>
-202.885681152344

> <r_mmod_Solvation_Energy-OPLS-2005>
-228.567230224609

> <b_mmod_Minimization_Converged-OPLS-2005>
0

> <r_mmod_RMS_Derivative-OPLS-2005>
3.24966239929199

$$$$
64
                    3D
 Structure written by MMmdl.
153161  0  0  1  0            999 V2000
  -30.6086  -14.7786   20.4631 C   0  0  0  0  0  0
  -30.4342  -12.4726   19.5086 C   0  0  0  0  0  0
  -29.5223  -12.5241   18.2628 C   0  0  0  0  0  0
  -28.0491  -12.3325   18.6679 C   0  0  0  0  0  0
  -27.6439  -13.2399   19.8604 C   0  0  2  0  0  0
  -28.6818  -13.1953   21.0067 C   0  0  0  0  0  0
  -25.2473  -13.8203   20.5684 C   0  0  0  0  0  0
  -24.1776  -13.0433   20.9215 C   0  0  0  0  0  0
  -24.6399  -11.6925   20.8754 C   0  0  0  0  0  0
  -23.9091  -10.4289   21.0404 C   0  0  0  0  0  0
  -24.3641   -9.4203   21.9176 C   0  0  0  0  0  0
  -23.6304   -8.2251   22.0758 C   0  0  0  0  0  0
  -22.4284   -8.0293   21.3556 C   0  0  0  0  0  0
  -21.9926   -9.0263   20.4655 C   0  0  0  0  0  0
  -22.7265  -10.2132   20.3052 C   0  0  0  0  0  0
  -21.6860   -6.0737   22.5280 C   0  0  0  0  0  0
  -21.4027   -6.5640   23.8210 C   0  0  0  0  0  0
  -21.3669   -5.6800   24.9175 C   0  0  0  0  0  0
  -21.6045   -4.3059   24.7229 C   0  0  0  0  0  0
  -21.8816   -3.8150   23.4349 C   0  0  0  0  0  0
  -21.9205   -4.6966   22.3406 C   0  0  0  0  0  0
  -22.7800  -13.5211   21.1889 C   0  0  0  0  0  0
  -22.1661   -4.2146   21.0985 F   0  0  0  0  0  0
  -21.5627   -3.4549   25.7741 F   0  0  0  0  0  0
  -29.9932  -13.5424   20.4399 N   0  0  0  0  0  0
  -26.2941  -12.9445   20.3331 N   0  0  0  0  0  0
  -25.9349  -11.6579   20.5816 N   0  0  0  0  0  0
  -22.0488  -12.8178   22.0450 N   0  0  0  0  0  0
  -25.4133  -15.1922   20.4021 N   0  0  0  0  0  0
  -31.7741  -14.8710   20.0604 O   0  0  0  0  0  0
  -21.6640   -6.8893   21.4244 O   0  0  0  0  0  0
  -22.3482  -14.5524   20.6756 O   0  0  0  0  0  0
  -24.6326  -31.8559   23.1975 C   0  0  0  0  0  0
  -25.9144  -32.4755   23.8335 C   0  0  1  0  0  0
  -27.2121  -27.2460   20.1454 C   0  0  0  0  0  0
  -25.5937  -33.8564   24.2257 N   0  0  0  0  0  0
  -23.4293  -30.4777   21.5427 C   0  0  2  0  0  0
  -24.8790  -28.9323   20.1061 C   0  0  0  0  0  0
  -22.7511  -29.4597   22.4925 C   0  0  0  0  0  0
  -18.0330  -28.1357   22.8509 C   0  0  0  0  0  0
  -24.1496  -36.7290   23.2635 C   0  0  0  0  0  0
  -25.9759  -30.7668   21.3793 C   0  0  0  0  0  0
  -26.0506  -29.3871   20.7273 C   0  0  0  0  0  0
  -27.2200  -28.5561   20.7390 C   0  0  0  0  0  0
  -26.0292  -26.8872   19.4573 C   0  0  0  0  0  0
  -24.8764  -27.6927   19.4551 C   0  0  0  0  0  0
  -23.6461  -29.8138   20.1586 C   0  0  0  0  0  0
  -25.4116  -36.3063   24.0324 C   0  0  1  0  0  0
  -20.5925  -28.3697   23.1309 C   0  0  2  0  0  0
  -20.6847  -26.9425   22.5416 C   0  0  0  0  0  0
  -19.5832  -26.6414   21.5207 C   0  0  0  0  0  0
  -18.2007  -26.7919   22.1621 C   0  0  0  0  0  0
  -19.1562  -28.8849   23.2901 C   0  0  0  0  0  0
  -18.9468  -30.1445   23.8939 C   0  0  0  0  0  0
  -17.6451  -30.6569   24.0567 C   0  0  0  0  0  0
  -25.9053  -34.9438   23.5094 C   0  0  0  0  0  0
  -16.5368  -29.9040   23.6309 C   0  0  0  0  0  0
  -16.7307  -28.6452   23.0351 C   0  0  0  0  0  0
  -26.4514  -31.6574   25.0725 C   0  0  0  0  0  0
  -25.3723  -31.3746   26.1430 C   0  0  0  0  0  0
  -27.0362  -30.2990   24.6210 C   0  0  0  0  0  0
  -27.6067  -32.4300   25.7499 C   0  0  0  0  0  0
  -27.5576  -37.1799   24.8459 C   0  0  0  0  0  0
  -21.4213  -29.3068   22.3697 N   0  0  0  0  0  0
  -26.4281  -37.3763   23.9403 N   0  0  0  0  0  0
  -24.6986  -31.0517   22.0958 N   0  0  0  0  0  0
  -23.4204  -28.8126   23.3010 O   0  0  0  0  0  0
  -28.2630  -26.2951   20.2316 O   0  0  0  0  0  0
  -26.5618  -34.8907   22.4663 O   0  0  0  0  0  0
  -23.5464  -32.1379   23.7271 O   0  0  0  0  0  0
  -29.9764  -17.3859   18.8584 C   0  0  0  0  0  0
  -29.6027  -19.7939   18.9363 C   0  0  0  0  0  0
  -29.8428  -18.6220   18.2040 C   0  0  0  0  0  0
  -29.8634  -17.2927   20.2616 C   0  0  0  0  0  0
  -29.4856  -19.7274   20.3287 C   0  0  0  0  0  0
  -28.8326  -23.6153   20.4450 C   0  0  0  0  0  0
  -27.8344  -24.8809   20.5678 C   0  0  0  0  0  0
  -28.3234  -22.1030   20.8419 C   0  0  1  0  0  0
  -27.0419  -21.6878   20.0556 C   0  0  0  0  0  0
  -29.6135  -18.4862   20.9605 N   0  0  0  0  0  0
  -29.8818  -15.9132   20.8308 N   0  0  0  0  0  0
  -29.3183  -20.9570   21.0724 N   0  0  0  0  0  0
  -29.9935  -23.8156   20.0711 O   0  0  0  0  0  0
  -29.9363  -18.6802   16.8537 F   0  0  0  0  0  0
  -27.2791  -21.5475   18.7523 F   0  0  0  0  0  0
  -26.1006  -22.6223   20.1812 F   0  0  0  0  0  0
  -26.3218  -20.1825   20.6927 Cl  0  0  0  0  0  0
  -31.4785  -12.5869   19.2133 H   0  0  0  0  0  0
  -30.3750  -11.4978   19.9950 H   0  0  0  0  0  0
  -29.8194  -11.7598   17.5428 H   0  0  0  0  0  0
  -29.6445  -13.4836   17.7602 H   0  0  0  0  0  0
  -27.9164  -11.2860   18.9446 H   0  0  0  0  0  0
  -27.3953  -12.5064   17.8116 H   0  0  0  0  0  0
  -27.6388  -14.2583   19.4721 H   0  0  0  0  0  0
  -28.7131  -12.2086   21.4695 H   0  0  0  0  0  0
  -28.4054  -13.8956   21.7971 H   0  0  0  0  0  0
  -25.2787   -9.5649   22.4752 H   0  0  0  0  0  0
  -24.0011   -7.4634   22.7464 H   0  0  0  0  0  0
  -21.0869   -8.8771   19.8957 H   0  0  0  0  0  0
  -22.3724  -10.9657   19.6153 H   0  0  0  0  0  0
  -21.2010   -7.6148   23.9695 H   0  0  0  0  0  0
  -21.1494   -6.0547   25.9074 H   0  0  0  0  0  0
  -22.0581   -2.7611   23.2862 H   0  0  0  0  0  0
  -22.4169  -11.9865   22.4834 H   0  0  0  0  0  0
  -21.1096  -13.1154   22.2666 H   0  0  0  0  0  0
  -24.6337  -15.8379   20.4558 H   0  0  0  0  0  0
  -26.2543  -15.6185   20.0368 H   0  0  0  0  0  0
  -26.7219  -32.5422   23.1079 H   0  0  0  0  0  0
  -25.0097  -33.9703   25.0408 H   0  0  0  0  0  0
  -22.7260  -31.3005   21.3976 H   0  0  0  0  0  0
  -23.3749  -35.9627   23.3279 H   0  0  0  0  0  0
  -24.3590  -36.8925   22.2048 H   0  0  0  0  0  0
  -23.7248  -37.6495   23.6665 H   0  0  0  0  0  0
  -26.1085  -31.5258   20.6072 H   0  0  0  0  0  0
  -26.8546  -30.8229   22.0099 H   0  0  0  0  0  0
  -28.1078  -28.8947   21.2546 H   0  0  0  0  0  0
  -25.9638  -25.9602   18.9080 H   0  0  0  0  0  0
  -23.9883  -27.3528   18.9360 H   0  0  0  0  0  0
  -23.7594  -30.5886   19.3999 H   0  0  0  0  0  0
  -22.7660  -29.2400   19.8607 H   0  0  0  0  0  0
  -25.1289  -36.1913   25.0811 H   0  0  0  0  0  0
  -21.0008  -28.3279   24.1433 H   0  0  0  0  0  0
  -20.5756  -26.2324   23.3621 H   0  0  0  0  0  0
  -21.6736  -26.7462   22.1248 H   0  0  0  0  0  0
  -19.6998  -25.6351   21.1190 H   0  0  0  0  0  0
  -19.6763  -27.3267   20.6762 H   0  0  0  0  0  0
  -17.4314  -26.6628   21.4005 H   0  0  0  0  0  0
  -18.0406  -26.0062   22.9009 H   0  0  0  0  0  0
  -19.7929  -30.7243   24.2333 H   0  0  0  0  0  0
  -17.4955  -31.6245   24.5146 H   0  0  0  0  0  0
  -15.5356  -30.2922   23.7587 H   0  0  0  0  0  0
  -15.8704  -28.0748   22.7090 H   0  0  0  0  0  0
  -24.5896  -30.7091   25.7767 H   0  0  0  0  0  0
  -24.8919  -32.2930   26.4817 H   0  0  0  0  0  0
  -25.8025  -30.8952   27.0228 H   0  0  0  0  0  0
  -26.2961  -29.6748   24.1187 H   0  0  0  0  0  0
  -27.4000  -29.7233   25.4737 H   0  0  0  0  0  0
  -27.8851  -30.4275   23.9484 H   0  0  0  0  0  0
  -27.2685  -33.3597   26.2085 H   0  0  0  0  0  0
  -28.3888  -32.6861   25.0337 H   0  0  0  0  0  0
  -28.0723  -31.8412   26.5413 H   0  0  0  0  0  0
  -28.2590  -38.0103   24.7494 H   0  0  0  0  0  0
  -28.1074  -36.2631   24.6284 H   0  0  0  0  0  0
  -27.2297  -37.1440   25.8864 H   0  0  0  0  0  0
  -20.9376  -29.8783   21.6907 H   0  0  0  0  0  0
  -26.0168  -38.2841   24.1394 H   0  0  0  0  0  0
  -30.1419  -16.5095   18.2503 H   0  0  0  0  0  0
  -29.5343  -20.7346   18.4105 H   0  0  0  0  0  0
  -26.9873  -24.6290   19.9447 H   0  0  0  0  0  0
  -27.4555  -24.8923   21.5904 H   0  0  0  0  0  0
  -27.9453  -22.2382   21.8559 H   0  0  0  0  0  0
  -29.0915  -15.7153   21.4242 H   0  0  0  0  0  0
  -29.4981  -20.8390   22.0617 H   0  0  0  0  0  0
  1 25  1  0  0  0
  1 30  2  0  0  0
  1 81  1  0  0  0
  2  3  1  0  0  0
  2 25  1  0  0  0
  2 88  1  0  0  0
  2 89  1  0  0  0
  3  4  1  0  0  0
  3 90  1  0  0  0
  3 91  1  0  0  0
  4  5  1  0  0  0
  4 92  1  0  0  0
  4 93  1  0  0  0
  5  6  1  0  0  0
  5 26  1  0  0  0
  5 94  1  0  0  0
  6 25  1  0  0  0
  6 95  1  0  0  0
  6 96  1  0  0  0
  7  8  2  0  0  0
  7 26  1  0  0  0
  7 29  1  0  0  0
  8  9  1  0  0  0
  8 22  1  0  0  0
  9 10  1  0  0  0
  9 27  2  0  0  0
 10 11  2  0  0  0
 10 15  1  0  0  0
 11 12  1  0  0  0
 11 97  1  0  0  0
 12 13  2  0  0  0
 12 98  1  0  0  0
 13 14  1  0  0  0
 13 31  1  0  0  0
 14 15  2  0  0  0
 14 99  1  0  0  0
 15100  1  0  0  0
 16 17  2  0  0  0
 16 21  1  0  0  0
 16 31  1  0  0  0
 17 18  1  0  0  0
 17101  1  0  0  0
 18 19  2  0  0  0
 18102  1  0  0  0
 19 20  1  0  0  0
 19 24  1  0  0  0
 20 21  2  0  0  0
 20103  1  0  0  0
 21 23  1  0  0  0
 22 28  1  0  0  0
 22 32  2  0  0  0
 26 27  1  0  0  0
 28104  1  0  0  0
 28105  1  0  0  0
 29106  1  0  0  0
 29107  1  0  0  0
 33 34  1  0  0  0
 33 66  1  0  0  0
 33 70  2  0  0  0
 34 36  1  0  0  0
 34 59  1  0  0  0
 34108  1  0  0  0
 35 44  2  0  0  0
 35 45  1  0  0  0
 35 68  1  0  0  0
 36 56  1  0  0  0
 36109  1  0  0  0
 37 39  1  0  0  0
 37 47  1  0  0  0
 37 66  1  0  0  0
 37110  1  0  0  0
 38 43  2  0  0  0
 38 46  1  0  0  0
 38 47  1  0  0  0
 39 64  1  0  0  0
 39 67  2  0  0  0
 40 52  1  0  0  0
 40 53  2  0  0  0
 40 58  1  0  0  0
 41111  1  0  0  0
 41112  1  0  0  0
 41113  1  0  0  0
 41 48  1  0  0  0
 42 43  1  0  0  0
 42 66  1  0  0  0
 42114  1  0  0  0
 42115  1  0  0  0
 43 44  1  0  0  0
 44116  1  0  0  0
 45 46  2  0  0  0
 45117  1  0  0  0
 46118  1  0  0  0
 47119  1  0  0  0
 47120  1  0  0  0
 48 56  1  0  0  0
 48 65  1  0  0  0
 48121  1  0  0  0
 49 50  1  0  0  0
 49 53  1  0  0  0
 49 64  1  0  0  0
 49122  1  0  0  0
 50 51  1  0  0  0
 50123  1  0  0  0
 50124  1  0  0  0
 51 52  1  0  0  0
 51125  1  0  0  0
 51126  1  0  0  0
 52127  1  0  0  0
 52128  1  0  0  0
 53 54  1  0  0  0
 54 55  2  0  0  0
 54129  1  0  0  0
 55 57  1  0  0  0
 55130  1  0  0  0
 56 69  2  0  0  0
 57 58  2  0  0  0
 57131  1  0  0  0
 58132  1  0  0  0
 59 60  1  0  0  0
 59 61  1  0  0  0
 59 62  1  0  0  0
 60133  1  0  0  0
 60134  1  0  0  0
 60135  1  0  0  0
 61136  1  0  0  0
 61137  1  0  0  0
 61138  1  0  0  0
 62139  1  0  0  0
 62140  1  0  0  0
 62141  1  0  0  0
 63 65  1  0  0  0
 63142  1  0  0  0
 63143  1  0  0  0
 63144  1  0  0  0
 64145  1  0  0  0
 65146  1  0  0  0
 68 77  1  0  0  0
 71 73  2  0  0  0
 71 74  1  0  0  0
 71147  1  0  0  0
 72 73  1  0  0  0
 72 75  2  0  0  0
 72148  1  0  0  0
 73 84  1  0  0  0
 74 80  2  0  0  0
 74 81  1  0  0  0
 75 80  1  0  0  0
 75 82  1  0  0  0
 76 77  1  0  0  0
 76 78  1  0  0  0
 76 83  2  0  0  0
 77149  1  0  0  0
 77150  1  0  0  0
 78 79  1  0  0  0
 78 82  1  0  0  0
 78151  1  0  0  0
 79 85  1  0  0  0
 79 86  1  0  0  0
 79 87  1  0  0  0
 81152  1  0  0  0
 82153  1  0  0  0
M  ISO  4   1 100  68 101  77 101  81 100
M  END
> <chiral flag>
0

> <version>
0

> <s_m_source_file>
/data/baiqing/PycharmProjects/Reinvent-master-3.2/result/LINK_invent/BTK/process_docking_weight1_custom_product_contain_oxygen_bond_distance_aromatic_linkinvent_7_9_3/rearranged_h_0181.sdf

> <i_m_source_file_index>
64

> <r_mmod_Potential_Energy-OPLS-2005>
-74.2446136474609

> <r_mmod_Stretch_Energy-OPLS-2005>
143.612716674805

> <r_mmod_Bend_Energy-OPLS-2005>
191.628707885742

> <r_mmod_Torsional_Energy-OPLS-2005>
244.211944580078

> <r_mmod_Improper_Torsional_Energy-OPLS-2005>
7.08412742614746

> <r_mmod_Van_der_Waal_Energy-OPLS-2005>
145.104187011719

> <r_mmod_Electrostatic_Energy-OPLS-2005>
-656.648803710938

> <r_mmod_Solvation_Energy-OPLS-2005>
-252.886383056641

> <b_mmod_Minimization_Converged-OPLS-2005>
0

> <r_mmod_RMS_Derivative-OPLS-2005>
3.35728359222412

$$$$
65
                    3D
 Structure written by MMmdl.
159167  0  0  1  0            999 V2000
  -30.5931  -14.7846   20.4269 C   0  0  0  0  0  0
  -30.4307  -12.4712   19.4934 C   0  0  0  0  0  0
  -29.5167  -12.5134   18.2480 C   0  0  0  0  0  0
  -28.0420  -12.3339   18.6556 C   0  0  0  0  0  0
  -27.6408  -13.2377   19.8521 C   0  0  2  0  0  0
  -28.6814  -13.1885   20.9928 C   0  0  0  0  0  0
  -25.2504  -13.8207   20.5696 C   0  0  0  0  0  0
  -24.1802  -13.0441   20.9204 C   0  0  0  0  0  0
  -24.6404  -11.6921   20.8745 C   0  0  0  0  0  0
  -23.9082  -10.4293   21.0403 C   0  0  0  0  0  0
  -24.3630   -9.4208   21.9182 C   0  0  0  0  0  0
  -23.6302   -8.2246   22.0754 C   0  0  0  0  0  0
  -22.4282   -8.0286   21.3544 C   0  0  0  0  0  0
  -21.9920   -9.0261   20.4647 C   0  0  0  0  0  0
  -22.7253  -10.2138   20.3057 C   0  0  0  0  0  0
  -21.6859   -6.0738   22.5277 C   0  0  0  0  0  0
  -21.4017   -6.5639   23.8209 C   0  0  0  0  0  0
  -21.3662   -5.6794   24.9172 C   0  0  0  0  0  0
  -21.6047   -4.3057   24.7224 C   0  0  0  0  0  0
  -21.8821   -3.8148   23.4343 C   0  0  0  0  0  0
  -21.9194   -4.6965   22.3400 C   0  0  0  0  0  0
  -22.7822  -13.5218   21.1861 C   0  0  0  0  0  0
  -22.1660   -4.2151   21.0977 F   0  0  0  0  0  0
  -21.5631   -3.4538   25.7736 F   0  0  0  0  0  0
  -29.9833  -13.5447   20.4167 N   0  0  0  0  0  0
  -26.2932  -12.9425   20.3277 N   0  0  0  0  0  0
  -25.9337  -11.6562   20.5754 N   0  0  0  0  0  0
  -22.0472  -12.8208   22.0418 N   0  0  0  0  0  0
  -25.4192  -15.1934   20.4123 N   0  0  0  0  0  0
  -31.7815  -14.8589   20.0937 O   0  0  0  0  0  0
  -21.6647   -6.8882   21.4240 O   0  0  0  0  0  0
  -22.3504  -14.5522   20.6709 O   0  0  0  0  0  0
  -24.6327  -31.8513   23.1939 C   0  0  0  0  0  0
  -25.9143  -32.4731   23.8297 C   0  0  1  0  0  0
  -27.2265  -27.2376   20.1310 C   0  0  0  0  0  0
  -25.5931  -33.8536   24.2220 N   0  0  0  0  0  0
  -23.4313  -30.4704   21.5372 C   0  0  2  0  0  0
  -24.8797  -28.9091   20.1062 C   0  0  0  0  0  0
  -22.7510  -29.4573   22.4898 C   0  0  0  0  0  0
  -18.0291  -28.1384   22.8486 C   0  0  0  0  0  0
  -24.1490  -36.7275   23.2641 C   0  0  0  0  0  0
  -25.9769  -30.7559   21.3769 C   0  0  0  0  0  0
  -26.0483  -29.3754   20.7192 C   0  0  0  0  0  0
  -27.2188  -28.5500   20.7221 C   0  0  0  0  0  0
  -26.0333  -26.8374   19.4912 C   0  0  0  0  0  0
  -24.8787  -27.6502   19.4817 C   0  0  0  0  0  0
  -23.6505  -29.7985   20.1543 C   0  0  0  0  0  0
  -25.4120  -36.3056   24.0319 C   0  0  1  0  0  0
  -20.5895  -28.3693   23.1268 C   0  0  2  0  0  0
  -20.6776  -26.9409   22.5411 C   0  0  0  0  0  0
  -19.5752  -26.6378   21.5213 C   0  0  0  0  0  0
  -18.1933  -26.7925   22.1626 C   0  0  0  0  0  0
  -19.1545  -28.8858   23.2870 C   0  0  0  0  0  0
  -18.9466  -30.1459   23.8886 C   0  0  0  0  0  0
  -17.6465  -30.6587   24.0559 C   0  0  0  0  0  0
  -25.9062  -34.9429   23.5076 C   0  0  0  0  0  0
  -16.5356  -29.9082   23.6332 C   0  0  0  0  0  0
  -16.7277  -28.6500   23.0354 C   0  0  0  0  0  0
  -26.4503  -31.6575   25.0707 C   0  0  0  0  0  0
  -25.3720  -31.3743   26.1426 C   0  0  0  0  0  0
  -27.0353  -30.2984   24.6224 C   0  0  0  0  0  0
  -27.6044  -32.4331   25.7489 C   0  0  0  0  0  0
  -27.5577  -37.1794   24.8465 C   0  0  0  0  0  0
  -21.4214  -29.3033   22.3651 N   0  0  0  0  0  0
  -26.4291  -37.3760   23.9406 N   0  0  0  0  0  0
  -24.6993  -31.0455   22.0920 N   0  0  0  0  0  0
  -23.4199  -28.8128   23.3018 O   0  0  0  0  0  0
  -28.3366  -26.3628   20.2400 O   0  0  0  0  0  0
  -26.5644  -34.8913   22.4651 O   0  0  0  0  0  0
  -23.5474  -32.1343   23.7226 O   0  0  0  0  0  0
  -30.2711  -17.2804   18.6548 C   0  0  0  0  0  0
  -30.1009  -18.4061   17.8271 C   0  0  0  0  0  0
  -29.5019  -19.5945   18.3329 C   0  0  0  0  0  0
  -29.8479  -17.2750   19.9943 C   0  0  0  0  0  0
  -29.2543  -19.6761   19.7379 C   0  0  0  0  0  0
  -28.3128  -23.6445   20.4563 C   0  0  0  0  0  0
  -30.5305  -18.2588   16.3722 C   0  0  0  0  0  0
  -30.5219  -22.5915   19.4254 C   0  0  0  0  0  0
  -28.4641  -25.0020   19.5877 C   0  0  0  0  0  0
  -29.3122  -22.3349   20.3443 C   0  0  2  0  0  0
  -29.0577  -20.6631   17.3103 C   0  0  0  0  0  0
  -29.3750  -18.5000   20.5018 N   0  0  0  0  0  0
  -29.8325  -15.9357   20.6632 N   0  0  0  0  0  0
  -28.7610  -20.8961   20.3697 N   0  0  0  0  0  0
  -27.3776  -23.5985   21.2599 O   0  0  0  0  0  0
  -28.3665  -20.0717   16.3356 F   0  0  0  0  0  0
  -28.2451  -21.6066   17.7819 F   0  0  0  0  0  0
  -30.1189  -21.2485   16.7555 F   0  0  0  0  0  0
  -31.4740  -12.5864   19.1954 H   0  0  0  0  0  0
  -30.3692  -11.4983   19.9836 H   0  0  0  0  0  0
  -29.8062  -11.7356   17.5402 H   0  0  0  0  0  0
  -29.6429  -13.4645   17.7282 H   0  0  0  0  0  0
  -27.9020  -11.2856   18.9221 H   0  0  0  0  0  0
  -27.3880  -12.5205   17.8032 H   0  0  0  0  0  0
  -27.6304  -14.2570   19.4654 H   0  0  0  0  0  0
  -28.7202  -12.1957   21.4437 H   0  0  0  0  0  0
  -28.4087  -13.8766   21.7942 H   0  0  0  0  0  0
  -25.2776   -9.5685   22.4757 H   0  0  0  0  0  0
  -24.0011   -7.4641   22.7478 H   0  0  0  0  0  0
  -21.0851   -8.8783   19.8953 H   0  0  0  0  0  0
  -22.3714  -10.9678   19.6167 H   0  0  0  0  0  0
  -21.2007   -7.6147   23.9713 H   0  0  0  0  0  0
  -21.1483   -6.0523   25.9076 H   0  0  0  0  0  0
  -22.0597   -2.7610   23.2844 H   0  0  0  0  0  0
  -22.4098  -11.9872   22.4808 H   0  0  0  0  0  0
  -21.1090  -13.1232   22.2624 H   0  0  0  0  0  0
  -24.6506  -15.8455   20.5237 H   0  0  0  0  0  0
  -26.2642  -15.6347   20.0727 H   0  0  0  0  0  0
  -26.7209  -32.5366   23.1033 H   0  0  0  0  0  0
  -25.0067  -33.9666   25.0360 H   0  0  0  0  0  0
  -22.7292  -31.2929   21.3873 H   0  0  0  0  0  0
  -23.3754  -35.9605   23.3298 H   0  0  0  0  0  0
  -24.3575  -36.8908   22.2056 H   0  0  0  0  0  0
  -23.7243  -37.6472   23.6676 H   0  0  0  0  0  0
  -26.1206  -31.5153   20.6072 H   0  0  0  0  0  0
  -26.8526  -30.8041   22.0125 H   0  0  0  0  0  0
  -28.1123  -28.9000   21.2199 H   0  0  0  0  0  0
  -25.9553  -25.8657   19.0283 H   0  0  0  0  0  0
  -23.9806  -27.2860   19.0017 H   0  0  0  0  0  0
  -23.7755  -30.5722   19.3960 H   0  0  0  0  0  0
  -22.7687  -29.2314   19.8509 H   0  0  0  0  0  0
  -25.1306  -36.1893   25.0812 H   0  0  0  0  0  0
  -20.9986  -28.3272   24.1389 H   0  0  0  0  0  0
  -20.5672  -26.2302   23.3616 H   0  0  0  0  0  0
  -21.6644  -26.7426   22.1204 H   0  0  0  0  0  0
  -19.6913  -25.6286   21.1249 H   0  0  0  0  0  0
  -19.6692  -27.3184   20.6739 H   0  0  0  0  0  0
  -17.4200  -26.6669   21.4030 H   0  0  0  0  0  0
  -18.0335  -26.0067   22.9023 H   0  0  0  0  0  0
  -19.7942  -30.7280   24.2246 H   0  0  0  0  0  0
  -17.5019  -31.6267   24.5159 H   0  0  0  0  0  0
  -15.5356  -30.2981   23.7663 H   0  0  0  0  0  0
  -15.8676  -28.0817   22.7075 H   0  0  0  0  0  0
  -24.5894  -30.7090   25.7760 H   0  0  0  0  0  0
  -24.8915  -32.2919   26.4830 H   0  0  0  0  0  0
  -25.8033  -30.8936   27.0216 H   0  0  0  0  0  0
  -26.2940  -29.6727   24.1237 H   0  0  0  0  0  0
  -27.4002  -29.7258   25.4762 H   0  0  0  0  0  0
  -27.8833  -30.4242   23.9489 H   0  0  0  0  0  0
  -27.2635  -33.3640   26.2035 H   0  0  0  0  0  0
  -28.3872  -32.6879   25.0333 H   0  0  0  0  0  0
  -28.0689  -31.8479   26.5435 H   0  0  0  0  0  0
  -28.2591  -38.0093   24.7508 H   0  0  0  0  0  0
  -28.1076  -36.2622   24.6297 H   0  0  0  0  0  0
  -27.2293  -37.1447   25.8868 H   0  0  0  0  0  0
  -20.9404  -29.8750   21.6848 H   0  0  0  0  0  0
  -26.0164  -38.2831   24.1408 H   0  0  0  0  0  0
  -30.6644  -16.3775   18.2082 H   0  0  0  0  0  0
  -31.2227  -17.4255   16.2492 H   0  0  0  0  0  0
  -31.0488  -19.1446   16.0081 H   0  0  0  0  0  0
  -29.6728  -18.0624   15.7290 H   0  0  0  0  0  0
  -31.1290  -23.4044   19.8260 H   0  0  0  0  0  0
  -30.2320  -22.9040   18.4256 H   0  0  0  0  0  0
  -31.1792  -21.7251   19.3533 H   0  0  0  0  0  0
  -27.7931  -24.9305   18.7335 H   0  0  0  0  0  0
  -29.4606  -24.9869   19.1504 H   0  0  0  0  0  0
  -29.7878  -22.3344   21.3257 H   0  0  0  0  0  0
  -28.9977  -15.7648   21.2002 H   0  0  0  0  0  0
  -28.2997  -20.7143   21.2545 H   0  0  0  0  0  0
  1 25  1  0  0  0
  1 30  2  0  0  0
  1 83  1  0  0  0
  2  3  1  0  0  0
  2 25  1  0  0  0
  2 89  1  0  0  0
  2 90  1  0  0  0
  3  4  1  0  0  0
  3 91  1  0  0  0
  3 92  1  0  0  0
  4  5  1  0  0  0
  4 93  1  0  0  0
  4 94  1  0  0  0
  5  6  1  0  0  0
  5 26  1  0  0  0
  5 95  1  0  0  0
  6 25  1  0  0  0
  6 96  1  0  0  0
  6 97  1  0  0  0
  7  8  2  0  0  0
  7 26  1  0  0  0
  7 29  1  0  0  0
  8  9  1  0  0  0
  8 22  1  0  0  0
  9 10  1  0  0  0
  9 27  2  0  0  0
 10 11  2  0  0  0
 10 15  1  0  0  0
 11 12  1  0  0  0
 11 98  1  0  0  0
 12 13  2  0  0  0
 12 99  1  0  0  0
 13 14  1  0  0  0
 13 31  1  0  0  0
 14 15  2  0  0  0
 14100  1  0  0  0
 15101  1  0  0  0
 16 17  2  0  0  0
 16 21  1  0  0  0
 16 31  1  0  0  0
 17 18  1  0  0  0
 17102  1  0  0  0
 18 19  2  0  0  0
 18103  1  0  0  0
 19 20  1  0  0  0
 19 24  1  0  0  0
 20 21  2  0  0  0
 20104  1  0  0  0
 21 23  1  0  0  0
 22 28  1  0  0  0
 22 32  2  0  0  0
 26 27  1  0  0  0
 28105  1  0  0  0
 28106  1  0  0  0
 29107  1  0  0  0
 29108  1  0  0  0
 33 34  1  0  0  0
 33 66  1  0  0  0
 33 70  2  0  0  0
 34 36  1  0  0  0
 34 59  1  0  0  0
 34109  1  0  0  0
 35 44  2  0  0  0
 35 45  1  0  0  0
 35 68  1  0  0  0
 36 56  1  0  0  0
 36110  1  0  0  0
 37 39  1  0  0  0
 37 47  1  0  0  0
 37 66  1  0  0  0
 37111  1  0  0  0
 38 43  2  0  0  0
 38 46  1  0  0  0
 38 47  1  0  0  0
 39 64  1  0  0  0
 39 67  2  0  0  0
 40 52  1  0  0  0
 40 53  2  0  0  0
 40 58  1  0  0  0
 41112  1  0  0  0
 41113  1  0  0  0
 41114  1  0  0  0
 41 48  1  0  0  0
 42 43  1  0  0  0
 42 66  1  0  0  0
 42115  1  0  0  0
 42116  1  0  0  0
 43 44  1  0  0  0
 44117  1  0  0  0
 45 46  2  0  0  0
 45118  1  0  0  0
 46119  1  0  0  0
 47120  1  0  0  0
 47121  1  0  0  0
 48 56  1  0  0  0
 48 65  1  0  0  0
 48122  1  0  0  0
 49 50  1  0  0  0
 49 53  1  0  0  0
 49 64  1  0  0  0
 49123  1  0  0  0
 50 51  1  0  0  0
 50124  1  0  0  0
 50125  1  0  0  0
 51 52  1  0  0  0
 51126  1  0  0  0
 51127  1  0  0  0
 52128  1  0  0  0
 52129  1  0  0  0
 53 54  1  0  0  0
 54 55  2  0  0  0
 54130  1  0  0  0
 55 57  1  0  0  0
 55131  1  0  0  0
 56 69  2  0  0  0
 57 58  2  0  0  0
 57132  1  0  0  0
 58133  1  0  0  0
 59 60  1  0  0  0
 59 61  1  0  0  0
 59 62  1  0  0  0
 60134  1  0  0  0
 60135  1  0  0  0
 60136  1  0  0  0
 61137  1  0  0  0
 61138  1  0  0  0
 61139  1  0  0  0
 62140  1  0  0  0
 62141  1  0  0  0
 62142  1  0  0  0
 63 65  1  0  0  0
 63143  1  0  0  0
 63144  1  0  0  0
 63145  1  0  0  0
 64146  1  0  0  0
 65147  1  0  0  0
 68 79  1  0  0  0
 71 72  2  0  0  0
 71 74  1  0  0  0
 71148  1  0  0  0
 72 73  1  0  0  0
 72 77  1  0  0  0
 73 75  2  0  0  0
 73 81  1  0  0  0
 74 82  2  0  0  0
 74 83  1  0  0  0
 75 82  1  0  0  0
 75 84  1  0  0  0
 76 79  1  0  0  0
 76 80  1  0  0  0
 76 85  2  0  0  0
 77149  1  0  0  0
 77150  1  0  0  0
 77151  1  0  0  0
 78152  1  0  0  0
 78153  1  0  0  0
 78154  1  0  0  0
 78 80  1  0  0  0
 79155  1  0  0  0
 79156  1  0  0  0
 80 84  1  0  0  0
 80157  1  0  0  0
 81 86  1  0  0  0
 81 87  1  0  0  0
 81 88  1  0  0  0
 83158  1  0  0  0
 84159  1  0  0  0
M  ISO  4   1 100  68 101  79 101  83 100
M  END
> <chiral flag>
0

> <version>
0

> <s_m_source_file>
/data/baiqing/PycharmProjects/Reinvent-master-3.2/result/LINK_invent/BTK/process_docking_weight1_custom_product_contain_oxygen_bond_distance_aromatic_linkinvent_7_9_3/rearranged_h_0181.sdf

> <i_m_source_file_index>
65

> <r_mmod_Potential_Energy-OPLS-2005>
237.28547668457

> <r_mmod_Stretch_Energy-OPLS-2005>
158.939163208008

> <r_mmod_Bend_Energy-OPLS-2005>
230.843780517578

> <r_mmod_Torsional_Energy-OPLS-2005>
263.334106445312

> <r_mmod_Improper_Torsional_Energy-OPLS-2005>
7.82047653198242

> <r_mmod_Van_der_Waal_Energy-OPLS-2005>
148.72575378418

> <r_mmod_Electrostatic_Energy-OPLS-2005>
-435.878356933594

> <r_mmod_Solvation_Energy-OPLS-2005>
-237.291809082031

> <b_mmod_Minimization_Converged-OPLS-2005>
0

> <r_mmod_RMS_Derivative-OPLS-2005>
0.540703952312469

$$$$
66
                    3D
 Structure written by MMmdl.
153161  0  0  1  0            999 V2000
  -30.6736  -14.4864   20.5089 C   0  0  0  0  0  0
  -30.4199  -12.2919   19.4397 C   0  0  0  0  0  0
  -29.4972  -12.4811   18.2159 C   0  0  0  0  0  0
  -28.0152  -12.3581   18.6222 C   0  0  0  0  0  0
  -27.6591  -13.2056   19.8731 C   0  0  2  0  0  0
  -28.6982  -13.0033   20.9995 C   0  0  0  0  0  0
  -25.2583  -13.8164   20.5688 C   0  0  0  0  0  0
  -24.1837  -13.0440   20.9181 C   0  0  0  0  0  0
  -24.6387  -11.6908   20.8743 C   0  0  0  0  0  0
  -23.9053  -10.4294   21.0413 C   0  0  0  0  0  0
  -24.3610   -9.4210   21.9189 C   0  0  0  0  0  0
  -23.6289   -8.2242   22.0759 C   0  0  0  0  0  0
  -22.4275   -8.0277   21.3543 C   0  0  0  0  0  0
  -21.9908   -9.0249   20.4642 C   0  0  0  0  0  0
  -22.7230  -10.2133   20.3054 C   0  0  0  0  0  0
  -21.6854   -6.0736   22.5283 C   0  0  0  0  0  0
  -21.4015   -6.5643   23.8217 C   0  0  0  0  0  0
  -21.3664   -5.6793   24.9179 C   0  0  0  0  0  0
  -21.6044   -4.3055   24.7225 C   0  0  0  0  0  0
  -21.8815   -3.8146   23.4348 C   0  0  0  0  0  0
  -21.9192   -4.6964   22.3402 C   0  0  0  0  0  0
  -22.7865  -13.5242   21.1849 C   0  0  0  0  0  0
  -22.1661   -4.2148   21.0980 F   0  0  0  0  0  0
  -21.5629   -3.4543   25.7743 F   0  0  0  0  0  0
  -30.0297  -13.2911   20.4456 N   0  0  0  0  0  0
  -26.3010  -12.9329   20.3361 N   0  0  0  0  0  0
  -25.9310  -11.6494   20.5770 N   0  0  0  0  0  0
  -22.0499  -12.8221   22.0397 N   0  0  0  0  0  0
  -25.4288  -15.1886   20.4120 N   0  0  0  0  0  0
  -31.8417  -14.6399   20.1414 O   0  0  0  0  0  0
  -21.6636   -6.8877   21.4242 O   0  0  0  0  0  0
  -22.3553  -14.5550   20.6709 O   0  0  0  0  0  0
  -24.6144  -31.8678   23.2105 C   0  0  0  0  0  0
  -25.9037  -32.4820   23.8398 C   0  0  1  0  0  0
  -27.2288  -27.4358   20.1013 C   0  0  0  0  0  0
  -25.5892  -33.8618   24.2330 N   0  0  0  0  0  0
  -23.4021  -30.4895   21.5530 C   0  0  2  0  0  0
  -24.8468  -28.9528   20.1205 C   0  0  0  0  0  0
  -22.7402  -29.4655   22.5025 C   0  0  0  0  0  0
  -18.0267  -28.1367   22.8501 C   0  0  0  0  0  0
  -24.1483  -36.7310   23.2644 C   0  0  0  0  0  0
  -25.9303  -30.8338   21.3630 C   0  0  0  0  0  0
  -26.0081  -29.4682   20.7106 C   0  0  0  0  0  0
  -27.2058  -28.7182   20.6943 C   0  0  0  0  0  0
  -26.0521  -26.9292   19.5116 C   0  0  0  0  0  0
  -24.8626  -27.6820   19.5192 C   0  0  0  0  0  0
  -23.6090  -29.8189   20.1692 C   0  0  0  0  0  0
  -25.4107  -36.3112   24.0339 C   0  0  1  0  0  0
  -20.5858  -28.3648   23.1330 C   0  0  2  0  0  0
  -20.6759  -26.9390   22.5418 C   0  0  0  0  0  0
  -19.5739  -26.6381   21.5213 C   0  0  0  0  0  0
  -18.1914  -26.7918   22.1624 C   0  0  0  0  0  0
  -19.1517  -28.8824   23.2909 C   0  0  0  0  0  0
  -18.9450  -30.1438   23.8903 C   0  0  0  0  0  0
  -17.6455  -30.6580   24.0558 C   0  0  0  0  0  0
  -25.9032  -34.9475   23.5135 C   0  0  0  0  0  0
  -16.5341  -29.9076   23.6337 C   0  0  0  0  0  0
  -16.7259  -28.6492   23.0360 C   0  0  0  0  0  0
  -26.4475  -31.6595   25.0722 C   0  0  0  0  0  0
  -25.3745  -31.3676   26.1467 C   0  0  0  0  0  0
  -27.0325  -30.3049   24.6092 C   0  0  0  0  0  0
  -27.6055  -32.4314   25.7479 C   0  0  0  0  0  0
  -27.5583  -37.1805   24.8468 C   0  0  0  0  0  0
  -21.4138  -29.3013   22.3742 N   0  0  0  0  0  0
  -26.4296  -37.3794   23.9413 N   0  0  0  0  0  0
  -24.6673  -31.0775   22.1009 N   0  0  0  0  0  0
  -23.4173  -28.8208   23.3080 O   0  0  0  0  0  0
  -28.3866  -26.6938   20.0824 O   0  0  0  0  0  0
  -26.5598  -34.8926   22.4698 O   0  0  0  0  0  0
  -23.5338  -32.1432   23.7499 O   0  0  0  0  0  0
  -29.5215  -17.9893   20.8747 C   0  0  0  0  0  0
  -29.9020  -19.3609   18.8983 C   0  0  0  0  0  0
  -29.5012  -19.2705   20.2516 C   0  0  0  0  0  0
  -29.9161  -16.8236   20.1627 C   0  0  0  0  0  0
  -30.2549  -18.2143   18.1705 C   0  0  0  0  0  0
  -30.2485  -16.9502   18.7868 C   0  0  0  0  0  0
  -28.7858  -22.9551   20.7505 C   0  0  0  0  0  0
  -29.0755  -20.5022   21.0137 C   0  0  0  0  0  0
  -28.5629  -21.7015   20.2730 C   0  0  0  0  0  0
  -28.3453  -24.2081   20.0821 C   0  0  0  0  0  0
  -28.3565  -25.5133   20.9058 C   0  0  0  0  0  0
  -29.8939  -15.5455   20.8183 N   0  0  0  0  0  0
  -29.1542  -20.5209   22.2455 O   0  0  0  0  0  0
  -27.9688  -24.2315   18.9040 O   0  0  0  0  0  0
  -27.8724  -21.4780   19.1394 O   0  0  0  0  0  0
  -30.5925  -18.3274   16.8634 F   0  0  0  0  0  0
  -30.5318  -15.8669   18.0236 F   0  0  0  0  0  0
  -31.4661  -12.3852   19.1435 H   0  0  0  0  0  0
  -30.3123  -11.2866   19.8509 H   0  0  0  0  0  0
  -29.7345  -11.7404   17.4511 H   0  0  0  0  0  0
  -29.6731  -13.4565   17.7605 H   0  0  0  0  0  0
  -27.8151  -11.3051   18.8207 H   0  0  0  0  0  0
  -27.3708  -12.6334   17.7866 H   0  0  0  0  0  0
  -27.6967  -14.2496   19.5630 H   0  0  0  0  0  0
  -28.6686  -11.9774   21.3685 H   0  0  0  0  0  0
  -28.4694  -13.6325   21.8613 H   0  0  0  0  0  0
  -25.2755   -9.5695   22.4762 H   0  0  0  0  0  0
  -24.0002   -7.4638   22.7480 H   0  0  0  0  0  0
  -21.0842   -8.8760   19.8943 H   0  0  0  0  0  0
  -22.3684  -10.9672   19.6164 H   0  0  0  0  0  0
  -21.2006   -7.6150   23.9719 H   0  0  0  0  0  0
  -21.1499   -6.0528   25.9082 H   0  0  0  0  0  0
  -22.0589   -2.7608   23.2852 H   0  0  0  0  0  0
  -22.4112  -11.9874   22.4778 H   0  0  0  0  0  0
  -21.1114  -13.1248   22.2591 H   0  0  0  0  0  0
  -24.6599  -15.8407   20.5228 H   0  0  0  0  0  0
  -26.2782  -15.6325   20.0874 H   0  0  0  0  0  0
  -26.7108  -32.5536   23.1163 H   0  0  0  0  0  0
  -25.0029  -33.9782   25.0467 H   0  0  0  0  0  0
  -22.6917  -31.3062   21.4128 H   0  0  0  0  0  0
  -23.3744  -35.9644   23.3312 H   0  0  0  0  0  0
  -24.3575  -36.8920   22.2056 H   0  0  0  0  0  0
  -23.7229  -37.6516   23.6650 H   0  0  0  0  0  0
  -26.0439  -31.6005   20.5954 H   0  0  0  0  0  0
  -26.8184  -30.8854   21.9812 H   0  0  0  0  0  0
  -28.1062  -29.1126   21.1442 H   0  0  0  0  0  0
  -26.0504  -25.9556   19.0433 H   0  0  0  0  0  0
  -23.9677  -27.2771   19.0665 H   0  0  0  0  0  0
  -23.7149  -30.5912   19.4067 H   0  0  0  0  0  0
  -22.7333  -29.2362   19.8777 H   0  0  0  0  0  0
  -25.1282  -36.1982   25.0829 H   0  0  0  0  0  0
  -20.9942  -28.3200   24.1456 H   0  0  0  0  0  0
  -20.5670  -26.2247   23.3593 H   0  0  0  0  0  0
  -21.6629  -26.7436   22.1207 H   0  0  0  0  0  0
  -19.6901  -25.6299   21.1225 H   0  0  0  0  0  0
  -19.6681  -27.3204   20.6750 H   0  0  0  0  0  0
  -17.4188  -26.6676   21.4016 H   0  0  0  0  0  0
  -18.0306  -26.0044   22.9002 H   0  0  0  0  0  0
  -19.7927  -30.7253   24.2267 H   0  0  0  0  0  0
  -17.5010  -31.6267   24.5145 H   0  0  0  0  0  0
  -15.5342  -30.2978   23.7661 H   0  0  0  0  0  0
  -15.8658  -28.0809   22.7080 H   0  0  0  0  0  0
  -24.5919  -30.7028   25.7789 H   0  0  0  0  0  0
  -24.8929  -32.2816   26.4951 H   0  0  0  0  0  0
  -25.8101  -30.8814   27.0203 H   0  0  0  0  0  0
  -26.2869  -29.6780   24.1184 H   0  0  0  0  0  0
  -27.4155  -29.7312   25.4543 H   0  0  0  0  0  0
  -27.8672  -30.4391   23.9208 H   0  0  0  0  0  0
  -27.2688  -33.3607   26.2085 H   0  0  0  0  0  0
  -28.3845  -32.6880   25.0286 H   0  0  0  0  0  0
  -28.0743  -31.8414   26.5367 H   0  0  0  0  0  0
  -28.2603  -38.0103   24.7528 H   0  0  0  0  0  0
  -28.1078  -36.2634   24.6280 H   0  0  0  0  0  0
  -27.2298  -37.1437   25.8871 H   0  0  0  0  0  0
  -20.9297  -29.8716   21.6949 H   0  0  0  0  0  0
  -26.0187  -38.2875   24.1415 H   0  0  0  0  0  0
  -29.2282  -17.9011   21.9122 H   0  0  0  0  0  0
  -29.9361  -20.3119   18.3886 H   0  0  0  0  0  0
  -29.3276  -23.0808   21.6777 H   0  0  0  0  0  0
  -29.2392  -25.5202   21.5449 H   0  0  0  0  0  0
  -27.4877  -25.5197   21.5666 H   0  0  0  0  0  0
  -29.0584  -15.3360   21.3420 H   0  0  0  0  0  0
  -27.6579  -22.3306   18.7743 H   0  0  0  0  0  0
  1 25  1  0  0  0
  1 30  2  0  0  0
  1 82  1  0  0  0
  2  3  1  0  0  0
  2 25  1  0  0  0
  2 88  1  0  0  0
  2 89  1  0  0  0
  3  4  1  0  0  0
  3 90  1  0  0  0
  3 91  1  0  0  0
  4  5  1  0  0  0
  4 92  1  0  0  0
  4 93  1  0  0  0
  5  6  1  0  0  0
  5 26  1  0  0  0
  5 94  1  0  0  0
  6 25  1  0  0  0
  6 95  1  0  0  0
  6 96  1  0  0  0
  7  8  2  0  0  0
  7 26  1  0  0  0
  7 29  1  0  0  0
  8  9  1  0  0  0
  8 22  1  0  0  0
  9 10  1  0  0  0
  9 27  2  0  0  0
 10 11  2  0  0  0
 10 15  1  0  0  0
 11 12  1  0  0  0
 11 97  1  0  0  0
 12 13  2  0  0  0
 12 98  1  0  0  0
 13 14  1  0  0  0
 13 31  1  0  0  0
 14 15  2  0  0  0
 14 99  1  0  0  0
 15100  1  0  0  0
 16 17  2  0  0  0
 16 21  1  0  0  0
 16 31  1  0  0  0
 17 18  1  0  0  0
 17101  1  0  0  0
 18 19  2  0  0  0
 18102  1  0  0  0
 19 20  1  0  0  0
 19 24  1  0  0  0
 20 21  2  0  0  0
 20103  1  0  0  0
 21 23  1  0  0  0
 22 28  1  0  0  0
 22 32  2  0  0  0
 26 27  1  0  0  0
 28104  1  0  0  0
 28105  1  0  0  0
 29106  1  0  0  0
 29107  1  0  0  0
 33 34  1  0  0  0
 33 66  1  0  0  0
 33 70  2  0  0  0
 34 36  1  0  0  0
 34 59  1  0  0  0
 34108  1  0  0  0
 35 44  2  0  0  0
 35 45  1  0  0  0
 35 68  1  0  0  0
 36 56  1  0  0  0
 36109  1  0  0  0
 37 39  1  0  0  0
 37 47  1  0  0  0
 37 66  1  0  0  0
 37110  1  0  0  0
 38 43  2  0  0  0
 38 46  1  0  0  0
 38 47  1  0  0  0
 39 64  1  0  0  0
 39 67  2  0  0  0
 40 52  1  0  0  0
 40 53  2  0  0  0
 40 58  1  0  0  0
 41111  1  0  0  0
 41112  1  0  0  0
 41113  1  0  0  0
 41 48  1  0  0  0
 42 43  1  0  0  0
 42 66  1  0  0  0
 42114  1  0  0  0
 42115  1  0  0  0
 43 44  1  0  0  0
 44116  1  0  0  0
 45 46  2  0  0  0
 45117  1  0  0  0
 46118  1  0  0  0
 47119  1  0  0  0
 47120  1  0  0  0
 48 56  1  0  0  0
 48 65  1  0  0  0
 48121  1  0  0  0
 49 50  1  0  0  0
 49 53  1  0  0  0
 49 64  1  0  0  0
 49122  1  0  0  0
 50 51  1  0  0  0
 50123  1  0  0  0
 50124  1  0  0  0
 51 52  1  0  0  0
 51125  1  0  0  0
 51126  1  0  0  0
 52127  1  0  0  0
 52128  1  0  0  0
 53 54  1  0  0  0
 54 55  2  0  0  0
 54129  1  0  0  0
 55 57  1  0  0  0
 55130  1  0  0  0
 56 69  2  0  0  0
 57 58  2  0  0  0
 57131  1  0  0  0
 58132  1  0  0  0
 59 60  1  0  0  0
 59 61  1  0  0  0
 59 62  1  0  0  0
 60133  1  0  0  0
 60134  1  0  0  0
 60135  1  0  0  0
 61136  1  0  0  0
 61137  1  0  0  0
 61138  1  0  0  0
 62139  1  0  0  0
 62140  1  0  0  0
 62141  1  0  0  0
 63 65  1  0  0  0
 63142  1  0  0  0
 63143  1  0  0  0
 63144  1  0  0  0
 64145  1  0  0  0
 65146  1  0  0  0
 68 81  1  0  0  0
 71 73  2  0  0  0
 71 74  1  0  0  0
 71147  1  0  0  0
 72 73  1  0  0  0
 72 75  2  0  0  0
 72148  1  0  0  0
 73 78  1  0  0  0
 74 76  2  0  0  0
 74 82  1  0  0  0
 75 76  1  0  0  0
 75 86  1  0  0  0
 76 87  1  0  0  0
 77 79  2  0  0  0
 77 80  1  0  0  0
 77149  1  0  0  0
 78 79  1  0  0  0
 78 83  2  0  0  0
 79 85  1  0  0  0
 80 81  1  0  0  0
 80 84  2  0  0  0
 81150  1  0  0  0
 81151  1  0  0  0
 82152  1  0  0  0
 85153  1  0  0  0
M  ISO  4   1 100  68 101  81 101  82 100
M  END
> <chiral flag>
0

> <version>
0

> <s_m_source_file>
/data/baiqing/PycharmProjects/Reinvent-master-3.2/result/LINK_invent/BTK/process_docking_weight1_custom_product_contain_oxygen_bond_distance_aromatic_linkinvent_7_9_3/rearranged_h_0181.sdf

> <i_m_source_file_index>
66

> <r_mmod_Potential_Energy-OPLS-2005>
-20.18381690979

> <r_mmod_Stretch_Energy-OPLS-2005>
42.3365516662598

> <r_mmod_Bend_Energy-OPLS-2005>
91.0399780273438

> <r_mmod_Torsional_Energy-OPLS-2005>
258.982971191406

> <r_mmod_Improper_Torsional_Energy-OPLS-2005>
5.5435676574707

> <r_mmod_Van_der_Waal_Energy-OPLS-2005>
166.287475585938

> <r_mmod_Electrostatic_Energy-OPLS-2005>
-373.338562011719

> <r_mmod_Solvation_Energy-OPLS-2005>
-226.576202392578

> <b_mmod_Minimization_Converged-OPLS-2005>
0

> <r_mmod_RMS_Derivative-OPLS-2005>
1.26155030727386

$$$$
67
                    3D
 Structure written by MMmdl.
156164  0  0  1  0            999 V2000
  -30.6984  -14.4657   20.5787 C   0  0  0  0  0  0
  -30.4256  -12.2977   19.4395 C   0  0  0  0  0  0
  -29.5045  -12.5016   18.2180 C   0  0  0  0  0  0
  -28.0217  -12.3659   18.6198 C   0  0  0  0  0  0
  -27.6639  -13.2015   19.8770 C   0  0  2  0  0  0
  -28.7002  -12.9831   21.0042 C   0  0  0  0  0  0
  -25.2603  -13.8153   20.5657 C   0  0  0  0  0  0
  -24.1843  -13.0444   20.9158 C   0  0  0  0  0  0
  -24.6387  -11.6908   20.8724 C   0  0  0  0  0  0
  -23.9051  -10.4302   21.0410 C   0  0  0  0  0  0
  -24.3611   -9.4215   21.9184 C   0  0  0  0  0  0
  -23.6294   -8.2246   22.0750 C   0  0  0  0  0  0
  -22.4274   -8.0287   21.3541 C   0  0  0  0  0  0
  -21.9907   -9.0258   20.4639 C   0  0  0  0  0  0
  -22.7232  -10.2139   20.3054 C   0  0  0  0  0  0
  -21.6848   -6.0737   22.5281 C   0  0  0  0  0  0
  -21.4010   -6.5638   23.8215 C   0  0  0  0  0  0
  -21.3657   -5.6788   24.9176 C   0  0  0  0  0  0
  -21.6049   -4.3052   24.7220 C   0  0  0  0  0  0
  -21.8820   -3.8145   23.4338 C   0  0  0  0  0  0
  -21.9188   -4.6965   22.3396 C   0  0  0  0  0  0
  -22.7870  -13.5258   21.1819 C   0  0  0  0  0  0
  -22.1663   -4.2152   21.0971 F   0  0  0  0  0  0
  -21.5630   -3.4533   25.7732 F   0  0  0  0  0  0
  -30.0390  -13.2799   20.4642 N   0  0  0  0  0  0
  -26.3029  -12.9306   20.3346 N   0  0  0  0  0  0
  -25.9308  -11.6470   20.5744 N   0  0  0  0  0  0
  -22.0489  -12.8268   22.0374 N   0  0  0  0  0  0
  -25.4359  -15.1875   20.4075 N   0  0  0  0  0  0
  -31.8032  -14.6722   20.0668 O   0  0  0  0  0  0
  -21.6635   -6.8887   21.4246 O   0  0  0  0  0  0
  -22.3565  -14.5565   20.6664 O   0  0  0  0  0  0
  -24.6116  -31.8691   23.2116 C   0  0  0  0  0  0
  -25.9023  -32.4823   23.8405 C   0  0  1  0  0  0
  -27.2401  -27.4463   20.0997 C   0  0  0  0  0  0
  -25.5880  -33.8620   24.2332 N   0  0  0  0  0  0
  -23.3999  -30.4921   21.5506 C   0  0  2  0  0  0
  -24.8507  -28.9557   20.1197 C   0  0  0  0  0  0
  -22.7393  -29.4661   22.4984 C   0  0  0  0  0  0
  -18.0264  -28.1399   22.8502 C   0  0  0  0  0  0
  -24.1482  -36.7317   23.2634 C   0  0  0  0  0  0
  -25.9280  -30.8349   21.3669 C   0  0  0  0  0  0
  -26.0073  -29.4665   20.7243 C   0  0  0  0  0  0
  -27.2047  -28.7153   20.7237 C   0  0  0  0  0  0
  -26.0737  -26.9502   19.4855 C   0  0  0  0  0  0
  -24.8770  -27.6927   19.5011 C   0  0  0  0  0  0
  -23.6118  -29.8226   20.1659 C   0  0  0  0  0  0
  -25.4099  -36.3104   24.0337 C   0  0  1  0  0  0
  -20.5855  -28.3663   23.1339 C   0  0  2  0  0  0
  -20.6760  -26.9399   22.5436 C   0  0  0  0  0  0
  -19.5740  -26.6396   21.5231 C   0  0  0  0  0  0
  -18.1914  -26.7946   22.1632 C   0  0  0  0  0  0
  -19.1515  -28.8846   23.2923 C   0  0  0  0  0  0
  -18.9450  -30.1458   23.8924 C   0  0  0  0  0  0
  -17.6453  -30.6602   24.0580 C   0  0  0  0  0  0
  -25.9027  -34.9472   23.5134 C   0  0  0  0  0  0
  -16.5342  -29.9112   23.6334 C   0  0  0  0  0  0
  -16.7255  -28.6535   23.0341 C   0  0  0  0  0  0
  -26.4462  -31.6595   25.0721 C   0  0  0  0  0  0
  -25.3736  -31.3726   26.1481 C   0  0  0  0  0  0
  -27.0282  -30.3032   24.6089 C   0  0  0  0  0  0
  -27.6054  -32.4301   25.7472 C   0  0  0  0  0  0
  -27.5589  -37.1797   24.8455 C   0  0  0  0  0  0
  -21.4119  -29.3030   22.3738 N   0  0  0  0  0  0
  -26.4278  -37.3794   23.9420 N   0  0  0  0  0  0
  -24.6645  -31.0798   22.1018 N   0  0  0  0  0  0
  -23.4172  -28.8194   23.3014 O   0  0  0  0  0  0
  -28.3805  -26.6775   20.0367 O   0  0  0  0  0  0
  -26.5593  -34.8925   22.4697 O   0  0  0  0  0  0
  -23.5312  -32.1439   23.7514 O   0  0  0  0  0  0
  -29.1909  -18.6747   19.2586 C   0  0  0  0  0  0
  -29.9076  -18.9819   20.4049 C   0  0  0  0  0  0
  -29.8287  -16.7138   20.6241 C   0  0  0  0  0  0
  -29.7693  -21.4705   20.7371 C   0  0  0  0  0  0
  -29.0438  -24.7649   21.4395 C   0  0  0  0  0  0
  -30.1671  -24.1002   20.6047 C   0  0  0  0  0  0
  -28.9539  -26.3043   21.2898 C   0  0  0  0  0  0
  -30.6528  -22.6943   21.0694 C   0  0  1  0  0  0
  -28.6886  -19.5437   18.1404 C   0  0  0  0  0  0
  -30.2772  -17.8543   21.1671 N   0  0  0  0  0  0
  -30.3901  -20.2724   20.7721 N   0  0  0  0  0  0
  -30.0336  -15.4426   21.2163 N   0  0  0  0  0  0
  -28.5719  -21.6079   20.4784 O   0  0  0  0  0  0
  -30.9171  -22.7042   22.3787 F   0  0  0  0  0  0
  -29.5189  -20.5505   17.8677 F   0  0  0  0  0  0
  -28.5623  -18.8529   17.0067 F   0  0  0  0  0  0
  -27.4851  -20.0470   18.4116 F   0  0  0  0  0  0
  -28.9009  -16.9496   19.1548 S   0  0  0  0  0  0
  -31.4741  -12.3882   19.1483 H   0  0  0  0  0  0
  -30.3173  -11.2869   19.8368 H   0  0  0  0  0  0
  -29.7499  -11.7767   17.4410 H   0  0  0  0  0  0
  -29.6791  -13.4871   17.7831 H   0  0  0  0  0  0
  -27.8244  -11.3101   18.8103 H   0  0  0  0  0  0
  -27.3786  -12.6491   17.7857 H   0  0  0  0  0  0
  -27.7073  -14.2478   19.5782 H   0  0  0  0  0  0
  -28.6705  -11.9477   21.3473 H   0  0  0  0  0  0
  -28.4521  -13.5824   21.8811 H   0  0  0  0  0  0
  -25.2759   -9.5692   22.4747 H   0  0  0  0  0  0
  -24.0003   -7.4635   22.7462 H   0  0  0  0  0  0
  -21.0832   -8.8776   19.8950 H   0  0  0  0  0  0
  -22.3694  -10.9672   19.6157 H   0  0  0  0  0  0
  -21.2011   -7.6149   23.9722 H   0  0  0  0  0  0
  -21.1477   -6.0514   25.9082 H   0  0  0  0  0  0
  -22.0602   -2.7606   23.2824 H   0  0  0  0  0  0
  -22.4076  -11.9937   22.4797 H   0  0  0  0  0  0
  -21.1108  -13.1311   22.2546 H   0  0  0  0  0  0
  -24.6717  -15.8454   20.5202 H   0  0  0  0  0  0
  -26.2858  -15.6224   20.0759 H   0  0  0  0  0  0
  -26.7086  -32.5545   23.1168 H   0  0  0  0  0  0
  -25.0026  -33.9785   25.0472 H   0  0  0  0  0  0
  -22.6878  -31.3084   21.4116 H   0  0  0  0  0  0
  -23.3743  -35.9648   23.3271 H   0  0  0  0  0  0
  -24.3596  -36.8953   22.2055 H   0  0  0  0  0  0
  -23.7232  -37.6512   23.6666 H   0  0  0  0  0  0
  -26.0371  -31.5945   20.5916 H   0  0  0  0  0  0
  -26.8178  -30.8950   21.9819 H   0  0  0  0  0  0
  -28.0971  -29.1107   21.1887 H   0  0  0  0  0  0
  -26.0942  -25.9835   19.0019 H   0  0  0  0  0  0
  -23.9894  -27.2941   19.0282 H   0  0  0  0  0  0
  -23.7208  -30.5981   19.4069 H   0  0  0  0  0  0
  -22.7359  -29.2429   19.8682 H   0  0  0  0  0  0
  -25.1273  -36.1958   25.0828 H   0  0  0  0  0  0
  -20.9960  -28.3235   24.1456 H   0  0  0  0  0  0
  -20.5680  -26.2263   23.3619 H   0  0  0  0  0  0
  -21.6630  -26.7461   22.1220 H   0  0  0  0  0  0
  -19.6893  -25.6312   21.1254 H   0  0  0  0  0  0
  -19.6695  -27.3218   20.6771 H   0  0  0  0  0  0
  -17.4190  -26.6700   21.4025 H   0  0  0  0  0  0
  -18.0300  -26.0098   22.9037 H   0  0  0  0  0  0
  -19.7925  -30.7273   24.2296 H   0  0  0  0  0  0
  -17.5012  -31.6279   24.5185 H   0  0  0  0  0  0
  -15.5347  -30.3025   23.7652 H   0  0  0  0  0  0
  -15.8655  -28.0881   22.7016 H   0  0  0  0  0  0
  -24.5879  -30.7100   25.7836 H   0  0  0  0  0  0
  -24.8962  -32.2897   26.4940 H   0  0  0  0  0  0
  -25.8091  -30.8889   27.0231 H   0  0  0  0  0  0
  -26.2823  -29.6796   24.1145 H   0  0  0  0  0  0
  -27.4053  -29.7263   25.4544 H   0  0  0  0  0  0
  -27.8659  -30.4348   23.9236 H   0  0  0  0  0  0
  -27.2694  -33.3600   26.2075 H   0  0  0  0  0  0
  -28.3853  -32.6855   25.0285 H   0  0  0  0  0  0
  -28.0727  -31.8396   26.5362 H   0  0  0  0  0  0
  -28.2575  -38.0125   24.7539 H   0  0  0  0  0  0
  -28.1112  -36.2661   24.6214 H   0  0  0  0  0  0
  -27.2326  -37.1368   25.8859 H   0  0  0  0  0  0
  -20.9255  -29.8768   21.6995 H   0  0  0  0  0  0
  -26.0164  -38.2857   24.1460 H   0  0  0  0  0  0
  -29.2269  -24.5559   22.4938 H   0  0  0  0  0  0
  -28.0804  -24.3090   21.2087 H   0  0  0  0  0  0
  -31.0392  -24.7553   20.6311 H   0  0  0  0  0  0
  -29.8686  -24.0623   19.5563 H   0  0  0  0  0  0
  -29.9435  -26.7552   21.3735 H   0  0  0  0  0  0
  -28.3732  -26.6980   22.1264 H   0  0  0  0  0  0
  -31.6155  -22.5152   20.5877 H   0  0  0  0  0  0
  -31.3225  -20.2913   21.1618 H   0  0  0  0  0  0
  -29.2356  -15.0957   21.7239 H   0  0  0  0  0  0
  1 25  1  0  0  0
  1 30  2  0  0  0
  1 82  1  0  0  0
  2  3  1  0  0  0
  2 25  1  0  0  0
  2 89  1  0  0  0
  2 90  1  0  0  0
  3  4  1  0  0  0
  3 91  1  0  0  0
  3 92  1  0  0  0
  4  5  1  0  0  0
  4 93  1  0  0  0
  4 94  1  0  0  0
  5  6  1  0  0  0
  5 26  1  0  0  0
  5 95  1  0  0  0
  6 25  1  0  0  0
  6 96  1  0  0  0
  6 97  1  0  0  0
  7  8  2  0  0  0
  7 26  1  0  0  0
  7 29  1  0  0  0
  8  9  1  0  0  0
  8 22  1  0  0  0
  9 10  1  0  0  0
  9 27  2  0  0  0
 10 11  2  0  0  0
 10 15  1  0  0  0
 11 12  1  0  0  0
 11 98  1  0  0  0
 12 13  2  0  0  0
 12 99  1  0  0  0
 13 14  1  0  0  0
 13 31  1  0  0  0
 14 15  2  0  0  0
 14100  1  0  0  0
 15101  1  0  0  0
 16 17  2  0  0  0
 16 21  1  0  0  0
 16 31  1  0  0  0
 17 18  1  0  0  0
 17102  1  0  0  0
 18 19  2  0  0  0
 18103  1  0  0  0
 19 20  1  0  0  0
 19 24  1  0  0  0
 20 21  2  0  0  0
 20104  1  0  0  0
 21 23  1  0  0  0
 22 28  1  0  0  0
 22 32  2  0  0  0
 26 27  1  0  0  0
 28105  1  0  0  0
 28106  1  0  0  0
 29107  1  0  0  0
 29108  1  0  0  0
 33 34  1  0  0  0
 33 66  1  0  0  0
 33 70  2  0  0  0
 34 36  1  0  0  0
 34 59  1  0  0  0
 34109  1  0  0  0
 35 44  2  0  0  0
 35 45  1  0  0  0
 35 68  1  0  0  0
 36 56  1  0  0  0
 36110  1  0  0  0
 37 39  1  0  0  0
 37 47  1  0  0  0
 37 66  1  0  0  0
 37111  1  0  0  0
 38 43  2  0  0  0
 38 46  1  0  0  0
 38 47  1  0  0  0
 39 64  1  0  0  0
 39 67  2  0  0  0
 40 52  1  0  0  0
 40 53  2  0  0  0
 40 58  1  0  0  0
 41112  1  0  0  0
 41113  1  0  0  0
 41114  1  0  0  0
 41 48  1  0  0  0
 42 43  1  0  0  0
 42 66  1  0  0  0
 42115  1  0  0  0
 42116  1  0  0  0
 43 44  1  0  0  0
 44117  1  0  0  0
 45 46  2  0  0  0
 45118  1  0  0  0
 46119  1  0  0  0
 47120  1  0  0  0
 47121  1  0  0  0
 48 56  1  0  0  0
 48 65  1  0  0  0
 48122  1  0  0  0
 49 50  1  0  0  0
 49 53  1  0  0  0
 49 64  1  0  0  0
 49123  1  0  0  0
 50 51  1  0  0  0
 50124  1  0  0  0
 50125  1  0  0  0
 51 52  1  0  0  0
 51126  1  0  0  0
 51127  1  0  0  0
 52128  1  0  0  0
 52129  1  0  0  0
 53 54  1  0  0  0
 54 55  2  0  0  0
 54130  1  0  0  0
 55 57  1  0  0  0
 55131  1  0  0  0
 56 69  2  0  0  0
 57 58  2  0  0  0
 57132  1  0  0  0
 58133  1  0  0  0
 59 60  1  0  0  0
 59 61  1  0  0  0
 59 62  1  0  0  0
 60134  1  0  0  0
 60135  1  0  0  0
 60136  1  0  0  0
 61137  1  0  0  0
 61138  1  0  0  0
 61139  1  0  0  0
 62140  1  0  0  0
 62141  1  0  0  0
 62142  1  0  0  0
 63 65  1  0  0  0
 63143  1  0  0  0
 63144  1  0  0  0
 63145  1  0  0  0
 64146  1  0  0  0
 65147  1  0  0  0
 68 77  1  0  0  0
 71 72  2  0  0  0
 71 79  1  0  0  0
 71 88  1  0  0  0
 72 80  1  0  0  0
 72 81  1  0  0  0
 73 80  2  0  0  0
 73 82  1  0  0  0
 73 88  1  0  0  0
 74 78  1  0  0  0
 74 81  1  0  0  0
 74 83  2  0  0  0
 75 76  1  0  0  0
 75 77  1  0  0  0
 75148  1  0  0  0
 75149  1  0  0  0
 76 78  1  0  0  0
 76150  1  0  0  0
 76151  1  0  0  0
 77152  1  0  0  0
 77153  1  0  0  0
 78 84  1  0  0  0
 78154  1  0  0  0
 79 85  1  0  0  0
 79 86  1  0  0  0
 79 87  1  0  0  0
 81155  1  0  0  0
 82156  1  0  0  0
M  ISO  4   1 100  68 101  77 101  82 100
M  END
> <chiral flag>
0

> <version>
0

> <s_m_source_file>
/data/baiqing/PycharmProjects/Reinvent-master-3.2/result/LINK_invent/BTK/process_docking_weight1_custom_product_contain_oxygen_bond_distance_aromatic_linkinvent_7_9_3/rearranged_h_0181.sdf

> <i_m_source_file_index>
67

> <r_mmod_Potential_Energy-OPLS-2005>
-101.538719177246

> <r_mmod_Stretch_Energy-OPLS-2005>
35.6784324645996

> <r_mmod_Bend_Energy-OPLS-2005>
111.327903747559

> <r_mmod_Torsional_Energy-OPLS-2005>
277.855712890625

> <r_mmod_Improper_Torsional_Energy-OPLS-2005>
6.60362958908081

> <r_mmod_Van_der_Waal_Energy-OPLS-2005>
120.155311584473

> <r_mmod_Electrostatic_Energy-OPLS-2005>
-438.087310791016

> <r_mmod_Solvation_Energy-OPLS-2005>
-225.803588867188

> <b_mmod_Minimization_Converged-OPLS-2005>
0

> <r_mmod_RMS_Derivative-OPLS-2005>
1.55606496334076

$$$$
68
                    3D
 Structure written by MMmdl.
150158  0  0  1  0            999 V2000
  -30.6540  -14.8231   20.4454 C   0  0  0  0  0  0
  -30.4316  -12.5197   19.4648 C   0  0  0  0  0  0
  -29.5047  -12.4870   18.2339 C   0  0  0  0  0  0
  -28.0337  -12.3137   18.6640 C   0  0  0  0  0  0
  -27.6297  -13.2361   19.8457 C   0  0  2  0  0  0
  -28.6924  -13.2581   20.9664 C   0  0  0  0  0  0
  -25.2487  -13.8168   20.5817 C   0  0  0  0  0  0
  -24.1767  -13.0425   20.9285 C   0  0  0  0  0  0
  -24.6360  -11.6902   20.8824 C   0  0  0  0  0  0
  -23.9046  -10.4280   21.0451 C   0  0  0  0  0  0
  -24.3603   -9.4177   21.9215 C   0  0  0  0  0  0
  -23.6281   -8.2204   22.0751 C   0  0  0  0  0  0
  -22.4272   -8.0256   21.3533 C   0  0  0  0  0  0
  -21.9910   -9.0229   20.4642 C   0  0  0  0  0  0
  -22.7229  -10.2119   20.3076 C   0  0  0  0  0  0
  -21.6849   -6.0707   22.5276 C   0  0  0  0  0  0
  -21.4001   -6.5609   23.8214 C   0  0  0  0  0  0
  -21.3672   -5.6770   24.9193 C   0  0  0  0  0  0
  -21.6056   -4.3032   24.7250 C   0  0  0  0  0  0
  -21.8819   -3.8118   23.4373 C   0  0  0  0  0  0
  -21.9181   -4.6928   22.3421 C   0  0  0  0  0  0
  -22.7783  -13.5231   21.1899 C   0  0  0  0  0  0
  -22.1649   -4.2114   21.0997 F   0  0  0  0  0  0
  -21.5662   -3.4517   25.7763 F   0  0  0  0  0  0
  -29.9696  -13.6234   20.3419 N   0  0  0  0  0  0
  -26.2909  -12.9371   20.3406 N   0  0  0  0  0  0
  -25.9294  -11.6521   20.5860 N   0  0  0  0  0  0
  -22.0407  -12.8233   22.0449 N   0  0  0  0  0  0
  -25.4164  -15.1897   20.4279 N   0  0  0  0  0  0
  -31.8613  -14.8258   20.1990 O   0  0  0  0  0  0
  -21.6634   -6.8843   21.4235 O   0  0  0  0  0  0
  -22.3491  -14.5528   20.6710 O   0  0  0  0  0  0
  -24.6337  -31.8501   23.1937 C   0  0  0  0  0  0
  -25.9146  -32.4730   23.8308 C   0  0  1  0  0  0
  -27.2284  -27.2289   20.1380 C   0  0  0  0  0  0
  -25.5940  -33.8528   24.2237 N   0  0  0  0  0  0
  -23.4328  -30.4697   21.5354 C   0  0  2  0  0  0
  -24.8808  -28.9035   20.1099 C   0  0  0  0  0  0
  -22.7528  -29.4570   22.4890 C   0  0  0  0  0  0
  -18.0303  -28.1380   22.8482 C   0  0  0  0  0  0
  -24.1492  -36.7284   23.2641 C   0  0  0  0  0  0
  -25.9785  -30.7543   21.3722 C   0  0  0  0  0  0
  -26.0517  -29.3717   20.7164 C   0  0  0  0  0  0
  -27.2224  -28.5462   20.7180 C   0  0  0  0  0  0
  -26.0313  -26.8243   19.5075 C   0  0  0  0  0  0
  -24.8764  -27.6388   19.4966 C   0  0  0  0  0  0
  -23.6541  -29.7965   20.1534 C   0  0  0  0  0  0
  -25.4119  -36.3045   24.0316 C   0  0  1  0  0  0
  -20.5907  -28.3685   23.1273 C   0  0  2  0  0  0
  -20.6786  -26.9398   22.5416 C   0  0  0  0  0  0
  -19.5761  -26.6365   21.5216 C   0  0  0  0  0  0
  -18.1938  -26.7930   22.1613 C   0  0  0  0  0  0
  -19.1557  -28.8854   23.2869 C   0  0  0  0  0  0
  -18.9473  -30.1456   23.8888 C   0  0  0  0  0  0
  -17.6468  -30.6578   24.0561 C   0  0  0  0  0  0
  -25.9054  -34.9416   23.5077 C   0  0  0  0  0  0
  -16.5361  -29.9066   23.6331 C   0  0  0  0  0  0
  -16.7289  -28.6485   23.0351 C   0  0  0  0  0  0
  -26.4512  -31.6569   25.0713 C   0  0  0  0  0  0
  -25.3754  -31.3717   26.1454 C   0  0  0  0  0  0
  -27.0372  -30.2980   24.6211 C   0  0  0  0  0  0
  -27.6049  -32.4327   25.7499 C   0  0  0  0  0  0
  -27.5575  -37.1792   24.8461 C   0  0  0  0  0  0
  -21.4226  -29.3026   22.3647 N   0  0  0  0  0  0
  -26.4287  -37.3750   23.9410 N   0  0  0  0  0  0
  -24.7007  -31.0443   22.0911 N   0  0  0  0  0  0
  -23.4220  -28.8128   23.3012 O   0  0  0  0  0  0
  -28.3491  -26.3627   20.2371 O   0  0  0  0  0  0
  -26.5620  -34.8903   22.4638 O   0  0  0  0  0  0
  -23.5475  -32.1335   23.7212 O   0  0  0  0  0  0
  -28.5645  -18.5655   18.1695 C   0  0  0  0  0  0
  -28.4537  -17.4754   17.3693 C   0  0  0  0  0  0
  -29.1217  -18.3102   19.4729 C   0  0  0  0  0  0
  -29.4646  -16.9109   19.6446 C   0  0  0  0  0  0
  -29.1553  -22.2377   20.3766 C   0  0  0  0  0  0
  -28.5115  -20.7290   20.1787 C   0  0  0  0  0  0
  -28.2672  -23.5743   20.6173 C   0  0  0  0  0  0
  -28.4497  -24.9363   19.7257 C   0  0  0  0  0  0
  -29.3043  -19.5683   20.2673 N   0  0  0  0  0  0
  -30.0161  -16.0624   20.6268 N   0  0  0  0  0  0
  -30.3842  -22.3615   20.3594 O   0  0  0  0  0  0
  -27.2994  -20.6458   19.9504 O   0  0  0  0  0  0
  -29.0726  -16.0773   18.1392 S   0  0  0  0  0  0
  -31.4648  -12.6516   19.1356 H   0  0  0  0  0  0
  -30.4063  -11.5708   20.0019 H   0  0  0  0  0  0
  -29.7945  -11.6779   17.5624 H   0  0  0  0  0  0
  -29.6262  -13.4018   17.6569 H   0  0  0  0  0  0
  -27.9095  -11.2726   18.9650 H   0  0  0  0  0  0
  -27.3699  -12.4715   17.8127 H   0  0  0  0  0  0
  -27.5762  -14.2388   19.4334 H   0  0  0  0  0  0
  -28.7669  -12.2901   21.4648 H   0  0  0  0  0  0
  -28.4299  -13.9939   21.7289 H   0  0  0  0  0  0
  -25.2744   -9.5647   22.4808 H   0  0  0  0  0  0
  -23.9983   -7.4563   22.7436 H   0  0  0  0  0  0
  -21.0863   -8.8753   19.8915 H   0  0  0  0  0  0
  -22.3695  -10.9672   19.6190 H   0  0  0  0  0  0
  -21.1972   -7.6112   23.9726 H   0  0  0  0  0  0
  -21.1513   -6.0502   25.9105 H   0  0  0  0  0  0
  -22.0587   -2.7570   23.2903 H   0  0  0  0  0  0
  -22.4048  -11.9936   22.4900 H   0  0  0  0  0  0
  -21.1003  -13.1217   22.2609 H   0  0  0  0  0  0
  -24.6496  -15.8444   20.5406 H   0  0  0  0  0  0
  -26.2798  -15.6332   20.1382 H   0  0  0  0  0  0
  -26.7220  -32.5362   23.1052 H   0  0  0  0  0  0
  -25.0108  -33.9663   25.0394 H   0  0  0  0  0  0
  -22.7308  -31.2916   21.3831 H   0  0  0  0  0  0
  -23.3742  -35.9627   23.3293 H   0  0  0  0  0  0
  -24.3589  -36.8922   22.2063 H   0  0  0  0  0  0
  -23.7270  -37.6484   23.6685 H   0  0  0  0  0  0
  -26.1167  -31.5145   20.6019 H   0  0  0  0  0  0
  -26.8551  -30.8091   22.0066 H   0  0  0  0  0  0
  -28.1178  -28.9007   21.2076 H   0  0  0  0  0  0
  -25.9538  -25.8503   19.0501 H   0  0  0  0  0  0
  -23.9733  -27.2696   19.0299 H   0  0  0  0  0  0
  -23.7881  -30.5701   19.3958 H   0  0  0  0  0  0
  -22.7710  -29.2332   19.8448 H   0  0  0  0  0  0
  -25.1304  -36.1875   25.0808 H   0  0  0  0  0  0
  -21.0004  -28.3254   24.1387 H   0  0  0  0  0  0
  -20.5679  -26.2294   23.3618 H   0  0  0  0  0  0
  -21.6655  -26.7403   22.1212 H   0  0  0  0  0  0
  -19.6910  -25.6269   21.1259 H   0  0  0  0  0  0
  -19.6717  -27.3167   20.6748 H   0  0  0  0  0  0
  -17.4221  -26.6707   21.3995 H   0  0  0  0  0  0
  -18.0302  -26.0067   22.9002 H   0  0  0  0  0  0
  -19.7945  -30.7281   24.2253 H   0  0  0  0  0  0
  -17.5011  -31.6256   24.5171 H   0  0  0  0  0  0
  -15.5356  -30.2958   23.7658 H   0  0  0  0  0  0
  -15.8693  -28.0801   22.7062 H   0  0  0  0  0  0
  -24.5910  -30.7083   25.7806 H   0  0  0  0  0  0
  -24.8983  -32.2887   26.4913 H   0  0  0  0  0  0
  -25.8094  -30.8882   27.0215 H   0  0  0  0  0  0
  -26.2952  -29.6712   24.1254 H   0  0  0  0  0  0
  -27.4075  -29.7263   25.4734 H   0  0  0  0  0  0
  -27.8822  -30.4266   23.9445 H   0  0  0  0  0  0
  -27.2627  -33.3615   26.2079 H   0  0  0  0  0  0
  -28.3861  -32.6912   25.0340 H   0  0  0  0  0  0
  -28.0727  -31.8469   26.5423 H   0  0  0  0  0  0
  -28.2573  -38.0104   24.7491 H   0  0  0  0  0  0
  -28.1083  -36.2625   24.6290 H   0  0  0  0  0  0
  -27.2296  -37.1453   25.8864 H   0  0  0  0  0  0
  -20.9413  -29.8765   21.6863 H   0  0  0  0  0  0
  -26.0149  -38.2811   24.1415 H   0  0  0  0  0  0
  -28.2679  -19.5444   17.8227 H   0  0  0  0  0  0
  -28.0725  -17.4164   16.3583 H   0  0  0  0  0  0
  -28.4942  -23.8553   21.6450 H   0  0  0  0  0  0
  -27.2147  -23.2926   20.6300 H   0  0  0  0  0  0
  -27.8533  -24.8297   18.8210 H   0  0  0  0  0  0
  -29.4736  -24.8886   19.3505 H   0  0  0  0  0  0
  -30.2116  -19.7036   20.6940 H   0  0  0  0  0  0
  -30.5115  -16.6010   21.3234 H   0  0  0  0  0  0
  1 25  1  0  0  0
  1 30  2  0  0  0
  1 80  1  0  0  0
  2  3  1  0  0  0
  2 25  1  0  0  0
  2 84  1  0  0  0
  2 85  1  0  0  0
  3  4  1  0  0  0
  3 86  1  0  0  0
  3 87  1  0  0  0
  4  5  1  0  0  0
  4 88  1  0  0  0
  4 89  1  0  0  0
  5  6  1  0  0  0
  5 26  1  0  0  0
  5 90  1  0  0  0
  6 25  1  0  0  0
  6 91  1  0  0  0
  6 92  1  0  0  0
  7  8  2  0  0  0
  7 26  1  0  0  0
  7 29  1  0  0  0
  8  9  1  0  0  0
  8 22  1  0  0  0
  9 10  1  0  0  0
  9 27  2  0  0  0
 10 11  2  0  0  0
 10 15  1  0  0  0
 11 12  1  0  0  0
 11 93  1  0  0  0
 12 13  2  0  0  0
 12 94  1  0  0  0
 13 14  1  0  0  0
 13 31  1  0  0  0
 14 15  2  0  0  0
 14 95  1  0  0  0
 15 96  1  0  0  0
 16 17  2  0  0  0
 16 21  1  0  0  0
 16 31  1  0  0  0
 17 18  1  0  0  0
 17 97  1  0  0  0
 18 19  2  0  0  0
 18 98  1  0  0  0
 19 20  1  0  0  0
 19 24  1  0  0  0
 20 21  2  0  0  0
 20 99  1  0  0  0
 21 23  1  0  0  0
 22 28  1  0  0  0
 22 32  2  0  0  0
 26 27  1  0  0  0
 28100  1  0  0  0
 28101  1  0  0  0
 29102  1  0  0  0
 29103  1  0  0  0
 33 34  1  0  0  0
 33 66  1  0  0  0
 33 70  2  0  0  0
 34 36  1  0  0  0
 34 59  1  0  0  0
 34104  1  0  0  0
 35 44  2  0  0  0
 35 45  1  0  0  0
 35 68  1  0  0  0
 36 56  1  0  0  0
 36105  1  0  0  0
 37 39  1  0  0  0
 37 47  1  0  0  0
 37 66  1  0  0  0
 37106  1  0  0  0
 38 43  2  0  0  0
 38 46  1  0  0  0
 38 47  1  0  0  0
 39 64  1  0  0  0
 39 67  2  0  0  0
 40 52  1  0  0  0
 40 53  2  0  0  0
 40 58  1  0  0  0
 41107  1  0  0  0
 41108  1  0  0  0
 41109  1  0  0  0
 41 48  1  0  0  0
 42 43  1  0  0  0
 42 66  1  0  0  0
 42110  1  0  0  0
 42111  1  0  0  0
 43 44  1  0  0  0
 44112  1  0  0  0
 45 46  2  0  0  0
 45113  1  0  0  0
 46114  1  0  0  0
 47115  1  0  0  0
 47116  1  0  0  0
 48 56  1  0  0  0
 48 65  1  0  0  0
 48117  1  0  0  0
 49 50  1  0  0  0
 49 53  1  0  0  0
 49 64  1  0  0  0
 49118  1  0  0  0
 50 51  1  0  0  0
 50119  1  0  0  0
 50120  1  0  0  0
 51 52  1  0  0  0
 51121  1  0  0  0
 51122  1  0  0  0
 52123  1  0  0  0
 52124  1  0  0  0
 53 54  1  0  0  0
 54 55  2  0  0  0
 54125  1  0  0  0
 55 57  1  0  0  0
 55126  1  0  0  0
 56 69  2  0  0  0
 57 58  2  0  0  0
 57127  1  0  0  0
 58128  1  0  0  0
 59 60  1  0  0  0
 59 61  1  0  0  0
 59 62  1  0  0  0
 60129  1  0  0  0
 60130  1  0  0  0
 60131  1  0  0  0
 61132  1  0  0  0
 61133  1  0  0  0
 61134  1  0  0  0
 62135  1  0  0  0
 62136  1  0  0  0
 62137  1  0  0  0
 63 65  1  0  0  0
 63138  1  0  0  0
 63139  1  0  0  0
 63140  1  0  0  0
 64141  1  0  0  0
 65142  1  0  0  0
 68 78  1  0  0  0
 71 72  2  0  0  0
 71 73  1  0  0  0
 71143  1  0  0  0
 72 83  1  0  0  0
 72144  1  0  0  0
 73 74  2  0  0  0
 73 79  1  0  0  0
 74 80  1  0  0  0
 74 83  1  0  0  0
 75 76  1  0  0  0
 75 77  1  0  0  0
 75 81  2  0  0  0
 76 79  1  0  0  0
 76 82  2  0  0  0
 77 78  1  0  0  0
 77145  1  0  0  0
 77146  1  0  0  0
 78147  1  0  0  0
 78148  1  0  0  0
 79149  1  0  0  0
 80150  1  0  0  0
M  ISO  4   1 100  68 101  78 101  80 100
M  END
> <chiral flag>
0

> <version>
0

> <s_m_source_file>
/data/baiqing/PycharmProjects/Reinvent-master-3.2/result/LINK_invent/BTK/process_docking_weight1_custom_product_contain_oxygen_bond_distance_aromatic_linkinvent_7_9_3/rearranged_h_0181.sdf

> <i_m_source_file_index>
68

> <r_mmod_Potential_Energy-OPLS-2005>
252.186187744141

> <r_mmod_Stretch_Energy-OPLS-2005>
167.135040283203

> <r_mmod_Bend_Energy-OPLS-2005>
254.993835449219

> <r_mmod_Torsional_Energy-OPLS-2005>
282.560119628906

> <r_mmod_Improper_Torsional_Energy-OPLS-2005>
8.57217788696289

> <r_mmod_Van_der_Waal_Energy-OPLS-2005>
123.357406616211

> <r_mmod_Electrostatic_Energy-OPLS-2005>
-466.829437255859

> <r_mmod_Solvation_Energy-OPLS-2005>
-235.423736572266

> <b_mmod_Minimization_Converged-OPLS-2005>
0

> <r_mmod_RMS_Derivative-OPLS-2005>
3.20938515663147

$$$$
69
                    3D
 Structure written by MMmdl.
154162  0  0  1  0            999 V2000
  -30.6053  -14.7702   20.4590 C   0  0  0  0  0  0
  -30.4283  -12.4767   19.4713 C   0  0  0  0  0  0
  -29.5062  -12.5088   18.2330 C   0  0  0  0  0  0
  -28.0353  -12.3231   18.6506 C   0  0  0  0  0  0
  -27.6346  -13.2327   19.8431 C   0  0  2  0  0  0
  -28.6775  -13.1824   20.9799 C   0  0  0  0  0  0
  -25.2478  -13.8188   20.5692 C   0  0  0  0  0  0
  -24.1777  -13.0433   20.9221 C   0  0  0  0  0  0
  -24.6369  -11.6912   20.8742 C   0  0  0  0  0  0
  -23.9048  -10.4288   21.0392 C   0  0  0  0  0  0
  -24.3602   -9.4206   21.9169 C   0  0  0  0  0  0
  -23.6282   -8.2235   22.0741 C   0  0  0  0  0  0
  -22.4265   -8.0268   21.3534 C   0  0  0  0  0  0
  -21.9897   -9.0236   20.4632 C   0  0  0  0  0  0
  -22.7216  -10.2122   20.3041 C   0  0  0  0  0  0
  -21.6861   -6.0728   22.5272 C   0  0  0  0  0  0
  -21.4015   -6.5632   23.8208 C   0  0  0  0  0  0
  -21.3660   -5.6783   24.9168 C   0  0  0  0  0  0
  -21.6044   -4.3046   24.7217 C   0  0  0  0  0  0
  -21.8820   -3.8137   23.4343 C   0  0  0  0  0  0
  -21.9196   -4.6956   22.3399 C   0  0  0  0  0  0
  -22.7799  -13.5215   21.1871 C   0  0  0  0  0  0
  -22.1661   -4.2145   21.0978 F   0  0  0  0  0  0
  -21.5634   -3.4527   25.7730 F   0  0  0  0  0  0
  -29.9731  -13.5454   20.3943 N   0  0  0  0  0  0
  -26.2894  -12.9395   20.3232 N   0  0  0  0  0  0
  -25.9296  -11.6543   20.5719 N   0  0  0  0  0  0
  -22.0440  -12.8211   22.0429 N   0  0  0  0  0  0
  -25.4153  -15.1916   20.4123 N   0  0  0  0  0  0
  -31.7985  -14.8222   20.1505 O   0  0  0  0  0  0
  -21.6635   -6.8865   21.4233 O   0  0  0  0  0  0
  -22.3487  -14.5525   20.6724 O   0  0  0  0  0  0
  -24.6362  -31.8540   23.1952 C   0  0  0  0  0  0
  -25.9173  -32.4765   23.8312 C   0  0  1  0  0  0
  -27.2182  -27.2405   20.1241 C   0  0  0  0  0  0
  -25.5953  -33.8562   24.2253 N   0  0  0  0  0  0
  -23.4336  -30.4779   21.5384 C   0  0  2  0  0  0
  -24.8760  -28.9184   20.1060 C   0  0  0  0  0  0
  -22.7538  -29.4635   22.4893 C   0  0  0  0  0  0
  -18.0322  -28.1434   22.8502 C   0  0  0  0  0  0
  -24.1486  -36.7273   23.2637 C   0  0  0  0  0  0
  -25.9807  -30.7577   21.3771 C   0  0  0  0  0  0
  -26.0481  -29.3790   20.7174 C   0  0  0  0  0  0
  -27.2178  -28.5521   20.7162 C   0  0  0  0  0  0
  -26.0161  -26.8422   19.4981 C   0  0  0  0  0  0
  -24.8663  -27.6578   19.4889 C   0  0  0  0  0  0
  -23.6491  -29.8100   20.1545 C   0  0  0  0  0  0
  -25.4120  -36.3087   24.0330 C   0  0  1  0  0  0
  -20.5926  -28.3758   23.1254 C   0  0  2  0  0  0
  -20.6826  -26.9479   22.5403 C   0  0  0  0  0  0
  -19.5782  -26.6430   21.5232 C   0  0  0  0  0  0
  -18.1961  -26.7983   22.1636 C   0  0  0  0  0  0
  -19.1577  -28.8909   23.2874 C   0  0  0  0  0  0
  -18.9495  -30.1494   23.8913 C   0  0  0  0  0  0
  -17.6494  -30.6624   24.0589 C   0  0  0  0  0  0
  -25.9065  -34.9454   23.5100 C   0  0  0  0  0  0
  -16.5387  -29.9131   23.6342 C   0  0  0  0  0  0
  -16.7308  -28.6546   23.0372 C   0  0  0  0  0  0
  -26.4517  -31.6596   25.0722 C   0  0  0  0  0  0
  -25.3717  -31.3756   26.1427 C   0  0  0  0  0  0
  -27.0369  -30.3018   24.6228 C   0  0  0  0  0  0
  -27.6082  -32.4329   25.7493 C   0  0  0  0  0  0
  -27.5586  -37.1795   24.8476 C   0  0  0  0  0  0
  -21.4246  -29.3088   22.3623 N   0  0  0  0  0  0
  -26.4304  -37.3785   23.9413 N   0  0  0  0  0  0
  -24.7030  -31.0491   22.0927 N   0  0  0  0  0  0
  -23.4224  -28.8198   23.3024 O   0  0  0  0  0  0
  -28.3248  -26.3600   20.2162 O   0  0  0  0  0  0
  -26.5637  -34.8937   22.4671 O   0  0  0  0  0  0
  -23.5504  -32.1361   23.7238 O   0  0  0  0  0  0
  -31.5802  -17.6981   20.8415 C   0  0  0  0  0  0
  -31.2051  -20.0087   20.8477 C   0  0  0  0  0  0
  -30.2134  -17.3796   20.6550 C   0  0  0  0  0  0
  -29.7963  -19.8142   20.6208 C   0  0  0  0  0  0
  -31.8863  -21.3374   21.1268 C   0  0  0  0  0  0
  -28.4227  -23.6470   20.4025 C   0  0  0  0  0  0
  -28.4672  -22.0447   18.3562 C   0  0  0  0  0  0
  -28.4078  -25.0112   19.5378 C   0  0  0  0  0  0
  -29.0124  -22.2386   19.7833 C   0  0  2  0  0  0
  -32.0579  -18.9550   20.9239 N   0  0  0  0  0  0
  -29.3404  -18.4818   20.5472 N   0  0  0  0  0  0
  -29.8391  -15.9284   20.6383 N   0  0  0  0  0  0
  -28.8356  -20.9096   20.5284 N   0  0  0  0  0  0
  -31.4077  -22.1673   21.9298 O   0  5  0  0  0  0
  -33.0028  -21.5790   20.6100 O   0  0  0  0  0  0
  -27.9599  -23.6776   21.5462 O   0  0  0  0  0  0
  -31.4673  -12.6061   19.1639 H   0  0  0  0  0  0
  -30.3837  -11.5048   19.9632 H   0  0  0  0  0  0
  -29.7947  -11.7292   17.5269 H   0  0  0  0  0  0
  -29.6231  -13.4580   17.7081 H   0  0  0  0  0  0
  -27.9078  -11.2767   18.9267 H   0  0  0  0  0  0
  -27.3733  -12.4938   17.8011 H   0  0  0  0  0  0
  -27.6202  -14.2491   19.4509 H   0  0  0  0  0  0
  -28.7226  -12.1856   21.4210 H   0  0  0  0  0  0
  -28.4060  -13.8646   21.7872 H   0  0  0  0  0  0
  -25.2746   -9.5697   22.4744 H   0  0  0  0  0  0
  -24.0000   -7.4633   22.7463 H   0  0  0  0  0  0
  -21.0830   -8.8740   19.8942 H   0  0  0  0  0  0
  -22.3656  -10.9654   19.6150 H   0  0  0  0  0  0
  -21.2002   -7.6143   23.9709 H   0  0  0  0  0  0
  -21.1484   -6.0514   25.9074 H   0  0  0  0  0  0
  -22.0604   -2.7602   23.2837 H   0  0  0  0  0  0
  -22.4043  -11.9887   22.4861 H   0  0  0  0  0  0
  -21.1045  -13.1227   22.2589 H   0  0  0  0  0  0
  -24.6446  -15.8415   20.5265 H   0  0  0  0  0  0
  -26.2524  -15.6368   20.0578 H   0  0  0  0  0  0
  -26.7257  -32.5400   23.1052 H   0  0  0  0  0  0
  -25.0128  -33.9681   25.0428 H   0  0  0  0  0  0
  -22.7325  -31.3017   21.3914 H   0  0  0  0  0  0
  -23.3776  -35.9578   23.3310 H   0  0  0  0  0  0
  -24.3572  -36.8882   22.2049 H   0  0  0  0  0  0
  -23.7201  -37.6463   23.6651 H   0  0  0  0  0  0
  -26.1303  -31.5175   20.6084 H   0  0  0  0  0  0
  -26.8546  -30.8007   22.0159 H   0  0  0  0  0  0
  -28.1147  -28.9007   21.2084 H   0  0  0  0  0  0
  -25.9148  -25.8688   19.0455 H   0  0  0  0  0  0
  -23.9658  -27.2917   19.0155 H   0  0  0  0  0  0
  -23.7742  -30.5849   19.3973 H   0  0  0  0  0  0
  -22.7645  -29.2471   19.8509 H   0  0  0  0  0  0
  -25.1295  -36.1944   25.0823 H   0  0  0  0  0  0
  -21.0034  -28.3372   24.1365 H   0  0  0  0  0  0
  -20.5798  -26.2379   23.3622 H   0  0  0  0  0  0
  -21.6685  -26.7553   22.1142 H   0  0  0  0  0  0
  -19.6956  -25.6342   21.1264 H   0  0  0  0  0  0
  -19.6706  -27.3245   20.6766 H   0  0  0  0  0  0
  -17.4240  -26.6760   21.4027 H   0  0  0  0  0  0
  -18.0334  -26.0124   22.9027 H   0  0  0  0  0  0
  -19.7967  -30.7313   24.2286 H   0  0  0  0  0  0
  -17.5055  -31.6299   24.5208 H   0  0  0  0  0  0
  -15.5391  -30.3044   23.7661 H   0  0  0  0  0  0
  -15.8709  -28.0867   22.7082 H   0  0  0  0  0  0
  -24.5900  -30.7105   25.7740 H   0  0  0  0  0  0
  -24.8890  -32.2921   26.4826 H   0  0  0  0  0  0
  -25.7991  -30.8943   27.0230 H   0  0  0  0  0  0
  -26.2961  -29.6768   24.1234 H   0  0  0  0  0  0
  -27.4036  -29.7277   25.4744 H   0  0  0  0  0  0
  -27.8846  -30.4303   23.9497 H   0  0  0  0  0  0
  -27.2717  -33.3642   26.2057 H   0  0  0  0  0  0
  -28.3893  -32.6868   25.0316 H   0  0  0  0  0  0
  -28.0764  -31.8466   26.5408 H   0  0  0  0  0  0
  -28.2625  -38.0076   24.7532 H   0  0  0  0  0  0
  -28.1060  -36.2610   24.6299 H   0  0  0  0  0  0
  -27.2298  -37.1436   25.8879 H   0  0  0  0  0  0
  -20.9473  -29.8752   21.6751 H   0  0  0  0  0  0
  -26.0194  -38.2870   24.1403 H   0  0  0  0  0  0
  -32.3404  -16.9482   20.9830 H   0  0  0  0  0  0
  -27.3875  -21.8887   18.3542 H   0  0  0  0  0  0
  -28.9252  -21.1786   17.8769 H   0  0  0  0  0  0
  -28.6762  -22.9034   17.7165 H   0  0  0  0  0  0
  -27.6567  -24.9122   18.7578 H   0  0  0  0  0  0
  -29.3520  -25.0185   18.9949 H   0  0  0  0  0  0
  -30.0782  -22.4090   19.6550 H   0  0  0  0  0  0
  -28.8554  -15.7492   20.7507 H   0  0  0  0  0  0
  -27.8667  -20.6196   20.6049 H   0  0  0  0  0  0
  1 25  1  0  0  0
  1 30  2  0  0  0
  1 82  1  0  0  0
  2  3  1  0  0  0
  2 25  1  0  0  0
  2 87  1  0  0  0
  2 88  1  0  0  0
  3  4  1  0  0  0
  3 89  1  0  0  0
  3 90  1  0  0  0
  4  5  1  0  0  0
  4 91  1  0  0  0
  4 92  1  0  0  0
  5  6  1  0  0  0
  5 26  1  0  0  0
  5 93  1  0  0  0
  6 25  1  0  0  0
  6 94  1  0  0  0
  6 95  1  0  0  0
  7  8  2  0  0  0
  7 26  1  0  0  0
  7 29  1  0  0  0
  8  9  1  0  0  0
  8 22  1  0  0  0
  9 10  1  0  0  0
  9 27  2  0  0  0
 10 11  2  0  0  0
 10 15  1  0  0  0
 11 12  1  0  0  0
 11 96  1  0  0  0
 12 13  2  0  0  0
 12 97  1  0  0  0
 13 14  1  0  0  0
 13 31  1  0  0  0
 14 15  2  0  0  0
 14 98  1  0  0  0
 15 99  1  0  0  0
 16 17  2  0  0  0
 16 21  1  0  0  0
 16 31  1  0  0  0
 17 18  1  0  0  0
 17100  1  0  0  0
 18 19  2  0  0  0
 18101  1  0  0  0
 19 20  1  0  0  0
 19 24  1  0  0  0
 20 21  2  0  0  0
 20102  1  0  0  0
 21 23  1  0  0  0
 22 28  1  0  0  0
 22 32  2  0  0  0
 26 27  1  0  0  0
 28103  1  0  0  0
 28104  1  0  0  0
 29105  1  0  0  0
 29106  1  0  0  0
 33 34  1  0  0  0
 33 66  1  0  0  0
 33 70  2  0  0  0
 34 36  1  0  0  0
 34 59  1  0  0  0
 34107  1  0  0  0
 35 44  2  0  0  0
 35 45  1  0  0  0
 35 68  1  0  0  0
 36 56  1  0  0  0
 36108  1  0  0  0
 37 39  1  0  0  0
 37 47  1  0  0  0
 37 66  1  0  0  0
 37109  1  0  0  0
 38 43  2  0  0  0
 38 46  1  0  0  0
 38 47  1  0  0  0
 39 64  1  0  0  0
 39 67  2  0  0  0
 40 52  1  0  0  0
 40 53  2  0  0  0
 40 58  1  0  0  0
 41110  1  0  0  0
 41111  1  0  0  0
 41112  1  0  0  0
 41 48  1  0  0  0
 42 43  1  0  0  0
 42 66  1  0  0  0
 42113  1  0  0  0
 42114  1  0  0  0
 43 44  1  0  0  0
 44115  1  0  0  0
 45 46  2  0  0  0
 45116  1  0  0  0
 46117  1  0  0  0
 47118  1  0  0  0
 47119  1  0  0  0
 48 56  1  0  0  0
 48 65  1  0  0  0
 48120  1  0  0  0
 49 50  1  0  0  0
 49 53  1  0  0  0
 49 64  1  0  0  0
 49121  1  0  0  0
 50 51  1  0  0  0
 50122  1  0  0  0
 50123  1  0  0  0
 51 52  1  0  0  0
 51124  1  0  0  0
 51125  1  0  0  0
 52126  1  0  0  0
 52127  1  0  0  0
 53 54  1  0  0  0
 54 55  2  0  0  0
 54128  1  0  0  0
 55 57  1  0  0  0
 55129  1  0  0  0
 56 69  2  0  0  0
 57 58  2  0  0  0
 57130  1  0  0  0
 58131  1  0  0  0
 59 60  1  0  0  0
 59 61  1  0  0  0
 59 62  1  0  0  0
 60132  1  0  0  0
 60133  1  0  0  0
 60134  1  0  0  0
 61135  1  0  0  0
 61136  1  0  0  0
 61137  1  0  0  0
 62138  1  0  0  0
 62139  1  0  0  0
 62140  1  0  0  0
 63 65  1  0  0  0
 63141  1  0  0  0
 63142  1  0  0  0
 63143  1  0  0  0
 64144  1  0  0  0
 65145  1  0  0  0
 68 78  1  0  0  0
 71 73  2  0  0  0
 71 80  1  0  0  0
 71146  1  0  0  0
 72 74  1  0  0  0
 72 75  1  0  0  0
 72 80  2  0  0  0
 73 81  1  0  0  0
 73 82  1  0  0  0
 74 81  2  0  0  0
 74 83  1  0  0  0
 75 84  1  0  0  0
 75 85  2  0  0  0
 76 78  1  0  0  0
 76 79  1  0  0  0
 76 86  2  0  0  0
 77147  1  0  0  0
 77148  1  0  0  0
 77149  1  0  0  0
 77 79  1  0  0  0
 78150  1  0  0  0
 78151  1  0  0  0
 79 83  1  0  0  0
 79152  1  0  0  0
 82153  1  0  0  0
 83154  1  0  0  0
M  CHG  1  84  -1
M  ISO  4   1 100  68 101  78 101  82 100
M  END
> <chiral flag>
0

> <version>
0

> <s_m_source_file>
/data/baiqing/PycharmProjects/Reinvent-master-3.2/result/LINK_invent/BTK/process_docking_weight1_custom_product_contain_oxygen_bond_distance_aromatic_linkinvent_7_9_3/rearranged_h_0181.sdf

> <i_m_source_file_index>
69

> <r_mmod_Potential_Energy-OPLS-2005>
183.350708007812

> <r_mmod_Stretch_Energy-OPLS-2005>
156.500457763672

> <r_mmod_Bend_Energy-OPLS-2005>
204.070190429688

> <r_mmod_Torsional_Energy-OPLS-2005>
230.813201904297

> <r_mmod_Improper_Torsional_Energy-OPLS-2005>
8.16782379150391

> <r_mmod_Van_der_Waal_Energy-OPLS-2005>
145.000244140625

> <r_mmod_Electrostatic_Energy-OPLS-2005>
-72.7206115722656

> <r_mmod_Solvation_Energy-OPLS-2005>
-584.915222167969

> <b_mmod_Minimization_Converged-OPLS-2005>
0

> <r_mmod_RMS_Derivative-OPLS-2005>
2.02136063575745

$$$$
70
                    3D
 Structure written by MMmdl.
156164  0  0  1  0            999 V2000
  -30.5788  -14.8071   20.4036 C   0  0  0  0  0  0
  -30.4416  -12.4801   19.4974 C   0  0  0  0  0  0
  -29.5300  -12.5075   18.2499 C   0  0  0  0  0  0
  -28.0485  -12.3504   18.6460 C   0  0  0  0  0  0
  -27.6456  -13.2450   19.8515 C   0  0  2  0  0  0
  -28.6870  -13.1902   20.9902 C   0  0  0  0  0  0
  -25.2532  -13.8220   20.5690 C   0  0  0  0  0  0
  -24.1811  -13.0463   20.9158 C   0  0  0  0  0  0
  -24.6425  -11.6935   20.8669 C   0  0  0  0  0  0
  -23.9093  -10.4302   21.0347 C   0  0  0  0  0  0
  -24.3624   -9.4217   21.9133 C   0  0  0  0  0  0
  -23.6285   -8.2266   22.0741 C   0  0  0  0  0  0
  -22.4245   -8.0319   21.3556 C   0  0  0  0  0  0
  -21.9884   -9.0279   20.4632 C   0  0  0  0  0  0
  -22.7248  -10.2147   20.3018 C   0  0  0  0  0  0
  -21.6861   -6.0737   22.5245 C   0  0  0  0  0  0
  -21.4030   -6.5619   23.8183 C   0  0  0  0  0  0
  -21.3662   -5.6764   24.9140 C   0  0  0  0  0  0
  -21.6062   -4.3030   24.7178 C   0  0  0  0  0  0
  -21.8820   -3.8139   23.4280 C   0  0  0  0  0  0
  -21.9194   -4.6976   22.3355 C   0  0  0  0  0  0
  -22.7829  -13.5238   21.1830 C   0  0  0  0  0  0
  -22.1663   -4.2164   21.0936 F   0  0  0  0  0  0
  -21.5625   -3.4505   25.7683 F   0  0  0  0  0  0
  -29.9861  -13.5565   20.4110 N   0  0  0  0  0  0
  -26.2964  -12.9459   20.3244 N   0  0  0  0  0  0
  -25.9360  -11.6581   20.5657 N   0  0  0  0  0  0
  -22.0493  -12.8215   22.0390 N   0  0  0  0  0  0
  -25.4259  -15.1945   20.4180 N   0  0  0  0  0  0
  -31.7629  -14.9016   20.0634 O   0  0  0  0  0  0
  -21.6647   -6.8895   21.4222 O   0  0  0  0  0  0
  -22.3494  -14.5547   20.6708 O   0  0  0  0  0  0
  -24.6389  -31.8501   23.1984 C   0  0  0  0  0  0
  -25.9198  -32.4742   23.8340 C   0  0  1  0  0  0
  -27.2136  -27.2052   20.1109 C   0  0  0  0  0  0
  -25.5978  -33.8538   24.2278 N   0  0  0  0  0  0
  -23.4385  -30.4735   21.5440 C   0  0  2  0  0  0
  -24.8839  -28.9171   20.1096 C   0  0  0  0  0  0
  -22.7533  -29.4571   22.4906 C   0  0  0  0  0  0
  -18.0280  -28.1383   22.8488 C   0  0  0  0  0  0
  -24.1471  -36.7250   23.2639 C   0  0  0  0  0  0
  -25.9897  -30.7468   21.3850 C   0  0  0  0  0  0
  -26.0606  -29.3645   20.7204 C   0  0  0  0  0  0
  -27.2266  -28.5207   20.7118 C   0  0  0  0  0  0
  -26.0026  -26.8386   19.4835 C   0  0  0  0  0  0
  -24.8638  -27.6644   19.4813 C   0  0  0  0  0  0
  -23.6583  -29.8103   20.1600 C   0  0  0  0  0  0
  -25.4099  -36.3061   24.0341 C   0  0  1  0  0  0
  -20.5892  -28.3696   23.1257 C   0  0  2  0  0  0
  -20.6761  -26.9413   22.5404 C   0  0  0  0  0  0
  -19.5738  -26.6374   21.5205 C   0  0  0  0  0  0
  -18.1912  -26.7928   22.1611 C   0  0  0  0  0  0
  -19.1537  -28.8855   23.2869 C   0  0  0  0  0  0
  -18.9460  -30.1456   23.8888 C   0  0  0  0  0  0
  -17.6454  -30.6598   24.0535 C   0  0  0  0  0  0
  -25.9061  -34.9436   23.5101 C   0  0  0  0  0  0
  -16.5345  -29.9068   23.6340 C   0  0  0  0  0  0
  -16.7259  -28.6481   23.0370 C   0  0  0  0  0  0
  -26.4524  -31.6584   25.0754 C   0  0  0  0  0  0
  -25.3733  -31.3778   26.1479 C   0  0  0  0  0  0
  -27.0381  -30.2985   24.6312 C   0  0  0  0  0  0
  -27.6089  -32.4306   25.7527 C   0  0  0  0  0  0
  -27.5585  -37.1769   24.8453 C   0  0  0  0  0  0
  -21.4228  -29.3050   22.3662 N   0  0  0  0  0  0
  -26.4266  -37.3774   23.9443 N   0  0  0  0  0  0
  -24.7094  -31.0399   22.1001 N   0  0  0  0  0  0
  -23.4191  -28.8086   23.3028 O   0  0  0  0  0  0
  -28.2886  -26.2663   20.1781 O   0  0  0  0  0  0
  -26.5591  -34.8908   22.4650 O   0  0  0  0  0  0
  -23.5527  -32.1335   23.7245 O   0  0  0  0  0  0
  -29.3309  -19.5659   18.2161 C   0  0  0  0  0  0
  -29.5095  -18.5917   20.4363 C   0  0  0  0  0  0
  -29.4998  -18.2760   17.6580 C   0  0  0  0  0  0
  -29.2992  -19.7954   19.6168 C   0  0  0  0  0  0
  -29.7256  -17.2409   19.8939 C   0  0  0  0  0  0
  -29.6943  -17.1440   18.4828 C   0  0  0  0  0  0
  -28.1973  -24.9113   19.6819 C   0  0  0  0  0  0
  -28.6805  -23.7078   20.2199 C   0  0  0  0  0  0
  -28.5437  -22.3504   19.5320 C   0  0  0  0  0  0
  -30.5187  -18.7372   15.3369 C   0  0  0  0  0  0
  -29.3913  -18.0819   16.1451 C   0  0  0  0  0  0
  -29.1075  -21.2082   20.1228 N   0  0  0  0  0  0
  -29.8134  -15.9487   20.6568 N   0  0  0  0  0  0
  -27.9152  -22.2417   18.4776 O   0  0  0  0  0  0
  -29.3091  -23.7362   21.4014 O   0  0  0  0  0  0
  -29.7856  -15.9261   17.8994 F   0  0  0  0  0  0
  -31.4870  -12.5966   19.2042 H   0  0  0  0  0  0
  -30.3867  -11.5117   19.9980 H   0  0  0  0  0  0
  -29.8204  -11.7182   17.5567 H   0  0  0  0  0  0
  -29.6670  -13.4462   17.7113 H   0  0  0  0  0  0
  -27.8867  -11.2991   18.8909 H   0  0  0  0  0  0
  -27.4086  -12.5721   17.7903 H   0  0  0  0  0  0
  -27.6386  -14.2671   19.4723 H   0  0  0  0  0  0
  -28.7295  -12.1907   21.4258 H   0  0  0  0  0  0
  -28.4145  -13.8672   21.8018 H   0  0  0  0  0  0
  -25.2784   -9.5694   22.4678 H   0  0  0  0  0  0
  -24.0002   -7.4656   22.7448 H   0  0  0  0  0  0
  -21.0816   -8.8806   19.8909 H   0  0  0  0  0  0
  -22.3719  -10.9683   19.6099 H   0  0  0  0  0  0
  -21.2066   -7.6132   23.9691 H   0  0  0  0  0  0
  -21.1476   -6.0484   25.9042 H   0  0  0  0  0  0
  -22.0617   -2.7608   23.2751 H   0  0  0  0  0  0
  -22.4114  -11.9853   22.4739 H   0  0  0  0  0  0
  -21.1132  -13.1259   22.2661 H   0  0  0  0  0  0
  -24.6656  -15.8541   20.5438 H   0  0  0  0  0  0
  -26.2846  -15.6316   20.1098 H   0  0  0  0  0  0
  -26.7267  -32.5368   23.1076 H   0  0  0  0  0  0
  -25.0217  -33.9666   25.0491 H   0  0  0  0  0  0
  -22.7381  -31.2984   21.3959 H   0  0  0  0  0  0
  -23.3774  -35.9533   23.3242 H   0  0  0  0  0  0
  -24.3597  -36.8931   22.2074 H   0  0  0  0  0  0
  -23.7153  -37.6408   23.6683 H   0  0  0  0  0  0
  -26.1329  -31.5110   20.6205 H   0  0  0  0  0  0
  -26.8657  -30.7958   22.0213 H   0  0  0  0  0  0
  -28.1251  -28.8560   21.2085 H   0  0  0  0  0  0
  -25.8839  -25.8739   19.0167 H   0  0  0  0  0  0
  -23.9575  -27.3129   19.0081 H   0  0  0  0  0  0
  -23.7852  -30.5855   19.4030 H   0  0  0  0  0  0
  -22.7754  -29.2447   19.8562 H   0  0  0  0  0  0
  -25.1265  -36.1912   25.0827 H   0  0  0  0  0  0
  -20.9967  -28.3276   24.1386 H   0  0  0  0  0  0
  -20.5645  -26.2309   23.3611 H   0  0  0  0  0  0
  -21.6630  -26.7424   22.1225 H   0  0  0  0  0  0
  -19.6894  -25.6266   21.1288 H   0  0  0  0  0  0
  -19.6688  -27.3137   20.6700 H   0  0  0  0  0  0
  -17.4193  -26.6678   21.4004 H   0  0  0  0  0  0
  -18.0303  -26.0065   22.9005 H   0  0  0  0  0  0
  -19.7933  -30.7269   24.2266 H   0  0  0  0  0  0
  -17.5005  -31.6291   24.5114 H   0  0  0  0  0  0
  -15.5341  -30.2959   23.7677 H   0  0  0  0  0  0
  -15.8658  -28.0782   22.7114 H   0  0  0  0  0  0
  -24.5890  -30.7143   25.7815 H   0  0  0  0  0  0
  -24.8946  -32.2965   26.4864 H   0  0  0  0  0  0
  -25.8031  -30.8980   27.0284 H   0  0  0  0  0  0
  -26.3000  -29.6724   24.1295 H   0  0  0  0  0  0
  -27.3975  -29.7264   25.4878 H   0  0  0  0  0  0
  -27.8900  -30.4220   23.9630 H   0  0  0  0  0  0
  -27.2740  -33.3635   26.2054 H   0  0  0  0  0  0
  -28.3930  -32.6815   25.0376 H   0  0  0  0  0  0
  -28.0715  -31.8462   26.5490 H   0  0  0  0  0  0
  -28.2553  -38.0121   24.7604 H   0  0  0  0  0  0
  -28.1136  -36.2664   24.6131 H   0  0  0  0  0  0
  -27.2335  -37.1258   25.8861 H   0  0  0  0  0  0
  -20.9407  -29.8803   21.6901 H   0  0  0  0  0  0
  -26.0151  -38.2846   24.1466 H   0  0  0  0  0  0
  -29.2083  -20.3908   17.5293 H   0  0  0  0  0  0
  -29.4882  -18.6990   21.5118 H   0  0  0  0  0  0
  -27.6988  -24.8881   18.7231 H   0  0  0  0  0  0
  -30.4141  -18.4881   14.2793 H   0  0  0  0  0  0
  -31.4990  -18.3850   15.6594 H   0  0  0  0  0  0
  -30.5011  -19.8243   15.4153 H   0  0  0  0  0  0
  -28.4311  -18.4789   15.8118 H   0  0  0  0  0  0
  -29.3649  -17.0219   15.8940 H   0  0  0  0  0  0
  -29.4769  -21.3990   21.0443 H   0  0  0  0  0  0
  -28.9911  -15.7556   21.2067 H   0  0  0  0  0  0
  -29.3110  -24.6403   21.6888 H   0  0  0  0  0  0
  1 25  1  0  0  0
  1 30  2  0  0  0
  1 83  1  0  0  0
  2  3  1  0  0  0
  2 25  1  0  0  0
  2 87  1  0  0  0
  2 88  1  0  0  0
  3  4  1  0  0  0
  3 89  1  0  0  0
  3 90  1  0  0  0
  4  5  1  0  0  0
  4 91  1  0  0  0
  4 92  1  0  0  0
  5  6  1  0  0  0
  5 26  1  0  0  0
  5 93  1  0  0  0
  6 25  1  0  0  0
  6 94  1  0  0  0
  6 95  1  0  0  0
  7  8  2  0  0  0
  7 26  1  0  0  0
  7 29  1  0  0  0
  8  9  1  0  0  0
  8 22  1  0  0  0
  9 10  1  0  0  0
  9 27  2  0  0  0
 10 11  2  0  0  0
 10 15  1  0  0  0
 11 12  1  0  0  0
 11 96  1  0  0  0
 12 13  2  0  0  0
 12 97  1  0  0  0
 13 14  1  0  0  0
 13 31  1  0  0  0
 14 15  2  0  0  0
 14 98  1  0  0  0
 15 99  1  0  0  0
 16 17  2  0  0  0
 16 21  1  0  0  0
 16 31  1  0  0  0
 17 18  1  0  0  0
 17100  1  0  0  0
 18 19  2  0  0  0
 18101  1  0  0  0
 19 20  1  0  0  0
 19 24  1  0  0  0
 20 21  2  0  0  0
 20102  1  0  0  0
 21 23  1  0  0  0
 22 28  1  0  0  0
 22 32  2  0  0  0
 26 27  1  0  0  0
 28103  1  0  0  0
 28104  1  0  0  0
 29105  1  0  0  0
 29106  1  0  0  0
 33 34  1  0  0  0
 33 66  1  0  0  0
 33 70  2  0  0  0
 34 36  1  0  0  0
 34 59  1  0  0  0
 34107  1  0  0  0
 35 44  2  0  0  0
 35 45  1  0  0  0
 35 68  1  0  0  0
 36 56  1  0  0  0
 36108  1  0  0  0
 37 39  1  0  0  0
 37 47  1  0  0  0
 37 66  1  0  0  0
 37109  1  0  0  0
 38 43  2  0  0  0
 38 46  1  0  0  0
 38 47  1  0  0  0
 39 64  1  0  0  0
 39 67  2  0  0  0
 40 52  1  0  0  0
 40 53  2  0  0  0
 40 58  1  0  0  0
 41110  1  0  0  0
 41111  1  0  0  0
 41112  1  0  0  0
 41 48  1  0  0  0
 42 43  1  0  0  0
 42 66  1  0  0  0
 42113  1  0  0  0
 42114  1  0  0  0
 43 44  1  0  0  0
 44115  1  0  0  0
 45 46  2  0  0  0
 45116  1  0  0  0
 46117  1  0  0  0
 47118  1  0  0  0
 47119  1  0  0  0
 48 56  1  0  0  0
 48 65  1  0  0  0
 48120  1  0  0  0
 49 50  1  0  0  0
 49 53  1  0  0  0
 49 64  1  0  0  0
 49121  1  0  0  0
 50 51  1  0  0  0
 50122  1  0  0  0
 50123  1  0  0  0
 51 52  1  0  0  0
 51124  1  0  0  0
 51125  1  0  0  0
 52126  1  0  0  0
 52127  1  0  0  0
 53 54  1  0  0  0
 54 55  2  0  0  0
 54128  1  0  0  0
 55 57  1  0  0  0
 55129  1  0  0  0
 56 69  2  0  0  0
 57 58  2  0  0  0
 57130  1  0  0  0
 58131  1  0  0  0
 59 60  1  0  0  0
 59 61  1  0  0  0
 59 62  1  0  0  0
 60132  1  0  0  0
 60133  1  0  0  0
 60134  1  0  0  0
 61135  1  0  0  0
 61136  1  0  0  0
 61137  1  0  0  0
 62138  1  0  0  0
 62139  1  0  0  0
 62140  1  0  0  0
 63 65  1  0  0  0
 63141  1  0  0  0
 63142  1  0  0  0
 63143  1  0  0  0
 64144  1  0  0  0
 65145  1  0  0  0
 68 77  1  0  0  0
 71 73  2  0  0  0
 71 74  1  0  0  0
 71146  1  0  0  0
 72 74  2  0  0  0
 72 75  1  0  0  0
 72147  1  0  0  0
 73 76  1  0  0  0
 73 81  1  0  0  0
 74 82  1  0  0  0
 75 76  2  0  0  0
 75 83  1  0  0  0
 76 86  1  0  0  0
 77 78  2  0  0  0
 77148  1  0  0  0
 78 79  1  0  0  0
 78 85  1  0  0  0
 79 82  1  0  0  0
 79 84  2  0  0  0
 80 81  1  0  0  0
 80149  1  0  0  0
 80150  1  0  0  0
 80151  1  0  0  0
 81152  1  0  0  0
 81153  1  0  0  0
 82154  1  0  0  0
 83155  1  0  0  0
 85156  1  0  0  0
M  ISO  4   1 100  68 101  77 101  83 100
M  END
> <chiral flag>
0

> <version>
0

> <s_m_source_file>
/data/baiqing/PycharmProjects/Reinvent-master-3.2/result/LINK_invent/BTK/process_docking_weight1_custom_product_contain_oxygen_bond_distance_aromatic_linkinvent_7_9_3/rearranged_h_0181.sdf

> <i_m_source_file_index>
70

> <r_mmod_Potential_Energy-OPLS-2005>
182.957168579102

> <r_mmod_Stretch_Energy-OPLS-2005>
159.537948608398

> <r_mmod_Bend_Energy-OPLS-2005>
171.300079345703

> <r_mmod_Torsional_Energy-OPLS-2005>
247.954360961914

> <r_mmod_Improper_Torsional_Energy-OPLS-2005>
5.57214689254761

> <r_mmod_Van_der_Waal_Energy-OPLS-2005>
144.360015869141

> <r_mmod_Electrostatic_Energy-OPLS-2005>
-441.704559326172

> <r_mmod_Solvation_Energy-OPLS-2005>
-223.321319580078

> <b_mmod_Minimization_Converged-OPLS-2005>
0

> <r_mmod_RMS_Derivative-OPLS-2005>
3.73511123657227

$$$$
71
                    3D
 Structure written by MMmdl.
164172  0  0  1  0            999 V2000
  -30.7139  -14.4869   20.5727 C   0  0  0  0  0  0
  -30.4179  -12.3081   19.4553 C   0  0  0  0  0  0
  -29.5058  -12.5072   18.2271 C   0  0  0  0  0  0
  -28.0232  -12.3737   18.6258 C   0  0  0  0  0  0
  -27.6618  -13.2169   19.8776 C   0  0  2  0  0  0
  -28.6976  -13.0250   21.0086 C   0  0  0  0  0  0
  -25.2573  -13.8183   20.5702 C   0  0  0  0  0  0
  -24.1827  -13.0448   20.9177 C   0  0  0  0  0  0
  -24.6396  -11.6919   20.8729 C   0  0  0  0  0  0
  -23.9064  -10.4303   21.0401 C   0  0  0  0  0  0
  -24.3616   -9.4215   21.9179 C   0  0  0  0  0  0
  -23.6292   -8.2251   22.0751 C   0  0  0  0  0  0
  -22.4273   -8.0289   21.3545 C   0  0  0  0  0  0
  -21.9910   -9.0263   20.4646 C   0  0  0  0  0  0
  -22.7238  -10.2137   20.3054 C   0  0  0  0  0  0
  -21.6857   -6.0734   22.5277 C   0  0  0  0  0  0
  -21.4008   -6.5636   23.8211 C   0  0  0  0  0  0
  -21.3662   -5.6789   24.9177 C   0  0  0  0  0  0
  -21.6055   -4.3056   24.7226 C   0  0  0  0  0  0
  -21.8816   -3.8140   23.4348 C   0  0  0  0  0  0
  -21.9187   -4.6956   22.3399 C   0  0  0  0  0  0
  -22.7848  -13.5238   21.1828 C   0  0  0  0  0  0
  -22.1658   -4.2146   21.0978 F   0  0  0  0  0  0
  -21.5638   -3.4533   25.7736 F   0  0  0  0  0  0
  -30.0349  -13.3101   20.4671 N   0  0  0  0  0  0
  -26.3020  -12.9377   20.3370 N   0  0  0  0  0  0
  -25.9330  -11.6522   20.5760 N   0  0  0  0  0  0
  -22.0480  -12.8255   22.0395 N   0  0  0  0  0  0
  -25.4285  -15.1897   20.4143 N   0  0  0  0  0  0
  -31.8379  -14.6088   20.0886 O   0  0  0  0  0  0
  -21.6637   -6.8881   21.4243 O   0  0  0  0  0  0
  -22.3539  -14.5550   20.6679 O   0  0  0  0  0  0
  -24.6151  -31.8676   23.2106 C   0  0  0  0  0  0
  -25.9039  -32.4817   23.8405 C   0  0  1  0  0  0
  -27.2200  -27.4191   20.1117 C   0  0  0  0  0  0
  -25.5887  -33.8622   24.2325 N   0  0  0  0  0  0
  -23.4027  -30.4926   21.5502 C   0  0  2  0  0  0
  -24.8487  -28.9567   20.1157 C   0  0  0  0  0  0
  -22.7421  -29.4653   22.4976 C   0  0  0  0  0  0
  -18.0277  -28.1372   22.8507 C   0  0  0  0  0  0
  -24.1475  -36.7320   23.2639 C   0  0  0  0  0  0
  -25.9333  -30.8279   21.3667 C   0  0  0  0  0  0
  -26.0084  -29.4596   20.7200 C   0  0  0  0  0  0
  -27.2005  -28.6973   20.7170 C   0  0  0  0  0  0
  -26.0531  -26.9448   19.4799 C   0  0  0  0  0  0
  -24.8653  -27.6980   19.4923 C   0  0  0  0  0  0
  -23.6125  -29.8267   20.1636 C   0  0  0  0  0  0
  -25.4097  -36.3119   24.0341 C   0  0  1  0  0  0
  -20.5875  -28.3653   23.1311 C   0  0  2  0  0  0
  -20.6755  -26.9384   22.5412 C   0  0  0  0  0  0
  -19.5728  -26.6378   21.5211 C   0  0  0  0  0  0
  -18.1913  -26.7920   22.1630 C   0  0  0  0  0  0
  -19.1526  -28.8835   23.2909 C   0  0  0  0  0  0
  -18.9448  -30.1446   23.8911 C   0  0  0  0  0  0
  -17.6446  -30.6578   24.0569 C   0  0  0  0  0  0
  -25.9024  -34.9477   23.5134 C   0  0  0  0  0  0
  -16.5341  -29.9076   23.6327 C   0  0  0  0  0  0
  -16.7265  -28.6495   23.0350 C   0  0  0  0  0  0
  -26.4465  -31.6598   25.0731 C   0  0  0  0  0  0
  -25.3745  -31.3695   26.1483 C   0  0  0  0  0  0
  -27.0278  -30.3039   24.6097 C   0  0  0  0  0  0
  -27.6039  -32.4313   25.7493 C   0  0  0  0  0  0
  -27.5576  -37.1819   24.8473 C   0  0  0  0  0  0
  -21.4149  -29.3022   22.3726 N   0  0  0  0  0  0
  -26.4291  -37.3801   23.9416 N   0  0  0  0  0  0
  -24.6680  -31.0784   22.1002 N   0  0  0  0  0  0
  -23.4198  -28.8185   23.3005 O   0  0  0  0  0  0
  -28.3678  -26.6588   20.0770 O   0  0  0  0  0  0
  -26.5587  -34.8930   22.4693 O   0  0  0  0  0  0
  -23.5341  -32.1414   23.7503 O   0  0  0  0  0  0
  -29.2058  -20.1164   22.9257 C   0  0  0  0  0  0
  -29.7135  -18.7783   22.6538 C   0  0  0  0  0  0
  -28.8210  -20.8071   21.7815 C   0  0  0  0  0  0
  -29.6077  -18.4361   21.3218 C   0  0  0  0  0  0
  -29.1752  -20.7601   24.2526 C   0  0  0  0  0  0
  -28.5063  -22.9768   20.6841 C   0  0  0  0  0  0
  -30.3432  -17.8623   23.6728 C   0  0  0  0  0  0
  -28.8158  -19.8876   25.4500 C   0  0  0  0  0  0
  -26.3554  -24.1389   21.5017 C   0  0  0  0  0  0
  -29.0685  -16.8761   18.9999 C   0  0  0  0  0  0
  -28.4519  -25.5771   21.0293 C   0  0  0  0  0  0
  -27.6560  -24.2762   20.6809 C   0  0  1  0  0  0
  -30.0149  -15.5696   21.1406 N   0  0  0  0  0  0
  -28.3146  -22.0762   21.6758 N   0  0  0  0  0  0
  -29.3526  -21.9649   24.4613 O   0  0  0  0  0  0
  -29.3338  -22.8068   19.7846 O   0  0  0  0  0  0
  -31.5243  -17.4058   19.9251 O   0  0  0  0  0  0
  -28.9688  -19.7607   20.3872 S   0  0  0  0  0  0
  -30.2061  -16.9781   20.4280 S   0  0  1  0  0  0
  -31.4665  -12.3772   19.1610 H   0  0  0  0  0  0
  -30.2956  -11.3027   19.8612 H   0  0  0  0  0  0
  -29.7509  -11.7765   17.4555 H   0  0  0  0  0  0
  -29.6852  -13.4902   17.7880 H   0  0  0  0  0  0
  -27.8301  -11.3188   18.8210 H   0  0  0  0  0  0
  -27.3813  -12.6490   17.7891 H   0  0  0  0  0  0
  -27.7013  -14.2627   19.5765 H   0  0  0  0  0  0
  -28.6665  -12.0010   21.3834 H   0  0  0  0  0  0
  -28.4569  -13.6592   21.8633 H   0  0  0  0  0  0
  -25.2763   -9.5691   22.4760 H   0  0  0  0  0  0
  -24.0001   -7.4641   22.7479 H   0  0  0  0  0  0
  -21.0836   -8.8787   19.8964 H   0  0  0  0  0  0
  -22.3697  -10.9680   19.6164 H   0  0  0  0  0  0
  -21.1995   -7.6138   23.9714 H   0  0  0  0  0  0
  -21.1497   -6.0515   25.9077 H   0  0  0  0  0  0
  -22.0591   -2.7604   23.2841 H   0  0  0  0  0  0
  -22.4072  -11.9911   22.4799 H   0  0  0  0  0  0
  -21.1095  -13.1300   22.2589 H   0  0  0  0  0  0
  -24.6702  -15.8517   20.5360 H   0  0  0  0  0  0
  -26.2992  -15.6242   20.1395 H   0  0  0  0  0  0
  -26.7112  -32.5524   23.1171 H   0  0  0  0  0  0
  -25.0061  -33.9782   25.0485 H   0  0  0  0  0  0
  -22.6921  -31.3100   21.4126 H   0  0  0  0  0  0
  -23.3723  -35.9670   23.3336 H   0  0  0  0  0  0
  -24.3572  -36.8890   22.2049 H   0  0  0  0  0  0
  -23.7238  -37.6544   23.6622 H   0  0  0  0  0  0
  -26.0470  -31.5888   20.5937 H   0  0  0  0  0  0
  -26.8222  -30.8833   21.9836 H   0  0  0  0  0  0
  -28.0981  -29.0809   21.1823 H   0  0  0  0  0  0
  -26.0529  -25.9907   18.9764 H   0  0  0  0  0  0
  -23.9781  -27.3117   19.0099 H   0  0  0  0  0  0
  -23.7272  -30.6019   19.4049 H   0  0  0  0  0  0
  -22.7351  -29.2516   19.8628 H   0  0  0  0  0  0
  -25.1273  -36.1990   25.0838 H   0  0  0  0  0  0
  -20.9983  -28.3205   24.1424 H   0  0  0  0  0  0
  -20.5646  -26.2258   23.3600 H   0  0  0  0  0  0
  -21.6622  -26.7406   22.1208 H   0  0  0  0  0  0
  -19.6869  -25.6292   21.1225 H   0  0  0  0  0  0
  -19.6655  -27.3204   20.6759 H   0  0  0  0  0  0
  -17.4177  -26.6685   21.4036 H   0  0  0  0  0  0
  -18.0310  -26.0053   22.9022 H   0  0  0  0  0  0
  -19.7921  -30.7279   24.2264 H   0  0  0  0  0  0
  -17.4988  -31.6255   24.5169 H   0  0  0  0  0  0
  -15.5337  -30.2973   23.7640 H   0  0  0  0  0  0
  -15.8668  -28.0819   22.7037 H   0  0  0  0  0  0
  -24.5918  -30.7029   25.7837 H   0  0  0  0  0  0
  -24.8929  -32.2840   26.4961 H   0  0  0  0  0  0
  -25.8117  -30.8860   27.0225 H   0  0  0  0  0  0
  -26.2801  -29.6819   24.1151 H   0  0  0  0  0  0
  -27.4041  -29.7266   25.4555 H   0  0  0  0  0  0
  -27.8657  -30.4363   23.9242 H   0  0  0  0  0  0
  -27.2649  -33.3595   26.2111 H   0  0  0  0  0  0
  -28.3828  -32.6894   25.0304 H   0  0  0  0  0  0
  -28.0723  -31.8405   26.5376 H   0  0  0  0  0  0
  -28.2617  -38.0096   24.7500 H   0  0  0  0  0  0
  -28.1043  -36.2628   24.6314 H   0  0  0  0  0  0
  -27.2304  -37.1497   25.8880 H   0  0  0  0  0  0
  -20.9296  -29.8775   21.6983 H   0  0  0  0  0  0
  -26.0179  -38.2883   24.1402 H   0  0  0  0  0  0
  -29.5905  -17.3132   24.2384 H   0  0  0  0  0  0
  -30.9628  -18.4134   24.3803 H   0  0  0  0  0  0
  -31.0047  -17.1245   23.2189 H   0  0  0  0  0  0
  -28.2313  -19.0228   25.1389 H   0  0  0  0  0  0
  -28.2214  -20.4590   26.1624 H   0  0  0  0  0  0
  -29.7178  -19.5491   25.9585 H   0  0  0  0  0  0
  -26.5568  -24.1128   22.5735 H   0  0  0  0  0  0
  -25.8069  -23.2344   21.2347 H   0  0  0  0  0  0
  -25.6831  -24.9763   21.3205 H   0  0  0  0  0  0
  -28.0456  -16.8267   19.3649 H   0  0  0  0  0  0
  -29.2953  -15.9918   18.4125 H   0  0  0  0  0  0
  -29.1886  -17.7558   18.3723 H   0  0  0  0  0  0
  -29.5131  -25.3385   21.1152 H   0  0  0  0  0  0
  -28.1696  -25.9431   22.0183 H   0  0  0  0  0  0
  -27.3592  -24.3557   19.6360 H   0  0  0  0  0  0
  -27.7299  -22.3942   22.4374 H   0  0  0  0  0  0
  1 25  1  0  0  0
  1 30  2  0  0  0
  1 83  1  0  0  0
  2  3  1  0  0  0
  2 25  1  0  0  0
  2 90  1  0  0  0
  2 91  1  0  0  0
  3  4  1  0  0  0
  3 92  1  0  0  0
  3 93  1  0  0  0
  4  5  1  0  0  0
  4 94  1  0  0  0
  4 95  1  0  0  0
  5  6  1  0  0  0
  5 26  1  0  0  0
  5 96  1  0  0  0
  6 25  1  0  0  0
  6 97  1  0  0  0
  6 98  1  0  0  0
  7  8  2  0  0  0
  7 26  1  0  0  0
  7 29  1  0  0  0
  8  9  1  0  0  0
  8 22  1  0  0  0
  9 10  1  0  0  0
  9 27  2  0  0  0
 10 11  2  0  0  0
 10 15  1  0  0  0
 11 12  1  0  0  0
 11 99  1  0  0  0
 12 13  2  0  0  0
 12100  1  0  0  0
 13 14  1  0  0  0
 13 31  1  0  0  0
 14 15  2  0  0  0
 14101  1  0  0  0
 15102  1  0  0  0
 16 17  2  0  0  0
 16 21  1  0  0  0
 16 31  1  0  0  0
 17 18  1  0  0  0
 17103  1  0  0  0
 18 19  2  0  0  0
 18104  1  0  0  0
 19 20  1  0  0  0
 19 24  1  0  0  0
 20 21  2  0  0  0
 20105  1  0  0  0
 21 23  1  0  0  0
 22 28  1  0  0  0
 22 32  2  0  0  0
 26 27  1  0  0  0
 28106  1  0  0  0
 28107  1  0  0  0
 29108  1  0  0  0
 29109  1  0  0  0
 33 34  1  0  0  0
 33 66  1  0  0  0
 33 70  2  0  0  0
 34 36  1  0  0  0
 34 59  1  0  0  0
 34110  1  0  0  0
 35 44  2  0  0  0
 35 45  1  0  0  0
 35 68  1  0  0  0
 36 56  1  0  0  0
 36111  1  0  0  0
 37 39  1  0  0  0
 37 47  1  0  0  0
 37 66  1  0  0  0
 37112  1  0  0  0
 38 43  2  0  0  0
 38 46  1  0  0  0
 38 47  1  0  0  0
 39 64  1  0  0  0
 39 67  2  0  0  0
 40 52  1  0  0  0
 40 53  2  0  0  0
 40 58  1  0  0  0
 41113  1  0  0  0
 41114  1  0  0  0
 41115  1  0  0  0
 41 48  1  0  0  0
 42 43  1  0  0  0
 42 66  1  0  0  0
 42116  1  0  0  0
 42117  1  0  0  0
 43 44  1  0  0  0
 44118  1  0  0  0
 45 46  2  0  0  0
 45119  1  0  0  0
 46120  1  0  0  0
 47121  1  0  0  0
 47122  1  0  0  0
 48 56  1  0  0  0
 48 65  1  0  0  0
 48123  1  0  0  0
 49 50  1  0  0  0
 49 53  1  0  0  0
 49 64  1  0  0  0
 49124  1  0  0  0
 50 51  1  0  0  0
 50125  1  0  0  0
 50126  1  0  0  0
 51 52  1  0  0  0
 51127  1  0  0  0
 51128  1  0  0  0
 52129  1  0  0  0
 52130  1  0  0  0
 53 54  1  0  0  0
 54 55  2  0  0  0
 54131  1  0  0  0
 55 57  1  0  0  0
 55132  1  0  0  0
 56 69  2  0  0  0
 57 58  2  0  0  0
 57133  1  0  0  0
 58134  1  0  0  0
 59 60  1  0  0  0
 59 61  1  0  0  0
 59 62  1  0  0  0
 60135  1  0  0  0
 60136  1  0  0  0
 60137  1  0  0  0
 61138  1  0  0  0
 61139  1  0  0  0
 61140  1  0  0  0
 62141  1  0  0  0
 62142  1  0  0  0
 62143  1  0  0  0
 63 65  1  0  0  0
 63144  1  0  0  0
 63145  1  0  0  0
 63146  1  0  0  0
 64147  1  0  0  0
 65148  1  0  0  0
 68 81  1  0  0  0
 71 72  1  0  0  0
 71 73  2  0  0  0
 71 75  1  0  0  0
 72 74  2  0  0  0
 72 77  1  0  0  0
 73 84  1  0  0  0
 73 88  1  0  0  0
 74 88  1  0  0  0
 74 89  1  0  0  0
 75 78  1  0  0  0
 75 85  2  0  0  0
 76 82  1  0  0  0
 76 84  1  0  0  0
 76 86  2  0  0  0
 77149  1  0  0  0
 77150  1  0  0  0
 77151  1  0  0  0
 78152  1  0  0  0
 78153  1  0  0  0
 78154  1  0  0  0
 79155  1  0  0  0
 79156  1  0  0  0
 79157  1  0  0  0
 79 82  1  0  0  0
 80158  1  0  0  0
 80159  1  0  0  0
 80160  1  0  0  0
 80 89  1  0  0  0
 81 82  1  0  0  0
 81161  1  0  0  0
 81162  1  0  0  0
 82163  1  0  0  0
 83 89  2  0  0  0
 84164  1  0  0  0
 87 89  2  0  0  0
M  ISO  4   1 100  68 101  81 101  83 100
M  END
> <chiral flag>
0

> <version>
0

> <s_m_source_file>
/data/baiqing/PycharmProjects/Reinvent-master-3.2/result/LINK_invent/BTK/process_docking_weight1_custom_product_contain_oxygen_bond_distance_aromatic_linkinvent_7_9_3/rearranged_h_0181.sdf

> <i_m_source_file_index>
71

> <r_mmod_Potential_Energy-OPLS-2005>
-115.433250427246

> <r_mmod_Stretch_Energy-OPLS-2005>
44.3013153076172

> <r_mmod_Bend_Energy-OPLS-2005>
111.373336791992

> <r_mmod_Torsional_Energy-OPLS-2005>
259.79541015625

> <r_mmod_Improper_Torsional_Energy-OPLS-2005>
4.58329916000366

> <r_mmod_Van_der_Waal_Energy-OPLS-2005>
127.27848815918

> <r_mmod_Electrostatic_Energy-OPLS-2005>
-428.186462402344

> <r_mmod_Solvation_Energy-OPLS-2005>
-249.570114135742

> <b_mmod_Minimization_Converged-OPLS-2005>
0

> <r_mmod_RMS_Derivative-OPLS-2005>
1.96041929721832

$$$$
72
                    3D
 Structure written by MMmdl.
157165  0  0  1  0            999 V2000
  -30.7155  -14.4357   20.6162 C   0  0  0  0  0  0
  -30.4321  -12.3035   19.4023 C   0  0  0  0  0  0
  -29.4953  -12.5148   18.1951 C   0  0  0  0  0  0
  -28.0151  -12.3782   18.6081 C   0  0  0  0  0  0
  -27.6684  -13.2015   19.8769 C   0  0  2  0  0  0
  -28.7108  -12.9446   20.9909 C   0  0  0  0  0  0
  -25.2625  -13.8150   20.5673 C   0  0  0  0  0  0
  -24.1874  -13.0450   20.9180 C   0  0  0  0  0  0
  -24.6405  -11.6911   20.8738 C   0  0  0  0  0  0
  -23.9052  -10.4297   21.0409 C   0  0  0  0  0  0
  -24.3602   -9.4206   21.9185 C   0  0  0  0  0  0
  -23.6281   -8.2226   22.0735 C   0  0  0  0  0  0
  -22.4270   -8.0272   21.3520 C   0  0  0  0  0  0
  -21.9907   -9.0252   20.4636 C   0  0  0  0  0  0
  -22.7223  -10.2137   20.3051 C   0  0  0  0  0  0
  -21.6844   -6.0737   22.5278 C   0  0  0  0  0  0
  -21.4005   -6.5632   23.8218 C   0  0  0  0  0  0
  -21.3662   -5.6782   24.9171 C   0  0  0  0  0  0
  -21.6042   -4.3038   24.7217 C   0  0  0  0  0  0
  -21.8820   -3.8146   23.4337 C   0  0  0  0  0  0
  -21.9187   -4.6969   22.3401 C   0  0  0  0  0  0
  -22.7897  -13.5264   21.1831 C   0  0  0  0  0  0
  -22.1664   -4.2155   21.0974 F   0  0  0  0  0  0
  -21.5626   -3.4523   25.7736 F   0  0  0  0  0  0
  -30.0455  -13.2629   20.4489 N   0  0  0  0  0  0
  -26.3061  -12.9311   20.3359 N   0  0  0  0  0  0
  -25.9323  -11.6476   20.5727 N   0  0  0  0  0  0
  -22.0491  -12.8287   22.0393 N   0  0  0  0  0  0
  -25.4359  -15.1863   20.4069 N   0  0  0  0  0  0
  -31.7991  -14.6711   20.0756 O   0  0  0  0  0  0
  -21.6618   -6.8882   21.4242 O   0  0  0  0  0  0
  -22.3607  -14.5571   20.6674 O   0  0  0  0  0  0
  -24.6165  -31.8676   23.2117 C   0  0  0  0  0  0
  -25.9063  -32.4826   23.8404 C   0  0  1  0  0  0
  -27.2453  -27.4391   20.0738 C   0  0  0  0  0  0
  -25.5915  -33.8629   24.2339 N   0  0  0  0  0  0
  -23.4048  -30.4928   21.5513 C   0  0  2  0  0  0
  -24.8506  -28.9582   20.1169 C   0  0  0  0  0  0
  -22.7417  -29.4660   22.4983 C   0  0  0  0  0  0
  -18.0276  -28.1387   22.8493 C   0  0  0  0  0  0
  -24.1483  -36.7309   23.2641 C   0  0  0  0  0  0
  -25.9350  -30.8309   21.3664 C   0  0  0  0  0  0
  -26.0103  -29.4647   20.7141 C   0  0  0  0  0  0
  -27.2050  -28.7084   20.6977 C   0  0  0  0  0  0
  -26.0584  -26.9432   19.4814 C   0  0  0  0  0  0
  -24.8675  -27.6923   19.5063 C   0  0  0  0  0  0
  -23.6160  -29.8289   20.1645 C   0  0  0  0  0  0
  -25.4105  -36.3122   24.0350 C   0  0  1  0  0  0
  -20.5868  -28.3678   23.1317 C   0  0  2  0  0  0
  -20.6774  -26.9419   22.5415 C   0  0  0  0  0  0
  -19.5746  -26.6393   21.5217 C   0  0  0  0  0  0
  -18.1924  -26.7933   22.1626 C   0  0  0  0  0  0
  -19.1529  -28.8852   23.2901 C   0  0  0  0  0  0
  -18.9458  -30.1455   23.8914 C   0  0  0  0  0  0
  -17.6460  -30.6593   24.0577 C   0  0  0  0  0  0
  -25.9036  -34.9481   23.5135 C   0  0  0  0  0  0
  -16.5350  -29.9103   23.6325 C   0  0  0  0  0  0
  -16.7269  -28.6520   23.0345 C   0  0  0  0  0  0
  -26.4483  -31.6614   25.0735 C   0  0  0  0  0  0
  -25.3757  -31.3734   26.1496 C   0  0  0  0  0  0
  -27.0309  -30.3060   24.6108 C   0  0  0  0  0  0
  -27.6055  -32.4342   25.7481 C   0  0  0  0  0  0
  -27.5584  -37.1807   24.8467 C   0  0  0  0  0  0
  -21.4147  -29.3040   22.3719 N   0  0  0  0  0  0
  -26.4289  -37.3811   23.9416 N   0  0  0  0  0  0
  -24.6706  -31.0777   22.1020 N   0  0  0  0  0  0
  -23.4194  -28.8210   23.3034 O   0  0  0  0  0  0
  -28.4367  -26.7347   20.0841 O   0  0  0  0  0  0
  -26.5587  -34.8935   22.4690 O   0  0  0  0  0  0
  -23.5353  -32.1422   23.7508 O   0  0  0  0  0  0
  -30.3260  -17.3052   22.8099 C   0  0  0  0  0  0
  -30.4046  -16.7025   21.5815 C   0  0  0  0  0  0
  -30.7308  -17.6169   20.5292 C   0  0  0  0  0  0
  -30.9378  -18.9089   20.9565 C   0  0  0  0  0  0
  -30.3416  -22.3429   19.7257 C   0  0  0  0  0  0
  -32.9135  -20.2528   20.2061 C   0  0  0  0  0  0
  -29.9318  -23.6818   20.3763 C   0  0  0  0  0  0
  -29.9626  -24.9247   19.4348 C   0  0  0  0  0  0
  -28.5961  -25.6118   19.2081 C   0  0  0  0  0  0
  -31.3851  -20.0949   20.1396 C   0  0  2  0  0  0
  -30.0979  -15.3251   21.4129 N   0  0  0  0  0  0
  -30.7611  -21.3638   20.5483 N   0  0  0  0  0  0
  -30.3023  -22.2007   18.5016 O   0  0  0  0  0  0
  -30.8027  -17.2550   19.2689 F   0  0  0  0  0  0
  -30.7168  -19.0059   22.6947 S   0  0  0  0  0  0
  -31.4728  -12.4195   19.0947 H   0  0  0  0  0  0
  -30.3443  -11.2842   19.7807 H   0  0  0  0  0  0
  -29.7310  -11.7955   17.4116 H   0  0  0  0  0  0
  -29.6685  -13.5026   17.7639 H   0  0  0  0  0  0
  -27.8170  -11.3217   18.7873 H   0  0  0  0  0  0
  -27.3694  -12.6704   17.7790 H   0  0  0  0  0  0
  -27.7247  -14.2538   19.5995 H   0  0  0  0  0  0
  -28.6882  -11.8944   21.2877 H   0  0  0  0  0  0
  -28.4613  -13.4992   21.8958 H   0  0  0  0  0  0
  -25.2746   -9.5679   22.4770 H   0  0  0  0  0  0
  -23.9984   -7.4612   22.7460 H   0  0  0  0  0  0
  -21.0821   -8.8789   19.8958 H   0  0  0  0  0  0
  -22.3678  -10.9684   19.6163 H   0  0  0  0  0  0
  -21.1991   -7.6140   23.9731 H   0  0  0  0  0  0
  -21.1487   -6.0501   25.9082 H   0  0  0  0  0  0
  -22.0596   -2.7613   23.2831 H   0  0  0  0  0  0
  -22.4050  -11.9964   22.4871 H   0  0  0  0  0  0
  -21.1106  -13.1351   22.2518 H   0  0  0  0  0  0
  -24.6731  -15.8460   20.5082 H   0  0  0  0  0  0
  -26.2851  -15.6173   20.0635 H   0  0  0  0  0  0
  -26.7140  -32.5533   23.1167 H   0  0  0  0  0  0
  -25.0104  -33.9795   25.0512 H   0  0  0  0  0  0
  -22.6946  -31.3106   21.4134 H   0  0  0  0  0  0
  -23.3749  -35.9635   23.3307 H   0  0  0  0  0  0
  -24.3582  -36.8909   22.2052 H   0  0  0  0  0  0
  -23.7222  -37.6517   23.6640 H   0  0  0  0  0  0
  -26.0493  -31.5968   20.5987 H   0  0  0  0  0  0
  -26.8235  -30.8828   21.9840 H   0  0  0  0  0  0
  -28.1017  -29.1022   21.1561 H   0  0  0  0  0  0
  -26.0191  -25.9787   18.9995 H   0  0  0  0  0  0
  -23.9735  -27.2879   19.0518 H   0  0  0  0  0  0
  -23.7412  -30.6059   19.4094 H   0  0  0  0  0  0
  -22.7366  -29.2595   19.8589 H   0  0  0  0  0  0
  -25.1278  -36.1980   25.0844 H   0  0  0  0  0  0
  -20.9971  -28.3250   24.1435 H   0  0  0  0  0  0
  -20.5690  -26.2294   23.3606 H   0  0  0  0  0  0
  -21.6649  -26.7475   22.1203 H   0  0  0  0  0  0
  -19.6907  -25.6306   21.1246 H   0  0  0  0  0  0
  -19.6675  -27.3210   20.6751 H   0  0  0  0  0  0
  -17.4199  -26.6694   21.4020 H   0  0  0  0  0  0
  -18.0309  -26.0076   22.9022 H   0  0  0  0  0  0
  -19.7937  -30.7265   24.2292 H   0  0  0  0  0  0
  -17.5022  -31.6271   24.5177 H   0  0  0  0  0  0
  -15.5359  -30.3020   23.7631 H   0  0  0  0  0  0
  -15.8665  -28.0855   22.7045 H   0  0  0  0  0  0
  -24.5907  -30.7110   25.7845 H   0  0  0  0  0  0
  -24.8983  -32.2901   26.4964 H   0  0  0  0  0  0
  -25.8117  -30.8887   27.0239 H   0  0  0  0  0  0
  -26.2850  -29.6820   24.1182 H   0  0  0  0  0  0
  -27.4111  -29.7306   25.4554 H   0  0  0  0  0  0
  -27.8668  -30.4391   23.9240 H   0  0  0  0  0  0
  -27.2673  -33.3627   26.2093 H   0  0  0  0  0  0
  -28.3830  -32.6937   25.0286 H   0  0  0  0  0  0
  -28.0767  -31.8460   26.5364 H   0  0  0  0  0  0
  -28.2616  -38.0098   24.7537 H   0  0  0  0  0  0
  -28.1074  -36.2634   24.6262 H   0  0  0  0  0  0
  -27.2313  -37.1431   25.8878 H   0  0  0  0  0  0
  -20.9320  -29.8768   21.6937 H   0  0  0  0  0  0
  -26.0177  -38.2886   24.1435 H   0  0  0  0  0  0
  -30.0921  -16.8688   23.7740 H   0  0  0  0  0  0
  -33.4136  -19.3783   19.7875 H   0  0  0  0  0  0
  -33.2602  -20.3647   21.2333 H   0  0  0  0  0  0
  -33.2531  -21.1242   19.6457 H   0  0  0  0  0  0
  -30.6016  -23.8709   21.2165 H   0  0  0  0  0  0
  -28.9411  -23.5529   20.8140 H   0  0  0  0  0  0
  -30.3661  -24.6578   18.4575 H   0  0  0  0  0  0
  -30.6748  -25.6557   19.8186 H   0  0  0  0  0  0
  -27.8021  -24.8750   19.3255 H   0  0  0  0  0  0
  -28.5456  -25.9765   18.1809 H   0  0  0  0  0  0
  -31.1221  -19.8941   19.0999 H   0  0  0  0  0  0
  -29.2855  -14.9826   21.9010 H   0  0  0  0  0  0
  -30.7233  -21.5551   21.5394 H   0  0  0  0  0  0
  1 25  1  0  0  0
  1 30  2  0  0  0
  1 81  1  0  0  0
  2  3  1  0  0  0
  2 25  1  0  0  0
  2 86  1  0  0  0
  2 87  1  0  0  0
  3  4  1  0  0  0
  3 88  1  0  0  0
  3 89  1  0  0  0
  4  5  1  0  0  0
  4 90  1  0  0  0
  4 91  1  0  0  0
  5  6  1  0  0  0
  5 26  1  0  0  0
  5 92  1  0  0  0
  6 25  1  0  0  0
  6 93  1  0  0  0
  6 94  1  0  0  0
  7  8  2  0  0  0
  7 26  1  0  0  0
  7 29  1  0  0  0
  8  9  1  0  0  0
  8 22  1  0  0  0
  9 10  1  0  0  0
  9 27  2  0  0  0
 10 11  2  0  0  0
 10 15  1  0  0  0
 11 12  1  0  0  0
 11 95  1  0  0  0
 12 13  2  0  0  0
 12 96  1  0  0  0
 13 14  1  0  0  0
 13 31  1  0  0  0
 14 15  2  0  0  0
 14 97  1  0  0  0
 15 98  1  0  0  0
 16 17  2  0  0  0
 16 21  1  0  0  0
 16 31  1  0  0  0
 17 18  1  0  0  0
 17 99  1  0  0  0
 18 19  2  0  0  0
 18100  1  0  0  0
 19 20  1  0  0  0
 19 24  1  0  0  0
 20 21  2  0  0  0
 20101  1  0  0  0
 21 23  1  0  0  0
 22 28  1  0  0  0
 22 32  2  0  0  0
 26 27  1  0  0  0
 28102  1  0  0  0
 28103  1  0  0  0
 29104  1  0  0  0
 29105  1  0  0  0
 33 34  1  0  0  0
 33 66  1  0  0  0
 33 70  2  0  0  0
 34 36  1  0  0  0
 34 59  1  0  0  0
 34106  1  0  0  0
 35 44  2  0  0  0
 35 45  1  0  0  0
 35 68  1  0  0  0
 36 56  1  0  0  0
 36107  1  0  0  0
 37 39  1  0  0  0
 37 47  1  0  0  0
 37 66  1  0  0  0
 37108  1  0  0  0
 38 43  2  0  0  0
 38 46  1  0  0  0
 38 47  1  0  0  0
 39 64  1  0  0  0
 39 67  2  0  0  0
 40 52  1  0  0  0
 40 53  2  0  0  0
 40 58  1  0  0  0
 41109  1  0  0  0
 41110  1  0  0  0
 41111  1  0  0  0
 41 48  1  0  0  0
 42 43  1  0  0  0
 42 66  1  0  0  0
 42112  1  0  0  0
 42113  1  0  0  0
 43 44  1  0  0  0
 44114  1  0  0  0
 45 46  2  0  0  0
 45115  1  0  0  0
 46116  1  0  0  0
 47117  1  0  0  0
 47118  1  0  0  0
 48 56  1  0  0  0
 48 65  1  0  0  0
 48119  1  0  0  0
 49 50  1  0  0  0
 49 53  1  0  0  0
 49 64  1  0  0  0
 49120  1  0  0  0
 50 51  1  0  0  0
 50121  1  0  0  0
 50122  1  0  0  0
 51 52  1  0  0  0
 51123  1  0  0  0
 51124  1  0  0  0
 52125  1  0  0  0
 52126  1  0  0  0
 53 54  1  0  0  0
 54 55  2  0  0  0
 54127  1  0  0  0
 55 57  1  0  0  0
 55128  1  0  0  0
 56 69  2  0  0  0
 57 58  2  0  0  0
 57129  1  0  0  0
 58130  1  0  0  0
 59 60  1  0  0  0
 59 61  1  0  0  0
 59 62  1  0  0  0
 60131  1  0  0  0
 60132  1  0  0  0
 60133  1  0  0  0
 61134  1  0  0  0
 61135  1  0  0  0
 61136  1  0  0  0
 62137  1  0  0  0
 62138  1  0  0  0
 62139  1  0  0  0
 63 65  1  0  0  0
 63140  1  0  0  0
 63141  1  0  0  0
 63142  1  0  0  0
 64143  1  0  0  0
 65144  1  0  0  0
 68 79  1  0  0  0
 71 72  2  0  0  0
 71 85  1  0  0  0
 71145  1  0  0  0
 72 73  1  0  0  0
 72 81  1  0  0  0
 73 74  2  0  0  0
 73 84  1  0  0  0
 74 80  1  0  0  0
 74 85  1  0  0  0
 75 77  1  0  0  0
 75 82  1  0  0  0
 75 83  2  0  0  0
 76146  1  0  0  0
 76147  1  0  0  0
 76148  1  0  0  0
 76 80  1  0  0  0
 77 78  1  0  0  0
 77149  1  0  0  0
 77150  1  0  0  0
 78 79  1  0  0  0
 78151  1  0  0  0
 78152  1  0  0  0
 79153  1  0  0  0
 79154  1  0  0  0
 80 82  1  0  0  0
 80155  1  0  0  0
 81156  1  0  0  0
 82157  1  0  0  0
M  ISO  4   1 100  68 101  79 101  81 100
M  END
> <chiral flag>
0

> <version>
0

> <s_m_source_file>
/data/baiqing/PycharmProjects/Reinvent-master-3.2/result/LINK_invent/BTK/process_docking_weight1_custom_product_contain_oxygen_bond_distance_aromatic_linkinvent_7_9_3/rearranged_h_0181.sdf

> <i_m_source_file_index>
72

> <r_mmod_Potential_Energy-OPLS-2005>
-197.332412719727

> <r_mmod_Stretch_Energy-OPLS-2005>
35.9238510131836

> <r_mmod_Bend_Energy-OPLS-2005>
103.941871643066

> <r_mmod_Torsional_Energy-OPLS-2005>
209.949310302734

> <r_mmod_Improper_Torsional_Energy-OPLS-2005>
2.50377106666565

> <r_mmod_Van_der_Waal_Energy-OPLS-2005>
137.690872192383

> <r_mmod_Electrostatic_Energy-OPLS-2005>
-461.875793457031

> <r_mmod_Solvation_Energy-OPLS-2005>
-235.423645019531

> <b_mmod_Minimization_Converged-OPLS-2005>
0

> <r_mmod_RMS_Derivative-OPLS-2005>
2.76439094543457

$$$$
73
                    3D
 Structure written by MMmdl.
155163  0  0  1  0            999 V2000
  -30.6394  -14.5874   20.4741 C   0  0  0  0  0  0
  -30.4388  -12.3625   19.4222 C   0  0  0  0  0  0
  -29.4988  -12.4829   18.2027 C   0  0  0  0  0  0
  -28.0253  -12.3236   18.6304 C   0  0  0  0  0  0
  -27.6533  -13.2044   19.8535 C   0  0  2  0  0  0
  -28.6997  -13.0641   20.9800 C   0  0  0  0  0  0
  -25.2580  -13.8135   20.5660 C   0  0  0  0  0  0
  -24.1855  -13.0422   20.9180 C   0  0  0  0  0  0
  -24.6407  -11.6877   20.8731 C   0  0  0  0  0  0
  -23.9073  -10.4275   21.0402 C   0  0  0  0  0  0
  -24.3616   -9.4209   21.9194 C   0  0  0  0  0  0
  -23.6292   -8.2242   22.0764 C   0  0  0  0  0  0
  -22.4288   -8.0271   21.3532 C   0  0  0  0  0  0
  -21.9910   -9.0247   20.4650 C   0  0  0  0  0  0
  -22.7226  -10.2131   20.3064 C   0  0  0  0  0  0
  -21.6859   -6.0746   22.5268 C   0  0  0  0  0  0
  -21.4019   -6.5659   23.8200 C   0  0  0  0  0  0
  -21.3643   -5.6807   24.9159 C   0  0  0  0  0  0
  -21.6036   -4.3068   24.7211 C   0  0  0  0  0  0
  -21.8822   -3.8159   23.4332 C   0  0  0  0  0  0
  -21.9200   -4.6977   22.3394 C   0  0  0  0  0  0
  -22.7889  -13.5231   21.1862 C   0  0  0  0  0  0
  -22.1671   -4.2163   21.0971 F   0  0  0  0  0  0
  -21.5616   -3.4548   25.7715 F   0  0  0  0  0  0
  -30.0158  -13.3778   20.3986 N   0  0  0  0  0  0
  -26.3003  -12.9292   20.3289 N   0  0  0  0  0  0
  -25.9330  -11.6463   20.5748 N   0  0  0  0  0  0
  -22.0510  -12.8216   22.0397 N   0  0  0  0  0  0
  -25.4330  -15.1827   20.4053 N   0  0  0  0  0  0
  -31.8336  -14.7358   20.2067 O   0  0  0  0  0  0
  -21.6638   -6.8860   21.4228 O   0  0  0  0  0  0
  -22.3580  -14.5539   20.6703 O   0  0  0  0  0  0
  -24.6214  -31.8598   23.2105 C   0  0  0  0  0  0
  -25.9057  -32.4810   23.8405 C   0  0  1  0  0  0
  -27.2316  -27.3723   20.1128 C   0  0  0  0  0  0
  -25.5889  -33.8605   24.2355 N   0  0  0  0  0  0
  -23.4134  -30.4759   21.5532 C   0  0  2  0  0  0
  -24.8622  -28.9500   20.1150 C   0  0  0  0  0  0
  -22.7472  -29.4541   22.5017 C   0  0  0  0  0  0
  -18.0256  -28.1365   22.8475 C   0  0  0  0  0  0
  -24.1472  -36.7286   23.2639 C   0  0  0  0  0  0
  -25.9437  -30.8146   21.3676 C   0  0  0  0  0  0
  -26.0237  -29.4424   20.7177 C   0  0  0  0  0  0
  -27.2111  -28.6595   20.7189 C   0  0  0  0  0  0
  -26.0501  -26.9287   19.4682 C   0  0  0  0  0  0
  -24.8741  -27.6975   19.4830 C   0  0  0  0  0  0
  -23.6196  -29.8101   20.1684 C   0  0  0  0  0  0
  -25.4113  -36.3096   24.0342 C   0  0  1  0  0  0
  -20.5843  -28.3618   23.1359 C   0  0  2  0  0  0
  -20.6732  -26.9362   22.5434 C   0  0  0  0  0  0
  -19.5726  -26.6395   21.5204 C   0  0  0  0  0  0
  -18.1895  -26.7919   22.1622 C   0  0  0  0  0  0
  -19.1510  -28.8826   23.2877 C   0  0  0  0  0  0
  -18.9432  -30.1438   23.8870 C   0  0  0  0  0  0
  -17.6419  -30.6573   24.0530 C   0  0  0  0  0  0
  -25.9046  -34.9457   23.5151 C   0  0  0  0  0  0
  -16.5304  -29.9059   23.6332 C   0  0  0  0  0  0
  -16.7243  -28.6472   23.0367 C   0  0  0  0  0  0
  -26.4509  -31.6585   25.0705 C   0  0  0  0  0  0
  -25.3758  -31.3659   26.1421 C   0  0  0  0  0  0
  -27.0345  -30.3044   24.6069 C   0  0  0  0  0  0
  -27.6091  -32.4314   25.7460 C   0  0  0  0  0  0
  -27.5614  -37.1746   24.8457 C   0  0  0  0  0  0
  -21.4209  -29.2949   22.3772 N   0  0  0  0  0  0
  -26.4296  -37.3781   23.9452 N   0  0  0  0  0  0
  -24.6780  -31.0637   22.1040 N   0  0  0  0  0  0
  -23.4221  -28.8069   23.3063 O   0  0  0  0  0  0
  -28.3704  -26.5700   20.1438 O   0  0  0  0  0  0
  -26.5564  -34.8888   22.4700 O   0  0  0  0  0  0
  -23.5392  -32.1341   23.7481 O   0  0  0  0  0  0
  -29.9639  -19.5604   20.3685 C   0  0  0  0  0  0
  -30.0977  -20.3693   18.0714 C   0  0  0  0  0  0
  -30.0635  -18.1993   19.9274 C   0  0  0  0  0  0
  -29.9715  -20.6507   19.4525 C   0  0  0  0  0  0
  -30.1819  -19.0386   17.6094 C   0  0  0  0  0  0
  -30.1715  -17.9634   18.5320 C   0  0  0  0  0  0
  -28.2208  -25.1818   20.2258 C   0  0  0  0  0  0
  -29.2266  -24.2663   20.1821 C   0  0  0  0  0  0
  -28.9286  -22.8149   20.1814 C   0  0  0  0  0  0
  -30.1494  -17.0628   20.9906 C   0  0  0  0  0  0
  -30.2992  -18.7792   16.2354 N   0  0  0  0  0  0
  -29.9864  -22.0326   19.8666 N   0  0  0  0  0  0
  -29.8164  -15.6479   20.6684 N   0  0  0  0  0  0
  -27.8232  -22.3294   20.4449 O   0  0  0  0  0  0
  -30.5061  -24.6749   20.1285 O   0  0  0  0  0  0
  -30.2934  -16.7046   18.0462 F   0  0  0  0  0  0
  -31.4769  -12.4983   19.1109 H   0  0  0  0  0  0
  -30.3850  -11.3627   19.8563 H   0  0  0  0  0  0
  -29.7556  -11.7256   17.4593 H   0  0  0  0  0  0
  -29.6375  -13.4528   17.7192 H   0  0  0  0  0  0
  -27.8754  -11.2724   18.8763 H   0  0  0  0  0  0
  -27.3601  -12.5355   17.7917 H   0  0  0  0  0  0
  -27.6756  -14.2373   19.5077 H   0  0  0  0  0  0
  -28.6930  -12.0550   21.3926 H   0  0  0  0  0  0
  -28.4629  -13.7229   21.8174 H   0  0  0  0  0  0
  -25.2750   -9.5694   22.4790 H   0  0  0  0  0  0
  -24.0001   -7.4636   22.7506 H   0  0  0  0  0  0
  -21.0829   -8.8747   19.8959 H   0  0  0  0  0  0
  -22.3660  -10.9677   19.6191 H   0  0  0  0  0  0
  -21.2011   -7.6162   23.9711 H   0  0  0  0  0  0
  -21.1466   -6.0535   25.9059 H   0  0  0  0  0  0
  -22.0614   -2.7622   23.2836 H   0  0  0  0  0  0
  -22.4131  -11.9852   22.4733 H   0  0  0  0  0  0
  -21.1141  -13.1268   22.2628 H   0  0  0  0  0  0
  -24.6550  -15.8275   20.4978 H   0  0  0  0  0  0
  -26.2676  -15.6214   20.0388 H   0  0  0  0  0  0
  -26.7122  -32.5507   23.1172 H   0  0  0  0  0  0
  -25.0094  -33.9762   25.0545 H   0  0  0  0  0  0
  -22.7029  -31.2931   21.4136 H   0  0  0  0  0  0
  -23.3748  -35.9591   23.3278 H   0  0  0  0  0  0
  -24.3568  -36.8936   22.2056 H   0  0  0  0  0  0
  -23.7206  -37.6504   23.6626 H   0  0  0  0  0  0
  -26.0391  -31.5806   20.5979 H   0  0  0  0  0  0
  -26.8355  -30.8832   21.9786 H   0  0  0  0  0  0
  -28.1104  -29.0295   21.1953 H   0  0  0  0  0  0
  -26.0071  -25.9773   18.9568 H   0  0  0  0  0  0
  -23.9806  -27.3190   19.0094 H   0  0  0  0  0  0
  -23.7109  -30.5749   19.3973 H   0  0  0  0  0  0
  -22.7493  -29.2116   19.8920 H   0  0  0  0  0  0
  -25.1280  -36.1982   25.0823 H   0  0  0  0  0  0
  -20.9833  -28.3075   24.1536 H   0  0  0  0  0  0
  -20.5695  -26.2155   23.3583 H   0  0  0  0  0  0
  -21.6585  -26.7440   22.1177 H   0  0  0  0  0  0
  -19.6905  -25.6310   21.1251 H   0  0  0  0  0  0
  -19.6754  -27.3199   20.6714 H   0  0  0  0  0  0
  -17.4196  -26.6690   21.3992 H   0  0  0  0  0  0
  -18.0250  -26.0062   22.9014 H   0  0  0  0  0  0
  -19.7901  -30.7247   24.2287 H   0  0  0  0  0  0
  -17.4956  -31.6265   24.5103 H   0  0  0  0  0  0
  -15.5303  -30.2915   23.7729 H   0  0  0  0  0  0
  -15.8619  -28.0767   22.7150 H   0  0  0  0  0  0
  -24.5982  -30.6975   25.7744 H   0  0  0  0  0  0
  -24.8847  -32.2740   26.4868 H   0  0  0  0  0  0
  -25.8095  -30.8860   27.0190 H   0  0  0  0  0  0
  -26.2868  -29.6783   24.1198 H   0  0  0  0  0  0
  -27.4231  -29.7348   25.4531 H   0  0  0  0  0  0
  -27.8614  -30.4479   23.9131 H   0  0  0  0  0  0
  -27.2776  -33.3690   26.1965 H   0  0  0  0  0  0
  -28.3876  -32.6761   25.0209 H   0  0  0  0  0  0
  -28.0708  -31.8427   26.5400 H   0  0  0  0  0  0
  -28.2530  -38.0140   24.7583 H   0  0  0  0  0  0
  -28.1220  -36.2659   24.6166 H   0  0  0  0  0  0
  -27.2289  -37.1210   25.8842 H   0  0  0  0  0  0
  -20.9405  -29.8660   21.6980 H   0  0  0  0  0  0
  -26.0204  -38.2864   24.1508 H   0  0  0  0  0  0
  -29.9152  -19.7581   21.4316 H   0  0  0  0  0  0
  -30.1416  -21.1870   17.3617 H   0  0  0  0  0  0
  -27.1885  -24.8656   20.3155 H   0  0  0  0  0  0
  -29.4477  -17.3320   21.7838 H   0  0  0  0  0  0
  -31.1371  -17.1137   21.4546 H   0  0  0  0  0  0
  -30.6428  -19.4958   15.5999 H   0  0  0  0  0  0
  -30.5587  -17.8377   15.9577 H   0  0  0  0  0  0
  -30.8244  -22.5644   19.6667 H   0  0  0  0  0  0
  -28.8387  -15.4146   20.7300 H   0  0  0  0  0  0
  -30.4971  -25.6173   20.2389 H   0  0  0  0  0  0
  1 25  1  0  0  0
  1 30  2  0  0  0
  1 83  1  0  0  0
  2  3  1  0  0  0
  2 25  1  0  0  0
  2 87  1  0  0  0
  2 88  1  0  0  0
  3  4  1  0  0  0
  3 89  1  0  0  0
  3 90  1  0  0  0
  4  5  1  0  0  0
  4 91  1  0  0  0
  4 92  1  0  0  0
  5  6  1  0  0  0
  5 26  1  0  0  0
  5 93  1  0  0  0
  6 25  1  0  0  0
  6 94  1  0  0  0
  6 95  1  0  0  0
  7  8  2  0  0  0
  7 26  1  0  0  0
  7 29  1  0  0  0
  8  9  1  0  0  0
  8 22  1  0  0  0
  9 10  1  0  0  0
  9 27  2  0  0  0
 10 11  2  0  0  0
 10 15  1  0  0  0
 11 12  1  0  0  0
 11 96  1  0  0  0
 12 13  2  0  0  0
 12 97  1  0  0  0
 13 14  1  0  0  0
 13 31  1  0  0  0
 14 15  2  0  0  0
 14 98  1  0  0  0
 15 99  1  0  0  0
 16 17  2  0  0  0
 16 21  1  0  0  0
 16 31  1  0  0  0
 17 18  1  0  0  0
 17100  1  0  0  0
 18 19  2  0  0  0
 18101  1  0  0  0
 19 20  1  0  0  0
 19 24  1  0  0  0
 20 21  2  0  0  0
 20102  1  0  0  0
 21 23  1  0  0  0
 22 28  1  0  0  0
 22 32  2  0  0  0
 26 27  1  0  0  0
 28103  1  0  0  0
 28104  1  0  0  0
 29105  1  0  0  0
 29106  1  0  0  0
 33 34  1  0  0  0
 33 66  1  0  0  0
 33 70  2  0  0  0
 34 36  1  0  0  0
 34 59  1  0  0  0
 34107  1  0  0  0
 35 44  2  0  0  0
 35 45  1  0  0  0
 35 68  1  0  0  0
 36 56  1  0  0  0
 36108  1  0  0  0
 37 39  1  0  0  0
 37 47  1  0  0  0
 37 66  1  0  0  0
 37109  1  0  0  0
 38 43  2  0  0  0
 38 46  1  0  0  0
 38 47  1  0  0  0
 39 64  1  0  0  0
 39 67  2  0  0  0
 40 52  1  0  0  0
 40 53  2  0  0  0
 40 58  1  0  0  0
 41110  1  0  0  0
 41111  1  0  0  0
 41112  1  0  0  0
 41 48  1  0  0  0
 42 43  1  0  0  0
 42 66  1  0  0  0
 42113  1  0  0  0
 42114  1  0  0  0
 43 44  1  0  0  0
 44115  1  0  0  0
 45 46  2  0  0  0
 45116  1  0  0  0
 46117  1  0  0  0
 47118  1  0  0  0
 47119  1  0  0  0
 48 56  1  0  0  0
 48 65  1  0  0  0
 48120  1  0  0  0
 49 50  1  0  0  0
 49 53  1  0  0  0
 49 64  1  0  0  0
 49121  1  0  0  0
 50 51  1  0  0  0
 50122  1  0  0  0
 50123  1  0  0  0
 51 52  1  0  0  0
 51124  1  0  0  0
 51125  1  0  0  0
 52126  1  0  0  0
 52127  1  0  0  0
 53 54  1  0  0  0
 54 55  2  0  0  0
 54128  1  0  0  0
 55 57  1  0  0  0
 55129  1  0  0  0
 56 69  2  0  0  0
 57 58  2  0  0  0
 57130  1  0  0  0
 58131  1  0  0  0
 59 60  1  0  0  0
 59 61  1  0  0  0
 59 62  1  0  0  0
 60132  1  0  0  0
 60133  1  0  0  0
 60134  1  0  0  0
 61135  1  0  0  0
 61136  1  0  0  0
 61137  1  0  0  0
 62138  1  0  0  0
 62139  1  0  0  0
 62140  1  0  0  0
 63 65  1  0  0  0
 63141  1  0  0  0
 63142  1  0  0  0
 63143  1  0  0  0
 64144  1  0  0  0
 65145  1  0  0  0
 68 77  1  0  0  0
 71 73  2  0  0  0
 71 74  1  0  0  0
 71146  1  0  0  0
 72 74  2  0  0  0
 72 75  1  0  0  0
 72147  1  0  0  0
 73 76  1  0  0  0
 73 80  1  0  0  0
 74 82  1  0  0  0
 75 76  2  0  0  0
 75 81  1  0  0  0
 76 86  1  0  0  0
 77 78  2  0  0  0
 77148  1  0  0  0
 78 79  1  0  0  0
 78 85  1  0  0  0
 79 82  1  0  0  0
 79 84  2  0  0  0
 80 83  1  0  0  0
 80149  1  0  0  0
 80150  1  0  0  0
 81151  1  0  0  0
 81152  1  0  0  0
 82153  1  0  0  0
 83154  1  0  0  0
 85155  1  0  0  0
M  ISO  4   1 100  68 101  77 101  83 100
M  END
> <chiral flag>
0

> <version>
0

> <s_m_source_file>
/data/baiqing/PycharmProjects/Reinvent-master-3.2/result/LINK_invent/BTK/process_docking_weight1_custom_product_contain_oxygen_bond_distance_aromatic_linkinvent_7_9_3/rearranged_h_0181.sdf

> <i_m_source_file_index>
73

> <r_mmod_Potential_Energy-OPLS-2005>
-62.366397857666

> <r_mmod_Stretch_Energy-OPLS-2005>
54.1054191589355

> <r_mmod_Bend_Energy-OPLS-2005>
115.657440185547

> <r_mmod_Torsional_Energy-OPLS-2005>
233.822555541992

> <r_mmod_Improper_Torsional_Energy-OPLS-2005>
8.6698169708252

> <r_mmod_Van_der_Waal_Energy-OPLS-2005>
151.75065612793

> <r_mmod_Electrostatic_Energy-OPLS-2005>
-425.195922851562

> <r_mmod_Solvation_Energy-OPLS-2005>
-236.33171081543

> <b_mmod_Minimization_Converged-OPLS-2005>
0

> <r_mmod_RMS_Derivative-OPLS-2005>
6.1595458984375

$$$$
74
                    3D
 Structure written by MMmdl.
156164  0  0  1  0            999 V2000
  -30.6479  -14.7597   20.4985 C   0  0  0  0  0  0
  -30.4203  -12.4813   19.4901 C   0  0  0  0  0  0
  -29.4988  -12.4962   18.2527 C   0  0  0  0  0  0
  -28.0369  -12.2825   18.6741 C   0  0  0  0  0  0
  -27.6295  -13.2192   19.8419 C   0  0  2  0  0  0
  -28.6601  -13.2258   20.9899 C   0  0  0  0  0  0
  -25.2444  -13.8057   20.5602 C   0  0  0  0  0  0
  -24.1765  -13.0385   20.9277 C   0  0  0  0  0  0
  -24.6375  -11.6861   20.8871 C   0  0  0  0  0  0
  -23.9112  -10.4256   21.0517 C   0  0  0  0  0  0
  -24.3652   -9.4113   21.9233 C   0  0  0  0  0  0
  -23.6292   -8.2178   22.0766 C   0  0  0  0  0  0
  -22.4253   -8.0280   21.3569 C   0  0  0  0  0  0
  -21.9951   -9.0264   20.4647 C   0  0  0  0  0  0
  -22.7336  -10.2132   20.3087 C   0  0  0  0  0  0
  -21.6809   -6.0752   22.5285 C   0  0  0  0  0  0
  -21.3983   -6.5671   23.8235 C   0  0  0  0  0  0
  -21.3684   -5.6813   24.9179 C   0  0  0  0  0  0
  -21.6060   -4.3077   24.7218 C   0  0  0  0  0  0
  -21.8800   -3.8174   23.4327 C   0  0  0  0  0  0
  -21.9163   -4.6989   22.3385 C   0  0  0  0  0  0
  -22.7807  -13.5179   21.1955 C   0  0  0  0  0  0
  -22.1634   -4.2191   21.0964 F   0  0  0  0  0  0
  -21.5664   -3.4555   25.7735 F   0  0  0  0  0  0
  -29.9690  -13.5606   20.4042 N   0  0  0  0  0  0
  -26.2866  -12.9273   20.3267 N   0  0  0  0  0  0
  -25.9295  -11.6437   20.5837 N   0  0  0  0  0  0
  -22.0463  -12.8132   22.0468 N   0  0  0  0  0  0
  -25.4075  -15.1709   20.3705 N   0  0  0  0  0  0
  -31.8521  -14.7714   20.2121 O   0  0  0  0  0  0
  -21.6600   -6.8901   21.4251 O   0  0  0  0  0  0
  -22.3474  -14.5463   20.6791 O   0  0  0  0  0  0
  -24.6325  -31.8580   23.1934 C   0  0  0  0  0  0
  -25.9195  -32.4741   23.8263 C   0  0  1  0  0  0
  -27.2090  -27.2724   20.1360 C   0  0  0  0  0  0
  -25.6022  -33.8537   24.2185 N   0  0  0  0  0  0
  -23.4226  -30.4800   21.5421 C   0  0  2  0  0  0
  -24.8672  -28.9268   20.1036 C   0  0  0  0  0  0
  -22.7493  -29.4591   22.4929 C   0  0  0  0  0  0
  -18.0314  -28.1340   22.8558 C   0  0  0  0  0  0
  -24.1507  -36.7289   23.2626 C   0  0  0  0  0  0
  -25.9650  -30.7782   21.3645 C   0  0  0  0  0  0
  -26.0399  -29.3998   20.7099 C   0  0  0  0  0  0
  -27.2174  -28.5869   20.7122 C   0  0  0  0  0  0
  -26.0181  -26.8615   19.5080 C   0  0  0  0  0  0
  -24.8608  -27.6623   19.4924 C   0  0  0  0  0  0
  -23.6356  -29.8114   20.1572 C   0  0  0  0  0  0
  -25.4127  -36.3036   24.0273 C   0  0  1  0  0  0
  -20.5914  -28.3683   23.1347 C   0  0  2  0  0  0
  -20.6785  -26.9396   22.5493 C   0  0  0  0  0  0
  -19.5735  -26.6348   21.5316 C   0  0  0  0  0  0
  -18.1933  -26.7907   22.1728 C   0  0  0  0  0  0
  -19.1547  -28.8831   23.2944 C   0  0  0  0  0  0
  -18.9421  -30.1468   23.8880 C   0  0  0  0  0  0
  -17.6396  -30.6585   24.0477 C   0  0  0  0  0  0
  -25.9090  -34.9425   23.5014 C   0  0  0  0  0  0
  -16.5318  -29.9036   23.6272 C   0  0  0  0  0  0
  -16.7291  -28.6430   23.0382 C   0  0  0  0  0  0
  -26.4556  -31.6567   25.0654 C   0  0  0  0  0  0
  -25.3725  -31.3829   26.1317 C   0  0  0  0  0  0
  -27.0410  -30.2962   24.6214 C   0  0  0  0  0  0
  -27.6101  -32.4268   25.7507 C   0  0  0  0  0  0
  -27.5560  -37.1803   24.8454 C   0  0  0  0  0  0
  -21.4209  -29.3025   22.3714 N   0  0  0  0  0  0
  -26.4299  -37.3733   23.9373 N   0  0  0  0  0  0
  -24.6917  -31.0558   22.0886 N   0  0  0  0  0  0
  -23.4220  -28.8143   23.3016 O   0  0  0  0  0  0
  -28.2851  -26.3601   20.1587 O   0  0  0  0  0  0
  -26.5675  -34.8928   22.4587 O   0  0  0  0  0  0
  -23.5496  -32.1405   23.7296 O   0  0  0  0  0  0
  -27.9128  -20.2870   20.4735 C   0  0  0  0  0  0
  -28.2140  -18.8609   20.6466 C   0  0  0  0  0  0
  -29.5668  -18.5500   20.6912 C   0  0  0  0  0  0
  -28.9750  -21.1766   20.5621 C   0  0  0  0  0  0
  -30.4181  -17.2447   20.8454 C   0  0  0  0  0  0
  -28.2940  -23.6386   20.1497 C   0  0  0  0  0  0
  -26.2932  -18.2439   22.1154 C   0  0  0  0  0  0
  -26.9667  -25.0318   21.8890 C   0  0  0  0  0  0
  -27.1358  -17.8381   20.9004 C   0  0  0  0  0  0
  -28.1801  -25.0573   20.9223 C   0  0  2  0  0  0
  -28.9814  -22.5795   20.7339 N   0  0  0  0  0  0
  -29.9363  -15.9450   20.6822 N   0  0  0  0  0  0
  -31.6090  -17.4250   21.1323 O   0  0  0  0  0  0
  -27.7809  -23.5238   19.0312 O   0  0  0  0  0  0
  -30.4223  -20.1316   20.7134 S   0  0  0  0  0  0
  -31.4519  -12.6231   19.1614 H   0  0  0  0  0  0
  -30.3960  -11.5141   19.9953 H   0  0  0  0  0  0
  -29.8101  -11.7205   17.5542 H   0  0  0  0  0  0
  -29.5939  -13.4444   17.7259 H   0  0  0  0  0  0
  -27.9424  -11.2451   18.9939 H   0  0  0  0  0  0
  -27.3658  -12.3983   17.8200 H   0  0  0  0  0  0
  -27.6081  -14.2222   19.4180 H   0  0  0  0  0  0
  -28.6888  -12.2682   21.5099 H   0  0  0  0  0  0
  -28.3556  -13.9612   21.7381 H   0  0  0  0  0  0
  -25.2815   -9.5517   22.4796 H   0  0  0  0  0  0
  -24.0025   -7.4514   22.7413 H   0  0  0  0  0  0
  -21.0954   -8.8783   19.8877 H   0  0  0  0  0  0
  -22.3870  -10.9667   19.6164 H   0  0  0  0  0  0
  -21.1938   -7.6167   23.9745 H   0  0  0  0  0  0
  -21.1566   -6.0542   25.9108 H   0  0  0  0  0  0
  -22.0552   -2.7644   23.2807 H   0  0  0  0  0  0
  -22.4124  -11.9785   22.4823 H   0  0  0  0  0  0
  -21.1088  -13.1068   22.2731 H   0  0  0  0  0  0
  -24.6142  -15.8022   20.4001 H   0  0  0  0  0  0
  -26.2096  -15.5650   19.9034 H   0  0  0  0  0  0
  -26.7275  -32.5396   23.1005 H   0  0  0  0  0  0
  -25.0018  -33.9653   25.0230 H   0  0  0  0  0  0
  -22.7175  -31.3002   21.3983 H   0  0  0  0  0  0
  -23.3732  -35.9669   23.3294 H   0  0  0  0  0  0
  -24.3585  -36.8925   22.2046 H   0  0  0  0  0  0
  -23.7341  -37.6514   23.6668 H   0  0  0  0  0  0
  -26.0940  -31.5484   20.5993 H   0  0  0  0  0  0
  -26.8461  -30.8297   21.9950 H   0  0  0  0  0  0
  -28.1133  -28.9461   21.1965 H   0  0  0  0  0  0
  -25.9758  -25.8805   19.0643 H   0  0  0  0  0  0
  -23.9585  -27.2898   19.0272 H   0  0  0  0  0  0
  -23.7569  -30.5878   19.3993 H   0  0  0  0  0  0
  -22.7536  -29.2425   19.8514 H   0  0  0  0  0  0
  -25.1336  -36.1826   25.0773 H   0  0  0  0  0  0
  -21.0008  -28.3274   24.1451 H   0  0  0  0  0  0
  -20.5687  -26.2300   23.3692 H   0  0  0  0  0  0
  -21.6640  -26.7352   22.1277 H   0  0  0  0  0  0
  -19.6859  -25.6218   21.1363 H   0  0  0  0  0  0
  -19.6682  -27.3139   20.6862 H   0  0  0  0  0  0
  -17.4224  -26.6697   21.4122 H   0  0  0  0  0  0
  -18.0292  -26.0027   22.9099 H   0  0  0  0  0  0
  -19.7855  -30.7363   24.2194 H   0  0  0  0  0  0
  -17.4910  -31.6314   24.4956 H   0  0  0  0  0  0
  -15.5329  -30.2944   23.7473 H   0  0  0  0  0  0
  -15.8741  -28.0690   22.7058 H   0  0  0  0  0  0
  -24.5884  -30.7204   25.7609 H   0  0  0  0  0  0
  -24.8935  -32.3073   26.4582 H   0  0  0  0  0  0
  -25.7923  -30.9078   27.0189 H   0  0  0  0  0  0
  -26.3027  -29.6666   24.1212 H   0  0  0  0  0  0
  -27.4033  -29.7264   25.4797 H   0  0  0  0  0  0
  -27.8926  -30.4173   23.9495 H   0  0  0  0  0  0
  -27.2706  -33.3553   26.2119 H   0  0  0  0  0  0
  -28.3980  -32.6837   25.0403 H   0  0  0  0  0  0
  -28.0694  -31.8338   26.5433 H   0  0  0  0  0  0
  -28.2596  -38.0092   24.7449 H   0  0  0  0  0  0
  -28.1054  -36.2600   24.6337 H   0  0  0  0  0  0
  -27.2271  -37.1518   25.8872 H   0  0  0  0  0  0
  -20.9327  -29.8806   21.7001 H   0  0  0  0  0  0
  -26.0142  -38.2807   24.1350 H   0  0  0  0  0  0
  -26.8872  -20.6230   20.4123 H   0  0  0  0  0  0
  -25.6797  -17.4153   22.4684 H   0  0  0  0  0  0
  -25.6288  -19.0860   21.9152 H   0  0  0  0  0  0
  -26.9673  -18.5352   22.9216 H   0  0  0  0  0  0
  -27.0313  -24.1989   22.5870 H   0  0  0  0  0  0
  -26.0190  -24.9210   21.3627 H   0  0  0  0  0  0
  -26.9233  -25.9418   22.4919 H   0  0  0  0  0  0
  -27.5643  -16.8637   21.1354 H   0  0  0  0  0  0
  -26.5073  -17.6715   20.0252 H   0  0  0  0  0  0
  -29.0539  -25.0783   21.5760 H   0  0  0  0  0  0
  -29.5668  -22.8976   21.4952 H   0  0  0  0  0  0
  -28.9386  -15.8587   20.6530 H   0  0  0  0  0  0
  1 25  1  0  0  0
  1 30  2  0  0  0
  1 82  1  0  0  0
  2  3  1  0  0  0
  2 25  1  0  0  0
  2 86  1  0  0  0
  2 87  1  0  0  0
  3  4  1  0  0  0
  3 88  1  0  0  0
  3 89  1  0  0  0
  4  5  1  0  0  0
  4 90  1  0  0  0
  4 91  1  0  0  0
  5  6  1  0  0  0
  5 26  1  0  0  0
  5 92  1  0  0  0
  6 25  1  0  0  0
  6 93  1  0  0  0
  6 94  1  0  0  0
  7  8  2  0  0  0
  7 26  1  0  0  0
  7 29  1  0  0  0
  8  9  1  0  0  0
  8 22  1  0  0  0
  9 10  1  0  0  0
  9 27  2  0  0  0
 10 11  2  0  0  0
 10 15  1  0  0  0
 11 12  1  0  0  0
 11 95  1  0  0  0
 12 13  2  0  0  0
 12 96  1  0  0  0
 13 14  1  0  0  0
 13 31  1  0  0  0
 14 15  2  0  0  0
 14 97  1  0  0  0
 15 98  1  0  0  0
 16 17  2  0  0  0
 16 21  1  0  0  0
 16 31  1  0  0  0
 17 18  1  0  0  0
 17 99  1  0  0  0
 18 19  2  0  0  0
 18100  1  0  0  0
 19 20  1  0  0  0
 19 24  1  0  0  0
 20 21  2  0  0  0
 20101  1  0  0  0
 21 23  1  0  0  0
 22 28  1  0  0  0
 22 32  2  0  0  0
 26 27  1  0  0  0
 28102  1  0  0  0
 28103  1  0  0  0
 29104  1  0  0  0
 29105  1  0  0  0
 33 34  1  0  0  0
 33 66  1  0  0  0
 33 70  2  0  0  0
 34 36  1  0  0  0
 34 59  1  0  0  0
 34106  1  0  0  0
 35 44  2  0  0  0
 35 45  1  0  0  0
 35 68  1  0  0  0
 36 56  1  0  0  0
 36107  1  0  0  0
 37 39  1  0  0  0
 37 47  1  0  0  0
 37 66  1  0  0  0
 37108  1  0  0  0
 38 43  2  0  0  0
 38 46  1  0  0  0
 38 47  1  0  0  0
 39 64  1  0  0  0
 39 67  2  0  0  0
 40 52  1  0  0  0
 40 53  2  0  0  0
 40 58  1  0  0  0
 41109  1  0  0  0
 41110  1  0  0  0
 41111  1  0  0  0
 41 48  1  0  0  0
 42 43  1  0  0  0
 42 66  1  0  0  0
 42112  1  0  0  0
 42113  1  0  0  0
 43 44  1  0  0  0
 44114  1  0  0  0
 45 46  2  0  0  0
 45115  1  0  0  0
 46116  1  0  0  0
 47117  1  0  0  0
 47118  1  0  0  0
 48 56  1  0  0  0
 48 65  1  0  0  0
 48119  1  0  0  0
 49 50  1  0  0  0
 49 53  1  0  0  0
 49 64  1  0  0  0
 49120  1  0  0  0
 50 51  1  0  0  0
 50121  1  0  0  0
 50122  1  0  0  0
 51 52  1  0  0  0
 51123  1  0  0  0
 51124  1  0  0  0
 52125  1  0  0  0
 52126  1  0  0  0
 53 54  1  0  0  0
 54 55  2  0  0  0
 54127  1  0  0  0
 55 57  1  0  0  0
 55128  1  0  0  0
 56 69  2  0  0  0
 57 58  2  0  0  0
 57129  1  0  0  0
 58130  1  0  0  0
 59 60  1  0  0  0
 59 61  1  0  0  0
 59 62  1  0  0  0
 60131  1  0  0  0
 60132  1  0  0  0
 60133  1  0  0  0
 61134  1  0  0  0
 61135  1  0  0  0
 61136  1  0  0  0
 62137  1  0  0  0
 62138  1  0  0  0
 62139  1  0  0  0
 63 65  1  0  0  0
 63140  1  0  0  0
 63141  1  0  0  0
 63142  1  0  0  0
 64143  1  0  0  0
 65144  1  0  0  0
 68 80  1  0  0  0
 71 72  1  0  0  0
 71 74  2  0  0  0
 71145  1  0  0  0
 72 73  2  0  0  0
 72 79  1  0  0  0
 73 75  1  0  0  0
 73 85  1  0  0  0
 74 81  1  0  0  0
 74 85  1  0  0  0
 75 82  1  0  0  0
 75 83  2  0  0  0
 76 80  1  0  0  0
 76 81  1  0  0  0
 76 84  2  0  0  0
 77 79  1  0  0  0
 77146  1  0  0  0
 77147  1  0  0  0
 77148  1  0  0  0
 78149  1  0  0  0
 78150  1  0  0  0
 78151  1  0  0  0
 78 80  1  0  0  0
 79152  1  0  0  0
 79153  1  0  0  0
 80154  1  0  0  0
 81155  1  0  0  0
 82156  1  0  0  0
M  ISO  4   1 100  68 101  80 101  82 100
M  END
> <chiral flag>
0

> <version>
0

> <s_m_source_file>
/data/baiqing/PycharmProjects/Reinvent-master-3.2/result/LINK_invent/BTK/process_docking_weight1_custom_product_contain_oxygen_bond_distance_aromatic_linkinvent_7_9_3/rearranged_h_0181.sdf

> <i_m_source_file_index>
74

> <r_mmod_Potential_Energy-OPLS-2005>
132.091049194336

> <r_mmod_Stretch_Energy-OPLS-2005>
124.628295898438

> <r_mmod_Bend_Energy-OPLS-2005>
190.359924316406

> <r_mmod_Torsional_Energy-OPLS-2005>
288.274627685547

> <r_mmod_Improper_Torsional_Energy-OPLS-2005>
7.84188556671143

> <r_mmod_Van_der_Waal_Energy-OPLS-2005>
119.11466217041

> <r_mmod_Electrostatic_Energy-OPLS-2005>
-443.533935546875

> <r_mmod_Solvation_Energy-OPLS-2005>
-246.955947875977

> <b_mmod_Minimization_Converged-OPLS-2005>
0

> <r_mmod_RMS_Derivative-OPLS-2005>
9.2283353805542

$$$$
75
                    3D
 Structure written by MMmdl.
160168  0  0  1  0            999 V2000
  -30.6556  -14.5406   20.5128 C   0  0  0  0  0  0
  -30.4257  -12.3323   19.4300 C   0  0  0  0  0  0
  -29.5004  -12.5091   18.2078 C   0  0  0  0  0  0
  -28.0192  -12.3684   18.6160 C   0  0  0  0  0  0
  -27.6572  -13.2105   19.8690 C   0  0  2  0  0  0
  -28.6998  -13.0150   20.9923 C   0  0  0  0  0  0
  -25.2569  -13.8161   20.5653 C   0  0  0  0  0  0
  -24.1838  -13.0432   20.9183 C   0  0  0  0  0  0
  -24.6397  -11.6900   20.8746 C   0  0  0  0  0  0
  -23.9072  -10.4280   21.0406 C   0  0  0  0  0  0
  -24.3619   -9.4204   21.9186 C   0  0  0  0  0  0
  -23.6290   -8.2243   22.0766 C   0  0  0  0  0  0
  -22.4283   -8.0281   21.3554 C   0  0  0  0  0  0
  -21.9920   -9.0251   20.4654 C   0  0  0  0  0  0
  -22.7246  -10.2119   20.3055 C   0  0  0  0  0  0
  -21.6856   -6.0740   22.5279 C   0  0  0  0  0  0
  -21.3996   -6.5636   23.8215 C   0  0  0  0  0  0
  -21.3654   -5.6788   24.9179 C   0  0  0  0  0  0
  -21.6053   -4.3053   24.7225 C   0  0  0  0  0  0
  -21.8825   -3.8139   23.4347 C   0  0  0  0  0  0
  -21.9185   -4.6962   22.3398 C   0  0  0  0  0  0
  -22.7860  -13.5231   21.1850 C   0  0  0  0  0  0
  -22.1663   -4.2152   21.0973 F   0  0  0  0  0  0
  -21.5631   -3.4530   25.7734 F   0  0  0  0  0  0
  -30.0243  -13.3329   20.4334 N   0  0  0  0  0  0
  -26.3003  -12.9328   20.3322 N   0  0  0  0  0  0
  -25.9317  -11.6492   20.5749 N   0  0  0  0  0  0
  -22.0487  -12.8213   22.0388 N   0  0  0  0  0  0
  -25.4285  -15.1873   20.4019 N   0  0  0  0  0  0
  -31.8167  -14.6915   20.1174 O   0  0  0  0  0  0
  -21.6648   -6.8878   21.4241 O   0  0  0  0  0  0
  -22.3548  -14.5550   20.6710 O   0  0  0  0  0  0
  -24.6169  -31.8668   23.2066 C   0  0  0  0  0  0
  -25.9061  -32.4806   23.8364 C   0  0  1  0  0  0
  -27.2273  -27.4057   20.1037 C   0  0  0  0  0  0
  -25.5917  -33.8605   24.2302 N   0  0  0  0  0  0
  -23.4051  -30.4898   21.5487 C   0  0  2  0  0  0
  -24.8516  -28.9486   20.1145 C   0  0  0  0  0  0
  -22.7406  -29.4670   22.4987 C   0  0  0  0  0  0
  -18.0271  -28.1390   22.8501 C   0  0  0  0  0  0
  -24.1476  -36.7260   23.2645 C   0  0  0  0  0  0
  -25.9367  -30.8244   21.3605 C   0  0  0  0  0  0
  -26.0150  -29.4548   20.7095 C   0  0  0  0  0  0
  -27.2101  -28.6926   20.6959 C   0  0  0  0  0  0
  -26.0500  -26.9221   19.4971 C   0  0  0  0  0  0
  -24.8659  -27.6828   19.5011 C   0  0  0  0  0  0
  -23.6135  -29.8169   20.1654 C   0  0  0  0  0  0
  -25.4106  -36.3080   24.0349 C   0  0  1  0  0  0
  -20.5864  -28.3669   23.1332 C   0  0  2  0  0  0
  -20.6757  -26.9405   22.5430 C   0  0  0  0  0  0
  -19.5739  -26.6388   21.5222 C   0  0  0  0  0  0
  -18.1912  -26.7948   22.1613 C   0  0  0  0  0  0
  -19.1524  -28.8843   23.2908 C   0  0  0  0  0  0
  -18.9458  -30.1454   23.8902 C   0  0  0  0  0  0
  -17.6458  -30.6590   24.0578 C   0  0  0  0  0  0
  -25.9052  -34.9465   23.5121 C   0  0  0  0  0  0
  -16.5344  -29.9091   23.6352 C   0  0  0  0  0  0
  -16.7261  -28.6521   23.0349 C   0  0  0  0  0  0
  -26.4488  -31.6584   25.0692 C   0  0  0  0  0  0
  -25.3746  -31.3684   26.1430 C   0  0  0  0  0  0
  -27.0306  -30.3026   24.6033 C   0  0  0  0  0  0
  -27.6050  -32.4309   25.7473 C   0  0  0  0  0  0
  -27.5579  -37.1775   24.8471 C   0  0  0  0  0  0
  -21.4132  -29.3032   22.3728 N   0  0  0  0  0  0
  -26.4268  -37.3786   23.9445 N   0  0  0  0  0  0
  -24.6713  -31.0756   22.0970 N   0  0  0  0  0  0
  -23.4176  -28.8234   23.3046 O   0  0  0  0  0  0
  -28.3672  -26.6230   20.1056 O   0  0  0  0  0  0
  -26.5583  -34.8943   22.4661 O   0  0  0  0  0  0
  -23.5351  -32.1422   23.7454 O   0  0  0  0  0  0
  -31.1146  -19.0015   20.3392 C   0  0  0  0  0  0
  -29.8474  -19.5048   20.6250 C   0  0  0  0  0  0
  -30.0261  -16.9951   20.7228 C   0  0  0  0  0  0
  -28.5345  -24.1141   19.8373 C   0  0  0  0  0  0
  -29.0678  -21.7149   19.9248 C   0  0  0  0  0  0
  -33.0644  -20.0086   21.5222 C   0  0  0  0  0  0
  -32.2953  -21.0741   19.3831 C   0  0  0  0  0  0
  -33.4254  -18.8832   19.3048 C   0  0  0  0  0  0
  -28.2374  -25.3289   20.7608 C   0  0  0  0  0  0
  -32.4416  -19.7366   20.1411 C   0  0  0  0  0  0
  -31.1830  -17.5950   20.4394 N   0  0  0  0  0  0
  -29.4624  -20.8041   20.8419 N   0  0  0  0  0  0
  -29.8588  -15.5742   20.8858 N   0  0  0  0  0  0
  -28.8529  -22.9447   20.4542 N   0  0  0  0  0  0
  -28.4570  -24.2591   18.6111 O   0  0  0  0  0  0
  -28.9355  -21.4232   18.7341 O   0  0  0  0  0  0
  -28.7265  -18.1736   20.9254 S   0  0  0  0  0  0
  -31.4704  -12.4353   19.1303 H   0  0  0  0  0  0
  -30.3294  -11.3250   19.8378 H   0  0  0  0  0  0
  -29.7465  -11.7733   17.4415 H   0  0  0  0  0  0
  -29.6683  -13.4882   17.7550 H   0  0  0  0  0  0
  -27.8288  -11.3124   18.8106 H   0  0  0  0  0  0
  -27.3708  -12.6421   17.7826 H   0  0  0  0  0  0
  -27.6891  -14.2560   19.5617 H   0  0  0  0  0  0
  -28.6864  -11.9846   21.3496 H   0  0  0  0  0  0
  -28.4595  -13.6287   21.8608 H   0  0  0  0  0  0
  -25.2780   -9.5683   22.4746 H   0  0  0  0  0  0
  -24.0020   -7.4629   22.7478 H   0  0  0  0  0  0
  -21.0866   -8.8758   19.8944 H   0  0  0  0  0  0
  -22.3728  -10.9652   19.6141 H   0  0  0  0  0  0
  -21.1981   -7.6150   23.9717 H   0  0  0  0  0  0
  -21.1465   -6.0520   25.9089 H   0  0  0  0  0  0
  -22.0598   -2.7610   23.2832 H   0  0  0  0  0  0
  -22.4069  -11.9850   22.4758 H   0  0  0  0  0  0
  -21.1112  -13.1239   22.2595 H   0  0  0  0  0  0
  -24.6523  -15.8356   20.4896 H   0  0  0  0  0  0
  -26.2621  -15.6185   20.0229 H   0  0  0  0  0  0
  -26.7134  -32.5517   23.1128 H   0  0  0  0  0  0
  -25.0127  -33.9764   25.0488 H   0  0  0  0  0  0
  -22.6959  -31.3083   21.4069 H   0  0  0  0  0  0
  -23.3782  -35.9536   23.3270 H   0  0  0  0  0  0
  -24.3604  -36.8902   22.2066 H   0  0  0  0  0  0
  -23.7170  -37.6436   23.6676 H   0  0  0  0  0  0
  -26.0511  -31.5877   20.5889 H   0  0  0  0  0  0
  -26.8266  -30.8811   21.9760 H   0  0  0  0  0  0
  -28.1079  -29.0787   21.1585 H   0  0  0  0  0  0
  -26.0483  -25.9524   19.0198 H   0  0  0  0  0  0
  -23.9751  -27.2916   19.0288 H   0  0  0  0  0  0
  -23.7196  -30.5886   19.4027 H   0  0  0  0  0  0
  -22.7373  -29.2333   19.8727 H   0  0  0  0  0  0
  -25.1281  -36.1909   25.0840 H   0  0  0  0  0  0
  -20.9973  -28.3237   24.1443 H   0  0  0  0  0  0
  -20.5669  -26.2267   23.3616 H   0  0  0  0  0  0
  -21.6628  -26.7453   22.1208 H   0  0  0  0  0  0
  -19.6891  -25.6303   21.1234 H   0  0  0  0  0  0
  -19.6698  -27.3220   20.6774 H   0  0  0  0  0  0
  -17.4201  -26.6748   21.3989 H   0  0  0  0  0  0
  -18.0271  -26.0081   22.8988 H   0  0  0  0  0  0
  -19.7951  -30.7266   24.2252 H   0  0  0  0  0  0
  -17.5039  -31.6278   24.5166 H   0  0  0  0  0  0
  -15.5354  -30.2976   23.7712 H   0  0  0  0  0  0
  -15.8669  -28.0855   22.7013 H   0  0  0  0  0  0
  -24.5936  -30.7008   25.7784 H   0  0  0  0  0  0
  -24.8903  -32.2822   26.4861 H   0  0  0  0  0  0
  -25.8095  -30.8884   27.0198 H   0  0  0  0  0  0
  -26.2827  -29.6788   24.1115 H   0  0  0  0  0  0
  -27.4146  -29.7244   25.4448 H   0  0  0  0  0  0
  -27.8634  -30.4365   23.9128 H   0  0  0  0  0  0
  -27.2655  -33.3635   26.1995 H   0  0  0  0  0  0
  -28.3885  -32.6819   25.0311 H   0  0  0  0  0  0
  -28.0668  -31.8450   26.5430 H   0  0  0  0  0  0
  -28.2547  -38.0118   24.7578 H   0  0  0  0  0  0
  -28.1114  -36.2655   24.6194 H   0  0  0  0  0  0
  -27.2326  -37.1285   25.8878 H   0  0  0  0  0  0
  -20.9276  -29.8729   21.6943 H   0  0  0  0  0  0
  -26.0144  -38.2842   24.1493 H   0  0  0  0  0  0
  -32.4174  -20.6448   22.1280 H   0  0  0  0  0  0
  -34.0297  -20.5083   21.4360 H   0  0  0  0  0  0
  -33.2189  -19.0815   22.0751 H   0  0  0  0  0  0
  -31.8047  -21.8394   19.9799 H   0  0  0  0  0  0
  -31.7373  -20.9497   18.4541 H   0  0  0  0  0  0
  -33.2690  -21.4897   19.1187 H   0  0  0  0  0  0
  -33.6812  -17.9482   19.8038 H   0  0  0  0  0  0
  -34.3666  -19.4072   19.1353 H   0  0  0  0  0  0
  -33.0076  -18.6309   18.3298 H   0  0  0  0  0  0
  -28.9357  -25.3126   21.5970 H   0  0  0  0  0  0
  -27.2473  -25.1839   21.1961 H   0  0  0  0  0  0
  -29.4998  -21.1047   21.8063 H   0  0  0  0  0  0
  -28.9408  -15.2934   21.1884 H   0  0  0  0  0  0
  -28.9395  -23.0163   21.4545 H   0  0  0  0  0  0
  1 25  1  0  0  0
  1 30  2  0  0  0
  1 83  1  0  0  0
  2  3  1  0  0  0
  2 25  1  0  0  0
  2 88  1  0  0  0
  2 89  1  0  0  0
  3  4  1  0  0  0
  3 90  1  0  0  0
  3 91  1  0  0  0
  4  5  1  0  0  0
  4 92  1  0  0  0
  4 93  1  0  0  0
  5  6  1  0  0  0
  5 26  1  0  0  0
  5 94  1  0  0  0
  6 25  1  0  0  0
  6 95  1  0  0  0
  6 96  1  0  0  0
  7  8  2  0  0  0
  7 26  1  0  0  0
  7 29  1  0  0  0
  8  9  1  0  0  0
  8 22  1  0  0  0
  9 10  1  0  0  0
  9 27  2  0  0  0
 10 11  2  0  0  0
 10 15  1  0  0  0
 11 12  1  0  0  0
 11 97  1  0  0  0
 12 13  2  0  0  0
 12 98  1  0  0  0
 13 14  1  0  0  0
 13 31  1  0  0  0
 14 15  2  0  0  0
 14 99  1  0  0  0
 15100  1  0  0  0
 16 17  2  0  0  0
 16 21  1  0  0  0
 16 31  1  0  0  0
 17 18  1  0  0  0
 17101  1  0  0  0
 18 19  2  0  0  0
 18102  1  0  0  0
 19 20  1  0  0  0
 19 24  1  0  0  0
 20 21  2  0  0  0
 20103  1  0  0  0
 21 23  1  0  0  0
 22 28  1  0  0  0
 22 32  2  0  0  0
 26 27  1  0  0  0
 28104  1  0  0  0
 28105  1  0  0  0
 29106  1  0  0  0
 29107  1  0  0  0
 33 34  1  0  0  0
 33 66  1  0  0  0
 33 70  2  0  0  0
 34 36  1  0  0  0
 34 59  1  0  0  0
 34108  1  0  0  0
 35 44  2  0  0  0
 35 45  1  0  0  0
 35 68  1  0  0  0
 36 56  1  0  0  0
 36109  1  0  0  0
 37 39  1  0  0  0
 37 47  1  0  0  0
 37 66  1  0  0  0
 37110  1  0  0  0
 38 43  2  0  0  0
 38 46  1  0  0  0
 38 47  1  0  0  0
 39 64  1  0  0  0
 39 67  2  0  0  0
 40 52  1  0  0  0
 40 53  2  0  0  0
 40 58  1  0  0  0
 41111  1  0  0  0
 41112  1  0  0  0
 41113  1  0  0  0
 41 48  1  0  0  0
 42 43  1  0  0  0
 42 66  1  0  0  0
 42114  1  0  0  0
 42115  1  0  0  0
 43 44  1  0  0  0
 44116  1  0  0  0
 45 46  2  0  0  0
 45117  1  0  0  0
 46118  1  0  0  0
 47119  1  0  0  0
 47120  1  0  0  0
 48 56  1  0  0  0
 48 65  1  0  0  0
 48121  1  0  0  0
 49 50  1  0  0  0
 49 53  1  0  0  0
 49 64  1  0  0  0
 49122  1  0  0  0
 50 51  1  0  0  0
 50123  1  0  0  0
 50124  1  0  0  0
 51 52  1  0  0  0
 51125  1  0  0  0
 51126  1  0  0  0
 52127  1  0  0  0
 52128  1  0  0  0
 53 54  1  0  0  0
 54 55  2  0  0  0
 54129  1  0  0  0
 55 57  1  0  0  0
 55130  1  0  0  0
 56 69  2  0  0  0
 57 58  2  0  0  0
 57131  1  0  0  0
 58132  1  0  0  0
 59 60  1  0  0  0
 59 61  1  0  0  0
 59 62  1  0  0  0
 60133  1  0  0  0
 60134  1  0  0  0
 60135  1  0  0  0
 61136  1  0  0  0
 61137  1  0  0  0
 61138  1  0  0  0
 62139  1  0  0  0
 62140  1  0  0  0
 62141  1  0  0  0
 63 65  1  0  0  0
 63142  1  0  0  0
 63143  1  0  0  0
 63144  1  0  0  0
 64145  1  0  0  0
 65146  1  0  0  0
 68 79  1  0  0  0
 71 72  2  0  0  0
 71 80  1  0  0  0
 71 81  1  0  0  0
 72 82  1  0  0  0
 72 87  1  0  0  0
 73 81  2  0  0  0
 73 83  1  0  0  0
 73 87  1  0  0  0
 74 79  1  0  0  0
 74 84  1  0  0  0
 74 85  2  0  0  0
 75 82  1  0  0  0
 75 84  1  0  0  0
 75 86  2  0  0  0
 76147  1  0  0  0
 76148  1  0  0  0
 76149  1  0  0  0
 76 80  1  0  0  0
 77 80  1  0  0  0
 77150  1  0  0  0
 77151  1  0  0  0
 77152  1  0  0  0
 78 80  1  0  0  0
 78153  1  0  0  0
 78154  1  0  0  0
 78155  1  0  0  0
 79156  1  0  0  0
 79157  1  0  0  0
 82158  1  0  0  0
 83159  1  0  0  0
 84160  1  0  0  0
M  ISO  4   1 100  68 101  79 101  83 100
M  END
> <chiral flag>
0

> <version>
0

> <s_m_source_file>
/data/baiqing/PycharmProjects/Reinvent-master-3.2/result/LINK_invent/BTK/process_docking_weight1_custom_product_contain_oxygen_bond_distance_aromatic_linkinvent_7_9_3/rearranged_h_0181.sdf

> <i_m_source_file_index>
75

> <r_mmod_Potential_Energy-OPLS-2005>
-213.432327270508

> <r_mmod_Stretch_Energy-OPLS-2005>
47.3206520080566

> <r_mmod_Bend_Energy-OPLS-2005>
122.193672180176

> <r_mmod_Torsional_Energy-OPLS-2005>
254.504119873047

> <r_mmod_Improper_Torsional_Energy-OPLS-2005>
5.88700866699219

> <r_mmod_Van_der_Waal_Energy-OPLS-2005>
131.386291503906

> <r_mmod_Electrostatic_Energy-OPLS-2005>
-509.261138916016

> <r_mmod_Solvation_Energy-OPLS-2005>
-286.568267822266

> <b_mmod_Minimization_Converged-OPLS-2005>
0

> <r_mmod_RMS_Derivative-OPLS-2005>
2.82875728607178

$$$$
76
                    3D
 Structure written by MMmdl.
153161  0  0  1  0            999 V2000
  -30.5167  -14.9371   20.4288 C   0  0  0  0  0  0
  -30.4501  -12.5755   19.4988 C   0  0  0  0  0  0
  -29.5270  -12.5366   18.2569 C   0  0  0  0  0  0
  -28.0577  -12.3228   18.6703 C   0  0  0  0  0  0
  -27.6371  -13.2422   19.8460 C   0  0  2  0  0  0
  -28.6799  -13.2364   20.9856 C   0  0  0  0  0  0
  -25.2498  -13.8205   20.5717 C   0  0  0  0  0  0
  -24.1799  -13.0441   20.9225 C   0  0  0  0  0  0
  -24.6399  -11.6922   20.8747 C   0  0  0  0  0  0
  -23.9078  -10.4296   21.0405 C   0  0  0  0  0  0
  -24.3624   -9.4210   21.9184 C   0  0  0  0  0  0
  -23.6295   -8.2247   22.0755 C   0  0  0  0  0  0
  -22.4276   -8.0284   21.3545 C   0  0  0  0  0  0
  -21.9913   -9.0259   20.4648 C   0  0  0  0  0  0
  -22.7248  -10.2136   20.3057 C   0  0  0  0  0  0
  -21.6856   -6.0737   22.5279 C   0  0  0  0  0  0
  -21.4018   -6.5639   23.8212 C   0  0  0  0  0  0
  -21.3660   -5.6791   24.9174 C   0  0  0  0  0  0
  -21.6043   -4.3054   24.7224 C   0  0  0  0  0  0
  -21.8818   -3.8147   23.4345 C   0  0  0  0  0  0
  -21.9193   -4.6965   22.3403 C   0  0  0  0  0  0
  -22.7819  -13.5220   21.1875 C   0  0  0  0  0  0
  -22.1662   -4.2151   21.0981 F   0  0  0  0  0  0
  -21.5627   -3.4538   25.7738 F   0  0  0  0  0  0
  -29.9636  -13.6560   20.4029 N   0  0  0  0  0  0
  -26.2918  -12.9424   20.3255 N   0  0  0  0  0  0
  -25.9331  -11.6559   20.5726 N   0  0  0  0  0  0
  -22.0459  -12.8211   22.0427 N   0  0  0  0  0  0
  -25.4181  -15.1934   20.4157 N   0  0  0  0  0  0
  -31.7029  -15.0486   20.0932 O   0  0  0  0  0  0
  -21.6642   -6.8880   21.4241 O   0  0  0  0  0  0
  -22.3508  -14.5526   20.6718 O   0  0  0  0  0  0
  -24.6448  -31.8438   23.1905 C   0  0  0  0  0  0
  -25.9217  -32.4695   23.8287 C   0  0  1  0  0  0
  -27.2173  -27.1267   20.1390 C   0  0  0  0  0  0
  -25.5963  -33.8502   24.2198 N   0  0  0  0  0  0
  -23.4488  -30.4657   21.5359 C   0  0  2  0  0  0
  -24.8986  -28.8978   20.1078 C   0  0  0  0  0  0
  -22.7575  -29.4545   22.4853 C   0  0  0  0  0  0
  -18.0307  -28.1398   22.8476 C   0  0  0  0  0  0
  -24.1491  -36.7254   23.2642 C   0  0  0  0  0  0
  -26.0072  -30.7118   21.3952 C   0  0  0  0  0  0
  -26.0763  -29.3239   20.7339 C   0  0  0  0  0  0
  -27.2318  -28.4521   20.7404 C   0  0  0  0  0  0
  -26.0134  -26.8193   19.4600 C   0  0  0  0  0  0
  -24.8811  -27.6585   19.4571 C   0  0  0  0  0  0
  -23.6763  -29.8010   20.1533 C   0  0  0  0  0  0
  -25.4125  -36.3032   24.0315 C   0  0  1  0  0  0
  -20.5921  -28.3725   23.1230 C   0  0  2  0  0  0
  -20.6793  -26.9428   22.5400 C   0  0  0  0  0  0
  -19.5763  -26.6381   21.5213 C   0  0  0  0  0  0
  -18.1945  -26.7935   22.1625 C   0  0  0  0  0  0
  -19.1564  -28.8881   23.2845 C   0  0  0  0  0  0
  -18.9480  -30.1477   23.8871 C   0  0  0  0  0  0
  -17.6475  -30.6594   24.0559 C   0  0  0  0  0  0
  -25.9076  -34.9407   23.5063 C   0  0  0  0  0  0
  -16.5367  -29.9084   23.6338 C   0  0  0  0  0  0
  -16.7290  -28.6505   23.0354 C   0  0  0  0  0  0
  -26.4531  -31.6567   25.0734 C   0  0  0  0  0  0
  -25.3709  -31.3767   26.1425 C   0  0  0  0  0  0
  -27.0404  -30.2958   24.6341 C   0  0  0  0  0  0
  -27.6057  -32.4339   25.7521 C   0  0  0  0  0  0
  -27.5576  -37.1787   24.8465 C   0  0  0  0  0  0
  -21.4265  -29.3049   22.3600 N   0  0  0  0  0  0
  -26.4288  -37.3745   23.9406 N   0  0  0  0  0  0
  -24.7200  -31.0283   22.0951 N   0  0  0  0  0  0
  -23.4214  -28.8081   23.2997 O   0  0  0  0  0  0
  -28.2580  -26.1210   20.2417 O   0  0  0  0  0  0
  -26.5655  -34.8902   22.4639 O   0  0  0  0  0  0
  -23.5563  -32.1321   23.7116 O   0  0  0  0  0  0
  -28.5353  -18.2321   21.2760 C   0  0  0  0  0  0
  -30.0673  -19.8360   19.7412 C   0  0  0  0  0  0
  -28.9808  -20.5552   20.3605 C   0  0  0  0  0  0
  -28.2396  -19.6415   21.1724 C   0  0  0  0  0  0
  -29.6009  -17.5714   20.5894 C   0  0  0  0  0  0
  -28.8584  -23.2970   20.2874 C   0  0  0  0  0  0
  -28.4883  -24.8221   18.2104 C   0  0  0  0  0  0
  -27.1179  -21.8617   19.3585 C   0  0  0  0  0  0
  -28.0906  -24.6667   19.6926 C   0  0  2  0  0  0
  -30.3575  -18.4597   19.8462 N   0  0  0  0  0  0
  -29.6699  -16.0403   20.7146 N   0  0  0  0  0  0
  -28.4341  -21.9561   20.0076 N   0  0  0  0  0  0
  -29.8668  -23.4687   20.9760 O   0  0  0  0  0  0
  -27.1544  -20.1080   21.8386 F   0  0  0  0  0  0
  -31.4838  -12.7390   19.1896 H   0  0  0  0  0  0
  -30.4439  -11.6137   20.0141 H   0  0  0  0  0  0
  -29.8424  -11.7467   17.5737 H   0  0  0  0  0  0
  -29.6181  -13.4730   17.7044 H   0  0  0  0  0  0
  -27.9475  -11.2784   18.9644 H   0  0  0  0  0  0
  -27.3968  -12.4704   17.8153 H   0  0  0  0  0  0
  -27.6096  -14.2510   19.4333 H   0  0  0  0  0  0
  -28.7599  -12.2461   21.4366 H   0  0  0  0  0  0
  -28.3776  -13.9109   21.7880 H   0  0  0  0  0  0
  -25.2768   -9.5691   22.4761 H   0  0  0  0  0  0
  -24.0005   -7.4642   22.7477 H   0  0  0  0  0  0
  -21.0843   -8.8782   19.8955 H   0  0  0  0  0  0
  -22.3707  -10.9674   19.6169 H   0  0  0  0  0  0
  -21.2013   -7.6148   23.9715 H   0  0  0  0  0  0
  -21.1482   -6.0523   25.9077 H   0  0  0  0  0  0
  -22.0595   -2.7609   23.2846 H   0  0  0  0  0  0
  -22.4072  -11.9877   22.4826 H   0  0  0  0  0  0
  -21.1075  -13.1237   22.2621 H   0  0  0  0  0  0
  -24.6446  -15.8402   20.5262 H   0  0  0  0  0  0
  -26.2465  -15.6324   20.0369 H   0  0  0  0  0  0
  -26.7280  -32.5294   23.1011 H   0  0  0  0  0  0
  -25.0097  -33.9615   25.0336 H   0  0  0  0  0  0
  -22.7522  -31.2929   21.3843 H   0  0  0  0  0  0
  -23.3758  -35.9580   23.3293 H   0  0  0  0  0  0
  -24.3578  -36.8898   22.2059 H   0  0  0  0  0  0
  -23.7243  -37.6446   23.6684 H   0  0  0  0  0  0
  -26.1684  -31.4669   20.6247 H   0  0  0  0  0  0
  -26.8757  -30.7580   22.0403 H   0  0  0  0  0  0
  -28.1226  -28.7699   21.2635 H   0  0  0  0  0  0
  -25.8877  -25.8879   18.9334 H   0  0  0  0  0  0
  -23.9851  -27.3301   18.9484 H   0  0  0  0  0  0
  -23.8162  -30.5792   19.4020 H   0  0  0  0  0  0
  -22.7899  -29.2472   19.8388 H   0  0  0  0  0  0
  -25.1313  -36.1860   25.0806 H   0  0  0  0  0  0
  -21.0013  -28.3316   24.1352 H   0  0  0  0  0  0
  -20.5697  -26.2337   23.3618 H   0  0  0  0  0  0
  -21.6658  -26.7438   22.1193 H   0  0  0  0  0  0
  -19.6925  -25.6283   21.1264 H   0  0  0  0  0  0
  -19.6699  -27.3173   20.6728 H   0  0  0  0  0  0
  -17.4212  -26.6675   21.4031 H   0  0  0  0  0  0
  -18.0347  -26.0086   22.9032 H   0  0  0  0  0  0
  -19.7954  -30.7303   24.2226 H   0  0  0  0  0  0
  -17.5027  -31.6272   24.5162 H   0  0  0  0  0  0
  -15.5366  -30.2976   23.7679 H   0  0  0  0  0  0
  -15.8691  -28.0818   22.7079 H   0  0  0  0  0  0
  -24.5879  -30.7128   25.7742 H   0  0  0  0  0  0
  -24.8908  -32.2955   26.4802 H   0  0  0  0  0  0
  -25.7979  -30.8965   27.0237 H   0  0  0  0  0  0
  -26.3033  -29.6673   24.1331 H   0  0  0  0  0  0
  -27.3982  -29.7270   25.4933 H   0  0  0  0  0  0
  -27.8954  -30.4185   23.9691 H   0  0  0  0  0  0
  -27.2642  -33.3655   26.2046 H   0  0  0  0  0  0
  -28.3894  -32.6879   25.0372 H   0  0  0  0  0  0
  -28.0693  -31.8503   26.5484 H   0  0  0  0  0  0
  -28.2587  -38.0090   24.7512 H   0  0  0  0  0  0
  -28.1079  -36.2621   24.6292 H   0  0  0  0  0  0
  -27.2293  -37.1436   25.8868 H   0  0  0  0  0  0
  -20.9475  -29.8772   21.6788 H   0  0  0  0  0  0
  -26.0155  -38.2813   24.1404 H   0  0  0  0  0  0
  -27.8721  -17.6438   21.8925 H   0  0  0  0  0  0
  -30.7000  -20.3671   19.0455 H   0  0  0  0  0  0
  -28.5547  -23.8694   17.6864 H   0  0  0  0  0  0
  -29.4674  -25.2945   18.1269 H   0  0  0  0  0  0
  -27.7801  -25.4427   17.6634 H   0  0  0  0  0  0
  -26.8711  -20.8368   19.0783 H   0  0  0  0  0  0
  -27.0570  -22.4350   18.4348 H   0  0  0  0  0  0
  -26.3285  -22.2039   20.0299 H   0  0  0  0  0  0
  -27.0387  -24.4135   19.7815 H   0  0  0  0  0  0
  -28.8052  -15.6751   21.0782 H   0  0  0  0  0  0
  1 25  1  0  0  0
  1 30  2  0  0  0
  1 81  1  0  0  0
  2  3  1  0  0  0
  2 25  1  0  0  0
  2 85  1  0  0  0
  2 86  1  0  0  0
  3  4  1  0  0  0
  3 87  1  0  0  0
  3 88  1  0  0  0
  4  5  1  0  0  0
  4 89  1  0  0  0
  4 90  1  0  0  0
  5  6  1  0  0  0
  5 26  1  0  0  0
  5 91  1  0  0  0
  6 25  1  0  0  0
  6 92  1  0  0  0
  6 93  1  0  0  0
  7  8  2  0  0  0
  7 26  1  0  0  0
  7 29  1  0  0  0
  8  9  1  0  0  0
  8 22  1  0  0  0
  9 10  1  0  0  0
  9 27  2  0  0  0
 10 11  2  0  0  0
 10 15  1  0  0  0
 11 12  1  0  0  0
 11 94  1  0  0  0
 12 13  2  0  0  0
 12 95  1  0  0  0
 13 14  1  0  0  0
 13 31  1  0  0  0
 14 15  2  0  0  0
 14 96  1  0  0  0
 15 97  1  0  0  0
 16 17  2  0  0  0
 16 21  1  0  0  0
 16 31  1  0  0  0
 17 18  1  0  0  0
 17 98  1  0  0  0
 18 19  2  0  0  0
 18 99  1  0  0  0
 19 20  1  0  0  0
 19 24  1  0  0  0
 20 21  2  0  0  0
 20100  1  0  0  0
 21 23  1  0  0  0
 22 28  1  0  0  0
 22 32  2  0  0  0
 26 27  1  0  0  0
 28101  1  0  0  0
 28102  1  0  0  0
 29103  1  0  0  0
 29104  1  0  0  0
 33 34  1  0  0  0
 33 66  1  0  0  0
 33 70  2  0  0  0
 34 36  1  0  0  0
 34 59  1  0  0  0
 34105  1  0  0  0
 35 44  2  0  0  0
 35 45  1  0  0  0
 35 68  1  0  0  0
 36 56  1  0  0  0
 36106  1  0  0  0
 37 39  1  0  0  0
 37 47  1  0  0  0
 37 66  1  0  0  0
 37107  1  0  0  0
 38 43  2  0  0  0
 38 46  1  0  0  0
 38 47  1  0  0  0
 39 64  1  0  0  0
 39 67  2  0  0  0
 40 52  1  0  0  0
 40 53  2  0  0  0
 40 58  1  0  0  0
 41108  1  0  0  0
 41109  1  0  0  0
 41110  1  0  0  0
 41 48  1  0  0  0
 42 43  1  0  0  0
 42 66  1  0  0  0
 42111  1  0  0  0
 42112  1  0  0  0
 43 44  1  0  0  0
 44113  1  0  0  0
 45 46  2  0  0  0
 45114  1  0  0  0
 46115  1  0  0  0
 47116  1  0  0  0
 47117  1  0  0  0
 48 56  1  0  0  0
 48 65  1  0  0  0
 48118  1  0  0  0
 49 50  1  0  0  0
 49 53  1  0  0  0
 49 64  1  0  0  0
 49119  1  0  0  0
 50 51  1  0  0  0
 50120  1  0  0  0
 50121  1  0  0  0
 51 52  1  0  0  0
 51122  1  0  0  0
 51123  1  0  0  0
 52124  1  0  0  0
 52125  1  0  0  0
 53 54  1  0  0  0
 54 55  2  0  0  0
 54126  1  0  0  0
 55 57  1  0  0  0
 55127  1  0  0  0
 56 69  2  0  0  0
 57 58  2  0  0  0
 57128  1  0  0  0
 58129  1  0  0  0
 59 60  1  0  0  0
 59 61  1  0  0  0
 59 62  1  0  0  0
 60130  1  0  0  0
 60131  1  0  0  0
 60132  1  0  0  0
 61133  1  0  0  0
 61134  1  0  0  0
 61135  1  0  0  0
 62136  1  0  0  0
 62137  1  0  0  0
 62138  1  0  0  0
 63 65  1  0  0  0
 63139  1  0  0  0
 63140  1  0  0  0
 63141  1  0  0  0
 64142  1  0  0  0
 65143  1  0  0  0
 68 79  1  0  0  0
 71 74  2  0  0  0
 71 75  1  0  0  0
 71144  1  0  0  0
 72 73  2  0  0  0
 72 80  1  0  0  0
 72145  1  0  0  0
 73 74  1  0  0  0
 73 82  1  0  0  0
 74 84  1  0  0  0
 75 80  2  0  0  0
 75 81  1  0  0  0
 76 79  1  0  0  0
 76 82  1  0  0  0
 76 83  2  0  0  0
 77146  1  0  0  0
 77147  1  0  0  0
 77148  1  0  0  0
 77 79  1  0  0  0
 78 82  1  0  0  0
 78149  1  0  0  0
 78150  1  0  0  0
 78151  1  0  0  0
 79152  1  0  0  0
 81153  1  0  0  0
M  ISO  4   1 100  68 101  79 101  81 100
M  END
> <chiral flag>
0

> <version>
0

> <s_m_source_file>
/data/baiqing/PycharmProjects/Reinvent-master-3.2/result/LINK_invent/BTK/process_docking_weight1_custom_product_contain_oxygen_bond_distance_aromatic_linkinvent_7_9_3/rearranged_h_0181.sdf

> <i_m_source_file_index>
76

> <r_mmod_Potential_Energy-OPLS-2005>
402.554840087891

> <r_mmod_Stretch_Energy-OPLS-2005>
247.322708129883

> <r_mmod_Bend_Energy-OPLS-2005>
278.6201171875

> <r_mmod_Torsional_Energy-OPLS-2005>
274.365997314453

> <r_mmod_Improper_Torsional_Energy-OPLS-2005>
6.23045015335083

> <r_mmod_Van_der_Waal_Energy-OPLS-2005>
143.145385742188

> <r_mmod_Electrostatic_Energy-OPLS-2005>
-488.811187744141

> <r_mmod_Solvation_Energy-OPLS-2005>
-252.348831176758

> <b_mmod_Minimization_Converged-OPLS-2005>
0

> <r_mmod_RMS_Derivative-OPLS-2005>
0.568227589130402

$$$$
77
                    3D
 Structure written by MMmdl.
159167  0  0  1  0            999 V2000
  -30.7276  -14.3584   20.6355 C   0  0  0  0  0  0
  -30.3732  -12.2365   19.4362 C   0  0  0  0  0  0
  -29.4844  -12.5281   18.2062 C   0  0  0  0  0  0
  -27.9954  -12.4077   18.5885 C   0  0  0  0  0  0
  -27.6469  -13.2122   19.8674 C   0  0  2  0  0  0
  -28.6624  -12.9504   21.0018 C   0  0  0  0  0  0
  -25.2525  -13.8223   20.5610 C   0  0  0  0  0  0
  -24.1778  -13.0440   20.9094 C   0  0  0  0  0  0
  -24.6348  -11.6941   20.8652 C   0  0  0  0  0  0
  -23.9025  -10.4311   21.0350 C   0  0  0  0  0  0
  -24.3613   -9.4263   21.9122 C   0  0  0  0  0  0
  -23.6264   -8.2317   22.0744 C   0  0  0  0  0  0
  -22.4260   -8.0332   21.3538 C   0  0  0  0  0  0
  -21.9868   -9.0282   20.4622 C   0  0  0  0  0  0
  -22.7208  -10.2151   20.2984 C   0  0  0  0  0  0
  -21.6874   -6.0751   22.5276 C   0  0  0  0  0  0
  -21.4054   -6.5645   23.8214 C   0  0  0  0  0  0
  -21.3624   -5.6796   24.9153 C   0  0  0  0  0  0
  -21.6007   -4.3054   24.7210 C   0  0  0  0  0  0
  -21.8808   -3.8157   23.4322 C   0  0  0  0  0  0
  -21.9203   -4.6968   22.3394 C   0  0  0  0  0  0
  -22.7818  -13.5270   21.1799 C   0  0  0  0  0  0
  -22.1669   -4.2173   21.0957 F   0  0  0  0  0  0
  -21.5582   -3.4520   25.7696 F   0  0  0  0  0  0
  -30.0201  -13.2113   20.4796 N   0  0  0  0  0  0
  -26.2884  -12.9375   20.3155 N   0  0  0  0  0  0
  -25.9234  -11.6528   20.5517 N   0  0  0  0  0  0
  -22.0492  -12.8256   22.0359 N   0  0  0  0  0  0
  -25.4330  -15.1929   20.4150 N   0  0  0  0  0  0
  -31.8236  -14.5632   20.1025 O   0  0  0  0  0  0
  -21.6650   -6.8918   21.4253 O   0  0  0  0  0  0
  -22.3471  -14.5551   20.6640 O   0  0  0  0  0  0
  -24.6099  -31.8805   23.2279 C   0  0  0  0  0  0
  -25.9011  -32.4934   23.8561 C   0  0  1  0  0  0
  -27.2461  -27.4867   20.1066 C   0  0  0  0  0  0
  -25.5882  -33.8713   24.2486 N   0  0  0  0  0  0
  -23.4010  -30.4997   21.5717 C   0  0  2  0  0  0
  -24.8466  -28.9902   20.1239 C   0  0  0  0  0  0
  -22.7448  -29.4726   22.5170 C   0  0  0  0  0  0
  -18.0352  -28.1511   22.8608 C   0  0  0  0  0  0
  -24.1483  -36.7316   23.2632 C   0  0  0  0  0  0
  -25.9240  -30.8626   21.3780 C   0  0  0  0  0  0
  -26.0079  -29.5090   20.7097 C   0  0  0  0  0  0
  -27.2101  -28.7686   20.6861 C   0  0  0  0  0  0
  -26.0647  -27.0021   19.4871 C   0  0  0  0  0  0
  -24.8679  -27.7309   19.5103 C   0  0  0  0  0  0
  -23.6031  -29.8416   20.1842 C   0  0  0  0  0  0
  -25.4103  -36.3208   24.0379 C   0  0  1  0  0  0
  -20.5947  -28.3619   23.1341 C   0  0  2  0  0  0
  -20.6850  -26.9536   22.5109 C   0  0  0  0  0  0
  -19.5763  -26.6965   21.4906 C   0  0  0  0  0  0
  -18.2070  -26.8130   22.1653 C   0  0  0  0  0  0
  -19.1650  -28.8874   23.3033 C   0  0  0  0  0  0
  -18.9651  -30.1429   23.9170 C   0  0  0  0  0  0
  -17.6691  -30.6611   24.0921 C   0  0  0  0  0  0
  -25.9020  -34.9555   23.5240 C   0  0  0  0  0  0
  -16.5521  -29.9249   23.6596 C   0  0  0  0  0  0
  -16.7357  -28.6732   23.0468 C   0  0  0  0  0  0
  -26.4424  -31.6737   25.0908 C   0  0  0  0  0  0
  -25.3648  -31.3824   26.1626 C   0  0  0  0  0  0
  -27.0218  -30.3199   24.6283 C   0  0  0  0  0  0
  -27.6080  -32.4409   25.7606 C   0  0  0  0  0  0
  -27.5602  -37.1801   24.8476 C   0  0  0  0  0  0
  -21.4229  -29.2938   22.3750 N   0  0  0  0  0  0
  -26.4330  -37.3871   23.9404 N   0  0  0  0  0  0
  -24.6629  -31.0932   22.1158 N   0  0  0  0  0  0
  -23.4197  -28.8437   23.3382 O   0  0  0  0  0  0
  -28.4010  -26.7305   20.2046 O   0  0  0  0  0  0
  -26.5603  -34.8981   22.4824 O   0  0  0  0  0  0
  -23.5321  -32.1546   23.7674 O   0  0  0  0  0  0
  -30.1758  -18.9427   21.4293 C   0  0  0  0  0  0
  -30.2004  -17.6468   22.0352 C   0  0  0  0  0  0
  -30.1131  -18.8931   20.0560 C   0  0  0  0  0  0
  -30.1936  -16.6222   21.1208 C   0  0  0  0  0  0
  -29.9729  -19.9129   19.0123 C   0  0  0  0  0  0
  -30.6508  -21.3027   19.1169 C   0  0  0  0  0  0
  -30.2123  -25.0632   21.7607 C   0  0  0  0  0  0
  -28.3466  -23.4063   21.7839 C   0  0  0  0  0  0
  -29.9761  -23.5468   19.7759 C   0  0  0  0  0  0
  -28.1826  -25.3160   20.1450 C   0  0  0  0  0  0
  -29.1809  -24.3395   20.8616 C   0  0  0  0  0  0
  -30.1233  -15.2988   21.3766 N   0  0  0  0  0  0
  -30.0863  -22.1135   20.0240 N   0  0  0  0  0  0
  -29.3229  -19.6733   17.9896 O   0  0  0  0  0  0
  -31.4729  -21.6948   18.2798 O   0  0  0  0  0  0
  -30.1804  -17.2528   19.4871 S   0  0  0  0  0  0
  -31.4337  -12.2630   19.1782 H   0  0  0  0  0  0
  -30.1788  -11.2204   19.7922 H   0  0  0  0  0  0
  -29.7159  -11.8394   17.3934 H   0  0  0  0  0  0
  -29.6886  -13.5269   17.8140 H   0  0  0  0  0  0
  -27.7703  -11.3514   18.7345 H   0  0  0  0  0  0
  -27.3733  -12.7410   17.7540 H   0  0  0  0  0  0
  -27.7017  -14.2652   19.5978 H   0  0  0  0  0  0
  -28.5854  -11.9119   21.3341 H   0  0  0  0  0  0
  -28.3910  -13.5485   21.8752 H   0  0  0  0  0  0
  -25.2786   -9.5751   22.4650 H   0  0  0  0  0  0
  -23.9963   -7.4736   22.7487 H   0  0  0  0  0  0
  -21.0796   -8.8810   19.8945 H   0  0  0  0  0  0
  -22.3677  -10.9673   19.6067 H   0  0  0  0  0  0
  -21.2129   -7.6173   23.9722 H   0  0  0  0  0  0
  -21.1404   -6.0516   25.9044 H   0  0  0  0  0  0
  -22.0618   -2.7621   23.2804 H   0  0  0  0  0  0
  -22.4137  -11.9914   22.4723 H   0  0  0  0  0  0
  -21.1104  -13.1293   22.2547 H   0  0  0  0  0  0
  -24.6827  -15.8700   20.5188 H   0  0  0  0  0  0
  -26.3115  -15.6230   20.1492 H   0  0  0  0  0  0
  -26.7057  -32.5759   23.1326 H   0  0  0  0  0  0
  -24.9975  -33.9923   25.0571 H   0  0  0  0  0  0
  -22.6883  -31.3179   21.4561 H   0  0  0  0  0  0
  -23.3863  -35.9547   23.3354 H   0  0  0  0  0  0
  -24.3525  -36.8881   22.2034 H   0  0  0  0  0  0
  -23.7143  -37.6484   23.6596 H   0  0  0  0  0  0
  -26.0378  -31.6416   20.6225 H   0  0  0  0  0  0
  -26.7989  -30.9065   22.0176 H   0  0  0  0  0  0
  -28.1107  -29.1636   21.1337 H   0  0  0  0  0  0
  -26.0274  -26.0379   19.0026 H   0  0  0  0  0  0
  -23.9815  -27.3121   19.0536 H   0  0  0  0  0  0
  -23.6907  -30.6243   19.4285 H   0  0  0  0  0  0
  -22.7324  -29.2475   19.9031 H   0  0  0  0  0  0
  -25.1255  -36.2096   25.0872 H   0  0  0  0  0  0
  -21.0188  -28.3060   24.1387 H   0  0  0  0  0  0
  -20.5991  -26.2151   23.3115 H   0  0  0  0  0  0
  -21.6673  -26.7855   22.0612 H   0  0  0  0  0  0
  -19.6986  -25.7182   21.0261 H   0  0  0  0  0  0
  -19.6534  -27.4348   20.6907 H   0  0  0  0  0  0
  -17.4105  -26.6883   21.4328 H   0  0  0  0  0  0
  -18.0966  -26.0108   22.8979 H   0  0  0  0  0  0
  -19.8141  -30.7164   24.2680 H   0  0  0  0  0  0
  -17.5389  -31.6173   24.5785 H   0  0  0  0  0  0
  -15.5578  -30.3200   23.8154 H   0  0  0  0  0  0
  -15.8709  -28.1144   22.7174 H   0  0  0  0  0  0
  -24.5854  -30.7164   25.7916 H   0  0  0  0  0  0
  -24.8752  -32.2951   26.5020 H   0  0  0  0  0  0
  -25.7893  -30.8990   27.0433 H   0  0  0  0  0  0
  -26.2753  -29.7065   24.1260 H   0  0  0  0  0  0
  -27.3893  -29.7351   25.4721 H   0  0  0  0  0  0
  -27.8643  -30.4566   23.9530 H   0  0  0  0  0  0
  -27.2817  -33.3732   26.2214 H   0  0  0  0  0  0
  -28.3815  -32.6929   25.0353 H   0  0  0  0  0  0
  -28.0859  -31.8523   26.5438 H   0  0  0  0  0  0
  -28.2653  -38.0065   24.7538 H   0  0  0  0  0  0
  -28.1050  -36.2607   24.6264 H   0  0  0  0  0  0
  -27.2309  -37.1433   25.8877 H   0  0  0  0  0  0
  -20.9519  -29.8151   21.6500 H   0  0  0  0  0  0
  -26.0295  -38.2998   24.1323 H   0  0  0  0  0  0
  -30.1655  -19.8392   22.0304 H   0  0  0  0  0  0
  -30.2170  -17.5148   23.1107 H   0  0  0  0  0  0
  -30.9055  -24.3364   22.1926 H   0  0  0  0  0  0
  -29.7432  -25.5890   22.5945 H   0  0  0  0  0  0
  -30.8173  -25.7891   21.2117 H   0  0  0  0  0  0
  -28.9710  -22.7520   22.3919 H   0  0  0  0  0  0
  -27.6338  -22.7894   21.2307 H   0  0  0  0  0  0
  -27.7530  -23.9889   22.4908 H   0  0  0  0  0  0
  -30.9574  -23.9971   19.6133 H   0  0  0  0  0  0
  -29.4872  -23.6120   18.8032 H   0  0  0  0  0  0
  -27.2060  -25.1086   20.5768 H   0  0  0  0  0  0
  -28.0898  -25.0896   19.0832 H   0  0  0  0  0  0
  -29.3104  -14.9952   21.8903 H   0  0  0  0  0  0
  -29.4430  -21.7004   20.6846 H   0  0  0  0  0  0
  1 25  1  0  0  0
  1 30  2  0  0  0
  1 82  1  0  0  0
  2  3  1  0  0  0
  2 25  1  0  0  0
  2 87  1  0  0  0
  2 88  1  0  0  0
  3  4  1  0  0  0
  3 89  1  0  0  0
  3 90  1  0  0  0
  4  5  1  0  0  0
  4 91  1  0  0  0
  4 92  1  0  0  0
  5  6  1  0  0  0
  5 26  1  0  0  0
  5 93  1  0  0  0
  6 25  1  0  0  0
  6 94  1  0  0  0
  6 95  1  0  0  0
  7  8  2  0  0  0
  7 26  1  0  0  0
  7 29  1  0  0  0
  8  9  1  0  0  0
  8 22  1  0  0  0
  9 10  1  0  0  0
  9 27  2  0  0  0
 10 11  2  0  0  0
 10 15  1  0  0  0
 11 12  1  0  0  0
 11 96  1  0  0  0
 12 13  2  0  0  0
 12 97  1  0  0  0
 13 14  1  0  0  0
 13 31  1  0  0  0
 14 15  2  0  0  0
 14 98  1  0  0  0
 15 99  1  0  0  0
 16 17  2  0  0  0
 16 21  1  0  0  0
 16 31  1  0  0  0
 17 18  1  0  0  0
 17100  1  0  0  0
 18 19  2  0  0  0
 18101  1  0  0  0
 19 20  1  0  0  0
 19 24  1  0  0  0
 20 21  2  0  0  0
 20102  1  0  0  0
 21 23  1  0  0  0
 22 28  1  0  0  0
 22 32  2  0  0  0
 26 27  1  0  0  0
 28103  1  0  0  0
 28104  1  0  0  0
 29105  1  0  0  0
 29106  1  0  0  0
 33 34  1  0  0  0
 33 66  1  0  0  0
 33 70  2  0  0  0
 34 36  1  0  0  0
 34 59  1  0  0  0
 34107  1  0  0  0
 35 44  2  0  0  0
 35 45  1  0  0  0
 35 68  1  0  0  0
 36 56  1  0  0  0
 36108  1  0  0  0
 37 39  1  0  0  0
 37 47  1  0  0  0
 37 66  1  0  0  0
 37109  1  0  0  0
 38 43  2  0  0  0
 38 46  1  0  0  0
 38 47  1  0  0  0
 39 64  1  0  0  0
 39 67  2  0  0  0
 40 52  1  0  0  0
 40 53  2  0  0  0
 40 58  1  0  0  0
 41110  1  0  0  0
 41111  1  0  0  0
 41112  1  0  0  0
 41 48  1  0  0  0
 42 43  1  0  0  0
 42 66  1  0  0  0
 42113  1  0  0  0
 42114  1  0  0  0
 43 44  1  0  0  0
 44115  1  0  0  0
 45 46  2  0  0  0
 45116  1  0  0  0
 46117  1  0  0  0
 47118  1  0  0  0
 47119  1  0  0  0
 48 56  1  0  0  0
 48 65  1  0  0  0
 48120  1  0  0  0
 49 50  1  0  0  0
 49 53  1  0  0  0
 49 64  1  0  0  0
 49121  1  0  0  0
 50 51  1  0  0  0
 50122  1  0  0  0
 50123  1  0  0  0
 51 52  1  0  0  0
 51124  1  0  0  0
 51125  1  0  0  0
 52126  1  0  0  0
 52127  1  0  0  0
 53 54  1  0  0  0
 54 55  2  0  0  0
 54128  1  0  0  0
 55 57  1  0  0  0
 55129  1  0  0  0
 56 69  2  0  0  0
 57 58  2  0  0  0
 57130  1  0  0  0
 58131  1  0  0  0
 59 60  1  0  0  0
 59 61  1  0  0  0
 59 62  1  0  0  0
 60132  1  0  0  0
 60133  1  0  0  0
 60134  1  0  0  0
 61135  1  0  0  0
 61136  1  0  0  0
 61137  1  0  0  0
 62138  1  0  0  0
 62139  1  0  0  0
 62140  1  0  0  0
 63 65  1  0  0  0
 63141  1  0  0  0
 63142  1  0  0  0
 63143  1  0  0  0
 64144  1  0  0  0
 65145  1  0  0  0
 68 80  1  0  0  0
 71 72  1  0  0  0
 71 73  2  0  0  0
 71146  1  0  0  0
 72 74  2  0  0  0
 72147  1  0  0  0
 73 75  1  0  0  0
 73 86  1  0  0  0
 74 82  1  0  0  0
 74 86  1  0  0  0
 75 76  1  0  0  0
 75 84  2  0  0  0
 76 83  1  0  0  0
 76 85  2  0  0  0
 77148  1  0  0  0
 77149  1  0  0  0
 77150  1  0  0  0
 77 81  1  0  0  0
 78 81  1  0  0  0
 78151  1  0  0  0
 78152  1  0  0  0
 78153  1  0  0  0
 79 81  1  0  0  0
 79 83  1  0  0  0
 79154  1  0  0  0
 79155  1  0  0  0
 80 81  1  0  0  0
 80156  1  0  0  0
 80157  1  0  0  0
 82158  1  0  0  0
 83159  1  0  0  0
M  ISO  4   1 100  68 101  80 101  82 100
M  END
> <chiral flag>
0

> <version>
0

> <s_m_source_file>
/data/baiqing/PycharmProjects/Reinvent-master-3.2/result/LINK_invent/BTK/process_docking_weight1_custom_product_contain_oxygen_bond_distance_aromatic_linkinvent_7_9_3/rearranged_h_0181.sdf

> <i_m_source_file_index>
77

> <r_mmod_Potential_Energy-OPLS-2005>
64.5722198486328

> <r_mmod_Stretch_Energy-OPLS-2005>
34.9245223999023

> <r_mmod_Bend_Energy-OPLS-2005>
114.061645507812

> <r_mmod_Torsional_Energy-OPLS-2005>
292.58251953125

> <r_mmod_Improper_Torsional_Energy-OPLS-2005>
9.09265327453613

> <r_mmod_Van_der_Waal_Energy-OPLS-2005>
163.765930175781

> <r_mmod_Electrostatic_Energy-OPLS-2005>
-315.574798583984

> <r_mmod_Solvation_Energy-OPLS-2005>
-249.667297363281

> <b_mmod_Minimization_Converged-OPLS-2005>
0

> <r_mmod_RMS_Derivative-OPLS-2005>
9.13661575317383

$$$$
78
                    3D
 Structure written by MMmdl.
156164  0  0  1  0            999 V2000
  -30.6598  -14.6543   20.4508 C   0  0  0  0  0  0
  -30.4199  -12.3940   19.4690 C   0  0  0  0  0  0
  -29.5044  -12.4931   18.2308 C   0  0  0  0  0  0
  -28.0283  -12.3354   18.6427 C   0  0  0  0  0  0
  -27.6438  -13.2288   19.8533 C   0  0  2  0  0  0
  -28.6884  -13.1467   20.9885 C   0  0  0  0  0  0
  -25.2515  -13.8201   20.5694 C   0  0  0  0  0  0
  -24.1803  -13.0446   20.9204 C   0  0  0  0  0  0
  -24.6393  -11.6923   20.8752 C   0  0  0  0  0  0
  -23.9070  -10.4297   21.0406 C   0  0  0  0  0  0
  -24.3621   -9.4209   21.9180 C   0  0  0  0  0  0
  -23.6292   -8.2244   22.0751 C   0  0  0  0  0  0
  -22.4273   -8.0284   21.3543 C   0  0  0  0  0  0
  -21.9909   -9.0259   20.4645 C   0  0  0  0  0  0
  -22.7242  -10.2136   20.3055 C   0  0  0  0  0  0
  -21.6854   -6.0735   22.5278 C   0  0  0  0  0  0
  -21.4018   -6.5639   23.8212 C   0  0  0  0  0  0
  -21.3661   -5.6791   24.9172 C   0  0  0  0  0  0
  -21.6045   -4.3055   24.7223 C   0  0  0  0  0  0
  -21.8820   -3.8145   23.4346 C   0  0  0  0  0  0
  -21.9193   -4.6961   22.3402 C   0  0  0  0  0  0
  -22.7823  -13.5226   21.1863 C   0  0  0  0  0  0
  -22.1660   -4.2148   21.0979 F   0  0  0  0  0  0
  -21.5627   -3.4539   25.7735 F   0  0  0  0  0  0
  -29.9982  -13.4559   20.4062 N   0  0  0  0  0  0
  -26.2946  -12.9406   20.3297 N   0  0  0  0  0  0
  -25.9324  -11.6551   20.5767 N   0  0  0  0  0  0
  -22.0469  -12.8217   22.0420 N   0  0  0  0  0  0
  -25.4193  -15.1927   20.4106 N   0  0  0  0  0  0
  -31.8606  -14.7100   20.1768 O   0  0  0  0  0  0
  -21.6641   -6.8879   21.4239 O   0  0  0  0  0  0
  -22.3506  -14.5527   20.6705 O   0  0  0  0  0  0
  -24.6255  -31.8597   23.2022 C   0  0  0  0  0  0
  -25.9104  -32.4775   23.8352 C   0  0  1  0  0  0
  -27.2211  -27.3276   20.1264 C   0  0  0  0  0  0
  -25.5921  -33.8576   24.2281 N   0  0  0  0  0  0
  -23.4194  -30.4819   21.5447 C   0  0  2  0  0  0
  -24.8674  -28.9346   20.1135 C   0  0  0  0  0  0
  -22.7472  -29.4617   22.4942 C   0  0  0  0  0  0
  -18.0285  -28.1387   22.8486 C   0  0  0  0  0  0
  -24.1487  -36.7292   23.2638 C   0  0  0  0  0  0
  -25.9586  -30.7943   21.3709 C   0  0  0  0  0  0
  -26.0355  -29.4208   20.7167 C   0  0  0  0  0  0
  -27.2208  -28.6286   20.7122 C   0  0  0  0  0  0
  -26.0374  -26.8872   19.5019 C   0  0  0  0  0  0
  -24.8689  -27.6726   19.4969 C   0  0  0  0  0  0
  -23.6348  -29.8144   20.1608 C   0  0  0  0  0  0
  -25.4110  -36.3079   24.0329 C   0  0  1  0  0  0
  -20.5883  -28.3687   23.1289 C   0  0  2  0  0  0
  -20.6772  -26.9411   22.5413 C   0  0  0  0  0  0
  -19.5749  -26.6386   21.5213 C   0  0  0  0  0  0
  -18.1930  -26.7931   22.1625 C   0  0  0  0  0  0
  -19.1537  -28.8855   23.2883 C   0  0  0  0  0  0
  -18.9461  -30.1457   23.8900 C   0  0  0  0  0  0
  -17.6459  -30.6586   24.0567 C   0  0  0  0  0  0
  -25.9048  -34.9449   23.5107 C   0  0  0  0  0  0
  -16.5351  -29.9085   23.6329 C   0  0  0  0  0  0
  -16.7272  -28.6505   23.0347 C   0  0  0  0  0  0
  -26.4495  -31.6579   25.0718 C   0  0  0  0  0  0
  -25.3734  -31.3725   26.1453 C   0  0  0  0  0  0
  -27.0329  -30.2999   24.6162 C   0  0  0  0  0  0
  -27.6064  -32.4304   25.7483 C   0  0  0  0  0  0
  -27.5578  -37.1797   24.8461 C   0  0  0  0  0  0
  -21.4185  -29.3037   22.3682 N   0  0  0  0  0  0
  -26.4287  -37.3773   23.9411 N   0  0  0  0  0  0
  -24.6865  -31.0615   22.0968 N   0  0  0  0  0  0
  -23.4195  -28.8163   23.3026 O   0  0  0  0  0  0
  -28.3176  -26.4616   20.1358 O   0  0  0  0  0  0
  -26.5619  -34.8917   22.4674 O   0  0  0  0  0  0
  -23.5420  -32.1392   23.7356 O   0  0  0  0  0  0
  -28.8332  -19.2433   19.4545 C   0  0  0  0  0  0
  -28.5267  -20.6222   19.6512 C   0  0  0  0  0  0
  -29.7372  -18.5527   20.3102 C   0  0  0  0  0  0
  -29.0955  -21.3485   20.7244 C   0  0  0  0  0  0
  -30.2198  -19.3469   21.3818 C   0  0  0  0  0  0
  -28.5710  -23.8547   20.2092 C   0  0  0  0  0  0
  -30.4991  -17.0231   18.4003 C   0  0  0  0  0  0
  -28.9376  -25.4434   22.2266 C   0  0  0  0  0  0
  -30.3873  -17.1485   19.9383 C   0  0  2  0  0  0
  -28.1571  -25.2163   20.9209 C   0  0  1  0  0  0
  -29.8943  -20.6606   21.5842 N   0  0  0  0  0  0
  -28.7679  -22.7462   20.9968 N   0  0  0  0  0  0
  -29.9164  -15.8168   20.4949 N   0  0  0  0  0  0
  -28.6801  -23.8245   18.9795 O   0  0  0  0  0  0
  -31.1066  -18.8003   22.2463 F   0  0  0  0  0  0
  -31.4656  -12.4872   19.1709 H   0  0  0  0  0  0
  -30.3305  -11.4139   19.9406 H   0  0  0  0  0  0
  -29.7720  -11.7294   17.4995 H   0  0  0  0  0  0
  -29.6505  -13.4558   17.7379 H   0  0  0  0  0  0
  -27.8706  -11.2858   18.8940 H   0  0  0  0  0  0
  -27.3748  -12.5454   17.7954 H   0  0  0  0  0  0
  -27.6447  -14.2534   19.4814 H   0  0  0  0  0  0
  -28.6993  -12.1525   21.4380 H   0  0  0  0  0  0
  -28.4440  -13.8452   21.7907 H   0  0  0  0  0  0
  -25.2765   -9.5679   22.4757 H   0  0  0  0  0  0
  -24.0000   -7.4632   22.7467 H   0  0  0  0  0  0
  -21.0840   -8.8780   19.8948 H   0  0  0  0  0  0
  -22.3701  -10.9675   19.6166 H   0  0  0  0  0  0
  -21.2016   -7.6148   23.9716 H   0  0  0  0  0  0
  -21.1482   -6.0520   25.9075 H   0  0  0  0  0  0
  -22.0598   -2.7606   23.2849 H   0  0  0  0  0  0
  -22.4093  -11.9887   22.4819 H   0  0  0  0  0  0
  -21.1085  -13.1243   22.2625 H   0  0  0  0  0  0
  -24.6488  -15.8430   20.5202 H   0  0  0  0  0  0
  -26.2631  -15.6354   20.0710 H   0  0  0  0  0  0
  -26.7178  -32.5455   23.1108 H   0  0  0  0  0  0
  -25.0059  -33.9719   25.0419 H   0  0  0  0  0  0
  -22.7128  -31.3018   21.4004 H   0  0  0  0  0  0
  -23.3747  -35.9626   23.3295 H   0  0  0  0  0  0
  -24.3579  -36.8917   22.2052 H   0  0  0  0  0  0
  -23.7241  -37.6494   23.6664 H   0  0  0  0  0  0
  -26.0850  -31.5566   20.6006 H   0  0  0  0  0  0
  -26.8408  -30.8469   21.9974 H   0  0  0  0  0  0
  -28.1198  -28.9949   21.1882 H   0  0  0  0  0  0
  -26.0139  -25.9149   19.0302 H   0  0  0  0  0  0
  -23.9736  -27.2937   19.0235 H   0  0  0  0  0  0
  -23.7543  -30.5900   19.4033 H   0  0  0  0  0  0
  -22.7551  -29.2429   19.8589 H   0  0  0  0  0  0
  -25.1286  -36.1930   25.0820 H   0  0  0  0  0  0
  -20.9974  -28.3263   24.1410 H   0  0  0  0  0  0
  -20.5668  -26.2296   23.3611 H   0  0  0  0  0  0
  -21.6643  -26.7439   22.1211 H   0  0  0  0  0  0
  -19.6910  -25.6299   21.1239 H   0  0  0  0  0  0
  -19.6688  -27.3200   20.6747 H   0  0  0  0  0  0
  -17.4196  -26.6677   21.4031 H   0  0  0  0  0  0
  -18.0333  -26.0075   22.9022 H   0  0  0  0  0  0
  -19.7937  -30.7277   24.2268 H   0  0  0  0  0  0
  -17.5012  -31.6264   24.5171 H   0  0  0  0  0  0
  -15.5352  -30.2987   23.7654 H   0  0  0  0  0  0
  -15.8672  -28.0826   22.7058 H   0  0  0  0  0  0
  -24.5897  -30.7085   25.7786 H   0  0  0  0  0  0
  -24.8943  -32.2899   26.4884 H   0  0  0  0  0  0
  -25.8059  -30.8896   27.0223 H   0  0  0  0  0  0
  -26.2897  -29.6754   24.1191 H   0  0  0  0  0  0
  -27.4034  -29.7249   25.4657 H   0  0  0  0  0  0
  -27.8762  -30.4280   23.9371 H   0  0  0  0  0  0
  -27.2687  -33.3606   26.2061 H   0  0  0  0  0  0
  -28.3875  -32.6853   25.0308 H   0  0  0  0  0  0
  -28.0730  -31.8424   26.5397 H   0  0  0  0  0  0
  -28.2592  -38.0098   24.7510 H   0  0  0  0  0  0
  -28.1077  -36.2630   24.6277 H   0  0  0  0  0  0
  -27.2300  -37.1432   25.8865 H   0  0  0  0  0  0
  -20.9364  -29.8758   21.6889 H   0  0  0  0  0  0
  -26.0167  -38.2845   24.1421 H   0  0  0  0  0  0
  -28.4099  -18.7445   18.5955 H   0  0  0  0  0  0
  -27.8543  -21.1170   18.9635 H   0  0  0  0  0  0
  -30.9574  -17.9118   17.9643 H   0  0  0  0  0  0
  -29.5239  -16.8840   17.9329 H   0  0  0  0  0  0
  -31.1195  -16.1801   18.0965 H   0  0  0  0  0  0
  -28.7907  -24.6319   22.9389 H   0  0  0  0  0  0
  -28.6077  -26.3596   22.7164 H   0  0  0  0  0  0
  -30.0069  -25.5378   22.0355 H   0  0  0  0  0  0
  -31.4148  -17.2497   20.2950 H   0  0  0  0  0  0
  -27.1075  -25.0890   21.1924 H   0  0  0  0  0  0
  -28.7543  -22.9692   21.9806 H   0  0  0  0  0  0
  -28.9341  -15.7179   20.6990 H   0  0  0  0  0  0
  1 25  1  0  0  0
  1 30  2  0  0  0
  1 83  1  0  0  0
  2  3  1  0  0  0
  2 25  1  0  0  0
  2 86  1  0  0  0
  2 87  1  0  0  0
  3  4  1  0  0  0
  3 88  1  0  0  0
  3 89  1  0  0  0
  4  5  1  0  0  0
  4 90  1  0  0  0
  4 91  1  0  0  0
  5  6  1  0  0  0
  5 26  1  0  0  0
  5 92  1  0  0  0
  6 25  1  0  0  0
  6 93  1  0  0  0
  6 94  1  0  0  0
  7  8  2  0  0  0
  7 26  1  0  0  0
  7 29  1  0  0  0
  8  9  1  0  0  0
  8 22  1  0  0  0
  9 10  1  0  0  0
  9 27  2  0  0  0
 10 11  2  0  0  0
 10 15  1  0  0  0
 11 12  1  0  0  0
 11 95  1  0  0  0
 12 13  2  0  0  0
 12 96  1  0  0  0
 13 14  1  0  0  0
 13 31  1  0  0  0
 14 15  2  0  0  0
 14 97  1  0  0  0
 15 98  1  0  0  0
 16 17  2  0  0  0
 16 21  1  0  0  0
 16 31  1  0  0  0
 17 18  1  0  0  0
 17 99  1  0  0  0
 18 19  2  0  0  0
 18100  1  0  0  0
 19 20  1  0  0  0
 19 24  1  0  0  0
 20 21  2  0  0  0
 20101  1  0  0  0
 21 23  1  0  0  0
 22 28  1  0  0  0
 22 32  2  0  0  0
 26 27  1  0  0  0
 28102  1  0  0  0
 28103  1  0  0  0
 29104  1  0  0  0
 29105  1  0  0  0
 33 34  1  0  0  0
 33 66  1  0  0  0
 33 70  2  0  0  0
 34 36  1  0  0  0
 34 59  1  0  0  0
 34106  1  0  0  0
 35 44  2  0  0  0
 35 45  1  0  0  0
 35 68  1  0  0  0
 36 56  1  0  0  0
 36107  1  0  0  0
 37 39  1  0  0  0
 37 47  1  0  0  0
 37 66  1  0  0  0
 37108  1  0  0  0
 38 43  2  0  0  0
 38 46  1  0  0  0
 38 47  1  0  0  0
 39 64  1  0  0  0
 39 67  2  0  0  0
 40 52  1  0  0  0
 40 53  2  0  0  0
 40 58  1  0  0  0
 41109  1  0  0  0
 41110  1  0  0  0
 41111  1  0  0  0
 41 48  1  0  0  0
 42 43  1  0  0  0
 42 66  1  0  0  0
 42112  1  0  0  0
 42113  1  0  0  0
 43 44  1  0  0  0
 44114  1  0  0  0
 45 46  2  0  0  0
 45115  1  0  0  0
 46116  1  0  0  0
 47117  1  0  0  0
 47118  1  0  0  0
 48 56  1  0  0  0
 48 65  1  0  0  0
 48119  1  0  0  0
 49 50  1  0  0  0
 49 53  1  0  0  0
 49 64  1  0  0  0
 49120  1  0  0  0
 50 51  1  0  0  0
 50121  1  0  0  0
 50122  1  0  0  0
 51 52  1  0  0  0
 51123  1  0  0  0
 51124  1  0  0  0
 52125  1  0  0  0
 52126  1  0  0  0
 53 54  1  0  0  0
 54 55  2  0  0  0
 54127  1  0  0  0
 55 57  1  0  0  0
 55128  1  0  0  0
 56 69  2  0  0  0
 57 58  2  0  0  0
 57129  1  0  0  0
 58130  1  0  0  0
 59 60  1  0  0  0
 59 61  1  0  0  0
 59 62  1  0  0  0
 60131  1  0  0  0
 60132  1  0  0  0
 60133  1  0  0  0
 61134  1  0  0  0
 61135  1  0  0  0
 61136  1  0  0  0
 62137  1  0  0  0
 62138  1  0  0  0
 62139  1  0  0  0
 63 65  1  0  0  0
 63140  1  0  0  0
 63141  1  0  0  0
 63142  1  0  0  0
 64143  1  0  0  0
 65144  1  0  0  0
 68 80  1  0  0  0
 71 72  2  0  0  0
 71 73  1  0  0  0
 71145  1  0  0  0
 72 74  1  0  0  0
 72146  1  0  0  0
 73 75  2  0  0  0
 73 79  1  0  0  0
 74 81  2  0  0  0
 74 82  1  0  0  0
 75 81  1  0  0  0
 75 85  1  0  0  0
 76 80  1  0  0  0
 76 82  1  0  0  0
 76 84  2  0  0  0
 77147  1  0  0  0
 77148  1  0  0  0
 77149  1  0  0  0
 77 79  1  0  0  0
 78150  1  0  0  0
 78151  1  0  0  0
 78152  1  0  0  0
 78 80  1  0  0  0
 79 83  1  0  0  0
 79153  1  0  0  0
 80154  1  0  0  0
 82155  1  0  0  0
 83156  1  0  0  0
M  ISO  4   1 100  68 101  80 101  83 100
M  END
> <chiral flag>
0

> <version>
0

> <s_m_source_file>
/data/baiqing/PycharmProjects/Reinvent-master-3.2/result/LINK_invent/BTK/process_docking_weight1_custom_product_contain_oxygen_bond_distance_aromatic_linkinvent_7_9_3/rearranged_h_0181.sdf

> <i_m_source_file_index>
78

> <r_mmod_Potential_Energy-OPLS-2005>
-54.970817565918

> <r_mmod_Stretch_Energy-OPLS-2005>
83.0346603393555

> <r_mmod_Bend_Energy-OPLS-2005>
150.976943969727

> <r_mmod_Torsional_Energy-OPLS-2005>
267.484130859375

> <r_mmod_Improper_Torsional_Energy-OPLS-2005>
10.5489196777344

> <r_mmod_Van_der_Waal_Energy-OPLS-2005>
142.7890625

> <r_mmod_Electrostatic_Energy-OPLS-2005>
-530.165710449219

> <r_mmod_Solvation_Energy-OPLS-2005>
-234.589309692383

> <b_mmod_Minimization_Converged-OPLS-2005>
0

> <r_mmod_RMS_Derivative-OPLS-2005>
0.668517887592316

$$$$
79
                    3D
 Structure written by MMmdl.
151159  0  0  1  0            999 V2000
  -30.5331  -14.8660   20.3445 C   0  0  0  0  0  0
  -30.4307  -12.5304   19.4266 C   0  0  0  0  0  0
  -29.4892  -12.5297   18.2013 C   0  0  0  0  0  0
  -28.0171  -12.3408   18.6234 C   0  0  0  0  0  0
  -27.6235  -13.2403   19.8278 C   0  0  2  0  0  0
  -28.6838  -13.1989   20.9525 C   0  0  0  0  0  0
  -25.2395  -13.8235   20.5600 C   0  0  0  0  0  0
  -24.1714  -13.0472   20.9199 C   0  0  0  0  0  0
  -24.6344  -11.6955   20.8717 C   0  0  0  0  0  0
  -23.9037  -10.4319   21.0423 C   0  0  0  0  0  0
  -24.3617   -9.4213   21.9169 C   0  0  0  0  0  0
  -23.6277   -8.2242   22.0732 C   0  0  0  0  0  0
  -22.4275   -8.0309   21.3526 C   0  0  0  0  0  0
  -21.9906   -9.0279   20.4615 C   0  0  0  0  0  0
  -22.7214  -10.2153   20.3019 C   0  0  0  0  0  0
  -21.6870   -6.0702   22.5232 C   0  0  0  0  0  0
  -21.4016   -6.5589   23.8177 C   0  0  0  0  0  0
  -21.3644   -5.6741   24.9144 C   0  0  0  0  0  0
  -21.6060   -4.3000   24.7192 C   0  0  0  0  0  0
  -21.8811   -3.8074   23.4312 C   0  0  0  0  0  0
  -21.9194   -4.6914   22.3364 C   0  0  0  0  0  0
  -22.7733  -13.5215   21.1893 C   0  0  0  0  0  0
  -22.1679   -4.2116   21.0941 F   0  0  0  0  0  0
  -21.5645   -3.4489   25.7695 F   0  0  0  0  0  0
  -29.9695  -13.5984   20.3561 N   0  0  0  0  0  0
  -26.2808  -12.9454   20.3158 N   0  0  0  0  0  0
  -25.9262  -11.6580   20.5656 N   0  0  0  0  0  0
  -22.0401  -12.8173   22.0452 N   0  0  0  0  0  0
  -25.4059  -15.1976   20.3900 N   0  0  0  0  0  0
  -31.7304  -14.9697   20.0528 O   0  0  0  0  0  0
  -21.6645   -6.8903   21.4217 O   0  0  0  0  0  0
  -22.3379  -14.5492   20.6774 O   0  0  0  0  0  0
  -24.6386  -31.8485   23.1891 C   0  0  0  0  0  0
  -25.9196  -32.4700   23.8212 C   0  0  1  0  0  0
  -27.1893  -27.1480   20.1426 C   0  0  0  0  0  0
  -25.5986  -33.8493   24.2169 N   0  0  0  0  0  0
  -23.4369  -30.4692   21.5384 C   0  0  2  0  0  0
  -24.8810  -28.8958   20.1105 C   0  0  0  0  0  0
  -22.7520  -29.4567   22.4907 C   0  0  0  0  0  0
  -18.0301  -28.1394   22.8447 C   0  0  0  0  0  0
  -24.1491  -36.7251   23.2634 C   0  0  0  0  0  0
  -25.9888  -30.7197   21.3838 C   0  0  0  0  0  0
  -26.0605  -29.3292   20.7329 C   0  0  0  0  0  0
  -27.2196  -28.4726   20.7381 C   0  0  0  0  0  0
  -25.9940  -26.8081   19.4869 C   0  0  0  0  0  0
  -24.8593  -27.6485   19.4672 C   0  0  0  0  0  0
  -23.6568  -29.7961   20.1581 C   0  0  0  0  0  0
  -25.4124  -36.3007   24.0303 C   0  0  1  0  0  0
  -20.5879  -28.3706   23.1252 C   0  0  2  0  0  0
  -20.6776  -26.9412   22.5419 C   0  0  0  0  0  0
  -19.5758  -26.6369   21.5196 C   0  0  0  0  0  0
  -18.1939  -26.7905   22.1607 C   0  0  0  0  0  0
  -19.1538  -28.8889   23.2811 C   0  0  0  0  0  0
  -18.9445  -30.1483   23.8841 C   0  0  0  0  0  0
  -17.6443  -30.6569   24.0549 C   0  0  0  0  0  0
  -25.9090  -34.9418   23.5044 C   0  0  0  0  0  0
  -16.5347  -29.9077   23.6318 C   0  0  0  0  0  0
  -16.7276  -28.6498   23.0334 C   0  0  0  0  0  0
  -26.4530  -31.6533   25.0642 C   0  0  0  0  0  0
  -25.3692  -31.3790   26.1329 C   0  0  0  0  0  0
  -27.0376  -30.2909   24.6208 C   0  0  0  0  0  0
  -27.6066  -32.4285   25.7455 C   0  0  0  0  0  0
  -27.5555  -37.1787   24.8465 C   0  0  0  0  0  0
  -21.4241  -29.3049   22.3659 N   0  0  0  0  0  0
  -26.4279  -37.3732   23.9395 N   0  0  0  0  0  0
  -24.7084  -31.0321   22.0918 N   0  0  0  0  0  0
  -23.4176  -28.8143   23.3080 O   0  0  0  0  0  0
  -28.1918  -26.1195   20.1617 O   0  0  0  0  0  0
  -26.5664  -34.8938   22.4605 O   0  0  0  0  0  0
  -23.5568  -32.1376   23.7166 O   0  0  0  0  0  0
  -29.9318  -17.9125   18.7818 C   0  0  0  0  0  0
  -29.7272  -17.4454   20.0677 C   0  0  0  0  0  0
  -29.2431  -19.7373   19.9666 C   0  0  0  0  0  0
  -27.9250  -24.9023   20.9081 C   0  0  0  0  0  0
  -28.1438  -23.4940   20.8925 C   0  0  0  0  0  0
  -28.7877  -22.4671   19.9442 C   0  0  0  0  0  0
  -29.5341  -20.0541   17.4642 C   0  0  0  0  0  0
  -29.5822  -19.2735   18.7238 N   0  0  0  0  0  0
  -29.2968  -18.6058   20.7649 N   0  3  0  0  0  0
  -29.7064  -15.9925   20.5221 N   0  0  0  0  0  0
  -28.8019  -21.1289   20.4183 N   0  0  0  0  0  0
  -29.2433  -22.7768   18.8433 O   0  0  0  0  0  0
  -27.6756  -22.8906   22.0037 O   0  0  0  0  0  0
  -31.4596  -12.6790   19.0969 H   0  0  0  0  0  0
  -30.4144  -11.5565   19.9127 H   0  0  0  0  0  0
  -29.7720  -11.7575   17.4848 H   0  0  0  0  0  0
  -29.5763  -13.4716   17.6579 H   0  0  0  0  0  0
  -27.8544  -11.2873   18.8680 H   0  0  0  0  0  0
  -27.3692  -12.5590   17.7729 H   0  0  0  0  0  0
  -27.6006  -14.2547   19.4305 H   0  0  0  0  0  0
  -28.7500  -12.2005   21.3869 H   0  0  0  0  0  0
  -28.4069  -13.8728   21.7627 H   0  0  0  0  0  0
  -25.2834   -9.5619   22.4667 H   0  0  0  0  0  0
  -23.9943   -7.4608   22.7444 H   0  0  0  0  0  0
  -21.0809   -8.8766   19.8955 H   0  0  0  0  0  0
  -22.3706  -10.9639   19.6042 H   0  0  0  0  0  0
  -21.2021   -7.6103   23.9650 H   0  0  0  0  0  0
  -21.1493   -6.0495   25.9055 H   0  0  0  0  0  0
  -22.0622   -2.7532   23.2795 H   0  0  0  0  0  0
  -22.4153  -11.9917   22.4861 H   0  0  0  0  0  0
  -21.0972  -13.1074   22.2644 H   0  0  0  0  0  0
  -24.6220  -15.8371   20.4740 H   0  0  0  0  0  0
  -26.2033  -15.6144   19.9298 H   0  0  0  0  0  0
  -26.7263  -32.5306   23.0940 H   0  0  0  0  0  0
  -25.0111  -33.9549   25.0313 H   0  0  0  0  0  0
  -22.7369  -31.2944   21.3968 H   0  0  0  0  0  0
  -23.3706  -35.9628   23.3350 H   0  0  0  0  0  0
  -24.3566  -36.8843   22.2035 H   0  0  0  0  0  0
  -23.7300  -37.6493   23.6650 H   0  0  0  0  0  0
  -26.1255  -31.4673   20.5984 H   0  0  0  0  0  0
  -26.8658  -30.7784   22.0193 H   0  0  0  0  0  0
  -28.1131  -28.7835   21.2534 H   0  0  0  0  0  0
  -25.9143  -25.8387   19.0110 H   0  0  0  0  0  0
  -23.9599  -27.3078   18.9754 H   0  0  0  0  0  0
  -23.7779  -30.5692   19.4007 H   0  0  0  0  0  0
  -22.7703  -29.2380   19.8540 H   0  0  0  0  0  0
  -25.1303  -36.1851   25.0795 H   0  0  0  0  0  0
  -20.9939  -28.3340   24.1366 H   0  0  0  0  0  0
  -20.5624  -26.2312   23.3623 H   0  0  0  0  0  0
  -21.6667  -26.7466   22.1233 H   0  0  0  0  0  0
  -19.6949  -25.6255   21.1279 H   0  0  0  0  0  0
  -19.6691  -27.3140   20.6681 H   0  0  0  0  0  0
  -17.4209  -26.6605   21.4019 H   0  0  0  0  0  0
  -18.0405  -26.0062   22.9035 H   0  0  0  0  0  0
  -19.7959  -30.7287   24.2138 H   0  0  0  0  0  0
  -17.5027  -31.6214   24.5203 H   0  0  0  0  0  0
  -15.5341  -30.2980   23.7664 H   0  0  0  0  0  0
  -15.8651  -28.0820   22.7082 H   0  0  0  0  0  0
  -24.5845  -30.7175   25.7653 H   0  0  0  0  0  0
  -24.8902  -32.3015   26.4622 H   0  0  0  0  0  0
  -25.7914  -30.9038   27.0180 H   0  0  0  0  0  0
  -26.2995  -29.6629   24.1199 H   0  0  0  0  0  0
  -27.3979  -29.7212   25.4778 H   0  0  0  0  0  0
  -27.8914  -30.4115   23.9528 H   0  0  0  0  0  0
  -27.2632  -33.3597   26.1976 H   0  0  0  0  0  0
  -28.3909  -32.6803   25.0301 H   0  0  0  0  0  0
  -28.0657  -31.8411   26.5413 H   0  0  0  0  0  0
  -28.2611  -38.0042   24.7404 H   0  0  0  0  0  0
  -28.1015  -36.2554   24.6421 H   0  0  0  0  0  0
  -27.2267  -37.1605   25.8875 H   0  0  0  0  0  0
  -20.9502  -29.8741   21.6786 H   0  0  0  0  0  0
  -26.0146  -38.2834   24.1315 H   0  0  0  0  0  0
  -30.2237  -17.3713   17.8870 H   0  0  0  0  0  0
  -27.3763  -25.2359   21.7784 H   0  0  0  0  0  0
  -29.7607  -19.4091   16.6064 H   0  0  0  0  0  0
  -30.2656  -20.8591   17.4752 H   0  0  0  0  0  0
  -28.5334  -20.4604   17.3028 H   0  0  0  0  0  0
  -29.0350  -18.5965   21.7430 H   0  0  0  0  0  0
  -28.8180  -15.7178   20.9131 H   0  0  0  0  0  0
  -28.4017  -21.1204   21.3506 H   0  0  0  0  0  0
  -27.4440  -23.5613   22.6329 H   0  0  0  0  0  0
  1 25  1  0  0  0
  1 30  2  0  0  0
  1 80  1  0  0  0
  2  3  1  0  0  0
  2 25  1  0  0  0
  2 84  1  0  0  0
  2 85  1  0  0  0
  3  4  1  0  0  0
  3 86  1  0  0  0
  3 87  1  0  0  0
  4  5  1  0  0  0
  4 88  1  0  0  0
  4 89  1  0  0  0
  5  6  1  0  0  0
  5 26  1  0  0  0
  5 90  1  0  0  0
  6 25  1  0  0  0
  6 91  1  0  0  0
  6 92  1  0  0  0
  7  8  2  0  0  0
  7 26  1  0  0  0
  7 29  1  0  0  0
  8  9  1  0  0  0
  8 22  1  0  0  0
  9 10  1  0  0  0
  9 27  2  0  0  0
 10 11  2  0  0  0
 10 15  1  0  0  0
 11 12  1  0  0  0
 11 93  1  0  0  0
 12 13  2  0  0  0
 12 94  1  0  0  0
 13 14  1  0  0  0
 13 31  1  0  0  0
 14 15  2  0  0  0
 14 95  1  0  0  0
 15 96  1  0  0  0
 16 17  2  0  0  0
 16 21  1  0  0  0
 16 31  1  0  0  0
 17 18  1  0  0  0
 17 97  1  0  0  0
 18 19  2  0  0  0
 18 98  1  0  0  0
 19 20  1  0  0  0
 19 24  1  0  0  0
 20 21  2  0  0  0
 20 99  1  0  0  0
 21 23  1  0  0  0
 22 28  1  0  0  0
 22 32  2  0  0  0
 26 27  1  0  0  0
 28100  1  0  0  0
 28101  1  0  0  0
 29102  1  0  0  0
 29103  1  0  0  0
 33 34  1  0  0  0
 33 66  1  0  0  0
 33 70  2  0  0  0
 34 36  1  0  0  0
 34 59  1  0  0  0
 34104  1  0  0  0
 35 44  2  0  0  0
 35 45  1  0  0  0
 35 68  1  0  0  0
 36 56  1  0  0  0
 36105  1  0  0  0
 37 39  1  0  0  0
 37 47  1  0  0  0
 37 66  1  0  0  0
 37106  1  0  0  0
 38 43  2  0  0  0
 38 46  1  0  0  0
 38 47  1  0  0  0
 39 64  1  0  0  0
 39 67  2  0  0  0
 40 52  1  0  0  0
 40 53  2  0  0  0
 40 58  1  0  0  0
 41107  1  0  0  0
 41108  1  0  0  0
 41109  1  0  0  0
 41 48  1  0  0  0
 42 43  1  0  0  0
 42 66  1  0  0  0
 42110  1  0  0  0
 42111  1  0  0  0
 43 44  1  0  0  0
 44112  1  0  0  0
 45 46  2  0  0  0
 45113  1  0  0  0
 46114  1  0  0  0
 47115  1  0  0  0
 47116  1  0  0  0
 48 56  1  0  0  0
 48 65  1  0  0  0
 48117  1  0  0  0
 49 50  1  0  0  0
 49 53  1  0  0  0
 49 64  1  0  0  0
 49118  1  0  0  0
 50 51  1  0  0  0
 50119  1  0  0  0
 50120  1  0  0  0
 51 52  1  0  0  0
 51121  1  0  0  0
 51122  1  0  0  0
 52123  1  0  0  0
 52124  1  0  0  0
 53 54  1  0  0  0
 54 55  2  0  0  0
 54125  1  0  0  0
 55 57  1  0  0  0
 55126  1  0  0  0
 56 69  2  0  0  0
 57 58  2  0  0  0
 57127  1  0  0  0
 58128  1  0  0  0
 59 60  1  0  0  0
 59 61  1  0  0  0
 59 62  1  0  0  0
 60129  1  0  0  0
 60130  1  0  0  0
 60131  1  0  0  0
 61132  1  0  0  0
 61133  1  0  0  0
 61134  1  0  0  0
 62135  1  0  0  0
 62136  1  0  0  0
 62137  1  0  0  0
 63 65  1  0  0  0
 63138  1  0  0  0
 63139  1  0  0  0
 63140  1  0  0  0
 64141  1  0  0  0
 65142  1  0  0  0
 68 74  1  0  0  0
 71 72  2  0  0  0
 71 78  1  0  0  0
 71143  1  0  0  0
 72 79  1  0  0  0
 72 80  1  0  0  0
 73 78  1  0  0  0
 73 79  2  0  0  0
 73 81  1  0  0  0
 74 75  2  0  0  0
 74144  1  0  0  0
 75 76  1  0  0  0
 75 83  1  0  0  0
 76 81  1  0  0  0
 76 82  2  0  0  0
 77 78  1  0  0  0
 77145  1  0  0  0
 77146  1  0  0  0
 77147  1  0  0  0
 79148  1  0  0  0
 80149  1  0  0  0
 81150  1  0  0  0
 83151  1  0  0  0
M  CHG  1  79   1
M  ISO  4   1 100  68 101  74 101  80 100
M  END
> <chiral flag>
0

> <version>
0

> <s_m_source_file>
/data/baiqing/PycharmProjects/Reinvent-master-3.2/result/LINK_invent/BTK/process_docking_weight1_custom_product_contain_oxygen_bond_distance_aromatic_linkinvent_7_9_3/rearranged_h_0181.sdf

> <i_m_source_file_index>
79

> <r_mmod_Potential_Energy-OPLS-2005>
223.575485229492

> <r_mmod_Stretch_Energy-OPLS-2005>
191.497848510742

> <r_mmod_Bend_Energy-OPLS-2005>
308.070922851562

> <r_mmod_Torsional_Energy-OPLS-2005>
242.939300537109

> <r_mmod_Improper_Torsional_Energy-OPLS-2005>
6.81373500823975

> <r_mmod_Van_der_Waal_Energy-OPLS-2005>
115.691833496094

> <r_mmod_Electrostatic_Energy-OPLS-2005>
-336.306457519531

> <r_mmod_Solvation_Energy-OPLS-2005>
-474.112213134766

> <b_mmod_Minimization_Converged-OPLS-2005>
0

> <r_mmod_RMS_Derivative-OPLS-2005>
9.51298522949219

$$$$
80
                    3D
 Structure written by MMmdl.
157165  0  0  1  0            999 V2000
  -30.6575  -14.5227   20.5061 C   0  0  0  0  0  0
  -30.4296  -12.3210   19.4310 C   0  0  0  0  0  0
  -29.4994  -12.4939   18.2102 C   0  0  0  0  0  0
  -28.0175  -12.3628   18.6191 C   0  0  0  0  0  0
  -27.6590  -13.2084   19.8698 C   0  0  2  0  0  0
  -28.7019  -13.0073   20.9925 C   0  0  0  0  0  0
  -25.2588  -13.8168   20.5675 C   0  0  0  0  0  0
  -24.1832  -13.0447   20.9173 C   0  0  0  0  0  0
  -24.6383  -11.6910   20.8728 C   0  0  0  0  0  0
  -23.9052  -10.4296   21.0400 C   0  0  0  0  0  0
  -24.3609   -9.4210   21.9177 C   0  0  0  0  0  0
  -23.6288   -8.2247   22.0744 C   0  0  0  0  0  0
  -22.4273   -8.0278   21.3536 C   0  0  0  0  0  0
  -21.9903   -9.0257   20.4643 C   0  0  0  0  0  0
  -22.7228  -10.2137   20.3053 C   0  0  0  0  0  0
  -21.6853   -6.0731   22.5274 C   0  0  0  0  0  0
  -21.4014   -6.5636   23.8206 C   0  0  0  0  0  0
  -21.3657   -5.6785   24.9167 C   0  0  0  0  0  0
  -21.6045   -4.3050   24.7216 C   0  0  0  0  0  0
  -21.8821   -3.8142   23.4338 C   0  0  0  0  0  0
  -21.9197   -4.6960   22.3394 C   0  0  0  0  0  0
  -22.7857  -13.5244   21.1842 C   0  0  0  0  0  0
  -22.1663   -4.2146   21.0970 F   0  0  0  0  0  0
  -21.5631   -3.4533   25.7731 F   0  0  0  0  0  0
  -30.0285  -13.3175   20.4379 N   0  0  0  0  0  0
  -26.3009  -12.9331   20.3340 N   0  0  0  0  0  0
  -25.9309  -11.6492   20.5756 N   0  0  0  0  0  0
  -22.0494  -12.8239   22.0398 N   0  0  0  0  0  0
  -25.4359  -15.1882   20.4083 N   0  0  0  0  0  0
  -31.8275  -14.6804   20.1466 O   0  0  0  0  0  0
  -21.6635   -6.8876   21.4237 O   0  0  0  0  0  0
  -22.3539  -14.5548   20.6685 O   0  0  0  0  0  0
  -24.6194  -31.8649   23.2060 C   0  0  0  0  0  0
  -25.9078  -32.4799   23.8371 C   0  0  1  0  0  0
  -27.2354  -27.4001   20.0932 C   0  0  0  0  0  0
  -25.5930  -33.8596   24.2304 N   0  0  0  0  0  0
  -23.4088  -30.4879   21.5472 C   0  0  2  0  0  0
  -24.8528  -28.9479   20.1143 C   0  0  0  0  0  0
  -22.7440  -29.4642   22.4965 C   0  0  0  0  0  0
  -18.0277  -28.1383   22.8477 C   0  0  0  0  0  0
  -24.1489  -36.7315   23.2636 C   0  0  0  0  0  0
  -25.9401  -30.8203   21.3617 C   0  0  0  0  0  0
  -26.0152  -29.4515   20.7087 C   0  0  0  0  0  0
  -27.2064  -28.6865   20.6908 C   0  0  0  0  0  0
  -26.0454  -26.9133   19.5033 C   0  0  0  0  0  0
  -24.8643  -27.6798   19.5099 C   0  0  0  0  0  0
  -23.6190  -29.8207   20.1618 C   0  0  0  0  0  0
  -25.4109  -36.3096   24.0329 C   0  0  1  0  0  0
  -20.5872  -28.3671   23.1302 C   0  0  2  0  0  0
  -20.6762  -26.9401   22.5413 C   0  0  0  0  0  0
  -19.5745  -26.6380   21.5206 C   0  0  0  0  0  0
  -18.1923  -26.7928   22.1615 C   0  0  0  0  0  0
  -19.1529  -28.8841   23.2886 C   0  0  0  0  0  0
  -18.9459  -30.1446   23.8902 C   0  0  0  0  0  0
  -17.6462  -30.6582   24.0567 C   0  0  0  0  0  0
  -25.9041  -34.9463   23.5108 C   0  0  0  0  0  0
  -16.5349  -29.9092   23.6318 C   0  0  0  0  0  0
  -16.7268  -28.6512   23.0328 C   0  0  0  0  0  0
  -26.4491  -31.6586   25.0714 C   0  0  0  0  0  0
  -25.3745  -31.3719   26.1463 C   0  0  0  0  0  0
  -27.0313  -30.3019   24.6102 C   0  0  0  0  0  0
  -27.6064  -32.4299   25.7485 C   0  0  0  0  0  0
  -27.5580  -37.1811   24.8460 C   0  0  0  0  0  0
  -21.4163  -29.3037   22.3713 N   0  0  0  0  0  0
  -26.4293  -37.3785   23.9404 N   0  0  0  0  0  0
  -24.6748  -31.0730   22.0969 N   0  0  0  0  0  0
  -23.4198  -28.8181   23.3016 O   0  0  0  0  0  0
  -28.4221  -26.6818   20.1138 O   0  0  0  0  0  0
  -26.5597  -34.8923   22.4667 O   0  0  0  0  0  0
  -23.5380  -32.1419   23.7435 O   0  0  0  0  0  0
  -29.3390  -18.0024   20.9909 C   0  0  0  0  0  0
  -29.8860  -16.9046   20.2635 C   0  0  0  0  0  0
  -29.2714  -19.3208   20.4474 C   0  0  0  0  0  0
  -30.3414  -17.1518   18.9414 C   0  0  0  0  0  0
  -29.7688  -19.5256   19.1376 C   0  0  0  0  0  0
  -30.2986  -18.4510   18.4000 C   0  0  0  0  0  0
  -28.3214  -24.2459   20.7040 C   0  0  0  0  0  0
  -30.6160  -21.9413   21.3080 C   0  0  0  0  0  0
  -28.3696  -22.7507   20.2776 C   0  0  0  0  0  0
  -28.4968  -25.3247   19.6051 C   0  0  0  0  0  0
  -29.0861  -21.7735   21.2718 C   0  0  1  0  0  0
  -29.8671  -15.5748   20.8328 N   0  0  0  0  0  0
  -28.6604  -20.3545   21.2058 N   0  0  0  0  0  0
  -28.1418  -24.5650   21.8846 O   0  0  0  0  0  0
  -30.7717  -16.1442   18.1443 F   0  0  0  0  0  0
  -29.7020  -20.7410   18.5444 F   0  0  0  0  0  0
  -30.7403  -18.6621   17.1354 F   0  0  0  0  0  0
  -31.4725  -12.4325   19.1265 H   0  0  0  0  0  0
  -30.3434  -11.3143   19.8418 H   0  0  0  0  0  0
  -29.7396  -11.7525   17.4473 H   0  0  0  0  0  0
  -29.6689  -13.4686   17.7502 H   0  0  0  0  0  0
  -27.8203  -11.3084   18.8154 H   0  0  0  0  0  0
  -27.3716  -12.6405   17.7852 H   0  0  0  0  0  0
  -27.6957  -14.2525   19.5580 H   0  0  0  0  0  0
  -28.6856  -11.9756   21.3463 H   0  0  0  0  0  0
  -28.4688  -13.6243   21.8617 H   0  0  0  0  0  0
  -25.2758   -9.5685   22.4744 H   0  0  0  0  0  0
  -23.9999   -7.4633   22.7458 H   0  0  0  0  0  0
  -21.0836   -8.8781   19.8952 H   0  0  0  0  0  0
  -22.3690  -10.9675   19.6160 H   0  0  0  0  0  0
  -21.2007   -7.6145   23.9705 H   0  0  0  0  0  0
  -21.1476   -6.0514   25.9067 H   0  0  0  0  0  0
  -22.0607   -2.7607   23.2830 H   0  0  0  0  0  0
  -22.4103  -11.9901   22.4795 H   0  0  0  0  0  0
  -21.1119  -13.1273   22.2614 H   0  0  0  0  0  0
  -24.6745  -15.8505   20.5050 H   0  0  0  0  0  0
  -26.2931  -15.6194   20.0863 H   0  0  0  0  0  0
  -26.7149  -32.5494   23.1132 H   0  0  0  0  0  0
  -25.0111  -33.9747   25.0473 H   0  0  0  0  0  0
  -22.6995  -31.3058   21.4061 H   0  0  0  0  0  0
  -23.3738  -35.9663   23.3306 H   0  0  0  0  0  0
  -24.3588  -36.8924   22.2050 H   0  0  0  0  0  0
  -23.7257  -37.6528   23.6650 H   0  0  0  0  0  0
  -26.0521  -31.5829   20.5899 H   0  0  0  0  0  0
  -26.8293  -30.8763   21.9780 H   0  0  0  0  0  0
  -28.1071  -29.0770   21.1438 H   0  0  0  0  0  0
  -25.9922  -25.9425   19.0358 H   0  0  0  0  0  0
  -23.9689  -27.2831   19.0514 H   0  0  0  0  0  0
  -23.7377  -30.5961   19.4041 H   0  0  0  0  0  0
  -22.7408  -29.2472   19.8602 H   0  0  0  0  0  0
  -25.1283  -36.1957   25.0821 H   0  0  0  0  0  0
  -20.9958  -28.3231   24.1425 H   0  0  0  0  0  0
  -20.5642  -26.2282   23.3606 H   0  0  0  0  0  0
  -21.6635  -26.7424   22.1223 H   0  0  0  0  0  0
  -19.6903  -25.6291   21.1234 H   0  0  0  0  0  0
  -19.6689  -27.3188   20.6736 H   0  0  0  0  0  0
  -17.4194  -26.6665   21.4017 H   0  0  0  0  0  0
  -18.0330  -26.0074   22.9017 H   0  0  0  0  0  0
  -19.7937  -30.7252   24.2272 H   0  0  0  0  0  0
  -17.5022  -31.6255   24.5184 H   0  0  0  0  0  0
  -15.5353  -30.2997   23.7636 H   0  0  0  0  0  0
  -15.8671  -28.0846   22.7018 H   0  0  0  0  0  0
  -24.5920  -30.7058   25.7819 H   0  0  0  0  0  0
  -24.8941  -32.2886   26.4892 H   0  0  0  0  0  0
  -25.8100  -30.8914   27.0234 H   0  0  0  0  0  0
  -26.2858  -29.6786   24.1152 H   0  0  0  0  0  0
  -27.4073  -29.7252   25.4564 H   0  0  0  0  0  0
  -27.8700  -30.4327   23.9257 H   0  0  0  0  0  0
  -27.2689  -33.3586   26.2098 H   0  0  0  0  0  0
  -28.3874  -32.6873   25.0318 H   0  0  0  0  0  0
  -28.0743  -31.8400   26.5379 H   0  0  0  0  0  0
  -28.2596  -38.0108   24.7495 H   0  0  0  0  0  0
  -28.1071  -36.2634   24.6290 H   0  0  0  0  0  0
  -27.2301  -37.1472   25.8866 H   0  0  0  0  0  0
  -20.9332  -29.8793   21.6959 H   0  0  0  0  0  0
  -26.0174  -38.2861   24.1404 H   0  0  0  0  0  0
  -28.9564  -17.8238   21.9857 H   0  0  0  0  0  0
  -30.8878  -22.9735   21.5323 H   0  0  0  0  0  0
  -31.0881  -21.6873   20.3605 H   0  0  0  0  0  0
  -31.0652  -21.3184   22.0818 H   0  0  0  0  0  0
  -28.8221  -22.6972   19.2897 H   0  0  0  0  0  0
  -27.3338  -22.4368   20.1531 H   0  0  0  0  0  0
  -27.8271  -25.1382   18.7685 H   0  0  0  0  0  0
  -29.5010  -25.1937   19.2018 H   0  0  0  0  0  0
  -28.7463  -22.0731   22.2653 H   0  0  0  0  0  0
  -29.0261  -15.3316   21.3344 H   0  0  0  0  0  0
  -28.1751  -20.0372   22.0413 H   0  0  0  0  0  0
  1 25  1  0  0  0
  1 30  2  0  0  0
  1 82  1  0  0  0
  2  3  1  0  0  0
  2 25  1  0  0  0
  2 88  1  0  0  0
  2 89  1  0  0  0
  3  4  1  0  0  0
  3 90  1  0  0  0
  3 91  1  0  0  0
  4  5  1  0  0  0
  4 92  1  0  0  0
  4 93  1  0  0  0
  5  6  1  0  0  0
  5 26  1  0  0  0
  5 94  1  0  0  0
  6 25  1  0  0  0
  6 95  1  0  0  0
  6 96  1  0  0  0
  7  8  2  0  0  0
  7 26  1  0  0  0
  7 29  1  0  0  0
  8  9  1  0  0  0
  8 22  1  0  0  0
  9 10  1  0  0  0
  9 27  2  0  0  0
 10 11  2  0  0  0
 10 15  1  0  0  0
 11 12  1  0  0  0
 11 97  1  0  0  0
 12 13  2  0  0  0
 12 98  1  0  0  0
 13 14  1  0  0  0
 13 31  1  0  0  0
 14 15  2  0  0  0
 14 99  1  0  0  0
 15100  1  0  0  0
 16 17  2  0  0  0
 16 21  1  0  0  0
 16 31  1  0  0  0
 17 18  1  0  0  0
 17101  1  0  0  0
 18 19  2  0  0  0
 18102  1  0  0  0
 19 20  1  0  0  0
 19 24  1  0  0  0
 20 21  2  0  0  0
 20103  1  0  0  0
 21 23  1  0  0  0
 22 28  1  0  0  0
 22 32  2  0  0  0
 26 27  1  0  0  0
 28104  1  0  0  0
 28105  1  0  0  0
 29106  1  0  0  0
 29107  1  0  0  0
 33 34  1  0  0  0
 33 66  1  0  0  0
 33 70  2  0  0  0
 34 36  1  0  0  0
 34 59  1  0  0  0
 34108  1  0  0  0
 35 44  2  0  0  0
 35 45  1  0  0  0
 35 68  1  0  0  0
 36 56  1  0  0  0
 36109  1  0  0  0
 37 39  1  0  0  0
 37 47  1  0  0  0
 37 66  1  0  0  0
 37110  1  0  0  0
 38 43  2  0  0  0
 38 46  1  0  0  0
 38 47  1  0  0  0
 39 64  1  0  0  0
 39 67  2  0  0  0
 40 52  1  0  0  0
 40 53  2  0  0  0
 40 58  1  0  0  0
 41111  1  0  0  0
 41112  1  0  0  0
 41113  1  0  0  0
 41 48  1  0  0  0
 42 43  1  0  0  0
 42 66  1  0  0  0
 42114  1  0  0  0
 42115  1  0  0  0
 43 44  1  0  0  0
 44116  1  0  0  0
 45 46  2  0  0  0
 45117  1  0  0  0
 46118  1  0  0  0
 47119  1  0  0  0
 47120  1  0  0  0
 48 56  1  0  0  0
 48 65  1  0  0  0
 48121  1  0  0  0
 49 50  1  0  0  0
 49 53  1  0  0  0
 49 64  1  0  0  0
 49122  1  0  0  0
 50 51  1  0  0  0
 50123  1  0  0  0
 50124  1  0  0  0
 51 52  1  0  0  0
 51125  1  0  0  0
 51126  1  0  0  0
 52127  1  0  0  0
 52128  1  0  0  0
 53 54  1  0  0  0
 54 55  2  0  0  0
 54129  1  0  0  0
 55 57  1  0  0  0
 55130  1  0  0  0
 56 69  2  0  0  0
 57 58  2  0  0  0
 57131  1  0  0  0
 58132  1  0  0  0
 59 60  1  0  0  0
 59 61  1  0  0  0
 59 62  1  0  0  0
 60133  1  0  0  0
 60134  1  0  0  0
 60135  1  0  0  0
 61136  1  0  0  0
 61137  1  0  0  0
 61138  1  0  0  0
 62139  1  0  0  0
 62140  1  0  0  0
 62141  1  0  0  0
 63 65  1  0  0  0
 63142  1  0  0  0
 63143  1  0  0  0
 63144  1  0  0  0
 64145  1  0  0  0
 65146  1  0  0  0
 68 80  1  0  0  0
 71 72  2  0  0  0
 71 73  1  0  0  0
 71147  1  0  0  0
 72 74  1  0  0  0
 72 82  1  0  0  0
 73 75  2  0  0  0
 73 83  1  0  0  0
 74 76  2  0  0  0
 74 85  1  0  0  0
 75 76  1  0  0  0
 75 86  1  0  0  0
 76 87  1  0  0  0
 77 79  1  0  0  0
 77 80  1  0  0  0
 77 84  2  0  0  0
 78148  1  0  0  0
 78149  1  0  0  0
 78150  1  0  0  0
 78 81  1  0  0  0
 79 81  1  0  0  0
 79151  1  0  0  0
 79152  1  0  0  0
 80153  1  0  0  0
 80154  1  0  0  0
 81 83  1  0  0  0
 81155  1  0  0  0
 82156  1  0  0  0
 83157  1  0  0  0
M  ISO  4   1 100  68 101  80 101  82 100
M  END
> <chiral flag>
0

> <version>
0

> <s_m_source_file>
/data/baiqing/PycharmProjects/Reinvent-master-3.2/result/LINK_invent/BTK/process_docking_weight1_custom_product_contain_oxygen_bond_distance_aromatic_linkinvent_7_9_3/rearranged_h_0181.sdf

> <i_m_source_file_index>
80

> <r_mmod_Potential_Energy-OPLS-2005>
57.0367774963379

> <r_mmod_Stretch_Energy-OPLS-2005>
49.4379386901855

> <r_mmod_Bend_Energy-OPLS-2005>
129.862274169922

> <r_mmod_Torsional_Energy-OPLS-2005>
216.731475830078

> <r_mmod_Improper_Torsional_Energy-OPLS-2005>
6.95959091186523

> <r_mmod_Van_der_Waal_Energy-OPLS-2005>
151.713790893555

> <r_mmod_Electrostatic_Energy-OPLS-2005>
-280.091827392578

> <r_mmod_Solvation_Energy-OPLS-2005>
-237.946731567383

> <b_mmod_Minimization_Converged-OPLS-2005>
0

> <r_mmod_RMS_Derivative-OPLS-2005>
1.33024203777313

$$$$
81
                    3D
 Structure written by MMmdl.
163171  0  0  1  0            999 V2000
  -30.6782  -14.5432   20.5077 C   0  0  0  0  0  0
  -30.4012  -12.3048   19.4782 C   0  0  0  0  0  0
  -29.5144  -12.5081   18.2334 C   0  0  0  0  0  0
  -28.0143  -12.4432   18.5974 C   0  0  0  0  0  0
  -27.6540  -13.2168   19.8973 C   0  0  2  0  0  0
  -28.7008  -13.0315   21.0207 C   0  0  0  0  0  0
  -25.2588  -13.8110   20.5713 C   0  0  0  0  0  0
  -24.1824  -13.0403   20.9134 C   0  0  0  0  0  0
  -24.6390  -11.6882   20.8691 C   0  0  0  0  0  0
  -23.9003  -10.4294   21.0345 C   0  0  0  0  0  0
  -24.3579   -9.4246   21.9142 C   0  0  0  0  0  0
  -23.6293   -8.2274   22.0743 C   0  0  0  0  0  0
  -22.4279   -8.0256   21.3514 C   0  0  0  0  0  0
  -21.9852   -9.0210   20.4607 C   0  0  0  0  0  0
  -22.7166  -10.2110   20.3018 C   0  0  0  0  0  0
  -21.6899   -6.0722   22.5239 C   0  0  0  0  0  0
  -21.4074   -6.5629   23.8168 C   0  0  0  0  0  0
  -21.3678   -5.6788   24.9117 C   0  0  0  0  0  0
  -21.6044   -4.3050   24.7185 C   0  0  0  0  0  0
  -21.8843   -3.8148   23.4312 C   0  0  0  0  0  0
  -21.9233   -4.6960   22.3376 C   0  0  0  0  0  0
  -22.7865  -13.5204   21.1803 C   0  0  0  0  0  0
  -22.1696   -4.2143   21.0956 F   0  0  0  0  0  0
  -21.5594   -3.4523   25.7696 F   0  0  0  0  0  0
  -30.0265  -13.3386   20.4614 N   0  0  0  0  0  0
  -26.2999  -12.9289   20.3468 N   0  0  0  0  0  0
  -25.9316  -11.6437   20.5737 N   0  0  0  0  0  0
  -22.0530  -12.8198   22.0356 N   0  0  0  0  0  0
  -25.4286  -15.1825   20.4109 N   0  0  0  0  0  0
  -31.8229  -14.6835   20.0664 O   0  0  0  0  0  0
  -21.6685   -6.8835   21.4183 O   0  0  0  0  0  0
  -22.3584  -14.5548   20.6684 O   0  0  0  0  0  0
  -24.6258  -31.8606   23.1974 C   0  0  0  0  0  0
  -25.9098  -32.4772   23.8349 C   0  0  1  0  0  0
  -27.2595  -27.3423   20.1165 C   0  0  0  0  0  0
  -25.5923  -33.8570   24.2262 N   0  0  0  0  0  0
  -23.4234  -30.4774   21.5349 C   0  0  2  0  0  0
  -24.8743  -28.9229   20.1129 C   0  0  0  0  0  0
  -22.7464  -29.4679   22.4904 C   0  0  0  0  0  0
  -18.0297  -28.1434   22.8500 C   0  0  0  0  0  0
  -24.1455  -36.7274   23.2623 C   0  0  0  0  0  0
  -25.9595  -30.7926   21.3632 C   0  0  0  0  0  0
  -26.0359  -29.4159   20.7170 C   0  0  0  0  0  0
  -27.2230  -28.6356   20.7100 C   0  0  0  0  0  0
  -26.0661  -26.8799   19.5074 C   0  0  0  0  0  0
  -24.8885  -27.6553   19.5067 C   0  0  0  0  0  0
  -23.6413  -29.8014   20.1532 C   0  0  0  0  0  0
  -25.4091  -36.3075   24.0302 C   0  0  1  0  0  0
  -20.5896  -28.3757   23.1270 C   0  0  2  0  0  0
  -20.6790  -26.9467   22.5417 C   0  0  0  0  0  0
  -19.5745  -26.6402   21.5251 C   0  0  0  0  0  0
  -18.1922  -26.7978   22.1666 C   0  0  0  0  0  0
  -19.1548  -28.8910   23.2894 C   0  0  0  0  0  0
  -18.9465  -30.1506   23.8936 C   0  0  0  0  0  0
  -17.6467  -30.6629   24.0592 C   0  0  0  0  0  0
  -25.9077  -34.9448   23.5102 C   0  0  0  0  0  0
  -16.5365  -29.9138   23.6327 C   0  0  0  0  0  0
  -16.7302  -28.6554   23.0367 C   0  0  0  0  0  0
  -26.4494  -31.6596   25.0730 C   0  0  0  0  0  0
  -25.3699  -31.3684   26.1419 C   0  0  0  0  0  0
  -27.0395  -30.3048   24.6178 C   0  0  0  0  0  0
  -27.6061  -32.4319   25.7521 C   0  0  0  0  0  0
  -27.5553  -37.1757   24.8438 C   0  0  0  0  0  0
  -21.4191  -29.3087   22.3633 N   0  0  0  0  0  0
  -26.4251  -37.3781   23.9414 N   0  0  0  0  0  0
  -24.6877  -31.0601   22.0880 N   0  0  0  0  0  0
  -23.4185  -28.8255   23.3023 O   0  0  0  0  0  0
  -28.4454  -26.6007   20.1682 O   0  0  0  0  0  0
  -26.5671  -34.8922   22.4690 O   0  0  0  0  0  0
  -23.5417  -32.1459   23.7233 O   0  0  0  0  0  0
  -28.9787  -16.5118   18.8786 C   0  0  0  0  0  0
  -29.6295  -16.7667   20.0938 C   0  0  0  0  0  0
  -28.4670  -17.5846   18.1545 C   0  0  0  0  0  0
  -29.3336  -19.0646   19.6696 C   0  0  0  0  0  0
  -29.8543  -22.9045   20.4447 C   0  0  0  0  0  0
  -29.2683  -21.3785   20.5178 C   0  0  0  0  0  0
  -32.3669  -20.3765   19.4590 C   0  0  0  0  0  0
  -30.1487  -25.0378   21.7799 C   0  0  0  0  0  0
  -27.9336  -23.9320   21.9415 C   0  0  0  0  0  0
  -30.9793  -20.5656   18.8080 C   0  0  0  0  0  0
  -28.5575  -25.1741   19.8193 C   0  0  0  0  0  0
  -29.0965  -24.2216   20.9702 C   0  0  0  0  0  0
  -29.8153  -18.0751   20.4599 N   0  0  0  0  0  0
  -28.6368  -18.8504   18.5558 N   0  0  0  0  0  0
  -29.9502  -15.6202   20.9140 N   0  0  0  0  0  0
  -29.8563  -20.3662   19.7634 N   0  0  0  0  0  0
  -31.0069  -23.0988   20.0377 O   0  0  0  0  0  0
  -28.3506  -21.1201   21.3076 O   0  0  0  0  0  0
  -27.7915  -17.3371   17.0085 F   0  0  0  0  0  0
  -31.4554  -12.3437   19.2050 H   0  0  0  0  0  0
  -30.2345  -11.3071   19.8932 H   0  0  0  0  0  0
  -29.7445  -11.7594   17.4738 H   0  0  0  0  0  0
  -29.7564  -13.4710   17.7827 H   0  0  0  0  0  0
  -27.7161  -11.3976   18.6776 H   0  0  0  0  0  0
  -27.4330  -12.8539   17.7673 H   0  0  0  0  0  0
  -27.6624  -14.2716   19.6535 H   0  0  0  0  0  0
  -28.6834  -12.0098   21.4094 H   0  0  0  0  0  0
  -28.4654  -13.6636   21.8740 H   0  0  0  0  0  0
  -25.2739   -9.5801   22.4677 H   0  0  0  0  0  0
  -24.0062   -7.4710   22.7482 H   0  0  0  0  0  0
  -21.0791   -8.8691   19.8892 H   0  0  0  0  0  0
  -22.3600  -10.9627   19.6131 H   0  0  0  0  0  0
  -21.2107   -7.6154   23.9654 H   0  0  0  0  0  0
  -21.1448   -6.0512   25.8999 H   0  0  0  0  0  0
  -22.0623   -2.7604   23.2802 H   0  0  0  0  0  0
  -22.4256  -11.9924   22.4774 H   0  0  0  0  0  0
  -21.1089  -13.1121   22.2465 H   0  0  0  0  0  0
  -24.6545  -15.8272   20.5029 H   0  0  0  0  0  0
  -26.2725  -15.6254   20.0717 H   0  0  0  0  0  0
  -26.7136  -32.5412   23.1071 H   0  0  0  0  0  0
  -25.0032  -33.9697   25.0386 H   0  0  0  0  0  0
  -22.7219  -31.2983   21.3762 H   0  0  0  0  0  0
  -23.3744  -35.9577   23.3253 H   0  0  0  0  0  0
  -24.3557  -36.8969   22.2052 H   0  0  0  0  0  0
  -23.7167  -37.6425   23.6720 H   0  0  0  0  0  0
  -26.0763  -31.5449   20.5826 H   0  0  0  0  0  0
  -26.8468  -30.8543   21.9809 H   0  0  0  0  0  0
  -28.1195  -29.0080   21.1832 H   0  0  0  0  0  0
  -26.0047  -25.9129   19.0363 H   0  0  0  0  0  0
  -23.9959  -27.2575   19.0463 H   0  0  0  0  0  0
  -23.7684  -30.5803   19.3987 H   0  0  0  0  0  0
  -22.7672  -29.2248   19.8469 H   0  0  0  0  0  0
  -25.1243  -36.1902   25.0785 H   0  0  0  0  0  0
  -21.0020  -28.3356   24.1394 H   0  0  0  0  0  0
  -20.5716  -26.2373   23.3629 H   0  0  0  0  0  0
  -21.6638  -26.7479   22.1181 H   0  0  0  0  0  0
  -19.6888  -25.6293   21.1305 H   0  0  0  0  0  0
  -19.6698  -27.3201   20.6763 H   0  0  0  0  0  0
  -17.4192  -26.6762   21.4063 H   0  0  0  0  0  0
  -18.0323  -26.0146   22.9083 H   0  0  0  0  0  0
  -19.7935  -30.7326   24.2325 H   0  0  0  0  0  0
  -17.5012  -31.6310   24.5181 H   0  0  0  0  0  0
  -15.5362  -30.3063   23.7592 H   0  0  0  0  0  0
  -15.8708  -28.0864   22.7077 H   0  0  0  0  0  0
  -24.5881  -30.7067   25.7641 H   0  0  0  0  0  0
  -24.8881  -32.2846   26.4857 H   0  0  0  0  0  0
  -25.7991  -30.8793   27.0178 H   0  0  0  0  0  0
  -26.3031  -29.6741   24.1183 H   0  0  0  0  0  0
  -27.4129  -29.7318   25.4666 H   0  0  0  0  0  0
  -27.8856  -30.4377   23.9435 H   0  0  0  0  0  0
  -27.2726  -33.3625   26.2119 H   0  0  0  0  0  0
  -28.3924  -32.6848   25.0397 H   0  0  0  0  0  0
  -28.0714  -31.8421   26.5428 H   0  0  0  0  0  0
  -28.2469  -38.0138   24.7619 H   0  0  0  0  0  0
  -28.1146  -36.2676   24.6111 H   0  0  0  0  0  0
  -27.2312  -37.1234   25.8843 H   0  0  0  0  0  0
  -20.9375  -29.8818   21.6830 H   0  0  0  0  0  0
  -26.0113  -38.2819   24.1529 H   0  0  0  0  0  0
  -28.8527  -15.5172   18.4797 H   0  0  0  0  0  0
  -33.1342  -20.8968   18.8800 H   0  0  0  0  0  0
  -32.6509  -19.3211   19.4884 H   0  0  0  0  0  0
  -32.4089  -20.7644   20.4801 H   0  0  0  0  0  0
  -30.6982  -24.4178   22.4906 H   0  0  0  0  0  0
  -29.6845  -25.8391   22.3561 H   0  0  0  0  0  0
  -30.8874  -25.5023   21.1231 H   0  0  0  0  0  0
  -28.2935  -23.4910   22.8723 H   0  0  0  0  0  0
  -27.2012  -23.2570   21.5077 H   0  0  0  0  0  0
  -27.3924  -24.8441   22.1890 H   0  0  0  0  0  0
  -30.9097  -19.8610   17.9741 H   0  0  0  0  0  0
  -30.9057  -21.5187   18.2879 H   0  0  0  0  0  0
  -27.6248  -24.7576   19.4523 H   0  0  0  0  0  0
  -29.2380  -25.1262   18.9692 H   0  0  0  0  0  0
  -29.1996  -15.3599   21.5360 H   0  0  0  0  0  0
  1 25  1  0  0  0
  1 30  2  0  0  0
  1 85  1  0  0  0
  2  3  1  0  0  0
  2 25  1  0  0  0
  2 90  1  0  0  0
  2 91  1  0  0  0
  3  4  1  0  0  0
  3 92  1  0  0  0
  3 93  1  0  0  0
  4  5  1  0  0  0
  4 94  1  0  0  0
  4 95  1  0  0  0
  5  6  1  0  0  0
  5 26  1  0  0  0
  5 96  1  0  0  0
  6 25  1  0  0  0
  6 97  1  0  0  0
  6 98  1  0  0  0
  7  8  2  0  0  0
  7 26  1  0  0  0
  7 29  1  0  0  0
  8  9  1  0  0  0
  8 22  1  0  0  0
  9 10  1  0  0  0
  9 27  2  0  0  0
 10 11  2  0  0  0
 10 15  1  0  0  0
 11 12  1  0  0  0
 11 99  1  0  0  0
 12 13  2  0  0  0
 12100  1  0  0  0
 13 14  1  0  0  0
 13 31  1  0  0  0
 14 15  2  0  0  0
 14101  1  0  0  0
 15102  1  0  0  0
 16 17  2  0  0  0
 16 21  1  0  0  0
 16 31  1  0  0  0
 17 18  1  0  0  0
 17103  1  0  0  0
 18 19  2  0  0  0
 18104  1  0  0  0
 19 20  1  0  0  0
 19 24  1  0  0  0
 20 21  2  0  0  0
 20105  1  0  0  0
 21 23  1  0  0  0
 22 28  1  0  0  0
 22 32  2  0  0  0
 26 27  1  0  0  0
 28106  1  0  0  0
 28107  1  0  0  0
 29108  1  0  0  0
 29109  1  0  0  0
 33 34  1  0  0  0
 33 66  1  0  0  0
 33 70  2  0  0  0
 34 36  1  0  0  0
 34 59  1  0  0  0
 34110  1  0  0  0
 35 44  2  0  0  0
 35 45  1  0  0  0
 35 68  1  0  0  0
 36 56  1  0  0  0
 36111  1  0  0  0
 37 39  1  0  0  0
 37 47  1  0  0  0
 37 66  1  0  0  0
 37112  1  0  0  0
 38 43  2  0  0  0
 38 46  1  0  0  0
 38 47  1  0  0  0
 39 64  1  0  0  0
 39 67  2  0  0  0
 40 52  1  0  0  0
 40 53  2  0  0  0
 40 58  1  0  0  0
 41113  1  0  0  0
 41114  1  0  0  0
 41115  1  0  0  0
 41 48  1  0  0  0
 42 43  1  0  0  0
 42 66  1  0  0  0
 42116  1  0  0  0
 42117  1  0  0  0
 43 44  1  0  0  0
 44118  1  0  0  0
 45 46  2  0  0  0
 45119  1  0  0  0
 46120  1  0  0  0
 47121  1  0  0  0
 47122  1  0  0  0
 48 56  1  0  0  0
 48 65  1  0  0  0
 48123  1  0  0  0
 49 50  1  0  0  0
 49 53  1  0  0  0
 49 64  1  0  0  0
 49124  1  0  0  0
 50 51  1  0  0  0
 50125  1  0  0  0
 50126  1  0  0  0
 51 52  1  0  0  0
 51127  1  0  0  0
 51128  1  0  0  0
 52129  1  0  0  0
 52130  1  0  0  0
 53 54  1  0  0  0
 54 55  2  0  0  0
 54131  1  0  0  0
 55 57  1  0  0  0
 55132  1  0  0  0
 56 69  2  0  0  0
 57 58  2  0  0  0
 57133  1  0  0  0
 58134  1  0  0  0
 59 60  1  0  0  0
 59 61  1  0  0  0
 59 62  1  0  0  0
 60135  1  0  0  0
 60136  1  0  0  0
 60137  1  0  0  0
 61138  1  0  0  0
 61139  1  0  0  0
 61140  1  0  0  0
 62141  1  0  0  0
 62142  1  0  0  0
 62143  1  0  0  0
 63 65  1  0  0  0
 63144  1  0  0  0
 63145  1  0  0  0
 63146  1  0  0  0
 64147  1  0  0  0
 65148  1  0  0  0
 68 81  1  0  0  0
 71 72  2  0  0  0
 71 73  1  0  0  0
 71149  1  0  0  0
 72 83  1  0  0  0
 72 85  1  0  0  0
 73 84  2  0  0  0
 73 89  1  0  0  0
 74 83  2  0  0  0
 74 84  1  0  0  0
 74 86  1  0  0  0
 75 76  1  0  0  0
 75 82  1  0  0  0
 75 87  2  0  0  0
 76 86  1  0  0  0
 76 88  2  0  0  0
 77 80  1  0  0  0
 77150  1  0  0  0
 77151  1  0  0  0
 77152  1  0  0  0
 78153  1  0  0  0
 78154  1  0  0  0
 78155  1  0  0  0
 78 82  1  0  0  0
 79 82  1  0  0  0
 79156  1  0  0  0
 79157  1  0  0  0
 79158  1  0  0  0
 80 86  1  0  0  0
 80159  1  0  0  0
 80160  1  0  0  0
 81 82  1  0  0  0
 81161  1  0  0  0
 81162  1  0  0  0
 85163  1  0  0  0
M  ISO  4   1 100  68 101  81 101  85 100
M  END
> <chiral flag>
0

> <version>
0

> <s_m_source_file>
/data/baiqing/PycharmProjects/Reinvent-master-3.2/result/LINK_invent/BTK/process_docking_weight1_custom_product_contain_oxygen_bond_distance_aromatic_linkinvent_7_9_3/rearranged_h_0181.sdf

> <i_m_source_file_index>
81

> <r_mmod_Potential_Energy-OPLS-2005>
-136.93994140625

> <r_mmod_Stretch_Energy-OPLS-2005>
90.7904052734375

> <r_mmod_Bend_Energy-OPLS-2005>
169.226150512695

> <r_mmod_Torsional_Energy-OPLS-2005>
333.372894287109

> <r_mmod_Improper_Torsional_Energy-OPLS-2005>
11.1396789550781

> <r_mmod_Van_der_Waal_Energy-OPLS-2005>
174.266693115234

> <r_mmod_Electrostatic_Energy-OPLS-2005>
-722.639343261719

> <r_mmod_Solvation_Energy-OPLS-2005>
-222.648788452148

> <b_mmod_Minimization_Converged-OPLS-2005>
0

> <r_mmod_RMS_Derivative-OPLS-2005>
6.85372066497803

$$$$
82
                    3D
 Structure written by MMmdl.
154162  0  0  1  0            999 V2000
  -30.6859  -14.5291   20.4901 C   0  0  0  0  0  0
  -30.4221  -12.3126   19.4590 C   0  0  0  0  0  0
  -29.5075  -12.4858   18.2280 C   0  0  0  0  0  0
  -28.0271  -12.3520   18.6344 C   0  0  0  0  0  0
  -27.6577  -13.2179   19.8696 C   0  0  2  0  0  0
  -28.6973  -13.0502   21.0020 C   0  0  0  0  0  0
  -25.2547  -13.8149   20.5677 C   0  0  0  0  0  0
  -24.1806  -13.0412   20.9164 C   0  0  0  0  0  0
  -24.6397  -11.6893   20.8710 C   0  0  0  0  0  0
  -23.9059  -10.4271   21.0376 C   0  0  0  0  0  0
  -24.3603   -9.4202   21.9186 C   0  0  0  0  0  0
  -23.6267   -8.2248   22.0787 C   0  0  0  0  0  0
  -22.4258   -8.0283   21.3554 C   0  0  0  0  0  0
  -21.9883   -9.0254   20.4668 C   0  0  0  0  0  0
  -22.7211  -10.2125   20.3060 C   0  0  0  0  0  0
  -21.6855   -6.0725   22.5271 C   0  0  0  0  0  0
  -21.4025   -6.5632   23.8199 C   0  0  0  0  0  0
  -21.3661   -5.6797   24.9162 C   0  0  0  0  0  0
  -21.6038   -4.3058   24.7206 C   0  0  0  0  0  0
  -21.8823   -3.8147   23.4328 C   0  0  0  0  0  0
  -21.9193   -4.6954   22.3377 C   0  0  0  0  0  0
  -22.7825  -13.5215   21.1816 C   0  0  0  0  0  0
  -22.1657   -4.2143   21.0953 F   0  0  0  0  0  0
  -21.5626   -3.4542   25.7718 F   0  0  0  0  0  0
  -30.0308  -13.3348   20.4450 N   0  0  0  0  0  0
  -26.3003  -12.9359   20.3338 N   0  0  0  0  0  0
  -25.9331  -11.6502   20.5740 N   0  0  0  0  0  0
  -22.0440  -12.8250   22.0392 N   0  0  0  0  0  0
  -25.4223  -15.1876   20.4098 N   0  0  0  0  0  0
  -31.8444  -14.6590   20.0814 O   0  0  0  0  0  0
  -21.6643   -6.8859   21.4230 O   0  0  0  0  0  0
  -22.3500  -14.5518   20.6667 O   0  0  0  0  0  0
  -24.6187  -31.8625   23.2055 C   0  0  0  0  0  0
  -25.9055  -32.4789   23.8367 C   0  0  1  0  0  0
  -27.2426  -27.4042   20.0855 C   0  0  0  0  0  0
  -25.5890  -33.8597   24.2301 N   0  0  0  0  0  0
  -23.4087  -30.4830   21.5486 C   0  0  2  0  0  0
  -24.8566  -28.9404   20.1184 C   0  0  0  0  0  0
  -22.7385  -29.4655   22.5015 C   0  0  0  0  0  0
  -18.0222  -28.1377   22.8463 C   0  0  0  0  0  0
  -24.1498  -36.7320   23.2642 C   0  0  0  0  0  0
  -25.9381  -30.8180   21.3641 C   0  0  0  0  0  0
  -26.0193  -29.4475   20.7115 C   0  0  0  0  0  0
  -27.2174  -28.6877   20.6915 C   0  0  0  0  0  0
  -26.0599  -26.9184   19.4865 C   0  0  0  0  0  0
  -24.8733  -27.6762   19.5036 C   0  0  0  0  0  0
  -23.6177  -29.8064   20.1650 C   0  0  0  0  0  0
  -25.4125  -36.3126   24.0336 C   0  0  1  0  0  0
  -20.5823  -28.3656   23.1305 C   0  0  2  0  0  0
  -20.6761  -26.9398   22.5411 C   0  0  0  0  0  0
  -19.5743  -26.6370   21.5212 C   0  0  0  0  0  0
  -18.1898  -26.7903   22.1604 C   0  0  0  0  0  0
  -19.1479  -28.8830   23.2865 C   0  0  0  0  0  0
  -18.9433  -30.1442   23.8877 C   0  0  0  0  0  0
  -17.6445  -30.6593   24.0569 C   0  0  0  0  0  0
  -25.9029  -34.9472   23.5124 C   0  0  0  0  0  0
  -16.5328  -29.9108   23.6341 C   0  0  0  0  0  0
  -16.7215  -28.6525   23.0340 C   0  0  0  0  0  0
  -26.4461  -31.6585   25.0712 C   0  0  0  0  0  0
  -25.3689  -31.3728   26.1439 C   0  0  0  0  0  0
  -27.0310  -30.3018   24.6134 C   0  0  0  0  0  0
  -27.6028  -32.4301   25.7466 C   0  0  0  0  0  0
  -27.5573  -37.1832   24.8448 C   0  0  0  0  0  0
  -21.4115  -29.3033   22.3738 N   0  0  0  0  0  0
  -26.4307  -37.3806   23.9363 N   0  0  0  0  0  0
  -24.6738  -31.0687   22.0980 N   0  0  0  0  0  0
  -23.4135  -28.8192   23.3066 O   0  0  0  0  0  0
  -28.4018  -26.6463   20.0425 O   0  0  0  0  0  0
  -26.5610  -34.8935   22.4696 O   0  0  0  0  0  0
  -23.5378  -32.1411   23.7420 O   0  0  0  0  0  0
  -29.7760  -19.2056   20.0933 C   0  0  0  0  0  0
  -30.2314  -18.9202   18.8105 C   0  0  0  0  0  0
  -30.0460  -16.9025   20.2480 C   0  0  0  0  0  0
  -29.4736  -20.5793   20.6924 C   0  0  0  0  0  0
  -28.9708  -24.2015   19.6672 C   0  0  0  0  0  0
  -31.2722  -23.3795   20.4442 C   0  0  0  0  0  0
  -28.2958  -25.2904   20.5551 C   0  0  0  0  0  0
  -29.7641  -23.0672   20.3959 C   0  0  2  0  0  0
  -29.6434  -18.0226   20.8720 N   0  0  0  0  0  0
  -30.4849  -19.7541   17.7205 N   0  0  0  0  0  0
  -29.9596  -15.6078   20.8567 N   0  0  0  0  0  0
  -29.5743  -21.6730   19.8991 N   0  0  0  0  0  0
  -29.1858  -20.6911   21.8884 O   0  0  0  0  0  0
  -28.8971  -24.2668   18.4355 O   0  0  0  0  0  0
  -30.5659  -17.2119   18.5935 S   0  0  0  0  0  0
  -31.4703  -12.3929   19.1665 H   0  0  0  0  0  0
  -30.3067  -11.3162   19.8875 H   0  0  0  0  0  0
  -29.7549  -11.7366   17.4746 H   0  0  0  0  0  0
  -29.6838  -13.4560   17.7626 H   0  0  0  0  0  0
  -27.8537  -11.3020   18.8638 H   0  0  0  0  0  0
  -27.3772  -12.5923   17.7921 H   0  0  0  0  0  0
  -27.6834  -14.2582   19.5424 H   0  0  0  0  0  0
  -28.6699  -12.0335   21.3983 H   0  0  0  0  0  0
  -28.4592  -13.7019   21.8423 H   0  0  0  0  0  0
  -25.2736   -9.5683   22.4759 H   0  0  0  0  0  0
  -23.9964   -7.4656   22.7546 H   0  0  0  0  0  0
  -21.0808   -8.8757   19.8991 H   0  0  0  0  0  0
  -22.3651  -10.9659   19.6179 H   0  0  0  0  0  0
  -21.2042   -7.6147   23.9689 H   0  0  0  0  0  0
  -21.1476   -6.0525   25.9054 H   0  0  0  0  0  0
  -22.0605   -2.7610   23.2816 H   0  0  0  0  0  0
  -22.4035  -11.9923   22.4796 H   0  0  0  0  0  0
  -21.1093  -13.1368   22.2608 H   0  0  0  0  0  0
  -24.6502  -15.8348   20.5265 H   0  0  0  0  0  0
  -26.2751  -15.6391   20.1056 H   0  0  0  0  0  0
  -26.7121  -32.5490   23.1119 H   0  0  0  0  0  0
  -25.0071  -33.9726   25.0485 H   0  0  0  0  0  0
  -22.7026  -31.3020   21.4028 H   0  0  0  0  0  0
  -23.3758  -35.9654   23.3333 H   0  0  0  0  0  0
  -24.3577  -36.8900   22.2044 H   0  0  0  0  0  0
  -23.7232  -37.6535   23.6612 H   0  0  0  0  0  0
  -26.0495  -31.5885   20.6002 H   0  0  0  0  0  0
  -26.8218  -30.8757   21.9860 H   0  0  0  0  0  0
  -28.1166  -29.0755   21.1508 H   0  0  0  0  0  0
  -26.0520  -25.9572   18.9887 H   0  0  0  0  0  0
  -23.9794  -27.2853   19.0373 H   0  0  0  0  0  0
  -23.7163  -30.5702   19.3934 H   0  0  0  0  0  0
  -22.7427  -29.2157   19.8833 H   0  0  0  0  0  0
  -25.1318  -36.2036   25.0838 H   0  0  0  0  0  0
  -20.9867  -28.3253   24.1446 H   0  0  0  0  0  0
  -20.5669  -26.2280   23.3606 H   0  0  0  0  0  0
  -21.6645  -26.7478   22.1219 H   0  0  0  0  0  0
  -19.6923  -25.6279   21.1234 H   0  0  0  0  0  0
  -19.6690  -27.3203   20.6767 H   0  0  0  0  0  0
  -17.4181  -26.6575   21.4005 H   0  0  0  0  0  0
  -18.0326  -26.0058   22.9027 H   0  0  0  0  0  0
  -19.7933  -30.7234   24.2228 H   0  0  0  0  0  0
  -17.5035  -31.6264   24.5191 H   0  0  0  0  0  0
  -15.5337  -30.3031   23.7691 H   0  0  0  0  0  0
  -15.8597  -28.0873   22.7067 H   0  0  0  0  0  0
  -24.5854  -30.7101   25.7767 H   0  0  0  0  0  0
  -24.8911  -32.2915   26.4854 H   0  0  0  0  0  0
  -25.8029  -30.8892   27.0214 H   0  0  0  0  0  0
  -26.2938  -29.6752   24.1144 H   0  0  0  0  0  0
  -27.4017  -29.7265   25.4642 H   0  0  0  0  0  0
  -27.8763  -30.4309   23.9373 H   0  0  0  0  0  0
  -27.2651  -33.3595   26.2061 H   0  0  0  0  0  0
  -28.3827  -32.6882   25.0286 H   0  0  0  0  0  0
  -28.0701  -31.8410   26.5357 H   0  0  0  0  0  0
  -28.2659  -38.0084   24.7522 H   0  0  0  0  0  0
  -28.1002  -36.2630   24.6297 H   0  0  0  0  0  0
  -27.2238  -37.1534   25.8835 H   0  0  0  0  0  0
  -20.9298  -29.8802   21.6996 H   0  0  0  0  0  0
  -26.0207  -38.2873   24.1415 H   0  0  0  0  0  0
  -31.4530  -24.3703   20.8621 H   0  0  0  0  0  0
  -31.7163  -23.3524   19.4473 H   0  0  0  0  0  0
  -31.8096  -22.6643   21.0696 H   0  0  0  0  0  0
  -28.7548  -25.2675   21.5445 H   0  0  0  0  0  0
  -27.2541  -25.0047   20.6976 H   0  0  0  0  0  0
  -29.4169  -23.0952   21.4282 H   0  0  0  0  0  0
  -31.2232  -20.4403   17.8470 H   0  0  0  0  0  0
  -30.6865  -19.2415   16.8658 H   0  0  0  0  0  0
  -29.1263  -15.4300   21.3927 H   0  0  0  0  0  0
  -29.7465  -21.4821   18.9160 H   0  0  0  0  0  0
  1 25  1  0  0  0
  1 30  2  0  0  0
  1 81  1  0  0  0
  2  3  1  0  0  0
  2 25  1  0  0  0
  2 86  1  0  0  0
  2 87  1  0  0  0
  3  4  1  0  0  0
  3 88  1  0  0  0
  3 89  1  0  0  0
  4  5  1  0  0  0
  4 90  1  0  0  0
  4 91  1  0  0  0
  5  6  1  0  0  0
  5 26  1  0  0  0
  5 92  1  0  0  0
  6 25  1  0  0  0
  6 93  1  0  0  0
  6 94  1  0  0  0
  7  8  2  0  0  0
  7 26  1  0  0  0
  7 29  1  0  0  0
  8  9  1  0  0  0
  8 22  1  0  0  0
  9 10  1  0  0  0
  9 27  2  0  0  0
 10 11  2  0  0  0
 10 15  1  0  0  0
 11 12  1  0  0  0
 11 95  1  0  0  0
 12 13  2  0  0  0
 12 96  1  0  0  0
 13 14  1  0  0  0
 13 31  1  0  0  0
 14 15  2  0  0  0
 14 97  1  0  0  0
 15 98  1  0  0  0
 16 17  2  0  0  0
 16 21  1  0  0  0
 16 31  1  0  0  0
 17 18  1  0  0  0
 17 99  1  0  0  0
 18 19  2  0  0  0
 18100  1  0  0  0
 19 20  1  0  0  0
 19 24  1  0  0  0
 20 21  2  0  0  0
 20101  1  0  0  0
 21 23  1  0  0  0
 22 28  1  0  0  0
 22 32  2  0  0  0
 26 27  1  0  0  0
 28102  1  0  0  0
 28103  1  0  0  0
 29104  1  0  0  0
 29105  1  0  0  0
 33 34  1  0  0  0
 33 66  1  0  0  0
 33 70  2  0  0  0
 34 36  1  0  0  0
 34 59  1  0  0  0
 34106  1  0  0  0
 35 44  2  0  0  0
 35 45  1  0  0  0
 35 68  1  0  0  0
 36 56  1  0  0  0
 36107  1  0  0  0
 37 39  1  0  0  0
 37 47  1  0  0  0
 37 66  1  0  0  0
 37108  1  0  0  0
 38 43  2  0  0  0
 38 46  1  0  0  0
 38 47  1  0  0  0
 39 64  1  0  0  0
 39 67  2  0  0  0
 40 52  1  0  0  0
 40 53  2  0  0  0
 40 58  1  0  0  0
 41109  1  0  0  0
 41110  1  0  0  0
 41111  1  0  0  0
 41 48  1  0  0  0
 42 43  1  0  0  0
 42 66  1  0  0  0
 42112  1  0  0  0
 42113  1  0  0  0
 43 44  1  0  0  0
 44114  1  0  0  0
 45 46  2  0  0  0
 45115  1  0  0  0
 46116  1  0  0  0
 47117  1  0  0  0
 47118  1  0  0  0
 48 56  1  0  0  0
 48 65  1  0  0  0
 48119  1  0  0  0
 49 50  1  0  0  0
 49 53  1  0  0  0
 49 64  1  0  0  0
 49120  1  0  0  0
 50 51  1  0  0  0
 50121  1  0  0  0
 50122  1  0  0  0
 51 52  1  0  0  0
 51123  1  0  0  0
 51124  1  0  0  0
 52125  1  0  0  0
 52126  1  0  0  0
 53 54  1  0  0  0
 54 55  2  0  0  0
 54127  1  0  0  0
 55 57  1  0  0  0
 55128  1  0  0  0
 56 69  2  0  0  0
 57 58  2  0  0  0
 57129  1  0  0  0
 58130  1  0  0  0
 59 60  1  0  0  0
 59 61  1  0  0  0
 59 62  1  0  0  0
 60131  1  0  0  0
 60132  1  0  0  0
 60133  1  0  0  0
 61134  1  0  0  0
 61135  1  0  0  0
 61136  1  0  0  0
 62137  1  0  0  0
 62138  1  0  0  0
 62139  1  0  0  0
 63 65  1  0  0  0
 63140  1  0  0  0
 63141  1  0  0  0
 63142  1  0  0  0
 64143  1  0  0  0
 65144  1  0  0  0
 68 77  1  0  0  0
 71 72  2  0  0  0
 71 74  1  0  0  0
 71 79  1  0  0  0
 72 80  1  0  0  0
 72 85  1  0  0  0
 73 79  2  0  0  0
 73 81  1  0  0  0
 73 85  1  0  0  0
 74 82  1  0  0  0
 74 83  2  0  0  0
 75 77  1  0  0  0
 75 78  1  0  0  0
 75 84  2  0  0  0
 76145  1  0  0  0
 76146  1  0  0  0
 76147  1  0  0  0
 76 78  1  0  0  0
 77148  1  0  0  0
 77149  1  0  0  0
 78 82  1  0  0  0
 78150  1  0  0  0
 80151  1  0  0  0
 80152  1  0  0  0
 81153  1  0  0  0
 82154  1  0  0  0
M  ISO  4   1 100  68 101  77 101  81 100
M  END
> <chiral flag>
0

> <version>
0

> <s_m_source_file>
/data/baiqing/PycharmProjects/Reinvent-master-3.2/result/LINK_invent/BTK/process_docking_weight1_custom_product_contain_oxygen_bond_distance_aromatic_linkinvent_7_9_3/rearranged_h_0181.sdf

> <i_m_source_file_index>
82

> <r_mmod_Potential_Energy-OPLS-2005>
23.8263301849365

> <r_mmod_Stretch_Energy-OPLS-2005>
49.9975547790527

> <r_mmod_Bend_Energy-OPLS-2005>
106.848030090332

> <r_mmod_Torsional_Energy-OPLS-2005>
271.509033203125

> <r_mmod_Improper_Torsional_Energy-OPLS-2005>
11.1454639434814

> <r_mmod_Van_der_Waal_Energy-OPLS-2005>
127.277877807617

> <r_mmod_Electrostatic_Energy-OPLS-2005>
-308.785308837891

> <r_mmod_Solvation_Energy-OPLS-2005>
-255.147598266602

> <b_mmod_Minimization_Converged-OPLS-2005>
0

> <r_mmod_RMS_Derivative-OPLS-2005>
4.16438055038452

$$$$
83
                    3D
 Structure written by MMmdl.
157165  0  0  1  0            999 V2000
  -30.7267  -14.5019   20.6980 C   0  0  0  0  0  0
  -30.4217  -12.3647   19.4611 C   0  0  0  0  0  0
  -29.5129  -12.5531   18.2302 C   0  0  0  0  0  0
  -28.0283  -12.3868   18.6125 C   0  0  0  0  0  0
  -27.6520  -13.2227   19.8672 C   0  0  2  0  0  0
  -28.6843  -13.0210   21.0041 C   0  0  0  0  0  0
  -25.2441  -13.8061   20.5621 C   0  0  0  0  0  0
  -24.1723  -13.0344   20.9098 C   0  0  0  0  0  0
  -24.6332  -11.6822   20.8659 C   0  0  0  0  0  0
  -23.9019  -10.4200   21.0343 C   0  0  0  0  0  0
  -24.3628   -9.4108   21.9081 C   0  0  0  0  0  0
  -23.6315   -8.2135   22.0685 C   0  0  0  0  0  0
  -22.4293   -8.0172   21.3470 C   0  0  0  0  0  0
  -21.9884   -9.0158   20.4622 C   0  0  0  0  0  0
  -22.7207  -10.2043   20.2980 C   0  0  0  0  0  0
  -21.6827   -6.0727   22.5266 C   0  0  0  0  0  0
  -21.4063   -6.5697   23.8175 C   0  0  0  0  0  0
  -21.3694   -5.6868   24.9168 C   0  0  0  0  0  0
  -21.6057   -4.3133   24.7221 C   0  0  0  0  0  0
  -21.8841   -3.8205   23.4362 C   0  0  0  0  0  0
  -21.9198   -4.6982   22.3424 C   0  0  0  0  0  0
  -22.7727  -13.5148   21.1736 C   0  0  0  0  0  0
  -22.1617   -4.2139   21.0996 F   0  0  0  0  0  0
  -21.5650   -3.4650   25.7758 F   0  0  0  0  0  0
  -30.0284  -13.3430   20.4917 N   0  0  0  0  0  0
  -26.2918  -12.9330   20.3201 N   0  0  0  0  0  0
  -25.9269  -11.6475   20.5718 N   0  0  0  0  0  0
  -22.0214  -12.8046   22.0062 N   0  0  0  0  0  0
  -25.4095  -15.1835   20.4207 N   0  0  0  0  0  0
  -31.7880  -14.7300   20.1076 O   0  0  0  0  0  0
  -21.6639   -6.8822   21.4183 O   0  0  0  0  0  0
  -22.3447  -14.5546   20.6701 O   0  0  0  0  0  0
  -24.6239  -31.8617   23.2089 C   0  0  0  0  0  0
  -25.9102  -32.4770   23.8374 C   0  0  1  0  0  0
  -27.2023  -27.3319   20.1588 C   0  0  0  0  0  0
  -25.5923  -33.8592   24.2263 N   0  0  0  0  0  0
  -23.4177  -30.4849   21.5497 C   0  0  2  0  0  0
  -24.8660  -28.9537   20.1045 C   0  0  0  0  0  0
  -22.7455  -29.4630   22.4986 C   0  0  0  0  0  0
  -18.0243  -28.1397   22.8443 C   0  0  0  0  0  0
  -24.1493  -36.7304   23.2634 C   0  0  0  0  0  0
  -25.9586  -30.7977   21.3839 C   0  0  0  0  0  0
  -26.0291  -29.4299   20.7254 C   0  0  0  0  0  0
  -27.2071  -28.6304   20.7433 C   0  0  0  0  0  0
  -26.0301  -26.9119   19.4955 C   0  0  0  0  0  0
  -24.8681  -27.6988   19.4748 C   0  0  0  0  0  0
  -23.6325  -29.8252   20.1597 C   0  0  0  0  0  0
  -25.4114  -36.3083   24.0313 C   0  0  1  0  0  0
  -20.5851  -28.3699   23.1275 C   0  0  2  0  0  0
  -20.6773  -26.9426   22.5408 C   0  0  0  0  0  0
  -19.5754  -26.6381   21.5222 C   0  0  0  0  0  0
  -18.1919  -26.7923   22.1614 C   0  0  0  0  0  0
  -19.1498  -28.8868   23.2847 C   0  0  0  0  0  0
  -18.9422  -30.1461   23.8881 C   0  0  0  0  0  0
  -17.6430  -30.6606   24.0550 C   0  0  0  0  0  0
  -25.9043  -34.9463   23.5086 C   0  0  0  0  0  0
  -16.5324  -29.9097   23.6322 C   0  0  0  0  0  0
  -16.7237  -28.6517   23.0342 C   0  0  0  0  0  0
  -26.4503  -31.6599   25.0750 C   0  0  0  0  0  0
  -25.3721  -31.3775   26.1461 C   0  0  0  0  0  0
  -27.0338  -30.2986   24.6275 C   0  0  0  0  0  0
  -27.6077  -32.4344   25.7501 C   0  0  0  0  0  0
  -27.5586  -37.1811   24.8452 C   0  0  0  0  0  0
  -21.4185  -29.3037   22.3692 N   0  0  0  0  0  0
  -26.4289  -37.3775   23.9407 N   0  0  0  0  0  0
  -24.6856  -31.0618   22.1057 N   0  0  0  0  0  0
  -23.4191  -28.8139   23.3040 O   0  0  0  0  0  0
  -28.2782  -26.4455   20.2566 O   0  0  0  0  0  0
  -26.5650  -34.8915   22.4676 O   0  0  0  0  0  0
  -23.5400  -32.1461   23.7390 O   0  0  0  0  0  0
  -29.9117  -17.8823   22.1248 C   0  0  0  0  0  0
  -28.6929  -17.9163   22.7807 C   0  0  0  0  0  0
  -29.3219  -20.1491   21.8271 C   0  0  0  0  0  0
  -31.3519  -16.4397   23.5111 C   0  0  0  0  0  0
  -28.8254  -22.6697   21.6609 C   0  0  0  0  0  0
  -32.6481  -17.0941   23.9816 C   0  0  0  0  0  0
  -29.0384  -23.9679   20.7817 C   0  0  0  0  0  0
  -27.9552  -25.1319   20.8653 C   0  0  0  0  0  0
  -30.8815  -16.6676   22.0556 C   0  0  1  0  0  0
  -30.2227  -19.1624   21.5611 N   0  0  0  0  0  0
  -28.0461  -16.8715   23.4527 N   0  0  0  0  0  0
  -29.4513  -21.5047   21.3033 N   0  0  0  0  0  0
  -30.2376  -15.3922   21.5990 N   0  0  0  0  0  0
  -30.7301  -15.7318   24.3100 O   0  0  0  0  0  0
  -28.1482  -22.7572   22.6902 O   0  0  0  0  0  0
  -27.9786  -19.5276   22.7906 S   0  0  0  0  0  0
  -31.4678  -12.4624   19.1701 H   0  0  0  0  0  0
  -30.3026  -11.3569   19.8591 H   0  0  0  0  0  0
  -29.7865  -11.8430   17.4496 H   0  0  0  0  0  0
  -29.6640  -13.5519   17.8200 H   0  0  0  0  0  0
  -27.8600  -11.3257   18.8035 H   0  0  0  0  0  0
  -27.3882  -12.6366   17.7600 H   0  0  0  0  0  0
  -27.6852  -14.2737   19.5731 H   0  0  0  0  0  0
  -28.6438  -11.9829   21.3473 H   0  0  0  0  0  0
  -28.4086  -13.6247   21.8667 H   0  0  0  0  0  0
  -25.2804   -9.5516   22.4550 H   0  0  0  0  0  0
  -24.0163   -7.4444   22.7257 H   0  0  0  0  0  0
  -21.0838   -8.8557   19.8870 H   0  0  0  0  0  0
  -22.3676  -10.9538   19.6042 H   0  0  0  0  0  0
  -21.2053   -7.6192   23.9676 H   0  0  0  0  0  0
  -21.1523   -6.0610   25.9123 H   0  0  0  0  0  0
  -22.0615   -2.7652   23.2869 H   0  0  0  0  0  0
  -22.3533  -11.9367   22.4052 H   0  0  0  0  0  0
  -21.0824  -13.1114   22.2164 H   0  0  0  0  0  0
  -24.6542  -15.8261   20.6292 H   0  0  0  0  0  0
  -26.3054  -15.6425   20.3050 H   0  0  0  0  0  0
  -26.7186  -32.5438   23.1157 H   0  0  0  0  0  0
  -25.0060  -33.9757   25.0403 H   0  0  0  0  0  0
  -22.7057  -31.3057   21.4109 H   0  0  0  0  0  0
  -23.3754  -35.9643   23.3318 H   0  0  0  0  0  0
  -24.3569  -36.8912   22.2037 H   0  0  0  0  0  0
  -23.7254  -37.6512   23.6661 H   0  0  0  0  0  0
  -26.0950  -31.5565   20.6137 H   0  0  0  0  0  0
  -26.8418  -30.8367   22.0118 H   0  0  0  0  0  0
  -28.0919  -28.9786   21.2553 H   0  0  0  0  0  0
  -25.9890  -25.9485   19.0088 H   0  0  0  0  0  0
  -23.9846  -27.3219   18.9764 H   0  0  0  0  0  0
  -23.7469  -30.6086   19.4097 H   0  0  0  0  0  0
  -22.7547  -29.2506   19.8572 H   0  0  0  0  0  0
  -25.1307  -36.1938   25.0801 H   0  0  0  0  0  0
  -20.9888  -28.3292   24.1447 H   0  0  0  0  0  0
  -20.5714  -26.2327   23.3639 H   0  0  0  0  0  0
  -21.6649  -26.7526   22.1216 H   0  0  0  0  0  0
  -19.6974  -25.6301   21.1270 H   0  0  0  0  0  0
  -19.6720  -27.3201   20.6766 H   0  0  0  0  0  0
  -17.4216  -26.6609   21.4019 H   0  0  0  0  0  0
  -18.0334  -26.0116   22.9046 H   0  0  0  0  0  0
  -19.7911  -30.7237   24.2315 H   0  0  0  0  0  0
  -17.5003  -31.6295   24.5145 H   0  0  0  0  0  0
  -15.5339  -30.3019   23.7684 H   0  0  0  0  0  0
  -15.8614  -28.0847   22.7119 H   0  0  0  0  0  0
  -24.5820  -30.7239   25.7748 H   0  0  0  0  0  0
  -24.9030  -32.2975   26.4937 H   0  0  0  0  0  0
  -25.7971  -30.8834   27.0198 H   0  0  0  0  0  0
  -26.2921  -29.6732   24.1260 H   0  0  0  0  0  0
  -27.3947  -29.7232   25.4820 H   0  0  0  0  0  0
  -27.8848  -30.4243   23.9574 H   0  0  0  0  0  0
  -27.2669  -33.3590   26.2167 H   0  0  0  0  0  0
  -28.3813  -32.6986   25.0290 H   0  0  0  0  0  0
  -28.0865  -31.8440   26.5329 H   0  0  0  0  0  0
  -28.2593  -38.0107   24.7493 H   0  0  0  0  0  0
  -28.1065  -36.2644   24.6273 H   0  0  0  0  0  0
  -27.2302  -37.1461   25.8843 H   0  0  0  0  0  0
  -20.9396  -29.8702   21.6842 H   0  0  0  0  0  0
  -26.0165  -38.2848   24.1401 H   0  0  0  0  0  0
  -33.3877  -17.0896   23.1794 H   0  0  0  0  0  0
  -33.0639  -16.5500   24.8331 H   0  0  0  0  0  0
  -32.4841  -18.1270   24.2971 H   0  0  0  0  0  0
  -29.0997  -23.6386   19.7438 H   0  0  0  0  0  0
  -30.0141  -24.3828   21.0290 H   0  0  0  0  0  0
  -27.6929  -25.3263   21.9063 H   0  0  0  0  0  0
  -27.0515  -24.7188   20.4224 H   0  0  0  0  0  0
  -31.7558  -16.9211   21.4533 H   0  0  0  0  0  0
  -28.5808  -16.1191   23.8808 H   0  0  0  0  0  0
  -27.1657  -17.0231   23.9348 H   0  0  0  0  0  0
  -30.0684  -21.5946   20.5115 H   0  0  0  0  0  0
  -29.4078  -15.1270   22.1104 H   0  0  0  0  0  0
  1 25  1  0  0  0
  1 30  2  0  0  0
  1 83  1  0  0  0
  2  3  1  0  0  0
  2 25  1  0  0  0
  2 87  1  0  0  0
  2 88  1  0  0  0
  3  4  1  0  0  0
  3 89  1  0  0  0
  3 90  1  0  0  0
  4  5  1  0  0  0
  4 91  1  0  0  0
  4 92  1  0  0  0
  5  6  1  0  0  0
  5 26  1  0  0  0
  5 93  1  0  0  0
  6 25  1  0  0  0
  6 94  1  0  0  0
  6 95  1  0  0  0
  7  8  2  0  0  0
  7 26  1  0  0  0
  7 29  1  0  0  0
  8  9  1  0  0  0
  8 22  1  0  0  0
  9 10  1  0  0  0
  9 27  2  0  0  0
 10 11  2  0  0  0
 10 15  1  0  0  0
 11 12  1  0  0  0
 11 96  1  0  0  0
 12 13  2  0  0  0
 12 97  1  0  0  0
 13 14  1  0  0  0
 13 31  1  0  0  0
 14 15  2  0  0  0
 14 98  1  0  0  0
 15 99  1  0  0  0
 16 17  2  0  0  0
 16 21  1  0  0  0
 16 31  1  0  0  0
 17 18  1  0  0  0
 17100  1  0  0  0
 18 19  2  0  0  0
 18101  1  0  0  0
 19 20  1  0  0  0
 19 24  1  0  0  0
 20 21  2  0  0  0
 20102  1  0  0  0
 21 23  1  0  0  0
 22 28  1  0  0  0
 22 32  2  0  0  0
 26 27  1  0  0  0
 28103  1  0  0  0
 28104  1  0  0  0
 29105  1  0  0  0
 29106  1  0  0  0
 33 34  1  0  0  0
 33 66  1  0  0  0
 33 70  2  0  0  0
 34 36  1  0  0  0
 34 59  1  0  0  0
 34107  1  0  0  0
 35 44  2  0  0  0
 35 45  1  0  0  0
 35 68  1  0  0  0
 36 56  1  0  0  0
 36108  1  0  0  0
 37 39  1  0  0  0
 37 47  1  0  0  0
 37 66  1  0  0  0
 37109  1  0  0  0
 38 43  2  0  0  0
 38 46  1  0  0  0
 38 47  1  0  0  0
 39 64  1  0  0  0
 39 67  2  0  0  0
 40 52  1  0  0  0
 40 53  2  0  0  0
 40 58  1  0  0  0
 41110  1  0  0  0
 41111  1  0  0  0
 41112  1  0  0  0
 41 48  1  0  0  0
 42 43  1  0  0  0
 42 66  1  0  0  0
 42113  1  0  0  0
 42114  1  0  0  0
 43 44  1  0  0  0
 44115  1  0  0  0
 45 46  2  0  0  0
 45116  1  0  0  0
 46117  1  0  0  0
 47118  1  0  0  0
 47119  1  0  0  0
 48 56  1  0  0  0
 48 65  1  0  0  0
 48120  1  0  0  0
 49 50  1  0  0  0
 49 53  1  0  0  0
 49 64  1  0  0  0
 49121  1  0  0  0
 50 51  1  0  0  0
 50122  1  0  0  0
 50123  1  0  0  0
 51 52  1  0  0  0
 51124  1  0  0  0
 51125  1  0  0  0
 52126  1  0  0  0
 52127  1  0  0  0
 53 54  1  0  0  0
 54 55  2  0  0  0
 54128  1  0  0  0
 55 57  1  0  0  0
 55129  1  0  0  0
 56 69  2  0  0  0
 57 58  2  0  0  0
 57130  1  0  0  0
 58131  1  0  0  0
 59 60  1  0  0  0
 59 61  1  0  0  0
 59 62  1  0  0  0
 60132  1  0  0  0
 60133  1  0  0  0
 60134  1  0  0  0
 61135  1  0  0  0
 61136  1  0  0  0
 61137  1  0  0  0
 62138  1  0  0  0
 62139  1  0  0  0
 62140  1  0  0  0
 63 65  1  0  0  0
 63141  1  0  0  0
 63142  1  0  0  0
 63143  1  0  0  0
 64144  1  0  0  0
 65145  1  0  0  0
 68 78  1  0  0  0
 71 72  2  0  0  0
 71 79  1  0  0  0
 71 80  1  0  0  0
 72 81  1  0  0  0
 72 86  1  0  0  0
 73 80  2  0  0  0
 73 82  1  0  0  0
 73 86  1  0  0  0
 74 76  1  0  0  0
 74 79  1  0  0  0
 74 84  2  0  0  0
 75 77  1  0  0  0
 75 82  1  0  0  0
 75 85  2  0  0  0
 76146  1  0  0  0
 76147  1  0  0  0
 76148  1  0  0  0
 77 78  1  0  0  0
 77149  1  0  0  0
 77150  1  0  0  0
 78151  1  0  0  0
 78152  1  0  0  0
 79 83  1  0  0  0
 79153  1  0  0  0
 81154  1  0  0  0
 81155  1  0  0  0
 82156  1  0  0  0
 83157  1  0  0  0
M  ISO  4   1 100  68 101  78 101  83 100
M  END
> <chiral flag>
0

> <version>
0

> <s_m_source_file>
/data/baiqing/PycharmProjects/Reinvent-master-3.2/result/LINK_invent/BTK/process_docking_weight1_custom_product_contain_oxygen_bond_distance_aromatic_linkinvent_7_9_3/rearranged_h_0181.sdf

> <i_m_source_file_index>
83

> <r_mmod_Potential_Energy-OPLS-2005>
-195.157913208008

> <r_mmod_Stretch_Energy-OPLS-2005>
74.5807952880859

> <r_mmod_Bend_Energy-OPLS-2005>
126.484352111816

> <r_mmod_Torsional_Energy-OPLS-2005>
206.760925292969

> <r_mmod_Improper_Torsional_Energy-OPLS-2005>
5.26516246795654

> <r_mmod_Van_der_Waal_Energy-OPLS-2005>
122.467376708984

> <r_mmod_Electrostatic_Energy-OPLS-2005>
-532.466613769531

> <r_mmod_Solvation_Energy-OPLS-2005>
-236.247787475586

> <b_mmod_Minimization_Converged-OPLS-2005>
0

> <r_mmod_RMS_Derivative-OPLS-2005>
10.0799427032471

$$$$
84
                    3D
 Structure written by MMmdl.
159167  0  0  1  0            999 V2000
  -30.6717  -14.5315   20.5483 C   0  0  0  0  0  0
  -30.4123  -12.3351   19.4337 C   0  0  0  0  0  0
  -29.4869  -12.5097   18.2111 C   0  0  0  0  0  0
  -28.0083  -12.3675   18.6209 C   0  0  0  0  0  0
  -27.6494  -13.2161   19.8701 C   0  0  2  0  0  0
  -28.6899  -13.0254   20.9955 C   0  0  0  0  0  0
  -25.2521  -13.8202   20.5712 C   0  0  0  0  0  0
  -24.1791  -13.0462   20.9227 C   0  0  0  0  0  0
  -24.6358  -11.6939   20.8783 C   0  0  0  0  0  0
  -23.9025  -10.4318   21.0449 C   0  0  0  0  0  0
  -24.3589   -9.4221   21.9210 C   0  0  0  0  0  0
  -23.6297   -8.2238   22.0763 C   0  0  0  0  0  0
  -22.4280   -8.0266   21.3542 C   0  0  0  0  0  0
  -21.9907   -9.0234   20.4633 C   0  0  0  0  0  0
  -22.7213  -10.2136   20.3078 C   0  0  0  0  0  0
  -21.6846   -6.0736   22.5289 C   0  0  0  0  0  0
  -21.4010   -6.5651   23.8207 C   0  0  0  0  0  0
  -21.3680   -5.6799   24.9178 C   0  0  0  0  0  0
  -21.6034   -4.3061   24.7222 C   0  0  0  0  0  0
  -21.8825   -3.8147   23.4347 C   0  0  0  0  0  0
  -21.9203   -4.6964   22.3407 C   0  0  0  0  0  0
  -22.7811  -13.5251   21.1874 C   0  0  0  0  0  0
  -22.1671   -4.2151   21.0987 F   0  0  0  0  0  0
  -21.5619   -3.4551   25.7725 F   0  0  0  0  0  0
  -30.0127  -13.3412   20.4337 N   0  0  0  0  0  0
  -26.2937  -12.9374   20.3349 N   0  0  0  0  0  0
  -25.9274  -11.6524   20.5780 N   0  0  0  0  0  0
  -22.0473  -12.8210   22.0436 N   0  0  0  0  0  0
  -25.4267  -15.1908   20.4123 N   0  0  0  0  0  0
  -31.8187  -14.6794   20.1126 O   0  0  0  0  0  0
  -21.6640   -6.8874   21.4249 O   0  0  0  0  0  0
  -22.3464  -14.5538   20.6714 O   0  0  0  0  0  0
  -24.6206  -31.8608   23.2069 C   0  0  0  0  0  0
  -25.9082  -32.4780   23.8346 C   0  0  1  0  0  0
  -27.2213  -27.3599   20.0835 C   0  0  0  0  0  0
  -25.5931  -33.8587   24.2274 N   0  0  0  0  0  0
  -23.4086  -30.4818   21.5551 C   0  0  2  0  0  0
  -24.8482  -28.9370   20.1133 C   0  0  0  0  0  0
  -22.7429  -29.4610   22.5061 C   0  0  0  0  0  0
  -18.0273  -28.1359   22.8508 C   0  0  0  0  0  0
  -24.1506  -36.7297   23.2644 C   0  0  0  0  0  0
  -25.9453  -30.7942   21.3748 C   0  0  0  0  0  0
  -26.0148  -29.4276   20.7120 C   0  0  0  0  0  0
  -27.1998  -28.6464   20.6920 C   0  0  0  0  0  0
  -26.0259  -26.8959   19.4853 C   0  0  0  0  0  0
  -24.8525  -27.6750   19.4966 C   0  0  0  0  0  0
  -23.6097  -29.8057   20.1728 C   0  0  0  0  0  0
  -25.4140  -36.3103   24.0330 C   0  0  1  0  0  0
  -20.5860  -28.3644   23.1347 C   0  0  2  0  0  0
  -20.6769  -26.9393   22.5423 C   0  0  0  0  0  0
  -19.5743  -26.6370   21.5230 C   0  0  0  0  0  0
  -18.1922  -26.7905   22.1638 C   0  0  0  0  0  0
  -19.1521  -28.8831   23.2902 C   0  0  0  0  0  0
  -18.9439  -30.1452   23.8875 C   0  0  0  0  0  0
  -17.6434  -30.6578   24.0549 C   0  0  0  0  0  0
  -25.9067  -34.9463   23.5108 C   0  0  0  0  0  0
  -16.5330  -29.9047   23.6354 C   0  0  0  0  0  0
  -16.7260  -28.6466   23.0383 C   0  0  0  0  0  0
  -26.4452  -31.6595   25.0722 C   0  0  0  0  0  0
  -25.3652  -31.3746   26.1419 C   0  0  0  0  0  0
  -27.0298  -30.3023   24.6196 C   0  0  0  0  0  0
  -27.6012  -32.4328   25.7490 C   0  0  0  0  0  0
  -27.5600  -37.1812   24.8452 C   0  0  0  0  0  0
  -21.4158  -29.2994   22.3765 N   0  0  0  0  0  0
  -26.4311  -37.3794   23.9406 N   0  0  0  0  0  0
  -24.6773  -31.0618   22.1016 N   0  0  0  0  0  0
  -23.4176  -28.8165   23.3133 O   0  0  0  0  0  0
  -28.3925  -26.6055   20.1020 O   0  0  0  0  0  0
  -26.5633  -34.8918   22.4675 O   0  0  0  0  0  0
  -23.5396  -32.1421   23.7436 O   0  0  0  0  0  0
  -31.4725  -17.2024   22.0943 C   0  0  0  0  0  0
  -30.3990  -16.9266   21.2653 C   0  0  0  0  0  0
  -30.3556  -19.2365   21.1764 C   0  0  0  0  0  0
  -29.2495  -22.9442   20.5243 C   0  0  0  0  0  0
  -32.4794  -16.6467   24.3716 C   0  0  0  0  0  0
  -28.6457  -21.0560   18.9091 C   0  0  0  0  0  0
  -32.3350  -16.2634   22.8924 C   0  0  0  0  0  0
  -28.1375  -24.0298   20.3859 C   0  0  0  0  0  0
  -28.4756  -25.2804   19.4895 C   0  0  0  0  0  0
  -28.9082  -21.4094   20.3811 C   0  0  1  0  0  0
  -29.7299  -18.0970   20.8060 N   0  0  0  0  0  0
  -29.9454  -15.5829   21.0127 N   0  0  0  0  0  0
  -29.9989  -20.5765   20.9198 N   0  0  0  0  0  0
  -30.4029  -23.2987   20.7879 O   0  0  0  0  0  0
  -31.7935  -18.9234   22.1416 S   0  0  0  0  0  0
  -31.4548  -12.4378   19.1274 H   0  0  0  0  0  0
  -30.3153  -11.3311   19.8516 H   0  0  0  0  0  0
  -29.7339  -11.7835   17.4350 H   0  0  0  0  0  0
  -29.6465  -13.4951   17.7723 H   0  0  0  0  0  0
  -27.8198  -11.3125   18.8255 H   0  0  0  0  0  0
  -27.3593  -12.6333   17.7884 H   0  0  0  0  0  0
  -27.6827  -14.2589   19.5573 H   0  0  0  0  0  0
  -28.6770  -11.9972   21.3583 H   0  0  0  0  0  0
  -28.4444  -13.6424   21.8611 H   0  0  0  0  0  0
  -25.2750   -9.5668   22.4769 H   0  0  0  0  0  0
  -24.0012   -7.4616   22.7458 H   0  0  0  0  0  0
  -21.0863   -8.8746   19.8918 H   0  0  0  0  0  0
  -22.3697  -10.9677   19.6176 H   0  0  0  0  0  0
  -21.2019   -7.6153   23.9701 H   0  0  0  0  0  0
  -21.1490   -6.0545   25.9074 H   0  0  0  0  0  0
  -22.0597   -2.7610   23.2841 H   0  0  0  0  0  0
  -22.4107  -11.9878   22.4820 H   0  0  0  0  0  0
  -21.1066  -13.1168   22.2646 H   0  0  0  0  0  0
  -24.6578  -15.8485   20.4860 H   0  0  0  0  0  0
  -26.2741  -15.6205   20.0629 H   0  0  0  0  0  0
  -26.7136  -32.5431   23.1072 H   0  0  0  0  0  0
  -25.0058  -33.9717   25.0402 H   0  0  0  0  0  0
  -22.7012  -31.3034   21.4184 H   0  0  0  0  0  0
  -23.3775  -35.9611   23.3293 H   0  0  0  0  0  0
  -24.3583  -36.8933   22.2053 H   0  0  0  0  0  0
  -23.7228  -37.6493   23.6652 H   0  0  0  0  0  0
  -26.0840  -31.5642   20.6161 H   0  0  0  0  0  0
  -26.8221  -30.8284   22.0091 H   0  0  0  0  0  0
  -28.0998  -29.0183   21.1609 H   0  0  0  0  0  0
  -25.9635  -25.9260   19.0137 H   0  0  0  0  0  0
  -23.9527  -27.2919   19.0343 H   0  0  0  0  0  0
  -23.6960  -30.5714   19.4023 H   0  0  0  0  0  0
  -22.7330  -29.2142   19.9014 H   0  0  0  0  0  0
  -25.1323  -36.1963   25.0815 H   0  0  0  0  0  0
  -20.9928  -28.3185   24.1478 H   0  0  0  0  0  0
  -20.5738  -26.2232   23.3596 H   0  0  0  0  0  0
  -21.6627  -26.7467   22.1181 H   0  0  0  0  0  0
  -19.6904  -25.6284   21.1251 H   0  0  0  0  0  0
  -19.6682  -27.3193   20.6776 H   0  0  0  0  0  0
  -17.4211  -26.6712   21.4010 H   0  0  0  0  0  0
  -18.0281  -26.0006   22.8993 H   0  0  0  0  0  0
  -19.7916  -30.7289   24.2219 H   0  0  0  0  0  0
  -17.4987  -31.6271   24.5131 H   0  0  0  0  0  0
  -15.5328  -30.2934   23.7694 H   0  0  0  0  0  0
  -15.8668  -28.0774   22.7104 H   0  0  0  0  0  0
  -24.5777  -30.7183   25.7697 H   0  0  0  0  0  0
  -24.8878  -32.2919   26.4878 H   0  0  0  0  0  0
  -25.7894  -30.8837   27.0183 H   0  0  0  0  0  0
  -26.2896  -29.6806   24.1147 H   0  0  0  0  0  0
  -27.3912  -29.7265   25.4727 H   0  0  0  0  0  0
  -27.8794  -30.4333   23.9489 H   0  0  0  0  0  0
  -27.2609  -33.3595   26.2130 H   0  0  0  0  0  0
  -28.3758  -32.6965   25.0273 H   0  0  0  0  0  0
  -28.0737  -31.8417   26.5343 H   0  0  0  0  0  0
  -28.2612  -38.0132   24.7556 H   0  0  0  0  0  0
  -28.1122  -36.2659   24.6225 H   0  0  0  0  0  0
  -27.2305  -37.1396   25.8855 H   0  0  0  0  0  0
  -20.9381  -29.8642   21.6888 H   0  0  0  0  0  0
  -26.0207  -38.2881   24.1387 H   0  0  0  0  0  0
  -33.0373  -15.8823   24.9139 H   0  0  0  0  0  0
  -31.5080  -16.7495   24.8520 H   0  0  0  0  0  0
  -33.0153  -17.5877   24.4936 H   0  0  0  0  0  0
  -27.8255  -21.6461   18.4972 H   0  0  0  0  0  0
  -28.3742  -20.0036   18.7938 H   0  0  0  0  0  0
  -29.5250  -21.2388   18.2909 H   0  0  0  0  0  0
  -33.3205  -16.1901   22.4324 H   0  0  0  0  0  0
  -31.9237  -15.2565   22.8672 H   0  0  0  0  0  0
  -27.8970  -24.3767   21.3905 H   0  0  0  0  0  0
  -27.2320  -23.5463   20.0218 H   0  0  0  0  0  0
  -27.9069  -25.2290   18.5606 H   0  0  0  0  0  0
  -29.5060  -25.1895   19.1477 H   0  0  0  0  0  0
  -28.0088  -21.1962   20.9611 H   0  0  0  0  0  0
  -28.9660  -15.4025   21.1646 H   0  0  0  0  0  0
  -30.7125  -21.2142   21.2679 H   0  0  0  0  0  0
  1 25  1  0  0  0
  1 30  2  0  0  0
  1 82  1  0  0  0
  2  3  1  0  0  0
  2 25  1  0  0  0
  2 86  1  0  0  0
  2 87  1  0  0  0
  3  4  1  0  0  0
  3 88  1  0  0  0
  3 89  1  0  0  0
  4  5  1  0  0  0
  4 90  1  0  0  0
  4 91  1  0  0  0
  5  6  1  0  0  0
  5 26  1  0  0  0
  5 92  1  0  0  0
  6 25  1  0  0  0
  6 93  1  0  0  0
  6 94  1  0  0  0
  7  8  2  0  0  0
  7 26  1  0  0  0
  7 29  1  0  0  0
  8  9  1  0  0  0
  8 22  1  0  0  0
  9 10  1  0  0  0
  9 27  2  0  0  0
 10 11  2  0  0  0
 10 15  1  0  0  0
 11 12  1  0  0  0
 11 95  1  0  0  0
 12 13  2  0  0  0
 12 96  1  0  0  0
 13 14  1  0  0  0
 13 31  1  0  0  0
 14 15  2  0  0  0
 14 97  1  0  0  0
 15 98  1  0  0  0
 16 17  2  0  0  0
 16 21  1  0  0  0
 16 31  1  0  0  0
 17 18  1  0  0  0
 17 99  1  0  0  0
 18 19  2  0  0  0
 18100  1  0  0  0
 19 20  1  0  0  0
 19 24  1  0  0  0
 20 21  2  0  0  0
 20101  1  0  0  0
 21 23  1  0  0  0
 22 28  1  0  0  0
 22 32  2  0  0  0
 26 27  1  0  0  0
 28102  1  0  0  0
 28103  1  0  0  0
 29104  1  0  0  0
 29105  1  0  0  0
 33 34  1  0  0  0
 33 66  1  0  0  0
 33 70  2  0  0  0
 34 36  1  0  0  0
 34 59  1  0  0  0
 34106  1  0  0  0
 35 44  2  0  0  0
 35 45  1  0  0  0
 35 68  1  0  0  0
 36 56  1  0  0  0
 36107  1  0  0  0
 37 39  1  0  0  0
 37 47  1  0  0  0
 37 66  1  0  0  0
 37108  1  0  0  0
 38 43  2  0  0  0
 38 46  1  0  0  0
 38 47  1  0  0  0
 39 64  1  0  0  0
 39 67  2  0  0  0
 40 52  1  0  0  0
 40 53  2  0  0  0
 40 58  1  0  0  0
 41109  1  0  0  0
 41110  1  0  0  0
 41111  1  0  0  0
 41 48  1  0  0  0
 42 43  1  0  0  0
 42 66  1  0  0  0
 42112  1  0  0  0
 42113  1  0  0  0
 43 44  1  0  0  0
 44114  1  0  0  0
 45 46  2  0  0  0
 45115  1  0  0  0
 46116  1  0  0  0
 47117  1  0  0  0
 47118  1  0  0  0
 48 56  1  0  0  0
 48 65  1  0  0  0
 48119  1  0  0  0
 49 50  1  0  0  0
 49 53  1  0  0  0
 49 64  1  0  0  0
 49120  1  0  0  0
 50 51  1  0  0  0
 50121  1  0  0  0
 50122  1  0  0  0
 51 52  1  0  0  0
 51123  1  0  0  0
 51124  1  0  0  0
 52125  1  0  0  0
 52126  1  0  0  0
 53 54  1  0  0  0
 54 55  2  0  0  0
 54127  1  0  0  0
 55 57  1  0  0  0
 55128  1  0  0  0
 56 69  2  0  0  0
 57 58  2  0  0  0
 57129  1  0  0  0
 58130  1  0  0  0
 59 60  1  0  0  0
 59 61  1  0  0  0
 59 62  1  0  0  0
 60131  1  0  0  0
 60132  1  0  0  0
 60133  1  0  0  0
 61134  1  0  0  0
 61135  1  0  0  0
 61136  1  0  0  0
 62137  1  0  0  0
 62138  1  0  0  0
 62139  1  0  0  0
 63 65  1  0  0  0
 63140  1  0  0  0
 63141  1  0  0  0
 63142  1  0  0  0
 64143  1  0  0  0
 65144  1  0  0  0
 68 79  1  0  0  0
 71 72  2  0  0  0
 71 77  1  0  0  0
 71 85  1  0  0  0
 72 81  1  0  0  0
 72 82  1  0  0  0
 73 81  2  0  0  0
 73 83  1  0  0  0
 73 85  1  0  0  0
 74 78  1  0  0  0
 74 80  1  0  0  0
 74 84  2  0  0  0
 75 77  1  0  0  0
 75145  1  0  0  0
 75146  1  0  0  0
 75147  1  0  0  0
 76148  1  0  0  0
 76149  1  0  0  0
 76150  1  0  0  0
 76 80  1  0  0  0
 77151  1  0  0  0
 77152  1  0  0  0
 78 79  1  0  0  0
 78153  1  0  0  0
 78154  1  0  0  0
 79155  1  0  0  0
 79156  1  0  0  0
 80 83  1  0  0  0
 80157  1  0  0  0
 82158  1  0  0  0
 83159  1  0  0  0
M  ISO  4   1 100  68 101  79 101  82 100
M  END
> <chiral flag>
0

> <version>
0

> <s_m_source_file>
/data/baiqing/PycharmProjects/Reinvent-master-3.2/result/LINK_invent/BTK/process_docking_weight1_custom_product_contain_oxygen_bond_distance_aromatic_linkinvent_7_9_3/rearranged_h_0181.sdf

> <i_m_source_file_index>
84

> <r_mmod_Potential_Energy-OPLS-2005>
-126.671028137207

> <r_mmod_Stretch_Energy-OPLS-2005>
53.044792175293

> <r_mmod_Bend_Energy-OPLS-2005>
129.181106567383

> <r_mmod_Torsional_Energy-OPLS-2005>
203.889343261719

> <r_mmod_Improper_Torsional_Energy-OPLS-2005>
4.27478265762329

> <r_mmod_Van_der_Waal_Energy-OPLS-2005>
125.640975952148

> <r_mmod_Electrostatic_Energy-OPLS-2005>
-444.912017822266

> <r_mmod_Solvation_Energy-OPLS-2005>
-222.153457641602

> <b_mmod_Minimization_Converged-OPLS-2005>
0

> <r_mmod_RMS_Derivative-OPLS-2005>
4.49158430099487

$$$$
85
                    3D
 Structure written by MMmdl.
152160  0  0  1  0            999 V2000
  -30.5568  -14.8283   20.4772 C   0  0  0  0  0  0
  -30.4339  -12.5231   19.4738 C   0  0  0  0  0  0
  -29.4993  -12.5392   18.2420 C   0  0  0  0  0  0
  -28.0253  -12.3467   18.6479 C   0  0  0  0  0  0
  -27.6286  -13.2421   19.8474 C   0  0  2  0  0  0
  -28.6749  -13.1875   20.9810 C   0  0  0  0  0  0
  -25.2445  -13.8233   20.5839 C   0  0  0  0  0  0
  -24.1741  -13.0460   20.9336 C   0  0  0  0  0  0
  -24.6305  -11.6941   20.8788 C   0  0  0  0  0  0
  -23.8992  -10.4305   21.0378 C   0  0  0  0  0  0
  -24.3557   -9.4257   21.9153 C   0  0  0  0  0  0
  -23.6276   -8.2256   22.0701 C   0  0  0  0  0  0
  -22.4265   -8.0243   21.3492 C   0  0  0  0  0  0
  -21.9874   -9.0224   20.4599 C   0  0  0  0  0  0
  -22.7168  -10.2136   20.3029 C   0  0  0  0  0  0
  -21.6857   -6.0699   22.5257 C   0  0  0  0  0  0
  -21.4008   -6.5607   23.8189 C   0  0  0  0  0  0
  -21.3676   -5.6767   24.9166 C   0  0  0  0  0  0
  -21.6055   -4.3031   24.7213 C   0  0  0  0  0  0
  -21.8830   -3.8121   23.4337 C   0  0  0  0  0  0
  -21.9185   -4.6922   22.3396 C   0  0  0  0  0  0
  -22.7751  -13.5221   21.1952 C   0  0  0  0  0  0
  -22.1667   -4.2121   21.0975 F   0  0  0  0  0  0
  -21.5622   -3.4519   25.7737 F   0  0  0  0  0  0
  -29.9643  -13.5807   20.4002 N   0  0  0  0  0  0
  -26.2833  -12.9437   20.3285 N   0  0  0  0  0  0
  -25.9233  -11.6598   20.5741 N   0  0  0  0  0  0
  -22.0370  -12.8208   22.0475 N   0  0  0  0  0  0
  -25.4229  -15.1944   20.4308 N   0  0  0  0  0  0
  -31.7511  -14.9383   20.1788 O   0  0  0  0  0  0
  -21.6635   -6.8842   21.4218 O   0  0  0  0  0  0
  -22.3461  -14.5545   20.6787 O   0  0  0  0  0  0
  -24.6220  -31.8610   23.1925 C   0  0  0  0  0  0
  -25.9043  -32.4806   23.8279 C   0  0  1  0  0  0
  -27.2135  -27.2561   20.1635 C   0  0  0  0  0  0
  -25.5819  -33.8579   24.2194 N   0  0  0  0  0  0
  -23.4213  -30.4768   21.5408 C   0  0  2  0  0  0
  -24.8675  -28.9139   20.1250 C   0  0  0  0  0  0
  -22.7483  -29.4622   22.4961 C   0  0  0  0  0  0
  -18.0286  -28.1416   22.8534 C   0  0  0  0  0  0
  -24.1481  -36.7332   23.2652 C   0  0  0  0  0  0
  -25.9640  -30.7760   21.3655 C   0  0  0  0  0  0
  -26.0391  -29.3894   20.7264 C   0  0  0  0  0  0
  -27.2193  -28.5747   20.7286 C   0  0  0  0  0  0
  -26.0226  -26.8424   19.5341 C   0  0  0  0  0  0
  -24.8647  -27.6479   19.5137 C   0  0  0  0  0  0
  -23.6380  -29.8015   20.1623 C   0  0  0  0  0  0
  -25.4113  -36.3090   24.0336 C   0  0  1  0  0  0
  -20.5901  -28.3686   23.1327 C   0  0  2  0  0  0
  -20.6771  -26.9410   22.5444 C   0  0  0  0  0  0
  -19.5743  -26.6394   21.5263 C   0  0  0  0  0  0
  -18.1925  -26.7955   22.1677 C   0  0  0  0  0  0
  -19.1543  -28.8881   23.2911 C   0  0  0  0  0  0
  -18.9465  -30.1500   23.8888 C   0  0  0  0  0  0
  -17.6461  -30.6599   24.0601 C   0  0  0  0  0  0
  -25.9053  -34.9463   23.5091 C   0  0  0  0  0  0
  -16.5357  -29.9106   23.6362 C   0  0  0  0  0  0
  -16.7272  -28.6546   23.0344 C   0  0  0  0  0  0
  -26.4372  -31.6579   25.0632 C   0  0  0  0  0  0
  -25.3549  -31.3700   26.1311 C   0  0  0  0  0  0
  -27.0166  -30.2996   24.6059 C   0  0  0  0  0  0
  -27.5927  -32.4270   25.7417 C   0  0  0  0  0  0
  -27.5593  -37.1819   24.8463 C   0  0  0  0  0  0
  -21.4195  -29.3018   22.3694 N   0  0  0  0  0  0
  -26.4302  -37.3789   23.9416 N   0  0  0  0  0  0
  -24.6894  -31.0567   22.0918 N   0  0  0  0  0  0
  -23.4193  -28.8223   23.3099 O   0  0  0  0  0  0
  -28.3206  -26.3815   20.0937 O   0  0  0  0  0  0
  -26.5701  -34.8950   22.4704 O   0  0  0  0  0  0
  -23.5358  -32.1431   23.7205 O   0  0  0  0  0  0
  -31.1578  -18.0448   20.8209 C   0  0  0  0  0  0
  -29.9348  -17.4240   20.7052 C   0  0  0  0  0  0
  -29.2867  -19.7808   20.7127 C   0  0  0  0  0  0
  -28.2135  -23.6861   20.3405 C   0  0  0  0  0  0
  -27.1123  -20.8725   21.5253 C   0  0  0  0  0  0
  -29.8577  -25.3009   21.5537 C   0  0  0  0  0  0
  -28.3214  -21.0637   20.6205 C   0  0  1  0  0  0
  -28.4450  -25.1620   20.9708 C   0  0  1  0  0  0
  -28.9025  -18.4468   20.6559 N   0  0  0  0  0  0
  -29.7242  -15.9388   20.6800 N   0  0  0  0  0  0
  -28.8060  -22.5175   20.8319 N   0  0  0  0  0  0
  -27.4032  -23.5998   19.4183 O   0  0  0  0  0  0
  -26.1467  -20.2141   21.1495 O   0  0  0  0  0  0
  -27.0754  -21.5040   22.7134 F   0  0  0  0  0  0
  -31.0502  -19.8216   20.8524 S   0  0  0  0  0  0
  -31.4636  -12.6765   19.1549 H   0  0  0  0  0  0
  -30.4115  -11.5564   19.9768 H   0  0  0  0  0  0
  -29.7993  -11.7664   17.5374 H   0  0  0  0  0  0
  -29.5994  -13.4941   17.7233 H   0  0  0  0  0  0
  -27.8678  -11.2988   18.9024 H   0  0  0  0  0  0
  -27.3699  -12.5540   17.7994 H   0  0  0  0  0  0
  -27.6102  -14.2621   19.4640 H   0  0  0  0  0  0
  -28.7360  -12.1849   21.4072 H   0  0  0  0  0  0
  -28.3925  -13.8549   21.7963 H   0  0  0  0  0  0
  -25.2633   -9.5774   22.4814 H   0  0  0  0  0  0
  -23.9985   -7.4643   22.7441 H   0  0  0  0  0  0
  -21.0779   -8.8697   19.8932 H   0  0  0  0  0  0
  -22.3512  -10.9673   19.6197 H   0  0  0  0  0  0
  -21.2007   -7.6108   23.9697 H   0  0  0  0  0  0
  -21.1496   -6.0490   25.9074 H   0  0  0  0  0  0
  -22.0602   -2.7578   23.2853 H   0  0  0  0  0  0
  -22.3930  -11.9853   22.4885 H   0  0  0  0  0  0
  -21.0953  -13.1229   22.2616 H   0  0  0  0  0  0
  -24.7047  -15.8795   20.6448 H   0  0  0  0  0  0
  -26.2236  -15.6037   19.9674 H   0  0  0  0  0  0
  -26.7117  -32.5484   23.1027 H   0  0  0  0  0  0
  -24.9685  -33.9693   25.0145 H   0  0  0  0  0  0
  -22.7160  -31.2981   21.3970 H   0  0  0  0  0  0
  -23.3732  -35.9673   23.3275 H   0  0  0  0  0  0
  -24.3573  -36.8984   22.2072 H   0  0  0  0  0  0
  -23.7227  -37.6534   23.6693 H   0  0  0  0  0  0
  -26.0821  -31.5264   20.5821 H   0  0  0  0  0  0
  -26.8512  -30.8454   21.9819 H   0  0  0  0  0  0
  -28.1274  -28.9549   21.1789 H   0  0  0  0  0  0
  -25.9878  -25.8737   19.0570 H   0  0  0  0  0  0
  -23.9721  -27.2838   19.0223 H   0  0  0  0  0  0
  -23.7477  -30.5721   19.3997 H   0  0  0  0  0  0
  -22.7576  -29.2274   19.8703 H   0  0  0  0  0  0
  -25.1281  -36.1948   25.0838 H   0  0  0  0  0  0
  -21.0001  -28.3254   24.1451 H   0  0  0  0  0  0
  -20.5722  -26.2282   23.3643 H   0  0  0  0  0  0
  -21.6635  -26.7449   22.1232 H   0  0  0  0  0  0
  -19.6863  -25.6305   21.1293 H   0  0  0  0  0  0
  -19.6673  -27.3231   20.6831 H   0  0  0  0  0  0
  -17.4201  -26.6744   21.4066 H   0  0  0  0  0  0
  -18.0282  -26.0099   22.9081 H   0  0  0  0  0  0
  -19.7927  -30.7355   24.2205 H   0  0  0  0  0  0
  -17.4999  -31.6274   24.5205 H   0  0  0  0  0  0
  -15.5356  -30.2988   23.7674 H   0  0  0  0  0  0
  -15.8698  -28.0878   22.6983 H   0  0  0  0  0  0
  -24.5700  -30.7107   25.7553 H   0  0  0  0  0  0
  -24.8689  -32.2851   26.4716 H   0  0  0  0  0  0
  -25.7792  -30.8841   27.0110 H   0  0  0  0  0  0
  -26.2661  -29.6742   24.1195 H   0  0  0  0  0  0
  -27.3846  -29.7203   25.4537 H   0  0  0  0  0  0
  -27.8552  -30.4255   23.9187 H   0  0  0  0  0  0
  -27.2539  -33.3547   26.2040 H   0  0  0  0  0  0
  -28.3713  -32.6835   25.0226 H   0  0  0  0  0  0
  -28.0588  -31.8347   26.5288 H   0  0  0  0  0  0
  -28.2594  -38.0131   24.7526 H   0  0  0  0  0  0
  -28.1100  -36.2663   24.6248 H   0  0  0  0  0  0
  -27.2332  -37.1433   25.8873 H   0  0  0  0  0  0
  -20.9364  -29.8638   21.6840 H   0  0  0  0  0  0
  -26.0167  -38.2869   24.1413 H   0  0  0  0  0  0
  -32.1337  -17.5773   20.8960 H   0  0  0  0  0  0
  -30.0117  -26.3143   21.9301 H   0  0  0  0  0  0
  -30.6140  -25.1164   20.7888 H   0  0  0  0  0  0
  -30.0310  -24.6176   22.3851 H   0  0  0  0  0  0
  -27.9366  -21.0411   19.6001 H   0  0  0  0  0  0
  -27.7359  -25.2632   21.7941 H   0  0  0  0  0  0
  -28.7638  -15.6644   20.8101 H   0  0  0  0  0  0
  -29.4514  -22.6499   21.5975 H   0  0  0  0  0  0
  1 25  1  0  0  0
  1 30  2  0  0  0
  1 80  1  0  0  0
  2  3  1  0  0  0
  2 25  1  0  0  0
  2 86  1  0  0  0
  2 87  1  0  0  0
  3  4  1  0  0  0
  3 88  1  0  0  0
  3 89  1  0  0  0
  4  5  1  0  0  0
  4 90  1  0  0  0
  4 91  1  0  0  0
  5  6  1  0  0  0
  5 26  1  0  0  0
  5 92  1  0  0  0
  6 25  1  0  0  0
  6 93  1  0  0  0
  6 94  1  0  0  0
  7  8  2  0  0  0
  7 26  1  0  0  0
  7 29  1  0  0  0
  8  9  1  0  0  0
  8 22  1  0  0  0
  9 10  1  0  0  0
  9 27  2  0  0  0
 10 11  2  0  0  0
 10 15  1  0  0  0
 11 12  1  0  0  0
 11 95  1  0  0  0
 12 13  2  0  0  0
 12 96  1  0  0  0
 13 14  1  0  0  0
 13 31  1  0  0  0
 14 15  2  0  0  0
 14 97  1  0  0  0
 15 98  1  0  0  0
 16 17  2  0  0  0
 16 21  1  0  0  0
 16 31  1  0  0  0
 17 18  1  0  0  0
 17 99  1  0  0  0
 18 19  2  0  0  0
 18100  1  0  0  0
 19 20  1  0  0  0
 19 24  1  0  0  0
 20 21  2  0  0  0
 20101  1  0  0  0
 21 23  1  0  0  0
 22 28  1  0  0  0
 22 32  2  0  0  0
 26 27  1  0  0  0
 28102  1  0  0  0
 28103  1  0  0  0
 29104  1  0  0  0
 29105  1  0  0  0
 33 34  1  0  0  0
 33 66  1  0  0  0
 33 70  2  0  0  0
 34 36  1  0  0  0
 34 59  1  0  0  0
 34106  1  0  0  0
 35 44  2  0  0  0
 35 45  1  0  0  0
 35 68  1  0  0  0
 36 56  1  0  0  0
 36107  1  0  0  0
 37 39  1  0  0  0
 37 47  1  0  0  0
 37 66  1  0  0  0
 37108  1  0  0  0
 38 43  2  0  0  0
 38 46  1  0  0  0
 38 47  1  0  0  0
 39 64  1  0  0  0
 39 67  2  0  0  0
 40 52  1  0  0  0
 40 53  2  0  0  0
 40 58  1  0  0  0
 41109  1  0  0  0
 41110  1  0  0  0
 41111  1  0  0  0
 41 48  1  0  0  0
 42 43  1  0  0  0
 42 66  1  0  0  0
 42112  1  0  0  0
 42113  1  0  0  0
 43 44  1  0  0  0
 44114  1  0  0  0
 45 46  2  0  0  0
 45115  1  0  0  0
 46116  1  0  0  0
 47117  1  0  0  0
 47118  1  0  0  0
 48 56  1  0  0  0
 48 65  1  0  0  0
 48119  1  0  0  0
 49 50  1  0  0  0
 49 53  1  0  0  0
 49 64  1  0  0  0
 49120  1  0  0  0
 50 51  1  0  0  0
 50121  1  0  0  0
 50122  1  0  0  0
 51 52  1  0  0  0
 51123  1  0  0  0
 51124  1  0  0  0
 52125  1  0  0  0
 52126  1  0  0  0
 53 54  1  0  0  0
 54 55  2  0  0  0
 54127  1  0  0  0
 55 57  1  0  0  0
 55128  1  0  0  0
 56 69  2  0  0  0
 57 58  2  0  0  0
 57129  1  0  0  0
 58130  1  0  0  0
 59 60  1  0  0  0
 59 61  1  0  0  0
 59 62  1  0  0  0
 60131  1  0  0  0
 60132  1  0  0  0
 60133  1  0  0  0
 61134  1  0  0  0
 61135  1  0  0  0
 61136  1  0  0  0
 62137  1  0  0  0
 62138  1  0  0  0
 62139  1  0  0  0
 63 65  1  0  0  0
 63140  1  0  0  0
 63141  1  0  0  0
 63142  1  0  0  0
 64143  1  0  0  0
 65144  1  0  0  0
 68 78  1  0  0  0
 71 72  2  0  0  0
 71 85  1  0  0  0
 71145  1  0  0  0
 72 79  1  0  0  0
 72 80  1  0  0  0
 73 77  1  0  0  0
 73 79  2  0  0  0
 73 85  1  0  0  0
 74 78  1  0  0  0
 74 81  1  0  0  0
 74 82  2  0  0  0
 75 77  1  0  0  0
 75 83  2  0  0  0
 75 84  1  0  0  0
 76146  1  0  0  0
 76147  1  0  0  0
 76148  1  0  0  0
 76 78  1  0  0  0
 77 81  1  0  0  0
 77149  1  0  0  0
 78150  1  0  0  0
 80151  1  0  0  0
 81152  1  0  0  0
M  ISO  4   1 100  68 101  78 101  80 100
M  END
> <chiral flag>
0

> <version>
0

> <s_m_source_file>
/data/baiqing/PycharmProjects/Reinvent-master-3.2/result/LINK_invent/BTK/process_docking_weight1_custom_product_contain_oxygen_bond_distance_aromatic_linkinvent_7_9_3/rearranged_h_0181.sdf

> <i_m_source_file_index>
85

> <r_mmod_Potential_Energy-OPLS-2005>
113.027366638184

> <r_mmod_Stretch_Energy-OPLS-2005>
146.162475585938

> <r_mmod_Bend_Energy-OPLS-2005>
199.818298339844

> <r_mmod_Torsional_Energy-OPLS-2005>
246.20768737793

> <r_mmod_Improper_Torsional_Energy-OPLS-2005>
6.92018032073975

> <r_mmod_Van_der_Waal_Energy-OPLS-2005>
107.965026855469

> <r_mmod_Electrostatic_Energy-OPLS-2005>
-468.036071777344

> <r_mmod_Solvation_Energy-OPLS-2005>
-231.057907104492

> <b_mmod_Minimization_Converged-OPLS-2005>
0

> <r_mmod_RMS_Derivative-OPLS-2005>
5.96299600601196

$$$$
86
                    3D
 Structure written by MMmdl.
153161  0  0  1  0            999 V2000
  -30.6606  -14.5403   20.4748 C   0  0  0  0  0  0
  -30.4244  -12.3236   19.4423 C   0  0  0  0  0  0
  -29.4999  -12.4842   18.2161 C   0  0  0  0  0  0
  -28.0208  -12.3422   18.6270 C   0  0  0  0  0  0
  -27.6539  -13.2090   19.8616 C   0  0  2  0  0  0
  -28.6964  -13.0451   20.9910 C   0  0  0  0  0  0
  -25.2571  -13.8162   20.5671 C   0  0  0  0  0  0
  -24.1830  -13.0439   20.9180 C   0  0  0  0  0  0
  -24.6383  -11.6905   20.8736 C   0  0  0  0  0  0
  -23.9049  -10.4292   21.0408 C   0  0  0  0  0  0
  -24.3607   -9.4210   21.9185 C   0  0  0  0  0  0
  -23.6287   -8.2244   22.0754 C   0  0  0  0  0  0
  -22.4270   -8.0280   21.3543 C   0  0  0  0  0  0
  -21.9899   -9.0253   20.4647 C   0  0  0  0  0  0
  -22.7222  -10.2135   20.3058 C   0  0  0  0  0  0
  -21.6853   -6.0734   22.5277 C   0  0  0  0  0  0
  -21.4014   -6.5639   23.8210 C   0  0  0  0  0  0
  -21.3656   -5.6791   24.9174 C   0  0  0  0  0  0
  -21.6044   -4.3054   24.7223 C   0  0  0  0  0  0
  -21.8820   -3.8145   23.4344 C   0  0  0  0  0  0
  -21.9192   -4.6961   22.3400 C   0  0  0  0  0  0
  -22.7856  -13.5242   21.1847 C   0  0  0  0  0  0
  -22.1663   -4.2148   21.0978 F   0  0  0  0  0  0
  -21.5626   -3.4535   25.7734 F   0  0  0  0  0  0
  -30.0220  -13.3390   20.4286 N   0  0  0  0  0  0
  -26.2987  -12.9327   20.3304 N   0  0  0  0  0  0
  -25.9306  -11.6490   20.5752 N   0  0  0  0  0  0
  -22.0495  -12.8240   22.0406 N   0  0  0  0  0  0
  -25.4305  -15.1881   20.4082 N   0  0  0  0  0  0
  -31.8529  -14.6644   20.1840 O   0  0  0  0  0  0
  -21.6638   -6.8876   21.4239 O   0  0  0  0  0  0
  -22.3545  -14.5550   20.6697 O   0  0  0  0  0  0
  -24.6184  -31.8655   23.2074 C   0  0  0  0  0  0
  -25.9064  -32.4807   23.8377 C   0  0  1  0  0  0
  -27.2293  -27.3929   20.0978 C   0  0  0  0  0  0
  -25.5911  -33.8607   24.2311 N   0  0  0  0  0  0
  -23.4067  -30.4902   21.5495 C   0  0  2  0  0  0
  -24.8493  -28.9498   20.1168 C   0  0  0  0  0  0
  -22.7425  -29.4655   22.4979 C   0  0  0  0  0  0
  -18.0276  -28.1377   22.8490 C   0  0  0  0  0  0
  -24.1490  -36.7312   23.2639 C   0  0  0  0  0  0
  -25.9397  -30.8192   21.3648 C   0  0  0  0  0  0
  -26.0133  -29.4506   20.7108 C   0  0  0  0  0  0
  -27.2034  -28.6816   20.6933 C   0  0  0  0  0  0
  -26.0354  -26.9112   19.5104 C   0  0  0  0  0  0
  -24.8575  -27.6815   19.5148 C   0  0  0  0  0  0
  -23.6153  -29.8233   20.1644 C   0  0  0  0  0  0
  -25.4112  -36.3104   24.0335 C   0  0  1  0  0  0
  -20.5868  -28.3670   23.1309 C   0  0  2  0  0  0
  -20.6768  -26.9404   22.5416 C   0  0  0  0  0  0
  -19.5746  -26.6384   21.5213 C   0  0  0  0  0  0
  -18.1924  -26.7924   22.1623 C   0  0  0  0  0  0
  -19.1526  -28.8840   23.2897 C   0  0  0  0  0  0
  -18.9453  -30.1445   23.8910 C   0  0  0  0  0  0
  -17.6456  -30.6582   24.0565 C   0  0  0  0  0  0
  -25.9041  -34.9468   23.5121 C   0  0  0  0  0  0
  -16.5347  -29.9085   23.6325 C   0  0  0  0  0  0
  -16.7265  -28.6502   23.0346 C   0  0  0  0  0  0
  -26.4478  -31.6595   25.0718 C   0  0  0  0  0  0
  -25.3738  -31.3709   26.1464 C   0  0  0  0  0  0
  -27.0309  -30.3032   24.6112 C   0  0  0  0  0  0
  -27.6054  -32.4314   25.7480 C   0  0  0  0  0  0
  -27.5581  -37.1813   24.8466 C   0  0  0  0  0  0
  -21.4150  -29.3037   22.3715 N   0  0  0  0  0  0
  -26.4298  -37.3789   23.9404 N   0  0  0  0  0  0
  -24.6737  -31.0732   22.0987 N   0  0  0  0  0  0
  -23.4185  -28.8196   23.3030 O   0  0  0  0  0  0
  -28.4155  -26.6699   20.1059 O   0  0  0  0  0  0
  -26.5604  -34.8925   22.4684 O   0  0  0  0  0  0
  -23.5371  -32.1422   23.7456 O   0  0  0  0  0  0
  -29.3762  -18.0772   20.5504 C   0  0  0  0  0  0
  -30.5646  -18.2391   18.0158 C   0  0  0  0  0  0
  -29.4109  -19.3357   19.8726 C   0  0  0  0  0  0
  -29.9507  -16.8981   19.9796 C   0  0  0  0  0  0
  -30.0169  -19.3935   18.5945 C   0  0  0  0  0  0
  -30.5149  -17.0024   18.6791 C   0  0  0  0  0  0
  -27.9501  -22.8154   20.5212 C   0  0  0  0  0  0
  -29.1274  -21.7927   20.3292 C   0  0  0  0  0  0
  -28.2625  -24.2842   20.9066 C   0  0  0  0  0  0
  -28.4604  -25.2707   19.7198 C   0  0  0  0  0  0
  -28.7331  -20.4952   20.3936 N   0  0  0  0  0  0
  -29.8629  -15.6236   20.6619 N   0  0  0  0  0  0
  -26.7723  -22.4603   20.3885 O   0  0  0  0  0  0
  -30.2988  -22.1577   20.1814 O   0  0  0  0  0  0
  -30.0148  -20.5391   17.8699 F   0  0  0  0  0  0
  -30.9577  -15.9130   18.0064 F   0  0  0  0  0  0
  -31.4694  -12.4240   19.1433 H   0  0  0  0  0  0
  -30.3295  -11.3245   19.8703 H   0  0  0  0  0  0
  -29.7486  -11.7407   17.4578 H   0  0  0  0  0  0
  -29.6614  -13.4591   17.7528 H   0  0  0  0  0  0
  -27.8432  -11.2894   18.8504 H   0  0  0  0  0  0
  -27.3701  -12.5866   17.7867 H   0  0  0  0  0  0
  -27.6789  -14.2458   19.5264 H   0  0  0  0  0  0
  -28.6799  -12.0275   21.3842 H   0  0  0  0  0  0
  -28.4646  -13.6962   21.8355 H   0  0  0  0  0  0
  -25.2755   -9.5686   22.4754 H   0  0  0  0  0  0
  -23.9997   -7.4635   22.7471 H   0  0  0  0  0  0
  -21.0830   -8.8770   19.8955 H   0  0  0  0  0  0
  -22.3681  -10.9674   19.6166 H   0  0  0  0  0  0
  -21.2014   -7.6148   23.9714 H   0  0  0  0  0  0
  -21.1475   -6.0523   25.9076 H   0  0  0  0  0  0
  -22.0603   -2.7607   23.2846 H   0  0  0  0  0  0
  -22.4103  -11.9901   22.4800 H   0  0  0  0  0  0
  -21.1118  -13.1279   22.2612 H   0  0  0  0  0  0
  -24.6636  -15.8433   20.5145 H   0  0  0  0  0  0
  -26.2780  -15.6243   20.0685 H   0  0  0  0  0  0
  -26.7132  -32.5500   23.1134 H   0  0  0  0  0  0
  -25.0064  -33.9761   25.0459 H   0  0  0  0  0  0
  -22.6971  -31.3085   21.4104 H   0  0  0  0  0  0
  -23.3744  -35.9653   23.3316 H   0  0  0  0  0  0
  -24.3581  -36.8912   22.2050 H   0  0  0  0  0  0
  -23.7252  -37.6525   23.6645 H   0  0  0  0  0  0
  -26.0581  -31.5843   20.5963 H   0  0  0  0  0  0
  -26.8258  -30.8703   21.9860 H   0  0  0  0  0  0
  -28.1040  -29.0699   21.1484 H   0  0  0  0  0  0
  -25.9736  -25.9421   19.0421 H   0  0  0  0  0  0
  -23.9600  -27.2875   19.0579 H   0  0  0  0  0  0
  -23.7291  -30.5984   19.4057 H   0  0  0  0  0  0
  -22.7366  -29.2484   19.8662 H   0  0  0  0  0  0
  -25.1290  -36.1970   25.0828 H   0  0  0  0  0  0
  -20.9961  -28.3239   24.1430 H   0  0  0  0  0  0
  -20.5671  -26.2280   23.3605 H   0  0  0  0  0  0
  -21.6640  -26.7443   22.1211 H   0  0  0  0  0  0
  -19.6909  -25.6298   21.1235 H   0  0  0  0  0  0
  -19.6684  -27.3202   20.6749 H   0  0  0  0  0  0
  -17.4195  -26.6671   21.4024 H   0  0  0  0  0  0
  -18.0323  -26.0061   22.9014 H   0  0  0  0  0  0
  -19.7931  -30.7255   24.2285 H   0  0  0  0  0  0
  -17.5012  -31.6264   24.5165 H   0  0  0  0  0  0
  -15.5348  -30.2992   23.7640 H   0  0  0  0  0  0
  -15.8666  -28.0826   22.7052 H   0  0  0  0  0  0
  -24.5909  -30.7058   25.7802 H   0  0  0  0  0  0
  -24.8934  -32.2869   26.4914 H   0  0  0  0  0  0
  -25.8089  -30.8875   27.0221 H   0  0  0  0  0  0
  -26.2857  -29.6791   24.1164 H   0  0  0  0  0  0
  -27.4069  -29.7270   25.4577 H   0  0  0  0  0  0
  -27.8698  -30.4342   23.9272 H   0  0  0  0  0  0
  -27.2672  -33.3602   26.2087 H   0  0  0  0  0  0
  -28.3846  -32.6893   25.0296 H   0  0  0  0  0  0
  -28.0741  -31.8420   26.5371 H   0  0  0  0  0  0
  -28.2614  -38.0095   24.7496 H   0  0  0  0  0  0
  -28.1061  -36.2627   24.6313 H   0  0  0  0  0  0
  -27.2297  -37.1491   25.8869 H   0  0  0  0  0  0
  -20.9312  -29.8765   21.6941 H   0  0  0  0  0  0
  -26.0187  -38.2871   24.1389 H   0  0  0  0  0  0
  -28.8930  -18.0151   21.5146 H   0  0  0  0  0  0
  -30.9877  -18.2932   17.0248 H   0  0  0  0  0  0
  -29.1381  -24.3021   21.5550 H   0  0  0  0  0  0
  -27.4279  -24.6314   21.5145 H   0  0  0  0  0  0
  -27.8097  -25.0346   18.8801 H   0  0  0  0  0  0
  -29.4624  -25.1032   19.3236 H   0  0  0  0  0  0
  -27.7760  -20.3673   20.6952 H   0  0  0  0  0  0
  -28.9837  -15.4333   21.1161 H   0  0  0  0  0  0
  1 25  1  0  0  0
  1 30  2  0  0  0
  1 82  1  0  0  0
  2  3  1  0  0  0
  2 25  1  0  0  0
  2 87  1  0  0  0
  2 88  1  0  0  0
  3  4  1  0  0  0
  3 89  1  0  0  0
  3 90  1  0  0  0
  4  5  1  0  0  0
  4 91  1  0  0  0
  4 92  1  0  0  0
  5  6  1  0  0  0
  5 26  1  0  0  0
  5 93  1  0  0  0
  6 25  1  0  0  0
  6 94  1  0  0  0
  6 95  1  0  0  0
  7  8  2  0  0  0
  7 26  1  0  0  0
  7 29  1  0  0  0
  8  9  1  0  0  0
  8 22  1  0  0  0
  9 10  1  0  0  0
  9 27  2  0  0  0
 10 11  2  0  0  0
 10 15  1  0  0  0
 11 12  1  0  0  0
 11 96  1  0  0  0
 12 13  2  0  0  0
 12 97  1  0  0  0
 13 14  1  0  0  0
 13 31  1  0  0  0
 14 15  2  0  0  0
 14 98  1  0  0  0
 15 99  1  0  0  0
 16 17  2  0  0  0
 16 21  1  0  0  0
 16 31  1  0  0  0
 17 18  1  0  0  0
 17100  1  0  0  0
 18 19  2  0  0  0
 18101  1  0  0  0
 19 20  1  0  0  0
 19 24  1  0  0  0
 20 21  2  0  0  0
 20102  1  0  0  0
 21 23  1  0  0  0
 22 28  1  0  0  0
 22 32  2  0  0  0
 26 27  1  0  0  0
 28103  1  0  0  0
 28104  1  0  0  0
 29105  1  0  0  0
 29106  1  0  0  0
 33 34  1  0  0  0
 33 66  1  0  0  0
 33 70  2  0  0  0
 34 36  1  0  0  0
 34 59  1  0  0  0
 34107  1  0  0  0
 35 44  2  0  0  0
 35 45  1  0  0  0
 35 68  1  0  0  0
 36 56  1  0  0  0
 36108  1  0  0  0
 37 39  1  0  0  0
 37 47  1  0  0  0
 37 66  1  0  0  0
 37109  1  0  0  0
 38 43  2  0  0  0
 38 46  1  0  0  0
 38 47  1  0  0  0
 39 64  1  0  0  0
 39 67  2  0  0  0
 40 52  1  0  0  0
 40 53  2  0  0  0
 40 58  1  0  0  0
 41110  1  0  0  0
 41111  1  0  0  0
 41112  1  0  0  0
 41 48  1  0  0  0
 42 43  1  0  0  0
 42 66  1  0  0  0
 42113  1  0  0  0
 42114  1  0  0  0
 43 44  1  0  0  0
 44115  1  0  0  0
 45 46  2  0  0  0
 45116  1  0  0  0
 46117  1  0  0  0
 47118  1  0  0  0
 47119  1  0  0  0
 48 56  1  0  0  0
 48 65  1  0  0  0
 48120  1  0  0  0
 49 50  1  0  0  0
 49 53  1  0  0  0
 49 64  1  0  0  0
 49121  1  0  0  0
 50 51  1  0  0  0
 50122  1  0  0  0
 50123  1  0  0  0
 51 52  1  0  0  0
 51124  1  0  0  0
 51125  1  0  0  0
 52126  1  0  0  0
 52127  1  0  0  0
 53 54  1  0  0  0
 54 55  2  0  0  0
 54128  1  0  0  0
 55 57  1  0  0  0
 55129  1  0  0  0
 56 69  2  0  0  0
 57 58  2  0  0  0
 57130  1  0  0  0
 58131  1  0  0  0
 59 60  1  0  0  0
 59 61  1  0  0  0
 59 62  1  0  0  0
 60132  1  0  0  0
 60133  1  0  0  0
 60134  1  0  0  0
 61135  1  0  0  0
 61136  1  0  0  0
 61137  1  0  0  0
 62138  1  0  0  0
 62139  1  0  0  0
 62140  1  0  0  0
 63 65  1  0  0  0
 63141  1  0  0  0
 63142  1  0  0  0
 63143  1  0  0  0
 64144  1  0  0  0
 65145  1  0  0  0
 68 80  1  0  0  0
 71 73  2  0  0  0
 71 74  1  0  0  0
 71146  1  0  0  0
 72 75  2  0  0  0
 72 76  1  0  0  0
 72147  1  0  0  0
 73 75  1  0  0  0
 73 81  1  0  0  0
 74 76  2  0  0  0
 74 82  1  0  0  0
 75 85  1  0  0  0
 76 86  1  0  0  0
 77 78  1  0  0  0
 77 79  1  0  0  0
 77 83  2  0  0  0
 78 81  1  0  0  0
 78 84  2  0  0  0
 79 80  1  0  0  0
 79148  1  0  0  0
 79149  1  0  0  0
 80150  1  0  0  0
 80151  1  0  0  0
 81152  1  0  0  0
 82153  1  0  0  0
M  ISO  4   1 100  68 101  80 101  82 100
M  END
> <chiral flag>
0

> <version>
0

> <s_m_source_file>
/data/baiqing/PycharmProjects/Reinvent-master-3.2/result/LINK_invent/BTK/process_docking_weight1_custom_product_contain_oxygen_bond_distance_aromatic_linkinvent_7_9_3/rearranged_h_0181.sdf

> <i_m_source_file_index>
86

> <r_mmod_Potential_Energy-OPLS-2005>
-77.7408981323242

> <r_mmod_Stretch_Energy-OPLS-2005>
50.2679824829102

> <r_mmod_Bend_Energy-OPLS-2005>
111.250816345215

> <r_mmod_Torsional_Energy-OPLS-2005>
263.570770263672

> <r_mmod_Improper_Torsional_Energy-OPLS-2005>
6.91260242462158

> <r_mmod_Van_der_Waal_Energy-OPLS-2005>
155.918548583984

> <r_mmod_Electrostatic_Energy-OPLS-2005>
-447.126342773438

> <r_mmod_Solvation_Energy-OPLS-2005>
-243.547943115234

> <b_mmod_Minimization_Converged-OPLS-2005>
0

> <r_mmod_RMS_Derivative-OPLS-2005>
0.439579457044601

$$$$
87
                    3D
 Structure written by MMmdl.
158166  0  0  1  0            999 V2000
  -30.7167  -14.5215   20.5446 C   0  0  0  0  0  0
  -30.4177  -12.3262   19.4422 C   0  0  0  0  0  0
  -29.5009  -12.5010   18.2141 C   0  0  0  0  0  0
  -28.0223  -12.3585   18.6250 C   0  0  0  0  0  0
  -27.6590  -13.2176   19.8664 C   0  0  2  0  0  0
  -28.7022  -13.0475   20.9951 C   0  0  0  0  0  0
  -25.2589  -13.8178   20.5690 C   0  0  0  0  0  0
  -24.1854  -13.0444   20.9185 C   0  0  0  0  0  0
  -24.6422  -11.6912   20.8736 C   0  0  0  0  0  0
  -23.9088  -10.4291   21.0407 C   0  0  0  0  0  0
  -24.3633   -9.4200   21.9185 C   0  0  0  0  0  0
  -23.6295   -8.2242   22.0760 C   0  0  0  0  0  0
  -22.4276   -8.0290   21.3548 C   0  0  0  0  0  0
  -21.9920   -9.0266   20.4643 C   0  0  0  0  0  0
  -22.7266  -10.2133   20.3047 C   0  0  0  0  0  0
  -21.6856   -6.0743   22.5275 C   0  0  0  0  0  0
  -21.4013   -6.5644   23.8212 C   0  0  0  0  0  0
  -21.3655   -5.6798   24.9175 C   0  0  0  0  0  0
  -21.6045   -4.3056   24.7222 C   0  0  0  0  0  0
  -21.8818   -3.8148   23.4343 C   0  0  0  0  0  0
  -21.9188   -4.6971   22.3400 C   0  0  0  0  0  0
  -22.7867  -13.5231   21.1837 C   0  0  0  0  0  0
  -22.1660   -4.2155   21.0977 F   0  0  0  0  0  0
  -21.5628   -3.4539   25.7735 F   0  0  0  0  0  0
  -30.0309  -13.3445   20.4365 N   0  0  0  0  0  0
  -26.3030  -12.9373   20.3336 N   0  0  0  0  0  0
  -25.9348  -11.6518   20.5752 N   0  0  0  0  0  0
  -22.0505  -12.8213   22.0394 N   0  0  0  0  0  0
  -25.4301  -15.1906   20.4132 N   0  0  0  0  0  0
  -31.8615  -14.6318   20.0973 O   0  0  0  0  0  0
  -21.6633   -6.8892   21.4245 O   0  0  0  0  0  0
  -22.3543  -14.5539   20.6700 O   0  0  0  0  0  0
  -24.6213  -31.8671   23.2115 C   0  0  0  0  0  0
  -25.9086  -32.4824   23.8411 C   0  0  1  0  0  0
  -27.2157  -27.3808   20.0971 C   0  0  0  0  0  0
  -25.5925  -33.8618   24.2335 N   0  0  0  0  0  0
  -23.4110  -30.4972   21.5527 C   0  0  2  0  0  0
  -24.8543  -28.9744   20.1062 C   0  0  0  0  0  0
  -22.7448  -29.4665   22.4953 C   0  0  0  0  0  0
  -18.0280  -28.1395   22.8481 C   0  0  0  0  0  0
  -24.1489  -36.7312   23.2637 C   0  0  0  0  0  0
  -25.9502  -30.8168   21.3748 C   0  0  0  0  0  0
  -26.0236  -29.4524   20.7129 C   0  0  0  0  0  0
  -27.2073  -28.6646   20.7070 C   0  0  0  0  0  0
  -26.0255  -26.9588   19.4494 C   0  0  0  0  0  0
  -24.8558  -27.7299   19.4665 C   0  0  0  0  0  0
  -23.6209  -29.8456   20.1633 C   0  0  0  0  0  0
  -25.4109  -36.3109   24.0336 C   0  0  1  0  0  0
  -20.5884  -28.3686   23.1296 C   0  0  2  0  0  0
  -20.6786  -26.9417   22.5410 C   0  0  0  0  0  0
  -19.5751  -26.6386   21.5229 C   0  0  0  0  0  0
  -18.1921  -26.7938   22.1623 C   0  0  0  0  0  0
  -19.1529  -28.8851   23.2893 C   0  0  0  0  0  0
  -18.9463  -30.1454   23.8919 C   0  0  0  0  0  0
  -17.6469  -30.6602   24.0564 C   0  0  0  0  0  0
  -25.9040  -34.9476   23.5127 C   0  0  0  0  0  0
  -16.5355  -29.9106   23.6330 C   0  0  0  0  0  0
  -16.7266  -28.6519   23.0353 C   0  0  0  0  0  0
  -26.4479  -31.6608   25.0753 C   0  0  0  0  0  0
  -25.3711  -31.3732   26.1477 C   0  0  0  0  0  0
  -27.0328  -30.3052   24.6158 C   0  0  0  0  0  0
  -27.6066  -32.4304   25.7523 C   0  0  0  0  0  0
  -27.5581  -37.1807   24.8458 C   0  0  0  0  0  0
  -21.4161  -29.3062   22.3702 N   0  0  0  0  0  0
  -26.4293  -37.3798   23.9403 N   0  0  0  0  0  0
  -24.6792  -31.0733   22.1042 N   0  0  0  0  0  0
  -23.4201  -28.8169   23.2971 O   0  0  0  0  0  0
  -28.3190  -26.5284   20.1689 O   0  0  0  0  0  0
  -26.5601  -34.8929   22.4689 O   0  0  0  0  0  0
  -23.5388  -32.1433   23.7476 O   0  0  0  0  0  0
  -30.5460  -19.4861   21.1405 C   0  0  0  0  0  0
  -31.7318  -18.8396   20.8565 C   0  0  0  0  0  0
  -30.3820  -16.9831   21.0233 C   0  0  0  0  0  0
  -30.2637  -20.9318   21.4189 C   0  0  0  0  0  0
  -28.9674  -24.0428   20.5840 C   0  0  0  0  0  0
  -33.0757  -19.4704   20.6397 C   0  0  0  0  0  0
  -26.9701  -22.4185   20.6981 C   0  0  0  0  0  0
  -28.3208  -22.8899   22.7510 C   0  0  0  0  0  0
  -27.9291  -25.1202   20.1573 C   0  0  0  0  0  0
  -28.4008  -22.7137   21.2155 C   0  0  0  0  0  0
  -31.6198  -17.4400   20.7836 N   0  0  0  0  0  0
  -30.0232  -15.5864   21.0214 N   0  0  0  0  0  0
  -29.1662  -21.4818   20.8631 N   0  0  0  0  0  0
  -31.0345  -21.5710   22.1351 O   0  0  0  0  0  0
  -30.1792  -24.2208   20.4217 O   0  0  0  0  0  0
  -29.2484  -18.3086   21.3588 S   0  0  0  0  0  0
  -31.4659  -12.3987   19.1465 H   0  0  0  0  0  0
  -30.3019  -11.3261   19.8638 H   0  0  0  0  0  0
  -29.7484  -11.7616   17.4513 H   0  0  0  0  0  0
  -29.6688  -13.4784   17.7595 H   0  0  0  0  0  0
  -27.8427  -11.3051   18.8413 H   0  0  0  0  0  0
  -27.3709  -12.6116   17.7872 H   0  0  0  0  0  0
  -27.6879  -14.2587   19.5428 H   0  0  0  0  0  0
  -28.6833  -12.0256   21.3767 H   0  0  0  0  0  0
  -28.4617  -13.6847   21.8467 H   0  0  0  0  0  0
  -25.2787   -9.5666   22.4758 H   0  0  0  0  0  0
  -23.9998   -7.4633   22.7482 H   0  0  0  0  0  0
  -21.0851   -8.8796   19.8944 H   0  0  0  0  0  0
  -22.3747  -10.9677   19.6140 H   0  0  0  0  0  0
  -21.2008   -7.6149   23.9722 H   0  0  0  0  0  0
  -21.1478   -6.0521   25.9078 H   0  0  0  0  0  0
  -22.0599   -2.7611   23.2840 H   0  0  0  0  0  0
  -22.4106  -11.9856   22.4759 H   0  0  0  0  0  0
  -21.1123  -13.1233   22.2602 H   0  0  0  0  0  0
  -24.6642  -15.8461   20.5258 H   0  0  0  0  0  0
  -26.2795  -15.6297   20.0809 H   0  0  0  0  0  0
  -26.7156  -32.5504   23.1167 H   0  0  0  0  0  0
  -25.0088  -33.9792   25.0489 H   0  0  0  0  0  0
  -22.7013  -31.3165   21.4176 H   0  0  0  0  0  0
  -23.3760  -35.9637   23.3294 H   0  0  0  0  0  0
  -24.3589  -36.8939   22.2055 H   0  0  0  0  0  0
  -23.7235  -37.6516   23.6652 H   0  0  0  0  0  0
  -26.0756  -31.5854   20.6101 H   0  0  0  0  0  0
  -26.8347  -30.8625   21.9996 H   0  0  0  0  0  0
  -28.0992  -29.0222   21.2020 H   0  0  0  0  0  0
  -25.9558  -26.0180   18.9245 H   0  0  0  0  0  0
  -23.9638  -27.3616   18.9787 H   0  0  0  0  0  0
  -23.7336  -30.6293   19.4129 H   0  0  0  0  0  0
  -22.7416  -29.2743   19.8583 H   0  0  0  0  0  0
  -25.1283  -36.1984   25.0831 H   0  0  0  0  0  0
  -20.9967  -28.3252   24.1420 H   0  0  0  0  0  0
  -20.5721  -26.2288   23.3601 H   0  0  0  0  0  0
  -21.6642  -26.7479   22.1168 H   0  0  0  0  0  0
  -19.6923  -25.6300   21.1256 H   0  0  0  0  0  0
  -19.6706  -27.3194   20.6761 H   0  0  0  0  0  0
  -17.4200  -26.6697   21.4013 H   0  0  0  0  0  0
  -18.0303  -26.0088   22.9020 H   0  0  0  0  0  0
  -19.7950  -30.7255   24.2297 H   0  0  0  0  0  0
  -17.5037  -31.6293   24.5152 H   0  0  0  0  0  0
  -15.5360  -30.3026   23.7663 H   0  0  0  0  0  0
  -15.8655  -28.0858   22.7069 H   0  0  0  0  0  0
  -24.5911  -30.7044   25.7801 H   0  0  0  0  0  0
  -24.8864  -32.2897   26.4854 H   0  0  0  0  0  0
  -25.8029  -30.8950   27.0277 H   0  0  0  0  0  0
  -26.2907  -29.6808   24.1165 H   0  0  0  0  0  0
  -27.4062  -29.7281   25.4630 H   0  0  0  0  0  0
  -27.8743  -30.4380   23.9356 H   0  0  0  0  0  0
  -27.2717  -33.3608   26.2109 H   0  0  0  0  0  0
  -28.3884  -32.6841   25.0351 H   0  0  0  0  0  0
  -28.0714  -31.8404   26.5434 H   0  0  0  0  0  0
  -28.2584  -38.0121   24.7522 H   0  0  0  0  0  0
  -28.1101  -36.2654   24.6259 H   0  0  0  0  0  0
  -27.2300  -37.1412   25.8864 H   0  0  0  0  0  0
  -20.9312  -29.8840   21.6985 H   0  0  0  0  0  0
  -26.0189  -38.2878   24.1419 H   0  0  0  0  0  0
  -33.5464  -19.7319   21.5871 H   0  0  0  0  0  0
  -32.9956  -20.3848   20.0518 H   0  0  0  0  0  0
  -33.7554  -18.8012   20.1110 H   0  0  0  0  0  0
  -26.2281  -23.1147   21.0895 H   0  0  0  0  0  0
  -26.6295  -21.4297   21.0083 H   0  0  0  0  0  0
  -26.9163  -22.4481   19.6086 H   0  0  0  0  0  0
  -27.6019  -23.6613   23.0297 H   0  0  0  0  0  0
  -29.2793  -23.1849   23.1795 H   0  0  0  0  0  0
  -28.0092  -21.9673   23.2429 H   0  0  0  0  0  0
  -27.0676  -25.0173   20.8164 H   0  0  0  0  0  0
  -27.6184  -24.8393   19.1511 H   0  0  0  0  0  0
  -29.0842  -15.3811   21.3218 H   0  0  0  0  0  0
  -28.6928  -20.8718   20.2127 H   0  0  0  0  0  0
  1 25  1  0  0  0
  1 30  2  0  0  0
  1 82  1  0  0  0
  2  3  1  0  0  0
  2 25  1  0  0  0
  2 87  1  0  0  0
  2 88  1  0  0  0
  3  4  1  0  0  0
  3 89  1  0  0  0
  3 90  1  0  0  0
  4  5  1  0  0  0
  4 91  1  0  0  0
  4 92  1  0  0  0
  5  6  1  0  0  0
  5 26  1  0  0  0
  5 93  1  0  0  0
  6 25  1  0  0  0
  6 94  1  0  0  0
  6 95  1  0  0  0
  7  8  2  0  0  0
  7 26  1  0  0  0
  7 29  1  0  0  0
  8  9  1  0  0  0
  8 22  1  0  0  0
  9 10  1  0  0  0
  9 27  2  0  0  0
 10 11  2  0  0  0
 10 15  1  0  0  0
 11 12  1  0  0  0
 11 96  1  0  0  0
 12 13  2  0  0  0
 12 97  1  0  0  0
 13 14  1  0  0  0
 13 31  1  0  0  0
 14 15  2  0  0  0
 14 98  1  0  0  0
 15 99  1  0  0  0
 16 17  2  0  0  0
 16 21  1  0  0  0
 16 31  1  0  0  0
 17 18  1  0  0  0
 17100  1  0  0  0
 18 19  2  0  0  0
 18101  1  0  0  0
 19 20  1  0  0  0
 19 24  1  0  0  0
 20 21  2  0  0  0
 20102  1  0  0  0
 21 23  1  0  0  0
 22 28  1  0  0  0
 22 32  2  0  0  0
 26 27  1  0  0  0
 28103  1  0  0  0
 28104  1  0  0  0
 29105  1  0  0  0
 29106  1  0  0  0
 33 34  1  0  0  0
 33 66  1  0  0  0
 33 70  2  0  0  0
 34 36  1  0  0  0
 34 59  1  0  0  0
 34107  1  0  0  0
 35 44  2  0  0  0
 35 45  1  0  0  0
 35 68  1  0  0  0
 36 56  1  0  0  0
 36108  1  0  0  0
 37 39  1  0  0  0
 37 47  1  0  0  0
 37 66  1  0  0  0
 37109  1  0  0  0
 38 43  2  0  0  0
 38 46  1  0  0  0
 38 47  1  0  0  0
 39 64  1  0  0  0
 39 67  2  0  0  0
 40 52  1  0  0  0
 40 53  2  0  0  0
 40 58  1  0  0  0
 41110  1  0  0  0
 41111  1  0  0  0
 41112  1  0  0  0
 41 48  1  0  0  0
 42 43  1  0  0  0
 42 66  1  0  0  0
 42113  1  0  0  0
 42114  1  0  0  0
 43 44  1  0  0  0
 44115  1  0  0  0
 45 46  2  0  0  0
 45116  1  0  0  0
 46117  1  0  0  0
 47118  1  0  0  0
 47119  1  0  0  0
 48 56  1  0  0  0
 48 65  1  0  0  0
 48120  1  0  0  0
 49 50  1  0  0  0
 49 53  1  0  0  0
 49 64  1  0  0  0
 49121  1  0  0  0
 50 51  1  0  0  0
 50122  1  0  0  0
 50123  1  0  0  0
 51 52  1  0  0  0
 51124  1  0  0  0
 51125  1  0  0  0
 52126  1  0  0  0
 52127  1  0  0  0
 53 54  1  0  0  0
 54 55  2  0  0  0
 54128  1  0  0  0
 55 57  1  0  0  0
 55129  1  0  0  0
 56 69  2  0  0  0
 57 58  2  0  0  0
 57130  1  0  0  0
 58131  1  0  0  0
 59 60  1  0  0  0
 59 61  1  0  0  0
 59 62  1  0  0  0
 60132  1  0  0  0
 60133  1  0  0  0
 60134  1  0  0  0
 61135  1  0  0  0
 61136  1  0  0  0
 61137  1  0  0  0
 62138  1  0  0  0
 62139  1  0  0  0
 62140  1  0  0  0
 63 65  1  0  0  0
 63141  1  0  0  0
 63142  1  0  0  0
 63143  1  0  0  0
 64144  1  0  0  0
 65145  1  0  0  0
 68 79  1  0  0  0
 71 72  2  0  0  0
 71 74  1  0  0  0
 71 86  1  0  0  0
 72 76  1  0  0  0
 72 81  1  0  0  0
 73 81  2  0  0  0
 73 82  1  0  0  0
 73 86  1  0  0  0
 74 83  1  0  0  0
 74 84  2  0  0  0
 75 79  1  0  0  0
 75 80  1  0  0  0
 75 85  2  0  0  0
 76146  1  0  0  0
 76147  1  0  0  0
 76148  1  0  0  0
 77149  1  0  0  0
 77150  1  0  0  0
 77151  1  0  0  0
 77 80  1  0  0  0
 78 80  1  0  0  0
 78152  1  0  0  0
 78153  1  0  0  0
 78154  1  0  0  0
 79155  1  0  0  0
 79156  1  0  0  0
 80 83  1  0  0  0
 82157  1  0  0  0
 83158  1  0  0  0
M  ISO  4   1 100  68 101  79 101  82 100
M  END
> <chiral flag>
0

> <version>
0

> <s_m_source_file>
/data/baiqing/PycharmProjects/Reinvent-master-3.2/result/LINK_invent/BTK/process_docking_weight1_custom_product_contain_oxygen_bond_distance_aromatic_linkinvent_7_9_3/rearranged_h_0181.sdf

> <i_m_source_file_index>
87

> <r_mmod_Potential_Energy-OPLS-2005>
-88.4655609130859

> <r_mmod_Stretch_Energy-OPLS-2005>
52.6997375488281

> <r_mmod_Bend_Energy-OPLS-2005>
125.057289123535

> <r_mmod_Torsional_Energy-OPLS-2005>
243.557250976562

> <r_mmod_Improper_Torsional_Energy-OPLS-2005>
4.37194585800171

> <r_mmod_Van_der_Waal_Energy-OPLS-2005>
141.692749023438

> <r_mmod_Electrostatic_Energy-OPLS-2005>
-405.696319580078

> <r_mmod_Solvation_Energy-OPLS-2005>
-277.950042724609

> <b_mmod_Minimization_Converged-OPLS-2005>
0

> <r_mmod_RMS_Derivative-OPLS-2005>
1.91617405414581

$$$$
88
                    3D
 Structure written by MMmdl.
164172  0  0  1  0            999 V2000
  -30.6839  -14.5281   20.5374 C   0  0  0  0  0  0
  -30.4269  -12.3285   19.4320 C   0  0  0  0  0  0
  -29.4980  -12.5012   18.2106 C   0  0  0  0  0  0
  -28.0205  -12.3539   18.6267 C   0  0  0  0  0  0
  -27.6603  -13.2088   19.8720 C   0  0  2  0  0  0
  -28.7053  -13.0196   20.9969 C   0  0  0  0  0  0
  -25.2588  -13.8158   20.5689 C   0  0  0  0  0  0
  -24.1838  -13.0437   20.9191 C   0  0  0  0  0  0
  -24.6386  -11.6905   20.8737 C   0  0  0  0  0  0
  -23.9048  -10.4294   21.0399 C   0  0  0  0  0  0
  -24.3609   -9.4214   21.9179 C   0  0  0  0  0  0
  -23.6290   -8.2250   22.0749 C   0  0  0  0  0  0
  -22.4273   -8.0279   21.3546 C   0  0  0  0  0  0
  -21.9902   -9.0251   20.4645 C   0  0  0  0  0  0
  -22.7223  -10.2134   20.3054 C   0  0  0  0  0  0
  -21.6851   -6.0732   22.5279 C   0  0  0  0  0  0
  -21.4008   -6.5637   23.8211 C   0  0  0  0  0  0
  -21.3668   -5.6789   24.9169 C   0  0  0  0  0  0
  -21.6053   -4.3051   24.7225 C   0  0  0  0  0  0
  -21.8816   -3.8144   23.4345 C   0  0  0  0  0  0
  -21.9195   -4.6958   22.3403 C   0  0  0  0  0  0
  -22.7866  -13.5246   21.1868 C   0  0  0  0  0  0
  -22.1662   -4.2143   21.0981 F   0  0  0  0  0  0
  -21.5641   -3.4542   25.7739 F   0  0  0  0  0  0
  -30.0332  -13.3306   20.4390 N   0  0  0  0  0  0
  -26.3022  -12.9331   20.3369 N   0  0  0  0  0  0
  -25.9320  -11.6491   20.5772 N   0  0  0  0  0  0
  -22.0501  -12.8230   22.0416 N   0  0  0  0  0  0
  -25.4318  -15.1877   20.4077 N   0  0  0  0  0  0
  -31.8267  -14.6846   20.0954 O   0  0  0  0  0  0
  -21.6651   -6.8873   21.4235 O   0  0  0  0  0  0
  -22.3563  -14.5566   20.6732 O   0  0  0  0  0  0
  -24.6214  -31.8659   23.2074 C   0  0  0  0  0  0
  -25.9080  -32.4829   23.8376 C   0  0  1  0  0  0
  -27.2312  -27.3875   20.0855 C   0  0  0  0  0  0
  -25.5951  -33.8634   24.2300 N   0  0  0  0  0  0
  -23.4081  -30.4929   21.5519 C   0  0  2  0  0  0
  -24.8518  -28.9587   20.1139 C   0  0  0  0  0  0
  -22.7428  -29.4660   22.4971 C   0  0  0  0  0  0
  -18.0274  -28.1365   22.8510 C   0  0  0  0  0  0
  -24.1495  -36.7305   23.2622 C   0  0  0  0  0  0
  -25.9456  -30.8161   21.3680 C   0  0  0  0  0  0
  -26.0191  -29.4484   20.7119 C   0  0  0  0  0  0
  -27.2091  -28.6733   20.6921 C   0  0  0  0  0  0
  -26.0269  -26.9243   19.4992 C   0  0  0  0  0  0
  -24.8539  -27.6971   19.5051 C   0  0  0  0  0  0
  -23.6169  -29.8310   20.1657 C   0  0  0  0  0  0
  -25.4113  -36.3104   24.0313 C   0  0  1  0  0  0
  -20.5875  -28.3670   23.1299 C   0  0  2  0  0  0
  -20.6795  -26.9406   22.5407 C   0  0  0  0  0  0
  -19.5759  -26.6375   21.5232 C   0  0  0  0  0  0
  -18.1929  -26.7918   22.1629 C   0  0  0  0  0  0
  -19.1526  -28.8830   23.2910 C   0  0  0  0  0  0
  -18.9454  -30.1450   23.8903 C   0  0  0  0  0  0
  -17.6458  -30.6588   24.0566 C   0  0  0  0  0  0
  -25.9052  -34.9483   23.5090 C   0  0  0  0  0  0
  -16.5345  -29.9082   23.6340 C   0  0  0  0  0  0
  -16.7258  -28.6492   23.0372 C   0  0  0  0  0  0
  -26.4479  -31.6639   25.0738 C   0  0  0  0  0  0
  -25.3710  -31.3819   26.1475 C   0  0  0  0  0  0
  -27.0299  -30.3061   24.6168 C   0  0  0  0  0  0
  -27.6039  -32.4382   25.7509 C   0  0  0  0  0  0
  -27.5598  -37.1772   24.8422 C   0  0  0  0  0  0
  -21.4148  -29.3048   22.3718 N   0  0  0  0  0  0
  -26.4271  -37.3810   23.9431 N   0  0  0  0  0  0
  -24.6780  -31.0724   22.0998 N   0  0  0  0  0  0
  -23.4183  -28.8175   23.3014 O   0  0  0  0  0  0
  -28.4006  -26.6227   20.0911 O   0  0  0  0  0  0
  -26.5596  -34.8930   22.4641 O   0  0  0  0  0  0
  -23.5390  -32.1428   23.7432 O   0  0  0  0  0  0
  -31.0239  -19.0058   20.3885 C   0  0  0  0  0  0
  -29.9713  -19.4747   21.1495 C   0  0  0  0  0  0
  -30.1242  -16.9708   20.9617 C   0  0  0  0  0  0
  -30.1414  -22.0816   20.7328 C   0  0  0  0  0  0
  -29.5440  -24.3819   20.1156 C   0  0  0  0  0  0
  -28.4048  -25.2486   18.0638 C   0  0  0  0  0  0
  -30.3712  -22.5940   25.1027 C   0  0  0  0  0  0
  -28.1206  -22.5359   23.9727 C   0  0  0  0  0  0
  -30.0569  -21.1051   23.0719 C   0  0  0  0  0  0
  -29.6058  -20.8962   21.5998 C   0  0  2  0  0  0
  -28.3517  -25.2452   19.6073 C   0  0  2  0  0  0
  -29.6405  -22.4314   23.7629 C   0  0  0  0  0  0
  -31.0971  -17.6000   20.2875 N   0  0  0  0  0  0
  -29.9431  -15.5467   21.0343 N   0  0  0  0  0  0
  -29.2797  -23.0966   20.4702 N   0  0  0  0  0  0
  -31.3271  -22.0790   20.3815 O   0  0  0  0  0  0
  -30.6711  -24.8900   20.1560 O   0  0  0  0  0  0
  -29.0158  -18.1121   21.7301 S   0  0  0  0  0  0
  -31.4724  -12.4233   19.1320 H   0  0  0  0  0  0
  -30.3292  -11.3236   19.8463 H   0  0  0  0  0  0
  -29.7426  -11.7625   17.4456 H   0  0  0  0  0  0
  -29.6575  -13.4798   17.7540 H   0  0  0  0  0  0
  -27.8424  -11.2991   18.8406 H   0  0  0  0  0  0
  -27.3650  -12.6070   17.7924 H   0  0  0  0  0  0
  -27.6937  -14.2521   19.5570 H   0  0  0  0  0  0
  -28.6907  -11.9912   21.3613 H   0  0  0  0  0  0
  -28.4622  -13.6356   21.8642 H   0  0  0  0  0  0
  -25.2744   -9.5715   22.4754 H   0  0  0  0  0  0
  -24.0010   -7.4646   22.7465 H   0  0  0  0  0  0
  -21.0836   -8.8756   19.8952 H   0  0  0  0  0  0
  -22.3661  -10.9672   19.6175 H   0  0  0  0  0  0
  -21.1980   -7.6141   23.9707 H   0  0  0  0  0  0
  -21.1505   -6.0523   25.9075 H   0  0  0  0  0  0
  -22.0587   -2.7602   23.2847 H   0  0  0  0  0  0
  -22.4103  -11.9876   22.4787 H   0  0  0  0  0  0
  -21.1129  -13.1272   22.2632 H   0  0  0  0  0  0
  -24.6607  -15.8395   20.5027 H   0  0  0  0  0  0
  -26.2760  -15.6230   20.0575 H   0  0  0  0  0  0
  -26.7157  -32.5505   23.1134 H   0  0  0  0  0  0
  -25.0213  -33.9833   25.0521 H   0  0  0  0  0  0
  -22.6987  -31.3113   21.4132 H   0  0  0  0  0  0
  -23.3776  -35.9619   23.3240 H   0  0  0  0  0  0
  -24.3607  -36.8967   22.2049 H   0  0  0  0  0  0
  -23.7212  -37.6477   23.6673 H   0  0  0  0  0  0
  -26.0646  -31.5798   20.5985 H   0  0  0  0  0  0
  -26.8325  -30.8661   21.9884 H   0  0  0  0  0  0
  -28.1099  -29.0546   21.1511 H   0  0  0  0  0  0
  -25.9481  -25.9606   19.0226 H   0  0  0  0  0  0
  -23.9534  -27.3112   19.0459 H   0  0  0  0  0  0
  -23.7250  -30.6098   19.4107 H   0  0  0  0  0  0
  -22.7392  -29.2541   19.8673 H   0  0  0  0  0  0
  -25.1285  -36.1955   25.0800 H   0  0  0  0  0  0
  -20.9972  -28.3233   24.1413 H   0  0  0  0  0  0
  -20.5757  -26.2260   23.3593 H   0  0  0  0  0  0
  -21.6649  -26.7485   22.1143 H   0  0  0  0  0  0
  -19.6931  -25.6287   21.1263 H   0  0  0  0  0  0
  -19.6706  -27.3191   20.6776 H   0  0  0  0  0  0
  -17.4212  -26.6697   21.4016 H   0  0  0  0  0  0
  -18.0303  -26.0050   22.9008 H   0  0  0  0  0  0
  -19.7935  -30.7294   24.2239 H   0  0  0  0  0  0
  -17.5007  -31.6271   24.5164 H   0  0  0  0  0  0
  -15.5351  -30.2998   23.7655 H   0  0  0  0  0  0
  -15.8655  -28.0818   22.7085 H   0  0  0  0  0  0
  -24.5862  -30.7193   25.7814 H   0  0  0  0  0  0
  -24.8938  -32.3023   26.4862 H   0  0  0  0  0  0
  -25.8013  -30.9020   27.0272 H   0  0  0  0  0  0
  -26.2857  -29.6863   24.1155 H   0  0  0  0  0  0
  -27.3952  -29.7291   25.4674 H   0  0  0  0  0  0
  -27.8755  -30.4334   23.9399 H   0  0  0  0  0  0
  -27.2630  -33.3694   26.2044 H   0  0  0  0  0  0
  -28.3875  -32.6927   25.0361 H   0  0  0  0  0  0
  -28.0676  -31.8542   26.5467 H   0  0  0  0  0  0
  -28.2490  -38.0197   24.7673 H   0  0  0  0  0  0
  -28.1217  -36.2737   24.5993 H   0  0  0  0  0  0
  -27.2343  -37.1106   25.8820 H   0  0  0  0  0  0
  -20.9289  -29.8782   21.6963 H   0  0  0  0  0  0
  -26.0146  -38.2849   24.1575 H   0  0  0  0  0  0
  -31.7951  -19.5919   19.9079 H   0  0  0  0  0  0
  -28.2463  -24.2448   17.6642 H   0  0  0  0  0  0
  -29.3773  -25.5917   17.7104 H   0  0  0  0  0  0
  -27.6590  -25.8995   17.6101 H   0  0  0  0  0  0
  -30.1101  -23.5385   25.5812 H   0  0  0  0  0  0
  -31.4538  -22.5915   24.9668 H   0  0  0  0  0  0
  -30.1204  -21.7874   25.7923 H   0  0  0  0  0  0
  -27.8530  -23.4970   24.4146 H   0  0  0  0  0  0
  -27.7573  -21.7549   24.6412 H   0  0  0  0  0  0
  -27.5664  -22.4542   23.0385 H   0  0  0  0  0  0
  -31.1439  -21.0140   23.1082 H   0  0  0  0  0  0
  -29.6841  -20.2776   23.6767 H   0  0  0  0  0  0
  -28.5176  -20.9514   21.5790 H   0  0  0  0  0  0
  -27.4432  -24.7598   19.9679 H   0  0  0  0  0  0
  -29.9534  -23.2800   23.1536 H   0  0  0  0  0  0
  -29.0611  -15.2579   21.4257 H   0  0  0  0  0  0
  -28.3035  -22.8811   20.5951 H   0  0  0  0  0  0
  1 25  1  0  0  0
  1 30  2  0  0  0
  1 84  1  0  0  0
  2  3  1  0  0  0
  2 25  1  0  0  0
  2 89  1  0  0  0
  2 90  1  0  0  0
  3  4  1  0  0  0
  3 91  1  0  0  0
  3 92  1  0  0  0
  4  5  1  0  0  0
  4 93  1  0  0  0
  4 94  1  0  0  0
  5  6  1  0  0  0
  5 26  1  0  0  0
  5 95  1  0  0  0
  6 25  1  0  0  0
  6 96  1  0  0  0
  6 97  1  0  0  0
  7  8  2  0  0  0
  7 26  1  0  0  0
  7 29  1  0  0  0
  8  9  1  0  0  0
  8 22  1  0  0  0
  9 10  1  0  0  0
  9 27  2  0  0  0
 10 11  2  0  0  0
 10 15  1  0  0  0
 11 12  1  0  0  0
 11 98  1  0  0  0
 12 13  2  0  0  0
 12 99  1  0  0  0
 13 14  1  0  0  0
 13 31  1  0  0  0
 14 15  2  0  0  0
 14100  1  0  0  0
 15101  1  0  0  0
 16 17  2  0  0  0
 16 21  1  0  0  0
 16 31  1  0  0  0
 17 18  1  0  0  0
 17102  1  0  0  0
 18 19  2  0  0  0
 18103  1  0  0  0
 19 20  1  0  0  0
 19 24  1  0  0  0
 20 21  2  0  0  0
 20104  1  0  0  0
 21 23  1  0  0  0
 22 28  1  0  0  0
 22 32  2  0  0  0
 26 27  1  0  0  0
 28105  1  0  0  0
 28106  1  0  0  0
 29107  1  0  0  0
 29108  1  0  0  0
 33 34  1  0  0  0
 33 66  1  0  0  0
 33 70  2  0  0  0
 34 36  1  0  0  0
 34 59  1  0  0  0
 34109  1  0  0  0
 35 44  2  0  0  0
 35 45  1  0  0  0
 35 68  1  0  0  0
 36 56  1  0  0  0
 36110  1  0  0  0
 37 39  1  0  0  0
 37 47  1  0  0  0
 37 66  1  0  0  0
 37111  1  0  0  0
 38 43  2  0  0  0
 38 46  1  0  0  0
 38 47  1  0  0  0
 39 64  1  0  0  0
 39 67  2  0  0  0
 40 52  1  0  0  0
 40 53  2  0  0  0
 40 58  1  0  0  0
 41112  1  0  0  0
 41113  1  0  0  0
 41114  1  0  0  0
 41 48  1  0  0  0
 42 43  1  0  0  0
 42 66  1  0  0  0
 42115  1  0  0  0
 42116  1  0  0  0
 43 44  1  0  0  0
 44117  1  0  0  0
 45 46  2  0  0  0
 45118  1  0  0  0
 46119  1  0  0  0
 47120  1  0  0  0
 47121  1  0  0  0
 48 56  1  0  0  0
 48 65  1  0  0  0
 48122  1  0  0  0
 49 50  1  0  0  0
 49 53  1  0  0  0
 49 64  1  0  0  0
 49123  1  0  0  0
 50 51  1  0  0  0
 50124  1  0  0  0
 50125  1  0  0  0
 51 52  1  0  0  0
 51126  1  0  0  0
 51127  1  0  0  0
 52128  1  0  0  0
 52129  1  0  0  0
 53 54  1  0  0  0
 54 55  2  0  0  0
 54130  1  0  0  0
 55 57  1  0  0  0
 55131  1  0  0  0
 56 69  2  0  0  0
 57 58  2  0  0  0
 57132  1  0  0  0
 58133  1  0  0  0
 59 60  1  0  0  0
 59 61  1  0  0  0
 59 62  1  0  0  0
 60134  1  0  0  0
 60135  1  0  0  0
 60136  1  0  0  0
 61137  1  0  0  0
 61138  1  0  0  0
 61139  1  0  0  0
 62140  1  0  0  0
 62141  1  0  0  0
 62142  1  0  0  0
 63 65  1  0  0  0
 63143  1  0  0  0
 63144  1  0  0  0
 63145  1  0  0  0
 64146  1  0  0  0
 65147  1  0  0  0
 68 81  1  0  0  0
 71 72  2  0  0  0
 71 83  1  0  0  0
 71148  1  0  0  0
 72 80  1  0  0  0
 72 88  1  0  0  0
 73 83  2  0  0  0
 73 84  1  0  0  0
 73 88  1  0  0  0
 74 80  1  0  0  0
 74 85  1  0  0  0
 74 86  2  0  0  0
 75 81  1  0  0  0
 75 85  1  0  0  0
 75 87  2  0  0  0
 76149  1  0  0  0
 76150  1  0  0  0
 76151  1  0  0  0
 76 81  1  0  0  0
 77152  1  0  0  0
 77153  1  0  0  0
 77154  1  0  0  0
 77 82  1  0  0  0
 78 82  1  0  0  0
 78155  1  0  0  0
 78156  1  0  0  0
 78157  1  0  0  0
 79 82  1  0  0  0
 79158  1  0  0  0
 79159  1  0  0  0
 79 80  1  0  0  0
 80160  1  0  0  0
 81161  1  0  0  0
 82162  1  0  0  0
 84163  1  0  0  0
 85164  1  0  0  0
M  ISO  4   1 100  68 101  81 101  84 100
M  END
> <chiral flag>
0

> <version>
0

> <s_m_source_file>
/data/baiqing/PycharmProjects/Reinvent-master-3.2/result/LINK_invent/BTK/process_docking_weight1_custom_product_contain_oxygen_bond_distance_aromatic_linkinvent_7_9_3/rearranged_h_0181.sdf

> <i_m_source_file_index>
88

> <r_mmod_Potential_Energy-OPLS-2005>
-225.228118896484

> <r_mmod_Stretch_Energy-OPLS-2005>
51.6614036560059

> <r_mmod_Bend_Energy-OPLS-2005>
127.564949035645

> <r_mmod_Torsional_Energy-OPLS-2005>
197.386795043945

> <r_mmod_Improper_Torsional_Energy-OPLS-2005>
3.80039358139038

> <r_mmod_Van_der_Waal_Energy-OPLS-2005>
137.290161132812

> <r_mmod_Electrostatic_Energy-OPLS-2005>
-468.185791015625

> <r_mmod_Solvation_Energy-OPLS-2005>
-295.569366455078

> <b_mmod_Minimization_Converged-OPLS-2005>
0

> <r_mmod_RMS_Derivative-OPLS-2005>
2.32625126838684

$$$$
89
                    3D
 Structure written by MMmdl.
156164  0  0  1  0            999 V2000
  -30.6740  -14.5550   20.5457 C   0  0  0  0  0  0
  -30.4311  -12.3531   19.4494 C   0  0  0  0  0  0
  -29.5099  -12.5255   18.2234 C   0  0  0  0  0  0
  -28.0288  -12.3787   18.6248 C   0  0  0  0  0  0
  -27.6602  -13.2211   19.8755 C   0  0  2  0  0  0
  -28.7035  -13.0381   21.0023 C   0  0  0  0  0  0
  -25.2576  -13.8227   20.5704 C   0  0  0  0  0  0
  -24.1839  -13.0476   20.9232 C   0  0  0  0  0  0
  -24.6404  -11.6949   20.8782 C   0  0  0  0  0  0
  -23.9068  -10.4319   21.0421 C   0  0  0  0  0  0
  -24.3633   -9.4232   21.9175 C   0  0  0  0  0  0
  -23.6322   -8.2256   22.0731 C   0  0  0  0  0  0
  -22.4292   -8.0300   21.3541 C   0  0  0  0  0  0
  -21.9919   -9.0271   20.4647 C   0  0  0  0  0  0
  -22.7244  -10.2153   20.3067 C   0  0  0  0  0  0
  -21.6873   -6.0751   22.5271 C   0  0  0  0  0  0
  -21.4017   -6.5635   23.8210 C   0  0  0  0  0  0
  -21.3673   -5.6775   24.9166 C   0  0  0  0  0  0
  -21.6058   -4.3042   24.7195 C   0  0  0  0  0  0
  -21.8822   -3.8143   23.4307 C   0  0  0  0  0  0
  -21.9199   -4.6979   22.3378 C   0  0  0  0  0  0
  -22.7856  -13.5279   21.1884 C   0  0  0  0  0  0
  -22.1674   -4.2181   21.0955 F   0  0  0  0  0  0
  -21.5647   -3.4522   25.7694 F   0  0  0  0  0  0
  -30.0281  -13.3561   20.4489 N   0  0  0  0  0  0
  -26.3016  -12.9390   20.3377 N   0  0  0  0  0  0
  -25.9332  -11.6546   20.5795 N   0  0  0  0  0  0
  -22.0467  -12.8275   22.0431 N   0  0  0  0  0  0
  -25.4294  -15.1938   20.4057 N   0  0  0  0  0  0
  -31.8073  -14.7316   20.0945 O   0  0  0  0  0  0
  -21.6663   -6.8900   21.4235 O   0  0  0  0  0  0
  -22.3518  -14.5558   20.6694 O   0  0  0  0  0  0
  -24.6218  -31.8620   23.2043 C   0  0  0  0  0  0
  -25.9102  -32.4760   23.8347 C   0  0  1  0  0  0
  -27.2293  -27.3636   20.1239 C   0  0  0  0  0  0
  -25.5927  -33.8563   24.2274 N   0  0  0  0  0  0
  -23.4118  -30.4867   21.5420 C   0  0  2  0  0  0
  -24.8587  -28.9404   20.1129 C   0  0  0  0  0  0
  -22.7438  -29.4656   22.4920 C   0  0  0  0  0  0
  -18.0286  -28.1398   22.8474 C   0  0  0  0  0  0
  -24.1472  -36.7292   23.2653 C   0  0  0  0  0  0
  -25.9485  -30.8050   21.3696 C   0  0  0  0  0  0
  -26.0214  -29.4363   20.7150 C   0  0  0  0  0  0
  -27.2099  -28.6596   20.7076 C   0  0  0  0  0  0
  -26.0431  -26.8974   19.5153 C   0  0  0  0  0  0
  -24.8686  -27.6743   19.5049 C   0  0  0  0  0  0
  -23.6276  -29.8200   20.1572 C   0  0  0  0  0  0
  -25.4090  -36.3058   24.0336 C   0  0  1  0  0  0
  -20.5878  -28.3719   23.1262 C   0  0  2  0  0  0
  -20.6752  -26.9442   22.5403 C   0  0  0  0  0  0
  -19.5740  -26.6404   21.5192 C   0  0  0  0  0  0
  -18.1928  -26.7934   22.1618 C   0  0  0  0  0  0
  -19.1534  -28.8866   23.2866 C   0  0  0  0  0  0
  -18.9478  -30.1451   23.8900 C   0  0  0  0  0  0
  -17.6487  -30.6589   24.0586 C   0  0  0  0  0  0
  -25.9041  -34.9437   23.5103 C   0  0  0  0  0  0
  -16.5378  -29.9103   23.6327 C   0  0  0  0  0  0
  -16.7275  -28.6527   23.0330 C   0  0  0  0  0  0
  -26.4511  -31.6544   25.0696 C   0  0  0  0  0  0
  -25.3778  -31.3694   26.1452 C   0  0  0  0  0  0
  -27.0388  -30.2972   24.6148 C   0  0  0  0  0  0
  -27.6061  -32.4287   25.7476 C   0  0  0  0  0  0
  -27.5552  -37.1791   24.8469 C   0  0  0  0  0  0
  -21.4159  -29.3076   22.3655 N   0  0  0  0  0  0
  -26.4249  -37.3760   23.9429 N   0  0  0  0  0  0
  -24.6782  -31.0683   22.0965 N   0  0  0  0  0  0
  -23.4170  -28.8194   23.2985 O   0  0  0  0  0  0
  -28.3923  -26.5941   20.1278 O   0  0  0  0  0  0
  -26.5621  -34.8915   22.4677 O   0  0  0  0  0  0
  -23.5399  -32.1424   23.7410 O   0  0  0  0  0  0
  -30.1528  -20.5858   21.2373 C   0  0  0  0  0  0
  -29.2684  -19.5557   20.9414 C   0  0  0  0  0  0
  -28.6275  -21.8300   20.0385 C   0  0  0  0  0  0
  -28.1870  -24.2480   19.1857 C   0  0  0  0  0  0
  -31.4282  -20.5045   22.0322 C   0  0  0  0  0  0
  -28.3300  -25.1574   20.4420 C   0  0  0  0  0  0
  -30.2551  -17.0569   20.8115 C   0  0  0  0  0  0
  -29.2120  -18.0809   21.4120 C   0  0  1  0  0  0
  -29.0896  -17.9785   22.9565 C   0  0  0  0  0  0
  -29.7683  -21.8581   20.7367 N   0  0  0  0  0  0
  -28.1300  -22.8888   19.2057 N   0  0  0  0  0  0
  -29.9340  -15.6038   20.9871 N   0  0  0  0  0  0
  -28.0849  -24.8008   18.0866 O   0  0  0  0  0  0
  -28.1686  -18.8343   23.4034 F   0  0  0  0  0  0
  -28.7111  -16.7489   23.3119 F   0  0  0  0  0  0
  -30.2475  -18.2539   23.5586 F   0  0  0  0  0  0
  -27.9522  -20.1957   19.9599 S   0  0  0  0  0  0
  -31.4800  -12.4539   19.1628 H   0  0  0  0  0  0
  -30.3337  -11.3495   19.8650 H   0  0  0  0  0  0
  -29.7624  -11.7940   17.4562 H   0  0  0  0  0  0
  -29.6783  -13.5089   17.7778 H   0  0  0  0  0  0
  -27.8399  -11.3238   18.8240 H   0  0  0  0  0  0
  -27.3868  -12.6510   17.7869 H   0  0  0  0  0  0
  -27.6887  -14.2671   19.5672 H   0  0  0  0  0  0
  -28.6917  -12.0107   21.3702 H   0  0  0  0  0  0
  -28.4646  -13.6648   21.8612 H   0  0  0  0  0  0
  -25.2783   -9.5735   22.4738 H   0  0  0  0  0  0
  -24.0085   -7.4634   22.7405 H   0  0  0  0  0  0
  -21.0870   -8.8770   19.8925 H   0  0  0  0  0  0
  -22.3702  -10.9693   19.6181 H   0  0  0  0  0  0
  -21.1987   -7.6131   23.9748 H   0  0  0  0  0  0
  -21.1520   -6.0475   25.9086 H   0  0  0  0  0  0
  -22.0595   -2.7608   23.2780 H   0  0  0  0  0  0
  -22.4058  -11.9966   22.4876 H   0  0  0  0  0  0
  -21.1068  -13.1292   22.2601 H   0  0  0  0  0  0
  -24.6549  -15.8460   20.4780 H   0  0  0  0  0  0
  -26.2679  -15.6155   20.0265 H   0  0  0  0  0  0
  -26.7186  -32.5432   23.1102 H   0  0  0  0  0  0
  -25.0012  -33.9701   25.0377 H   0  0  0  0  0  0
  -22.7049  -31.3064   21.3967 H   0  0  0  0  0  0
  -23.3695  -35.9665   23.3311 H   0  0  0  0  0  0
  -24.3587  -36.8909   22.2074 H   0  0  0  0  0  0
  -23.7257  -37.6503   23.6680 H   0  0  0  0  0  0
  -26.0790  -31.5696   20.6021 H   0  0  0  0  0  0
  -26.8323  -30.8537   21.9932 H   0  0  0  0  0  0
  -28.1039  -29.0466   21.1761 H   0  0  0  0  0  0
  -26.0100  -25.9355   19.0278 H   0  0  0  0  0  0
  -23.9800  -27.2819   19.0295 H   0  0  0  0  0  0
  -23.7585  -30.5981   19.4046 H   0  0  0  0  0  0
  -22.7471  -29.2532   19.8462 H   0  0  0  0  0  0
  -25.1263  -36.1893   25.0822 H   0  0  0  0  0  0
  -20.9985  -28.3311   24.1373 H   0  0  0  0  0  0
  -20.5617  -26.2367   23.3623 H   0  0  0  0  0  0
  -21.6628  -26.7441   22.1233 H   0  0  0  0  0  0
  -19.6919  -25.6318   21.1210 H   0  0  0  0  0  0
  -19.6639  -27.3219   20.6721 H   0  0  0  0  0  0
  -17.4183  -26.6661   21.4032 H   0  0  0  0  0  0
  -18.0347  -26.0080   22.9029 H   0  0  0  0  0  0
  -19.7969  -30.7246   24.2261 H   0  0  0  0  0  0
  -17.5066  -31.6265   24.5204 H   0  0  0  0  0  0
  -15.5382  -30.3038   23.7614 H   0  0  0  0  0  0
  -15.8677  -28.0864   22.7013 H   0  0  0  0  0  0
  -24.5906  -30.7084   25.7789 H   0  0  0  0  0  0
  -24.9057  -32.2897   26.4911 H   0  0  0  0  0  0
  -25.8147  -30.8830   27.0196 H   0  0  0  0  0  0
  -26.2999  -29.6654   24.1203 H   0  0  0  0  0  0
  -27.4140  -29.7240   25.4644 H   0  0  0  0  0  0
  -27.8825  -30.4230   23.9353 H   0  0  0  0  0  0
  -27.2630  -33.3549   26.2092 H   0  0  0  0  0  0
  -28.3864  -32.6905   25.0315 H   0  0  0  0  0  0
  -28.0759  -31.8408   26.5365 H   0  0  0  0  0  0
  -28.2552  -38.0094   24.7486 H   0  0  0  0  0  0
  -28.1037  -36.2619   24.6286 H   0  0  0  0  0  0
  -27.2304  -37.1458   25.8880 H   0  0  0  0  0  0
  -20.9328  -29.8840   21.6911 H   0  0  0  0  0  0
  -26.0100  -38.2820   24.1427 H   0  0  0  0  0  0
  -31.2533  -20.6527   23.0975 H   0  0  0  0  0  0
  -32.1510  -21.2582   21.7158 H   0  0  0  0  0  0
  -31.9210  -19.5378   21.9168 H   0  0  0  0  0  0
  -27.5161  -24.9544   21.1407 H   0  0  0  0  0  0
  -29.2572  -24.8853   20.9465 H   0  0  0  0  0  0
  -31.2449  -17.2577   21.2269 H   0  0  0  0  0  0
  -30.3323  -17.2294   19.7366 H   0  0  0  0  0  0
  -28.2529  -17.7149   21.0442 H   0  0  0  0  0  0
  -27.7397  -22.5350   18.3454 H   0  0  0  0  0  0
  -29.0255  -15.3720   21.3615 H   0  0  0  0  0  0
  1 25  1  0  0  0
  1 30  2  0  0  0
  1 82  1  0  0  0
  2  3  1  0  0  0
  2 25  1  0  0  0
  2 88  1  0  0  0
  2 89  1  0  0  0
  3  4  1  0  0  0
  3 90  1  0  0  0
  3 91  1  0  0  0
  4  5  1  0  0  0
  4 92  1  0  0  0
  4 93  1  0  0  0
  5  6  1  0  0  0
  5 26  1  0  0  0
  5 94  1  0  0  0
  6 25  1  0  0  0
  6 95  1  0  0  0
  6 96  1  0  0  0
  7  8  2  0  0  0
  7 26  1  0  0  0
  7 29  1  0  0  0
  8  9  1  0  0  0
  8 22  1  0  0  0
  9 10  1  0  0  0
  9 27  2  0  0  0
 10 11  2  0  0  0
 10 15  1  0  0  0
 11 12  1  0  0  0
 11 97  1  0  0  0
 12 13  2  0  0  0
 12 98  1  0  0  0
 13 14  1  0  0  0
 13 31  1  0  0  0
 14 15  2  0  0  0
 14 99  1  0  0  0
 15100  1  0  0  0
 16 17  2  0  0  0
 16 21  1  0  0  0
 16 31  1  0  0  0
 17 18  1  0  0  0
 17101  1  0  0  0
 18 19  2  0  0  0
 18102  1  0  0  0
 19 20  1  0  0  0
 19 24  1  0  0  0
 20 21  2  0  0  0
 20103  1  0  0  0
 21 23  1  0  0  0
 22 28  1  0  0  0
 22 32  2  0  0  0
 26 27  1  0  0  0
 28104  1  0  0  0
 28105  1  0  0  0
 29106  1  0  0  0
 29107  1  0  0  0
 33 34  1  0  0  0
 33 66  1  0  0  0
 33 70  2  0  0  0
 34 36  1  0  0  0
 34 59  1  0  0  0
 34108  1  0  0  0
 35 44  2  0  0  0
 35 45  1  0  0  0
 35 68  1  0  0  0
 36 56  1  0  0  0
 36109  1  0  0  0
 37 39  1  0  0  0
 37 47  1  0  0  0
 37 66  1  0  0  0
 37110  1  0  0  0
 38 43  2  0  0  0
 38 46  1  0  0  0
 38 47  1  0  0  0
 39 64  1  0  0  0
 39 67  2  0  0  0
 40 52  1  0  0  0
 40 53  2  0  0  0
 40 58  1  0  0  0
 41111  1  0  0  0
 41112  1  0  0  0
 41113  1  0  0  0
 41 48  1  0  0  0
 42 43  1  0  0  0
 42 66  1  0  0  0
 42114  1  0  0  0
 42115  1  0  0  0
 43 44  1  0  0  0
 44116  1  0  0  0
 45 46  2  0  0  0
 45117  1  0  0  0
 46118  1  0  0  0
 47119  1  0  0  0
 47120  1  0  0  0
 48 56  1  0  0  0
 48 65  1  0  0  0
 48121  1  0  0  0
 49 50  1  0  0  0
 49 53  1  0  0  0
 49 64  1  0  0  0
 49122  1  0  0  0
 50 51  1  0  0  0
 50123  1  0  0  0
 50124  1  0  0  0
 51 52  1  0  0  0
 51125  1  0  0  0
 51126  1  0  0  0
 52127  1  0  0  0
 52128  1  0  0  0
 53 54  1  0  0  0
 54 55  2  0  0  0
 54129  1  0  0  0
 55 57  1  0  0  0
 55130  1  0  0  0
 56 69  2  0  0  0
 57 58  2  0  0  0
 57131  1  0  0  0
 58132  1  0  0  0
 59 60  1  0  0  0
 59 61  1  0  0  0
 59 62  1  0  0  0
 60133  1  0  0  0
 60134  1  0  0  0
 60135  1  0  0  0
 61136  1  0  0  0
 61137  1  0  0  0
 61138  1  0  0  0
 62139  1  0  0  0
 62140  1  0  0  0
 62141  1  0  0  0
 63 65  1  0  0  0
 63142  1  0  0  0
 63143  1  0  0  0
 63144  1  0  0  0
 64145  1  0  0  0
 65146  1  0  0  0
 68 76  1  0  0  0
 71 72  2  0  0  0
 71 75  1  0  0  0
 71 80  1  0  0  0
 72 78  1  0  0  0
 72 87  1  0  0  0
 73 80  2  0  0  0
 73 81  1  0  0  0
 73 87  1  0  0  0
 74 76  1  0  0  0
 74 81  1  0  0  0
 74 83  2  0  0  0
 75147  1  0  0  0
 75148  1  0  0  0
 75149  1  0  0  0
 76150  1  0  0  0
 76151  1  0  0  0
 77 82  1  0  0  0
 77152  1  0  0  0
 77153  1  0  0  0
 77 78  1  0  0  0
 78 79  1  0  0  0
 78154  1  0  0  0
 79 84  1  0  0  0
 79 85  1  0  0  0
 79 86  1  0  0  0
 81155  1  0  0  0
 82156  1  0  0  0
M  ISO  4   1 100  68 101  76 101  82 100
M  END
> <chiral flag>
0

> <version>
0

> <s_m_source_file>
/data/baiqing/PycharmProjects/Reinvent-master-3.2/result/LINK_invent/BTK/process_docking_weight1_custom_product_contain_oxygen_bond_distance_aromatic_linkinvent_7_9_3/rearranged_h_0181.sdf

> <i_m_source_file_index>
89

> <r_mmod_Potential_Energy-OPLS-2005>
-71.8193817138672

> <r_mmod_Stretch_Energy-OPLS-2005>
57.9766159057617

> <r_mmod_Bend_Energy-OPLS-2005>
150.727615356445

> <r_mmod_Torsional_Energy-OPLS-2005>
234.255920410156

> <r_mmod_Improper_Torsional_Energy-OPLS-2005>
6.84306669235229

> <r_mmod_Van_der_Waal_Energy-OPLS-2005>
115.719711303711

> <r_mmod_Electrostatic_Energy-OPLS-2005>
-428.7099609375

> <r_mmod_Solvation_Energy-OPLS-2005>
-234.641220092773

> <b_mmod_Minimization_Converged-OPLS-2005>
0

> <r_mmod_RMS_Derivative-OPLS-2005>
4.04804849624634

$$$$
90
                    3D
 Structure written by MMmdl.
159167  0  0  1  0            999 V2000
  -30.6088  -14.7511   20.4612 C   0  0  0  0  0  0
  -30.4448  -12.4521   19.4855 C   0  0  0  0  0  0
  -29.5195  -12.4825   18.2460 C   0  0  0  0  0  0
  -28.0473  -12.2852   18.6597 C   0  0  0  0  0  0
  -27.6380  -13.2051   19.8348 C   0  0  2  0  0  0
  -28.6814  -13.1711   20.9732 C   0  0  0  0  0  0
  -25.2563  -13.8110   20.5693 C   0  0  0  0  0  0
  -24.1813  -13.0411   20.9176 C   0  0  0  0  0  0
  -24.6360  -11.6873   20.8752 C   0  0  0  0  0  0
  -23.9017  -10.4272   21.0448 C   0  0  0  0  0  0
  -24.3582   -9.4185   21.9221 C   0  0  0  0  0  0
  -23.6267   -8.2217   22.0770 C   0  0  0  0  0  0
  -22.4257   -8.0265   21.3540 C   0  0  0  0  0  0
  -21.9875   -9.0243   20.4644 C   0  0  0  0  0  0
  -22.7193  -10.2129   20.3080 C   0  0  0  0  0  0
  -21.6838   -6.0732   22.5277 C   0  0  0  0  0  0
  -21.4018   -6.5647   23.8210 C   0  0  0  0  0  0
  -21.3660   -5.6808   24.9180 C   0  0  0  0  0  0
  -21.6038   -4.3066   24.7223 C   0  0  0  0  0  0
  -21.8827   -3.8143   23.4350 C   0  0  0  0  0  0
  -21.9196   -4.6959   22.3402 C   0  0  0  0  0  0
  -22.7841  -13.5220   21.1867 C   0  0  0  0  0  0
  -22.1670   -4.2141   21.0981 F   0  0  0  0  0  0
  -21.5612   -3.4555   25.7738 F   0  0  0  0  0  0
  -29.9944  -13.5170   20.4097 N   0  0  0  0  0  0
  -26.2917  -12.9243   20.3208 N   0  0  0  0  0  0
  -25.9262  -11.6429   20.5736 N   0  0  0  0  0  0
  -22.0490  -12.8211   22.0421 N   0  0  0  0  0  0
  -25.4353  -15.1823   20.4154 N   0  0  0  0  0  0
  -31.7991  -14.8326   20.1476 O   0  0  0  0  0  0
  -21.6619   -6.8870   21.4240 O   0  0  0  0  0  0
  -22.3529  -14.5529   20.6716 O   0  0  0  0  0  0
  -24.6320  -31.8567   23.2029 C   0  0  0  0  0  0
  -25.9171  -32.4740   23.8354 C   0  0  1  0  0  0
  -27.1964  -27.2670   20.1093 C   0  0  0  0  0  0
  -25.5986  -33.8555   24.2233 N   0  0  0  0  0  0
  -23.4262  -30.4831   21.5510 C   0  0  2  0  0  0
  -24.8664  -28.9471   20.0990 C   0  0  0  0  0  0
  -22.7511  -29.4585   22.4958 C   0  0  0  0  0  0
  -18.0271  -28.1409   22.8469 C   0  0  0  0  0  0
  -24.1511  -36.7286   23.2638 C   0  0  0  0  0  0
  -25.9746  -30.7651   21.3905 C   0  0  0  0  0  0
  -26.0383  -29.3955   20.7208 C   0  0  0  0  0  0
  -27.2065  -28.5633   20.7252 C   0  0  0  0  0  0
  -26.0135  -26.9173   19.4175 C   0  0  0  0  0  0
  -24.8590  -27.7147   19.4378 C   0  0  0  0  0  0
  -23.6376  -29.8308   20.1615 C   0  0  0  0  0  0
  -25.4122  -36.3059   24.0320 C   0  0  1  0  0  0
  -20.5890  -28.3693   23.1287 C   0  0  2  0  0  0
  -20.6774  -26.9417   22.5418 C   0  0  0  0  0  0
  -19.5752  -26.6384   21.5228 C   0  0  0  0  0  0
  -18.1918  -26.7929   22.1622 C   0  0  0  0  0  0
  -19.1533  -28.8869   23.2852 C   0  0  0  0  0  0
  -18.9461  -30.1478   23.8855 C   0  0  0  0  0  0
  -17.6459  -30.6598   24.0571 C   0  0  0  0  0  0
  -25.9079  -34.9433   23.5065 C   0  0  0  0  0  0
  -16.5349  -29.9093   23.6358 C   0  0  0  0  0  0
  -16.7260  -28.6536   23.0324 C   0  0  0  0  0  0
  -26.4515  -31.6571   25.0754 C   0  0  0  0  0  0
  -25.3711  -31.3753   26.1462 C   0  0  0  0  0  0
  -27.0355  -30.2976   24.6278 C   0  0  0  0  0  0
  -27.6051  -32.4334   25.7527 C   0  0  0  0  0  0
  -27.5570  -37.1781   24.8453 C   0  0  0  0  0  0
  -21.4223  -29.3023   22.3689 N   0  0  0  0  0  0
  -26.4290  -37.3759   23.9398 N   0  0  0  0  0  0
  -24.6961  -31.0526   22.1038 N   0  0  0  0  0  0
  -23.4199  -28.8069   23.3016 O   0  0  0  0  0  0
  -28.2547  -26.3246   20.2077 O   0  0  0  0  0  0
  -26.5656  -34.8927   22.4640 O   0  0  0  0  0  0
  -23.5487  -32.1425   23.7323 O   0  0  0  0  0  0
  -29.3098  -20.0345   17.8762 C   0  0  0  0  0  0
  -29.5577  -19.8727   19.2211 C   0  0  0  0  0  0
  -30.2098  -18.0253   18.1352 C   0  0  0  0  0  0
  -28.7009  -22.2073   19.7956 C   0  0  0  0  0  0
  -30.8731  -16.7539   17.7058 C   0  0  0  0  0  0
  -26.8727  -24.5248   21.2620 C   0  0  0  0  0  0
  -29.0719  -23.6948   20.2663 C   0  0  0  0  0  0
  -30.4627  -17.6066   20.5491 C   0  0  0  0  0  0
  -27.9283  -24.8441   20.1715 C   0  0  2  0  0  0
  -29.7973  -16.1271   20.7253 C   0  0  0  0  0  0
  -30.0288  -18.5191   19.3852 N   0  0  0  0  0  0
  -29.7392  -18.9090   17.2558 N   0  3  0  0  0  0
  -29.4327  -21.0615   20.1012 N   0  0  0  0  0  0
  -27.6736  -22.0916   19.1227 O   0  0  0  0  0  0
  -28.6950  -16.1304   19.9785 F   0  0  0  0  0  0
  -29.3932  -16.0846   21.9952 F   0  0  0  0  0  0
  -31.4839  -12.5837   19.1778 H   0  0  0  0  0  0
  -30.4004  -11.4818   19.9816 H   0  0  0  0  0  0
  -29.8130  -11.7020   17.5417 H   0  0  0  0  0  0
  -29.6301  -13.4305   17.7172 H   0  0  0  0  0  0
  -27.9321  -11.2429   18.9579 H   0  0  0  0  0  0
  -27.3851  -12.4345   17.8061 H   0  0  0  0  0  0
  -27.6118  -14.2002   19.4035 H   0  0  0  0  0  0
  -28.7109  -12.1801   21.4310 H   0  0  0  0  0  0
  -28.3957  -13.8592   21.7683 H   0  0  0  0  0  0
  -25.2762   -9.5646   22.4754 H   0  0  0  0  0  0
  -23.9982   -7.4606   22.7485 H   0  0  0  0  0  0
  -21.0813   -8.8763   19.8932 H   0  0  0  0  0  0
  -22.3696  -10.9666   19.6163 H   0  0  0  0  0  0
  -21.2030   -7.6162   23.9704 H   0  0  0  0  0  0
  -21.1466   -6.0550   25.9086 H   0  0  0  0  0  0
  -22.0598   -2.7597   23.2859 H   0  0  0  0  0  0
  -22.4142  -11.9888   22.4796 H   0  0  0  0  0  0
  -21.1107  -13.1217   22.2642 H   0  0  0  0  0  0
  -24.6808  -15.8481   20.5391 H   0  0  0  0  0  0
  -26.3090  -15.6104   20.1315 H   0  0  0  0  0  0
  -26.7206  -32.5352   23.1050 H   0  0  0  0  0  0
  -25.0095  -33.9682   25.0361 H   0  0  0  0  0  0
  -22.7225  -31.3048   21.4108 H   0  0  0  0  0  0
  -23.3767  -35.9617   23.3310 H   0  0  0  0  0  0
  -24.3586  -36.8928   22.2050 H   0  0  0  0  0  0
  -23.7274  -37.6490   23.6675 H   0  0  0  0  0  0
  -26.1265  -31.5306   20.6279 H   0  0  0  0  0  0
  -26.8501  -30.7940   22.0284 H   0  0  0  0  0  0
  -28.0922  -28.8872   21.2544 H   0  0  0  0  0  0
  -25.9291  -25.9856   18.8839 H   0  0  0  0  0  0
  -23.9639  -27.3740   18.9335 H   0  0  0  0  0  0
  -23.7573  -30.6169   19.4151 H   0  0  0  0  0  0
  -22.7529  -29.2688   19.8549 H   0  0  0  0  0  0
  -25.1295  -36.1892   25.0805 H   0  0  0  0  0  0
  -20.9933  -28.3288   24.1435 H   0  0  0  0  0  0
  -20.5728  -26.2301   23.3619 H   0  0  0  0  0  0
  -21.6634  -26.7475   22.1181 H   0  0  0  0  0  0
  -19.6953  -25.6298   21.1264 H   0  0  0  0  0  0
  -19.6720  -27.3202   20.6773 H   0  0  0  0  0  0
  -17.4193  -26.6680   21.4027 H   0  0  0  0  0  0
  -18.0313  -26.0094   22.9048 H   0  0  0  0  0  0
  -19.7948  -30.7302   24.2204 H   0  0  0  0  0  0
  -17.5023  -31.6274   24.5180 H   0  0  0  0  0  0
  -15.5355  -30.2963   23.7737 H   0  0  0  0  0  0
  -15.8663  -28.0871   22.7000 H   0  0  0  0  0  0
  -24.5906  -30.7077   25.7813 H   0  0  0  0  0  0
  -24.8881  -32.2931   26.4831 H   0  0  0  0  0  0
  -25.8026  -30.8987   27.0271 H   0  0  0  0  0  0
  -26.2967  -29.6711   24.1274 H   0  0  0  0  0  0
  -27.3975  -29.7258   25.4832 H   0  0  0  0  0  0
  -27.8876  -30.4240   23.9588 H   0  0  0  0  0  0
  -27.2646  -33.3651   26.2057 H   0  0  0  0  0  0
  -28.3877  -32.6867   25.0361 H   0  0  0  0  0  0
  -28.0687  -31.8488   26.5482 H   0  0  0  0  0  0
  -28.2561  -38.0105   24.7485 H   0  0  0  0  0  0
  -28.1098  -36.2622   24.6288 H   0  0  0  0  0  0
  -27.2291  -37.1431   25.8863 H   0  0  0  0  0  0
  -20.9442  -29.8780   21.6899 H   0  0  0  0  0  0
  -26.0180  -38.2837   24.1388 H   0  0  0  0  0  0
  -28.9396  -20.8747   17.3059 H   0  0  0  0  0  0
  -31.7655  -16.5972   18.3087 H   0  0  0  0  0  0
  -31.1815  -16.8518   16.6647 H   0  0  0  0  0  0
  -30.1709  -15.9284   17.8036 H   0  0  0  0  0  0
  -26.6024  -23.4693   21.2561 H   0  0  0  0  0  0
  -25.9324  -25.0581   21.1365 H   0  0  0  0  0  0
  -27.2461  -24.7626   22.2561 H   0  0  0  0  0  0
  -29.8944  -24.0019   19.6224 H   0  0  0  0  0  0
  -29.4812  -23.6600   21.2758 H   0  0  0  0  0  0
  -31.5445  -17.4984   20.4747 H   0  0  0  0  0  0
  -30.3022  -18.1862   21.4588 H   0  0  0  0  0  0
  -27.4832  -24.6665   19.1939 H   0  0  0  0  0  0
  -29.7574  -18.7892   16.2492 H   0  0  0  0  0  0
  -30.1048  -21.1301   20.8527 H   0  0  0  0  0  0
  1 25  1  0  0  0
  1 30  2  0  0  0
  1 80  1  0  0  0
  2  3  1  0  0  0
  2 25  1  0  0  0
  2 87  1  0  0  0
  2 88  1  0  0  0
  3  4  1  0  0  0
  3 89  1  0  0  0
  3 90  1  0  0  0
  4  5  1  0  0  0
  4 91  1  0  0  0
  4 92  1  0  0  0
  5  6  1  0  0  0
  5 26  1  0  0  0
  5 93  1  0  0  0
  6 25  1  0  0  0
  6 94  1  0  0  0
  6 95  1  0  0  0
  7  8  2  0  0  0
  7 26  1  0  0  0
  7 29  1  0  0  0
  8  9  1  0  0  0
  8 22  1  0  0  0
  9 10  1  0  0  0
  9 27  2  0  0  0
 10 11  2  0  0  0
 10 15  1  0  0  0
 11 12  1  0  0  0
 11 96  1  0  0  0
 12 13  2  0  0  0
 12 97  1  0  0  0
 13 14  1  0  0  0
 13 31  1  0  0  0
 14 15  2  0  0  0
 14 98  1  0  0  0
 15 99  1  0  0  0
 16 17  2  0  0  0
 16 21  1  0  0  0
 16 31  1  0  0  0
 17 18  1  0  0  0
 17100  1  0  0  0
 18 19  2  0  0  0
 18101  1  0  0  0
 19 20  1  0  0  0
 19 24  1  0  0  0
 20 21  2  0  0  0
 20102  1  0  0  0
 21 23  1  0  0  0
 22 28  1  0  0  0
 22 32  2  0  0  0
 26 27  1  0  0  0
 28103  1  0  0  0
 28104  1  0  0  0
 29105  1  0  0  0
 29106  1  0  0  0
 33 34  1  0  0  0
 33 66  1  0  0  0
 33 70  2  0  0  0
 34 36  1  0  0  0
 34 59  1  0  0  0
 34107  1  0  0  0
 35 44  2  0  0  0
 35 45  1  0  0  0
 35 68  1  0  0  0
 36 56  1  0  0  0
 36108  1  0  0  0
 37 39  1  0  0  0
 37 47  1  0  0  0
 37 66  1  0  0  0
 37109  1  0  0  0
 38 43  2  0  0  0
 38 46  1  0  0  0
 38 47  1  0  0  0
 39 64  1  0  0  0
 39 67  2  0  0  0
 40 52  1  0  0  0
 40 53  2  0  0  0
 40 58  1  0  0  0
 41110  1  0  0  0
 41111  1  0  0  0
 41112  1  0  0  0
 41 48  1  0  0  0
 42 43  1  0  0  0
 42 66  1  0  0  0
 42113  1  0  0  0
 42114  1  0  0  0
 43 44  1  0  0  0
 44115  1  0  0  0
 45 46  2  0  0  0
 45116  1  0  0  0
 46117  1  0  0  0
 47118  1  0  0  0
 47119  1  0  0  0
 48 56  1  0  0  0
 48 65  1  0  0  0
 48120  1  0  0  0
 49 50  1  0  0  0
 49 53  1  0  0  0
 49 64  1  0  0  0
 49121  1  0  0  0
 50 51  1  0  0  0
 50122  1  0  0  0
 50123  1  0  0  0
 51 52  1  0  0  0
 51124  1  0  0  0
 51125  1  0  0  0
 52126  1  0  0  0
 52127  1  0  0  0
 53 54  1  0  0  0
 54 55  2  0  0  0
 54128  1  0  0  0
 55 57  1  0  0  0
 55129  1  0  0  0
 56 69  2  0  0  0
 57 58  2  0  0  0
 57130  1  0  0  0
 58131  1  0  0  0
 59 60  1  0  0  0
 59 61  1  0  0  0
 59 62  1  0  0  0
 60132  1  0  0  0
 60133  1  0  0  0
 60134  1  0  0  0
 61135  1  0  0  0
 61136  1  0  0  0
 61137  1  0  0  0
 62138  1  0  0  0
 62139  1  0  0  0
 62140  1  0  0  0
 63 65  1  0  0  0
 63141  1  0  0  0
 63142  1  0  0  0
 63143  1  0  0  0
 64144  1  0  0  0
 65145  1  0  0  0
 68 79  1  0  0  0
 71 72  2  0  0  0
 71 82  1  0  0  0
 71146  1  0  0  0
 72 81  1  0  0  0
 72 83  1  0  0  0
 73 75  1  0  0  0
 73 81  1  0  0  0
 73 82  2  0  0  0
 74 77  1  0  0  0
 74 83  1  0  0  0
 74 84  2  0  0  0
 75147  1  0  0  0
 75148  1  0  0  0
 75149  1  0  0  0
 76150  1  0  0  0
 76151  1  0  0  0
 76152  1  0  0  0
 76 79  1  0  0  0
 77 79  1  0  0  0
 77153  1  0  0  0
 77154  1  0  0  0
 78 80  1  0  0  0
 78 81  1  0  0  0
 78155  1  0  0  0
 78156  1  0  0  0
 79157  1  0  0  0
 80 85  1  0  0  0
 80 86  1  0  0  0
 82158  1  0  0  0
 83159  1  0  0  0
M  CHG  1  82   1
M  ISO  4   1 100  68 101  79 101  80 100
M  END
> <chiral flag>
0

> <version>
0

> <s_m_source_file>
/data/baiqing/PycharmProjects/Reinvent-master-3.2/result/LINK_invent/BTK/process_docking_weight1_custom_product_contain_oxygen_bond_distance_aromatic_linkinvent_7_9_3/rearranged_h_0181.sdf

> <i_m_source_file_index>
90

> <r_mmod_Potential_Energy-OPLS-2005>
96.1595687866211

> <r_mmod_Stretch_Energy-OPLS-2005>
140.121810913086

> <r_mmod_Bend_Energy-OPLS-2005>
198.308654785156

> <r_mmod_Torsional_Energy-OPLS-2005>
236.862487792969

> <r_mmod_Improper_Torsional_Energy-OPLS-2005>
5.58223867416382

> <r_mmod_Van_der_Waal_Energy-OPLS-2005>
139.087844848633

> <r_mmod_Electrostatic_Energy-OPLS-2005>
-284.755279541016

> <r_mmod_Solvation_Energy-OPLS-2005>
-433.127380371094

> <b_mmod_Minimization_Converged-OPLS-2005>
0

> <r_mmod_RMS_Derivative-OPLS-2005>
3.81272721290588

$$$$
91
                    3D
 Structure written by MMmdl.
156164  0  0  1  0            999 V2000
  -30.5976  -14.7566   20.5064 C   0  0  0  0  0  0
  -30.4469  -12.4812   19.4459 C   0  0  0  0  0  0
  -29.5073  -12.5495   18.2227 C   0  0  0  0  0  0
  -28.0387  -12.3570   18.6382 C   0  0  0  0  0  0
  -27.6502  -13.2302   19.8597 C   0  0  2  0  0  0
  -28.7037  -13.1338   20.9856 C   0  0  0  0  0  0
  -25.2525  -13.8211   20.5671 C   0  0  0  0  0  0
  -24.1809  -13.0421   20.9191 C   0  0  0  0  0  0
  -24.6437  -11.6914   20.8760 C   0  0  0  0  0  0
  -23.9114  -10.4281   21.0378 C   0  0  0  0  0  0
  -24.3646   -9.4185   21.9151 C   0  0  0  0  0  0
  -23.6296   -8.2251   22.0742 C   0  0  0  0  0  0
  -22.4289   -8.0271   21.3528 C   0  0  0  0  0  0
  -21.9928   -9.0272   20.4648 C   0  0  0  0  0  0
  -22.7278  -10.2131   20.3028 C   0  0  0  0  0  0
  -21.6875   -6.0720   22.5271 C   0  0  0  0  0  0
  -21.4034   -6.5628   23.8192 C   0  0  0  0  0  0
  -21.3665   -5.6783   24.9166 C   0  0  0  0  0  0
  -21.6041   -4.3041   24.7221 C   0  0  0  0  0  0
  -21.8821   -3.8124   23.4345 C   0  0  0  0  0  0
  -21.9202   -4.6950   22.3395 C   0  0  0  0  0  0
  -22.7826  -13.5221   21.1864 C   0  0  0  0  0  0
  -22.1641   -4.2119   21.0976 F   0  0  0  0  0  0
  -21.5648   -3.4532   25.7744 F   0  0  0  0  0  0
  -30.0082  -13.5109   20.4102 N   0  0  0  0  0  0
  -26.2986  -12.9424   20.3329 N   0  0  0  0  0  0
  -25.9389  -11.6560   20.5799 N   0  0  0  0  0  0
  -22.0500  -12.8203   22.0416 N   0  0  0  0  0  0
  -25.4142  -15.1925   20.3952 N   0  0  0  0  0  0
  -31.7745  -14.9252   20.1632 O   0  0  0  0  0  0
  -21.6642   -6.8868   21.4221 O   0  0  0  0  0  0
  -22.3499  -14.5513   20.6682 O   0  0  0  0  0  0
  -24.6245  -31.8605   23.2076 C   0  0  0  0  0  0
  -25.9124  -32.4774   23.8371 C   0  0  1  0  0  0
  -27.2202  -27.2707   20.1964 C   0  0  0  0  0  0
  -25.5974  -33.8575   24.2304 N   0  0  0  0  0  0
  -23.4208  -30.4865   21.5446 C   0  0  2  0  0  0
  -24.8753  -28.9435   20.1129 C   0  0  0  0  0  0
  -22.7455  -29.4640   22.4886 C   0  0  0  0  0  0
  -18.0278  -28.1366   22.8507 C   0  0  0  0  0  0
  -24.1488  -36.7272   23.2639 C   0  0  0  0  0  0
  -25.9620  -30.7900   21.3807 C   0  0  0  0  0  0
  -26.0398  -29.4108   20.7322 C   0  0  0  0  0  0
  -27.2129  -28.5917   20.7578 C   0  0  0  0  0  0
  -26.0280  -26.8712   19.5474 C   0  0  0  0  0  0
  -24.8767  -27.6834   19.4992 C   0  0  0  0  0  0
  -23.6441  -29.8292   20.1552 C   0  0  0  0  0  0
  -25.4114  -36.3092   24.0329 C   0  0  1  0  0  0
  -20.5905  -28.3693   23.1260 C   0  0  2  0  0  0
  -20.6784  -26.9400   22.5414 C   0  0  0  0  0  0
  -19.5743  -26.6371   21.5236 C   0  0  0  0  0  0
  -18.1930  -26.7928   22.1647 C   0  0  0  0  0  0
  -19.1555  -28.8845   23.2908 C   0  0  0  0  0  0
  -18.9480  -30.1473   23.8894 C   0  0  0  0  0  0
  -17.6475  -30.6576   24.0585 C   0  0  0  0  0  0
  -25.9046  -34.9449   23.5103 C   0  0  0  0  0  0
  -16.5368  -29.9095   23.6323 C   0  0  0  0  0  0
  -16.7283  -28.6516   23.0338 C   0  0  0  0  0  0
  -26.4543  -31.6573   25.0707 C   0  0  0  0  0  0
  -25.3809  -31.3685   26.1445 C   0  0  0  0  0  0
  -27.0426  -30.3011   24.6157 C   0  0  0  0  0  0
  -27.6109  -32.4305   25.7457 C   0  0  0  0  0  0
  -27.5577  -37.1779   24.8482 C   0  0  0  0  0  0
  -21.4174  -29.3043   22.3645 N   0  0  0  0  0  0
  -26.4293  -37.3784   23.9436 N   0  0  0  0  0  0
  -24.6865  -31.0638   22.1014 N   0  0  0  0  0  0
  -23.4159  -28.8157   23.2973 O   0  0  0  0  0  0
  -28.3313  -26.3988   20.3344 O   0  0  0  0  0  0
  -26.5608  -34.8914   22.4654 O   0  0  0  0  0  0
  -23.5401  -32.1388   23.7413 O   0  0  0  0  0  0
  -29.4547  -19.8230   21.3731 C   0  0  0  0  0  0
  -28.6112  -19.0172   22.1236 C   0  0  0  0  0  0
  -29.7029  -17.2341   21.0824 C   0  0  0  0  0  0
  -29.6779  -21.3522   21.5573 C   0  0  0  0  0  0
  -27.6039  -19.4641   23.1457 C   0  0  0  0  0  0
  -28.2392  -24.5907   18.6999 C   0  0  0  0  0  0
  -29.2242  -23.8859   21.0306 C   0  0  2  0  0  0
  -28.2185  -24.8960   20.2077 C   0  0  1  0  0  0
  -30.6765  -24.4508   21.0370 C   0  0  0  0  0  0
  -28.7340  -17.6248   21.9153 N   0  0  0  0  0  0
  -29.7212  -15.7814   20.8013 N   0  0  0  0  0  0
  -29.2031  -22.3610   20.7337 N   0  0  0  0  0  0
  -30.2260  -21.6673   22.6134 O   0  0  0  0  0  0
  -31.5738  -23.6805   21.6471 F   0  0  0  0  0  0
  -31.1078  -24.6410   19.7907 F   0  0  0  0  0  0
  -30.6924  -25.6222   21.6746 F   0  0  0  0  0  0
  -30.5455  -18.7153   20.4405 S   0  0  0  0  0  0
  -31.4847  -12.6266   19.1376 H   0  0  0  0  0  0
  -30.4022  -11.4916   19.9061 H   0  0  0  0  0  0
  -29.7914  -11.8055   17.4795 H   0  0  0  0  0  0
  -29.6173  -13.5155   17.7288 H   0  0  0  0  0  0
  -27.8950  -11.3007   18.8672 H   0  0  0  0  0  0
  -27.3766  -12.5758   17.7971 H   0  0  0  0  0  0
  -27.6449  -14.2603   19.5017 H   0  0  0  0  0  0
  -28.7497  -12.1231   21.3902 H   0  0  0  0  0  0
  -28.4339  -13.7814   21.8235 H   0  0  0  0  0  0
  -25.2785   -9.5674   22.4723 H   0  0  0  0  0  0
  -24.0006   -7.4654   22.7453 H   0  0  0  0  0  0
  -21.0876   -8.8792   19.8968 H   0  0  0  0  0  0
  -22.3719  -10.9670   19.6140 H   0  0  0  0  0  0
  -21.2005   -7.6126   23.9692 H   0  0  0  0  0  0
  -21.1497   -6.0507   25.9066 H   0  0  0  0  0  0
  -22.0600   -2.7585   23.2861 H   0  0  0  0  0  0
  -22.4157  -11.9903   22.4838 H   0  0  0  0  0  0
  -21.1088  -13.1157   22.2618 H   0  0  0  0  0  0
  -24.6348  -15.8381   20.4617 H   0  0  0  0  0  0
  -26.2552  -15.6346   20.0485 H   0  0  0  0  0  0
  -26.7156  -32.5477   23.1107 H   0  0  0  0  0  0
  -25.0254  -33.9775   25.0533 H   0  0  0  0  0  0
  -22.7129  -31.3068   21.4030 H   0  0  0  0  0  0
  -23.3788  -35.9576   23.3305 H   0  0  0  0  0  0
  -24.3568  -36.8866   22.2058 H   0  0  0  0  0  0
  -23.7178  -37.6431   23.6650 H   0  0  0  0  0  0
  -26.0962  -31.5506   20.6087 H   0  0  0  0  0  0
  -26.8408  -30.8433   22.0125 H   0  0  0  0  0  0
  -28.0937  -28.9473   21.2737 H   0  0  0  0  0  0
  -25.9276  -25.8987   19.1021 H   0  0  0  0  0  0
  -23.9843  -27.3185   19.0110 H   0  0  0  0  0  0
  -23.7812  -30.6164   19.4105 H   0  0  0  0  0  0
  -22.7613  -29.2728   19.8329 H   0  0  0  0  0  0
  -25.1292  -36.1932   25.0813 H   0  0  0  0  0  0
  -21.0067  -28.3300   24.1363 H   0  0  0  0  0  0
  -20.5725  -26.2301   23.3639 H   0  0  0  0  0  0
  -21.6640  -26.7424   22.1189 H   0  0  0  0  0  0
  -19.6918  -25.6301   21.1236 H   0  0  0  0  0  0
  -19.6677  -27.3223   20.6813 H   0  0  0  0  0  0
  -17.4210  -26.6728   21.4029 H   0  0  0  0  0  0
  -18.0307  -26.0020   22.8999 H   0  0  0  0  0  0
  -19.7956  -30.7331   24.2194 H   0  0  0  0  0  0
  -17.5015  -31.6252   24.5237 H   0  0  0  0  0  0
  -15.5361  -30.3017   23.7619 H   0  0  0  0  0  0
  -15.8684  -28.0865   22.6995 H   0  0  0  0  0  0
  -24.6012  -30.7004   25.7777 H   0  0  0  0  0  0
  -24.9004  -32.2847   26.4880 H   0  0  0  0  0  0
  -25.8157  -30.8848   27.0212 H   0  0  0  0  0  0
  -26.3019  -29.6699   24.1242 H   0  0  0  0  0  0
  -27.4222  -29.7292   25.4647 H   0  0  0  0  0  0
  -27.8837  -30.4315   23.9342 H   0  0  0  0  0  0
  -27.2762  -33.3667   26.1948 H   0  0  0  0  0  0
  -28.3959  -32.6746   25.0283 H   0  0  0  0  0  0
  -28.0750  -31.8473   26.5427 H   0  0  0  0  0  0
  -28.2601  -38.0080   24.7547 H   0  0  0  0  0  0
  -28.1050  -36.2598   24.6285 H   0  0  0  0  0  0
  -27.2294  -37.1408   25.8884 H   0  0  0  0  0  0
  -20.9329  -29.8765   21.6882 H   0  0  0  0  0  0
  -26.0169  -38.2835   24.1482 H   0  0  0  0  0  0
  -26.7761  -20.0003   22.6815 H   0  0  0  0  0  0
  -28.0363  -20.1149   23.9051 H   0  0  0  0  0  0
  -27.1826  -18.6140   23.6800 H   0  0  0  0  0  0
  -28.6704  -23.6178   18.4875 H   0  0  0  0  0  0
  -28.8235  -25.3361   18.1620 H   0  0  0  0  0  0
  -27.2418  -24.5770   18.2656 H   0  0  0  0  0  0
  -28.8978  -23.9482   22.0719 H   0  0  0  0  0  0
  -27.2282  -24.6367   20.5791 H   0  0  0  0  0  0
  -28.8106  -15.3847   20.9586 H   0  0  0  0  0  0
  -28.7793  -22.0734   19.8617 H   0  0  0  0  0  0
  1 25  1  0  0  0
  1 30  2  0  0  0
  1 81  1  0  0  0
  2  3  1  0  0  0
  2 25  1  0  0  0
  2 88  1  0  0  0
  2 89  1  0  0  0
  3  4  1  0  0  0
  3 90  1  0  0  0
  3 91  1  0  0  0
  4  5  1  0  0  0
  4 92  1  0  0  0
  4 93  1  0  0  0
  5  6  1  0  0  0
  5 26  1  0  0  0
  5 94  1  0  0  0
  6 25  1  0  0  0
  6 95  1  0  0  0
  6 96  1  0  0  0
  7  8  2  0  0  0
  7 26  1  0  0  0
  7 29  1  0  0  0
  8  9  1  0  0  0
  8 22  1  0  0  0
  9 10  1  0  0  0
  9 27  2  0  0  0
 10 11  2  0  0  0
 10 15  1  0  0  0
 11 12  1  0  0  0
 11 97  1  0  0  0
 12 13  2  0  0  0
 12 98  1  0  0  0
 13 14  1  0  0  0
 13 31  1  0  0  0
 14 15  2  0  0  0
 14 99  1  0  0  0
 15100  1  0  0  0
 16 17  2  0  0  0
 16 21  1  0  0  0
 16 31  1  0  0  0
 17 18  1  0  0  0
 17101  1  0  0  0
 18 19  2  0  0  0
 18102  1  0  0  0
 19 20  1  0  0  0
 19 24  1  0  0  0
 20 21  2  0  0  0
 20103  1  0  0  0
 21 23  1  0  0  0
 22 28  1  0  0  0
 22 32  2  0  0  0
 26 27  1  0  0  0
 28104  1  0  0  0
 28105  1  0  0  0
 29106  1  0  0  0
 29107  1  0  0  0
 33 34  1  0  0  0
 33 66  1  0  0  0
 33 70  2  0  0  0
 34 36  1  0  0  0
 34 59  1  0  0  0
 34108  1  0  0  0
 35 44  2  0  0  0
 35 45  1  0  0  0
 35 68  1  0  0  0
 36 56  1  0  0  0
 36109  1  0  0  0
 37 39  1  0  0  0
 37 47  1  0  0  0
 37 66  1  0  0  0
 37110  1  0  0  0
 38 43  2  0  0  0
 38 46  1  0  0  0
 38 47  1  0  0  0
 39 64  1  0  0  0
 39 67  2  0  0  0
 40 52  1  0  0  0
 40 53  2  0  0  0
 40 58  1  0  0  0
 41111  1  0  0  0
 41112  1  0  0  0
 41113  1  0  0  0
 41 48  1  0  0  0
 42 43  1  0  0  0
 42 66  1  0  0  0
 42114  1  0  0  0
 42115  1  0  0  0
 43 44  1  0  0  0
 44116  1  0  0  0
 45 46  2  0  0  0
 45117  1  0  0  0
 46118  1  0  0  0
 47119  1  0  0  0
 47120  1  0  0  0
 48 56  1  0  0  0
 48 65  1  0  0  0
 48121  1  0  0  0
 49 50  1  0  0  0
 49 53  1  0  0  0
 49 64  1  0  0  0
 49122  1  0  0  0
 50 51  1  0  0  0
 50123  1  0  0  0
 50124  1  0  0  0
 51 52  1  0  0  0
 51125  1  0  0  0
 51126  1  0  0  0
 52127  1  0  0  0
 52128  1  0  0  0
 53 54  1  0  0  0
 54 55  2  0  0  0
 54129  1  0  0  0
 55 57  1  0  0  0
 55130  1  0  0  0
 56 69  2  0  0  0
 57 58  2  0  0  0
 57131  1  0  0  0
 58132  1  0  0  0
 59 60  1  0  0  0
 59 61  1  0  0  0
 59 62  1  0  0  0
 60133  1  0  0  0
 60134  1  0  0  0
 60135  1  0  0  0
 61136  1  0  0  0
 61137  1  0  0  0
 61138  1  0  0  0
 62139  1  0  0  0
 62140  1  0  0  0
 62141  1  0  0  0
 63 65  1  0  0  0
 63142  1  0  0  0
 63143  1  0  0  0
 63144  1  0  0  0
 64145  1  0  0  0
 65146  1  0  0  0
 68 78  1  0  0  0
 71 72  2  0  0  0
 71 74  1  0  0  0
 71 87  1  0  0  0
 72 75  1  0  0  0
 72 80  1  0  0  0
 73 80  2  0  0  0
 73 81  1  0  0  0
 73 87  1  0  0  0
 74 82  1  0  0  0
 74 83  2  0  0  0
 75147  1  0  0  0
 75148  1  0  0  0
 75149  1  0  0  0
 76150  1  0  0  0
 76151  1  0  0  0
 76152  1  0  0  0
 76 78  1  0  0  0
 77 78  1  0  0  0
 77 79  1  0  0  0
 77 82  1  0  0  0
 77153  1  0  0  0
 78154  1  0  0  0
 79 84  1  0  0  0
 79 85  1  0  0  0
 79 86  1  0  0  0
 81155  1  0  0  0
 82156  1  0  0  0
M  ISO  4   1 100  68 101  78 101  81 100
M  END
> <chiral flag>
0

> <version>
0

> <s_m_source_file>
/data/baiqing/PycharmProjects/Reinvent-master-3.2/result/LINK_invent/BTK/process_docking_weight1_custom_product_contain_oxygen_bond_distance_aromatic_linkinvent_7_9_3/rearranged_h_0181.sdf

> <i_m_source_file_index>
91

> <r_mmod_Potential_Energy-OPLS-2005>
90.4744110107422

> <r_mmod_Stretch_Energy-OPLS-2005>
129.148284912109

> <r_mmod_Bend_Energy-OPLS-2005>
225.656234741211

> <r_mmod_Torsional_Energy-OPLS-2005>
274.702850341797

> <r_mmod_Improper_Torsional_Energy-OPLS-2005>
9.09380149841309

> <r_mmod_Van_der_Waal_Energy-OPLS-2005>
123.356262207031

> <r_mmod_Electrostatic_Energy-OPLS-2005>
-529.448120117188

> <r_mmod_Solvation_Energy-OPLS-2005>
-231.85710144043

> <b_mmod_Minimization_Converged-OPLS-2005>
0

> <r_mmod_RMS_Derivative-OPLS-2005>
6.80491256713867

$$$$
92
                    3D
 Structure written by MMmdl.
151159  0  0  1  0            999 V2000
  -30.5606  -14.7646   20.4722 C   0  0  0  0  0  0
  -30.4519  -12.4683   19.4671 C   0  0  0  0  0  0
  -29.5171  -12.5195   18.2356 C   0  0  0  0  0  0
  -28.0431  -12.3330   18.6495 C   0  0  0  0  0  0
  -27.6491  -13.2222   19.8578 C   0  0  2  0  0  0
  -28.6955  -13.1215   20.9906 C   0  0  0  0  0  0
  -25.2550  -13.8171   20.5695 C   0  0  0  0  0  0
  -24.1825  -13.0430   20.9194 C   0  0  0  0  0  0
  -24.6401  -11.6903   20.8737 C   0  0  0  0  0  0
  -23.9071  -10.4285   21.0404 C   0  0  0  0  0  0
  -24.3620   -9.4201   21.9184 C   0  0  0  0  0  0
  -23.6293   -8.2239   22.0756 C   0  0  0  0  0  0
  -22.4276   -8.0276   21.3544 C   0  0  0  0  0  0
  -21.9911   -9.0251   20.4649 C   0  0  0  0  0  0
  -22.7242  -10.2128   20.3054 C   0  0  0  0  0  0
  -21.6852   -6.0733   22.5279 C   0  0  0  0  0  0
  -21.4015   -6.5638   23.8213 C   0  0  0  0  0  0
  -21.3658   -5.6792   24.9175 C   0  0  0  0  0  0
  -21.6043   -4.3054   24.7230 C   0  0  0  0  0  0
  -21.8819   -3.8144   23.4352 C   0  0  0  0  0  0
  -21.9195   -4.6960   22.3406 C   0  0  0  0  0  0
  -22.7846  -13.5224   21.1856 C   0  0  0  0  0  0
  -22.1663   -4.2145   21.0984 F   0  0  0  0  0  0
  -21.5626   -3.4538   25.7743 F   0  0  0  0  0  0
  -29.9986  -13.5050   20.4228 N   0  0  0  0  0  0
  -26.2975  -12.9359   20.3297 N   0  0  0  0  0  0
  -25.9334  -11.6510   20.5751 N   0  0  0  0  0  0
  -22.0489  -12.8215   22.0409 N   0  0  0  0  0  0
  -25.4253  -15.1897   20.4137 N   0  0  0  0  0  0
  -31.7293  -14.9364   20.1077 O   0  0  0  0  0  0
  -21.6639   -6.8874   21.4240 O   0  0  0  0  0  0
  -22.3534  -14.5531   20.6705 O   0  0  0  0  0  0
  -24.6334  -31.8542   23.1972 C   0  0  0  0  0  0
  -25.9149  -32.4751   23.8328 C   0  0  1  0  0  0
  -27.2206  -27.2465   20.1289 C   0  0  0  0  0  0
  -25.5940  -33.8554   24.2248 N   0  0  0  0  0  0
  -23.4311  -30.4763   21.5420 C   0  0  2  0  0  0
  -24.8785  -28.9230   20.1106 C   0  0  0  0  0  0
  -22.7517  -29.4588   22.4911 C   0  0  0  0  0  0
  -18.0296  -28.1390   22.8486 C   0  0  0  0  0  0
  -24.1491  -36.7279   23.2642 C   0  0  0  0  0  0
  -25.9789  -30.7618   21.3803 C   0  0  0  0  0  0
  -26.0520  -29.3838   20.7208 C   0  0  0  0  0  0
  -27.2264  -28.5601   20.7159 C   0  0  0  0  0  0
  -26.0230  -26.8629   19.4835 C   0  0  0  0  0  0
  -24.8706  -27.6715   19.4797 C   0  0  0  0  0  0
  -23.6505  -29.8121   20.1578 C   0  0  0  0  0  0
  -25.4120  -36.3067   24.0325 C   0  0  1  0  0  0
  -20.5901  -28.3699   23.1269 C   0  0  2  0  0  0
  -20.6787  -26.9416   22.5407 C   0  0  0  0  0  0
  -19.5761  -26.6384   21.5214 C   0  0  0  0  0  0
  -18.1942  -26.7932   22.1624 C   0  0  0  0  0  0
  -19.1551  -28.8863   23.2871 C   0  0  0  0  0  0
  -18.9467  -30.1465   23.8885 C   0  0  0  0  0  0
  -17.6465  -30.6590   24.0562 C   0  0  0  0  0  0
  -25.9061  -34.9438   23.5088 C   0  0  0  0  0  0
  -16.5356  -29.9084   23.6336 C   0  0  0  0  0  0
  -16.7281  -28.6503   23.0357 C   0  0  0  0  0  0
  -26.4504  -31.6583   25.0726 C   0  0  0  0  0  0
  -25.3715  -31.3737   26.1437 C   0  0  0  0  0  0
  -27.0352  -30.2996   24.6224 C   0  0  0  0  0  0
  -27.6055  -32.4328   25.7502 C   0  0  0  0  0  0
  -27.5577  -37.1797   24.8465 C   0  0  0  0  0  0
  -21.4220  -29.3040   22.3653 N   0  0  0  0  0  0
  -26.4289  -37.3770   23.9408 N   0  0  0  0  0  0
  -24.7003  -31.0490   22.0960 N   0  0  0  0  0  0
  -23.4206  -28.8132   23.3023 O   0  0  0  0  0  0
  -28.3085  -26.3336   20.1811 O   0  0  0  0  0  0
  -26.5634  -34.8915   22.4658 O   0  0  0  0  0  0
  -23.5477  -32.1372   23.7249 O   0  0  0  0  0  0
  -29.7072  -19.9263   20.4122 C   0  0  0  0  0  0
  -28.5787  -19.3539   20.9891 C   0  0  0  0  0  0
  -29.6610  -17.2803   20.6845 C   0  0  0  0  0  0
  -30.0751  -21.3781   20.1197 C   0  0  0  0  0  0
  -29.2902  -23.8461   20.2090 C   0  0  0  0  0  0
  -27.3989  -24.6552   21.7413 C   0  0  0  0  0  0
  -28.0384  -24.8450   20.3525 C   0  0  1  0  0  0
  -28.5597  -17.9352   21.0956 N   0  0  0  0  0  0
  -27.4601  -20.0410   21.4680 N   0  0  0  0  0  0
  -29.6975  -15.7985   20.7988 N   0  0  0  0  0  0
  -29.1574  -22.4404   20.2814 N   0  0  0  0  0  0
  -30.3731  -24.4193   20.0424 O   0  0  0  0  0  0
  -31.6562  -21.6104   19.5715 S   0  0  0  0  0  0
  -30.8090  -18.5025   20.0578 S   0  0  0  0  0  0
  -31.4873  -12.6226   19.1592 H   0  0  0  0  0  0
  -30.4229  -11.4824   19.9337 H   0  0  0  0  0  0
  -29.8021  -11.7543   17.5123 H   0  0  0  0  0  0
  -29.6342  -13.4776   17.7263 H   0  0  0  0  0  0
  -27.9032  -11.2820   18.9059 H   0  0  0  0  0  0
  -27.3839  -12.5292   17.8029 H   0  0  0  0  0  0
  -27.6505  -14.2486   19.4903 H   0  0  0  0  0  0
  -28.7372  -12.1057   21.3869 H   0  0  0  0  0  0
  -28.4212  -13.7576   21.8337 H   0  0  0  0  0  0
  -25.2766   -9.5675   22.4759 H   0  0  0  0  0  0
  -23.9999   -7.4633   22.7481 H   0  0  0  0  0  0
  -21.0837   -8.8769   19.8964 H   0  0  0  0  0  0
  -22.3698  -10.9664   19.6161 H   0  0  0  0  0  0
  -21.2004   -7.6147   23.9712 H   0  0  0  0  0  0
  -21.1481   -6.0525   25.9077 H   0  0  0  0  0  0
  -22.0600   -2.7607   23.2856 H   0  0  0  0  0  0
  -22.4106  -11.9871   22.4790 H   0  0  0  0  0  0
  -21.1108  -13.1239   22.2621 H   0  0  0  0  0  0
  -24.6591  -15.8423   20.5383 H   0  0  0  0  0  0
  -26.2736  -15.6382   20.0917 H   0  0  0  0  0  0
  -26.7216  -32.5389   23.1069 H   0  0  0  0  0  0
  -25.0087  -33.9695   25.0393 H   0  0  0  0  0  0
  -22.7282  -31.2991   21.3957 H   0  0  0  0  0  0
  -23.3759  -35.9606   23.3302 H   0  0  0  0  0  0
  -24.3581  -36.8906   22.2058 H   0  0  0  0  0  0
  -23.7240  -37.6477   23.6670 H   0  0  0  0  0  0
  -26.1211  -31.5227   20.6117 H   0  0  0  0  0  0
  -26.8556  -30.8091   22.0148 H   0  0  0  0  0  0
  -28.1235  -28.9082   21.2080 H   0  0  0  0  0  0
  -25.9444  -25.9145   18.9769 H   0  0  0  0  0  0
  -23.9746  -27.3164   18.9893 H   0  0  0  0  0  0
  -23.7777  -30.5900   19.4041 H   0  0  0  0  0  0
  -22.7680  -29.2481   19.8507 H   0  0  0  0  0  0
  -25.1304  -36.1914   25.0817 H   0  0  0  0  0  0
  -20.9990  -28.3276   24.1391 H   0  0  0  0  0  0
  -20.5700  -26.2303   23.3611 H   0  0  0  0  0  0
  -21.6654  -26.7448   22.1192 H   0  0  0  0  0  0
  -19.6924  -25.6293   21.1252 H   0  0  0  0  0  0
  -19.6704  -27.3191   20.6743 H   0  0  0  0  0  0
  -17.4212  -26.6684   21.4025 H   0  0  0  0  0  0
  -18.0336  -26.0075   22.9020 H   0  0  0  0  0  0
  -19.7942  -30.7291   24.2243 H   0  0  0  0  0  0
  -17.5018  -31.6269   24.5169 H   0  0  0  0  0  0
  -15.5357  -30.2983   23.7667 H   0  0  0  0  0  0
  -15.8681  -28.0819   22.7077 H   0  0  0  0  0  0
  -24.5901  -30.7076   25.7759 H   0  0  0  0  0  0
  -24.8892  -32.2905   26.4837 H   0  0  0  0  0  0
  -25.8023  -30.8931   27.0229 H   0  0  0  0  0  0
  -26.2938  -29.6744   24.1235 H   0  0  0  0  0  0
  -27.4015  -29.7263   25.4751 H   0  0  0  0  0  0
  -27.8826  -30.4271   23.9485 H   0  0  0  0  0  0
  -27.2665  -33.3642   26.2050 H   0  0  0  0  0  0
  -28.3881  -32.6867   25.0339 H   0  0  0  0  0  0
  -28.0705  -31.8470   26.5442 H   0  0  0  0  0  0
  -28.2593  -38.0096   24.7515 H   0  0  0  0  0  0
  -28.1074  -36.2627   24.6290 H   0  0  0  0  0  0
  -27.2292  -37.1442   25.8867 H   0  0  0  0  0  0
  -20.9410  -29.8753   21.6847 H   0  0  0  0  0  0
  -26.0166  -38.2841   24.1414 H   0  0  0  0  0  0
  -27.1823  -23.6080   21.9515 H   0  0  0  0  0  0
  -26.4562  -25.1952   21.8259 H   0  0  0  0  0  0
  -28.0605  -25.0212   22.5270 H   0  0  0  0  0  0
  -27.3433  -24.5034   19.5886 H   0  0  0  0  0  0
  -27.6503  -20.8374   22.0645 H   0  0  0  0  0  0
  -26.7668  -19.4462   21.9095 H   0  0  0  0  0  0
  -28.8226  -15.4264   21.1289 H   0  0  0  0  0  0
  -28.2176  -22.1344   20.4811 H   0  0  0  0  0  0
  1 25  1  0  0  0
  1 30  2  0  0  0
  1 80  1  0  0  0
  2  3  1  0  0  0
  2 25  1  0  0  0
  2 85  1  0  0  0
  2 86  1  0  0  0
  3  4  1  0  0  0
  3 87  1  0  0  0
  3 88  1  0  0  0
  4  5  1  0  0  0
  4 89  1  0  0  0
  4 90  1  0  0  0
  5  6  1  0  0  0
  5 26  1  0  0  0
  5 91  1  0  0  0
  6 25  1  0  0  0
  6 92  1  0  0  0
  6 93  1  0  0  0
  7  8  2  0  0  0
  7 26  1  0  0  0
  7 29  1  0  0  0
  8  9  1  0  0  0
  8 22  1  0  0  0
  9 10  1  0  0  0
  9 27  2  0  0  0
 10 11  2  0  0  0
 10 15  1  0  0  0
 11 12  1  0  0  0
 11 94  1  0  0  0
 12 13  2  0  0  0
 12 95  1  0  0  0
 13 14  1  0  0  0
 13 31  1  0  0  0
 14 15  2  0  0  0
 14 96  1  0  0  0
 15 97  1  0  0  0
 16 17  2  0  0  0
 16 21  1  0  0  0
 16 31  1  0  0  0
 17 18  1  0  0  0
 17 98  1  0  0  0
 18 19  2  0  0  0
 18 99  1  0  0  0
 19 20  1  0  0  0
 19 24  1  0  0  0
 20 21  2  0  0  0
 20100  1  0  0  0
 21 23  1  0  0  0
 22 28  1  0  0  0
 22 32  2  0  0  0
 26 27  1  0  0  0
 28101  1  0  0  0
 28102  1  0  0  0
 29103  1  0  0  0
 29104  1  0  0  0
 33 34  1  0  0  0
 33 66  1  0  0  0
 33 70  2  0  0  0
 34 36  1  0  0  0
 34 59  1  0  0  0
 34105  1  0  0  0
 35 44  2  0  0  0
 35 45  1  0  0  0
 35 68  1  0  0  0
 36 56  1  0  0  0
 36106  1  0  0  0
 37 39  1  0  0  0
 37 47  1  0  0  0
 37 66  1  0  0  0
 37107  1  0  0  0
 38 43  2  0  0  0
 38 46  1  0  0  0
 38 47  1  0  0  0
 39 64  1  0  0  0
 39 67  2  0  0  0
 40 52  1  0  0  0
 40 53  2  0  0  0
 40 58  1  0  0  0
 41108  1  0  0  0
 41109  1  0  0  0
 41110  1  0  0  0
 41 48  1  0  0  0
 42 43  1  0  0  0
 42 66  1  0  0  0
 42111  1  0  0  0
 42112  1  0  0  0
 43 44  1  0  0  0
 44113  1  0  0  0
 45 46  2  0  0  0
 45114  1  0  0  0
 46115  1  0  0  0
 47116  1  0  0  0
 47117  1  0  0  0
 48 56  1  0  0  0
 48 65  1  0  0  0
 48118  1  0  0  0
 49 50  1  0  0  0
 49 53  1  0  0  0
 49 64  1  0  0  0
 49119  1  0  0  0
 50 51  1  0  0  0
 50120  1  0  0  0
 50121  1  0  0  0
 51 52  1  0  0  0
 51122  1  0  0  0
 51123  1  0  0  0
 52124  1  0  0  0
 52125  1  0  0  0
 53 54  1  0  0  0
 54 55  2  0  0  0
 54126  1  0  0  0
 55 57  1  0  0  0
 55127  1  0  0  0
 56 69  2  0  0  0
 57 58  2  0  0  0
 57128  1  0  0  0
 58129  1  0  0  0
 59 60  1  0  0  0
 59 61  1  0  0  0
 59 62  1  0  0  0
 60130  1  0  0  0
 60131  1  0  0  0
 60132  1  0  0  0
 61133  1  0  0  0
 61134  1  0  0  0
 61135  1  0  0  0
 62136  1  0  0  0
 62137  1  0  0  0
 62138  1  0  0  0
 63 65  1  0  0  0
 63139  1  0  0  0
 63140  1  0  0  0
 63141  1  0  0  0
 64142  1  0  0  0
 65143  1  0  0  0
 68 77  1  0  0  0
 71 72  2  0  0  0
 71 74  1  0  0  0
 71 84  1  0  0  0
 72 78  1  0  0  0
 72 79  1  0  0  0
 73 78  2  0  0  0
 73 80  1  0  0  0
 73 84  1  0  0  0
 74 81  1  0  0  0
 74 83  2  0  0  0
 75 77  1  0  0  0
 75 81  1  0  0  0
 75 82  2  0  0  0
 76144  1  0  0  0
 76145  1  0  0  0
 76146  1  0  0  0
 76 77  1  0  0  0
 77147  1  0  0  0
 79148  1  0  0  0
 79149  1  0  0  0
 80150  1  0  0  0
 81151  1  0  0  0
M  ISO  4   1 100  68 101  77 101  80 100
M  END
> <chiral flag>
0

> <version>
0

> <s_m_source_file>
/data/baiqing/PycharmProjects/Reinvent-master-3.2/result/LINK_invent/BTK/process_docking_weight1_custom_product_contain_oxygen_bond_distance_aromatic_linkinvent_7_9_3/rearranged_h_0181.sdf

> <i_m_source_file_index>
92

> <r_mmod_Potential_Energy-OPLS-2005>
38.0964813232422

> <r_mmod_Stretch_Energy-OPLS-2005>
141.54914855957

> <r_mmod_Bend_Energy-OPLS-2005>
197.088760375977

> <r_mmod_Torsional_Energy-OPLS-2005>
225.264907836914

> <r_mmod_Improper_Torsional_Energy-OPLS-2005>
8.68372440338135

> <r_mmod_Van_der_Waal_Energy-OPLS-2005>
142.702850341797

> <r_mmod_Electrostatic_Energy-OPLS-2005>
-482.603271484375

> <r_mmod_Solvation_Energy-OPLS-2005>
-289.088256835938

> <b_mmod_Minimization_Converged-OPLS-2005>
0

> <r_mmod_RMS_Derivative-OPLS-2005>
0.601221680641174

$$$$
93
                    3D
 Structure written by MMmdl.
150157  0  0  1  0            999 V2000
  -30.5145  -14.9340   20.4246 C   0  0  0  0  0  0
  -30.4494  -12.5688   19.5033 C   0  0  0  0  0  0
  -29.5289  -12.5319   18.2592 C   0  0  0  0  0  0
  -28.0584  -12.3181   18.6689 C   0  0  0  0  0  0
  -27.6341  -13.2427   19.8388 C   0  0  2  0  0  0
  -28.6744  -13.2505   20.9777 C   0  0  0  0  0  0
  -25.2491  -13.8201   20.5707 C   0  0  0  0  0  0
  -24.1796  -13.0429   20.9209 C   0  0  0  0  0  0
  -24.6404  -11.6913   20.8735 C   0  0  0  0  0  0
  -23.9080  -10.4286   21.0397 C   0  0  0  0  0  0
  -24.3628   -9.4202   21.9176 C   0  0  0  0  0  0
  -23.6299   -8.2240   22.0751 C   0  0  0  0  0  0
  -22.4279   -8.0280   21.3543 C   0  0  0  0  0  0
  -21.9917   -9.0251   20.4643 C   0  0  0  0  0  0
  -22.7250  -10.2128   20.3049 C   0  0  0  0  0  0
  -21.6854   -6.0736   22.5278 C   0  0  0  0  0  0
  -21.4015   -6.5640   23.8211 C   0  0  0  0  0  0
  -21.3662   -5.6793   24.9174 C   0  0  0  0  0  0
  -21.6045   -4.3055   24.7224 C   0  0  0  0  0  0
  -21.8820   -3.8146   23.4344 C   0  0  0  0  0  0
  -21.9194   -4.6963   22.3401 C   0  0  0  0  0  0
  -22.7815  -13.5203   21.1874 C   0  0  0  0  0  0
  -22.1662   -4.2149   21.0979 F   0  0  0  0  0  0
  -21.5630   -3.4539   25.7737 F   0  0  0  0  0  0
  -29.9631  -13.6536   20.4012 N   0  0  0  0  0  0
  -26.2911  -12.9421   20.3228 N   0  0  0  0  0  0
  -25.9335  -11.6554   20.5713 N   0  0  0  0  0  0
  -22.0474  -12.8186   22.0435 N   0  0  0  0  0  0
  -25.4167  -15.1932   20.4182 N   0  0  0  0  0  0
  -31.7114  -15.0184   20.1239 O   0  0  0  0  0  0
  -21.6642   -6.8878   21.4239 O   0  0  0  0  0  0
  -22.3489  -14.5507   20.6725 O   0  0  0  0  0  0
  -24.6429  -31.8445   23.1884 C   0  0  0  0  0  0
  -25.9201  -32.4698   23.8273 C   0  0  1  0  0  0
  -27.2177  -27.1407   20.1492 C   0  0  0  0  0  0
  -25.5951  -33.8505   24.2190 N   0  0  0  0  0  0
  -23.4466  -30.4643   21.5339 C   0  0  2  0  0  0
  -24.8960  -28.8917   20.1105 C   0  0  0  0  0  0
  -22.7565  -29.4550   22.4857 C   0  0  0  0  0  0
  -18.0307  -28.1393   22.8476 C   0  0  0  0  0  0
  -24.1491  -36.7258   23.2643 C   0  0  0  0  0  0
  -26.0025  -30.7199   21.3865 C   0  0  0  0  0  0
  -26.0739  -29.3317   20.7274 C   0  0  0  0  0  0
  -27.2365  -28.4730   20.7278 C   0  0  0  0  0  0
  -26.0120  -26.8007   19.4962 C   0  0  0  0  0  0
  -24.8778  -27.6398   19.4791 C   0  0  0  0  0  0
  -23.6730  -29.7937   20.1532 C   0  0  0  0  0  0
  -25.4124  -36.3035   24.0315 C   0  0  1  0  0  0
  -20.5919  -28.3719   23.1232 C   0  0  2  0  0  0
  -20.6790  -26.9422   22.5402 C   0  0  0  0  0  0
  -19.5764  -26.6380   21.5208 C   0  0  0  0  0  0
  -18.1946  -26.7932   22.1621 C   0  0  0  0  0  0
  -19.1564  -28.8874   23.2847 C   0  0  0  0  0  0
  -18.9480  -30.1469   23.8874 C   0  0  0  0  0  0
  -17.6476  -30.6590   24.0558 C   0  0  0  0  0  0
  -25.9072  -34.9410   23.5062 C   0  0  0  0  0  0
  -16.5368  -29.9083   23.6334 C   0  0  0  0  0  0
  -16.7291  -28.6502   23.0354 C   0  0  0  0  0  0
  -26.4522  -31.6569   25.0716 C   0  0  0  0  0  0
  -25.3701  -31.3758   26.1406 C   0  0  0  0  0  0
  -27.0389  -30.2965   24.6298 C   0  0  0  0  0  0
  -27.6048  -32.4340   25.7502 C   0  0  0  0  0  0
  -27.5576  -37.1786   24.8465 C   0  0  0  0  0  0
  -21.4259  -29.3049   22.3604 N   0  0  0  0  0  0
  -26.4288  -37.3747   23.9407 N   0  0  0  0  0  0
  -24.7172  -31.0306   22.0915 N   0  0  0  0  0  0
  -23.4208  -28.8096   23.3006 O   0  0  0  0  0  0
  -28.2727  -26.1586   20.2155 O   0  0  0  0  0  0
  -26.5659  -34.8904   22.4641 O   0  0  0  0  0  0
  -23.5548  -32.1321   23.7106 O   0  0  0  0  0  0
  -28.5111  -21.7475   20.3663 C   0  0  0  0  0  0
  -29.0153  -19.1880   20.4824 C   0  0  0  0  0  0
  -29.7464  -23.5696   21.7102 C   0  0  0  0  0  0
  -29.6338  -16.3189   20.6735 C   0  0  0  0  0  0
  -27.9779  -24.6303   20.1168 C   0  0  0  0  0  0
  -29.0216  -23.3272   20.3769 C   0  0  2  0  0  0
  -30.0821  -17.9223   20.3998 C   0  0  1  0  0  0
  -29.3319  -20.5780   20.3754 N   0  0  0  0  0  0
  -27.2832  -21.6260   20.3596 O   0  0  0  0  0  0
  -27.8401  -18.8439   20.6522 O   0  0  0  0  0  0
  -30.6746  -17.9929   19.2025 F   0  0  0  0  0  0
  -31.4843  -12.7263   19.1968 H   0  0  0  0  0  0
  -30.4364  -11.6090   20.0227 H   0  0  0  0  0  0
  -29.8462  -11.7427   17.5766 H   0  0  0  0  0  0
  -29.6228  -13.4693   17.7087 H   0  0  0  0  0  0
  -27.9480  -11.2746   18.9664 H   0  0  0  0  0  0
  -27.3995  -12.4617   17.8117 H   0  0  0  0  0  0
  -27.6015  -14.2471   19.4182 H   0  0  0  0  0  0
  -28.7488  -12.2683   21.4471 H   0  0  0  0  0  0
  -28.3745  -13.9446   21.7639 H   0  0  0  0  0  0
  -25.2773   -9.5680   22.4749 H   0  0  0  0  0  0
  -24.0008   -7.4634   22.7473 H   0  0  0  0  0  0
  -21.0846   -8.8771   19.8949 H   0  0  0  0  0  0
  -22.3706  -10.9666   19.6158 H   0  0  0  0  0  0
  -21.2006   -7.6147   23.9713 H   0  0  0  0  0  0
  -21.1485   -6.0523   25.9077 H   0  0  0  0  0  0
  -22.0597   -2.7608   23.2844 H   0  0  0  0  0  0
  -22.4108  -11.9854   22.4823 H   0  0  0  0  0  0
  -21.1088  -13.1191   22.2645 H   0  0  0  0  0  0
  -24.6508  -15.8458   20.5456 H   0  0  0  0  0  0
  -26.2714  -15.6433   20.1166 H   0  0  0  0  0  0
  -26.7266  -32.5305   23.1001 H   0  0  0  0  0  0
  -25.0066  -33.9622   25.0316 H   0  0  0  0  0  0
  -22.7491  -31.2900   21.3795 H   0  0  0  0  0  0
  -23.3757  -35.9585   23.3294 H   0  0  0  0  0  0
  -24.3575  -36.8904   22.2060 H   0  0  0  0  0  0
  -23.7242  -37.6449   23.6688 H   0  0  0  0  0  0
  -26.1583  -31.4749   20.6148 H   0  0  0  0  0  0
  -26.8729  -30.7696   22.0291 H   0  0  0  0  0  0
  -28.1344  -28.8054   21.2298 H   0  0  0  0  0  0
  -25.9092  -25.8443   19.0072 H   0  0  0  0  0  0
  -23.9782  -27.2984   18.9858 H   0  0  0  0  0  0
  -23.8102  -30.5682   19.3976 H   0  0  0  0  0  0
  -22.7878  -29.2359   19.8422 H   0  0  0  0  0  0
  -25.1314  -36.1863   25.0808 H   0  0  0  0  0  0
  -21.0014  -28.3311   24.1352 H   0  0  0  0  0  0
  -20.5677  -26.2334   23.3624 H   0  0  0  0  0  0
  -21.6656  -26.7423   22.1204 H   0  0  0  0  0  0
  -19.6923  -25.6283   21.1255 H   0  0  0  0  0  0
  -19.6701  -27.3173   20.6724 H   0  0  0  0  0  0
  -17.4214  -26.6673   21.4026 H   0  0  0  0  0  0
  -18.0348  -26.0079   22.9024 H   0  0  0  0  0  0
  -19.7956  -30.7290   24.2236 H   0  0  0  0  0  0
  -17.5030  -31.6267   24.5162 H   0  0  0  0  0  0
  -15.5367  -30.2977   23.7670 H   0  0  0  0  0  0
  -15.8693  -28.0812   22.7082 H   0  0  0  0  0  0
  -24.5891  -30.7096   25.7723 H   0  0  0  0  0  0
  -24.8875  -32.2937   26.4768 H   0  0  0  0  0  0
  -25.7978  -30.8973   27.0225 H   0  0  0  0  0  0
  -26.3007  -29.6687   24.1294 H   0  0  0  0  0  0
  -27.3990  -29.7269   25.4876 H   0  0  0  0  0  0
  -27.8919  -30.4204   23.9623 H   0  0  0  0  0  0
  -27.2641  -33.3664   26.2013 H   0  0  0  0  0  0
  -28.3891  -32.6863   25.0352 H   0  0  0  0  0  0
  -28.0677  -31.8509   26.5473 H   0  0  0  0  0  0
  -28.2585  -38.0091   24.7513 H   0  0  0  0  0  0
  -28.1082  -36.2620   24.6294 H   0  0  0  0  0  0
  -27.2292  -37.1435   25.8868 H   0  0  0  0  0  0
  -20.9465  -29.8769   21.6793 H   0  0  0  0  0  0
  -26.0155  -38.2814   24.1412 H   0  0  0  0  0  0
  -30.4807  -22.7919   21.9230 H   0  0  0  0  0  0
  -29.0395  -23.5975   22.5405 H   0  0  0  0  0  0
  -30.2755  -24.5225   21.6958 H   0  0  0  0  0  0
  -28.7253  -16.1743   20.0920 H   0  0  0  0  0  0
  -29.3020  -16.2683   21.7098 H   0  0  0  0  0  0
  -27.5950  -24.4715   19.1090 H   0  0  0  0  0  0
  -27.1206  -24.4620   20.7698 H   0  0  0  0  0  0
  -29.7736  -23.3804   19.5895 H   0  0  0  0  0  0
  -30.8742  -18.1560   21.1109 H   0  0  0  0  0  0
  -30.3217  -20.7573   20.2967 H   0  0  0  0  0  0
  1 25  1  0  0  0
  1 30  2  0  0  0
  1 74  1  0  0  0
  2  3  1  0  0  0
  2 25  1  0  0  0
  2 82  1  0  0  0
  2 83  1  0  0  0
  3  4  1  0  0  0
  3 84  1  0  0  0
  3 85  1  0  0  0
  4  5  1  0  0  0
  4 86  1  0  0  0
  4 87  1  0  0  0
  5  6  1  0  0  0
  5 26  1  0  0  0
  5 88  1  0  0  0
  6 25  1  0  0  0
  6 89  1  0  0  0
  6 90  1  0  0  0
  7  8  2  0  0  0
  7 26  1  0  0  0
  7 29  1  0  0  0
  8  9  1  0  0  0
  8 22  1  0  0  0
  9 10  1  0  0  0
  9 27  2  0  0  0
 10 11  2  0  0  0
 10 15  1  0  0  0
 11 12  1  0  0  0
 11 91  1  0  0  0
 12 13  2  0  0  0
 12 92  1  0  0  0
 13 14  1  0  0  0
 13 31  1  0  0  0
 14 15  2  0  0  0
 14 93  1  0  0  0
 15 94  1  0  0  0
 16 17  2  0  0  0
 16 21  1  0  0  0
 16 31  1  0  0  0
 17 18  1  0  0  0
 17 95  1  0  0  0
 18 19  2  0  0  0
 18 96  1  0  0  0
 19 20  1  0  0  0
 19 24  1  0  0  0
 20 21  2  0  0  0
 20 97  1  0  0  0
 21 23  1  0  0  0
 22 28  1  0  0  0
 22 32  2  0  0  0
 26 27  1  0  0  0
 28 98  1  0  0  0
 28 99  1  0  0  0
 29100  1  0  0  0
 29101  1  0  0  0
 33 34  1  0  0  0
 33 66  1  0  0  0
 33 70  2  0  0  0
 34 36  1  0  0  0
 34 59  1  0  0  0
 34102  1  0  0  0
 35 44  2  0  0  0
 35 45  1  0  0  0
 35 68  1  0  0  0
 36 56  1  0  0  0
 36103  1  0  0  0
 37 39  1  0  0  0
 37 47  1  0  0  0
 37 66  1  0  0  0
 37104  1  0  0  0
 38 43  2  0  0  0
 38 46  1  0  0  0
 38 47  1  0  0  0
 39 64  1  0  0  0
 39 67  2  0  0  0
 40 52  1  0  0  0
 40 53  2  0  0  0
 40 58  1  0  0  0
 41105  1  0  0  0
 41106  1  0  0  0
 41107  1  0  0  0
 41 48  1  0  0  0
 42 43  1  0  0  0
 42 66  1  0  0  0
 42108  1  0  0  0
 42109  1  0  0  0
 43 44  1  0  0  0
 44110  1  0  0  0
 45 46  2  0  0  0
 45111  1  0  0  0
 46112  1  0  0  0
 47113  1  0  0  0
 47114  1  0  0  0
 48 56  1  0  0  0
 48 65  1  0  0  0
 48115  1  0  0  0
 49 50  1  0  0  0
 49 53  1  0  0  0
 49 64  1  0  0  0
 49116  1  0  0  0
 50 51  1  0  0  0
 50117  1  0  0  0
 50118  1  0  0  0
 51 52  1  0  0  0
 51119  1  0  0  0
 51120  1  0  0  0
 52121  1  0  0  0
 52122  1  0  0  0
 53 54  1  0  0  0
 54 55  2  0  0  0
 54123  1  0  0  0
 55 57  1  0  0  0
 55124  1  0  0  0
 56 69  2  0  0  0
 57 58  2  0  0  0
 57125  1  0  0  0
 58126  1  0  0  0
 59 60  1  0  0  0
 59 61  1  0  0  0
 59 62  1  0  0  0
 60127  1  0  0  0
 60128  1  0  0  0
 60129  1  0  0  0
 61130  1  0  0  0
 61131  1  0  0  0
 61132  1  0  0  0
 62133  1  0  0  0
 62134  1  0  0  0
 62135  1  0  0  0
 63 65  1  0  0  0
 63136  1  0  0  0
 63137  1  0  0  0
 63138  1  0  0  0
 64139  1  0  0  0
 65140  1  0  0  0
 68 75  1  0  0  0
 71 76  1  0  0  0
 71 78  1  0  0  0
 71 79  2  0  0  0
 72 77  1  0  0  0
 72 78  1  0  0  0
 72 80  2  0  0  0
 73141  1  0  0  0
 73142  1  0  0  0
 73143  1  0  0  0
 73 76  1  0  0  0
 74 77  1  0  0  0
 74144  1  0  0  0
 74145  1  0  0  0
 75 76  1  0  0  0
 75146  1  0  0  0
 75147  1  0  0  0
 76148  1  0  0  0
 77 81  1  0  0  0
 77149  1  0  0  0
 78150  1  0  0  0
M  ISO  4   1 100  68 101  74 100  75 101
M  END
> <chiral flag>
0

> <version>
0

> <s_m_source_file>
/data/baiqing/PycharmProjects/Reinvent-master-3.2/result/LINK_invent/BTK/process_docking_weight1_custom_product_contain_oxygen_bond_distance_aromatic_linkinvent_7_9_3/rearranged_h_0181.sdf

> <i_m_source_file_index>
93

> <r_mmod_Potential_Energy-OPLS-2005>
267.959228515625

> <r_mmod_Stretch_Energy-OPLS-2005>
259.694061279297

> <r_mmod_Bend_Energy-OPLS-2005>
241.082473754883

> <r_mmod_Torsional_Energy-OPLS-2005>
180.697677612305

> <r_mmod_Improper_Torsional_Energy-OPLS-2005>
2.9796290397644

> <r_mmod_Van_der_Waal_Energy-OPLS-2005>
113.722717285156

> <r_mmod_Electrostatic_Energy-OPLS-2005>
-456.102752685547

> <r_mmod_Solvation_Energy-OPLS-2005>
-257.856262207031

> <b_mmod_Minimization_Converged-OPLS-2005>
0

> <r_mmod_RMS_Derivative-OPLS-2005>
0.397601544857025

$$$$
94
                    3D
 Structure written by MMmdl.
155163  0  0  1  0            999 V2000
  -30.5708  -14.7612   20.4696 C   0  0  0  0  0  0
  -30.4478  -12.4664   19.4638 C   0  0  0  0  0  0
  -29.5153  -12.5110   18.2316 C   0  0  0  0  0  0
  -28.0418  -12.3236   18.6483 C   0  0  0  0  0  0
  -27.6441  -13.2205   19.8500 C   0  0  2  0  0  0
  -28.6908  -13.1378   20.9827 C   0  0  0  0  0  0
  -25.2532  -13.8164   20.5683 C   0  0  0  0  0  0
  -24.1814  -13.0427   20.9207 C   0  0  0  0  0  0
  -24.6388  -11.6901   20.8748 C   0  0  0  0  0  0
  -23.9063  -10.4286   21.0413 C   0  0  0  0  0  0
  -24.3614   -9.4201   21.9188 C   0  0  0  0  0  0
  -23.6288   -8.2238   22.0758 C   0  0  0  0  0  0
  -22.4271   -8.0277   21.3547 C   0  0  0  0  0  0
  -21.9907   -9.0252   20.4649 C   0  0  0  0  0  0
  -22.7238  -10.2129   20.3059 C   0  0  0  0  0  0
  -21.6847   -6.0734   22.5282 C   0  0  0  0  0  0
  -21.4012   -6.5639   23.8216 C   0  0  0  0  0  0
  -21.3660   -5.6792   24.9179 C   0  0  0  0  0  0
  -21.6042   -4.3053   24.7228 C   0  0  0  0  0  0
  -21.8818   -3.8147   23.4348 C   0  0  0  0  0  0
  -21.9191   -4.6963   22.3405 C   0  0  0  0  0  0
  -22.7836  -13.5221   21.1867 C   0  0  0  0  0  0
  -22.1658   -4.2148   21.0982 F   0  0  0  0  0  0
  -21.5629   -3.4538   25.7741 F   0  0  0  0  0  0
  -29.9889  -13.5131   20.4034 N   0  0  0  0  0  0
  -26.2946  -12.9345   20.3264 N   0  0  0  0  0  0
  -25.9313  -11.6502   20.5742 N   0  0  0  0  0  0
  -22.0471  -12.8222   22.0421 N   0  0  0  0  0  0
  -25.4213  -15.1892   20.4088 N   0  0  0  0  0  0
  -31.7652  -14.9000   20.1805 O   0  0  0  0  0  0
  -21.6633   -6.8874   21.4243 O   0  0  0  0  0  0
  -22.3532  -14.5529   20.6710 O   0  0  0  0  0  0
  -24.6347  -31.8543   23.1969 C   0  0  0  0  0  0
  -25.9163  -32.4749   23.8325 C   0  0  1  0  0  0
  -27.2198  -27.2409   20.1195 C   0  0  0  0  0  0
  -25.5959  -33.8549   24.2249 N   0  0  0  0  0  0
  -23.4325  -30.4794   21.5402 C   0  0  2  0  0  0
  -24.8780  -28.9259   20.1099 C   0  0  0  0  0  0
  -22.7521  -29.4602   22.4870 C   0  0  0  0  0  0
  -18.0305  -28.1389   22.8464 C   0  0  0  0  0  0
  -24.1493  -36.7272   23.2634 C   0  0  0  0  0  0
  -25.9817  -30.7601   21.3806 C   0  0  0  0  0  0
  -26.0530  -29.3819   20.7198 C   0  0  0  0  0  0
  -27.2250  -28.5531   20.7130 C   0  0  0  0  0  0
  -26.0120  -26.8620   19.4860 C   0  0  0  0  0  0
  -24.8637  -27.6742   19.4827 C   0  0  0  0  0  0
  -23.6535  -29.8193   20.1550 C   0  0  0  0  0  0
  -25.4119  -36.3057   24.0320 C   0  0  1  0  0  0
  -20.5913  -28.3713   23.1235 C   0  0  2  0  0  0
  -20.6796  -26.9425   22.5388 C   0  0  0  0  0  0
  -19.5775  -26.6382   21.5191 C   0  0  0  0  0  0
  -18.1953  -26.7929   22.1605 C   0  0  0  0  0  0
  -19.1559  -28.8863   23.2846 C   0  0  0  0  0  0
  -18.9482  -30.1458   23.8875 C   0  0  0  0  0  0
  -17.6483  -30.6584   24.0560 C   0  0  0  0  0  0
  -25.9065  -34.9432   23.5082 C   0  0  0  0  0  0
  -16.5373  -29.9089   23.6324 C   0  0  0  0  0  0
  -16.7292  -28.6510   23.0334 C   0  0  0  0  0  0
  -26.4520  -31.6579   25.0722 C   0  0  0  0  0  0
  -25.3732  -31.3745   26.1437 C   0  0  0  0  0  0
  -27.0373  -30.2993   24.6220 C   0  0  0  0  0  0
  -27.6070  -32.4319   25.7502 C   0  0  0  0  0  0
  -27.5580  -37.1789   24.8463 C   0  0  0  0  0  0
  -21.4223  -29.3068   22.3626 N   0  0  0  0  0  0
  -26.4285  -37.3764   23.9416 N   0  0  0  0  0  0
  -24.7023  -31.0493   22.0959 N   0  0  0  0  0  0
  -23.4206  -28.8121   23.2966 O   0  0  0  0  0  0
  -28.3169  -26.3342   20.1813 O   0  0  0  0  0  0
  -26.5628  -34.8913   22.4646 O   0  0  0  0  0  0
  -23.5487  -32.1377   23.7248 O   0  0  0  0  0  0
  -29.7865  -17.7977   22.1899 C   0  0  0  0  0  0
  -29.6839  -19.1692   22.0766 C   0  0  0  0  0  0
  -29.8438  -17.2849   20.8630 C   0  0  0  0  0  0
  -28.6545  -22.1465   20.4310 C   0  0  0  0  0  0
  -29.6274  -20.1891   23.1669 C   0  0  0  0  0  0
  -28.2876  -24.7713   18.2966 C   0  0  0  0  0  0
  -29.0927  -23.6988   20.4722 C   0  0  0  0  0  0
  -29.6719  -20.9387   20.1226 C   0  0  0  0  0  0
  -28.1523  -24.8662   19.8295 C   0  0  1  0  0  0
  -29.7362  -18.3346   19.9931 N   0  0  0  0  0  0
  -29.6346  -19.5251   20.7320 N   0  0  0  0  0  0
  -29.6997  -15.8341   20.6052 N   0  0  0  0  0  0
  -27.4721  -21.8705   20.6535 O   0  0  0  0  0  0
  -31.4842  -12.6192   19.1577 H   0  0  0  0  0  0
  -30.4160  -11.4847   19.9389 H   0  0  0  0  0  0
  -29.8018  -11.7421   17.5128 H   0  0  0  0  0  0
  -29.6316  -13.4670   17.7187 H   0  0  0  0  0  0
  -27.9075  -11.2742   18.9140 H   0  0  0  0  0  0
  -27.3813  -12.5085   17.8008 H   0  0  0  0  0  0
  -27.6390  -14.2421   19.4708 H   0  0  0  0  0  0
  -28.7343  -12.1293   21.3971 H   0  0  0  0  0  0
  -28.4222  -13.7935   21.8126 H   0  0  0  0  0  0
  -25.2757   -9.5676   22.4766 H   0  0  0  0  0  0
  -23.9995   -7.4627   22.7476 H   0  0  0  0  0  0
  -21.0839   -8.8770   19.8953 H   0  0  0  0  0  0
  -22.3697  -10.9669   19.6170 H   0  0  0  0  0  0
  -21.2003   -7.6147   23.9721 H   0  0  0  0  0  0
  -21.1483   -6.0521   25.9081 H   0  0  0  0  0  0
  -22.0596   -2.7609   23.2850 H   0  0  0  0  0  0
  -22.4073  -11.9880   22.4813 H   0  0  0  0  0  0
  -21.1093  -13.1265   22.2619 H   0  0  0  0  0  0
  -24.6460  -15.8349   20.5139 H   0  0  0  0  0  0
  -26.2527  -15.6333   20.0418 H   0  0  0  0  0  0
  -26.7229  -32.5388   23.1062 H   0  0  0  0  0  0
  -25.0133  -33.9685   25.0410 H   0  0  0  0  0  0
  -22.7315  -31.3030   21.3931 H   0  0  0  0  0  0
  -23.3759  -35.9597   23.3285 H   0  0  0  0  0  0
  -24.3591  -36.8910   22.2051 H   0  0  0  0  0  0
  -23.7243  -37.6466   23.6672 H   0  0  0  0  0  0
  -26.1249  -31.5208   20.6121 H   0  0  0  0  0  0
  -26.8574  -30.8080   22.0161 H   0  0  0  0  0  0
  -28.1233  -28.8983   21.2056 H   0  0  0  0  0  0
  -25.9058  -25.9092   18.9939 H   0  0  0  0  0  0
  -23.9649  -27.3176   18.9986 H   0  0  0  0  0  0
  -23.7926  -30.6001   19.4061 H   0  0  0  0  0  0
  -22.7693  -29.2628   19.8388 H   0  0  0  0  0  0
  -25.1300  -36.1893   25.0812 H   0  0  0  0  0  0
  -21.0007  -28.3302   24.1354 H   0  0  0  0  0  0
  -20.5683  -26.2332   23.3603 H   0  0  0  0  0  0
  -21.6667  -26.7441   22.1194 H   0  0  0  0  0  0
  -19.6945  -25.6284   21.1244 H   0  0  0  0  0  0
  -19.6715  -27.3168   20.6700 H   0  0  0  0  0  0
  -17.4220  -26.6649   21.4013 H   0  0  0  0  0  0
  -18.0371  -26.0075   22.9008 H   0  0  0  0  0  0
  -19.7962  -30.7266   24.2239 H   0  0  0  0  0  0
  -17.5049  -31.6262   24.5170 H   0  0  0  0  0  0
  -15.5377  -30.2992   23.7656 H   0  0  0  0  0  0
  -15.8690  -28.0835   22.7043 H   0  0  0  0  0  0
  -24.5917  -30.7078   25.7775 H   0  0  0  0  0  0
  -24.8905  -32.2917   26.4815 H   0  0  0  0  0  0
  -25.8036  -30.8964   27.0242 H   0  0  0  0  0  0
  -26.2966  -29.6731   24.1230 H   0  0  0  0  0  0
  -27.4048  -29.7266   25.4743 H   0  0  0  0  0  0
  -27.8846  -30.4274   23.9479 H   0  0  0  0  0  0
  -27.2692  -33.3644   26.2033 H   0  0  0  0  0  0
  -28.3911  -32.6834   25.0350 H   0  0  0  0  0  0
  -28.0702  -31.8468   26.5457 H   0  0  0  0  0  0
  -28.2569  -38.0109   24.7535 H   0  0  0  0  0  0
  -28.1105  -36.2643   24.6259 H   0  0  0  0  0  0
  -27.2305  -37.1397   25.8864 H   0  0  0  0  0  0
  -20.9401  -29.8847   21.6883 H   0  0  0  0  0  0
  -26.0155  -38.2826   24.1448 H   0  0  0  0  0  0
  -29.7972  -17.2360   23.1137 H   0  0  0  0  0  0
  -29.8860  -19.7467   24.1291 H   0  0  0  0  0  0
  -28.6252  -20.6090   23.2532 H   0  0  0  0  0  0
  -30.3252  -21.0056   22.9815 H   0  0  0  0  0  0
  -28.0091  -23.7809   17.9356 H   0  0  0  0  0  0
  -29.3174  -24.9554   17.9901 H   0  0  0  0  0  0
  -27.6696  -25.4933   17.7658 H   0  0  0  0  0  0
  -30.0957  -23.7739   20.0528 H   0  0  0  0  0  0
  -29.2094  -23.9287   21.5313 H   0  0  0  0  0  0
  -30.6653  -21.3320   20.3352 H   0  0  0  0  0  0
  -29.6491  -20.8096   19.0409 H   0  0  0  0  0  0
  -27.1409  -24.5786   20.1163 H   0  0  0  0  0  0
  -28.7504  -15.5143   20.7062 H   0  0  0  0  0  0
  1 25  1  0  0  0
  1 30  2  0  0  0
  1 82  1  0  0  0
  2  3  1  0  0  0
  2 25  1  0  0  0
  2 84  1  0  0  0
  2 85  1  0  0  0
  3  4  1  0  0  0
  3 86  1  0  0  0
  3 87  1  0  0  0
  4  5  1  0  0  0
  4 88  1  0  0  0
  4 89  1  0  0  0
  5  6  1  0  0  0
  5 26  1  0  0  0
  5 90  1  0  0  0
  6 25  1  0  0  0
  6 91  1  0  0  0
  6 92  1  0  0  0
  7  8  2  0  0  0
  7 26  1  0  0  0
  7 29  1  0  0  0
  8  9  1  0  0  0
  8 22  1  0  0  0
  9 10  1  0  0  0
  9 27  2  0  0  0
 10 11  2  0  0  0
 10 15  1  0  0  0
 11 12  1  0  0  0
 11 93  1  0  0  0
 12 13  2  0  0  0
 12 94  1  0  0  0
 13 14  1  0  0  0
 13 31  1  0  0  0
 14 15  2  0  0  0
 14 95  1  0  0  0
 15 96  1  0  0  0
 16 17  2  0  0  0
 16 21  1  0  0  0
 16 31  1  0  0  0
 17 18  1  0  0  0
 17 97  1  0  0  0
 18 19  2  0  0  0
 18 98  1  0  0  0
 19 20  1  0  0  0
 19 24  1  0  0  0
 20 21  2  0  0  0
 20 99  1  0  0  0
 21 23  1  0  0  0
 22 28  1  0  0  0
 22 32  2  0  0  0
 26 27  1  0  0  0
 28100  1  0  0  0
 28101  1  0  0  0
 29102  1  0  0  0
 29103  1  0  0  0
 33 34  1  0  0  0
 33 66  1  0  0  0
 33 70  2  0  0  0
 34 36  1  0  0  0
 34 59  1  0  0  0
 34104  1  0  0  0
 35 44  2  0  0  0
 35 45  1  0  0  0
 35 68  1  0  0  0
 36 56  1  0  0  0
 36105  1  0  0  0
 37 39  1  0  0  0
 37 47  1  0  0  0
 37 66  1  0  0  0
 37106  1  0  0  0
 38 43  2  0  0  0
 38 46  1  0  0  0
 38 47  1  0  0  0
 39 64  1  0  0  0
 39 67  2  0  0  0
 40 52  1  0  0  0
 40 53  2  0  0  0
 40 58  1  0  0  0
 41107  1  0  0  0
 41108  1  0  0  0
 41109  1  0  0  0
 41 48  1  0  0  0
 42 43  1  0  0  0
 42 66  1  0  0  0
 42110  1  0  0  0
 42111  1  0  0  0
 43 44  1  0  0  0
 44112  1  0  0  0
 45 46  2  0  0  0
 45113  1  0  0  0
 46114  1  0  0  0
 47115  1  0  0  0
 47116  1  0  0  0
 48 56  1  0  0  0
 48 65  1  0  0  0
 48117  1  0  0  0
 49 50  1  0  0  0
 49 53  1  0  0  0
 49 64  1  0  0  0
 49118  1  0  0  0
 50 51  1  0  0  0
 50119  1  0  0  0
 50120  1  0  0  0
 51 52  1  0  0  0
 51121  1  0  0  0
 51122  1  0  0  0
 52123  1  0  0  0
 52124  1  0  0  0
 53 54  1  0  0  0
 54 55  2  0  0  0
 54125  1  0  0  0
 55 57  1  0  0  0
 55126  1  0  0  0
 56 69  2  0  0  0
 57 58  2  0  0  0
 57127  1  0  0  0
 58128  1  0  0  0
 59 60  1  0  0  0
 59 61  1  0  0  0
 59 62  1  0  0  0
 60129  1  0  0  0
 60130  1  0  0  0
 60131  1  0  0  0
 61132  1  0  0  0
 61133  1  0  0  0
 61134  1  0  0  0
 62135  1  0  0  0
 62136  1  0  0  0
 62137  1  0  0  0
 63 65  1  0  0  0
 63138  1  0  0  0
 63139  1  0  0  0
 63140  1  0  0  0
 64141  1  0  0  0
 65142  1  0  0  0
 68 79  1  0  0  0
 71 72  2  0  0  0
 71 73  1  0  0  0
 71143  1  0  0  0
 72 75  1  0  0  0
 72 81  1  0  0  0
 73 80  2  0  0  0
 73 82  1  0  0  0
 74 77  1  0  0  0
 74 78  1  0  0  0
 74 83  2  0  0  0
 75144  1  0  0  0
 75145  1  0  0  0
 75146  1  0  0  0
 76147  1  0  0  0
 76148  1  0  0  0
 76149  1  0  0  0
 76 79  1  0  0  0
 77 79  1  0  0  0
 77150  1  0  0  0
 77151  1  0  0  0
 78 81  1  0  0  0
 78152  1  0  0  0
 78153  1  0  0  0
 79154  1  0  0  0
 80 81  1  0  0  0
 82155  1  0  0  0
M  ISO  4   1 100  68 101  79 101  82 100
M  END
> <chiral flag>
0

> <version>
0

> <s_m_source_file>
/data/baiqing/PycharmProjects/Reinvent-master-3.2/result/LINK_invent/BTK/process_docking_weight1_custom_product_contain_oxygen_bond_distance_aromatic_linkinvent_7_9_3/rearranged_h_0181.sdf

> <i_m_source_file_index>
94

> <r_mmod_Potential_Energy-OPLS-2005>
147.979965209961

> <r_mmod_Stretch_Energy-OPLS-2005>
132.2412109375

> <r_mmod_Bend_Energy-OPLS-2005>
182.780624389648

> <r_mmod_Torsional_Energy-OPLS-2005>
242.814895629883

> <r_mmod_Improper_Torsional_Energy-OPLS-2005>
10.0659532546997

> <r_mmod_Van_der_Waal_Energy-OPLS-2005>
114.468017578125

> <r_mmod_Electrostatic_Energy-OPLS-2005>
-389.408447265625

> <r_mmod_Solvation_Energy-OPLS-2005>
-240.383148193359

> <b_mmod_Minimization_Converged-OPLS-2005>
0

> <r_mmod_RMS_Derivative-OPLS-2005>
0.855958223342896

$$$$
95
                    3D
 Structure written by MMmdl.
153161  0  0  1  0            999 V2000
  -30.6191  -14.6753   20.4895 C   0  0  0  0  0  0
  -30.4375  -12.4109   19.4651 C   0  0  0  0  0  0
  -29.5109  -12.5093   18.2321 C   0  0  0  0  0  0
  -28.0341  -12.3432   18.6418 C   0  0  0  0  0  0
  -27.6518  -13.2216   19.8627 C   0  0  2  0  0  0
  -28.6956  -13.0979   20.9961 C   0  0  0  0  0  0
  -25.2550  -13.8177   20.5687 C   0  0  0  0  0  0
  -24.1824  -13.0438   20.9197 C   0  0  0  0  0  0
  -24.6399  -11.6911   20.8743 C   0  0  0  0  0  0
  -23.9070  -10.4292   21.0407 C   0  0  0  0  0  0
  -24.3619   -9.4206   21.9184 C   0  0  0  0  0  0
  -23.6293   -8.2242   22.0754 C   0  0  0  0  0  0
  -22.4275   -8.0282   21.3544 C   0  0  0  0  0  0
  -21.9912   -9.0255   20.4647 C   0  0  0  0  0  0
  -22.7241  -10.2134   20.3056 C   0  0  0  0  0  0
  -21.6853   -6.0736   22.5279 C   0  0  0  0  0  0
  -21.4014   -6.5640   23.8212 C   0  0  0  0  0  0
  -21.3659   -5.6792   24.9175 C   0  0  0  0  0  0
  -21.6044   -4.3055   24.7225 C   0  0  0  0  0  0
  -21.8819   -3.8147   23.4346 C   0  0  0  0  0  0
  -21.9192   -4.6963   22.3402 C   0  0  0  0  0  0
  -22.7845  -13.5228   21.1856 C   0  0  0  0  0  0
  -22.1661   -4.2149   21.0980 F   0  0  0  0  0  0
  -21.5628   -3.4539   25.7738 F   0  0  0  0  0  0
  -30.0098  -13.4444   20.4329 N   0  0  0  0  0  0
  -26.2982  -12.9368   20.3315 N   0  0  0  0  0  0
  -25.9330  -11.6520   20.5761 N   0  0  0  0  0  0
  -22.0486  -12.8219   22.0411 N   0  0  0  0  0  0
  -25.4254  -15.1900   20.4086 N   0  0  0  0  0  0
  -31.7799  -14.8172   20.0914 O   0  0  0  0  0  0
  -21.6640   -6.8878   21.4241 O   0  0  0  0  0  0
  -22.3534  -14.5536   20.6706 O   0  0  0  0  0  0
  -24.6281  -31.8585   23.2019 C   0  0  0  0  0  0
  -25.9120  -32.4772   23.8353 C   0  0  1  0  0  0
  -27.2200  -27.2992   20.1202 C   0  0  0  0  0  0
  -25.5928  -33.8574   24.2277 N   0  0  0  0  0  0
  -23.4230  -30.4829   21.5447 C   0  0  2  0  0  0
  -24.8701  -28.9396   20.1082 C   0  0  0  0  0  0
  -22.7487  -29.4616   22.4923 C   0  0  0  0  0  0
  -18.0290  -28.1386   22.8490 C   0  0  0  0  0  0
  -24.1489  -36.7292   23.2639 C   0  0  0  0  0  0
  -25.9669  -30.7834   21.3771 C   0  0  0  0  0  0
  -26.0406  -29.4105   20.7166 C   0  0  0  0  0  0
  -27.2197  -28.6028   20.7122 C   0  0  0  0  0  0
  -26.0298  -26.8964   19.4709 C   0  0  0  0  0  0
  -24.8682  -27.6891   19.4750 C   0  0  0  0  0  0
  -23.6387  -29.8207   20.1592 C   0  0  0  0  0  0
  -25.4115  -36.3080   24.0329 C   0  0  1  0  0  0
  -20.5892  -28.3693   23.1279 C   0  0  2  0  0  0
  -20.6779  -26.9414   22.5410 C   0  0  0  0  0  0
  -19.5754  -26.6386   21.5213 C   0  0  0  0  0  0
  -18.1934  -26.7930   22.1625 C   0  0  0  0  0  0
  -19.1543  -28.8856   23.2881 C   0  0  0  0  0  0
  -18.9465  -30.1459   23.8896 C   0  0  0  0  0  0
  -17.6465  -30.6589   24.0565 C   0  0  0  0  0  0
  -25.9052  -34.9449   23.5103 C   0  0  0  0  0  0
  -16.5355  -29.9088   23.6331 C   0  0  0  0  0  0
  -16.7276  -28.6504   23.0354 C   0  0  0  0  0  0
  -26.4496  -31.6585   25.0729 C   0  0  0  0  0  0
  -25.3724  -31.3732   26.1453 C   0  0  0  0  0  0
  -27.0336  -30.3002   24.6195 C   0  0  0  0  0  0
  -27.6052  -32.4321   25.7501 C   0  0  0  0  0  0
  -27.5579  -37.1804   24.8465 C   0  0  0  0  0  0
  -21.4197  -29.3045   22.3670 N   0  0  0  0  0  0
  -26.4293  -37.3774   23.9406 N   0  0  0  0  0  0
  -24.6915  -31.0583   22.0977 N   0  0  0  0  0  0
  -23.4204  -28.8149   23.3002 O   0  0  0  0  0  0
  -28.3134  -26.4113   20.1946 O   0  0  0  0  0  0
  -26.5622  -34.8917   22.4670 O   0  0  0  0  0  0
  -23.5439  -32.1390   23.7335 O   0  0  0  0  0  0
  -30.6986  -19.1682   19.6312 C   0  0  0  0  0  0
  -29.1212  -18.0492   21.4756 C   0  0  0  0  0  0
  -29.8876  -20.0151   20.4465 C   0  0  0  0  0  0
  -29.9432  -17.1871   20.6771 C   0  0  0  0  0  0
  -30.0891  -21.5290   20.5214 C   0  0  0  0  0  0
  -29.2985  -23.9913   20.4065 C   0  0  0  0  0  0
  -27.2428  -24.7605   21.6850 C   0  0  0  0  0  0
  -28.0302  -24.9452   20.3680 C   0  0  1  0  0  0
  -29.0992  -19.4243   21.3881 N   0  0  0  0  0  0
  -30.7275  -17.7968   19.7392 N   0  0  0  0  0  0
  -29.8401  -15.7361   20.8874 N   0  0  0  0  0  0
  -29.1118  -22.5081   20.3701 N   0  0  0  0  0  0
  -31.3585  -21.9091   20.7631 N   0  3  0  0  0  0
  -30.4365  -24.4744   20.4956 O   0  0  0  0  0  0
  -31.4795  -12.5316   19.1638 H   0  0  0  0  0  0
  -30.3728  -11.4200   19.9173 H   0  0  0  0  0  0
  -29.7812  -11.7518   17.4951 H   0  0  0  0  0  0
  -29.6498  -13.4749   17.7432 H   0  0  0  0  0  0
  -27.8756  -11.2909   18.8809 H   0  0  0  0  0  0
  -27.3801  -12.5637   17.7974 H   0  0  0  0  0  0
  -27.6642  -14.2537   19.5118 H   0  0  0  0  0  0
  -28.7128  -12.0817   21.3929 H   0  0  0  0  0  0
  -28.4342  -13.7404   21.8380 H   0  0  0  0  0  0
  -25.2765   -9.5680   22.4758 H   0  0  0  0  0  0
  -24.0001   -7.4633   22.7474 H   0  0  0  0  0  0
  -21.0842   -8.8774   19.8953 H   0  0  0  0  0  0
  -22.3701  -10.9672   19.6164 H   0  0  0  0  0  0
  -21.2008   -7.6148   23.9716 H   0  0  0  0  0  0
  -21.1481   -6.0523   25.9078 H   0  0  0  0  0  0
  -22.0598   -2.7609   23.2847 H   0  0  0  0  0  0
  -22.4099  -11.9877   22.4795 H   0  0  0  0  0  0
  -21.1104  -13.1245   22.2617 H   0  0  0  0  0  0
  -24.6517  -15.8391   20.5033 H   0  0  0  0  0  0
  -26.2614  -15.6242   20.0396 H   0  0  0  0  0  0
  -26.7186  -32.5434   23.1099 H   0  0  0  0  0  0
  -25.0074  -33.9719   25.0421 H   0  0  0  0  0  0
  -22.7177  -31.3043   21.4019 H   0  0  0  0  0  0
  -23.3752  -35.9625   23.3304 H   0  0  0  0  0  0
  -24.3580  -36.8911   22.2053 H   0  0  0  0  0  0
  -23.7245  -37.6496   23.6660 H   0  0  0  0  0  0
  -26.1026  -31.5475   20.6105 H   0  0  0  0  0  0
  -26.8458  -30.8298   22.0085 H   0  0  0  0  0  0
  -28.1139  -28.9552   21.2071 H   0  0  0  0  0  0
  -25.9625  -25.9464   18.9648 H   0  0  0  0  0  0
  -23.9735  -27.3258   18.9881 H   0  0  0  0  0  0
  -23.7591  -30.5986   19.4044 H   0  0  0  0  0  0
  -22.7584  -29.2515   19.8549 H   0  0  0  0  0  0
  -25.1297  -36.1931   25.0822 H   0  0  0  0  0  0
  -20.9988  -28.3266   24.1398 H   0  0  0  0  0  0
  -20.5681  -26.2300   23.3611 H   0  0  0  0  0  0
  -21.6647  -26.7443   22.1200 H   0  0  0  0  0  0
  -19.6915  -25.6296   21.1242 H   0  0  0  0  0  0
  -19.6690  -27.3198   20.6744 H   0  0  0  0  0  0
  -17.4203  -26.6680   21.4027 H   0  0  0  0  0  0
  -18.0335  -26.0072   22.9021 H   0  0  0  0  0  0
  -19.7939  -30.7279   24.2262 H   0  0  0  0  0  0
  -17.5017  -31.6267   24.5169 H   0  0  0  0  0  0
  -15.5356  -30.2990   23.7656 H   0  0  0  0  0  0
  -15.8676  -28.0824   22.7069 H   0  0  0  0  0  0
  -24.5899  -30.7079   25.7787 H   0  0  0  0  0  0
  -24.8917  -32.2903   26.4869 H   0  0  0  0  0  0
  -25.8046  -30.8919   27.0234 H   0  0  0  0  0  0
  -26.2914  -29.6757   24.1209 H   0  0  0  0  0  0
  -27.4012  -29.7254   25.4705 H   0  0  0  0  0  0
  -27.8794  -30.4282   23.9437 H   0  0  0  0  0  0
  -27.2661  -33.3625   26.2069 H   0  0  0  0  0  0
  -28.3869  -32.6874   25.0334 H   0  0  0  0  0  0
  -28.0711  -31.8450   26.5426 H   0  0  0  0  0  0
  -28.2600  -38.0098   24.7507 H   0  0  0  0  0  0
  -28.1072  -36.2629   24.6299 H   0  0  0  0  0  0
  -27.2297  -37.1463   25.8868 H   0  0  0  0  0  0
  -20.9373  -29.8775   21.6889 H   0  0  0  0  0  0
  -26.0174  -38.2850   24.1401 H   0  0  0  0  0  0
  -31.3841  -19.6025   18.9181 H   0  0  0  0  0  0
  -28.4695  -17.6240   22.2255 H   0  0  0  0  0  0
  -27.0740  -23.7093   21.9197 H   0  0  0  0  0  0
  -26.2596  -25.2274   21.6429 H   0  0  0  0  0  0
  -27.7795  -25.2029   22.5248 H   0  0  0  0  0  0
  -27.4420  -24.5774   19.5293 H   0  0  0  0  0  0
  -28.9840  -15.4476   21.3342 H   0  0  0  0  0  0
  -28.1928  -22.1105   20.2632 H   0  0  0  0  0  0
  -32.0825  -21.2384   20.9688 H   0  0  0  0  0  0
  -31.5826  -22.8975   20.7943 H   0  0  0  0  0  0
  1 25  1  0  0  0
  1 30  2  0  0  0
  1 81  1  0  0  0
  2  3  1  0  0  0
  2 25  1  0  0  0
  2 85  1  0  0  0
  2 86  1  0  0  0
  3  4  1  0  0  0
  3 87  1  0  0  0
  3 88  1  0  0  0
  4  5  1  0  0  0
  4 89  1  0  0  0
  4 90  1  0  0  0
  5  6  1  0  0  0
  5 26  1  0  0  0
  5 91  1  0  0  0
  6 25  1  0  0  0
  6 92  1  0  0  0
  6 93  1  0  0  0
  7  8  2  0  0  0
  7 26  1  0  0  0
  7 29  1  0  0  0
  8  9  1  0  0  0
  8 22  1  0  0  0
  9 10  1  0  0  0
  9 27  2  0  0  0
 10 11  2  0  0  0
 10 15  1  0  0  0
 11 12  1  0  0  0
 11 94  1  0  0  0
 12 13  2  0  0  0
 12 95  1  0  0  0
 13 14  1  0  0  0
 13 31  1  0  0  0
 14 15  2  0  0  0
 14 96  1  0  0  0
 15 97  1  0  0  0
 16 17  2  0  0  0
 16 21  1  0  0  0
 16 31  1  0  0  0
 17 18  1  0  0  0
 17 98  1  0  0  0
 18 19  2  0  0  0
 18 99  1  0  0  0
 19 20  1  0  0  0
 19 24  1  0  0  0
 20 21  2  0  0  0
 20100  1  0  0  0
 21 23  1  0  0  0
 22 28  1  0  0  0
 22 32  2  0  0  0
 26 27  1  0  0  0
 28101  1  0  0  0
 28102  1  0  0  0
 29103  1  0  0  0
 29104  1  0  0  0
 33 34  1  0  0  0
 33 66  1  0  0  0
 33 70  2  0  0  0
 34 36  1  0  0  0
 34 59  1  0  0  0
 34105  1  0  0  0
 35 44  2  0  0  0
 35 45  1  0  0  0
 35 68  1  0  0  0
 36 56  1  0  0  0
 36106  1  0  0  0
 37 39  1  0  0  0
 37 47  1  0  0  0
 37 66  1  0  0  0
 37107  1  0  0  0
 38 43  2  0  0  0
 38 46  1  0  0  0
 38 47  1  0  0  0
 39 64  1  0  0  0
 39 67  2  0  0  0
 40 52  1  0  0  0
 40 53  2  0  0  0
 40 58  1  0  0  0
 41108  1  0  0  0
 41109  1  0  0  0
 41110  1  0  0  0
 41 48  1  0  0  0
 42 43  1  0  0  0
 42 66  1  0  0  0
 42111  1  0  0  0
 42112  1  0  0  0
 43 44  1  0  0  0
 44113  1  0  0  0
 45 46  2  0  0  0
 45114  1  0  0  0
 46115  1  0  0  0
 47116  1  0  0  0
 47117  1  0  0  0
 48 56  1  0  0  0
 48 65  1  0  0  0
 48118  1  0  0  0
 49 50  1  0  0  0
 49 53  1  0  0  0
 49 64  1  0  0  0
 49119  1  0  0  0
 50 51  1  0  0  0
 50120  1  0  0  0
 50121  1  0  0  0
 51 52  1  0  0  0
 51122  1  0  0  0
 51123  1  0  0  0
 52124  1  0  0  0
 52125  1  0  0  0
 53 54  1  0  0  0
 54 55  2  0  0  0
 54126  1  0  0  0
 55 57  1  0  0  0
 55127  1  0  0  0
 56 69  2  0  0  0
 57 58  2  0  0  0
 57128  1  0  0  0
 58129  1  0  0  0
 59 60  1  0  0  0
 59 61  1  0  0  0
 59 62  1  0  0  0
 60130  1  0  0  0
 60131  1  0  0  0
 60132  1  0  0  0
 61133  1  0  0  0
 61134  1  0  0  0
 61135  1  0  0  0
 62136  1  0  0  0
 62137  1  0  0  0
 62138  1  0  0  0
 63 65  1  0  0  0
 63139  1  0  0  0
 63140  1  0  0  0
 63141  1  0  0  0
 64142  1  0  0  0
 65143  1  0  0  0
 68 78  1  0  0  0
 71 73  2  0  0  0
 71 80  1  0  0  0
 71144  1  0  0  0
 72 74  1  0  0  0
 72 79  2  0  0  0
 72145  1  0  0  0
 73 75  1  0  0  0
 73 79  1  0  0  0
 74 80  2  0  0  0
 74 81  1  0  0  0
 75 82  1  0  0  0
 75 83  2  0  0  0
 76 78  1  0  0  0
 76 82  1  0  0  0
 76 84  2  0  0  0
 77146  1  0  0  0
 77147  1  0  0  0
 77148  1  0  0  0
 77 78  1  0  0  0
 78149  1  0  0  0
 81150  1  0  0  0
 82151  1  0  0  0
 83152  1  0  0  0
 83153  1  0  0  0
M  CHG  1  83   1
M  ISO  4   1 100  68 101  78 101  81 100
M  END
> <chiral flag>
0

> <version>
0

> <s_m_source_file>
/data/baiqing/PycharmProjects/Reinvent-master-3.2/result/LINK_invent/BTK/process_docking_weight1_custom_product_contain_oxygen_bond_distance_aromatic_linkinvent_7_9_3/rearranged_h_0181.sdf

> <i_m_source_file_index>
95

> <r_mmod_Potential_Energy-OPLS-2005>
-102.672760009766

> <r_mmod_Stretch_Energy-OPLS-2005>
101.628074645996

> <r_mmod_Bend_Energy-OPLS-2005>
145.921997070312

> <r_mmod_Torsional_Energy-OPLS-2005>
229.697158813477

> <r_mmod_Improper_Torsional_Energy-OPLS-2005>
5.22985887527466

> <r_mmod_Van_der_Waal_Energy-OPLS-2005>
158.522399902344

> <r_mmod_Electrostatic_Energy-OPLS-2005>
-288.777465820312

> <r_mmod_Solvation_Energy-OPLS-2005>
-516.190979003906

> <b_mmod_Minimization_Converged-OPLS-2005>
0

> <r_mmod_RMS_Derivative-OPLS-2005>
0.268023550510406

$$$$
96
                    3D
 Structure written by MMmdl.
154162  0  0  1  0            999 V2000
  -30.5934  -14.7283   20.4905 C   0  0  0  0  0  0
  -30.4449  -12.4453   19.4786 C   0  0  0  0  0  0
  -29.5188  -12.5135   18.2421 C   0  0  0  0  0  0
  -28.0433  -12.3379   18.6510 C   0  0  0  0  0  0
  -27.6507  -13.2246   19.8623 C   0  0  2  0  0  0
  -28.6916  -13.1199   20.9995 C   0  0  0  0  0  0
  -25.2549  -13.8174   20.5689 C   0  0  0  0  0  0
  -24.1824  -13.0431   20.9186 C   0  0  0  0  0  0
  -24.6403  -11.6906   20.8734 C   0  0  0  0  0  0
  -23.9069  -10.4292   21.0399 C   0  0  0  0  0  0
  -24.3620   -9.4211   21.9182 C   0  0  0  0  0  0
  -23.6293   -8.2248   22.0754 C   0  0  0  0  0  0
  -22.4276   -8.0282   21.3544 C   0  0  0  0  0  0
  -21.9915   -9.0254   20.4644 C   0  0  0  0  0  0
  -22.7240  -10.2136   20.3050 C   0  0  0  0  0  0
  -21.6855   -6.0736   22.5274 C   0  0  0  0  0  0
  -21.4014   -6.5640   23.8204 C   0  0  0  0  0  0
  -21.3658   -5.6794   24.9170 C   0  0  0  0  0  0
  -21.6043   -4.3053   24.7219 C   0  0  0  0  0  0
  -21.8821   -3.8146   23.4340 C   0  0  0  0  0  0
  -21.9193   -4.6967   22.3397 C   0  0  0  0  0  0
  -22.7847  -13.5224   21.1844 C   0  0  0  0  0  0
  -22.1662   -4.2153   21.0976 F   0  0  0  0  0  0
  -21.5628   -3.4537   25.7730 F   0  0  0  0  0  0
  -30.0021  -13.4836   20.4394 N   0  0  0  0  0  0
  -26.2977  -12.9374   20.3301 N   0  0  0  0  0  0
  -25.9335  -11.6521   20.5749 N   0  0  0  0  0  0
  -22.0483  -12.8222   22.0399 N   0  0  0  0  0  0
  -25.4254  -15.1903   20.4122 N   0  0  0  0  0  0
  -31.7493  -14.8759   20.0784 O   0  0  0  0  0  0
  -21.6638   -6.8883   21.4237 O   0  0  0  0  0  0
  -22.3539  -14.5538   20.6697 O   0  0  0  0  0  0
  -24.6296  -31.8551   23.1971 C   0  0  0  0  0  0
  -25.9128  -32.4746   23.8312 C   0  0  1  0  0  0
  -27.2293  -27.2706   20.1291 C   0  0  0  0  0  0
  -25.5934  -33.8552   24.2236 N   0  0  0  0  0  0
  -23.4258  -30.4747   21.5408 C   0  0  2  0  0  0
  -24.8727  -28.9190   20.1108 C   0  0  0  0  0  0
  -22.7489  -29.4591   22.4923 C   0  0  0  0  0  0
  -18.0282  -28.1388   22.8479 C   0  0  0  0  0  0
  -24.1494  -36.7275   23.2644 C   0  0  0  0  0  0
  -25.9689  -30.7703   21.3762 C   0  0  0  0  0  0
  -26.0410  -29.3927   20.7183 C   0  0  0  0  0  0
  -27.2173  -28.5804   20.7165 C   0  0  0  0  0  0
  -26.0319  -26.8542   19.5024 C   0  0  0  0  0  0
  -24.8735  -27.6582   19.4920 C   0  0  0  0  0  0
  -23.6421  -29.8049   20.1574 C   0  0  0  0  0  0
  -25.4122  -36.3062   24.0325 C   0  0  1  0  0  0
  -20.5881  -28.3686   23.1270 C   0  0  2  0  0  0
  -20.6771  -26.9403   22.5412 C   0  0  0  0  0  0
  -19.5752  -26.6379   21.5208 C   0  0  0  0  0  0
  -18.1926  -26.7925   22.1619 C   0  0  0  0  0  0
  -19.1536  -28.8854   23.2864 C   0  0  0  0  0  0
  -18.9470  -30.1451   23.8879 C   0  0  0  0  0  0
  -17.6469  -30.6584   24.0559 C   0  0  0  0  0  0
  -25.9068  -34.9436   23.5084 C   0  0  0  0  0  0
  -16.5357  -29.9081   23.6340 C   0  0  0  0  0  0
  -16.7271  -28.6508   23.0344 C   0  0  0  0  0  0
  -26.4500  -31.6582   25.0712 C   0  0  0  0  0  0
  -25.3721  -31.3735   26.1433 C   0  0  0  0  0  0
  -27.0355  -30.3000   24.6205 C   0  0  0  0  0  0
  -27.6051  -32.4328   25.7484 C   0  0  0  0  0  0
  -27.5578  -37.1780   24.8464 C   0  0  0  0  0  0
  -21.4196  -29.3034   22.3670 N   0  0  0  0  0  0
  -26.4293  -37.3766   23.9410 N   0  0  0  0  0  0
  -24.6936  -31.0512   22.0948 N   0  0  0  0  0  0
  -23.4188  -28.8141   23.3032 O   0  0  0  0  0  0
  -28.3687  -26.4370   20.1998 O   0  0  0  0  0  0
  -26.5645  -34.8916   22.4651 O   0  0  0  0  0  0
  -23.5453  -32.1372   23.7276 O   0  0  0  0  0  0
  -29.4512  -19.8371   20.6469 C   0  0  0  0  0  0
  -30.1173  -19.2803   19.5576 C   0  0  0  0  0  0
  -29.8452  -17.2499   20.6952 C   0  0  0  0  0  0
  -29.0916  -21.2649   21.1589 C   0  0  0  0  0  0
  -27.1673  -23.7569   21.6218 C   0  0  0  0  0  0
  -27.0391  -24.6340   22.8603 C   0  0  0  0  0  0
  -28.4172  -24.9933   19.7790 C   0  0  0  0  0  0
  -28.5072  -23.7973   20.8629 C   0  0  2  0  0  0
  -30.3122  -17.8667   19.5932 N   0  0  0  0  0  0
  -30.6165  -19.9660   18.4469 N   0  0  0  0  0  0
  -29.8169  -15.7869   20.9263 N   0  0  0  0  0  0
  -28.8881  -22.3869   20.3684 N   0  0  0  0  0  0
  -28.9845  -21.3979   22.3809 O   0  0  0  0  0  0
  -26.2110  -23.0599   21.2677 O   0  0  0  0  0  0
  -29.0883  -18.4783   21.7629 S   0  0  0  0  0  0
  -31.4859  -12.5783   19.1775 H   0  0  0  0  0  0
  -30.3953  -11.4586   19.9418 H   0  0  0  0  0  0
  -29.7994  -11.7467   17.5190 H   0  0  0  0  0  0
  -29.6473  -13.4722   17.7377 H   0  0  0  0  0  0
  -27.8960  -11.2869   18.9022 H   0  0  0  0  0  0
  -27.3882  -12.5400   17.8026 H   0  0  0  0  0  0
  -27.6577  -14.2538   19.5017 H   0  0  0  0  0  0
  -28.7203  -12.1062   21.4021 H   0  0  0  0  0  0
  -28.4187  -13.7657   21.8349 H   0  0  0  0  0  0
  -25.2765   -9.5688   22.4751 H   0  0  0  0  0  0
  -23.9998   -7.4647   22.7482 H   0  0  0  0  0  0
  -21.0844   -8.8781   19.8950 H   0  0  0  0  0  0
  -22.3704  -10.9677   19.6160 H   0  0  0  0  0  0
  -21.2006   -7.6146   23.9713 H   0  0  0  0  0  0
  -21.1478   -6.0519   25.9074 H   0  0  0  0  0  0
  -22.0602   -2.7607   23.2836 H   0  0  0  0  0  0
  -22.4106  -11.9891   22.4793 H   0  0  0  0  0  0
  -21.1100  -13.1258   22.2597 H   0  0  0  0  0  0
  -24.6529  -15.8395   20.5151 H   0  0  0  0  0  0
  -26.2668  -15.6297   20.0619 H   0  0  0  0  0  0
  -26.7190  -32.5398   23.1049 H   0  0  0  0  0  0
  -25.0058  -33.9693   25.0365 H   0  0  0  0  0  0
  -22.7230  -31.2967   21.3928 H   0  0  0  0  0  0
  -23.3766  -35.9598   23.3298 H   0  0  0  0  0  0
  -24.3581  -36.8919   22.2062 H   0  0  0  0  0  0
  -23.7237  -37.6466   23.6682 H   0  0  0  0  0  0
  -26.1058  -31.5332   20.6080 H   0  0  0  0  0  0
  -26.8470  -30.8171   22.0090 H   0  0  0  0  0  0
  -28.1128  -28.9398   21.2034 H   0  0  0  0  0  0
  -25.9474  -25.8918   19.0251 H   0  0  0  0  0  0
  -23.9782  -27.2902   19.0103 H   0  0  0  0  0  0
  -23.7636  -30.5808   19.4007 H   0  0  0  0  0  0
  -22.7613  -29.2353   19.8554 H   0  0  0  0  0  0
  -25.1295  -36.1907   25.0819 H   0  0  0  0  0  0
  -20.9958  -28.3282   24.1395 H   0  0  0  0  0  0
  -20.5679  -26.2294   23.3625 H   0  0  0  0  0  0
  -21.6632  -26.7438   22.1190 H   0  0  0  0  0  0
  -19.6933  -25.6291   21.1241 H   0  0  0  0  0  0
  -19.6700  -27.3190   20.6739 H   0  0  0  0  0  0
  -17.4189  -26.6660   21.4026 H   0  0  0  0  0  0
  -18.0323  -26.0073   22.9021 H   0  0  0  0  0  0
  -19.7953  -30.7259   24.2244 H   0  0  0  0  0  0
  -17.5032  -31.6268   24.5155 H   0  0  0  0  0  0
  -15.5357  -30.2971   23.7689 H   0  0  0  0  0  0
  -15.8670  -28.0836   22.7044 H   0  0  0  0  0  0
  -24.5903  -30.7081   25.7752 H   0  0  0  0  0  0
  -24.8905  -32.2906   26.4835 H   0  0  0  0  0  0
  -25.8030  -30.8929   27.0223 H   0  0  0  0  0  0
  -26.2943  -29.6729   24.1239 H   0  0  0  0  0  0
  -27.4046  -29.7284   25.4726 H   0  0  0  0  0  0
  -27.8807  -30.4271   23.9438 H   0  0  0  0  0  0
  -27.2665  -33.3652   26.2008 H   0  0  0  0  0  0
  -28.3880  -32.6846   25.0319 H   0  0  0  0  0  0
  -28.0686  -31.8486   26.5443 H   0  0  0  0  0  0
  -28.2569  -38.0100   24.7516 H   0  0  0  0  0  0
  -28.1090  -36.2619   24.6270 H   0  0  0  0  0  0
  -27.2290  -37.1404   25.8867 H   0  0  0  0  0  0
  -20.9388  -29.8755   21.6870 H   0  0  0  0  0  0
  -26.0173  -38.2837   24.1426 H   0  0  0  0  0  0
  -27.5043  -25.6044   22.6904 H   0  0  0  0  0  0
  -27.5303  -24.1574   23.7078 H   0  0  0  0  0  0
  -25.9918  -24.7942   23.1114 H   0  0  0  0  0  0
  -27.6576  -24.7537   19.0398 H   0  0  0  0  0  0
  -29.3406  -24.9287   19.2028 H   0  0  0  0  0  0
  -29.2874  -24.0777   21.5715 H   0  0  0  0  0  0
  -30.6978  -20.9759   18.4330 H   0  0  0  0  0  0
  -31.2004  -19.4843   17.7709 H   0  0  0  0  0  0
  -29.0064  -15.4823   21.4421 H   0  0  0  0  0  0
  -28.9321  -22.2617   19.3683 H   0  0  0  0  0  0
  1 25  1  0  0  0
  1 30  2  0  0  0
  1 81  1  0  0  0
  2  3  1  0  0  0
  2 25  1  0  0  0
  2 86  1  0  0  0
  2 87  1  0  0  0
  3  4  1  0  0  0
  3 88  1  0  0  0
  3 89  1  0  0  0
  4  5  1  0  0  0
  4 90  1  0  0  0
  4 91  1  0  0  0
  5  6  1  0  0  0
  5 26  1  0  0  0
  5 92  1  0  0  0
  6 25  1  0  0  0
  6 93  1  0  0  0
  6 94  1  0  0  0
  7  8  2  0  0  0
  7 26  1  0  0  0
  7 29  1  0  0  0
  8  9  1  0  0  0
  8 22  1  0  0  0
  9 10  1  0  0  0
  9 27  2  0  0  0
 10 11  2  0  0  0
 10 15  1  0  0  0
 11 12  1  0  0  0
 11 95  1  0  0  0
 12 13  2  0  0  0
 12 96  1  0  0  0
 13 14  1  0  0  0
 13 31  1  0  0  0
 14 15  2  0  0  0
 14 97  1  0  0  0
 15 98  1  0  0  0
 16 17  2  0  0  0
 16 21  1  0  0  0
 16 31  1  0  0  0
 17 18  1  0  0  0
 17 99  1  0  0  0
 18 19  2  0  0  0
 18100  1  0  0  0
 19 20  1  0  0  0
 19 24  1  0  0  0
 20 21  2  0  0  0
 20101  1  0  0  0
 21 23  1  0  0  0
 22 28  1  0  0  0
 22 32  2  0  0  0
 26 27  1  0  0  0
 28102  1  0  0  0
 28103  1  0  0  0
 29104  1  0  0  0
 29105  1  0  0  0
 33 34  1  0  0  0
 33 66  1  0  0  0
 33 70  2  0  0  0
 34 36  1  0  0  0
 34 59  1  0  0  0
 34106  1  0  0  0
 35 44  2  0  0  0
 35 45  1  0  0  0
 35 68  1  0  0  0
 36 56  1  0  0  0
 36107  1  0  0  0
 37 39  1  0  0  0
 37 47  1  0  0  0
 37 66  1  0  0  0
 37108  1  0  0  0
 38 43  2  0  0  0
 38 46  1  0  0  0
 38 47  1  0  0  0
 39 64  1  0  0  0
 39 67  2  0  0  0
 40 52  1  0  0  0
 40 53  2  0  0  0
 40 58  1  0  0  0
 41109  1  0  0  0
 41110  1  0  0  0
 41111  1  0  0  0
 41 48  1  0  0  0
 42 43  1  0  0  0
 42 66  1  0  0  0
 42112  1  0  0  0
 42113  1  0  0  0
 43 44  1  0  0  0
 44114  1  0  0  0
 45 46  2  0  0  0
 45115  1  0  0  0
 46116  1  0  0  0
 47117  1  0  0  0
 47118  1  0  0  0
 48 56  1  0  0  0
 48 65  1  0  0  0
 48119  1  0  0  0
 49 50  1  0  0  0
 49 53  1  0  0  0
 49 64  1  0  0  0
 49120  1  0  0  0
 50 51  1  0  0  0
 50121  1  0  0  0
 50122  1  0  0  0
 51 52  1  0  0  0
 51123  1  0  0  0
 51124  1  0  0  0
 52125  1  0  0  0
 52126  1  0  0  0
 53 54  1  0  0  0
 54 55  2  0  0  0
 54127  1  0  0  0
 55 57  1  0  0  0
 55128  1  0  0  0
 56 69  2  0  0  0
 57 58  2  0  0  0
 57129  1  0  0  0
 58130  1  0  0  0
 59 60  1  0  0  0
 59 61  1  0  0  0
 59 62  1  0  0  0
 60131  1  0  0  0
 60132  1  0  0  0
 60133  1  0  0  0
 61134  1  0  0  0
 61135  1  0  0  0
 61136  1  0  0  0
 62137  1  0  0  0
 62138  1  0  0  0
 62139  1  0  0  0
 63 65  1  0  0  0
 63140  1  0  0  0
 63141  1  0  0  0
 63142  1  0  0  0
 64143  1  0  0  0
 65144  1  0  0  0
 68 77  1  0  0  0
 71 72  2  0  0  0
 71 74  1  0  0  0
 71 85  1  0  0  0
 72 79  1  0  0  0
 72 80  1  0  0  0
 73 79  2  0  0  0
 73 81  1  0  0  0
 73 85  1  0  0  0
 74 82  1  0  0  0
 74 83  2  0  0  0
 75 76  1  0  0  0
 75 78  1  0  0  0
 75 84  2  0  0  0
 76145  1  0  0  0
 76146  1  0  0  0
 76147  1  0  0  0
 77148  1  0  0  0
 77149  1  0  0  0
 77 78  1  0  0  0
 78 82  1  0  0  0
 78150  1  0  0  0
 80151  1  0  0  0
 80152  1  0  0  0
 81153  1  0  0  0
 82154  1  0  0  0
M  ISO  4   1 100  68 101  77 101  81 100
M  END
> <chiral flag>
0

> <version>
0

> <s_m_source_file>
/data/baiqing/PycharmProjects/Reinvent-master-3.2/result/LINK_invent/BTK/process_docking_weight1_custom_product_contain_oxygen_bond_distance_aromatic_linkinvent_7_9_3/rearranged_h_0181.sdf

> <i_m_source_file_index>
96

> <r_mmod_Potential_Energy-OPLS-2005>
-79.0836563110352

> <r_mmod_Stretch_Energy-OPLS-2005>
114.404251098633

> <r_mmod_Bend_Energy-OPLS-2005>
189.613357543945

> <r_mmod_Torsional_Energy-OPLS-2005>
215.347930908203

> <r_mmod_Improper_Torsional_Energy-OPLS-2005>
4.62046575546265

> <r_mmod_Van_der_Waal_Energy-OPLS-2005>
115.377975463867

> <r_mmod_Electrostatic_Energy-OPLS-2005>
-524.235595703125

> <r_mmod_Solvation_Energy-OPLS-2005>
-268.149475097656

> <b_mmod_Minimization_Converged-OPLS-2005>
0

> <r_mmod_RMS_Derivative-OPLS-2005>
1.56297969818115

$$$$
97
                    3D
 Structure written by MMmdl.
153161  0  0  1  0            999 V2000
  -30.6359  -14.7662   20.4304 C   0  0  0  0  0  0
  -30.4258  -12.4693   19.4740 C   0  0  0  0  0  0
  -29.5111  -12.5061   18.2305 C   0  0  0  0  0  0
  -28.0338  -12.3515   18.6395 C   0  0  0  0  0  0
  -27.6383  -13.2474   19.8463 C   0  0  2  0  0  0
  -28.6877  -13.1957   20.9788 C   0  0  0  0  0  0
  -25.2494  -13.8239   20.5716 C   0  0  0  0  0  0
  -24.1804  -13.0456   20.9222 C   0  0  0  0  0  0
  -24.6404  -11.6950   20.8760 C   0  0  0  0  0  0
  -23.9080  -10.4314   21.0402 C   0  0  0  0  0  0
  -24.3635   -9.4217   21.9174 C   0  0  0  0  0  0
  -23.6326   -8.2253   22.0742 C   0  0  0  0  0  0
  -22.4313   -8.0273   21.3516 C   0  0  0  0  0  0
  -21.9939   -9.0249   20.4637 C   0  0  0  0  0  0
  -22.7267  -10.2142   20.3057 C   0  0  0  0  0  0
  -21.6864   -6.0736   22.5264 C   0  0  0  0  0  0
  -21.4031   -6.5645   23.8201 C   0  0  0  0  0  0
  -21.3681   -5.6794   24.9161 C   0  0  0  0  0  0
  -21.6049   -4.3044   24.7198 C   0  0  0  0  0  0
  -21.8825   -3.8141   23.4316 C   0  0  0  0  0  0
  -21.9193   -4.6966   22.3373 C   0  0  0  0  0  0
  -22.7820  -13.5204   21.1859 C   0  0  0  0  0  0
  -22.1650   -4.2149   21.0952 F   0  0  0  0  0  0
  -21.5633   -3.4531   25.7708 F   0  0  0  0  0  0
  -29.9821  -13.5499   20.3871 N   0  0  0  0  0  0
  -26.2936  -12.9469   20.3292 N   0  0  0  0  0  0
  -25.9338  -11.6599   20.5758 N   0  0  0  0  0  0
  -22.0454  -12.8250   22.0444 N   0  0  0  0  0  0
  -25.4150  -15.1970   20.4166 N   0  0  0  0  0  0
  -31.8456  -14.7705   20.1915 O   0  0  0  0  0  0
  -21.6664   -6.8879   21.4228 O   0  0  0  0  0  0
  -22.3508  -14.5470   20.6626 O   0  0  0  0  0  0
  -24.6322  -31.8540   23.1969 C   0  0  0  0  0  0
  -25.9140  -32.4737   23.8323 C   0  0  1  0  0  0
  -27.2239  -27.2597   20.1345 C   0  0  0  0  0  0
  -25.5946  -33.8542   24.2262 N   0  0  0  0  0  0
  -23.4313  -30.4740   21.5390 C   0  0  2  0  0  0
  -24.8785  -28.9158   20.1118 C   0  0  0  0  0  0
  -22.7526  -29.4573   22.4888 C   0  0  0  0  0  0
  -18.0307  -28.1374   22.8474 C   0  0  0  0  0  0
  -24.1486  -36.7280   23.2638 C   0  0  0  0  0  0
  -25.9764  -30.7621   21.3789 C   0  0  0  0  0  0
  -26.0505  -29.3852   20.7221 C   0  0  0  0  0  0
  -27.2298  -28.5721   20.7167 C   0  0  0  0  0  0
  -26.0325  -26.8522   19.5011 C   0  0  0  0  0  0
  -24.8760  -27.6568   19.4884 C   0  0  0  0  0  0
  -23.6517  -29.8075   20.1552 C   0  0  0  0  0  0
  -25.4106  -36.3066   24.0338 C   0  0  1  0  0  0
  -20.5902  -28.3691   23.1263 C   0  0  2  0  0  0
  -20.6786  -26.9407   22.5397 C   0  0  0  0  0  0
  -19.5756  -26.6366   21.5212 C   0  0  0  0  0  0
  -18.1946  -26.7918   22.1621 C   0  0  0  0  0  0
  -19.1559  -28.8853   23.2855 C   0  0  0  0  0  0
  -18.9465  -30.1454   23.8876 C   0  0  0  0  0  0
  -17.6460  -30.6577   24.0559 C   0  0  0  0  0  0
  -25.9049  -34.9435   23.5101 C   0  0  0  0  0  0
  -16.5353  -29.9063   23.6335 C   0  0  0  0  0  0
  -16.7288  -28.6482   23.0352 C   0  0  0  0  0  0
  -26.4495  -31.6563   25.0728 C   0  0  0  0  0  0
  -25.3709  -31.3738   26.1451 C   0  0  0  0  0  0
  -27.0350  -30.2980   24.6235 C   0  0  0  0  0  0
  -27.6049  -32.4305   25.7509 C   0  0  0  0  0  0
  -27.5585  -37.1792   24.8463 C   0  0  0  0  0  0
  -21.4224  -29.3035   22.3651 N   0  0  0  0  0  0
  -26.4289  -37.3760   23.9425 N   0  0  0  0  0  0
  -24.6990  -31.0488   22.0951 N   0  0  0  0  0  0
  -23.4238  -28.8141   23.3002 O   0  0  0  0  0  0
  -28.3134  -26.3625   20.1360 O   0  0  0  0  0  0
  -26.5611  -34.8914   22.4662 O   0  0  0  0  0  0
  -23.5466  -32.1376   23.7260 O   0  0  0  0  0  0
  -31.4691  -17.6598   19.5917 C   0  0  0  0  0  0
  -31.8522  -18.9655   19.2448 C   0  0  0  0  0  0
  -31.0045  -20.0555   19.5064 C   0  0  0  0  0  0
  -30.2352  -17.3873   20.2266 C   0  0  0  0  0  0
  -29.7592  -19.8189   20.1248 C   0  0  0  0  0  0
  -28.6873  -23.6791   20.0077 C   0  0  0  0  0  0
  -30.3734  -22.5079   21.6124 C   0  0  0  0  0  0
  -28.0904  -24.9924   20.7233 C   0  0  0  0  0  0
  -29.0331  -22.3304   20.8685 C   0  0  2  0  0  0
  -29.4007  -18.4997   20.4562 N   0  0  0  0  0  0
  -29.9003  -15.9553   20.5417 N   0  0  0  0  0  0
  -28.8278  -20.9260   20.2885 N   0  0  0  0  0  0
  -28.8648  -23.7054   18.7852 O   0  0  0  0  0  0
  -33.0369  -19.1631   18.6146 F   0  0  0  0  0  0
  -31.3721  -21.2926   19.0893 F   0  0  0  0  0  0
  -31.4674  -12.5872   19.1698 H   0  0  0  0  0  0
  -30.3686  -11.5003   19.9737 H   0  0  0  0  0  0
  -29.7971  -11.7176   17.5302 H   0  0  0  0  0  0
  -29.6556  -13.4510   17.7021 H   0  0  0  0  0  0
  -27.8788  -11.3021   18.8931 H   0  0  0  0  0  0
  -27.3859  -12.5579   17.7856 H   0  0  0  0  0  0
  -27.6233  -14.2727   19.4727 H   0  0  0  0  0  0
  -28.7321  -12.1986   21.4190 H   0  0  0  0  0  0
  -28.4277  -13.8810   21.7875 H   0  0  0  0  0  0
  -25.2767   -9.5718   22.4752 H   0  0  0  0  0  0
  -24.0029   -7.4663   22.7491 H   0  0  0  0  0  0
  -21.0846   -8.8784   19.8963 H   0  0  0  0  0  0
  -22.3702  -10.9677   19.6174 H   0  0  0  0  0  0
  -21.2037   -7.6168   23.9699 H   0  0  0  0  0  0
  -21.1507   -6.0524   25.9068 H   0  0  0  0  0  0
  -22.0586   -2.7602   23.2805 H   0  0  0  0  0  0
  -22.4071  -11.9969   22.4934 H   0  0  0  0  0  0
  -21.1018  -13.1246   22.2520 H   0  0  0  0  0  0
  -24.6513  -15.8499   20.5566 H   0  0  0  0  0  0
  -26.2608  -15.6419   20.0840 H   0  0  0  0  0  0
  -26.7221  -32.5390   23.1068 H   0  0  0  0  0  0
  -25.0130  -33.9671   25.0441 H   0  0  0  0  0  0
  -22.7280  -31.2964   21.3922 H   0  0  0  0  0  0
  -23.3754  -35.9602   23.3268 H   0  0  0  0  0  0
  -24.3580  -36.8930   22.2060 H   0  0  0  0  0  0
  -23.7225  -37.6469   23.6673 H   0  0  0  0  0  0
  -26.1227  -31.5202   20.6091 H   0  0  0  0  0  0
  -26.8527  -30.8088   22.0149 H   0  0  0  0  0  0
  -28.1286  -28.9317   21.1976 H   0  0  0  0  0  0
  -25.9919  -25.8864   19.0161 H   0  0  0  0  0  0
  -23.9814  -27.2932   19.0024 H   0  0  0  0  0  0
  -23.7887  -30.5872   19.4044 H   0  0  0  0  0  0
  -22.7694  -29.2469   19.8445 H   0  0  0  0  0  0
  -25.1282  -36.1897   25.0826 H   0  0  0  0  0  0
  -20.9996  -28.3248   24.1382 H   0  0  0  0  0  0
  -20.5680  -26.2305   23.3601 H   0  0  0  0  0  0
  -21.6652  -26.7417   22.1194 H   0  0  0  0  0  0
  -19.6916  -25.6275   21.1258 H   0  0  0  0  0  0
  -19.6692  -27.3156   20.6738 H   0  0  0  0  0  0
  -17.4215  -26.6674   21.4019 H   0  0  0  0  0  0
  -18.0326  -26.0058   22.9014 H   0  0  0  0  0  0
  -19.7939  -30.7280   24.2230 H   0  0  0  0  0  0
  -17.5010  -31.6255   24.5156 H   0  0  0  0  0  0
  -15.5353  -30.2949   23.7665 H   0  0  0  0  0  0
  -15.8695  -28.0798   22.7060 H   0  0  0  0  0  0
  -24.5853  -30.7123   25.7784 H   0  0  0  0  0  0
  -24.8935  -32.2922   26.4885 H   0  0  0  0  0  0
  -25.8007  -30.8899   27.0234 H   0  0  0  0  0  0
  -26.2956  -29.6715   24.1241 H   0  0  0  0  0  0
  -27.4010  -29.7247   25.4763 H   0  0  0  0  0  0
  -27.8839  -30.4253   23.9518 H   0  0  0  0  0  0
  -27.2650  -33.3592   26.2113 H   0  0  0  0  0  0
  -28.3855  -32.6886   25.0338 H   0  0  0  0  0  0
  -28.0733  -31.8416   26.5411 H   0  0  0  0  0  0
  -28.2571  -38.0121   24.7534 H   0  0  0  0  0  0
  -28.1115  -36.2650   24.6237 H   0  0  0  0  0  0
  -27.2326  -37.1389   25.8873 H   0  0  0  0  0  0
  -20.9423  -29.8752   21.6848 H   0  0  0  0  0  0
  -26.0160  -38.2838   24.1403 H   0  0  0  0  0  0
  -32.1657  -16.8884   19.3143 H   0  0  0  0  0  0
  -30.3341  -23.3476   22.3078 H   0  0  0  0  0  0
  -31.2015  -22.7143   20.9344 H   0  0  0  0  0  0
  -30.6217  -21.6288   22.2050 H   0  0  0  0  0  0
  -28.4957  -25.0200   21.7336 H   0  0  0  0  0  0
  -27.0216  -24.8228   20.8480 H   0  0  0  0  0  0
  -28.2950  -22.3356   21.6716 H   0  0  0  0  0  0
  -28.9361  -15.8071   20.7899 H   0  0  0  0  0  0
  -27.8671  -20.6232   20.3848 H   0  0  0  0  0  0
  1 25  1  0  0  0
  1 30  2  0  0  0
  1 81  1  0  0  0
  2  3  1  0  0  0
  2 25  1  0  0  0
  2 86  1  0  0  0
  2 87  1  0  0  0
  3  4  1  0  0  0
  3 88  1  0  0  0
  3 89  1  0  0  0
  4  5  1  0  0  0
  4 90  1  0  0  0
  4 91  1  0  0  0
  5  6  1  0  0  0
  5 26  1  0  0  0
  5 92  1  0  0  0
  6 25  1  0  0  0
  6 93  1  0  0  0
  6 94  1  0  0  0
  7  8  2  0  0  0
  7 26  1  0  0  0
  7 29  1  0  0  0
  8  9  1  0  0  0
  8 22  1  0  0  0
  9 10  1  0  0  0
  9 27  2  0  0  0
 10 11  2  0  0  0
 10 15  1  0  0  0
 11 12  1  0  0  0
 11 95  1  0  0  0
 12 13  2  0  0  0
 12 96  1  0  0  0
 13 14  1  0  0  0
 13 31  1  0  0  0
 14 15  2  0  0  0
 14 97  1  0  0  0
 15 98  1  0  0  0
 16 17  2  0  0  0
 16 21  1  0  0  0
 16 31  1  0  0  0
 17 18  1  0  0  0
 17 99  1  0  0  0
 18 19  2  0  0  0
 18100  1  0  0  0
 19 20  1  0  0  0
 19 24  1  0  0  0
 20 21  2  0  0  0
 20101  1  0  0  0
 21 23  1  0  0  0
 22 28  1  0  0  0
 22 32  2  0  0  0
 26 27  1  0  0  0
 28102  1  0  0  0
 28103  1  0  0  0
 29104  1  0  0  0
 29105  1  0  0  0
 33 34  1  0  0  0
 33 66  1  0  0  0
 33 70  2  0  0  0
 34 36  1  0  0  0
 34 59  1  0  0  0
 34106  1  0  0  0
 35 44  2  0  0  0
 35 45  1  0  0  0
 35 68  1  0  0  0
 36 56  1  0  0  0
 36107  1  0  0  0
 37 39  1  0  0  0
 37 47  1  0  0  0
 37 66  1  0  0  0
 37108  1  0  0  0
 38 43  2  0  0  0
 38 46  1  0  0  0
 38 47  1  0  0  0
 39 64  1  0  0  0
 39 67  2  0  0  0
 40 52  1  0  0  0
 40 53  2  0  0  0
 40 58  1  0  0  0
 41109  1  0  0  0
 41110  1  0  0  0
 41111  1  0  0  0
 41 48  1  0  0  0
 42 43  1  0  0  0
 42 66  1  0  0  0
 42112  1  0  0  0
 42113  1  0  0  0
 43 44  1  0  0  0
 44114  1  0  0  0
 45 46  2  0  0  0
 45115  1  0  0  0
 46116  1  0  0  0
 47117  1  0  0  0
 47118  1  0  0  0
 48 56  1  0  0  0
 48 65  1  0  0  0
 48119  1  0  0  0
 49 50  1  0  0  0
 49 53  1  0  0  0
 49 64  1  0  0  0
 49120  1  0  0  0
 50 51  1  0  0  0
 50121  1  0  0  0
 50122  1  0  0  0
 51 52  1  0  0  0
 51123  1  0  0  0
 51124  1  0  0  0
 52125  1  0  0  0
 52126  1  0  0  0
 53 54  1  0  0  0
 54 55  2  0  0  0
 54127  1  0  0  0
 55 57  1  0  0  0
 55128  1  0  0  0
 56 69  2  0  0  0
 57 58  2  0  0  0
 57129  1  0  0  0
 58130  1  0  0  0
 59 60  1  0  0  0
 59 61  1  0  0  0
 59 62  1  0  0  0
 60131  1  0  0  0
 60132  1  0  0  0
 60133  1  0  0  0
 61134  1  0  0  0
 61135  1  0  0  0
 61136  1  0  0  0
 62137  1  0  0  0
 62138  1  0  0  0
 62139  1  0  0  0
 63 65  1  0  0  0
 63140  1  0  0  0
 63141  1  0  0  0
 63142  1  0  0  0
 64143  1  0  0  0
 65144  1  0  0  0
 68 78  1  0  0  0
 71 72  2  0  0  0
 71 74  1  0  0  0
 71145  1  0  0  0
 72 73  1  0  0  0
 72 84  1  0  0  0
 73 75  2  0  0  0
 73 85  1  0  0  0
 74 80  2  0  0  0
 74 81  1  0  0  0
 75 80  1  0  0  0
 75 82  1  0  0  0
 76 78  1  0  0  0
 76 79  1  0  0  0
 76 83  2  0  0  0
 77146  1  0  0  0
 77147  1  0  0  0
 77148  1  0  0  0
 77 79  1  0  0  0
 78149  1  0  0  0
 78150  1  0  0  0
 79 82  1  0  0  0
 79151  1  0  0  0
 81152  1  0  0  0
 82153  1  0  0  0
M  ISO  4   1 100  68 101  78 101  81 100
M  END
> <chiral flag>
0

> <version>
0

> <s_m_source_file>
/data/baiqing/PycharmProjects/Reinvent-master-3.2/result/LINK_invent/BTK/process_docking_weight1_custom_product_contain_oxygen_bond_distance_aromatic_linkinvent_7_9_3/rearranged_h_0181.sdf

> <i_m_source_file_index>
97

> <r_mmod_Potential_Energy-OPLS-2005>
122.713569641113

> <r_mmod_Stretch_Energy-OPLS-2005>
144.690368652344

> <r_mmod_Bend_Energy-OPLS-2005>
194.317474365234

> <r_mmod_Torsional_Energy-OPLS-2005>
249.315460205078

> <r_mmod_Improper_Torsional_Energy-OPLS-2005>
6.5766429901123

> <r_mmod_Van_der_Waal_Energy-OPLS-2005>
141.548843383789

> <r_mmod_Electrostatic_Energy-OPLS-2005>
-456.860626220703

> <r_mmod_Solvation_Energy-OPLS-2005>
-248.202178955078

> <b_mmod_Minimization_Converged-OPLS-2005>
0

> <r_mmod_RMS_Derivative-OPLS-2005>
3.91496348381042

$$$$
