0
                    3D
 Structure written by MMmdl.
169177  0  0  1  0            999 V2000
  -30.6234  -14.7405   20.4596 C   0  0  0  0  0  0
  -30.4254  -12.4515   19.4744 C   0  0  0  0  0  0
  -29.5074  -12.5062   18.2347 C   0  0  0  0  0  0
  -28.0339  -12.3323   18.6495 C   0  0  0  0  0  0
  -27.6395  -13.2342   19.8499 C   0  0  2  0  0  0
  -28.6837  -13.1754   20.9864 C   0  0  0  0  0  0
  -25.2504  -13.8203   20.5712 C   0  0  0  0  0  0
  -24.1802  -13.0436   20.9212 C   0  0  0  0  0  0
  -24.6400  -11.6914   20.8754 C   0  0  0  0  0  0
  -23.9081  -10.4292   21.0413 C   0  0  0  0  0  0
  -24.3626   -9.4202   21.9190 C   0  0  0  0  0  0
  -23.6291   -8.2241   22.0762 C   0  0  0  0  0  0
  -22.4276   -8.0283   21.3548 C   0  0  0  0  0  0
  -21.9922   -9.0264   20.4649 C   0  0  0  0  0  0
  -22.7257  -10.2140   20.3057 C   0  0  0  0  0  0
  -21.6853   -6.0737   22.5280 C   0  0  0  0  0  0
  -21.4018   -6.5643   23.8213 C   0  0  0  0  0  0
  -21.3655   -5.6797   24.9176 C   0  0  0  0  0  0
  -21.6042   -4.3060   24.7227 C   0  0  0  0  0  0
  -21.8820   -3.8152   23.4350 C   0  0  0  0  0  0
  -21.9194   -4.6966   22.3402 C   0  0  0  0  0  0
  -22.7825  -13.5214   21.1866 C   0  0  0  0  0  0
  -22.1659   -4.2149   21.0979 F   0  0  0  0  0  0
  -21.5625   -3.4541   25.7738 F   0  0  0  0  0  0
  -29.9834  -13.5222   20.3996 N   0  0  0  0  0  0
  -26.2924  -12.9417   20.3282 N   0  0  0  0  0  0
  -25.9326  -11.6554   20.5753 N   0  0  0  0  0  0
  -22.0478  -12.8195   22.0420 N   0  0  0  0  0  0
  -25.4196  -15.1935   20.4162 N   0  0  0  0  0  0
  -31.8138  -14.7971   20.1413 O   0  0  0  0  0  0
  -21.6639   -6.8882   21.4241 O   0  0  0  0  0  0
  -22.3505  -14.5517   20.6708 O   0  0  0  0  0  0
  -24.6297  -31.8559   23.1983 C   0  0  0  0  0  0
  -25.9128  -32.4760   23.8324 C   0  0  1  0  0  0
  -27.2220  -27.2683   20.1209 C   0  0  0  0  0  0
  -25.5936  -33.8564   24.2249 N   0  0  0  0  0  0
  -23.4255  -30.4779   21.5416 C   0  0  2  0  0  0
  -24.8717  -28.9230   20.1082 C   0  0  0  0  0  0
  -22.7486  -29.4609   22.4917 C   0  0  0  0  0  0
  -18.0284  -28.1384   22.8503 C   0  0  0  0  0  0
  -24.1479  -36.7271   23.2643 C   0  0  0  0  0  0
  -25.9691  -30.7711   21.3751 C   0  0  0  0  0  0
  -26.0410  -29.3932   20.7168 C   0  0  0  0  0  0
  -27.2147  -28.5759   20.7149 C   0  0  0  0  0  0
  -26.0254  -26.8574   19.4926 C   0  0  0  0  0  0
  -24.8688  -27.6637   19.4869 C   0  0  0  0  0  0
  -23.6415  -29.8087   20.1578 C   0  0  0  0  0  0
  -25.4114  -36.3074   24.0321 C   0  0  1  0  0  0
  -20.5890  -28.3704   23.1276 C   0  0  2  0  0  0
  -20.6774  -26.9421   22.5417 C   0  0  0  0  0  0
  -19.5744  -26.6382   21.5223 C   0  0  0  0  0  0
  -18.1919  -26.7930   22.1634 C   0  0  0  0  0  0
  -19.1539  -28.8860   23.2882 C   0  0  0  0  0  0
  -18.9467  -30.1462   23.8898 C   0  0  0  0  0  0
  -17.6469  -30.6598   24.0565 C   0  0  0  0  0  0
  -25.9056  -34.9447   23.5085 C   0  0  0  0  0  0
  -16.5358  -29.9094   23.6334 C   0  0  0  0  0  0
  -16.7274  -28.6503   23.0372 C   0  0  0  0  0  0
  -26.4502  -31.6596   25.0722 C   0  0  0  0  0  0
  -25.3728  -31.3759   26.1452 C   0  0  0  0  0  0
  -27.0353  -30.3014   24.6212 C   0  0  0  0  0  0
  -27.6060  -32.4341   25.7490 C   0  0  0  0  0  0
  -27.5568  -37.1790   24.8469 C   0  0  0  0  0  0
  -21.4194  -29.3052   22.3663 N   0  0  0  0  0  0
  -26.4283  -37.3777   23.9409 N   0  0  0  0  0  0
  -24.6938  -31.0529   22.0952 N   0  0  0  0  0  0
  -23.4192  -28.8150   23.3014 O   0  0  0  0  0  0
  -28.3399  -26.4105   20.2109 O   0  0  0  0  0  0
  -26.5632  -34.8922   22.4656 O   0  0  0  0  0  0
  -23.5452  -32.1379   23.7287 O   0  0  0  0  0  0
  -31.5942  -17.7216   20.7765 C   0  0  0  0  0  0
  -31.0692  -20.1195   20.6457 C   0  0  0  0  0  0
  -29.2954  -18.4614   20.5289 C   0  0  0  0  0  0
  -32.0035  -19.0723   20.7792 C   0  0  0  0  0  0
  -30.2362  -17.3457   20.6367 C   0  0  0  0  0  0
  -29.6863  -19.8708   20.5238 C   0  0  0  0  0  0
  -28.4012  -23.7296   20.4217 C   0  0  0  0  0  0
  -36.2238  -18.8938   22.3608 C   0  0  0  0  0  0
  -35.4085  -20.2711   24.2801 C   0  0  0  0  0  0
  -35.7112  -21.3385   22.0407 C   0  0  0  0  0  0
  -33.4727  -19.4115   20.9642 C   0  0  0  0  0  0
  -29.1231  -22.3916   19.9002 C   0  0  0  0  0  0
  -28.4363  -25.0697   19.5404 C   0  0  0  0  0  0
  -33.8065  -19.6938   22.4434 C   0  0  0  0  0  0
  -35.2825  -20.0456   22.7613 C   0  0  0  0  0  0
  -29.8629  -15.8952   20.6518 N   0  0  0  0  0  0
  -28.7832  -21.0082   20.4567 N   0  0  0  0  0  0
  -27.8049  -23.7143   21.5034 O   0  0  0  0  0  0
  -31.4674  -12.5631   19.1705 H   0  0  0  0  0  0
  -30.3598  -11.4773   19.9610 H   0  0  0  0  0  0
  -29.7878  -11.7310   17.5204 H   0  0  0  0  0  0
  -29.6380  -13.4606   17.7208 H   0  0  0  0  0  0
  -27.8928  -11.2845   18.9165 H   0  0  0  0  0  0
  -27.3757  -12.5216   17.8007 H   0  0  0  0  0  0
  -27.6320  -14.2545   19.4663 H   0  0  0  0  0  0
  -28.7170  -12.1805   21.4332 H   0  0  0  0  0  0
  -28.4197  -13.8643   21.7907 H   0  0  0  0  0  0
  -25.2775   -9.5669   22.4766 H   0  0  0  0  0  0
  -23.9997   -7.4632   22.7491 H   0  0  0  0  0  0
  -21.0852   -8.8791   19.8953 H   0  0  0  0  0  0
  -22.3726  -10.9680   19.6164 H   0  0  0  0  0  0
  -21.2018   -7.6152   23.9714 H   0  0  0  0  0  0
  -21.1470   -6.0530   25.9077 H   0  0  0  0  0  0
  -22.0603   -2.7613   23.2855 H   0  0  0  0  0  0
  -22.4094  -11.9842   22.4787 H   0  0  0  0  0  0
  -21.1101  -13.1222   22.2640 H   0  0  0  0  0  0
  -24.6543  -15.8479   20.5369 H   0  0  0  0  0  0
  -26.2652  -15.6351   20.0807 H   0  0  0  0  0  0
  -26.7196  -32.5419   23.1064 H   0  0  0  0  0  0
  -25.0100  -33.9707   25.0409 H   0  0  0  0  0  0
  -22.7219  -31.3005   21.3957 H   0  0  0  0  0  0
  -23.3763  -35.9579   23.3298 H   0  0  0  0  0  0
  -24.3547  -36.8919   22.2056 H   0  0  0  0  0  0
  -23.7208  -37.6452   23.6685 H   0  0  0  0  0  0
  -26.1045  -31.5329   20.6056 H   0  0  0  0  0  0
  -26.8469  -30.8211   22.0076 H   0  0  0  0  0  0
  -28.1103  -28.9291   21.2065 H   0  0  0  0  0  0
  -25.9391  -25.8860   19.0321 H   0  0  0  0  0  0
  -23.9686  -27.2960   19.0142 H   0  0  0  0  0  0
  -23.7641  -30.5837   19.4003 H   0  0  0  0  0  0
  -22.7589  -29.2419   19.8551 H   0  0  0  0  0  0
  -25.1291  -36.1915   25.0811 H   0  0  0  0  0  0
  -20.9986  -28.3298   24.1398 H   0  0  0  0  0  0
  -20.5702  -26.2310   23.3620 H   0  0  0  0  0  0
  -21.6640  -26.7458   22.1202 H   0  0  0  0  0  0
  -19.6907  -25.6297   21.1249 H   0  0  0  0  0  0
  -19.6668  -27.3192   20.6753 H   0  0  0  0  0  0
  -17.4194  -26.6707   21.4025 H   0  0  0  0  0  0
  -18.0298  -26.0060   22.9013 H   0  0  0  0  0  0
  -19.7946  -30.7273   24.2265 H   0  0  0  0  0  0
  -17.5029  -31.6278   24.5170 H   0  0  0  0  0  0
  -15.5356  -30.3003   23.7652 H   0  0  0  0  0  0
  -15.8674  -28.0813   22.7105 H   0  0  0  0  0  0
  -24.5862  -30.7160   25.7774 H   0  0  0  0  0  0
  -24.8973  -32.2946   26.4898 H   0  0  0  0  0  0
  -25.8036  -30.8903   27.0217 H   0  0  0  0  0  0
  -26.2938  -29.6745   24.1251 H   0  0  0  0  0  0
  -27.4054  -29.7295   25.4732 H   0  0  0  0  0  0
  -27.8801  -30.4287   23.9441 H   0  0  0  0  0  0
  -27.2692  -33.3695   26.1965 H   0  0  0  0  0  0
  -28.3915  -32.6805   25.0335 H   0  0  0  0  0  0
  -28.0659  -31.8523   26.5486 H   0  0  0  0  0  0
  -28.2598  -38.0080   24.7526 H   0  0  0  0  0  0
  -28.1058  -36.2611   24.6301 H   0  0  0  0  0  0
  -27.2278  -37.1454   25.8872 H   0  0  0  0  0  0
  -20.9375  -29.8781   21.6875 H   0  0  0  0  0  0
  -26.0163  -38.2845   24.1442 H   0  0  0  0  0  0
  -32.3639  -16.9775   20.9071 H   0  0  0  0  0  0
  -31.4474  -21.1296   20.6847 H   0  0  0  0  0  0
  -28.2437  -18.2274   20.4484 H   0  0  0  0  0  0
  -37.2472  -19.0877   22.6846 H   0  0  0  0  0  0
  -36.2566  -18.7495   21.2809 H   0  0  0  0  0  0
  -35.9142  -17.9495   22.8104 H   0  0  0  0  0  0
  -36.4302  -20.5262   24.5655 H   0  0  0  0  0  0
  -35.1287  -19.3788   24.8418 H   0  0  0  0  0  0
  -34.7645  -21.0842   24.6180 H   0  0  0  0  0  0
  -36.7196  -21.6379   22.3293 H   0  0  0  0  0  0
  -35.0451  -22.1686   22.2798 H   0  0  0  0  0  0
  -35.7150  -21.2226   20.9568 H   0  0  0  0  0  0
  -33.7110  -20.2759   20.3435 H   0  0  0  0  0  0
  -34.0760  -18.5881   20.5827 H   0  0  0  0  0  0
  -30.1890  -22.5828   20.0020 H   0  0  0  0  0  0
  -28.9436  -22.3515   18.8254 H   0  0  0  0  0  0
  -27.7143  -24.9718   18.7330 H   0  0  0  0  0  0
  -29.4025  -25.0632   19.0367 H   0  0  0  0  0  0
  -33.5141  -18.8213   23.0303 H   0  0  0  0  0  0
  -33.1667  -20.5063   22.7920 H   0  0  0  0  0  0
  -28.8810  -15.7085   20.7833 H   0  0  0  0  0  0
  -27.7872  -20.8007   20.4632 H   0  0  0  0  0  0
  1 25  1  0  0  0
  1 30  2  0  0  0
  1 86  1  0  0  0
  2  3  1  0  0  0
  2 25  1  0  0  0
  2 89  1  0  0  0
  2 90  1  0  0  0
  3  4  1  0  0  0
  3 91  1  0  0  0
  3 92  1  0  0  0
  4  5  1  0  0  0
  4 93  1  0  0  0
  4 94  1  0  0  0
  5  6  1  0  0  0
  5 26  1  0  0  0
  5 95  1  0  0  0
  6 25  1  0  0  0
  6 96  1  0  0  0
  6 97  1  0  0  0
  7  8  2  0  0  0
  7 26  1  0  0  0
  7 29  1  0  0  0
  8  9  1  0  0  0
  8 22  1  0  0  0
  9 10  1  0  0  0
  9 27  2  0  0  0
 10 11  2  0  0  0
 10 15  1  0  0  0
 11 12  1  0  0  0
 11 98  1  0  0  0
 12 13  2  0  0  0
 12 99  1  0  0  0
 13 14  1  0  0  0
 13 31  1  0  0  0
 14 15  2  0  0  0
 14100  1  0  0  0
 15101  1  0  0  0
 16 17  2  0  0  0
 16 21  1  0  0  0
 16 31  1  0  0  0
 17 18  1  0  0  0
 17102  1  0  0  0
 18 19  2  0  0  0
 18103  1  0  0  0
 19 20  1  0  0  0
 19 24  1  0  0  0
 20 21  2  0  0  0
 20104  1  0  0  0
 21 23  1  0  0  0
 22 28  1  0  0  0
 22 32  2  0  0  0
 26 27  1  0  0  0
 28105  1  0  0  0
 28106  1  0  0  0
 29107  1  0  0  0
 29108  1  0  0  0
 33 34  1  0  0  0
 33 66  1  0  0  0
 33 70  2  0  0  0
 34 36  1  0  0  0
 34 59  1  0  0  0
 34109  1  0  0  0
 35 44  2  0  0  0
 35 45  1  0  0  0
 35 68  1  0  0  0
 36 56  1  0  0  0
 36110  1  0  0  0
 37 39  1  0  0  0
 37 47  1  0  0  0
 37 66  1  0  0  0
 37111  1  0  0  0
 38 43  2  0  0  0
 38 46  1  0  0  0
 38 47  1  0  0  0
 39 64  1  0  0  0
 39 67  2  0  0  0
 40 52  1  0  0  0
 40 53  2  0  0  0
 40 58  1  0  0  0
 41112  1  0  0  0
 41113  1  0  0  0
 41114  1  0  0  0
 41 48  1  0  0  0
 42 43  1  0  0  0
 42 66  1  0  0  0
 42115  1  0  0  0
 42116  1  0  0  0
 43 44  1  0  0  0
 44117  1  0  0  0
 45 46  2  0  0  0
 45118  1  0  0  0
 46119  1  0  0  0
 47120  1  0  0  0
 47121  1  0  0  0
 48 56  1  0  0  0
 48 65  1  0  0  0
 48122  1  0  0  0
 49 50  1  0  0  0
 49 53  1  0  0  0
 49 64  1  0  0  0
 49123  1  0  0  0
 50 51  1  0  0  0
 50124  1  0  0  0
 50125  1  0  0  0
 51 52  1  0  0  0
 51126  1  0  0  0
 51127  1  0  0  0
 52128  1  0  0  0
 52129  1  0  0  0
 53 54  1  0  0  0
 54 55  2  0  0  0
 54130  1  0  0  0
 55 57  1  0  0  0
 55131  1  0  0  0
 56 69  2  0  0  0
 57 58  2  0  0  0
 57132  1  0  0  0
 58133  1  0  0  0
 59 60  1  0  0  0
 59 61  1  0  0  0
 59 62  1  0  0  0
 60134  1  0  0  0
 60135  1  0  0  0
 60136  1  0  0  0
 61137  1  0  0  0
 61138  1  0  0  0
 61139  1  0  0  0
 62140  1  0  0  0
 62141  1  0  0  0
 62142  1  0  0  0
 63 65  1  0  0  0
 63143  1  0  0  0
 63144  1  0  0  0
 63145  1  0  0  0
 64146  1  0  0  0
 65147  1  0  0  0
 68 83  1  0  0  0
 71 74  2  0  0  0
 71 75  1  0  0  0
 71148  1  0  0  0
 72 74  1  0  0  0
 72 76  2  0  0  0
 72149  1  0  0  0
 73 75  2  0  0  0
 73 76  1  0  0  0
 73150  1  0  0  0
 74 81  1  0  0  0
 75 86  1  0  0  0
 76 87  1  0  0  0
 77 82  1  0  0  0
 77 83  1  0  0  0
 77 88  2  0  0  0
 78151  1  0  0  0
 78152  1  0  0  0
 78153  1  0  0  0
 78 85  1  0  0  0
 79 85  1  0  0  0
 79154  1  0  0  0
 79155  1  0  0  0
 79156  1  0  0  0
 80 85  1  0  0  0
 80157  1  0  0  0
 80158  1  0  0  0
 80159  1  0  0  0
 81 84  1  0  0  0
 81160  1  0  0  0
 81161  1  0  0  0
 82 87  1  0  0  0
 82162  1  0  0  0
 82163  1  0  0  0
 83164  1  0  0  0
 83165  1  0  0  0
 84 85  1  0  0  0
 84166  1  0  0  0
 84167  1  0  0  0
 86168  1  0  0  0
 87169  1  0  0  0
M  ISO  4   1 100  68 101  83 101  86 100
M  END
> <chiral flag>
0

> <version>
0

> <s_m_source_file>
/data/baiqing/PycharmProjects/Reinvent-master-3.2/result/LINK_invent/BTK/process_docking_weight1_custom_product_contain_oxygen_bond_distance_aromatic_linkinvent_7_9_3/rearranged_h_0165.sdf

> <i_m_source_file_index>
1

> <r_mmod_Potential_Energy-OPLS-2005>
219.773651123047

> <r_mmod_Stretch_Energy-OPLS-2005>
129.157333374023

> <r_mmod_Bend_Energy-OPLS-2005>
185.848541259766

> <r_mmod_Torsional_Energy-OPLS-2005>
208.770248413086

> <r_mmod_Improper_Torsional_Energy-OPLS-2005>
6.51304483413696

> <r_mmod_Van_der_Waal_Energy-OPLS-2005>
144.296142578125

> <r_mmod_Electrostatic_Energy-OPLS-2005>
-295.013397216797

> <r_mmod_Solvation_Energy-OPLS-2005>
-240.727996826172

> <b_mmod_Minimization_Converged-OPLS-2005>
0

> <r_mmod_RMS_Derivative-OPLS-2005>
0.986245810985565

$$$$
1
                    3D
 Structure written by MMmdl.
153161  0  0  1  0            999 V2000
  -30.5981  -14.5999   20.6172 C   0  0  0  0  0  0
  -30.4493  -12.3979   19.4420 C   0  0  0  0  0  0
  -29.5081  -12.5390   18.2219 C   0  0  0  0  0  0
  -28.0277  -12.3778   18.6224 C   0  0  0  0  0  0
  -27.6625  -13.2080   19.8813 C   0  0  2  0  0  0
  -28.7008  -12.9763   20.9988 C   0  0  0  0  0  0
  -25.2598  -13.8175   20.5766 C   0  0  0  0  0  0
  -24.1818  -13.0436   20.9146 C   0  0  0  0  0  0
  -24.6369  -11.6895   20.8668 C   0  0  0  0  0  0
  -23.9034  -10.4285   21.0389 C   0  0  0  0  0  0
  -24.3579   -9.4219   21.9195 C   0  0  0  0  0  0
  -23.6261   -8.2254   22.0787 C   0  0  0  0  0  0
  -22.4242   -8.0266   21.3583 C   0  0  0  0  0  0
  -21.9861   -9.0233   20.4689 C   0  0  0  0  0  0
  -22.7183  -10.2106   20.3071 C   0  0  0  0  0  0
  -21.6828   -6.0689   22.5256 C   0  0  0  0  0  0
  -21.3989   -6.5616   23.8170 C   0  0  0  0  0  0
  -21.3672   -5.6792   24.9159 C   0  0  0  0  0  0
  -21.6025   -4.3043   24.7211 C   0  0  0  0  0  0
  -21.8820   -3.8112   23.4344 C   0  0  0  0  0  0
  -21.9202   -4.6921   22.3378 C   0  0  0  0  0  0
  -22.7821  -13.5217   21.1846 C   0  0  0  0  0  0
  -22.1711   -4.2101   21.0964 F   0  0  0  0  0  0
  -21.5616   -3.4550   25.7745 F   0  0  0  0  0  0
  -30.0215  -13.3641   20.4718 N   0  0  0  0  0  0
  -26.3015  -12.9327   20.3368 N   0  0  0  0  0  0
  -25.9306  -11.6480   20.5709 N   0  0  0  0  0  0
  -22.0455  -12.8218   22.0430 N   0  0  0  0  0  0
  -25.4380  -15.1920   20.4432 N   0  0  0  0  0  0
  -31.6875  -14.8799   20.1057 O   0  0  0  0  0  0
  -21.6619   -6.8850   21.4227 O   0  0  0  0  0  0
  -22.3510  -14.5540   20.6724 O   0  0  0  0  0  0
  -24.6238  -31.8667   23.2060 C   0  0  0  0  0  0
  -25.9120  -32.4798   23.8371 C   0  0  1  0  0  0
  -27.2337  -27.3462   20.0916 C   0  0  0  0  0  0
  -25.5959  -33.8595   24.2325 N   0  0  0  0  0  0
  -23.4140  -30.4916   21.5473 C   0  0  2  0  0  0
  -24.8616  -28.9508   20.1149 C   0  0  0  0  0  0
  -22.7450  -29.4671   22.4929 C   0  0  0  0  0  0
  -18.0274  -28.1369   22.8466 C   0  0  0  0  0  0
  -24.1506  -36.7282   23.2627 C   0  0  0  0  0  0
  -25.9543  -30.7982   21.3782 C   0  0  0  0  0  0
  -26.0274  -29.4268   20.7237 C   0  0  0  0  0  0
  -27.2097  -28.6310   20.7192 C   0  0  0  0  0  0
  -26.0403  -26.9312   19.4485 C   0  0  0  0  0  0
  -24.8681  -27.7038   19.4762 C   0  0  0  0  0  0
  -23.6310  -29.8307   20.1613 C   0  0  0  0  0  0
  -25.4121  -36.3071   24.0329 C   0  0  1  0  0  0
  -20.5879  -28.3694   23.1259 C   0  0  2  0  0  0
  -20.6773  -26.9420   22.5390 C   0  0  0  0  0  0
  -19.5751  -26.6390   21.5184 C   0  0  0  0  0  0
  -18.1928  -26.7917   22.1595 C   0  0  0  0  0  0
  -19.1531  -28.8836   23.2868 C   0  0  0  0  0  0
  -18.9472  -30.1439   23.8889 C   0  0  0  0  0  0
  -17.6479  -30.6578   24.0552 C   0  0  0  0  0  0
  -25.9065  -34.9444   23.5122 C   0  0  0  0  0  0
  -16.5369  -29.9093   23.6307 C   0  0  0  0  0  0
  -16.7270  -28.6502   23.0349 C   0  0  0  0  0  0
  -26.4528  -31.6564   25.0704 C   0  0  0  0  0  0
  -25.3814  -31.3681   26.1472 C   0  0  0  0  0  0
  -27.0335  -30.2980   24.6108 C   0  0  0  0  0  0
  -27.6086  -32.4292   25.7476 C   0  0  0  0  0  0
  -27.5582  -37.1788   24.8461 C   0  0  0  0  0  0
  -21.4166  -29.3066   22.3677 N   0  0  0  0  0  0
  -26.4284  -37.3772   23.9412 N   0  0  0  0  0  0
  -24.6818  -31.0693   22.1003 N   0  0  0  0  0  0
  -23.4202  -28.8191   23.2974 O   0  0  0  0  0  0
  -28.3882  -26.5429   20.1168 O   0  0  0  0  0  0
  -26.5613  -34.8911   22.4678 O   0  0  0  0  0  0
  -23.5411  -32.1456   23.7397 O   0  0  0  0  0  0
  -28.9535  -19.6233   22.0104 C   0  0  0  0  0  0
  -28.5077  -18.5921   22.8535 C   0  0  0  0  0  0
  -29.7593  -19.3296   20.8881 C   0  0  0  0  0  0
  -29.6791  -16.8940   21.5020 C   0  0  0  0  0  0
  -28.8640  -17.2539   22.6049 C   0  0  0  0  0  0
  -30.1224  -17.9532   20.6388 C   0  0  0  0  0  0
  -28.3296  -25.1571   19.8701 C   0  0  0  0  0  0
  -29.2163  -24.2021   20.2831 C   0  0  0  0  0  0
  -29.0070  -22.7711   19.9210 C   0  0  0  0  0  0
  -30.1866  -20.4848   19.9375 C   0  0  0  0  0  0
  -29.8587  -15.4569   21.3725 N   0  0  0  0  0  0
  -29.9657  -21.9117   20.3517 N   0  0  0  0  0  0
  -28.0566  -22.3636   19.2501 O   0  0  0  0  0  0
  -30.2889  -24.5457   21.0133 O   0  0  0  0  0  0
  -28.3964  -16.2932   23.4411 F   0  0  0  0  0  0
  -30.8616  -17.6596   19.5433 F   0  0  0  0  0  0
  -31.4845  -12.5620   19.1400 H   0  0  0  0  0  0
  -30.4147  -11.3842   19.8453 H   0  0  0  0  0  0
  -29.7699  -11.8118   17.4497 H   0  0  0  0  0  0
  -29.6401  -13.5239   17.7722 H   0  0  0  0  0  0
  -27.8395  -11.3195   18.8096 H   0  0  0  0  0  0
  -27.3859  -12.6625   17.7884 H   0  0  0  0  0  0
  -27.7116  -14.2582   19.5910 H   0  0  0  0  0  0
  -28.7181  -11.9229   21.2811 H   0  0  0  0  0  0
  -28.4254  -13.5051   21.9127 H   0  0  0  0  0  0
  -25.2722   -9.5691   22.4775 H   0  0  0  0  0  0
  -24.0008   -7.4625   22.7463 H   0  0  0  0  0  0
  -21.0839   -8.8688   19.8975 H   0  0  0  0  0  0
  -22.3638  -10.9627   19.6161 H   0  0  0  0  0  0
  -21.1974   -7.6115   23.9652 H   0  0  0  0  0  0
  -21.1550   -6.0561   25.9064 H   0  0  0  0  0  0
  -22.0631   -2.7574   23.2876 H   0  0  0  0  0  0
  -22.4024  -11.9841   22.4801 H   0  0  0  0  0  0
  -21.1081  -13.1250   22.2693 H   0  0  0  0  0  0
  -24.6925  -15.8528   20.6346 H   0  0  0  0  0  0
  -26.3102  -15.6399   20.1949 H   0  0  0  0  0  0
  -26.7167  -32.5493   23.1092 H   0  0  0  0  0  0
  -25.0140  -33.9783   25.0492 H   0  0  0  0  0  0
  -22.7036  -31.3084   21.4049 H   0  0  0  0  0  0
  -23.3767  -35.9614   23.3274 H   0  0  0  0  0  0
  -24.3588  -36.8928   22.2040 H   0  0  0  0  0  0
  -23.7280  -37.6486   23.6666 H   0  0  0  0  0  0
  -26.0905  -31.5602   20.6085 H   0  0  0  0  0  0
  -26.8339  -30.8426   22.0082 H   0  0  0  0  0  0
  -28.1027  -28.9946   21.2069 H   0  0  0  0  0  0
  -25.9580  -26.0093   18.8952 H   0  0  0  0  0  0
  -23.9785  -27.3369   18.9841 H   0  0  0  0  0  0
  -23.7542  -30.6095   19.4064 H   0  0  0  0  0  0
  -22.7463  -29.2686   19.8552 H   0  0  0  0  0  0
  -25.1294  -36.1887   25.0815 H   0  0  0  0  0  0
  -20.9978  -28.3282   24.1377 H   0  0  0  0  0  0
  -20.5626  -26.2332   23.3613 H   0  0  0  0  0  0
  -21.6660  -26.7430   22.1228 H   0  0  0  0  0  0
  -19.6941  -25.6306   21.1225 H   0  0  0  0  0  0
  -19.6678  -27.3180   20.6702 H   0  0  0  0  0  0
  -17.4205  -26.6637   21.4003 H   0  0  0  0  0  0
  -18.0335  -26.0061   22.8992 H   0  0  0  0  0  0
  -19.7964  -30.7227   24.2280 H   0  0  0  0  0  0
  -17.5056  -31.6250   24.5169 H   0  0  0  0  0  0
  -15.5375  -30.3004   23.7629 H   0  0  0  0  0  0
  -15.8668  -28.0821   22.7083 H   0  0  0  0  0  0
  -24.5972  -30.7027   25.7847 H   0  0  0  0  0  0
  -24.9035  -32.2843   26.4942 H   0  0  0  0  0  0
  -25.8217  -30.8854   27.0208 H   0  0  0  0  0  0
  -26.2865  -29.6736   24.1195 H   0  0  0  0  0  0
  -27.4105  -29.7199   25.4550 H   0  0  0  0  0  0
  -27.8713  -30.4232   23.9246 H   0  0  0  0  0  0
  -27.2687  -33.3570   26.2077 H   0  0  0  0  0  0
  -28.3889  -32.6905   25.0320 H   0  0  0  0  0  0
  -28.0767  -31.8420   26.5384 H   0  0  0  0  0  0
  -28.2578  -38.0111   24.7521 H   0  0  0  0  0  0
  -28.1102  -36.2630   24.6243 H   0  0  0  0  0  0
  -27.2305  -37.1395   25.8872 H   0  0  0  0  0  0
  -20.9334  -29.8826   21.6927 H   0  0  0  0  0  0
  -26.0149  -38.2834   24.1439 H   0  0  0  0  0  0
  -28.6459  -20.6375   22.2314 H   0  0  0  0  0  0
  -27.8742  -18.8177   23.7009 H   0  0  0  0  0  0
  -27.4942  -24.8545   19.2643 H   0  0  0  0  0  0
  -29.7200  -20.3125   18.9658 H   0  0  0  0  0  0
  -31.2575  -20.3745   19.7538 H   0  0  0  0  0  0
  -29.1503  -14.9576   21.8879 H   0  0  0  0  0  0
  -30.7128  -22.3510   20.8756 H   0  0  0  0  0  0
  -30.2535  -25.4865   21.1335 H   0  0  0  0  0  0
  1 25  1  0  0  0
  1 30  2  0  0  0
  1 81  1  0  0  0
  2  3  1  0  0  0
  2 25  1  0  0  0
  2 87  1  0  0  0
  2 88  1  0  0  0
  3  4  1  0  0  0
  3 89  1  0  0  0
  3 90  1  0  0  0
  4  5  1  0  0  0
  4 91  1  0  0  0
  4 92  1  0  0  0
  5  6  1  0  0  0
  5 26  1  0  0  0
  5 93  1  0  0  0
  6 25  1  0  0  0
  6 94  1  0  0  0
  6 95  1  0  0  0
  7  8  2  0  0  0
  7 26  1  0  0  0
  7 29  1  0  0  0
  8  9  1  0  0  0
  8 22  1  0  0  0
  9 10  1  0  0  0
  9 27  2  0  0  0
 10 11  2  0  0  0
 10 15  1  0  0  0
 11 12  1  0  0  0
 11 96  1  0  0  0
 12 13  2  0  0  0
 12 97  1  0  0  0
 13 14  1  0  0  0
 13 31  1  0  0  0
 14 15  2  0  0  0
 14 98  1  0  0  0
 15 99  1  0  0  0
 16 17  2  0  0  0
 16 21  1  0  0  0
 16 31  1  0  0  0
 17 18  1  0  0  0
 17100  1  0  0  0
 18 19  2  0  0  0
 18101  1  0  0  0
 19 20  1  0  0  0
 19 24  1  0  0  0
 20 21  2  0  0  0
 20102  1  0  0  0
 21 23  1  0  0  0
 22 28  1  0  0  0
 22 32  2  0  0  0
 26 27  1  0  0  0
 28103  1  0  0  0
 28104  1  0  0  0
 29105  1  0  0  0
 29106  1  0  0  0
 33 34  1  0  0  0
 33 66  1  0  0  0
 33 70  2  0  0  0
 34 36  1  0  0  0
 34 59  1  0  0  0
 34107  1  0  0  0
 35 44  2  0  0  0
 35 45  1  0  0  0
 35 68  1  0  0  0
 36 56  1  0  0  0
 36108  1  0  0  0
 37 39  1  0  0  0
 37 47  1  0  0  0
 37 66  1  0  0  0
 37109  1  0  0  0
 38 43  2  0  0  0
 38 46  1  0  0  0
 38 47  1  0  0  0
 39 64  1  0  0  0
 39 67  2  0  0  0
 40 52  1  0  0  0
 40 53  2  0  0  0
 40 58  1  0  0  0
 41110  1  0  0  0
 41111  1  0  0  0
 41112  1  0  0  0
 41 48  1  0  0  0
 42 43  1  0  0  0
 42 66  1  0  0  0
 42113  1  0  0  0
 42114  1  0  0  0
 43 44  1  0  0  0
 44115  1  0  0  0
 45 46  2  0  0  0
 45116  1  0  0  0
 46117  1  0  0  0
 47118  1  0  0  0
 47119  1  0  0  0
 48 56  1  0  0  0
 48 65  1  0  0  0
 48120  1  0  0  0
 49 50  1  0  0  0
 49 53  1  0  0  0
 49 64  1  0  0  0
 49121  1  0  0  0
 50 51  1  0  0  0
 50122  1  0  0  0
 50123  1  0  0  0
 51 52  1  0  0  0
 51124  1  0  0  0
 51125  1  0  0  0
 52126  1  0  0  0
 52127  1  0  0  0
 53 54  1  0  0  0
 54 55  2  0  0  0
 54128  1  0  0  0
 55 57  1  0  0  0
 55129  1  0  0  0
 56 69  2  0  0  0
 57 58  2  0  0  0
 57130  1  0  0  0
 58131  1  0  0  0
 59 60  1  0  0  0
 59 61  1  0  0  0
 59 62  1  0  0  0
 60132  1  0  0  0
 60133  1  0  0  0
 60134  1  0  0  0
 61135  1  0  0  0
 61136  1  0  0  0
 61137  1  0  0  0
 62138  1  0  0  0
 62139  1  0  0  0
 62140  1  0  0  0
 63 65  1  0  0  0
 63141  1  0  0  0
 63142  1  0  0  0
 63143  1  0  0  0
 64144  1  0  0  0
 65145  1  0  0  0
 68 77  1  0  0  0
 71 72  2  0  0  0
 71 73  1  0  0  0
 71146  1  0  0  0
 72 75  1  0  0  0
 72147  1  0  0  0
 73 76  2  0  0  0
 73 80  1  0  0  0
 74 75  2  0  0  0
 74 76  1  0  0  0
 74 81  1  0  0  0
 75 85  1  0  0  0
 76 86  1  0  0  0
 77 78  2  0  0  0
 77148  1  0  0  0
 78 79  1  0  0  0
 78 84  1  0  0  0
 79 82  1  0  0  0
 79 83  2  0  0  0
 80 82  1  0  0  0
 80149  1  0  0  0
 80150  1  0  0  0
 81151  1  0  0  0
 82152  1  0  0  0
 84153  1  0  0  0
M  ISO  4   1 100  68 101  77 101  81 100
M  END
> <chiral flag>
0

> <version>
0

> <s_m_source_file>
/data/baiqing/PycharmProjects/Reinvent-master-3.2/result/LINK_invent/BTK/process_docking_weight1_custom_product_contain_oxygen_bond_distance_aromatic_linkinvent_7_9_3/rearranged_h_0165.sdf

> <i_m_source_file_index>
2

> <r_mmod_Potential_Energy-OPLS-2005>
-148.328414916992

> <r_mmod_Stretch_Energy-OPLS-2005>
68.4858322143555

> <r_mmod_Bend_Energy-OPLS-2005>
149.651748657227

> <r_mmod_Torsional_Energy-OPLS-2005>
191.571319580078

> <r_mmod_Improper_Torsional_Energy-OPLS-2005>
3.10739231109619

> <r_mmod_Van_der_Waal_Energy-OPLS-2005>
155.559844970703

> <r_mmod_Electrostatic_Energy-OPLS-2005>
-528.62841796875

> <r_mmod_Solvation_Energy-OPLS-2005>
-226.158218383789

> <b_mmod_Minimization_Converged-OPLS-2005>
0

> <r_mmod_RMS_Derivative-OPLS-2005>
4.73973655700684

$$$$
2
                    3D
 Structure written by MMmdl.
159167  0  0  1  0            999 V2000
  -30.6096  -14.7501   20.4703 C   0  0  0  0  0  0
  -30.4320  -12.4621   19.4758 C   0  0  0  0  0  0
  -29.5097  -12.5083   18.2375 C   0  0  0  0  0  0
  -28.0350  -12.3328   18.6500 C   0  0  0  0  0  0
  -27.6397  -13.2332   19.8515 C   0  0  2  0  0  0
  -28.6828  -13.1698   20.9878 C   0  0  0  0  0  0
  -25.2478  -13.8203   20.5681 C   0  0  0  0  0  0
  -24.1784  -13.0448   20.9214 C   0  0  0  0  0  0
  -24.6381  -11.6920   20.8742 C   0  0  0  0  0  0
  -23.9057  -10.4299   21.0416 C   0  0  0  0  0  0
  -24.3616   -9.4211   21.9192 C   0  0  0  0  0  0
  -23.6293   -8.2246   22.0756 C   0  0  0  0  0  0
  -22.4272   -8.0281   21.3552 C   0  0  0  0  0  0
  -21.9911   -9.0250   20.4651 C   0  0  0  0  0  0
  -22.7232  -10.2135   20.3063 C   0  0  0  0  0  0
  -21.6858   -6.0734   22.5273 C   0  0  0  0  0  0
  -21.4020   -6.5639   23.8204 C   0  0  0  0  0  0
  -21.3652   -5.6790   24.9165 C   0  0  0  0  0  0
  -21.6044   -4.3053   24.7222 C   0  0  0  0  0  0
  -21.8819   -3.8145   23.4343 C   0  0  0  0  0  0
  -21.9193   -4.6962   22.3399 C   0  0  0  0  0  0
  -22.7797  -13.5225   21.1865 C   0  0  0  0  0  0
  -22.1661   -4.2146   21.0977 F   0  0  0  0  0  0
  -21.5623   -3.4535   25.7736 F   0  0  0  0  0  0
  -29.9816  -13.5258   20.4052 N   0  0  0  0  0  0
  -26.2915  -12.9421   20.3274 N   0  0  0  0  0  0
  -25.9320  -11.6559   20.5768 N   0  0  0  0  0  0
  -22.0447  -12.8215   22.0416 N   0  0  0  0  0  0
  -25.4151  -15.1932   20.4101 N   0  0  0  0  0  0
  -31.7988  -14.8273   20.1502 O   0  0  0  0  0  0
  -21.6640   -6.8877   21.4239 O   0  0  0  0  0  0
  -22.3476  -14.5524   20.6690 O   0  0  0  0  0  0
  -24.6299  -31.8541   23.1941 C   0  0  0  0  0  0
  -25.9122  -32.4762   23.8303 C   0  0  1  0  0  0
  -27.2339  -27.2692   20.1488 C   0  0  0  0  0  0
  -25.5903  -33.8555   24.2238 N   0  0  0  0  0  0
  -23.4278  -30.4722   21.5371 C   0  0  2  0  0  0
  -24.8764  -28.9062   20.1207 C   0  0  0  0  0  0
  -22.7499  -29.4586   22.4896 C   0  0  0  0  0  0
  -18.0291  -28.1406   22.8493 C   0  0  0  0  0  0
  -24.1495  -36.7288   23.2645 C   0  0  0  0  0  0
  -25.9678  -30.7735   21.3669 C   0  0  0  0  0  0
  -26.0442  -29.3893   20.7244 C   0  0  0  0  0  0
  -27.2267  -28.5862   20.7185 C   0  0  0  0  0  0
  -26.0428  -26.8369   19.5331 C   0  0  0  0  0  0
  -24.8786  -27.6372   19.5150 C   0  0  0  0  0  0
  -23.6494  -29.7980   20.1571 C   0  0  0  0  0  0
  -25.4112  -36.3071   24.0333 C   0  0  1  0  0  0
  -20.5899  -28.3708   23.1278 C   0  0  2  0  0  0
  -20.6790  -26.9425   22.5421 C   0  0  0  0  0  0
  -19.5761  -26.6400   21.5228 C   0  0  0  0  0  0
  -18.1938  -26.7947   22.1632 C   0  0  0  0  0  0
  -19.1549  -28.8868   23.2890 C   0  0  0  0  0  0
  -18.9469  -30.1475   23.8895 C   0  0  0  0  0  0
  -17.6470  -30.6599   24.0578 C   0  0  0  0  0  0
  -25.9049  -34.9446   23.5100 C   0  0  0  0  0  0
  -16.5362  -29.9102   23.6340 C   0  0  0  0  0  0
  -16.7277  -28.6528   23.0341 C   0  0  0  0  0  0
  -26.4484  -31.6577   25.0687 C   0  0  0  0  0  0
  -25.3717  -31.3726   26.1423 C   0  0  0  0  0  0
  -27.0335  -30.3015   24.6117 C   0  0  0  0  0  0
  -27.6035  -32.4308   25.7471 C   0  0  0  0  0  0
  -27.5573  -37.1795   24.8468 C   0  0  0  0  0  0
  -21.4200  -29.3039   22.3657 N   0  0  0  0  0  0
  -26.4282  -37.3776   23.9416 N   0  0  0  0  0  0
  -24.6943  -31.0528   22.0904 N   0  0  0  0  0  0
  -23.4201  -28.8145   23.3013 O   0  0  0  0  0  0
  -28.3822  -26.4528   20.0886 O   0  0  0  0  0  0
  -26.5637  -34.8927   22.4682 O   0  0  0  0  0  0
  -23.5456  -32.1339   23.7246 O   0  0  0  0  0  0
  -30.9920  -20.1273   20.5707 C   0  0  0  0  0  0
  -31.5422  -17.7450   20.8366 C   0  0  0  0  0  0
  -29.6165  -19.8504   20.4281 C   0  0  0  0  0  0
  -30.1961  -17.3441   20.6553 C   0  0  0  0  0  0
  -31.9288  -19.0999   20.7844 C   0  0  0  0  0  0
  -29.2390  -18.4336   20.4752 C   0  0  0  0  0  0
  -28.7053  -21.0555   20.1256 C   0  0  0  0  0  0
  -27.7257  -25.0286   22.0217 C   0  0  0  0  0  0
  -30.0366  -25.1789   21.0751 C   0  0  0  0  0  0
  -28.3425  -23.7156   19.8729 C   0  0  0  0  0  0
  -28.5407  -25.0923   20.7187 C   0  0  0  0  0  0
  -27.5699  -20.8213   19.4764 N   0  0  0  0  0  0
  -29.8367  -15.8912   20.6765 N   0  0  0  0  0  0
  -28.9731  -22.3982   20.4010 N   0  3  0  0  0  0
  -33.2369  -19.4226   20.9299 F   0  0  0  0  0  0
  -27.9355  -18.0993   20.3026 F   0  0  0  0  0  0
  -31.4722  -12.5892   19.1690 H   0  0  0  0  0  0
  -30.3818  -11.4869   19.9626 H   0  0  0  0  0  0
  -29.7939  -11.7304   17.5270 H   0  0  0  0  0  0
  -29.6327  -13.4598   17.7180 H   0  0  0  0  0  0
  -27.8886  -11.2840   18.9099 H   0  0  0  0  0  0
  -27.3785  -12.5282   17.8015 H   0  0  0  0  0  0
  -27.6322  -14.2541   19.4687 H   0  0  0  0  0  0
  -28.7196  -12.1725   21.4277 H   0  0  0  0  0  0
  -28.4148  -13.8516   21.7972 H   0  0  0  0  0  0
  -25.2769   -9.5678   22.4761 H   0  0  0  0  0  0
  -23.9991   -7.4640   22.7481 H   0  0  0  0  0  0
  -21.0839   -8.8782   19.8964 H   0  0  0  0  0  0
  -22.3699  -10.9675   19.6168 H   0  0  0  0  0  0
  -21.2022   -7.6150   23.9707 H   0  0  0  0  0  0
  -21.1470   -6.0523   25.9065 H   0  0  0  0  0  0
  -22.0608   -2.7611   23.2845 H   0  0  0  0  0  0
  -22.4077  -11.9882   22.4809 H   0  0  0  0  0  0
  -21.1068  -13.1241   22.2646 H   0  0  0  0  0  0
  -24.6425  -15.8402   20.5264 H   0  0  0  0  0  0
  -26.2496  -15.6408   20.0565 H   0  0  0  0  0  0
  -26.7172  -32.5434   23.1033 H   0  0  0  0  0  0
  -25.0038  -33.9698   25.0373 H   0  0  0  0  0  0
  -22.7257  -31.2943   21.3849 H   0  0  0  0  0  0
  -23.3761  -35.9624   23.3315 H   0  0  0  0  0  0
  -24.3587  -36.8901   22.2060 H   0  0  0  0  0  0
  -23.7258  -37.6490   23.6675 H   0  0  0  0  0  0
  -26.0923  -31.5269   20.5873 H   0  0  0  0  0  0
  -26.8508  -30.8405   21.9891 H   0  0  0  0  0  0
  -28.1316  -28.9658   21.1712 H   0  0  0  0  0  0
  -26.0184  -25.8664   19.0603 H   0  0  0  0  0  0
  -23.9852  -27.2630   19.0350 H   0  0  0  0  0  0
  -23.7820  -30.5725   19.4007 H   0  0  0  0  0  0
  -22.7669  -29.2375   19.8449 H   0  0  0  0  0  0
  -25.1306  -36.1899   25.0826 H   0  0  0  0  0  0
  -21.0002  -28.3288   24.1395 H   0  0  0  0  0  0
  -20.5716  -26.2309   23.3627 H   0  0  0  0  0  0
  -21.6657  -26.7465   22.1204 H   0  0  0  0  0  0
  -19.6936  -25.6308   21.1268 H   0  0  0  0  0  0
  -19.6712  -27.3203   20.6753 H   0  0  0  0  0  0
  -17.4225  -26.6713   21.4021 H   0  0  0  0  0  0
  -18.0306  -26.0090   22.9022 H   0  0  0  0  0  0
  -19.7950  -30.7310   24.2251 H   0  0  0  0  0  0
  -17.5025  -31.6271   24.5190 H   0  0  0  0  0  0
  -15.5365  -30.3011   23.7652 H   0  0  0  0  0  0
  -15.8684  -28.0864   22.7015 H   0  0  0  0  0  0
  -24.5903  -30.7053   25.7762 H   0  0  0  0  0  0
  -24.8895  -32.2899   26.4820 H   0  0  0  0  0  0
  -25.8050  -30.8936   27.0210 H   0  0  0  0  0  0
  -26.2897  -29.6760   24.1156 H   0  0  0  0  0  0
  -27.4090  -29.7263   25.4589 H   0  0  0  0  0  0
  -27.8747  -30.4340   23.9306 H   0  0  0  0  0  0
  -27.2635  -33.3618   26.2017 H   0  0  0  0  0  0
  -28.3861  -32.6827   25.0310 H   0  0  0  0  0  0
  -28.0682  -31.8447   26.5406 H   0  0  0  0  0  0
  -28.2582  -38.0093   24.7513 H   0  0  0  0  0  0
  -28.1077  -36.2626   24.6304 H   0  0  0  0  0  0
  -27.2304  -37.1455   25.8873 H   0  0  0  0  0  0
  -20.9382  -29.8781   21.6872 H   0  0  0  0  0  0
  -26.0167  -38.2854   24.1421 H   0  0  0  0  0  0
  -31.3589  -21.1407   20.4962 H   0  0  0  0  0  0
  -32.3208  -17.0216   21.0147 H   0  0  0  0  0  0
  -27.9243  -24.1064   22.5680 H   0  0  0  0  0  0
  -26.6552  -25.0633   21.8220 H   0  0  0  0  0  0
  -27.9646  -25.8609   22.6845 H   0  0  0  0  0  0
  -30.3730  -24.3223   21.6574 H   0  0  0  0  0  0
  -30.2530  -26.0691   21.6684 H   0  0  0  0  0  0
  -30.6511  -25.2318   20.1764 H   0  0  0  0  0  0
  -27.2747  -23.5635   19.7199 H   0  0  0  0  0  0
  -28.7570  -23.8699   18.8753 H   0  0  0  0  0  0
  -26.9331  -21.5514   19.2079 H   0  0  0  0  0  0
  -27.2831  -19.8581   19.3579 H   0  0  0  0  0  0
  -28.8542  -15.7039   20.8007 H   0  0  0  0  0  0
  -29.8042  -22.5558   20.9550 H   0  0  0  0  0  0
  1 25  1  0  0  0
  1 30  2  0  0  0
  1 83  1  0  0  0
  2  3  1  0  0  0
  2 25  1  0  0  0
  2 87  1  0  0  0
  2 88  1  0  0  0
  3  4  1  0  0  0
  3 89  1  0  0  0
  3 90  1  0  0  0
  4  5  1  0  0  0
  4 91  1  0  0  0
  4 92  1  0  0  0
  5  6  1  0  0  0
  5 26  1  0  0  0
  5 93  1  0  0  0
  6 25  1  0  0  0
  6 94  1  0  0  0
  6 95  1  0  0  0
  7  8  2  0  0  0
  7 26  1  0  0  0
  7 29  1  0  0  0
  8  9  1  0  0  0
  8 22  1  0  0  0
  9 10  1  0  0  0
  9 27  2  0  0  0
 10 11  2  0  0  0
 10 15  1  0  0  0
 11 12  1  0  0  0
 11 96  1  0  0  0
 12 13  2  0  0  0
 12 97  1  0  0  0
 13 14  1  0  0  0
 13 31  1  0  0  0
 14 15  2  0  0  0
 14 98  1  0  0  0
 15 99  1  0  0  0
 16 17  2  0  0  0
 16 21  1  0  0  0
 16 31  1  0  0  0
 17 18  1  0  0  0
 17100  1  0  0  0
 18 19  2  0  0  0
 18101  1  0  0  0
 19 20  1  0  0  0
 19 24  1  0  0  0
 20 21  2  0  0  0
 20102  1  0  0  0
 21 23  1  0  0  0
 22 28  1  0  0  0
 22 32  2  0  0  0
 26 27  1  0  0  0
 28103  1  0  0  0
 28104  1  0  0  0
 29105  1  0  0  0
 29106  1  0  0  0
 33 34  1  0  0  0
 33 66  1  0  0  0
 33 70  2  0  0  0
 34 36  1  0  0  0
 34 59  1  0  0  0
 34107  1  0  0  0
 35 44  2  0  0  0
 35 45  1  0  0  0
 35 68  1  0  0  0
 36 56  1  0  0  0
 36108  1  0  0  0
 37 39  1  0  0  0
 37 47  1  0  0  0
 37 66  1  0  0  0
 37109  1  0  0  0
 38 43  2  0  0  0
 38 46  1  0  0  0
 38 47  1  0  0  0
 39 64  1  0  0  0
 39 67  2  0  0  0
 40 52  1  0  0  0
 40 53  2  0  0  0
 40 58  1  0  0  0
 41110  1  0  0  0
 41111  1  0  0  0
 41112  1  0  0  0
 41 48  1  0  0  0
 42 43  1  0  0  0
 42 66  1  0  0  0
 42113  1  0  0  0
 42114  1  0  0  0
 43 44  1  0  0  0
 44115  1  0  0  0
 45 46  2  0  0  0
 45116  1  0  0  0
 46117  1  0  0  0
 47118  1  0  0  0
 47119  1  0  0  0
 48 56  1  0  0  0
 48 65  1  0  0  0
 48120  1  0  0  0
 49 50  1  0  0  0
 49 53  1  0  0  0
 49 64  1  0  0  0
 49121  1  0  0  0
 50 51  1  0  0  0
 50122  1  0  0  0
 50123  1  0  0  0
 51 52  1  0  0  0
 51124  1  0  0  0
 51125  1  0  0  0
 52126  1  0  0  0
 52127  1  0  0  0
 53 54  1  0  0  0
 54 55  2  0  0  0
 54128  1  0  0  0
 55 57  1  0  0  0
 55129  1  0  0  0
 56 69  2  0  0  0
 57 58  2  0  0  0
 57130  1  0  0  0
 58131  1  0  0  0
 59 60  1  0  0  0
 59 61  1  0  0  0
 59 62  1  0  0  0
 60132  1  0  0  0
 60133  1  0  0  0
 60134  1  0  0  0
 61135  1  0  0  0
 61136  1  0  0  0
 61137  1  0  0  0
 62138  1  0  0  0
 62139  1  0  0  0
 62140  1  0  0  0
 63 65  1  0  0  0
 63141  1  0  0  0
 63142  1  0  0  0
 63143  1  0  0  0
 64144  1  0  0  0
 65145  1  0  0  0
 68 81  1  0  0  0
 71 73  2  0  0  0
 71 75  1  0  0  0
 71146  1  0  0  0
 72 74  1  0  0  0
 72 75  2  0  0  0
 72147  1  0  0  0
 73 76  1  0  0  0
 73 77  1  0  0  0
 74 76  2  0  0  0
 74 83  1  0  0  0
 75 85  1  0  0  0
 76 86  1  0  0  0
 77 82  1  0  0  0
 77 84  2  0  0  0
 78148  1  0  0  0
 78149  1  0  0  0
 78150  1  0  0  0
 78 81  1  0  0  0
 79 81  1  0  0  0
 79151  1  0  0  0
 79152  1  0  0  0
 79153  1  0  0  0
 80 81  1  0  0  0
 80 84  1  0  0  0
 80154  1  0  0  0
 80155  1  0  0  0
 82156  1  0  0  0
 82157  1  0  0  0
 83158  1  0  0  0
 84159  1  0  0  0
M  CHG  1  84   1
M  ISO  4   1 100  68 101  81 101  83 100
M  END
> <chiral flag>
0

> <version>
0

> <s_m_source_file>
/data/baiqing/PycharmProjects/Reinvent-master-3.2/result/LINK_invent/BTK/process_docking_weight1_custom_product_contain_oxygen_bond_distance_aromatic_linkinvent_7_9_3/rearranged_h_0165.sdf

> <i_m_source_file_index>
3

> <r_mmod_Potential_Energy-OPLS-2005>
-157.243743896484

> <r_mmod_Stretch_Energy-OPLS-2005>
131.812316894531

> <r_mmod_Bend_Energy-OPLS-2005>
179.258666992188

> <r_mmod_Torsional_Energy-OPLS-2005>
246.283828735352

> <r_mmod_Improper_Torsional_Energy-OPLS-2005>
6.15462350845337

> <r_mmod_Van_der_Waal_Energy-OPLS-2005>
137.94856262207

> <r_mmod_Electrostatic_Energy-OPLS-2005>
-518.460876464844

> <r_mmod_Solvation_Energy-OPLS-2005>
-417.342315673828

> <b_mmod_Minimization_Converged-OPLS-2005>
0

> <r_mmod_RMS_Derivative-OPLS-2005>
2.43752121925354

$$$$
3
                    3D
 Structure written by MMmdl.
153161  0  0  1  0            999 V2000
  -30.5590  -14.8783   20.4314 C   0  0  0  0  0  0
  -30.4441  -12.5399   19.4885 C   0  0  0  0  0  0
  -29.5196  -12.5236   18.2489 C   0  0  0  0  0  0
  -28.0494  -12.3239   18.6641 C   0  0  0  0  0  0
  -27.6374  -13.2408   19.8453 C   0  0  2  0  0  0
  -28.6829  -13.2271   20.9821 C   0  0  0  0  0  0
  -25.2491  -13.8205   20.5700 C   0  0  0  0  0  0
  -24.1795  -13.0440   20.9218 C   0  0  0  0  0  0
  -24.6401  -11.6921   20.8753 C   0  0  0  0  0  0
  -23.9077  -10.4296   21.0408 C   0  0  0  0  0  0
  -24.3626   -9.4210   21.9186 C   0  0  0  0  0  0
  -23.6298   -8.2246   22.0755 C   0  0  0  0  0  0
  -22.4281   -8.0283   21.3545 C   0  0  0  0  0  0
  -21.9917   -9.0256   20.4647 C   0  0  0  0  0  0
  -22.7249  -10.2136   20.3057 C   0  0  0  0  0  0
  -21.6855   -6.0737   22.5279 C   0  0  0  0  0  0
  -21.4016   -6.5641   23.8211 C   0  0  0  0  0  0
  -21.3660   -5.6795   24.9173 C   0  0  0  0  0  0
  -21.6044   -4.3056   24.7224 C   0  0  0  0  0  0
  -21.8819   -3.8148   23.4346 C   0  0  0  0  0  0
  -21.9193   -4.6964   22.3400 C   0  0  0  0  0  0
  -22.7816  -13.5215   21.1871 C   0  0  0  0  0  0
  -22.1662   -4.2150   21.0978 F   0  0  0  0  0  0
  -21.5627   -3.4539   25.7737 F   0  0  0  0  0  0
  -29.9703  -13.6207   20.3931 N   0  0  0  0  0  0
  -26.2922  -12.9427   20.3266 N   0  0  0  0  0  0
  -25.9335  -11.6562   20.5749 N   0  0  0  0  0  0
  -22.0462  -12.8202   22.0427 N   0  0  0  0  0  0
  -25.4155  -15.1935   20.4113 N   0  0  0  0  0  0
  -31.7552  -14.9709   20.1344 O   0  0  0  0  0  0
  -21.6642   -6.8880   21.4240 O   0  0  0  0  0  0
  -22.3502  -14.5521   20.6718 O   0  0  0  0  0  0
  -24.6391  -31.8483   23.1930 C   0  0  0  0  0  0
  -25.9177  -32.4723   23.8306 C   0  0  1  0  0  0
  -27.2200  -27.1857   20.1434 C   0  0  0  0  0  0
  -25.5939  -33.8528   24.2221 N   0  0  0  0  0  0
  -23.4423  -30.4693   21.5366 C   0  0  2  0  0  0
  -24.8962  -28.9085   20.1063 C   0  0  0  0  0  0
  -22.7554  -29.4567   22.4867 C   0  0  0  0  0  0
  -18.0303  -28.1394   22.8484 C   0  0  0  0  0  0
  -24.1488  -36.7265   23.2642 C   0  0  0  0  0  0
  -25.9962  -30.7365   21.3880 C   0  0  0  0  0  0
  -26.0717  -29.3528   20.7285 C   0  0  0  0  0  0
  -27.2382  -28.5040   20.7391 C   0  0  0  0  0  0
  -26.0271  -26.8388   19.4737 C   0  0  0  0  0  0
  -24.8835  -27.6620   19.4640 C   0  0  0  0  0  0
  -23.6685  -29.8027   20.1540 C   0  0  0  0  0  0
  -25.4120  -36.3052   24.0321 C   0  0  1  0  0  0
  -20.5915  -28.3721   23.1244 C   0  0  2  0  0  0
  -20.6790  -26.9426   22.5409 C   0  0  0  0  0  0
  -19.5763  -26.6385   21.5216 C   0  0  0  0  0  0
  -18.1943  -26.7937   22.1624 C   0  0  0  0  0  0
  -19.1559  -28.8874   23.2859 C   0  0  0  0  0  0
  -18.9476  -30.1471   23.8884 C   0  0  0  0  0  0
  -17.6473  -30.6595   24.0560 C   0  0  0  0  0  0
  -25.9065  -34.9423   23.5079 C   0  0  0  0  0  0
  -16.5364  -29.9090   23.6336 C   0  0  0  0  0  0
  -16.7288  -28.6504   23.0365 C   0  0  0  0  0  0
  -26.4513  -31.6575   25.0726 C   0  0  0  0  0  0
  -25.3703  -31.3759   26.1424 C   0  0  0  0  0  0
  -27.0371  -30.2977   24.6284 C   0  0  0  0  0  0
  -27.6057  -32.4329   25.7505 C   0  0  0  0  0  0
  -27.5578  -37.1795   24.8468 C   0  0  0  0  0  0
  -21.4249  -29.3049   22.3615 N   0  0  0  0  0  0
  -26.4291  -37.3759   23.9406 N   0  0  0  0  0  0
  -24.7118  -31.0381   22.0944 N   0  0  0  0  0  0
  -23.4211  -28.8103   23.2998 O   0  0  0  0  0  0
  -28.2172  -26.1570   20.2184 O   0  0  0  0  0  0
  -26.5648  -34.8912   22.4656 O   0  0  0  0  0  0
  -23.5517  -32.1339   23.7170 O   0  0  0  0  0  0
  -28.9315  -18.5919   20.6448 C   0  0  0  0  0  0
  -31.0812  -18.2069   20.1834 C   0  0  0  0  0  0
  -29.9274  -17.5197   20.4809 C   0  0  0  0  0  0
  -29.4949  -19.8711   20.4483 C   0  0  0  0  0  0
  -27.8031  -24.9259   20.8579 C   0  0  0  0  0  0
  -28.0763  -23.5281   20.9298 C   0  0  0  0  0  0
  -29.0524  -22.5147   20.3111 C   0  0  0  0  0  0
  -31.8958  -20.5801   19.9485 C   0  0  0  0  0  0
  -30.8461  -19.6048   20.1772 N   0  0  0  0  0  0
  -29.7424  -16.0154   20.6147 N   0  0  0  0  0  0
  -28.8297  -21.1364   20.5986 N   0  0  0  0  0  0
  -27.1538  -22.9208   21.9246 N   0  3  0  0  0  0
  -29.9865  -22.8670   19.5903 O   0  0  0  0  0  0
  -31.4789  -12.6925   19.1778 H   0  0  0  0  0  0
  -30.4255  -11.5766   20.0006 H   0  0  0  0  0  0
  -29.8245  -11.7356   17.5594 H   0  0  0  0  0  0
  -29.6213  -13.4632   17.7035 H   0  0  0  0  0  0
  -27.9281  -11.2789   18.9503 H   0  0  0  0  0  0
  -27.3891  -12.4841   17.8109 H   0  0  0  0  0  0
  -27.6133  -14.2517   19.4377 H   0  0  0  0  0  0
  -28.7511  -12.2395   21.4407 H   0  0  0  0  0  0
  -28.3951  -13.9155   21.7782 H   0  0  0  0  0  0
  -25.2769   -9.5687   22.4762 H   0  0  0  0  0  0
  -24.0005   -7.4640   22.7478 H   0  0  0  0  0  0
  -21.0847   -8.8777   19.8954 H   0  0  0  0  0  0
  -22.3706  -10.9674   19.6166 H   0  0  0  0  0  0
  -21.2012   -7.6150   23.9714 H   0  0  0  0  0  0
  -21.1481   -6.0524   25.9075 H   0  0  0  0  0  0
  -22.0597   -2.7610   23.2844 H   0  0  0  0  0  0
  -22.4080  -11.9863   22.4814 H   0  0  0  0  0  0
  -21.1076  -13.1219   22.2630 H   0  0  0  0  0  0
  -24.6408  -15.8401   20.5126 H   0  0  0  0  0  0
  -26.2507  -15.6334   20.0475 H   0  0  0  0  0  0
  -26.7247  -32.5351   23.1044 H   0  0  0  0  0  0
  -25.0069  -33.9660   25.0356 H   0  0  0  0  0  0
  -22.7426  -31.2941   21.3849 H   0  0  0  0  0  0
  -23.3757  -35.9591   23.3302 H   0  0  0  0  0  0
  -24.3576  -36.8894   22.2058 H   0  0  0  0  0  0
  -23.7239  -37.6463   23.6670 H   0  0  0  0  0  0
  -26.1478  -31.4940   20.6177 H   0  0  0  0  0  0
  -26.8679  -30.7856   22.0287 H   0  0  0  0  0  0
  -28.1280  -28.8296   21.2596 H   0  0  0  0  0  0
  -25.9606  -25.8751   18.9884 H   0  0  0  0  0  0
  -23.9871  -27.3177   18.9665 H   0  0  0  0  0  0
  -23.7983  -30.5788   19.3987 H   0  0  0  0  0  0
  -22.7854  -29.2407   19.8446 H   0  0  0  0  0  0
  -25.1309  -36.1891   25.0815 H   0  0  0  0  0  0
  -21.0011  -28.3308   24.1362 H   0  0  0  0  0  0
  -20.5685  -26.2334   23.3627 H   0  0  0  0  0  0
  -21.6658  -26.7439   22.1201 H   0  0  0  0  0  0
  -19.6924  -25.6292   21.1257 H   0  0  0  0  0  0
  -19.6696  -27.3190   20.6740 H   0  0  0  0  0  0
  -17.4215  -26.6688   21.4024 H   0  0  0  0  0  0
  -18.0333  -26.0083   22.9021 H   0  0  0  0  0  0
  -19.7949  -30.7290   24.2249 H   0  0  0  0  0  0
  -17.5026  -31.6273   24.5162 H   0  0  0  0  0  0
  -15.5364  -30.2985   23.7671 H   0  0  0  0  0  0
  -15.8688  -28.0814   22.7097 H   0  0  0  0  0  0
  -24.5897  -30.7088   25.7750 H   0  0  0  0  0  0
  -24.8871  -32.2938   26.4784 H   0  0  0  0  0  0
  -25.7990  -30.8985   27.0243 H   0  0  0  0  0  0
  -26.2983  -29.6712   24.1276 H   0  0  0  0  0  0
  -27.3979  -29.7266   25.4849 H   0  0  0  0  0  0
  -27.8890  -30.4226   23.9597 H   0  0  0  0  0  0
  -27.2666  -33.3651   26.2037 H   0  0  0  0  0  0
  -28.3889  -32.6857   25.0341 H   0  0  0  0  0  0
  -28.0696  -31.8479   26.5459 H   0  0  0  0  0  0
  -28.2603  -38.0086   24.7506 H   0  0  0  0  0  0
  -28.1068  -36.2619   24.6301 H   0  0  0  0  0  0
  -27.2294  -37.1445   25.8872 H   0  0  0  0  0  0
  -20.9451  -29.8760   21.6797 H   0  0  0  0  0  0
  -26.0161  -38.2830   24.1407 H   0  0  0  0  0  0
  -27.8916  -18.4332   20.8946 H   0  0  0  0  0  0
  -32.0769  -17.8297   19.9876 H   0  0  0  0  0  0
  -26.9984  -25.2334   21.5140 H   0  0  0  0  0  0
  -32.8730  -20.0975   19.9638 H   0  0  0  0  0  0
  -31.8771  -21.3379   20.7318 H   0  0  0  0  0  0
  -31.7597  -21.0519   18.9758 H   0  0  0  0  0  0
  -28.7967  -15.7463   20.8401 H   0  0  0  0  0  0
  -27.9250  -20.9951   21.0151 H   0  0  0  0  0  0
  -27.6265  -22.2226   22.4697 H   0  0  0  0  0  0
  -26.3498  -22.5127   21.4806 H   0  0  0  0  0  0
  -26.8260  -23.6167   22.5671 H   0  0  0  0  0  0
  1 25  1  0  0  0
  1 30  2  0  0  0
  1 80  1  0  0  0
  2  3  1  0  0  0
  2 25  1  0  0  0
  2 84  1  0  0  0
  2 85  1  0  0  0
  3  4  1  0  0  0
  3 86  1  0  0  0
  3 87  1  0  0  0
  4  5  1  0  0  0
  4 88  1  0  0  0
  4 89  1  0  0  0
  5  6  1  0  0  0
  5 26  1  0  0  0
  5 90  1  0  0  0
  6 25  1  0  0  0
  6 91  1  0  0  0
  6 92  1  0  0  0
  7  8  2  0  0  0
  7 26  1  0  0  0
  7 29  1  0  0  0
  8  9  1  0  0  0
  8 22  1  0  0  0
  9 10  1  0  0  0
  9 27  2  0  0  0
 10 11  2  0  0  0
 10 15  1  0  0  0
 11 12  1  0  0  0
 11 93  1  0  0  0
 12 13  2  0  0  0
 12 94  1  0  0  0
 13 14  1  0  0  0
 13 31  1  0  0  0
 14 15  2  0  0  0
 14 95  1  0  0  0
 15 96  1  0  0  0
 16 17  2  0  0  0
 16 21  1  0  0  0
 16 31  1  0  0  0
 17 18  1  0  0  0
 17 97  1  0  0  0
 18 19  2  0  0  0
 18 98  1  0  0  0
 19 20  1  0  0  0
 19 24  1  0  0  0
 20 21  2  0  0  0
 20 99  1  0  0  0
 21 23  1  0  0  0
 22 28  1  0  0  0
 22 32  2  0  0  0
 26 27  1  0  0  0
 28100  1  0  0  0
 28101  1  0  0  0
 29102  1  0  0  0
 29103  1  0  0  0
 33 34  1  0  0  0
 33 66  1  0  0  0
 33 70  2  0  0  0
 34 36  1  0  0  0
 34 59  1  0  0  0
 34104  1  0  0  0
 35 44  2  0  0  0
 35 45  1  0  0  0
 35 68  1  0  0  0
 36 56  1  0  0  0
 36105  1  0  0  0
 37 39  1  0  0  0
 37 47  1  0  0  0
 37 66  1  0  0  0
 37106  1  0  0  0
 38 43  2  0  0  0
 38 46  1  0  0  0
 38 47  1  0  0  0
 39 64  1  0  0  0
 39 67  2  0  0  0
 40 52  1  0  0  0
 40 53  2  0  0  0
 40 58  1  0  0  0
 41107  1  0  0  0
 41108  1  0  0  0
 41109  1  0  0  0
 41 48  1  0  0  0
 42 43  1  0  0  0
 42 66  1  0  0  0
 42110  1  0  0  0
 42111  1  0  0  0
 43 44  1  0  0  0
 44112  1  0  0  0
 45 46  2  0  0  0
 45113  1  0  0  0
 46114  1  0  0  0
 47115  1  0  0  0
 47116  1  0  0  0
 48 56  1  0  0  0
 48 65  1  0  0  0
 48117  1  0  0  0
 49 50  1  0  0  0
 49 53  1  0  0  0
 49 64  1  0  0  0
 49118  1  0  0  0
 50 51  1  0  0  0
 50119  1  0  0  0
 50120  1  0  0  0
 51 52  1  0  0  0
 51121  1  0  0  0
 51122  1  0  0  0
 52123  1  0  0  0
 52124  1  0  0  0
 53 54  1  0  0  0
 54 55  2  0  0  0
 54125  1  0  0  0
 55 57  1  0  0  0
 55126  1  0  0  0
 56 69  2  0  0  0
 57 58  2  0  0  0
 57127  1  0  0  0
 58128  1  0  0  0
 59 60  1  0  0  0
 59 61  1  0  0  0
 59 62  1  0  0  0
 60129  1  0  0  0
 60130  1  0  0  0
 60131  1  0  0  0
 61132  1  0  0  0
 61133  1  0  0  0
 61134  1  0  0  0
 62135  1  0  0  0
 62136  1  0  0  0
 62137  1  0  0  0
 63 65  1  0  0  0
 63138  1  0  0  0
 63139  1  0  0  0
 63140  1  0  0  0
 64141  1  0  0  0
 65142  1  0  0  0
 68 75  1  0  0  0
 71 73  1  0  0  0
 71 74  2  0  0  0
 71143  1  0  0  0
 72 73  2  0  0  0
 72 79  1  0  0  0
 72144  1  0  0  0
 73 80  1  0  0  0
 74 79  1  0  0  0
 74 81  1  0  0  0
 75 76  2  0  0  0
 75145  1  0  0  0
 76 77  1  0  0  0
 76 82  1  0  0  0
 77 81  1  0  0  0
 77 83  2  0  0  0
 78 79  1  0  0  0
 78146  1  0  0  0
 78147  1  0  0  0
 78148  1  0  0  0
 80149  1  0  0  0
 81150  1  0  0  0
 82151  1  0  0  0
 82152  1  0  0  0
 82153  1  0  0  0
M  CHG  1  82   1
M  ISO  4   1 100  68 101  75 101  80 100
M  END
> <chiral flag>
0

> <version>
0

> <s_m_source_file>
/data/baiqing/PycharmProjects/Reinvent-master-3.2/result/LINK_invent/BTK/process_docking_weight1_custom_product_contain_oxygen_bond_distance_aromatic_linkinvent_7_9_3/rearranged_h_0165.sdf

> <i_m_source_file_index>
4

> <r_mmod_Potential_Energy-OPLS-2005>
33.4148750305176

> <r_mmod_Stretch_Energy-OPLS-2005>
180.897201538086

> <r_mmod_Bend_Energy-OPLS-2005>
305.272491455078

> <r_mmod_Torsional_Energy-OPLS-2005>
221.153732299805

> <r_mmod_Improper_Torsional_Energy-OPLS-2005>
4.87644720077515

> <r_mmod_Van_der_Waal_Energy-OPLS-2005>
121.168731689453

> <r_mmod_Electrostatic_Energy-OPLS-2005>
-371.561462402344

> <r_mmod_Solvation_Energy-OPLS-2005>
-587.1201171875

> <b_mmod_Minimization_Converged-OPLS-2005>
0

> <r_mmod_RMS_Derivative-OPLS-2005>
0.704350531101227

$$$$
4
                    3D
 Structure written by MMmdl.
153161  0  0  1  0            999 V2000
  -30.7154  -14.5144   20.6187 C   0  0  0  0  0  0
  -30.4278  -12.3551   19.4291 C   0  0  0  0  0  0
  -29.4947  -12.5231   18.2124 C   0  0  0  0  0  0
  -28.0186  -12.3678   18.6246 C   0  0  0  0  0  0
  -27.6586  -13.2128   19.8761 C   0  0  2  0  0  0
  -28.7053  -13.0153   20.9974 C   0  0  0  0  0  0
  -25.2526  -13.8079   20.5633 C   0  0  0  0  0  0
  -24.1819  -13.0372   20.9174 C   0  0  0  0  0  0
  -24.6404  -11.6862   20.8747 C   0  0  0  0  0  0
  -23.9054  -10.4271   21.0397 C   0  0  0  0  0  0
  -24.3594   -9.4198   21.9184 C   0  0  0  0  0  0
  -23.6285   -8.2222   22.0727 C   0  0  0  0  0  0
  -22.4264   -8.0259   21.3521 C   0  0  0  0  0  0
  -21.9898   -9.0239   20.4627 C   0  0  0  0  0  0
  -22.7213  -10.2128   20.3053 C   0  0  0  0  0  0
  -21.6831   -6.0742   22.5282 C   0  0  0  0  0  0
  -21.4008   -6.5633   23.8227 C   0  0  0  0  0  0
  -21.3666   -5.6782   24.9177 C   0  0  0  0  0  0
  -21.6053   -4.3053   24.7221 C   0  0  0  0  0  0
  -21.8825   -3.8145   23.4340 C   0  0  0  0  0  0
  -21.9184   -4.6968   22.3402 C   0  0  0  0  0  0
  -22.7850  -13.5193   21.1850 C   0  0  0  0  0  0
  -22.1641   -4.2167   21.0975 F   0  0  0  0  0  0
  -21.5636   -3.4527   25.7730 F   0  0  0  0  0  0
  -30.0299  -13.3459   20.4483 N   0  0  0  0  0  0
  -26.3018  -12.9318   20.3368 N   0  0  0  0  0  0
  -25.9352  -11.6470   20.5811 N   0  0  0  0  0  0
  -22.0466  -12.8234   22.0425 N   0  0  0  0  0  0
  -25.4099  -15.1767   20.3924 N   0  0  0  0  0  0
  -31.8232  -14.6997   20.1091 O   0  0  0  0  0  0
  -21.6603   -6.8881   21.4250 O   0  0  0  0  0  0
  -22.3543  -14.5508   20.6689 O   0  0  0  0  0  0
  -24.6223  -31.8633   23.2088 C   0  0  0  0  0  0
  -25.9091  -32.4807   23.8403 C   0  0  1  0  0  0
  -27.2324  -27.3762   20.1055 C   0  0  0  0  0  0
  -25.5926  -33.8607   24.2339 N   0  0  0  0  0  0
  -23.4130  -30.4904   21.5470 C   0  0  2  0  0  0
  -24.8596  -28.9549   20.1112 C   0  0  0  0  0  0
  -22.7437  -29.4665   22.4933 C   0  0  0  0  0  0
  -18.0281  -28.1390   22.8481 C   0  0  0  0  0  0
  -24.1472  -36.7308   23.2639 C   0  0  0  0  0  0
  -25.9489  -30.8100   21.3731 C   0  0  0  0  0  0
  -26.0232  -29.4410   20.7199 C   0  0  0  0  0  0
  -27.2095  -28.6589   20.7184 C   0  0  0  0  0  0
  -26.0476  -26.9400   19.4597 C   0  0  0  0  0  0
  -24.8698  -27.7058   19.4753 C   0  0  0  0  0  0
  -23.6256  -29.8286   20.1605 C   0  0  0  0  0  0
  -25.4095  -36.3106   24.0340 C   0  0  1  0  0  0
  -20.5875  -28.3703   23.1268 C   0  0  2  0  0  0
  -20.6772  -26.9431   22.5394 C   0  0  0  0  0  0
  -19.5751  -26.6393   21.5199 C   0  0  0  0  0  0
  -18.1933  -26.7936   22.1618 C   0  0  0  0  0  0
  -19.1535  -28.8858   23.2874 C   0  0  0  0  0  0
  -18.9468  -30.1456   23.8906 C   0  0  0  0  0  0
  -17.6468  -30.6589   24.0577 C   0  0  0  0  0  0
  -25.9024  -34.9467   23.5129 C   0  0  0  0  0  0
  -16.5354  -29.9101   23.6326 C   0  0  0  0  0  0
  -16.7270  -28.6512   23.0350 C   0  0  0  0  0  0
  -26.4499  -31.6586   25.0737 C   0  0  0  0  0  0
  -25.3762  -31.3696   26.1483 C   0  0  0  0  0  0
  -27.0343  -30.3017   24.6156 C   0  0  0  0  0  0
  -27.6069  -32.4304   25.7507 C   0  0  0  0  0  0
  -27.5569  -37.1815   24.8468 C   0  0  0  0  0  0
  -21.4158  -29.3064   22.3671 N   0  0  0  0  0  0
  -26.4279  -37.3792   23.9410 N   0  0  0  0  0  0
  -24.6797  -31.0703   22.1001 N   0  0  0  0  0  0
  -23.4172  -28.8194   23.2987 O   0  0  0  0  0  0
  -28.3712  -26.5697   20.1638 O   0  0  0  0  0  0
  -26.5574  -34.8922   22.4687 O   0  0  0  0  0  0
  -23.5391  -32.1428   23.7422 O   0  0  0  0  0  0
  -30.0473  -18.0852   21.1882 C   0  0  0  0  0  0
  -28.9327  -18.2886   20.4070 C   0  0  0  0  0  0
  -29.7429  -20.2355   20.8828 C   0  0  0  0  0  0
  -29.1931  -24.1451   20.4377 C   0  0  0  0  0  0
  -27.9489  -17.3560   19.7987 C   0  0  0  0  0  0
  -30.6902  -16.7986   21.7217 C   0  0  0  0  0  0
  -28.8629  -22.6370   20.2273 C   0  0  0  0  0  0
  -28.1846  -25.1611   19.8243 C   0  0  0  0  0  0
  -30.5566  -19.3619   21.4867 N   0  0  0  0  0  0
  -29.7651  -21.6347   20.8389 N   0  0  0  0  0  0
  -30.0993  -15.4960   21.3151 N   0  0  0  0  0  0
  -30.2011  -24.4979   21.0621 O   0  0  0  0  0  0
  -28.7272  -19.6382   20.2090 O   0  0  0  0  0  0
  -31.4683  -12.4753   19.1227 H   0  0  0  0  0  0
  -30.3538  -11.3453   19.8369 H   0  0  0  0  0  0
  -29.7445  -11.7863   17.4481 H   0  0  0  0  0  0
  -29.6488  -13.5038   17.7592 H   0  0  0  0  0  0
  -27.8416  -11.3108   18.8282 H   0  0  0  0  0  0
  -27.3652  -12.6295   17.7911 H   0  0  0  0  0  0
  -27.6936  -14.2577   19.5720 H   0  0  0  0  0  0
  -28.7057  -11.9768   21.3336 H   0  0  0  0  0  0
  -28.4543  -13.6086   21.8767 H   0  0  0  0  0  0
  -25.2729   -9.5688   22.4762 H   0  0  0  0  0  0
  -23.9994   -7.4639   22.7459 H   0  0  0  0  0  0
  -21.0807   -8.8779   19.8953 H   0  0  0  0  0  0
  -22.3664  -10.9666   19.6166 H   0  0  0  0  0  0
  -21.1984   -7.6141   23.9726 H   0  0  0  0  0  0
  -21.1463   -6.0509   25.9084 H   0  0  0  0  0  0
  -22.0590   -2.7609   23.2833 H   0  0  0  0  0  0
  -22.4016  -11.9888   22.4850 H   0  0  0  0  0  0
  -21.1101  -13.1330   22.2572 H   0  0  0  0  0  0
  -24.6217  -15.8137   20.4499 H   0  0  0  0  0  0
  -26.2413  -15.6014   20.0086 H   0  0  0  0  0  0
  -26.7160  -32.5488   23.1161 H   0  0  0  0  0  0
  -25.0145  -33.9771   25.0532 H   0  0  0  0  0  0
  -22.7062  -31.3100   21.4055 H   0  0  0  0  0  0
  -23.3724  -35.9649   23.3313 H   0  0  0  0  0  0
  -24.3581  -36.8905   22.2053 H   0  0  0  0  0  0
  -23.7224  -37.6521   23.6637 H   0  0  0  0  0  0
  -26.0713  -31.5712   20.6019 H   0  0  0  0  0  0
  -26.8349  -30.8618   21.9945 H   0  0  0  0  0  0
  -28.0987  -29.0289   21.2105 H   0  0  0  0  0  0
  -25.9979  -26.0013   18.9282 H   0  0  0  0  0  0
  -23.9813  -27.3330   18.9839 H   0  0  0  0  0  0
  -23.7444  -30.6067   19.4051 H   0  0  0  0  0  0
  -22.7477  -29.2543   19.8577 H   0  0  0  0  0  0
  -25.1268  -36.1982   25.0833 H   0  0  0  0  0  0
  -20.9986  -28.3293   24.1380 H   0  0  0  0  0  0
  -20.5655  -26.2340   23.3611 H   0  0  0  0  0  0
  -21.6651  -26.7453   22.1211 H   0  0  0  0  0  0
  -19.6919  -25.6304   21.1245 H   0  0  0  0  0  0
  -19.6678  -27.3193   20.6723 H   0  0  0  0  0  0
  -17.4198  -26.6668   21.4025 H   0  0  0  0  0  0
  -18.0340  -26.0079   22.9020 H   0  0  0  0  0  0
  -19.7942  -30.7263   24.2280 H   0  0  0  0  0  0
  -17.5032  -31.6267   24.5188 H   0  0  0  0  0  0
  -15.5366  -30.3017   23.7632 H   0  0  0  0  0  0
  -15.8672  -28.0838   22.7061 H   0  0  0  0  0  0
  -24.5955  -30.7010   25.7834 H   0  0  0  0  0  0
  -24.8933  -32.2846   26.4918 H   0  0  0  0  0  0
  -25.8130  -30.8894   27.0252 H   0  0  0  0  0  0
  -26.2908  -29.6765   24.1197 H   0  0  0  0  0  0
  -27.4077  -29.7267   25.4642 H   0  0  0  0  0  0
  -27.8760  -30.4312   23.9351 H   0  0  0  0  0  0
  -27.2698  -33.3609   26.2090 H   0  0  0  0  0  0
  -28.3898  -32.6852   25.0349 H   0  0  0  0  0  0
  -28.0726  -31.8422   26.5431 H   0  0  0  0  0  0
  -28.2602  -38.0096   24.7512 H   0  0  0  0  0  0
  -28.1050  -36.2635   24.6300 H   0  0  0  0  0  0
  -27.2296  -37.1483   25.8873 H   0  0  0  0  0  0
  -20.9327  -29.8837   21.6940 H   0  0  0  0  0  0
  -26.0165  -38.2866   24.1418 H   0  0  0  0  0  0
  -28.4550  -16.5565   19.2566 H   0  0  0  0  0  0
  -27.2846  -17.8710   19.1053 H   0  0  0  0  0  0
  -27.3419  -16.9099   20.5831 H   0  0  0  0  0  0
  -30.6496  -16.8153   22.8110 H   0  0  0  0  0  0
  -31.7562  -16.8100   21.4920 H   0  0  0  0  0  0
  -28.8176  -22.4552   19.1534 H   0  0  0  0  0  0
  -27.8564  -22.4677   20.6111 H   0  0  0  0  0  0
  -27.2113  -24.8183   20.1746 H   0  0  0  0  0  0
  -28.1985  -25.0536   18.7389 H   0  0  0  0  0  0
  -30.5511  -22.0574   21.3219 H   0  0  0  0  0  0
  -29.1870  -15.2855   21.6877 H   0  0  0  0  0  0
  1 25  1  0  0  0
  1 30  2  0  0  0
  1 81  1  0  0  0
  2  3  1  0  0  0
  2 25  1  0  0  0
  2 84  1  0  0  0
  2 85  1  0  0  0
  3  4  1  0  0  0
  3 86  1  0  0  0
  3 87  1  0  0  0
  4  5  1  0  0  0
  4 88  1  0  0  0
  4 89  1  0  0  0
  5  6  1  0  0  0
  5 26  1  0  0  0
  5 90  1  0  0  0
  6 25  1  0  0  0
  6 91  1  0  0  0
  6 92  1  0  0  0
  7  8  2  0  0  0
  7 26  1  0  0  0
  7 29  1  0  0  0
  8  9  1  0  0  0
  8 22  1  0  0  0
  9 10  1  0  0  0
  9 27  2  0  0  0
 10 11  2  0  0  0
 10 15  1  0  0  0
 11 12  1  0  0  0
 11 93  1  0  0  0
 12 13  2  0  0  0
 12 94  1  0  0  0
 13 14  1  0  0  0
 13 31  1  0  0  0
 14 15  2  0  0  0
 14 95  1  0  0  0
 15 96  1  0  0  0
 16 17  2  0  0  0
 16 21  1  0  0  0
 16 31  1  0  0  0
 17 18  1  0  0  0
 17 97  1  0  0  0
 18 19  2  0  0  0
 18 98  1  0  0  0
 19 20  1  0  0  0
 19 24  1  0  0  0
 20 21  2  0  0  0
 20 99  1  0  0  0
 21 23  1  0  0  0
 22 28  1  0  0  0
 22 32  2  0  0  0
 26 27  1  0  0  0
 28100  1  0  0  0
 28101  1  0  0  0
 29102  1  0  0  0
 29103  1  0  0  0
 33 34  1  0  0  0
 33 66  1  0  0  0
 33 70  2  0  0  0
 34 36  1  0  0  0
 34 59  1  0  0  0
 34104  1  0  0  0
 35 44  2  0  0  0
 35 45  1  0  0  0
 35 68  1  0  0  0
 36 56  1  0  0  0
 36105  1  0  0  0
 37 39  1  0  0  0
 37 47  1  0  0  0
 37 66  1  0  0  0
 37106  1  0  0  0
 38 43  2  0  0  0
 38 46  1  0  0  0
 38 47  1  0  0  0
 39 64  1  0  0  0
 39 67  2  0  0  0
 40 52  1  0  0  0
 40 53  2  0  0  0
 40 58  1  0  0  0
 41107  1  0  0  0
 41108  1  0  0  0
 41109  1  0  0  0
 41 48  1  0  0  0
 42 43  1  0  0  0
 42 66  1  0  0  0
 42110  1  0  0  0
 42111  1  0  0  0
 43 44  1  0  0  0
 44112  1  0  0  0
 45 46  2  0  0  0
 45113  1  0  0  0
 46114  1  0  0  0
 47115  1  0  0  0
 47116  1  0  0  0
 48 56  1  0  0  0
 48 65  1  0  0  0
 48117  1  0  0  0
 49 50  1  0  0  0
 49 53  1  0  0  0
 49 64  1  0  0  0
 49118  1  0  0  0
 50 51  1  0  0  0
 50119  1  0  0  0
 50120  1  0  0  0
 51 52  1  0  0  0
 51121  1  0  0  0
 51122  1  0  0  0
 52123  1  0  0  0
 52124  1  0  0  0
 53 54  1  0  0  0
 54 55  2  0  0  0
 54125  1  0  0  0
 55 57  1  0  0  0
 55126  1  0  0  0
 56 69  2  0  0  0
 57 58  2  0  0  0
 57127  1  0  0  0
 58128  1  0  0  0
 59 60  1  0  0  0
 59 61  1  0  0  0
 59 62  1  0  0  0
 60129  1  0  0  0
 60130  1  0  0  0
 60131  1  0  0  0
 61132  1  0  0  0
 61133  1  0  0  0
 61134  1  0  0  0
 62135  1  0  0  0
 62136  1  0  0  0
 62137  1  0  0  0
 63 65  1  0  0  0
 63138  1  0  0  0
 63139  1  0  0  0
 63140  1  0  0  0
 64141  1  0  0  0
 65142  1  0  0  0
 68 78  1  0  0  0
 71 72  2  0  0  0
 71 76  1  0  0  0
 71 79  1  0  0  0
 72 75  1  0  0  0
 72 83  1  0  0  0
 73 79  2  0  0  0
 73 80  1  0  0  0
 73 83  1  0  0  0
 74 77  1  0  0  0
 74 78  1  0  0  0
 74 82  2  0  0  0
 75143  1  0  0  0
 75144  1  0  0  0
 75145  1  0  0  0
 76 81  1  0  0  0
 76146  1  0  0  0
 76147  1  0  0  0
 77 80  1  0  0  0
 77148  1  0  0  0
 77149  1  0  0  0
 78150  1  0  0  0
 78151  1  0  0  0
 80152  1  0  0  0
 81153  1  0  0  0
M  ISO  4   1 100  68 101  78 101  81 100
M  END
> <chiral flag>
0

> <version>
0

> <s_m_source_file>
/data/baiqing/PycharmProjects/Reinvent-master-3.2/result/LINK_invent/BTK/process_docking_weight1_custom_product_contain_oxygen_bond_distance_aromatic_linkinvent_7_9_3/rearranged_h_0165.sdf

> <i_m_source_file_index>
5

> <r_mmod_Potential_Energy-OPLS-2005>
-283.828918457031

> <r_mmod_Stretch_Energy-OPLS-2005>
48.1985702514648

> <r_mmod_Bend_Energy-OPLS-2005>
116.135757446289

> <r_mmod_Torsional_Energy-OPLS-2005>
175.995315551758

> <r_mmod_Improper_Torsional_Energy-OPLS-2005>
2.52654147148132

> <r_mmod_Van_der_Waal_Energy-OPLS-2005>
126.662353515625

> <r_mmod_Electrostatic_Energy-OPLS-2005>
-520.470520019531

> <r_mmod_Solvation_Energy-OPLS-2005>
-255.931625366211

> <b_mmod_Minimization_Converged-OPLS-2005>
0

> <r_mmod_RMS_Derivative-OPLS-2005>
2.59350109100342

$$$$
5
                    3D
 Structure written by MMmdl.
158166  0  0  1  0            999 V2000
  -30.7236  -14.4875   20.5618 C   0  0  0  0  0  0
  -30.4153  -12.3164   19.4302 C   0  0  0  0  0  0
  -29.4931  -12.5032   18.2091 C   0  0  0  0  0  0
  -28.0154  -12.3630   18.6222 C   0  0  0  0  0  0
  -27.6581  -13.2147   19.8705 C   0  0  2  0  0  0
  -28.7018  -13.0290   20.9959 C   0  0  0  0  0  0
  -25.2574  -13.8179   20.5693 C   0  0  0  0  0  0
  -24.1832  -13.0445   20.9176 C   0  0  0  0  0  0
  -24.6398  -11.6915   20.8732 C   0  0  0  0  0  0
  -23.9064  -10.4294   21.0400 C   0  0  0  0  0  0
  -24.3615   -9.4213   21.9183 C   0  0  0  0  0  0
  -23.6292   -8.2248   22.0754 C   0  0  0  0  0  0
  -22.4273   -8.0282   21.3546 C   0  0  0  0  0  0
  -21.9910   -9.0253   20.4645 C   0  0  0  0  0  0
  -22.7237  -10.2134   20.3053 C   0  0  0  0  0  0
  -21.6855   -6.0738   22.5280 C   0  0  0  0  0  0
  -21.4013   -6.5640   23.8214 C   0  0  0  0  0  0
  -21.3658   -5.6793   24.9175 C   0  0  0  0  0  0
  -21.6043   -4.3055   24.7224 C   0  0  0  0  0  0
  -21.8820   -3.8148   23.4344 C   0  0  0  0  0  0
  -21.9192   -4.6966   22.3401 C   0  0  0  0  0  0
  -22.7853  -13.5240   21.1839 C   0  0  0  0  0  0
  -22.1664   -4.2152   21.0980 F   0  0  0  0  0  0
  -21.5627   -3.4539   25.7736 F   0  0  0  0  0  0
  -30.0302  -13.3216   20.4356 N   0  0  0  0  0  0
  -26.3012  -12.9366   20.3358 N   0  0  0  0  0  0
  -25.9329  -11.6518   20.5767 N   0  0  0  0  0  0
  -22.0487  -12.8229   22.0387 N   0  0  0  0  0  0
  -25.4284  -15.1903   20.4127 N   0  0  0  0  0  0
  -31.8525  -14.6249   20.0863 O   0  0  0  0  0  0
  -21.6640   -6.8879   21.4242 O   0  0  0  0  0  0
  -22.3539  -14.5546   20.6689 O   0  0  0  0  0  0
  -24.6161  -31.8670   23.2089 C   0  0  0  0  0  0
  -25.9046  -32.4819   23.8394 C   0  0  1  0  0  0
  -27.2321  -27.4261   20.0995 C   0  0  0  0  0  0
  -25.5895  -33.8616   24.2329 N   0  0  0  0  0  0
  -23.4055  -30.4903   21.5493 C   0  0  2  0  0  0
  -24.8543  -28.9576   20.1107 C   0  0  0  0  0  0
  -22.7424  -29.4650   22.4975 C   0  0  0  0  0  0
  -18.0271  -28.1383   22.8492 C   0  0  0  0  0  0
  -24.1484  -36.7308   23.2639 C   0  0  0  0  0  0
  -25.9356  -30.8314   21.3621 C   0  0  0  0  0  0
  -26.0158  -29.4661   20.7077 C   0  0  0  0  0  0
  -27.2124  -28.7084   20.6982 C   0  0  0  0  0  0
  -26.0591  -26.9391   19.4872 C   0  0  0  0  0  0
  -24.8715  -27.6941   19.4948 C   0  0  0  0  0  0
  -23.6147  -29.8233   20.1637 C   0  0  0  0  0  0
  -25.4106  -36.3107   24.0341 C   0  0  1  0  0  0
  -20.5867  -28.3666   23.1314 C   0  0  2  0  0  0
  -20.6763  -26.9402   22.5416 C   0  0  0  0  0  0
  -19.5740  -26.6392   21.5212 C   0  0  0  0  0  0
  -18.1919  -26.7929   22.1623 C   0  0  0  0  0  0
  -19.1524  -28.8841   23.2899 C   0  0  0  0  0  0
  -18.9450  -30.1447   23.8908 C   0  0  0  0  0  0
  -17.6452  -30.6584   24.0568 C   0  0  0  0  0  0
  -25.9034  -34.9473   23.5133 C   0  0  0  0  0  0
  -16.5343  -29.9086   23.6331 C   0  0  0  0  0  0
  -16.7260  -28.6505   23.0349 C   0  0  0  0  0  0
  -26.4474  -31.6591   25.0716 C   0  0  0  0  0  0
  -25.3742  -31.3683   26.1462 C   0  0  0  0  0  0
  -27.0307  -30.3040   24.6074 C   0  0  0  0  0  0
  -27.6048  -32.4307   25.7482 C   0  0  0  0  0  0
  -27.5579  -37.1812   24.8468 C   0  0  0  0  0  0
  -21.4147  -29.3032   22.3720 N   0  0  0  0  0  0
  -26.4291  -37.3791   23.9409 N   0  0  0  0  0  0
  -24.6710  -31.0767   22.0989 N   0  0  0  0  0  0
  -23.4193  -28.8187   23.3016 O   0  0  0  0  0  0
  -28.3469  -26.6167   20.1407 O   0  0  0  0  0  0
  -26.5591  -34.8923   22.4692 O   0  0  0  0  0  0
  -23.5350  -32.1418   23.7483 O   0  0  0  0  0  0
  -31.3035  -19.6160   21.4972 C   0  0  0  0  0  0
  -31.8681  -17.2462   21.3674 C   0  0  0  0  0  0
  -29.9307  -19.3191   21.3496 C   0  0  0  0  0  0
  -30.5028  -16.9034   21.2021 C   0  0  0  0  0  0
  -32.2620  -18.5892   21.5045 C   0  0  0  0  0  0
  -29.5414  -17.9512   21.2011 C   0  0  0  0  0  0
  -28.9564  -20.4322   21.4709 C   0  0  0  0  0  0
  -28.8916  -24.2129   20.7122 C   0  0  0  0  0  0
  -28.6018  -23.2359   23.0492 C   0  0  0  0  0  0
  -28.1699  -25.5354   21.0832 C   0  0  0  0  0  0
  -28.4816  -22.9505   21.5306 C   0  0  2  0  0  0
  -30.0549  -15.5365   21.0917 N   0  0  0  0  0  0
  -29.2560  -21.7229   21.1652 N   0  0  0  0  0  0
  -27.7490  -20.1969   21.9878 N   0  3  0  0  0  0
  -29.7532  -24.1748   19.8279 O   0  0  0  0  0  0
  -33.5713  -18.8957   21.6686 F   0  0  0  0  0  0
  -28.2304  -17.6165   21.0914 F   0  0  0  0  0  0
  -31.4613  -12.3969   19.1288 H   0  0  0  0  0  0
  -30.3046  -11.3126   19.8437 H   0  0  0  0  0  0
  -29.7368  -11.7726   17.4364 H   0  0  0  0  0  0
  -29.6608  -13.4858   17.7643 H   0  0  0  0  0  0
  -27.8300  -11.3083   18.8286 H   0  0  0  0  0  0
  -27.3638  -12.6267   17.7884 H   0  0  0  0  0  0
  -27.6921  -14.2581   19.5558 H   0  0  0  0  0  0
  -28.6801  -12.0041   21.3701 H   0  0  0  0  0  0
  -28.4652  -13.6599   21.8542 H   0  0  0  0  0  0
  -25.2763   -9.5690   22.4756 H   0  0  0  0  0  0
  -24.0002   -7.4640   22.7478 H   0  0  0  0  0  0
  -21.0841   -8.8766   19.8952 H   0  0  0  0  0  0
  -22.3693  -10.9668   19.6154 H   0  0  0  0  0  0
  -21.2006   -7.6151   23.9716 H   0  0  0  0  0  0
  -21.1478   -6.0524   25.9078 H   0  0  0  0  0  0
  -22.0599   -2.7612   23.2843 H   0  0  0  0  0  0
  -22.4091  -11.9881   22.4767 H   0  0  0  0  0  0
  -21.1106  -13.1260   22.2587 H   0  0  0  0  0  0
  -24.6617  -15.8438   20.5288 H   0  0  0  0  0  0
  -26.2863  -15.6384   20.1170 H   0  0  0  0  0  0
  -26.7120  -32.5532   23.1166 H   0  0  0  0  0  0
  -25.0063  -33.9778   25.0483 H   0  0  0  0  0  0
  -22.6941  -31.3072   21.4106 H   0  0  0  0  0  0
  -23.3744  -35.9642   23.3312 H   0  0  0  0  0  0
  -24.3580  -36.8905   22.2051 H   0  0  0  0  0  0
  -23.7236  -37.6519   23.6642 H   0  0  0  0  0  0
  -26.0474  -31.5966   20.5929 H   0  0  0  0  0  0
  -26.8244  -30.8879   21.9788 H   0  0  0  0  0  0
  -28.1064  -29.0902   21.1712 H   0  0  0  0  0  0
  -26.0600  -25.9651   19.0182 H   0  0  0  0  0  0
  -23.9796  -27.2983   19.0279 H   0  0  0  0  0  0
  -23.7211  -30.5983   19.4040 H   0  0  0  0  0  0
  -22.7391  -29.2424   19.8685 H   0  0  0  0  0  0
  -25.1286  -36.1975   25.0835 H   0  0  0  0  0  0
  -20.9967  -28.3229   24.1432 H   0  0  0  0  0  0
  -20.5673  -26.2268   23.3599 H   0  0  0  0  0  0
  -21.6631  -26.7447   22.1205 H   0  0  0  0  0  0
  -19.6898  -25.6309   21.1221 H   0  0  0  0  0  0
  -19.6680  -27.3220   20.6755 H   0  0  0  0  0  0
  -17.4194  -26.6682   21.4017 H   0  0  0  0  0  0
  -18.0314  -26.0069   22.9017 H   0  0  0  0  0  0
  -19.7926  -30.7261   24.2281 H   0  0  0  0  0  0
  -17.5008  -31.6265   24.5171 H   0  0  0  0  0  0
  -15.5345  -30.2994   23.7650 H   0  0  0  0  0  0
  -15.8658  -28.0832   22.7055 H   0  0  0  0  0  0
  -24.5921  -30.7024   25.7799 H   0  0  0  0  0  0
  -24.8924  -32.2828   26.4928 H   0  0  0  0  0  0
  -25.8102  -30.8843   27.0210 H   0  0  0  0  0  0
  -26.2848  -29.6799   24.1139 H   0  0  0  0  0  0
  -27.4106  -29.7269   25.4514 H   0  0  0  0  0  0
  -27.8667  -30.4375   23.9204 H   0  0  0  0  0  0
  -27.2677  -33.3604   26.2079 H   0  0  0  0  0  0
  -28.3854  -32.6870   25.0307 H   0  0  0  0  0  0
  -28.0724  -31.8416   26.5382 H   0  0  0  0  0  0
  -28.2607  -38.0102   24.7514 H   0  0  0  0  0  0
  -28.1065  -36.2632   24.6300 H   0  0  0  0  0  0
  -27.2295  -37.1473   25.8871 H   0  0  0  0  0  0
  -20.9307  -29.8756   21.6944 H   0  0  0  0  0  0
  -26.0179  -38.2869   24.1405 H   0  0  0  0  0  0
  -31.6427  -20.6307   21.6451 H   0  0  0  0  0  0
  -32.6395  -16.4943   21.4130 H   0  0  0  0  0  0
  -27.6482  -23.5787   23.4518 H   0  0  0  0  0  0
  -29.3456  -24.0020   23.2746 H   0  0  0  0  0  0
  -28.8873  -22.3536   23.6227 H   0  0  0  0  0  0
  -28.5416  -25.8720   22.0509 H   0  0  0  0  0  0
  -27.1143  -25.2995   21.2251 H   0  0  0  0  0  0
  -27.4347  -22.7452   21.3015 H   0  0  0  0  0  0
  -29.0882  -15.3700   21.3244 H   0  0  0  0  0  0
  -30.0938  -21.8948   20.6196 H   0  0  0  0  0  0
  -27.4652  -19.2383   22.1365 H   0  0  0  0  0  0
  -27.0829  -20.9362   22.1296 H   0  0  0  0  0  0
  1 25  1  0  0  0
  1 30  2  0  0  0
  1 82  1  0  0  0
  2  3  1  0  0  0
  2 25  1  0  0  0
  2 88  1  0  0  0
  2 89  1  0  0  0
  3  4  1  0  0  0
  3 90  1  0  0  0
  3 91  1  0  0  0
  4  5  1  0  0  0
  4 92  1  0  0  0
  4 93  1  0  0  0
  5  6  1  0  0  0
  5 26  1  0  0  0
  5 94  1  0  0  0
  6 25  1  0  0  0
  6 95  1  0  0  0
  6 96  1  0  0  0
  7  8  2  0  0  0
  7 26  1  0  0  0
  7 29  1  0  0  0
  8  9  1  0  0  0
  8 22  1  0  0  0
  9 10  1  0  0  0
  9 27  2  0  0  0
 10 11  2  0  0  0
 10 15  1  0  0  0
 11 12  1  0  0  0
 11 97  1  0  0  0
 12 13  2  0  0  0
 12 98  1  0  0  0
 13 14  1  0  0  0
 13 31  1  0  0  0
 14 15  2  0  0  0
 14 99  1  0  0  0
 15100  1  0  0  0
 16 17  2  0  0  0
 16 21  1  0  0  0
 16 31  1  0  0  0
 17 18  1  0  0  0
 17101  1  0  0  0
 18 19  2  0  0  0
 18102  1  0  0  0
 19 20  1  0  0  0
 19 24  1  0  0  0
 20 21  2  0  0  0
 20103  1  0  0  0
 21 23  1  0  0  0
 22 28  1  0  0  0
 22 32  2  0  0  0
 26 27  1  0  0  0
 28104  1  0  0  0
 28105  1  0  0  0
 29106  1  0  0  0
 29107  1  0  0  0
 33 34  1  0  0  0
 33 66  1  0  0  0
 33 70  2  0  0  0
 34 36  1  0  0  0
 34 59  1  0  0  0
 34108  1  0  0  0
 35 44  2  0  0  0
 35 45  1  0  0  0
 35 68  1  0  0  0
 36 56  1  0  0  0
 36109  1  0  0  0
 37 39  1  0  0  0
 37 47  1  0  0  0
 37 66  1  0  0  0
 37110  1  0  0  0
 38 43  2  0  0  0
 38 46  1  0  0  0
 38 47  1  0  0  0
 39 64  1  0  0  0
 39 67  2  0  0  0
 40 52  1  0  0  0
 40 53  2  0  0  0
 40 58  1  0  0  0
 41111  1  0  0  0
 41112  1  0  0  0
 41113  1  0  0  0
 41 48  1  0  0  0
 42 43  1  0  0  0
 42 66  1  0  0  0
 42114  1  0  0  0
 42115  1  0  0  0
 43 44  1  0  0  0
 44116  1  0  0  0
 45 46  2  0  0  0
 45117  1  0  0  0
 46118  1  0  0  0
 47119  1  0  0  0
 47120  1  0  0  0
 48 56  1  0  0  0
 48 65  1  0  0  0
 48121  1  0  0  0
 49 50  1  0  0  0
 49 53  1  0  0  0
 49 64  1  0  0  0
 49122  1  0  0  0
 50 51  1  0  0  0
 50123  1  0  0  0
 50124  1  0  0  0
 51 52  1  0  0  0
 51125  1  0  0  0
 51126  1  0  0  0
 52127  1  0  0  0
 52128  1  0  0  0
 53 54  1  0  0  0
 54 55  2  0  0  0
 54129  1  0  0  0
 55 57  1  0  0  0
 55130  1  0  0  0
 56 69  2  0  0  0
 57 58  2  0  0  0
 57131  1  0  0  0
 58132  1  0  0  0
 59 60  1  0  0  0
 59 61  1  0  0  0
 59 62  1  0  0  0
 60133  1  0  0  0
 60134  1  0  0  0
 60135  1  0  0  0
 61136  1  0  0  0
 61137  1  0  0  0
 61138  1  0  0  0
 62139  1  0  0  0
 62140  1  0  0  0
 62141  1  0  0  0
 63 65  1  0  0  0
 63142  1  0  0  0
 63143  1  0  0  0
 63144  1  0  0  0
 64145  1  0  0  0
 65146  1  0  0  0
 68 80  1  0  0  0
 71 73  2  0  0  0
 71 75  1  0  0  0
 71147  1  0  0  0
 72 74  1  0  0  0
 72 75  2  0  0  0
 72148  1  0  0  0
 73 76  1  0  0  0
 73 77  1  0  0  0
 74 76  2  0  0  0
 74 82  1  0  0  0
 75 86  1  0  0  0
 76 87  1  0  0  0
 77 83  1  0  0  0
 77 84  2  0  0  0
 78 80  1  0  0  0
 78 81  1  0  0  0
 78 85  2  0  0  0
 79149  1  0  0  0
 79150  1  0  0  0
 79151  1  0  0  0
 79 81  1  0  0  0
 80152  1  0  0  0
 80153  1  0  0  0
 81 83  1  0  0  0
 81154  1  0  0  0
 82155  1  0  0  0
 83156  1  0  0  0
 84157  1  0  0  0
 84158  1  0  0  0
M  CHG  1  84   1
M  ISO  4   1 100  68 101  80 101  82 100
M  END
> <chiral flag>
0

> <version>
0

> <s_m_source_file>
/data/baiqing/PycharmProjects/Reinvent-master-3.2/result/LINK_invent/BTK/process_docking_weight1_custom_product_contain_oxygen_bond_distance_aromatic_linkinvent_7_9_3/rearranged_h_0165.sdf

> <i_m_source_file_index>
6

> <r_mmod_Potential_Energy-OPLS-2005>
-334.577880859375

> <r_mmod_Stretch_Energy-OPLS-2005>
45.5238571166992

> <r_mmod_Bend_Energy-OPLS-2005>
98.3548583984375

> <r_mmod_Torsional_Energy-OPLS-2005>
238.191436767578

> <r_mmod_Improper_Torsional_Energy-OPLS-2005>
4.65830898284912

> <r_mmod_Van_der_Waal_Energy-OPLS-2005>
163.063812255859

> <r_mmod_Electrostatic_Energy-OPLS-2005>
-450.543273925781

> <r_mmod_Solvation_Energy-OPLS-2005>
-450.966247558594

> <b_mmod_Minimization_Converged-OPLS-2005>
0

> <r_mmod_RMS_Derivative-OPLS-2005>
0.698028564453125

$$$$
6
                    3D
 Structure written by MMmdl.
166174  0  0  1  0            999 V2000
  -30.6996  -14.4734   20.5535 C   0  0  0  0  0  0
  -30.4253  -12.2978   19.4291 C   0  0  0  0  0  0
  -29.4955  -12.4799   18.2122 C   0  0  0  0  0  0
  -28.0168  -12.3503   18.6290 C   0  0  0  0  0  0
  -27.6620  -13.2025   19.8780 C   0  0  2  0  0  0
  -28.7060  -12.9992   20.9992 C   0  0  0  0  0  0
  -25.2612  -13.8163   20.5704 C   0  0  0  0  0  0
  -24.1847  -13.0460   20.9154 C   0  0  0  0  0  0
  -24.6382  -11.6916   20.8734 C   0  0  0  0  0  0
  -23.9050  -10.4302   21.0396 C   0  0  0  0  0  0
  -24.3615   -9.4220   21.9176 C   0  0  0  0  0  0
  -23.6283   -8.2251   22.0753 C   0  0  0  0  0  0
  -22.4266   -8.0288   21.3536 C   0  0  0  0  0  0
  -21.9900   -9.0259   20.4632 C   0  0  0  0  0  0
  -22.7226  -10.2145   20.3038 C   0  0  0  0  0  0
  -21.6846   -6.0745   22.5277 C   0  0  0  0  0  0
  -21.4019   -6.5647   23.8208 C   0  0  0  0  0  0
  -21.3660   -5.6799   24.9171 C   0  0  0  0  0  0
  -21.6032   -4.3054   24.7213 C   0  0  0  0  0  0
  -21.8819   -3.8155   23.4332 C   0  0  0  0  0  0
  -21.9199   -4.6977   22.3393 C   0  0  0  0  0  0
  -22.7887  -13.5268   21.1823 C   0  0  0  0  0  0
  -22.1673   -4.2178   21.0962 F   0  0  0  0  0  0
  -21.5617   -3.4528   25.7722 F   0  0  0  0  0  0
  -30.0327  -13.2939   20.4360 N   0  0  0  0  0  0
  -26.3041  -12.9321   20.3428 N   0  0  0  0  0  0
  -25.9315  -11.6487   20.5822 N   0  0  0  0  0  0
  -22.0533  -12.8247   22.0379 N   0  0  0  0  0  0
  -25.4419  -15.1865   20.4103 N   0  0  0  0  0  0
  -31.8667  -14.6218   20.1753 O   0  0  0  0  0  0
  -21.6620   -6.8891   21.4237 O   0  0  0  0  0  0
  -22.3580  -14.5597   20.6704 O   0  0  0  0  0  0
  -24.6110  -31.8704   23.2114 C   0  0  0  0  0  0
  -25.9012  -32.4840   23.8399 C   0  0  1  0  0  0
  -27.2451  -27.4531   20.1053 C   0  0  0  0  0  0
  -25.5884  -33.8637   24.2333 N   0  0  0  0  0  0
  -23.3996  -30.4925   21.5511 C   0  0  2  0  0  0
  -24.8511  -28.9593   20.1168 C   0  0  0  0  0  0
  -22.7398  -29.4662   22.4997 C   0  0  0  0  0  0
  -18.0272  -28.1386   22.8497 C   0  0  0  0  0  0
  -24.1492  -36.7321   23.2635 C   0  0  0  0  0  0
  -25.9247  -30.8407   21.3644 C   0  0  0  0  0  0
  -26.0057  -29.4729   20.7211 C   0  0  0  0  0  0
  -27.2037  -28.7248   20.7241 C   0  0  0  0  0  0
  -26.0798  -26.9555   19.4877 C   0  0  0  0  0  0
  -24.8810  -27.6956   19.5006 C   0  0  0  0  0  0
  -23.6090  -29.8217   20.1666 C   0  0  0  0  0  0
  -25.4107  -36.3121   24.0340 C   0  0  1  0  0  0
  -20.5863  -28.3667   23.1338 C   0  0  2  0  0  0
  -20.6768  -26.9404   22.5436 C   0  0  0  0  0  0
  -19.5752  -26.6385   21.5226 C   0  0  0  0  0  0
  -18.1919  -26.7939   22.1610 C   0  0  0  0  0  0
  -19.1521  -28.8839   23.2914 C   0  0  0  0  0  0
  -18.9451  -30.1451   23.8917 C   0  0  0  0  0  0
  -17.6450  -30.6596   24.0569 C   0  0  0  0  0  0
  -25.9035  -34.9486   23.5138 C   0  0  0  0  0  0
  -16.5346  -29.9095   23.6328 C   0  0  0  0  0  0
  -16.7259  -28.6517   23.0345 C   0  0  0  0  0  0
  -26.4448  -31.6608   25.0714 C   0  0  0  0  0  0
  -25.3728  -31.3694   26.1470 C   0  0  0  0  0  0
  -27.0282  -30.3057   24.6068 C   0  0  0  0  0  0
  -27.6028  -32.4321   25.7475 C   0  0  0  0  0  0
  -27.5605  -37.1795   24.8442 C   0  0  0  0  0  0
  -21.4133  -29.3032   22.3742 N   0  0  0  0  0  0
  -26.4289  -37.3810   23.9434 N   0  0  0  0  0  0
  -24.6626  -31.0817   22.1010 N   0  0  0  0  0  0
  -23.4179  -28.8216   23.3050 O   0  0  0  0  0  0
  -28.3760  -26.6693   20.0604 O   0  0  0  0  0  0
  -26.5598  -34.8933   22.4700 O   0  0  0  0  0  0
  -23.5312  -32.1447   23.7527 O   0  0  0  0  0  0
  -32.6324  -19.0256   21.7129 C   0  0  0  0  0  0
  -31.9548  -17.8040   21.8493 C   0  0  0  0  0  0
  -31.9089  -20.2218   21.5786 C   0  0  0  0  0  0
  -30.5458  -17.7526   21.8460 C   0  0  0  0  0  0
  -29.8047  -18.9715   21.7151 C   0  0  0  0  0  0
  -30.4957  -20.2163   21.5870 C   0  0  0  0  0  0
  -29.4597  -23.9265   21.3509 C   0  0  0  0  0  0
  -27.6696  -19.3129   23.0595 C   0  0  0  0  0  0
  -29.6382  -16.3300   19.4950 C   0  0  0  0  0  0
  -28.2729  -18.9682   21.6940 C   0  0  0  0  0  0
  -29.9041  -16.3538   21.9576 C   0  0  0  0  0  0
  -30.0761  -25.3328   21.2369 C   0  0  0  0  0  0
  -30.4405  -22.7402   21.4163 C   0  0  0  0  0  0
  -29.0919  -26.5264   21.2883 C   0  0  0  0  0  0
  -29.7817  -21.4280   21.4629 N   0  0  0  0  0  0
  -29.9032  -15.5560   20.7136 N   0  0  0  0  0  0
  -28.2378  -23.7407   21.3996 O   0  0  0  0  0  0
  -31.4676  -12.3997   19.1216 H   0  0  0  0  0  0
  -30.3293  -11.2941   19.8427 H   0  0  0  0  0  0
  -29.7321  -11.7378   17.4482 H   0  0  0  0  0  0
  -29.6688  -13.4528   17.7503 H   0  0  0  0  0  0
  -27.8289  -11.2968   18.8398 H   0  0  0  0  0  0
  -27.3644  -12.6132   17.7966 H   0  0  0  0  0  0
  -27.6968  -14.2464   19.5698 H   0  0  0  0  0  0
  -28.6826  -11.9697   21.3598 H   0  0  0  0  0  0
  -28.4851  -13.6307   21.8613 H   0  0  0  0  0  0
  -25.2762   -9.5733   22.4743 H   0  0  0  0  0  0
  -23.9986   -7.4659   22.7495 H   0  0  0  0  0  0
  -21.0826   -8.8783   19.8945 H   0  0  0  0  0  0
  -22.3662  -10.9684   19.6150 H   0  0  0  0  0  0
  -21.2013   -7.6164   23.9716 H   0  0  0  0  0  0
  -21.1482   -6.0530   25.9071 H   0  0  0  0  0  0
  -22.0593   -2.7616   23.2821 H   0  0  0  0  0  0
  -22.4102  -11.9860   22.4701 H   0  0  0  0  0  0
  -21.1175  -13.1306   22.2630 H   0  0  0  0  0  0
  -24.6822  -15.8519   20.5017 H   0  0  0  0  0  0
  -26.3105  -15.6146   20.1152 H   0  0  0  0  0  0
  -26.7088  -32.5575   23.1175 H   0  0  0  0  0  0
  -25.0030  -33.9806   25.0478 H   0  0  0  0  0  0
  -22.6856  -31.3073   21.4121 H   0  0  0  0  0  0
  -23.3776  -35.9628   23.3236 H   0  0  0  0  0  0
  -24.3600  -36.9004   22.2063 H   0  0  0  0  0  0
  -23.7205  -37.6491   23.6688 H   0  0  0  0  0  0
  -26.0313  -31.6040   20.5921 H   0  0  0  0  0  0
  -26.8143  -30.9002   21.9802 H   0  0  0  0  0  0
  -28.0902  -29.1323   21.1889 H   0  0  0  0  0  0
  -26.1007  -25.9854   19.0116 H   0  0  0  0  0  0
  -23.9946  -27.2911   19.0316 H   0  0  0  0  0  0
  -23.7140  -30.5951   19.4048 H   0  0  0  0  0  0
  -22.7347  -29.2381   19.8743 H   0  0  0  0  0  0
  -25.1270  -36.1977   25.0827 H   0  0  0  0  0  0
  -20.9948  -28.3231   24.1460 H   0  0  0  0  0  0
  -20.5686  -26.2265   23.3612 H   0  0  0  0  0  0
  -21.6644  -26.7447   22.1243 H   0  0  0  0  0  0
  -19.6913  -25.6297   21.1257 H   0  0  0  0  0  0
  -19.6704  -27.3196   20.6759 H   0  0  0  0  0  0
  -17.4205  -26.6721   21.3988 H   0  0  0  0  0  0
  -18.0269  -26.0070   22.8983 H   0  0  0  0  0  0
  -19.7921  -30.7268   24.2287 H   0  0  0  0  0  0
  -17.5005  -31.6277   24.5169 H   0  0  0  0  0  0
  -15.5347  -30.3004   23.7634 H   0  0  0  0  0  0
  -15.8663  -28.0838   22.7037 H   0  0  0  0  0  0
  -24.5917  -30.7017   25.7809 H   0  0  0  0  0  0
  -24.8899  -32.2847   26.4910 H   0  0  0  0  0  0
  -25.8111  -30.8881   27.0226 H   0  0  0  0  0  0
  -26.2822  -29.6830   24.1121 H   0  0  0  0  0  0
  -27.4056  -29.7271   25.4508 H   0  0  0  0  0  0
  -27.8648  -30.4372   23.9204 H   0  0  0  0  0  0
  -27.2634  -33.3591   26.2109 H   0  0  0  0  0  0
  -28.3808  -32.6938   25.0291 H   0  0  0  0  0  0
  -28.0735  -31.8419   26.5351 H   0  0  0  0  0  0
  -28.2552  -38.0165   24.7616 H   0  0  0  0  0  0
  -28.1176  -36.2709   24.6098 H   0  0  0  0  0  0
  -27.2350  -37.1252   25.8846 H   0  0  0  0  0  0
  -20.9277  -29.8737   21.6961 H   0  0  0  0  0  0
  -26.0174  -38.2872   24.1510 H   0  0  0  0  0  0
  -33.7129  -19.0511   21.7088 H   0  0  0  0  0  0
  -32.5302  -16.8918   21.9464 H   0  0  0  0  0  0
  -32.4719  -21.1369   21.4699 H   0  0  0  0  0  0
  -26.5806  -19.3396   23.0099 H   0  0  0  0  0  0
  -28.0080  -20.2901   23.4036 H   0  0  0  0  0  0
  -27.9539  -18.5734   23.8079 H   0  0  0  0  0  0
  -28.7630  -16.9680   19.6065 H   0  0  0  0  0  0
  -29.4441  -15.6771   18.6422 H   0  0  0  0  0  0
  -30.4971  -16.9535   19.2401 H   0  0  0  0  0  0
  -27.8743  -18.0146   21.3592 H   0  0  0  0  0  0
  -27.9209  -19.6771   20.9441 H   0  0  0  0  0  0
  -28.8868  -16.4088   22.3407 H   0  0  0  0  0  0
  -30.4396  -15.8056   22.7371 H   0  0  0  0  0  0
  -30.6790  -25.3836   20.3295 H   0  0  0  0  0  0
  -30.7700  -25.4336   22.0717 H   0  0  0  0  0  0
  -31.0637  -22.8656   22.3006 H   0  0  0  0  0  0
  -31.0993  -22.7982   20.5494 H   0  0  0  0  0  0
  -29.6614  -27.4372   21.4720 H   0  0  0  0  0  0
  -28.4038  -26.4118   22.1295 H   0  0  0  0  0  0
  -28.7745  -21.4473   21.5975 H   0  0  0  0  0  0
  1 25  1  0  0  0
  1 30  2  0  0  0
  1 86  1  0  0  0
  2  3  1  0  0  0
  2 25  1  0  0  0
  2 88  1  0  0  0
  2 89  1  0  0  0
  3  4  1  0  0  0
  3 90  1  0  0  0
  3 91  1  0  0  0
  4  5  1  0  0  0
  4 92  1  0  0  0
  4 93  1  0  0  0
  5  6  1  0  0  0
  5 26  1  0  0  0
  5 94  1  0  0  0
  6 25  1  0  0  0
  6 95  1  0  0  0
  6 96  1  0  0  0
  7  8  2  0  0  0
  7 26  1  0  0  0
  7 29  1  0  0  0
  8  9  1  0  0  0
  8 22  1  0  0  0
  9 10  1  0  0  0
  9 27  2  0  0  0
 10 11  2  0  0  0
 10 15  1  0  0  0
 11 12  1  0  0  0
 11 97  1  0  0  0
 12 13  2  0  0  0
 12 98  1  0  0  0
 13 14  1  0  0  0
 13 31  1  0  0  0
 14 15  2  0  0  0
 14 99  1  0  0  0
 15100  1  0  0  0
 16 17  2  0  0  0
 16 21  1  0  0  0
 16 31  1  0  0  0
 17 18  1  0  0  0
 17101  1  0  0  0
 18 19  2  0  0  0
 18102  1  0  0  0
 19 20  1  0  0  0
 19 24  1  0  0  0
 20 21  2  0  0  0
 20103  1  0  0  0
 21 23  1  0  0  0
 22 28  1  0  0  0
 22 32  2  0  0  0
 26 27  1  0  0  0
 28104  1  0  0  0
 28105  1  0  0  0
 29106  1  0  0  0
 29107  1  0  0  0
 33 34  1  0  0  0
 33 66  1  0  0  0
 33 70  2  0  0  0
 34 36  1  0  0  0
 34 59  1  0  0  0
 34108  1  0  0  0
 35 44  2  0  0  0
 35 45  1  0  0  0
 35 68  1  0  0  0
 36 56  1  0  0  0
 36109  1  0  0  0
 37 39  1  0  0  0
 37 47  1  0  0  0
 37 66  1  0  0  0
 37110  1  0  0  0
 38 43  2  0  0  0
 38 46  1  0  0  0
 38 47  1  0  0  0
 39 64  1  0  0  0
 39 67  2  0  0  0
 40 52  1  0  0  0
 40 53  2  0  0  0
 40 58  1  0  0  0
 41111  1  0  0  0
 41112  1  0  0  0
 41113  1  0  0  0
 41 48  1  0  0  0
 42 43  1  0  0  0
 42 66  1  0  0  0
 42114  1  0  0  0
 42115  1  0  0  0
 43 44  1  0  0  0
 44116  1  0  0  0
 45 46  2  0  0  0
 45117  1  0  0  0
 46118  1  0  0  0
 47119  1  0  0  0
 47120  1  0  0  0
 48 56  1  0  0  0
 48 65  1  0  0  0
 48121  1  0  0  0
 49 50  1  0  0  0
 49 53  1  0  0  0
 49 64  1  0  0  0
 49122  1  0  0  0
 50 51  1  0  0  0
 50123  1  0  0  0
 50124  1  0  0  0
 51 52  1  0  0  0
 51125  1  0  0  0
 51126  1  0  0  0
 52127  1  0  0  0
 52128  1  0  0  0
 53 54  1  0  0  0
 54 55  2  0  0  0
 54129  1  0  0  0
 55 57  1  0  0  0
 55130  1  0  0  0
 56 69  2  0  0  0
 57 58  2  0  0  0
 57131  1  0  0  0
 58132  1  0  0  0
 59 60  1  0  0  0
 59 61  1  0  0  0
 59 62  1  0  0  0
 60133  1  0  0  0
 60134  1  0  0  0
 60135  1  0  0  0
 61136  1  0  0  0
 61137  1  0  0  0
 61138  1  0  0  0
 62139  1  0  0  0
 62140  1  0  0  0
 62141  1  0  0  0
 63 65  1  0  0  0
 63142  1  0  0  0
 63143  1  0  0  0
 63144  1  0  0  0
 64145  1  0  0  0
 65146  1  0  0  0
 68 84  1  0  0  0
 71 72  2  0  0  0
 71 73  1  0  0  0
 71147  1  0  0  0
 72 74  1  0  0  0
 72148  1  0  0  0
 73 76  2  0  0  0
 73149  1  0  0  0
 74 75  2  0  0  0
 74 81  1  0  0  0
 75 76  1  0  0  0
 75 80  1  0  0  0
 76 85  1  0  0  0
 77 82  1  0  0  0
 77 83  1  0  0  0
 77 87  2  0  0  0
 78 80  1  0  0  0
 78150  1  0  0  0
 78151  1  0  0  0
 78152  1  0  0  0
 79 86  1  0  0  0
 79153  1  0  0  0
 79154  1  0  0  0
 79155  1  0  0  0
 80156  1  0  0  0
 80157  1  0  0  0
 81 86  1  0  0  0
 81158  1  0  0  0
 81159  1  0  0  0
 82 84  1  0  0  0
 82160  1  0  0  0
 82161  1  0  0  0
 83 85  1  0  0  0
 83162  1  0  0  0
 83163  1  0  0  0
 84164  1  0  0  0
 84165  1  0  0  0
 85166  1  0  0  0
M  ISO  4   1 100  68 101  84 101  86 100
M  END
> <chiral flag>
0

> <version>
0

> <s_m_source_file>
/data/baiqing/PycharmProjects/Reinvent-master-3.2/result/LINK_invent/BTK/process_docking_weight1_custom_product_contain_oxygen_bond_distance_aromatic_linkinvent_7_9_3/rearranged_h_0165.sdf

> <i_m_source_file_index>
7

> <r_mmod_Potential_Energy-OPLS-2005>
44.2122764587402

> <r_mmod_Stretch_Energy-OPLS-2005>
40.9770088195801

> <r_mmod_Bend_Energy-OPLS-2005>
108.745323181152

> <r_mmod_Torsional_Energy-OPLS-2005>
273.932952880859

> <r_mmod_Improper_Torsional_Energy-OPLS-2005>
14.0388813018799

> <r_mmod_Van_der_Waal_Energy-OPLS-2005>
150.84521484375

> <r_mmod_Electrostatic_Energy-OPLS-2005>
-342.805114746094

> <r_mmod_Solvation_Energy-OPLS-2005>
-215.568206787109

> <b_mmod_Minimization_Converged-OPLS-2005>
0

> <r_mmod_RMS_Derivative-OPLS-2005>
2.46591782569885

$$$$
7
                    3D
 Structure written by MMmdl.
156165  0  0  1  0            999 V2000
  -30.6332  -14.6774   20.4493 C   0  0  0  0  0  0
  -30.4265  -12.4056   19.4704 C   0  0  0  0  0  0
  -29.5032  -12.4947   18.2353 C   0  0  0  0  0  0
  -28.0274  -12.3412   18.6460 C   0  0  0  0  0  0
  -27.6474  -13.2288   19.8614 C   0  0  2  0  0  0
  -28.6922  -13.1298   20.9958 C   0  0  0  0  0  0
  -25.2510  -13.8185   20.5691 C   0  0  0  0  0  0
  -24.1794  -13.0444   20.9183 C   0  0  0  0  0  0
  -24.6380  -11.6909   20.8738 C   0  0  0  0  0  0
  -23.9042  -10.4302   21.0416 C   0  0  0  0  0  0
  -24.3599   -9.4211   21.9177 C   0  0  0  0  0  0
  -23.6292   -8.2243   22.0735 C   0  0  0  0  0  0
  -22.4267   -8.0287   21.3537 C   0  0  0  0  0  0
  -21.9901   -9.0263   20.4642 C   0  0  0  0  0  0
  -22.7217  -10.2142   20.3067 C   0  0  0  0  0  0
  -21.6850   -6.0744   22.5281 C   0  0  0  0  0  0
  -21.4020   -6.5646   23.8211 C   0  0  0  0  0  0
  -21.3657   -5.6785   24.9173 C   0  0  0  0  0  0
  -21.6055   -4.3047   24.7223 C   0  0  0  0  0  0
  -21.8817   -3.8148   23.4339 C   0  0  0  0  0  0
  -21.9185   -4.6974   22.3397 C   0  0  0  0  0  0
  -22.7829  -13.5244   21.1868 C   0  0  0  0  0  0
  -22.1651   -4.2157   21.0977 F   0  0  0  0  0  0
  -21.5631   -3.4521   25.7730 F   0  0  0  0  0  0
  -30.0026  -13.4568   20.4220 N   0  0  0  0  0  0
  -26.2954  -12.9395   20.3328 N   0  0  0  0  0  0
  -25.9324  -11.6528   20.5784 N   0  0  0  0  0  0
  -22.0467  -12.8237   22.0419 N   0  0  0  0  0  0
  -25.4255  -15.1910   20.4150 N   0  0  0  0  0  0
  -31.8217  -14.7662   20.1258 O   0  0  0  0  0  0
  -21.6635   -6.8888   21.4234 O   0  0  0  0  0  0
  -22.3525  -14.5561   20.6716 O   0  0  0  0  0  0
  -24.6288  -31.8546   23.1984 C   0  0  0  0  0  0
  -25.9126  -32.4749   23.8322 C   0  0  1  0  0  0
  -27.2305  -27.2878   20.1153 C   0  0  0  0  0  0
  -25.5925  -33.8545   24.2235 N   0  0  0  0  0  0
  -23.4245  -30.4752   21.5402 C   0  0  2  0  0  0
  -24.8732  -28.9257   20.1062 C   0  0  0  0  0  0
  -22.7494  -29.4578   22.4918 C   0  0  0  0  0  0
  -18.0293  -28.1384   22.8494 C   0  0  0  0  0  0
  -24.1485  -36.7291   23.2641 C   0  0  0  0  0  0
  -25.9676  -30.7735   21.3765 C   0  0  0  0  0  0
  -26.0411  -29.3990   20.7168 C   0  0  0  0  0  0
  -27.2174  -28.5900   20.7162 C   0  0  0  0  0  0
  -26.0335  -26.8658   19.4948 C   0  0  0  0  0  0
  -24.8733  -27.6652   19.4870 C   0  0  0  0  0  0
  -23.6409  -29.8059   20.1574 C   0  0  0  0  0  0
  -25.4116  -36.3066   24.0321 C   0  0  1  0  0  0
  -20.5896  -28.3671   23.1289 C   0  0  2  0  0  0
  -20.6779  -26.9398   22.5414 C   0  0  0  0  0  0
  -19.5748  -26.6376   21.5219 C   0  0  0  0  0  0
  -18.1930  -26.7924   22.1632 C   0  0  0  0  0  0
  -19.1547  -28.8849   23.2883 C   0  0  0  0  0  0
  -18.9461  -30.1459   23.8881 C   0  0  0  0  0  0
  -17.6459  -30.6579   24.0556 C   0  0  0  0  0  0
  -25.9052  -34.9435   23.5077 C   0  0  0  0  0  0
  -16.5351  -29.9075   23.6344 C   0  0  0  0  0  0
  -16.7276  -28.6501   23.0351 C   0  0  0  0  0  0
  -26.4494  -31.6590   25.0715 C   0  0  0  0  0  0
  -25.3719  -31.3785   26.1445 C   0  0  0  0  0  0
  -27.0332  -30.2991   24.6224 C   0  0  0  0  0  0
  -27.6040  -32.4350   25.7487 C   0  0  0  0  0  0
  -27.5583  -37.1792   24.8447 C   0  0  0  0  0  0
  -21.4199  -29.3012   22.3674 N   0  0  0  0  0  0
  -26.4289  -37.3767   23.9403 N   0  0  0  0  0  0
  -24.6925  -31.0532   22.0943 N   0  0  0  0  0  0
  -23.4210  -28.8118   23.3011 O   0  0  0  0  0  0
  -28.3512  -26.4379   20.2087 O   0  0  0  0  0  0
  -26.5629  -34.8909   22.4647 O   0  0  0  0  0  0
  -23.5447  -32.1343   23.7298 O   0  0  0  0  0  0
  -29.9323  -17.7963   17.4759 C   0  0  0  0  0  0
  -29.6633  -19.0920   17.9193 C   0  0  0  0  0  0
  -30.0139  -16.7693   18.4167 C   0  0  0  0  0  0
  -29.4710  -19.3744   19.2899 C   0  0  0  0  0  0
  -29.8412  -17.0195   19.7962 C   0  0  0  0  0  0
  -28.6324  -23.7402   19.9077 C   0  0  0  0  0  0
  -30.0524  -23.1931   20.2624 C   0  0  0  0  0  0
  -27.7875  -21.4450   20.0186 C   0  0  0  0  0  0
  -29.1996  -20.9223   19.6061 C   0  0  1  0  0  0
  -28.5410  -25.2425   19.3468 C   0  0  0  0  0  0
  -29.5605  -18.3301   20.2122 N   0  0  0  0  0  0
  -27.6213  -22.9320   19.8572 N   0  0  0  0  0  0
  -29.8681  -15.8132   20.6380 N   0  0  0  0  0  0
  -30.1763  -21.6905   20.4058 N   0  3  0  0  0  0
  -31.4682  -12.5179   19.1656 H   0  0  0  0  0  0
  -30.3534  -11.4193   19.9357 H   0  0  0  0  0  0
  -29.7692  -11.7287   17.5061 H   0  0  0  0  0  0
  -29.6451  -13.4541   17.7351 H   0  0  0  0  0  0
  -27.8617  -11.2926   18.8930 H   0  0  0  0  0  0
  -27.3733  -12.5620   17.8015 H   0  0  0  0  0  0
  -27.6536  -14.2571   19.4980 H   0  0  0  0  0  0
  -28.7074  -12.1235   21.4208 H   0  0  0  0  0  0
  -28.4386  -13.8044   21.8151 H   0  0  0  0  0  0
  -25.2737   -9.5693   22.4759 H   0  0  0  0  0  0
  -23.9998   -7.4624   22.7448 H   0  0  0  0  0  0
  -21.0824   -8.8796   19.8966 H   0  0  0  0  0  0
  -22.3659  -10.9692   19.6197 H   0  0  0  0  0  0
  -21.2023   -7.6151   23.9713 H   0  0  0  0  0  0
  -21.1483   -6.0516   25.9067 H   0  0  0  0  0  0
  -22.0602   -2.7612   23.2829 H   0  0  0  0  0  0
  -22.4054  -11.9888   22.4809 H   0  0  0  0  0  0
  -21.1130  -13.1326   22.2692 H   0  0  0  0  0  0
  -24.6587  -15.8464   20.5179 H   0  0  0  0  0  0
  -26.2876  -15.6276   20.1161 H   0  0  0  0  0  0
  -26.7194  -32.5405   23.1069 H   0  0  0  0  0  0
  -25.0072  -33.9670   25.0379 H   0  0  0  0  0  0
  -22.7204  -31.2965   21.3945 H   0  0  0  0  0  0
  -23.3737  -35.9635   23.3296 H   0  0  0  0  0  0
  -24.3580  -36.8916   22.2058 H   0  0  0  0  0  0
  -23.7240  -37.6486   23.6676 H   0  0  0  0  0  0
  -26.1098  -31.5380   20.6112 H   0  0  0  0  0  0
  -26.8442  -30.8158   22.0128 H   0  0  0  0  0  0
  -28.1109  -28.9483   21.2083 H   0  0  0  0  0  0
  -25.9483  -25.8860   19.0513 H   0  0  0  0  0  0
  -23.9753  -27.2897   19.0134 H   0  0  0  0  0  0
  -23.7565  -30.5756   19.3951 H   0  0  0  0  0  0
  -22.7610  -29.2322   19.8602 H   0  0  0  0  0  0
  -25.1300  -36.1904   25.0816 H   0  0  0  0  0  0
  -21.0000  -28.3247   24.1401 H   0  0  0  0  0  0
  -20.5681  -26.2285   23.3616 H   0  0  0  0  0  0
  -21.6647  -26.7418   22.1197 H   0  0  0  0  0  0
  -19.6899  -25.6281   21.1256 H   0  0  0  0  0  0
  -19.6686  -27.3187   20.6751 H   0  0  0  0  0  0
  -17.4205  -26.6686   21.4029 H   0  0  0  0  0  0
  -18.0309  -26.0062   22.9022 H   0  0  0  0  0  0
  -19.7932  -30.7292   24.2231 H   0  0  0  0  0  0
  -17.5003  -31.6247   24.5168 H   0  0  0  0  0  0
  -15.5347  -30.2955   23.7671 H   0  0  0  0  0  0
  -15.8686  -28.0806   22.7065 H   0  0  0  0  0  0
  -24.5846  -30.7177   25.7786 H   0  0  0  0  0  0
  -24.8971  -32.2985   26.4863 H   0  0  0  0  0  0
  -25.8024  -30.8950   27.0218 H   0  0  0  0  0  0
  -26.2911  -29.6741   24.1231 H   0  0  0  0  0  0
  -27.3954  -29.7259   25.4765 H   0  0  0  0  0  0
  -27.8827  -30.4226   23.9506 H   0  0  0  0  0  0
  -27.2599  -33.3607   26.2121 H   0  0  0  0  0  0
  -28.3825  -32.6986   25.0316 H   0  0  0  0  0  0
  -28.0754  -31.8457   26.5358 H   0  0  0  0  0  0
  -28.2588  -38.0098   24.7505 H   0  0  0  0  0  0
  -28.1086  -36.2624   24.6254 H   0  0  0  0  0  0
  -27.2313  -37.1436   25.8852 H   0  0  0  0  0  0
  -20.9398  -29.8755   21.6883 H   0  0  0  0  0  0
  -26.0156  -38.2833   24.1408 H   0  0  0  0  0  0
  -30.0619  -17.5913   16.4215 H   0  0  0  0  0  0
  -29.6010  -19.8661   17.1651 H   0  0  0  0  0  0
  -30.2023  -15.7746   18.0382 H   0  0  0  0  0  0
  -30.4031  -23.6732   21.1774 H   0  0  0  0  0  0
  -30.7430  -23.5082   19.4787 H   0  0  0  0  0  0
  -27.5525  -21.1387   21.0398 H   0  0  0  0  0  0
  -27.0523  -20.9424   19.3890 H   0  0  0  0  0  0
  -29.3437  -21.3658   18.6197 H   0  0  0  0  0  0
  -27.8579  -25.2411   18.5004 H   0  0  0  0  0  0
  -29.4982  -25.4319   18.8615 H   0  0  0  0  0  0
  -29.0295  -15.6698   21.1782 H   0  0  0  0  0  0
  -30.0258  -21.4431   21.3683 H   0  0  0  0  0  0
  -31.1040  -21.3991   20.1537 H   0  0  0  0  0  0
  1 25  1  0  0  0
  1 30  2  0  0  0
  1 83  1  0  0  0
  2  3  1  0  0  0
  2 25  1  0  0  0
  2 85  1  0  0  0
  2 86  1  0  0  0
  3  4  1  0  0  0
  3 87  1  0  0  0
  3 88  1  0  0  0
  4  5  1  0  0  0
  4 89  1  0  0  0
  4 90  1  0  0  0
  5  6  1  0  0  0
  5 26  1  0  0  0
  5 91  1  0  0  0
  6 25  1  0  0  0
  6 92  1  0  0  0
  6 93  1  0  0  0
  7  8  2  0  0  0
  7 26  1  0  0  0
  7 29  1  0  0  0
  8  9  1  0  0  0
  8 22  1  0  0  0
  9 10  1  0  0  0
  9 27  2  0  0  0
 10 11  2  0  0  0
 10 15  1  0  0  0
 11 12  1  0  0  0
 11 94  1  0  0  0
 12 13  2  0  0  0
 12 95  1  0  0  0
 13 14  1  0  0  0
 13 31  1  0  0  0
 14 15  2  0  0  0
 14 96  1  0  0  0
 15 97  1  0  0  0
 16 17  2  0  0  0
 16 21  1  0  0  0
 16 31  1  0  0  0
 17 18  1  0  0  0
 17 98  1  0  0  0
 18 19  2  0  0  0
 18 99  1  0  0  0
 19 20  1  0  0  0
 19 24  1  0  0  0
 20 21  2  0  0  0
 20100  1  0  0  0
 21 23  1  0  0  0
 22 28  1  0  0  0
 22 32  2  0  0  0
 26 27  1  0  0  0
 28101  1  0  0  0
 28102  1  0  0  0
 29103  1  0  0  0
 29104  1  0  0  0
 33 34  1  0  0  0
 33 66  1  0  0  0
 33 70  2  0  0  0
 34 36  1  0  0  0
 34 59  1  0  0  0
 34105  1  0  0  0
 35 44  2  0  0  0
 35 45  1  0  0  0
 35 68  1  0  0  0
 36 56  1  0  0  0
 36106  1  0  0  0
 37 39  1  0  0  0
 37 47  1  0  0  0
 37 66  1  0  0  0
 37107  1  0  0  0
 38 43  2  0  0  0
 38 46  1  0  0  0
 38 47  1  0  0  0
 39 64  1  0  0  0
 39 67  2  0  0  0
 40 52  1  0  0  0
 40 53  2  0  0  0
 40 58  1  0  0  0
 41108  1  0  0  0
 41109  1  0  0  0
 41110  1  0  0  0
 41 48  1  0  0  0
 42 43  1  0  0  0
 42 66  1  0  0  0
 42111  1  0  0  0
 42112  1  0  0  0
 43 44  1  0  0  0
 44113  1  0  0  0
 45 46  2  0  0  0
 45114  1  0  0  0
 46115  1  0  0  0
 47116  1  0  0  0
 47117  1  0  0  0
 48 56  1  0  0  0
 48 65  1  0  0  0
 48118  1  0  0  0
 49 50  1  0  0  0
 49 53  1  0  0  0
 49 64  1  0  0  0
 49119  1  0  0  0
 50 51  1  0  0  0
 50120  1  0  0  0
 50121  1  0  0  0
 51 52  1  0  0  0
 51122  1  0  0  0
 51123  1  0  0  0
 52124  1  0  0  0
 52125  1  0  0  0
 53 54  1  0  0  0
 54 55  2  0  0  0
 54126  1  0  0  0
 55 57  1  0  0  0
 55127  1  0  0  0
 56 69  2  0  0  0
 57 58  2  0  0  0
 57128  1  0  0  0
 58129  1  0  0  0
 59 60  1  0  0  0
 59 61  1  0  0  0
 59 62  1  0  0  0
 60130  1  0  0  0
 60131  1  0  0  0
 60132  1  0  0  0
 61133  1  0  0  0
 61134  1  0  0  0
 61135  1  0  0  0
 62136  1  0  0  0
 62137  1  0  0  0
 62138  1  0  0  0
 63 65  1  0  0  0
 63139  1  0  0  0
 63140  1  0  0  0
 63141  1  0  0  0
 64142  1  0  0  0
 65143  1  0  0  0
 68 80  1  0  0  0
 71 72  2  0  0  0
 71 73  1  0  0  0
 71144  1  0  0  0
 72 74  1  0  0  0
 72145  1  0  0  0
 73 75  2  0  0  0
 73146  1  0  0  0
 74 81  2  0  0  0
 74 79  1  0  0  0
 75 81  1  0  0  0
 75 83  1  0  0  0
 76 77  1  0  0  0
 76 80  1  0  0  0
 76 82  2  0  0  0
 77 84  1  0  0  0
 77147  1  0  0  0
 77148  1  0  0  0
 78 79  1  0  0  0
 78 82  1  0  0  0
 78149  1  0  0  0
 78150  1  0  0  0
 79 84  1  0  0  0
 79151  1  0  0  0
 80152  1  0  0  0
 80153  1  0  0  0
 83154  1  0  0  0
 84155  1  0  0  0
 84156  1  0  0  0
M  CHG  1  84   1
M  ISO  4   1 100  68 101  80 101  83 100
M  END
> <chiral flag>
0

> <version>
0

> <s_m_source_file>
/data/baiqing/PycharmProjects/Reinvent-master-3.2/result/LINK_invent/BTK/process_docking_weight1_custom_product_contain_oxygen_bond_distance_aromatic_linkinvent_7_9_3/rearranged_h_0165.sdf

> <i_m_source_file_index>
8

> <r_mmod_Potential_Energy-OPLS-2005>
-197.483108520508

> <r_mmod_Stretch_Energy-OPLS-2005>
113.73902130127

> <r_mmod_Bend_Energy-OPLS-2005>
194.659210205078

> <r_mmod_Torsional_Energy-OPLS-2005>
246.452453613281

> <r_mmod_Improper_Torsional_Energy-OPLS-2005>
9.97931003570557

> <r_mmod_Van_der_Waal_Energy-OPLS-2005>
159.188293457031

> <r_mmod_Electrostatic_Energy-OPLS-2005>
-476.209167480469

> <r_mmod_Solvation_Energy-OPLS-2005>
-509.317291259766

> <b_mmod_Minimization_Converged-OPLS-2005>
0

> <r_mmod_RMS_Derivative-OPLS-2005>
3.0482439994812

$$$$
8
                    3D
 Structure written by MMmdl.
158166  0  0  1  0            999 V2000
  -30.6128  -14.6888   20.4768 C   0  0  0  0  0  0
  -30.4427  -12.4212   19.4591 C   0  0  0  0  0  0
  -29.5145  -12.5319   18.2275 C   0  0  0  0  0  0
  -28.0331  -12.3678   18.6276 C   0  0  0  0  0  0
  -27.6520  -13.2284   19.8615 C   0  0  2  0  0  0
  -28.7000  -13.0979   20.9913 C   0  0  0  0  0  0
  -25.2530  -13.8186   20.5715 C   0  0  0  0  0  0
  -24.1819  -13.0424   20.9223 C   0  0  0  0  0  0
  -24.6414  -11.6904   20.8743 C   0  0  0  0  0  0
  -23.9086  -10.4283   21.0400 C   0  0  0  0  0  0
  -24.3624   -9.4208   21.9182 C   0  0  0  0  0  0
  -23.6319   -8.2227   22.0764 C   0  0  0  0  0  0
  -22.4304   -8.0265   21.3534 C   0  0  0  0  0  0
  -21.9926   -9.0251   20.4656 C   0  0  0  0  0  0
  -22.7238  -10.2139   20.3053 C   0  0  0  0  0  0
  -21.6839   -6.0743   22.5295 C   0  0  0  0  0  0
  -21.4002   -6.5641   23.8230 C   0  0  0  0  0  0
  -21.3688   -5.6798   24.9194 C   0  0  0  0  0  0
  -21.6059   -4.3064   24.7230 C   0  0  0  0  0  0
  -21.8819   -3.8150   23.4350 C   0  0  0  0  0  0
  -21.9197   -4.6975   22.3416 C   0  0  0  0  0  0
  -22.7836  -13.5214   21.1881 C   0  0  0  0  0  0
  -22.1639   -4.2157   21.0986 F   0  0  0  0  0  0
  -21.5665   -3.4553   25.7755 F   0  0  0  0  0  0
  -30.0126  -13.4511   20.4304 N   0  0  0  0  0  0
  -26.2990  -12.9400   20.3323 N   0  0  0  0  0  0
  -25.9360  -11.6536   20.5737 N   0  0  0  0  0  0
  -22.0438  -12.8253   22.0450 N   0  0  0  0  0  0
  -25.4143  -15.1927   20.4139 N   0  0  0  0  0  0
  -31.7735  -14.8405   20.0826 O   0  0  0  0  0  0
  -21.6636   -6.8887   21.4242 O   0  0  0  0  0  0
  -22.3533  -14.5516   20.6707 O   0  0  0  0  0  0
  -24.6298  -31.8568   23.2004 C   0  0  0  0  0  0
  -25.9121  -32.4779   23.8347 C   0  0  1  0  0  0
  -27.2246  -27.2907   20.1143 C   0  0  0  0  0  0
  -25.5922  -33.8580   24.2266 N   0  0  0  0  0  0
  -23.4256  -30.4823   21.5412 C   0  0  2  0  0  0
  -24.8744  -28.9350   20.1113 C   0  0  0  0  0  0
  -22.7500  -29.4603   22.4867 C   0  0  0  0  0  0
  -18.0299  -28.1393   22.8481 C   0  0  0  0  0  0
  -24.1491  -36.7285   23.2643 C   0  0  0  0  0  0
  -25.9714  -30.7787   21.3795 C   0  0  0  0  0  0
  -26.0457  -29.4042   20.7185 C   0  0  0  0  0  0
  -27.2234  -28.5943   20.7119 C   0  0  0  0  0  0
  -26.0243  -26.8800   19.4873 C   0  0  0  0  0  0
  -24.8661  -27.6791   19.4886 C   0  0  0  0  0  0
  -23.6453  -29.8197   20.1558 C   0  0  0  0  0  0
  -25.4120  -36.3086   24.0324 C   0  0  1  0  0  0
  -20.5911  -28.3701   23.1264 C   0  0  2  0  0  0
  -20.6775  -26.9404   22.5409 C   0  0  0  0  0  0
  -19.5747  -26.6367   21.5219 C   0  0  0  0  0  0
  -18.1932  -26.7940   22.1624 C   0  0  0  0  0  0
  -19.1552  -28.8858   23.2884 C   0  0  0  0  0  0
  -18.9472  -30.1448   23.8906 C   0  0  0  0  0  0
  -17.6468  -30.6593   24.0552 C   0  0  0  0  0  0
  -25.9047  -34.9449   23.5088 C   0  0  0  0  0  0
  -16.5358  -29.9080   23.6336 C   0  0  0  0  0  0
  -16.7278  -28.6509   23.0349 C   0  0  0  0  0  0
  -26.4487  -31.6619   25.0746 C   0  0  0  0  0  0
  -25.3687  -31.3778   26.1446 C   0  0  0  0  0  0
  -27.0337  -30.3039   24.6243 C   0  0  0  0  0  0
  -27.6053  -32.4348   25.7519 C   0  0  0  0  0  0
  -27.5586  -37.1808   24.8462 C   0  0  0  0  0  0
  -21.4212  -29.3052   22.3651 N   0  0  0  0  0  0
  -26.4297  -37.3783   23.9403 N   0  0  0  0  0  0
  -24.6936  -31.0561   22.0962 N   0  0  0  0  0  0
  -23.4226  -28.8128   23.2938 O   0  0  0  0  0  0
  -28.3347  -26.4234   20.1565 O   0  0  0  0  0  0
  -26.5618  -34.8916   22.4656 O   0  0  0  0  0  0
  -23.5445  -32.1365   23.7307 O   0  0  0  0  0  0
  -29.5222  -19.1320   19.2407 C   0  0  0  0  0  0
  -29.5410  -17.6731   19.2484 C   0  0  0  0  0  0
  -29.7878  -19.7550   20.4435 C   0  0  0  0  0  0
  -29.8553  -17.1066   20.4754 C   0  0  0  0  0  0
  -30.0017  -21.2288   20.8022 C   0  0  0  0  0  0
  -29.0999  -22.3828   20.1283 C   0  0  0  0  0  0
  -29.2933  -23.9730   20.2548 C   0  0  0  0  0  0
  -29.0888  -17.5876   16.7104 C   0  0  0  0  0  0
  -31.3114  -22.5838   22.3612 C   0  0  0  0  0  0
  -29.2253  -16.8223   18.0386 C   0  0  0  0  0  0
  -28.0900  -24.9592   19.9606 C   0  0  0  0  0  0
  -28.1433  -21.9650   19.4066 N   0  0  0  0  0  0
  -30.9476  -21.3702   21.6642 N   0  0  0  0  0  0
  -29.8275  -15.7577   20.8504 N   0  0  0  0  0  0
  -30.3870  -24.5022   20.4714 O   0  0  0  0  0  0
  -30.0775  -18.4471   21.6255 S   0  0  0  0  0  0
  -31.4815  -12.5599   19.1561 H   0  0  0  0  0  0
  -30.3891  -11.4237   19.9015 H   0  0  0  0  0  0
  -29.7837  -11.7854   17.4797 H   0  0  0  0  0  0
  -29.6601  -13.5031   17.7511 H   0  0  0  0  0  0
  -27.8606  -11.3117   18.8383 H   0  0  0  0  0  0
  -27.3826  -12.6175   17.7861 H   0  0  0  0  0  0
  -27.6593  -14.2631   19.5188 H   0  0  0  0  0  0
  -28.7191  -12.0789   21.3810 H   0  0  0  0  0  0
  -28.4456  -13.7380   21.8360 H   0  0  0  0  0  0
  -25.2778   -9.5719   22.4751 H   0  0  0  0  0  0
  -24.0060   -7.4639   22.7503 H   0  0  0  0  0  0
  -21.0823   -8.8747   19.9003 H   0  0  0  0  0  0
  -22.3662  -10.9662   19.6170 H   0  0  0  0  0  0
  -21.1930   -7.6148   23.9735 H   0  0  0  0  0  0
  -21.1529   -6.0518   25.9106 H   0  0  0  0  0  0
  -22.0568   -2.7605   23.2830 H   0  0  0  0  0  0
  -22.3993  -11.9943   22.4924 H   0  0  0  0  0  0
  -21.1055  -13.1336   22.2613 H   0  0  0  0  0  0
  -24.6267  -15.8237   20.5210 H   0  0  0  0  0  0
  -26.2506  -15.6564   20.0848 H   0  0  0  0  0  0
  -26.7191  -32.5441   23.1101 H   0  0  0  0  0  0
  -25.0076  -33.9723   25.0412 H   0  0  0  0  0  0
  -22.7220  -31.3047   21.3953 H   0  0  0  0  0  0
  -23.3757  -35.9613   23.3316 H   0  0  0  0  0  0
  -24.3580  -36.8891   22.2057 H   0  0  0  0  0  0
  -23.7233  -37.6482   23.6657 H   0  0  0  0  0  0
  -26.1101  -31.5442   20.6141 H   0  0  0  0  0  0
  -26.8491  -30.8227   22.0132 H   0  0  0  0  0  0
  -28.1198  -28.9469   21.2030 H   0  0  0  0  0  0
  -25.9463  -25.9227   18.9936 H   0  0  0  0  0  0
  -23.9671  -27.3139   19.0114 H   0  0  0  0  0  0
  -23.7760  -30.5954   19.4002 H   0  0  0  0  0  0
  -22.7653  -29.2547   19.8471 H   0  0  0  0  0  0
  -25.1309  -36.1931   25.0824 H   0  0  0  0  0  0
  -21.0022  -28.3264   24.1374 H   0  0  0  0  0  0
  -20.5637  -26.2304   23.3620 H   0  0  0  0  0  0
  -21.6637  -26.7387   22.1230 H   0  0  0  0  0  0
  -19.6887  -25.6266   21.1266 H   0  0  0  0  0  0
  -19.6696  -27.3155   20.6732 H   0  0  0  0  0  0
  -17.4198  -26.6687   21.4027 H   0  0  0  0  0  0
  -18.0320  -26.0087   22.9032 H   0  0  0  0  0  0
  -19.7936  -30.7269   24.2295 H   0  0  0  0  0  0
  -17.5011  -31.6280   24.5127 H   0  0  0  0  0  0
  -15.5352  -30.2975   23.7651 H   0  0  0  0  0  0
  -15.8688  -28.0817   22.7052 H   0  0  0  0  0  0
  -24.5858  -30.7149   25.7750 H   0  0  0  0  0  0
  -24.8880  -32.2948   26.4865 H   0  0  0  0  0  0
  -25.7961  -30.8941   27.0235 H   0  0  0  0  0  0
  -26.2937  -29.6805   24.1217 H   0  0  0  0  0  0
  -27.3953  -29.7309   25.4793 H   0  0  0  0  0  0
  -27.8843  -30.4333   23.9548 H   0  0  0  0  0  0
  -27.2689  -33.3648   26.2115 H   0  0  0  0  0  0
  -28.3864  -32.6898   25.0347 H   0  0  0  0  0  0
  -28.0723  -31.8454   26.5421 H   0  0  0  0  0  0
  -28.2601  -38.0113   24.7517 H   0  0  0  0  0  0
  -28.1086  -36.2639   24.6278 H   0  0  0  0  0  0
  -27.2307  -37.1449   25.8868 H   0  0  0  0  0  0
  -20.9365  -29.8839   21.6932 H   0  0  0  0  0  0
  -26.0175  -38.2852   24.1407 H   0  0  0  0  0  0
  -29.3316  -19.6861   18.3333 H   0  0  0  0  0  0
  -28.2364  -18.2670   16.7238 H   0  0  0  0  0  0
  -28.9324  -16.8955   15.8820 H   0  0  0  0  0  0
  -29.9864  -18.1670   16.4863 H   0  0  0  0  0  0
  -31.8287  -22.3368   23.2895 H   0  0  0  0  0  0
  -30.4470  -23.1800   22.6591 H   0  0  0  0  0  0
  -32.0109  -23.1829   21.7764 H   0  0  0  0  0  0
  -28.3025  -16.2665   18.2140 H   0  0  0  0  0  0
  -30.0023  -16.0671   17.9151 H   0  0  0  0  0  0
  -27.2573  -24.6458   20.5909 H   0  0  0  0  0  0
  -27.7908  -24.7912   18.9255 H   0  0  0  0  0  0
  -28.1228  -20.9517   19.4049 H   0  0  0  0  0  0
  -28.9775  -15.4770   21.3144 H   0  0  0  0  0  0
  1 25  1  0  0  0
  1 30  2  0  0  0
  1 84  1  0  0  0
  2  3  1  0  0  0
  2 25  1  0  0  0
  2 87  1  0  0  0
  2 88  1  0  0  0
  3  4  1  0  0  0
  3 89  1  0  0  0
  3 90  1  0  0  0
  4  5  1  0  0  0
  4 91  1  0  0  0
  4 92  1  0  0  0
  5  6  1  0  0  0
  5 26  1  0  0  0
  5 93  1  0  0  0
  6 25  1  0  0  0
  6 94  1  0  0  0
  6 95  1  0  0  0
  7  8  2  0  0  0
  7 26  1  0  0  0
  7 29  1  0  0  0
  8  9  1  0  0  0
  8 22  1  0  0  0
  9 10  1  0  0  0
  9 27  2  0  0  0
 10 11  2  0  0  0
 10 15  1  0  0  0
 11 12  1  0  0  0
 11 96  1  0  0  0
 12 13  2  0  0  0
 12 97  1  0  0  0
 13 14  1  0  0  0
 13 31  1  0  0  0
 14 15  2  0  0  0
 14 98  1  0  0  0
 15 99  1  0  0  0
 16 17  2  0  0  0
 16 21  1  0  0  0
 16 31  1  0  0  0
 17 18  1  0  0  0
 17100  1  0  0  0
 18 19  2  0  0  0
 18101  1  0  0  0
 19 20  1  0  0  0
 19 24  1  0  0  0
 20 21  2  0  0  0
 20102  1  0  0  0
 21 23  1  0  0  0
 22 28  1  0  0  0
 22 32  2  0  0  0
 26 27  1  0  0  0
 28103  1  0  0  0
 28104  1  0  0  0
 29105  1  0  0  0
 29106  1  0  0  0
 33 34  1  0  0  0
 33 66  1  0  0  0
 33 70  2  0  0  0
 34 36  1  0  0  0
 34 59  1  0  0  0
 34107  1  0  0  0
 35 44  2  0  0  0
 35 45  1  0  0  0
 35 68  1  0  0  0
 36 56  1  0  0  0
 36108  1  0  0  0
 37 39  1  0  0  0
 37 47  1  0  0  0
 37 66  1  0  0  0
 37109  1  0  0  0
 38 43  2  0  0  0
 38 46  1  0  0  0
 38 47  1  0  0  0
 39 64  1  0  0  0
 39 67  2  0  0  0
 40 52  1  0  0  0
 40 53  2  0  0  0
 40 58  1  0  0  0
 41110  1  0  0  0
 41111  1  0  0  0
 41112  1  0  0  0
 41 48  1  0  0  0
 42 43  1  0  0  0
 42 66  1  0  0  0
 42113  1  0  0  0
 42114  1  0  0  0
 43 44  1  0  0  0
 44115  1  0  0  0
 45 46  2  0  0  0
 45116  1  0  0  0
 46117  1  0  0  0
 47118  1  0  0  0
 47119  1  0  0  0
 48 56  1  0  0  0
 48 65  1  0  0  0
 48120  1  0  0  0
 49 50  1  0  0  0
 49 53  1  0  0  0
 49 64  1  0  0  0
 49121  1  0  0  0
 50 51  1  0  0  0
 50122  1  0  0  0
 50123  1  0  0  0
 51 52  1  0  0  0
 51124  1  0  0  0
 51125  1  0  0  0
 52126  1  0  0  0
 52127  1  0  0  0
 53 54  1  0  0  0
 54 55  2  0  0  0
 54128  1  0  0  0
 55 57  1  0  0  0
 55129  1  0  0  0
 56 69  2  0  0  0
 57 58  2  0  0  0
 57130  1  0  0  0
 58131  1  0  0  0
 59 60  1  0  0  0
 59 61  1  0  0  0
 59 62  1  0  0  0
 60132  1  0  0  0
 60133  1  0  0  0
 60134  1  0  0  0
 61135  1  0  0  0
 61136  1  0  0  0
 61137  1  0  0  0
 62138  1  0  0  0
 62139  1  0  0  0
 62140  1  0  0  0
 63 65  1  0  0  0
 63141  1  0  0  0
 63142  1  0  0  0
 63143  1  0  0  0
 64144  1  0  0  0
 65145  1  0  0  0
 68 81  1  0  0  0
 71 72  1  0  0  0
 71 73  2  0  0  0
 71146  1  0  0  0
 72 74  2  0  0  0
 72 80  1  0  0  0
 73 75  1  0  0  0
 73 86  1  0  0  0
 74 84  1  0  0  0
 74 86  1  0  0  0
 75 76  1  0  0  0
 75 83  2  0  0  0
 76 77  1  0  0  0
 76 82  2  0  0  0
 77 81  1  0  0  0
 77 85  2  0  0  0
 78 80  1  0  0  0
 78147  1  0  0  0
 78148  1  0  0  0
 78149  1  0  0  0
 79 83  1  0  0  0
 79150  1  0  0  0
 79151  1  0  0  0
 79152  1  0  0  0
 80153  1  0  0  0
 80154  1  0  0  0
 81155  1  0  0  0
 81156  1  0  0  0
 82157  1  0  0  0
 84158  1  0  0  0
M  ISO  4   1 100  68 101  81 101  84 100
M  END
> <chiral flag>
0

> <version>
0

> <s_m_source_file>
/data/baiqing/PycharmProjects/Reinvent-master-3.2/result/LINK_invent/BTK/process_docking_weight1_custom_product_contain_oxygen_bond_distance_aromatic_linkinvent_7_9_3/rearranged_h_0165.sdf

> <i_m_source_file_index>
9

> <r_mmod_Potential_Energy-OPLS-2005>
298.525390625

> <r_mmod_Stretch_Energy-OPLS-2005>
119.85865020752

> <r_mmod_Bend_Energy-OPLS-2005>
187.802032470703

> <r_mmod_Torsional_Energy-OPLS-2005>
256.291717529297

> <r_mmod_Improper_Torsional_Energy-OPLS-2005>
5.76936435699463

> <r_mmod_Van_der_Waal_Energy-OPLS-2005>
130.878784179688

> <r_mmod_Electrostatic_Energy-OPLS-2005>
-222.833236694336

> <r_mmod_Solvation_Energy-OPLS-2005>
-242.258361816406

> <b_mmod_Minimization_Converged-OPLS-2005>
0

> <r_mmod_RMS_Derivative-OPLS-2005>
3.41651844978333

$$$$
9
                    3D
 Structure written by MMmdl.
153161  0  0  1  0            999 V2000
  -30.7248  -14.5953   20.4921 C   0  0  0  0  0  0
  -30.4027  -12.3697   19.4457 C   0  0  0  0  0  0
  -29.4843  -12.4841   18.2129 C   0  0  0  0  0  0
  -28.0080  -12.3443   18.6304 C   0  0  0  0  0  0
  -27.6404  -13.2278   19.8518 C   0  0  2  0  0  0
  -28.6917  -13.1361   20.9793 C   0  0  0  0  0  0
  -25.2495  -13.8181   20.5695 C   0  0  0  0  0  0
  -24.1791  -13.0415   20.9194 C   0  0  0  0  0  0
  -24.6385  -11.6891   20.8791 C   0  0  0  0  0  0
  -23.9067  -10.4274   21.0419 C   0  0  0  0  0  0
  -24.3617   -9.4195   21.9200 C   0  0  0  0  0  0
  -23.6285   -8.2238   22.0769 C   0  0  0  0  0  0
  -22.4263   -8.0286   21.3545 C   0  0  0  0  0  0
  -21.9895   -9.0266   20.4650 C   0  0  0  0  0  0
  -22.7243  -10.2137   20.3066 C   0  0  0  0  0  0
  -21.6856   -6.0729   22.5286 C   0  0  0  0  0  0
  -21.4021   -6.5645   23.8215 C   0  0  0  0  0  0
  -21.3656   -5.6808   24.9184 C   0  0  0  0  0  0
  -21.6014   -4.3062   24.7237 C   0  0  0  0  0  0
  -21.8828   -3.8150   23.4368 C   0  0  0  0  0  0
  -21.9183   -4.6950   22.3417 C   0  0  0  0  0  0
  -22.7822  -13.5215   21.1845 C   0  0  0  0  0  0
  -22.1651   -4.2136   21.0991 F   0  0  0  0  0  0
  -21.5614   -3.4544   25.7747 F   0  0  0  0  0  0
  -29.9999  -13.4359   20.3870 N   0  0  0  0  0  0
  -26.2936  -12.9417   20.3336 N   0  0  0  0  0  0
  -25.9317  -11.6532   20.5796 N   0  0  0  0  0  0
  -22.0471  -12.8223   22.0419 N   0  0  0  0  0  0
  -25.4136  -15.1905   20.4113 N   0  0  0  0  0  0
  -31.9088  -14.5920   20.1470 O   0  0  0  0  0  0
  -21.6637   -6.8878   21.4244 O   0  0  0  0  0  0
  -22.3492  -14.5493   20.6653 O   0  0  0  0  0  0
  -24.6174  -31.8642   23.2072 C   0  0  0  0  0  0
  -25.9027  -32.4808   23.8405 C   0  0  1  0  0  0
  -27.2292  -27.3774   20.1310 C   0  0  0  0  0  0
  -25.5853  -33.8615   24.2309 N   0  0  0  0  0  0
  -23.4114  -30.4818   21.5484 C   0  0  2  0  0  0
  -24.8636  -28.9428   20.1127 C   0  0  0  0  0  0
  -22.7417  -29.4619   22.4988 C   0  0  0  0  0  0
  -18.0288  -28.1346   22.8477 C   0  0  0  0  0  0
  -24.1473  -36.7303   23.2650 C   0  0  0  0  0  0
  -25.9454  -30.8116   21.3729 C   0  0  0  0  0  0
  -26.0241  -29.4388   20.7256 C   0  0  0  0  0  0
  -27.2101  -28.6589   20.7403 C   0  0  0  0  0  0
  -26.0629  -26.9170   19.4940 C   0  0  0  0  0  0
  -24.8804  -27.6831   19.4887 C   0  0  0  0  0  0
  -23.6260  -29.8129   20.1628 C   0  0  0  0  0  0
  -25.4101  -36.3109   24.0344 C   0  0  1  0  0  0
  -20.5836  -28.3705   23.1320 C   0  0  2  0  0  0
  -20.6775  -26.9410   22.5422 C   0  0  0  0  0  0
  -19.5766  -26.6391   21.5179 C   0  0  0  0  0  0
  -18.1965  -26.7874   22.1620 C   0  0  0  0  0  0
  -19.1491  -28.8860   23.2867 C   0  0  0  0  0  0
  -18.9384  -30.1483   23.8823 C   0  0  0  0  0  0
  -17.6363  -30.6570   24.0482 C   0  0  0  0  0  0
  -25.9025  -34.9469   23.5129 C   0  0  0  0  0  0
  -16.5287  -29.8998   23.6242 C   0  0  0  0  0  0
  -16.7270  -28.6405   23.0294 C   0  0  0  0  0  0
  -26.4459  -31.6609   25.0732 C   0  0  0  0  0  0
  -25.3729  -31.3707   26.1476 C   0  0  0  0  0  0
  -27.0299  -30.3049   24.6119 C   0  0  0  0  0  0
  -27.6031  -32.4361   25.7481 C   0  0  0  0  0  0
  -27.5568  -37.1808   24.8474 C   0  0  0  0  0  0
  -21.4129  -29.3066   22.3720 N   0  0  0  0  0  0
  -26.4289  -37.3794   23.9410 N   0  0  0  0  0  0
  -24.6757  -31.0701   22.1008 N   0  0  0  0  0  0
  -23.4139  -28.8157   23.3085 O   0  0  0  0  0  0
  -28.3362  -26.5447   20.1063 O   0  0  0  0  0  0
  -26.5605  -34.8921   22.4695 O   0  0  0  0  0  0
  -23.5347  -32.1424   23.7392 O   0  0  0  0  0  0
  -28.6572  -20.2548   20.1696 C   0  0  0  0  0  0
  -28.8071  -18.8165   20.1065 C   0  0  0  0  0  0
  -29.9255  -18.3358   20.7765 C   0  0  0  0  0  0
  -29.6570  -20.9155   20.8322 C   0  0  0  0  0  0
  -30.6522  -16.9997   20.9399 C   0  0  0  0  0  0
  -28.6467  -24.4820   21.6029 C   0  0  0  0  0  0
  -29.0488  -23.4222   20.5310 C   0  0  0  0  0  0
  -28.7682  -26.0319   21.3873 C   0  0  0  0  0  0
  -27.8144  -18.0209   19.3122 C   0  0  0  0  0  0
  -29.8782  -22.2979   21.0627 N   0  0  0  0  0  0
  -30.0618  -15.7733   20.7410 N   0  0  0  0  0  0
  -31.8321  -17.0747   21.3006 O   0  0  0  0  0  0
  -28.2535  -24.0732   22.7021 O   0  0  0  0  0  0
  -26.5816  -18.4951   19.4788 F   0  0  0  0  0  0
  -28.0911  -18.0866   18.0109 F   0  0  0  0  0  0
  -27.7806  -16.7379   19.6583 F   0  0  0  0  0  0
  -30.7954  -19.7282   21.4466 S   0  0  0  0  0  0
  -31.4475  -12.4268   19.1370 H   0  0  0  0  0  0
  -30.2866  -11.3905   19.9126 H   0  0  0  0  0  0
  -29.7319  -11.7179   17.4769 H   0  0  0  0  0  0
  -29.6422  -13.4446   17.7210 H   0  0  0  0  0  0
  -27.8267  -11.2941   18.8597 H   0  0  0  0  0  0
  -27.3531  -12.5834   17.7916 H   0  0  0  0  0  0
  -27.6410  -14.2527   19.4843 H   0  0  0  0  0  0
  -28.6953  -12.1337   21.4114 H   0  0  0  0  0  0
  -28.4574  -13.8177   21.8004 H   0  0  0  0  0  0
  -25.2743   -9.5662   22.4791 H   0  0  0  0  0  0
  -23.9965   -7.4624   22.7488 H   0  0  0  0  0  0
  -21.0826   -8.8789   19.8973 H   0  0  0  0  0  0
  -22.3688  -10.9679   19.6190 H   0  0  0  0  0  0
  -21.2050   -7.6152   23.9723 H   0  0  0  0  0  0
  -21.1450   -6.0530   25.9080 H   0  0  0  0  0  0
  -22.0606   -2.7601   23.2877 H   0  0  0  0  0  0
  -22.4089  -11.9874   22.4797 H   0  0  0  0  0  0
  -21.1100  -13.1268   22.2647 H   0  0  0  0  0  0
  -24.6419  -15.8377   20.5206 H   0  0  0  0  0  0
  -26.2542  -15.6293   20.0585 H   0  0  0  0  0  0
  -26.7092  -32.5503   23.1183 H   0  0  0  0  0  0
  -24.9996  -33.9802   25.0438 H   0  0  0  0  0  0
  -22.6989  -31.2982   21.4036 H   0  0  0  0  0  0
  -23.3733  -35.9639   23.3339 H   0  0  0  0  0  0
  -24.3568  -36.8894   22.2060 H   0  0  0  0  0  0
  -23.7219  -37.6513   23.6646 H   0  0  0  0  0  0
  -26.0626  -31.5730   20.5999 H   0  0  0  0  0  0
  -26.8341  -30.8710   21.9886 H   0  0  0  0  0  0
  -28.1047  -29.0315   21.2214 H   0  0  0  0  0  0
  -26.0629  -25.9484   19.0152 H   0  0  0  0  0  0
  -23.9924  -27.2969   19.0083 H   0  0  0  0  0  0
  -23.7317  -30.5886   19.4052 H   0  0  0  0  0  0
  -22.7514  -29.2328   19.8615 H   0  0  0  0  0  0
  -25.1280  -36.1987   25.0843 H   0  0  0  0  0  0
  -20.9896  -28.3378   24.1484 H   0  0  0  0  0  0
  -20.5630  -26.2314   23.3624 H   0  0  0  0  0  0
  -21.6643  -26.7396   22.1252 H   0  0  0  0  0  0
  -19.6924  -25.6367   21.1036 H   0  0  0  0  0  0
  -19.6638  -27.3272   20.6762 H   0  0  0  0  0  0
  -17.4142  -26.6552   21.4132 H   0  0  0  0  0  0
  -18.0469  -26.0023   22.9055 H   0  0  0  0  0  0
  -19.7798  -30.7395   24.2141 H   0  0  0  0  0  0
  -17.4810  -31.6244   24.5041 H   0  0  0  0  0  0
  -15.5266  -30.2813   23.7558 H   0  0  0  0  0  0
  -15.8708  -28.0659   22.7028 H   0  0  0  0  0  0
  -24.5882  -30.7083   25.7805 H   0  0  0  0  0  0
  -24.8930  -32.2846   26.4981 H   0  0  0  0  0  0
  -25.8094  -30.8832   27.0201 H   0  0  0  0  0  0
  -26.2838  -29.6805   24.1188 H   0  0  0  0  0  0
  -27.4069  -29.7304   25.4592 H   0  0  0  0  0  0
  -27.8683  -30.4372   23.9283 H   0  0  0  0  0  0
  -27.2633  -33.3654   26.2083 H   0  0  0  0  0  0
  -28.3814  -32.6958   25.0286 H   0  0  0  0  0  0
  -28.0725  -31.8474   26.5373 H   0  0  0  0  0  0
  -28.2622  -38.0075   24.7494 H   0  0  0  0  0  0
  -28.1039  -36.2601   24.6347 H   0  0  0  0  0  0
  -27.2290  -37.1522   25.8888 H   0  0  0  0  0  0
  -20.9337  -29.8727   21.6867 H   0  0  0  0  0  0
  -26.0180  -38.2879   24.1411 H   0  0  0  0  0  0
  -27.8249  -20.7489   19.6890 H   0  0  0  0  0  0
  -29.5861  -23.9242   19.7263 H   0  0  0  0  0  0
  -28.1284  -23.0436   20.0874 H   0  0  0  0  0  0
  -29.8111  -26.3084   21.5357 H   0  0  0  0  0  0
  -28.2158  -26.5236   22.1903 H   0  0  0  0  0  0
  -30.7262  -22.5948   21.5428 H   0  0  0  0  0  0
  -29.0574  -15.7556   20.6843 H   0  0  0  0  0  0
  1 25  1  0  0  0
  1 30  2  0  0  0
  1 81  1  0  0  0
  2  3  1  0  0  0
  2 25  1  0  0  0
  2 88  1  0  0  0
  2 89  1  0  0  0
  3  4  1  0  0  0
  3 90  1  0  0  0
  3 91  1  0  0  0
  4  5  1  0  0  0
  4 92  1  0  0  0
  4 93  1  0  0  0
  5  6  1  0  0  0
  5 26  1  0  0  0
  5 94  1  0  0  0
  6 25  1  0  0  0
  6 95  1  0  0  0
  6 96  1  0  0  0
  7  8  2  0  0  0
  7 26  1  0  0  0
  7 29  1  0  0  0
  8  9  1  0  0  0
  8 22  1  0  0  0
  9 10  1  0  0  0
  9 27  2  0  0  0
 10 11  2  0  0  0
 10 15  1  0  0  0
 11 12  1  0  0  0
 11 97  1  0  0  0
 12 13  2  0  0  0
 12 98  1  0  0  0
 13 14  1  0  0  0
 13 31  1  0  0  0
 14 15  2  0  0  0
 14 99  1  0  0  0
 15100  1  0  0  0
 16 17  2  0  0  0
 16 21  1  0  0  0
 16 31  1  0  0  0
 17 18  1  0  0  0
 17101  1  0  0  0
 18 19  2  0  0  0
 18102  1  0  0  0
 19 20  1  0  0  0
 19 24  1  0  0  0
 20 21  2  0  0  0
 20103  1  0  0  0
 21 23  1  0  0  0
 22 28  1  0  0  0
 22 32  2  0  0  0
 26 27  1  0  0  0
 28104  1  0  0  0
 28105  1  0  0  0
 29106  1  0  0  0
 29107  1  0  0  0
 33 34  1  0  0  0
 33 66  1  0  0  0
 33 70  2  0  0  0
 34 36  1  0  0  0
 34 59  1  0  0  0
 34108  1  0  0  0
 35 44  2  0  0  0
 35 45  1  0  0  0
 35 68  1  0  0  0
 36 56  1  0  0  0
 36109  1  0  0  0
 37 39  1  0  0  0
 37 47  1  0  0  0
 37 66  1  0  0  0
 37110  1  0  0  0
 38 43  2  0  0  0
 38 46  1  0  0  0
 38 47  1  0  0  0
 39 64  1  0  0  0
 39 67  2  0  0  0
 40 52  1  0  0  0
 40 53  2  0  0  0
 40 58  1  0  0  0
 41111  1  0  0  0
 41112  1  0  0  0
 41113  1  0  0  0
 41 48  1  0  0  0
 42 43  1  0  0  0
 42 66  1  0  0  0
 42114  1  0  0  0
 42115  1  0  0  0
 43 44  1  0  0  0
 44116  1  0  0  0
 45 46  2  0  0  0
 45117  1  0  0  0
 46118  1  0  0  0
 47119  1  0  0  0
 47120  1  0  0  0
 48 56  1  0  0  0
 48 65  1  0  0  0
 48121  1  0  0  0
 49 50  1  0  0  0
 49 53  1  0  0  0
 49 64  1  0  0  0
 49122  1  0  0  0
 50 51  1  0  0  0
 50123  1  0  0  0
 50124  1  0  0  0
 51 52  1  0  0  0
 51125  1  0  0  0
 51126  1  0  0  0
 52127  1  0  0  0
 52128  1  0  0  0
 53 54  1  0  0  0
 54 55  2  0  0  0
 54129  1  0  0  0
 55 57  1  0  0  0
 55130  1  0  0  0
 56 69  2  0  0  0
 57 58  2  0  0  0
 57131  1  0  0  0
 58132  1  0  0  0
 59 60  1  0  0  0
 59 61  1  0  0  0
 59 62  1  0  0  0
 60133  1  0  0  0
 60134  1  0  0  0
 60135  1  0  0  0
 61136  1  0  0  0
 61137  1  0  0  0
 61138  1  0  0  0
 62139  1  0  0  0
 62140  1  0  0  0
 62141  1  0  0  0
 63 65  1  0  0  0
 63142  1  0  0  0
 63143  1  0  0  0
 63144  1  0  0  0
 64145  1  0  0  0
 65146  1  0  0  0
 68 78  1  0  0  0
 71 72  1  0  0  0
 71 74  2  0  0  0
 71147  1  0  0  0
 72 73  2  0  0  0
 72 79  1  0  0  0
 73 75  1  0  0  0
 73 87  1  0  0  0
 74 80  1  0  0  0
 74 87  1  0  0  0
 75 81  1  0  0  0
 75 82  2  0  0  0
 76 77  1  0  0  0
 76 78  1  0  0  0
 76 83  2  0  0  0
 77 80  1  0  0  0
 77148  1  0  0  0
 77149  1  0  0  0
 78150  1  0  0  0
 78151  1  0  0  0
 79 84  1  0  0  0
 79 85  1  0  0  0
 79 86  1  0  0  0
 80152  1  0  0  0
 81153  1  0  0  0
M  ISO  4   1 100  68 101  78 101  81 100
M  END
> <chiral flag>
0

> <version>
0

> <s_m_source_file>
/data/baiqing/PycharmProjects/Reinvent-master-3.2/result/LINK_invent/BTK/process_docking_weight1_custom_product_contain_oxygen_bond_distance_aromatic_linkinvent_7_9_3/rearranged_h_0165.sdf

> <i_m_source_file_index>
10

> <r_mmod_Potential_Energy-OPLS-2005>
-78.7125015258789

> <r_mmod_Stretch_Energy-OPLS-2005>
59.8193092346191

> <r_mmod_Bend_Energy-OPLS-2005>
147.344268798828

> <r_mmod_Torsional_Energy-OPLS-2005>
254.954452514648

> <r_mmod_Improper_Torsional_Energy-OPLS-2005>
6.32353591918945

> <r_mmod_Van_der_Waal_Energy-OPLS-2005>
132.713333129883

> <r_mmod_Electrostatic_Energy-OPLS-2005>
-471.827789306641

> <r_mmod_Solvation_Energy-OPLS-2005>
-246.768890380859

> <b_mmod_Minimization_Converged-OPLS-2005>
0

> <r_mmod_RMS_Derivative-OPLS-2005>
5.65508508682251

$$$$
10
                    3D
 Structure written by MMmdl.
155163  0  0  1  0            999 V2000
  -30.7134  -14.4893   20.5655 C   0  0  0  0  0  0
  -30.4180  -12.3161   19.4304 C   0  0  0  0  0  0
  -29.4942  -12.5016   18.2099 C   0  0  0  0  0  0
  -28.0165  -12.3594   18.6232 C   0  0  0  0  0  0
  -27.6587  -13.2109   19.8709 C   0  0  2  0  0  0
  -28.7011  -13.0196   20.9966 C   0  0  0  0  0  0
  -25.2578  -13.8168   20.5683 C   0  0  0  0  0  0
  -24.1836  -13.0442   20.9189 C   0  0  0  0  0  0
  -24.6394  -11.6909   20.8740 C   0  0  0  0  0  0
  -23.9061  -10.4294   21.0407 C   0  0  0  0  0  0
  -24.3614   -9.4210   21.9185 C   0  0  0  0  0  0
  -23.6291   -8.2244   22.0754 C   0  0  0  0  0  0
  -22.4273   -8.0282   21.3545 C   0  0  0  0  0  0
  -21.9908   -9.0255   20.4647 C   0  0  0  0  0  0
  -22.7234  -10.2136   20.3056 C   0  0  0  0  0  0
  -21.6854   -6.0736   22.5281 C   0  0  0  0  0  0
  -21.4013   -6.5640   23.8214 C   0  0  0  0  0  0
  -21.3658   -5.6792   24.9175 C   0  0  0  0  0  0
  -21.6044   -4.3055   24.7226 C   0  0  0  0  0  0
  -21.8819   -3.8147   23.4348 C   0  0  0  0  0  0
  -21.9193   -4.6964   22.3404 C   0  0  0  0  0  0
  -22.7859  -13.5242   21.1847 C   0  0  0  0  0  0
  -22.1663   -4.2150   21.0982 F   0  0  0  0  0  0
  -21.5628   -3.4539   25.7738 F   0  0  0  0  0  0
  -30.0298  -13.3176   20.4385 N   0  0  0  0  0  0
  -26.3012  -12.9345   20.3352 N   0  0  0  0  0  0
  -25.9322  -11.6502   20.5768 N   0  0  0  0  0  0
  -22.0494  -12.8234   22.0398 N   0  0  0  0  0  0
  -25.4296  -15.1886   20.4075 N   0  0  0  0  0  0
  -31.8439  -14.6362   20.0935 O   0  0  0  0  0  0
  -21.6639   -6.8878   21.4242 O   0  0  0  0  0  0
  -22.3550  -14.5551   20.6697 O   0  0  0  0  0  0
  -24.6160  -31.8668   23.2091 C   0  0  0  0  0  0
  -25.9046  -32.4816   23.8393 C   0  0  1  0  0  0
  -27.2303  -27.4242   20.1019 C   0  0  0  0  0  0
  -25.5897  -33.8614   24.2324 N   0  0  0  0  0  0
  -23.4054  -30.4905   21.5491 C   0  0  2  0  0  0
  -24.8538  -28.9578   20.1107 C   0  0  0  0  0  0
  -22.7424  -29.4651   22.4973 C   0  0  0  0  0  0
  -18.0275  -28.1378   22.8491 C   0  0  0  0  0  0
  -24.1485  -36.7312   23.2638 C   0  0  0  0  0  0
  -25.9357  -30.8312   21.3631 C   0  0  0  0  0  0
  -26.0155  -29.4658   20.7078 C   0  0  0  0  0  0
  -27.2113  -28.7077   20.6980 C   0  0  0  0  0  0
  -26.0568  -26.9378   19.4886 C   0  0  0  0  0  0
  -24.8703  -27.6944   19.4948 C   0  0  0  0  0  0
  -23.6150  -29.8242   20.1632 C   0  0  0  0  0  0
  -25.4105  -36.3107   24.0338 C   0  0  1  0  0  0
  -20.5869  -28.3665   23.1312 C   0  0  2  0  0  0
  -20.6763  -26.9399   22.5415 C   0  0  0  0  0  0
  -19.5741  -26.6387   21.5211 C   0  0  0  0  0  0
  -18.1921  -26.7926   22.1624 C   0  0  0  0  0  0
  -19.1526  -28.8838   23.2899 C   0  0  0  0  0  0
  -18.9452  -30.1445   23.8908 C   0  0  0  0  0  0
  -17.6452  -30.6582   24.0566 C   0  0  0  0  0  0
  -25.9032  -34.9471   23.5128 C   0  0  0  0  0  0
  -16.5343  -29.9083   23.6329 C   0  0  0  0  0  0
  -16.7264  -28.6503   23.0347 C   0  0  0  0  0  0
  -26.4472  -31.6594   25.0721 C   0  0  0  0  0  0
  -25.3741  -31.3698   26.1472 C   0  0  0  0  0  0
  -27.0299  -30.3035   24.6092 C   0  0  0  0  0  0
  -27.6050  -32.4310   25.7483 C   0  0  0  0  0  0
  -27.5579  -37.1810   24.8465 C   0  0  0  0  0  0
  -21.4149  -29.3031   22.3717 N   0  0  0  0  0  0
  -26.4291  -37.3791   23.9410 N   0  0  0  0  0  0
  -24.6708  -31.0765   22.0991 N   0  0  0  0  0  0
  -23.4193  -28.8188   23.3013 O   0  0  0  0  0  0
  -28.3508  -26.6214   20.1384 O   0  0  0  0  0  0
  -26.5596  -34.8922   22.4691 O   0  0  0  0  0  0
  -23.5349  -32.1415   23.7481 O   0  0  0  0  0  0
  -32.1820  -18.6015   21.5652 C   0  0  0  0  0  0
  -31.2181  -19.6262   21.5174 C   0  0  0  0  0  0
  -31.8001  -17.2539   21.4259 C   0  0  0  0  0  0
  -29.4780  -17.9467   21.1737 C   0  0  0  0  0  0
  -29.8554  -19.3128   21.3277 C   0  0  0  0  0  0
  -30.4434  -16.9016   21.2143 C   0  0  0  0  0  0
  -28.8533  -20.4007   21.3696 C   0  0  0  0  0  0
  -28.8076  -24.1648   20.4753 C   0  0  0  0  0  0
  -28.2174  -22.8419   21.0142 C   0  0  0  0  0  0
  -28.1623  -25.4713   20.9971 C   0  0  0  0  0  0
  -30.0237  -15.5293   21.0913 N   0  0  0  0  0  0
  -29.0937  -21.6400   20.8874 N   0  0  0  0  0  0
  -27.6782  -20.1655   21.9510 N   0  3  0  0  0  0
  -29.7644  -24.1618   19.6907 O   0  0  0  0  0  0
  -31.4634  -12.4028   19.1289 H   0  0  0  0  0  0
  -30.3121  -11.3111   19.8418 H   0  0  0  0  0  0
  -29.7378  -11.7704   17.4379 H   0  0  0  0  0  0
  -29.6607  -13.4837   17.7643 H   0  0  0  0  0  0
  -27.8329  -11.3046   18.8310 H   0  0  0  0  0  0
  -27.3644  -12.6209   17.7891 H   0  0  0  0  0  0
  -27.6949  -14.2544   19.5574 H   0  0  0  0  0  0
  -28.6803  -11.9927   21.3643 H   0  0  0  0  0  0
  -28.4622  -13.6435   21.8589 H   0  0  0  0  0  0
  -25.2761   -9.5686   22.4758 H   0  0  0  0  0  0
  -24.0002   -7.4636   22.7472 H   0  0  0  0  0  0
  -21.0841   -8.8772   19.8954 H   0  0  0  0  0  0
  -22.3693  -10.9673   19.6163 H   0  0  0  0  0  0
  -21.2004   -7.6147   23.9716 H   0  0  0  0  0  0
  -21.1479   -6.0523   25.9078 H   0  0  0  0  0  0
  -22.0599   -2.7609   23.2848 H   0  0  0  0  0  0
  -22.4101  -11.9891   22.4785 H   0  0  0  0  0  0
  -21.1112  -13.1263   22.2600 H   0  0  0  0  0  0
  -24.6576  -15.8396   20.5011 H   0  0  0  0  0  0
  -26.2712  -15.6223   20.0504 H   0  0  0  0  0  0
  -26.7119  -32.5529   23.1160 H   0  0  0  0  0  0
  -25.0055  -33.9774   25.0474 H   0  0  0  0  0  0
  -22.6947  -31.3079   21.4102 H   0  0  0  0  0  0
  -23.3741  -35.9653   23.3310 H   0  0  0  0  0  0
  -24.3579  -36.8915   22.2050 H   0  0  0  0  0  0
  -23.7243  -37.6523   23.6645 H   0  0  0  0  0  0
  -26.0488  -31.5982   20.5955 H   0  0  0  0  0  0
  -26.8233  -30.8844   21.9820 H   0  0  0  0  0  0
  -28.1061  -29.0902   21.1689 H   0  0  0  0  0  0
  -26.0560  -25.9648   19.0172 H   0  0  0  0  0  0
  -23.9785  -27.2991   19.0279 H   0  0  0  0  0  0
  -23.7229  -30.5999   19.4042 H   0  0  0  0  0  0
  -22.7390  -29.2442   19.8669 H   0  0  0  0  0  0
  -25.1281  -36.1975   25.0832 H   0  0  0  0  0  0
  -20.9966  -28.3230   24.1430 H   0  0  0  0  0  0
  -20.5663  -26.2270   23.3600 H   0  0  0  0  0  0
  -21.6633  -26.7439   22.1210 H   0  0  0  0  0  0
  -19.6898  -25.6302   21.1228 H   0  0  0  0  0  0
  -19.6679  -27.3209   20.6750 H   0  0  0  0  0  0
  -17.4192  -26.6677   21.4025 H   0  0  0  0  0  0
  -18.0320  -26.0064   22.9018 H   0  0  0  0  0  0
  -19.7927  -30.7262   24.2280 H   0  0  0  0  0  0
  -17.5007  -31.6263   24.5166 H   0  0  0  0  0  0
  -15.5344  -30.2987   23.7646 H   0  0  0  0  0  0
  -15.8665  -28.0828   22.7050 H   0  0  0  0  0  0
  -24.5910  -30.7048   25.7813 H   0  0  0  0  0  0
  -24.8935  -32.2852   26.4937 H   0  0  0  0  0  0
  -25.8099  -30.8858   27.0221 H   0  0  0  0  0  0
  -26.2840  -29.6800   24.1149 H   0  0  0  0  0  0
  -27.4072  -29.7267   25.4546 H   0  0  0  0  0  0
  -27.8675  -30.4354   23.9238 H   0  0  0  0  0  0
  -27.2676  -33.3600   26.2091 H   0  0  0  0  0  0
  -28.3847  -32.6883   25.0302 H   0  0  0  0  0  0
  -28.0733  -31.8413   26.5373 H   0  0  0  0  0  0
  -28.2605  -38.0101   24.7510 H   0  0  0  0  0  0
  -28.1067  -36.2632   24.6293 H   0  0  0  0  0  0
  -27.2299  -37.1470   25.8870 H   0  0  0  0  0  0
  -20.9308  -29.8758   21.6943 H   0  0  0  0  0  0
  -26.0179  -38.2870   24.1408 H   0  0  0  0  0  0
  -33.2221  -18.8470   21.7281 H   0  0  0  0  0  0
  -31.5317  -20.6518   21.6586 H   0  0  0  0  0  0
  -32.5716  -16.5020   21.5002 H   0  0  0  0  0  0
  -28.4358  -17.6989   21.0286 H   0  0  0  0  0  0
  -27.2778  -22.6598   20.4916 H   0  0  0  0  0  0
  -27.9689  -22.9931   22.0655 H   0  0  0  0  0  0
  -28.5970  -25.6973   21.9706 H   0  0  0  0  0  0
  -27.1050  -25.2717   21.1758 H   0  0  0  0  0  0
  -29.0666  -15.3254   21.3333 H   0  0  0  0  0  0
  -29.9575  -21.7983   20.3795 H   0  0  0  0  0  0
  -27.5254  -19.2734   22.3966 H   0  0  0  0  0  0
  -26.9394  -20.8458   21.9841 H   0  0  0  0  0  0
  1 25  1  0  0  0
  1 30  2  0  0  0
  1 81  1  0  0  0
  2  3  1  0  0  0
  2 25  1  0  0  0
  2 85  1  0  0  0
  2 86  1  0  0  0
  3  4  1  0  0  0
  3 87  1  0  0  0
  3 88  1  0  0  0
  4  5  1  0  0  0
  4 89  1  0  0  0
  4 90  1  0  0  0
  5  6  1  0  0  0
  5 26  1  0  0  0
  5 91  1  0  0  0
  6 25  1  0  0  0
  6 92  1  0  0  0
  6 93  1  0  0  0
  7  8  2  0  0  0
  7 26  1  0  0  0
  7 29  1  0  0  0
  8  9  1  0  0  0
  8 22  1  0  0  0
  9 10  1  0  0  0
  9 27  2  0  0  0
 10 11  2  0  0  0
 10 15  1  0  0  0
 11 12  1  0  0  0
 11 94  1  0  0  0
 12 13  2  0  0  0
 12 95  1  0  0  0
 13 14  1  0  0  0
 13 31  1  0  0  0
 14 15  2  0  0  0
 14 96  1  0  0  0
 15 97  1  0  0  0
 16 17  2  0  0  0
 16 21  1  0  0  0
 16 31  1  0  0  0
 17 18  1  0  0  0
 17 98  1  0  0  0
 18 19  2  0  0  0
 18 99  1  0  0  0
 19 20  1  0  0  0
 19 24  1  0  0  0
 20 21  2  0  0  0
 20100  1  0  0  0
 21 23  1  0  0  0
 22 28  1  0  0  0
 22 32  2  0  0  0
 26 27  1  0  0  0
 28101  1  0  0  0
 28102  1  0  0  0
 29103  1  0  0  0
 29104  1  0  0  0
 33 34  1  0  0  0
 33 66  1  0  0  0
 33 70  2  0  0  0
 34 36  1  0  0  0
 34 59  1  0  0  0
 34105  1  0  0  0
 35 44  2  0  0  0
 35 45  1  0  0  0
 35 68  1  0  0  0
 36 56  1  0  0  0
 36106  1  0  0  0
 37 39  1  0  0  0
 37 47  1  0  0  0
 37 66  1  0  0  0
 37107  1  0  0  0
 38 43  2  0  0  0
 38 46  1  0  0  0
 38 47  1  0  0  0
 39 64  1  0  0  0
 39 67  2  0  0  0
 40 52  1  0  0  0
 40 53  2  0  0  0
 40 58  1  0  0  0
 41108  1  0  0  0
 41109  1  0  0  0
 41110  1  0  0  0
 41 48  1  0  0  0
 42 43  1  0  0  0
 42 66  1  0  0  0
 42111  1  0  0  0
 42112  1  0  0  0
 43 44  1  0  0  0
 44113  1  0  0  0
 45 46  2  0  0  0
 45114  1  0  0  0
 46115  1  0  0  0
 47116  1  0  0  0
 47117  1  0  0  0
 48 56  1  0  0  0
 48 65  1  0  0  0
 48118  1  0  0  0
 49 50  1  0  0  0
 49 53  1  0  0  0
 49 64  1  0  0  0
 49119  1  0  0  0
 50 51  1  0  0  0
 50120  1  0  0  0
 50121  1  0  0  0
 51 52  1  0  0  0
 51122  1  0  0  0
 51123  1  0  0  0
 52124  1  0  0  0
 52125  1  0  0  0
 53 54  1  0  0  0
 54 55  2  0  0  0
 54126  1  0  0  0
 55 57  1  0  0  0
 55127  1  0  0  0
 56 69  2  0  0  0
 57 58  2  0  0  0
 57128  1  0  0  0
 58129  1  0  0  0
 59 60  1  0  0  0
 59 61  1  0  0  0
 59 62  1  0  0  0
 60130  1  0  0  0
 60131  1  0  0  0
 60132  1  0  0  0
 61133  1  0  0  0
 61134  1  0  0  0
 61135  1  0  0  0
 62136  1  0  0  0
 62137  1  0  0  0
 62138  1  0  0  0
 63 65  1  0  0  0
 63139  1  0  0  0
 63140  1  0  0  0
 63141  1  0  0  0
 64142  1  0  0  0
 65143  1  0  0  0
 68 80  1  0  0  0
 71 72  2  0  0  0
 71 73  1  0  0  0
 71144  1  0  0  0
 72 75  1  0  0  0
 72145  1  0  0  0
 73 76  2  0  0  0
 73146  1  0  0  0
 74 75  2  0  0  0
 74 76  1  0  0  0
 74147  1  0  0  0
 75 77  1  0  0  0
 76 81  1  0  0  0
 77 82  1  0  0  0
 77 83  2  0  0  0
 78 79  1  0  0  0
 78 80  1  0  0  0
 78 84  2  0  0  0
 79 82  1  0  0  0
 79148  1  0  0  0
 79149  1  0  0  0
 80150  1  0  0  0
 80151  1  0  0  0
 81152  1  0  0  0
 82153  1  0  0  0
 83154  1  0  0  0
 83155  1  0  0  0
M  CHG  1  83   1
M  ISO  4   1 100  68 101  80 101  81 100
M  END
> <chiral flag>
0

> <version>
0

> <s_m_source_file>
/data/baiqing/PycharmProjects/Reinvent-master-3.2/result/LINK_invent/BTK/process_docking_weight1_custom_product_contain_oxygen_bond_distance_aromatic_linkinvent_7_9_3/rearranged_h_0165.sdf

> <i_m_source_file_index>
11

> <r_mmod_Potential_Energy-OPLS-2005>
-318.435882568359

> <r_mmod_Stretch_Energy-OPLS-2005>
42.6956825256348

> <r_mmod_Bend_Energy-OPLS-2005>
94.7338104248047

> <r_mmod_Torsional_Energy-OPLS-2005>
233.518249511719

> <r_mmod_Improper_Torsional_Energy-OPLS-2005>
4.15099143981934

> <r_mmod_Van_der_Waal_Energy-OPLS-2005>
156.131591796875

> <r_mmod_Electrostatic_Energy-OPLS-2005>
-417.137176513672

> <r_mmod_Solvation_Energy-OPLS-2005>
-449.292572021484

> <b_mmod_Minimization_Converged-OPLS-2005>
0

> <r_mmod_RMS_Derivative-OPLS-2005>
0.422327429056168

$$$$
11
                    3D
 Structure written by MMmdl.
154162  0  0  1  0            999 V2000
  -30.6494  -14.5984   20.4715 C   0  0  0  0  0  0
  -30.4266  -12.3607   19.4533 C   0  0  0  0  0  0
  -29.5026  -12.4904   18.2227 C   0  0  0  0  0  0
  -28.0239  -12.3434   18.6324 C   0  0  0  0  0  0
  -27.6508  -13.2173   19.8595 C   0  0  2  0  0  0
  -28.6937  -13.0807   20.9917 C   0  0  0  0  0  0
  -25.2556  -13.8183   20.5673 C   0  0  0  0  0  0
  -24.1824  -13.0449   20.9190 C   0  0  0  0  0  0
  -24.6387  -11.6917   20.8731 C   0  0  0  0  0  0
  -23.9057  -10.4297   21.0392 C   0  0  0  0  0  0
  -24.3609   -9.4217   21.9176 C   0  0  0  0  0  0
  -23.6291   -8.2248   22.0749 C   0  0  0  0  0  0
  -22.4272   -8.0282   21.3542 C   0  0  0  0  0  0
  -21.9899   -9.0256   20.4647 C   0  0  0  0  0  0
  -22.7222  -10.2139   20.3054 C   0  0  0  0  0  0
  -21.6859   -6.0729   22.5273 C   0  0  0  0  0  0
  -21.4016   -6.5636   23.8204 C   0  0  0  0  0  0
  -21.3658   -5.6791   24.9166 C   0  0  0  0  0  0
  -21.6043   -4.3055   24.7218 C   0  0  0  0  0  0
  -21.8820   -3.8144   23.4341 C   0  0  0  0  0  0
  -21.9197   -4.6957   22.3397 C   0  0  0  0  0  0
  -22.7847  -13.5242   21.1852 C   0  0  0  0  0  0
  -22.1665   -4.2142   21.0974 F   0  0  0  0  0  0
  -21.5630   -3.4542   25.7731 F   0  0  0  0  0  0
  -30.0135  -13.3906   20.4258 N   0  0  0  0  0  0
  -26.2976  -12.9361   20.3298 N   0  0  0  0  0  0
  -25.9316  -11.6518   20.5752 N   0  0  0  0  0  0
  -22.0491  -12.8230   22.0404 N   0  0  0  0  0  0
  -25.4273  -15.1906   20.4073 N   0  0  0  0  0  0
  -31.8374  -14.7135   20.1561 O   0  0  0  0  0  0
  -21.6643   -6.8873   21.4235 O   0  0  0  0  0  0
  -22.3530  -14.5547   20.6701 O   0  0  0  0  0  0
  -24.6239  -31.8622   23.2050 C   0  0  0  0  0  0
  -25.9102  -32.4788   23.8365 C   0  0  1  0  0  0
  -27.2256  -27.3573   20.0957 C   0  0  0  0  0  0
  -25.5929  -33.8583   24.2290 N   0  0  0  0  0  0
  -23.4152  -30.4862   21.5482 C   0  0  2  0  0  0
  -24.8599  -28.9468   20.1109 C   0  0  0  0  0  0
  -22.7472  -29.4627   22.4964 C   0  0  0  0  0  0
  -18.0284  -28.1392   22.8486 C   0  0  0  0  0  0
  -24.1492  -36.7300   23.2638 C   0  0  0  0  0  0
  -25.9533  -30.8027   21.3713 C   0  0  0  0  0  0
  -26.0280  -29.4337   20.7120 C   0  0  0  0  0  0
  -27.2144  -28.6465   20.7020 C   0  0  0  0  0  0
  -26.0274  -26.9037   19.4972 C   0  0  0  0  0  0
  -24.8578  -27.6841   19.4992 C   0  0  0  0  0  0
  -23.6271  -29.8236   20.1620 C   0  0  0  0  0  0
  -25.4108  -36.3081   24.0334 C   0  0  1  0  0  0
  -20.5881  -28.3682   23.1301 C   0  0  2  0  0  0
  -20.6769  -26.9409   22.5414 C   0  0  0  0  0  0
  -19.5744  -26.6390   21.5210 C   0  0  0  0  0  0
  -18.1924  -26.7936   22.1621 C   0  0  0  0  0  0
  -19.1534  -28.8855   23.2889 C   0  0  0  0  0  0
  -18.9451  -30.1460   23.8900 C   0  0  0  0  0  0
  -17.6449  -30.6594   24.0557 C   0  0  0  0  0  0
  -25.9047  -34.9453   23.5110 C   0  0  0  0  0  0
  -16.5344  -29.9087   23.6332 C   0  0  0  0  0  0
  -16.7269  -28.6508   23.0349 C   0  0  0  0  0  0
  -26.4492  -31.6594   25.0727 C   0  0  0  0  0  0
  -25.3737  -31.3735   26.1467 C   0  0  0  0  0  0
  -27.0318  -30.3018   24.6164 C   0  0  0  0  0  0
  -27.6063  -32.4324   25.7490 C   0  0  0  0  0  0
  -27.5583  -37.1797   24.8461 C   0  0  0  0  0  0
  -21.4190  -29.3033   22.3707 N   0  0  0  0  0  0
  -26.4287  -37.3772   23.9414 N   0  0  0  0  0  0
  -24.6827  -31.0663   22.0985 N   0  0  0  0  0  0
  -23.4215  -28.8164   23.3026 O   0  0  0  0  0  0
  -28.3362  -26.5122   20.1436 O   0  0  0  0  0  0
  -26.5611  -34.8923   22.4671 O   0  0  0  0  0  0
  -23.5412  -32.1409   23.7399 O   0  0  0  0  0  0
  -30.2694  -19.5322   18.7379 C   0  0  0  0  0  0
  -30.6118  -18.3370   18.0798 C   0  0  0  0  0  0
  -29.6051  -18.2314   20.6899 C   0  0  0  0  0  0
  -29.7339  -19.5149   20.0458 C   0  0  0  0  0  0
  -30.0049  -17.0045   20.0517 C   0  0  0  0  0  0
  -30.4689  -17.0896   18.7116 C   0  0  0  0  0  0
  -28.5125  -25.5932   19.1145 C   0  0  0  0  0  0
  -29.3770  -20.8344   20.6861 C   0  0  0  0  0  0
  -28.7473  -24.2403   19.1323 C   0  0  0  0  0  0
  -28.8802  -23.3538   20.3118 C   0  0  0  0  0  0
  -29.8731  -15.7007   20.6949 N   0  0  0  0  0  0
  -29.1327  -21.9581   19.9391 N   0  0  0  0  0  0
  -29.3438  -20.8963   22.0210 N   0  3  0  0  0  0
  -28.8121  -23.6897   21.4990 O   0  0  0  0  0  0
  -28.8687  -23.6331   17.9373 O   0  0  0  0  0  0
  -30.7376  -15.9774   17.9852 F   0  0  0  0  0  0
  -31.4707  -12.4662   19.1516 H   0  0  0  0  0  0
  -30.3436  -11.3675   19.8971 H   0  0  0  0  0  0
  -29.7587  -11.7362   17.4776 H   0  0  0  0  0  0
  -29.6574  -13.4576   17.7422 H   0  0  0  0  0  0
  -27.8494  -11.2919   18.8635 H   0  0  0  0  0  0
  -27.3734  -12.5798   17.7896 H   0  0  0  0  0  0
  -27.6681  -14.2503   19.5114 H   0  0  0  0  0  0
  -28.6920  -12.0683   21.3996 H   0  0  0  0  0  0
  -28.4518  -13.7417   21.8255 H   0  0  0  0  0  0
  -25.2752   -9.5702   22.4752 H   0  0  0  0  0  0
  -24.0006   -7.4638   22.7469 H   0  0  0  0  0  0
  -21.0829   -8.8775   19.8956 H   0  0  0  0  0  0
  -22.3670  -10.9679   19.6171 H   0  0  0  0  0  0
  -21.2010   -7.6143   23.9703 H   0  0  0  0  0  0
  -21.1480   -6.0519   25.9067 H   0  0  0  0  0  0
  -22.0600   -2.7608   23.2840 H   0  0  0  0  0  0
  -22.4104  -11.9892   22.4794 H   0  0  0  0  0  0
  -21.1119  -13.1270   22.2630 H   0  0  0  0  0  0
  -24.6592  -15.8452   20.5085 H   0  0  0  0  0  0
  -26.2735  -15.6261   20.0633 H   0  0  0  0  0  0
  -26.7170  -32.5466   23.1117 H   0  0  0  0  0  0
  -25.0096  -33.9714   25.0451 H   0  0  0  0  0  0
  -22.7061  -31.3049   21.4081 H   0  0  0  0  0  0
  -23.3749  -35.9638   23.3289 H   0  0  0  0  0  0
  -24.3594  -36.8929   22.2057 H   0  0  0  0  0  0
  -23.7268  -37.6509   23.6662 H   0  0  0  0  0  0
  -26.0819  -31.5681   20.6045 H   0  0  0  0  0  0
  -26.8354  -30.8499   21.9981 H   0  0  0  0  0  0
  -28.1125  -29.0109   21.1810 H   0  0  0  0  0  0
  -25.9724  -25.9230   19.0463 H   0  0  0  0  0  0
  -23.9570  -27.2991   19.0408 H   0  0  0  0  0  0
  -23.7448  -30.6008   19.4062 H   0  0  0  0  0  0
  -22.7477  -29.2528   19.8589 H   0  0  0  0  0  0
  -25.1290  -36.1917   25.0826 H   0  0  0  0  0  0
  -20.9961  -28.3239   24.1427 H   0  0  0  0  0  0
  -20.5669  -26.2285   23.3605 H   0  0  0  0  0  0
  -21.6639  -26.7447   22.1200 H   0  0  0  0  0  0
  -19.6904  -25.6297   21.1250 H   0  0  0  0  0  0
  -19.6693  -27.3193   20.6731 H   0  0  0  0  0  0
  -17.4195  -26.6684   21.4025 H   0  0  0  0  0  0
  -18.0327  -26.0085   22.9024 H   0  0  0  0  0  0
  -19.7923  -30.7276   24.2283 H   0  0  0  0  0  0
  -17.5000  -31.6273   24.5156 H   0  0  0  0  0  0
  -15.5340  -30.2974   23.7674 H   0  0  0  0  0  0
  -15.8670  -28.0825   22.7063 H   0  0  0  0  0  0
  -24.5898  -30.7096   25.7807 H   0  0  0  0  0  0
  -24.8941  -32.2904   26.4902 H   0  0  0  0  0  0
  -25.8072  -30.8910   27.0238 H   0  0  0  0  0  0
  -26.2873  -29.6786   24.1197 H   0  0  0  0  0  0
  -27.4031  -29.7259   25.4654 H   0  0  0  0  0  0
  -27.8744  -30.4299   23.9365 H   0  0  0  0  0  0
  -27.2676  -33.3616   26.2082 H   0  0  0  0  0  0
  -28.3863  -32.6901   25.0313 H   0  0  0  0  0  0
  -28.0748  -31.8452   26.5395 H   0  0  0  0  0  0
  -28.2584  -38.0108   24.7507 H   0  0  0  0  0  0
  -28.1096  -36.2640   24.6267 H   0  0  0  0  0  0
  -27.2313  -37.1430   25.8867 H   0  0  0  0  0  0
  -20.9376  -29.8771   21.6925 H   0  0  0  0  0  0
  -26.0170  -38.2852   24.1396 H   0  0  0  0  0  0
  -30.4176  -20.4598   18.2039 H   0  0  0  0  0  0
  -30.9810  -18.3713   17.0655 H   0  0  0  0  0  0
  -29.2070  -18.1835   21.6934 H   0  0  0  0  0  0
  -28.4352  -26.1107   18.1672 H   0  0  0  0  0  0
  -28.9930  -15.5264   21.1536 H   0  0  0  0  0  0
  -29.1510  -21.7629   18.9503 H   0  0  0  0  0  0
  -29.5742  -20.0917   22.5814 H   0  0  0  0  0  0
  -29.1285  -21.7759   22.4700 H   0  0  0  0  0  0
  -28.7652  -24.2946   17.2655 H   0  0  0  0  0  0
  1 25  1  0  0  0
  1 30  2  0  0  0
  1 81  1  0  0  0
  2  3  1  0  0  0
  2 25  1  0  0  0
  2 87  1  0  0  0
  2 88  1  0  0  0
  3  4  1  0  0  0
  3 89  1  0  0  0
  3 90  1  0  0  0
  4  5  1  0  0  0
  4 91  1  0  0  0
  4 92  1  0  0  0
  5  6  1  0  0  0
  5 26  1  0  0  0
  5 93  1  0  0  0
  6 25  1  0  0  0
  6 94  1  0  0  0
  6 95  1  0  0  0
  7  8  2  0  0  0
  7 26  1  0  0  0
  7 29  1  0  0  0
  8  9  1  0  0  0
  8 22  1  0  0  0
  9 10  1  0  0  0
  9 27  2  0  0  0
 10 11  2  0  0  0
 10 15  1  0  0  0
 11 12  1  0  0  0
 11 96  1  0  0  0
 12 13  2  0  0  0
 12 97  1  0  0  0
 13 14  1  0  0  0
 13 31  1  0  0  0
 14 15  2  0  0  0
 14 98  1  0  0  0
 15 99  1  0  0  0
 16 17  2  0  0  0
 16 21  1  0  0  0
 16 31  1  0  0  0
 17 18  1  0  0  0
 17100  1  0  0  0
 18 19  2  0  0  0
 18101  1  0  0  0
 19 20  1  0  0  0
 19 24  1  0  0  0
 20 21  2  0  0  0
 20102  1  0  0  0
 21 23  1  0  0  0
 22 28  1  0  0  0
 22 32  2  0  0  0
 26 27  1  0  0  0
 28103  1  0  0  0
 28104  1  0  0  0
 29105  1  0  0  0
 29106  1  0  0  0
 33 34  1  0  0  0
 33 66  1  0  0  0
 33 70  2  0  0  0
 34 36  1  0  0  0
 34 59  1  0  0  0
 34107  1  0  0  0
 35 44  2  0  0  0
 35 45  1  0  0  0
 35 68  1  0  0  0
 36 56  1  0  0  0
 36108  1  0  0  0
 37 39  1  0  0  0
 37 47  1  0  0  0
 37 66  1  0  0  0
 37109  1  0  0  0
 38 43  2  0  0  0
 38 46  1  0  0  0
 38 47  1  0  0  0
 39 64  1  0  0  0
 39 67  2  0  0  0
 40 52  1  0  0  0
 40 53  2  0  0  0
 40 58  1  0  0  0
 41110  1  0  0  0
 41111  1  0  0  0
 41112  1  0  0  0
 41 48  1  0  0  0
 42 43  1  0  0  0
 42 66  1  0  0  0
 42113  1  0  0  0
 42114  1  0  0  0
 43 44  1  0  0  0
 44115  1  0  0  0
 45 46  2  0  0  0
 45116  1  0  0  0
 46117  1  0  0  0
 47118  1  0  0  0
 47119  1  0  0  0
 48 56  1  0  0  0
 48 65  1  0  0  0
 48120  1  0  0  0
 49 50  1  0  0  0
 49 53  1  0  0  0
 49 64  1  0  0  0
 49121  1  0  0  0
 50 51  1  0  0  0
 50122  1  0  0  0
 50123  1  0  0  0
 51 52  1  0  0  0
 51124  1  0  0  0
 51125  1  0  0  0
 52126  1  0  0  0
 52127  1  0  0  0
 53 54  1  0  0  0
 54 55  2  0  0  0
 54128  1  0  0  0
 55 57  1  0  0  0
 55129  1  0  0  0
 56 69  2  0  0  0
 57 58  2  0  0  0
 57130  1  0  0  0
 58131  1  0  0  0
 59 60  1  0  0  0
 59 61  1  0  0  0
 59 62  1  0  0  0
 60132  1  0  0  0
 60133  1  0  0  0
 60134  1  0  0  0
 61135  1  0  0  0
 61136  1  0  0  0
 61137  1  0  0  0
 62138  1  0  0  0
 62139  1  0  0  0
 62140  1  0  0  0
 63 65  1  0  0  0
 63141  1  0  0  0
 63142  1  0  0  0
 63143  1  0  0  0
 64144  1  0  0  0
 65145  1  0  0  0
 68 77  1  0  0  0
 71 72  2  0  0  0
 71 74  1  0  0  0
 71146  1  0  0  0
 72 76  1  0  0  0
 72147  1  0  0  0
 73 74  2  0  0  0
 73 75  1  0  0  0
 73148  1  0  0  0
 74 78  1  0  0  0
 75 76  2  0  0  0
 75 81  1  0  0  0
 76 86  1  0  0  0
 77 79  2  0  0  0
 77149  1  0  0  0
 78 82  1  0  0  0
 78 83  2  0  0  0
 79 80  1  0  0  0
 79 85  1  0  0  0
 80 82  1  0  0  0
 80 84  2  0  0  0
 81150  1  0  0  0
 82151  1  0  0  0
 83152  1  0  0  0
 83153  1  0  0  0
 85154  1  0  0  0
M  CHG  1  83   1
M  ISO  4   1 100  68 101  77 101  81 100
M  END
> <chiral flag>
0

> <version>
0

> <s_m_source_file>
/data/baiqing/PycharmProjects/Reinvent-master-3.2/result/LINK_invent/BTK/process_docking_weight1_custom_product_contain_oxygen_bond_distance_aromatic_linkinvent_7_9_3/rearranged_h_0165.sdf

> <i_m_source_file_index>
12

> <r_mmod_Potential_Energy-OPLS-2005>
-320.49951171875

> <r_mmod_Stretch_Energy-OPLS-2005>
65.0968475341797

> <r_mmod_Bend_Energy-OPLS-2005>
139.005844116211

> <r_mmod_Torsional_Energy-OPLS-2005>
225.087387084961

> <r_mmod_Improper_Torsional_Energy-OPLS-2005>
5.57445478439331

> <r_mmod_Van_der_Waal_Energy-OPLS-2005>
165.346160888672

> <r_mmod_Electrostatic_Energy-OPLS-2005>
-500.657531738281

> <r_mmod_Solvation_Energy-OPLS-2005>
-459.197662353516

> <b_mmod_Minimization_Converged-OPLS-2005>
0

> <r_mmod_RMS_Derivative-OPLS-2005>
1.16175127029419

$$$$
12
                    3D
 Structure written by MMmdl.
156164  0  0  1  0            999 V2000
  -30.5949  -14.6386   20.5364 C   0  0  0  0  0  0
  -30.4525  -12.3968   19.4477 C   0  0  0  0  0  0
  -29.5110  -12.5172   18.2275 C   0  0  0  0  0  0
  -28.0347  -12.3420   18.6421 C   0  0  0  0  0  0
  -27.6615  -13.2048   19.8760 C   0  0  2  0  0  0
  -28.7061  -13.0213   21.0006 C   0  0  0  0  0  0
  -25.2583  -13.8142   20.5638 C   0  0  0  0  0  0
  -24.1836  -13.0427   20.9148 C   0  0  0  0  0  0
  -24.6388  -11.6896   20.8735 C   0  0  0  0  0  0
  -23.9051  -10.4285   21.0390 C   0  0  0  0  0  0
  -24.3607   -9.4202   21.9162 C   0  0  0  0  0  0
  -23.6281   -8.2239   22.0737 C   0  0  0  0  0  0
  -22.4266   -8.0269   21.3526 C   0  0  0  0  0  0
  -21.9901   -9.0245   20.4632 C   0  0  0  0  0  0
  -22.7227  -10.2122   20.3031 C   0  0  0  0  0  0
  -21.6864   -6.0716   22.5273 C   0  0  0  0  0  0
  -21.4026   -6.5626   23.8203 C   0  0  0  0  0  0
  -21.3659   -5.6782   24.9165 C   0  0  0  0  0  0
  -21.6045   -4.3044   24.7219 C   0  0  0  0  0  0
  -21.8834   -3.8130   23.4345 C   0  0  0  0  0  0
  -21.9205   -4.6942   22.3399 C   0  0  0  0  0  0
  -22.7862  -13.5216   21.1835 C   0  0  0  0  0  0
  -22.1673   -4.2128   21.0973 F   0  0  0  0  0  0
  -21.5620   -3.4533   25.7741 F   0  0  0  0  0  0
  -30.0235  -13.3933   20.4500 N   0  0  0  0  0  0
  -26.3032  -12.9310   20.3382 N   0  0  0  0  0  0
  -25.9325  -11.6476   20.5794 N   0  0  0  0  0  0
  -22.0544  -12.8202   22.0415 N   0  0  0  0  0  0
  -25.4244  -15.1859   20.3951 N   0  0  0  0  0  0
  -31.7150  -14.8766   20.0693 O   0  0  0  0  0  0
  -21.6630   -6.8861   21.4234 O   0  0  0  0  0  0
  -22.3531  -14.5523   20.6699 O   0  0  0  0  0  0
  -24.6225  -31.8598   23.2006 C   0  0  0  0  0  0
  -25.9084  -32.4782   23.8334 C   0  0  1  0  0  0
  -27.2450  -27.3394   20.1090 C   0  0  0  0  0  0
  -25.5901  -33.8579   24.2273 N   0  0  0  0  0  0
  -23.4169  -30.4778   21.5432 C   0  0  2  0  0  0
  -24.8688  -28.9249   20.1193 C   0  0  0  0  0  0
  -22.7461  -29.4592   22.4936 C   0  0  0  0  0  0
  -18.0265  -28.1349   22.8518 C   0  0  0  0  0  0
  -24.1487  -36.7299   23.2644 C   0  0  0  0  0  0
  -25.9557  -30.7919   21.3711 C   0  0  0  0  0  0
  -26.0330  -29.4160   20.7213 C   0  0  0  0  0  0
  -27.2211  -28.6338   20.7084 C   0  0  0  0  0  0
  -26.0576  -26.8839   19.4951 C   0  0  0  0  0  0
  -24.8805  -27.6601   19.5035 C   0  0  0  0  0  0
  -23.6346  -29.8039   20.1616 C   0  0  0  0  0  0
  -25.4113  -36.3090   24.0339 C   0  0  1  0  0  0
  -20.5882  -28.3645   23.1266 C   0  0  2  0  0  0
  -20.6755  -26.9357   22.5393 C   0  0  0  0  0  0
  -19.5691  -26.6302   21.5248 C   0  0  0  0  0  0
  -18.1891  -26.7881   22.1686 C   0  0  0  0  0  0
  -19.1542  -28.8821   23.2871 C   0  0  0  0  0  0
  -18.9474  -30.1437   23.8863 C   0  0  0  0  0  0
  -17.6486  -30.6563   24.0543 C   0  0  0  0  0  0
  -25.9057  -34.9461   23.5106 C   0  0  0  0  0  0
  -16.5360  -29.9064   23.6343 C   0  0  0  0  0  0
  -16.7256  -28.6468   23.0394 C   0  0  0  0  0  0
  -26.4485  -31.6590   25.0699 C   0  0  0  0  0  0
  -25.3715  -31.3702   26.1410 C   0  0  0  0  0  0
  -27.0338  -30.3014   24.6163 C   0  0  0  0  0  0
  -27.6044  -32.4325   25.7462 C   0  0  0  0  0  0
  -27.5584  -37.1808   24.8476 C   0  0  0  0  0  0
  -21.4177  -29.2983   22.3648 N   0  0  0  0  0  0
  -26.4295  -37.3784   23.9425 N   0  0  0  0  0  0
  -24.6823  -31.0617   22.0947 N   0  0  0  0  0  0
  -23.4183  -28.8153   23.3030 O   0  0  0  0  0  0
  -28.4111  -26.5686   20.0687 O   0  0  0  0  0  0
  -26.5633  -34.8926   22.4682 O   0  0  0  0  0  0
  -23.5398  -32.1393   23.7345 O   0  0  0  0  0  0
  -28.8025  -17.5178   22.0578 C   0  0  0  0  0  0
  -28.7394  -18.9155   21.7871 C   0  0  0  0  0  0
  -29.6523  -16.9542   21.1428 C   0  0  0  0  0  0
  -29.5364  -19.1500   20.6998 C   0  0  0  0  0  0
  -28.3974  -25.1581   20.0895 C   0  0  0  0  0  0
  -29.3703  -24.4121   19.4789 C   0  0  0  0  0  0
  -29.5833  -22.8907   19.3773 C   0  0  0  0  0  0
  -29.5248  -22.2047   21.7883 C   0  0  0  0  0  0
  -27.5716  -21.6375   20.2357 C   0  0  0  0  0  0
  -29.1055  -21.7490   20.3745 C   0  0  0  0  0  0
  -29.7928  -15.5747   21.1245 N   0  0  0  0  0  0
  -29.7505  -20.4142   20.0519 N   0  0  0  0  0  0
  -30.2653  -22.4909   18.4251 O   0  0  0  0  0  0
  -30.1308  -17.9446   20.2762 O   0  0  0  0  0  0
  -30.3229  -25.0853   18.8152 O   0  0  0  0  0  0
  -31.4905  -12.5437   19.1458 H   0  0  0  0  0  0
  -30.4030  -11.3922   19.8739 H   0  0  0  0  0  0
  -29.7795  -11.7769   17.4716 H   0  0  0  0  0  0
  -29.6429  -13.4941   17.7596 H   0  0  0  0  0  0
  -27.8787  -11.2875   18.8728 H   0  0  0  0  0  0
  -27.3749  -12.5694   17.8043 H   0  0  0  0  0  0
  -27.6918  -14.2455   19.5527 H   0  0  0  0  0  0
  -28.7214  -11.9850   21.3433 H   0  0  0  0  0  0
  -28.4379  -13.6039   21.8828 H   0  0  0  0  0  0
  -25.2760   -9.5686   22.4711 H   0  0  0  0  0  0
  -24.0004   -7.4631   22.7450 H   0  0  0  0  0  0
  -21.0837   -8.8757   19.8927 H   0  0  0  0  0  0
  -22.3680  -10.9648   19.6115 H   0  0  0  0  0  0
  -21.2029   -7.6139   23.9702 H   0  0  0  0  0  0
  -21.1458   -6.0507   25.9063 H   0  0  0  0  0  0
  -22.0614   -2.7596   23.2858 H   0  0  0  0  0  0
  -22.4205  -11.9861   22.4786 H   0  0  0  0  0  0
  -21.1151  -13.1178   22.2614 H   0  0  0  0  0  0
  -24.6393  -15.8261   20.4501 H   0  0  0  0  0  0
  -26.2742  -15.6344   20.0751 H   0  0  0  0  0  0
  -26.7141  -32.5466   23.1071 H   0  0  0  0  0  0
  -25.0015  -33.9725   25.0393 H   0  0  0  0  0  0
  -22.7081  -31.2965   21.3960 H   0  0  0  0  0  0
  -23.3760  -35.9625   23.3323 H   0  0  0  0  0  0
  -24.3567  -36.8905   22.2054 H   0  0  0  0  0  0
  -23.7238  -37.6505   23.6653 H   0  0  0  0  0  0
  -26.0899  -31.5509   20.5988 H   0  0  0  0  0  0
  -26.8337  -30.8447   22.0022 H   0  0  0  0  0  0
  -28.1251  -29.0173   21.1620 H   0  0  0  0  0  0
  -26.0399  -25.9205   19.0047 H   0  0  0  0  0  0
  -23.9871  -27.2782   19.0283 H   0  0  0  0  0  0
  -23.7559  -30.5765   19.4019 H   0  0  0  0  0  0
  -22.7564  -29.2307   19.8594 H   0  0  0  0  0  0
  -25.1298  -36.1942   25.0836 H   0  0  0  0  0  0
  -21.0005  -28.3204   24.1379 H   0  0  0  0  0  0
  -20.5699  -26.2247   23.3608 H   0  0  0  0  0  0
  -21.6596  -26.7376   22.1134 H   0  0  0  0  0  0
  -19.6817  -25.6190   21.1328 H   0  0  0  0  0  0
  -19.6600  -27.3076   20.6748 H   0  0  0  0  0  0
  -17.4129  -26.6615   21.4120 H   0  0  0  0  0  0
  -18.0297  -26.0063   22.9129 H   0  0  0  0  0  0
  -19.7931  -30.7293   24.2203 H   0  0  0  0  0  0
  -17.5069  -31.6245   24.5130 H   0  0  0  0  0  0
  -15.5376  -30.3008   23.7648 H   0  0  0  0  0  0
  -15.8653  -28.0749   22.7146 H   0  0  0  0  0  0
  -24.5891  -30.7064   25.7712 H   0  0  0  0  0  0
  -24.8892  -32.2849   26.4853 H   0  0  0  0  0  0
  -25.8021  -30.8841   27.0171 H   0  0  0  0  0  0
  -26.2906  -29.6731   24.1225 H   0  0  0  0  0  0
  -27.4084  -29.7297   25.4672 H   0  0  0  0  0  0
  -27.8757  -30.4310   23.9356 H   0  0  0  0  0  0
  -27.2660  -33.3627   26.2034 H   0  0  0  0  0  0
  -28.3835  -32.6883   25.0272 H   0  0  0  0  0  0
  -28.0726  -31.8450   26.5367 H   0  0  0  0  0  0
  -28.2618  -38.0088   24.7507 H   0  0  0  0  0  0
  -28.1063  -36.2624   24.6320 H   0  0  0  0  0  0
  -27.2303  -37.1474   25.8877 H   0  0  0  0  0  0
  -20.9362  -29.8591   21.6764 H   0  0  0  0  0  0
  -26.0189  -38.2878   24.1384 H   0  0  0  0  0  0
  -28.2617  -16.9899   22.8317 H   0  0  0  0  0  0
  -28.1510  -19.6361   22.3333 H   0  0  0  0  0  0
  -27.5595  -24.7531   20.6387 H   0  0  0  0  0  0
  -28.9516  -23.0715   22.1161 H   0  0  0  0  0  0
  -30.5783  -22.4929   21.8150 H   0  0  0  0  0  0
  -29.3907  -21.4377   22.5464 H   0  0  0  0  0  0
  -27.0755  -22.5875   20.4253 H   0  0  0  0  0  0
  -27.1297  -20.9237   20.9259 H   0  0  0  0  0  0
  -27.2917  -21.3267   19.2285 H   0  0  0  0  0  0
  -29.0380  -15.1121   21.6076 H   0  0  0  0  0  0
  -30.3982  -20.4864   19.2686 H   0  0  0  0  0  0
  -30.8454  -24.4202   18.3777 H   0  0  0  0  0  0
  1 25  1  0  0  0
  1 30  2  0  0  0
  1 81  1  0  0  0
  2  3  1  0  0  0
  2 25  1  0  0  0
  2 86  1  0  0  0
  2 87  1  0  0  0
  3  4  1  0  0  0
  3 88  1  0  0  0
  3 89  1  0  0  0
  4  5  1  0  0  0
  4 90  1  0  0  0
  4 91  1  0  0  0
  5  6  1  0  0  0
  5 26  1  0  0  0
  5 92  1  0  0  0
  6 25  1  0  0  0
  6 93  1  0  0  0
  6 94  1  0  0  0
  7  8  2  0  0  0
  7 26  1  0  0  0
  7 29  1  0  0  0
  8  9  1  0  0  0
  8 22  1  0  0  0
  9 10  1  0  0  0
  9 27  2  0  0  0
 10 11  2  0  0  0
 10 15  1  0  0  0
 11 12  1  0  0  0
 11 95  1  0  0  0
 12 13  2  0  0  0
 12 96  1  0  0  0
 13 14  1  0  0  0
 13 31  1  0  0  0
 14 15  2  0  0  0
 14 97  1  0  0  0
 15 98  1  0  0  0
 16 17  2  0  0  0
 16 21  1  0  0  0
 16 31  1  0  0  0
 17 18  1  0  0  0
 17 99  1  0  0  0
 18 19  2  0  0  0
 18100  1  0  0  0
 19 20  1  0  0  0
 19 24  1  0  0  0
 20 21  2  0  0  0
 20101  1  0  0  0
 21 23  1  0  0  0
 22 28  1  0  0  0
 22 32  2  0  0  0
 26 27  1  0  0  0
 28102  1  0  0  0
 28103  1  0  0  0
 29104  1  0  0  0
 29105  1  0  0  0
 33 34  1  0  0  0
 33 66  1  0  0  0
 33 70  2  0  0  0
 34 36  1  0  0  0
 34 59  1  0  0  0
 34106  1  0  0  0
 35 44  2  0  0  0
 35 45  1  0  0  0
 35 68  1  0  0  0
 36 56  1  0  0  0
 36107  1  0  0  0
 37 39  1  0  0  0
 37 47  1  0  0  0
 37 66  1  0  0  0
 37108  1  0  0  0
 38 43  2  0  0  0
 38 46  1  0  0  0
 38 47  1  0  0  0
 39 64  1  0  0  0
 39 67  2  0  0  0
 40 52  1  0  0  0
 40 53  2  0  0  0
 40 58  1  0  0  0
 41109  1  0  0  0
 41110  1  0  0  0
 41111  1  0  0  0
 41 48  1  0  0  0
 42 43  1  0  0  0
 42 66  1  0  0  0
 42112  1  0  0  0
 42113  1  0  0  0
 43 44  1  0  0  0
 44114  1  0  0  0
 45 46  2  0  0  0
 45115  1  0  0  0
 46116  1  0  0  0
 47117  1  0  0  0
 47118  1  0  0  0
 48 56  1  0  0  0
 48 65  1  0  0  0
 48119  1  0  0  0
 49 50  1  0  0  0
 49 53  1  0  0  0
 49 64  1  0  0  0
 49120  1  0  0  0
 50 51  1  0  0  0
 50121  1  0  0  0
 50122  1  0  0  0
 51 52  1  0  0  0
 51123  1  0  0  0
 51124  1  0  0  0
 52125  1  0  0  0
 52126  1  0  0  0
 53 54  1  0  0  0
 54 55  2  0  0  0
 54127  1  0  0  0
 55 57  1  0  0  0
 55128  1  0  0  0
 56 69  2  0  0  0
 57 58  2  0  0  0
 57129  1  0  0  0
 58130  1  0  0  0
 59 60  1  0  0  0
 59 61  1  0  0  0
 59 62  1  0  0  0
 60131  1  0  0  0
 60132  1  0  0  0
 60133  1  0  0  0
 61134  1  0  0  0
 61135  1  0  0  0
 61136  1  0  0  0
 62137  1  0  0  0
 62138  1  0  0  0
 62139  1  0  0  0
 63 65  1  0  0  0
 63140  1  0  0  0
 63141  1  0  0  0
 63142  1  0  0  0
 64143  1  0  0  0
 65144  1  0  0  0
 68 75  1  0  0  0
 71 72  1  0  0  0
 71 73  2  0  0  0
 71145  1  0  0  0
 72 74  2  0  0  0
 72146  1  0  0  0
 73 81  1  0  0  0
 73 84  1  0  0  0
 74 82  1  0  0  0
 74 84  1  0  0  0
 75 76  2  0  0  0
 75147  1  0  0  0
 76 77  1  0  0  0
 76 85  1  0  0  0
 77 80  1  0  0  0
 77 83  2  0  0  0
 78148  1  0  0  0
 78149  1  0  0  0
 78150  1  0  0  0
 78 80  1  0  0  0
 79 80  1  0  0  0
 79151  1  0  0  0
 79152  1  0  0  0
 79153  1  0  0  0
 80 82  1  0  0  0
 81154  1  0  0  0
 82155  1  0  0  0
 85156  1  0  0  0
M  ISO  4   1 100  68 101  75 101  81 100
M  END
> <chiral flag>
0

> <version>
0

> <s_m_source_file>
/data/baiqing/PycharmProjects/Reinvent-master-3.2/result/LINK_invent/BTK/process_docking_weight1_custom_product_contain_oxygen_bond_distance_aromatic_linkinvent_7_9_3/rearranged_h_0165.sdf

> <i_m_source_file_index>
13

> <r_mmod_Potential_Energy-OPLS-2005>
64.3473129272461

> <r_mmod_Stretch_Energy-OPLS-2005>
81.9898376464844

> <r_mmod_Bend_Energy-OPLS-2005>
203.809555053711

> <r_mmod_Torsional_Energy-OPLS-2005>
211.418014526367

> <r_mmod_Improper_Torsional_Energy-OPLS-2005>
3.60410284996033

> <r_mmod_Van_der_Waal_Energy-OPLS-2005>
132.757232666016

> <r_mmod_Electrostatic_Energy-OPLS-2005>
-375.81787109375

> <r_mmod_Solvation_Energy-OPLS-2005>
-234.694259643555

> <b_mmod_Minimization_Converged-OPLS-2005>
0

> <r_mmod_RMS_Derivative-OPLS-2005>
3.17399883270264

$$$$
13
                    3D
 Structure written by MMmdl.
155163  0  0  1  0            999 V2000
  -30.5802  -14.8245   20.4528 C   0  0  0  0  0  0
  -30.4524  -12.5085   19.4808 C   0  0  0  0  0  0
  -29.5198  -12.5015   18.2475 C   0  0  0  0  0  0
  -28.0522  -12.3038   18.6721 C   0  0  0  0  0  0
  -27.6453  -13.2293   19.8485 C   0  0  2  0  0  0
  -28.6907  -13.1985   20.9850 C   0  0  0  0  0  0
  -25.2552  -13.8189   20.5691 C   0  0  0  0  0  0
  -24.1837  -13.0452   20.9220 C   0  0  0  0  0  0
  -24.6429  -11.6928   20.8785 C   0  0  0  0  0  0
  -23.9110  -10.4306   21.0446 C   0  0  0  0  0  0
  -24.3656   -9.4208   21.9210 C   0  0  0  0  0  0
  -23.6315   -8.2250   22.0764 C   0  0  0  0  0  0
  -22.4287   -8.0307   21.3558 C   0  0  0  0  0  0
  -21.9950   -9.0293   20.4657 C   0  0  0  0  0  0
  -22.7299  -10.2158   20.3074 C   0  0  0  0  0  0
  -21.6860   -6.0757   22.5294 C   0  0  0  0  0  0
  -21.4012   -6.5656   23.8233 C   0  0  0  0  0  0
  -21.3650   -5.6804   24.9190 C   0  0  0  0  0  0
  -21.6040   -4.3068   24.7239 C   0  0  0  0  0  0
  -21.8815   -3.8166   23.4361 C   0  0  0  0  0  0
  -21.9191   -4.6981   22.3418 C   0  0  0  0  0  0
  -22.7859  -13.5241   21.1873 C   0  0  0  0  0  0
  -22.1663   -4.2174   21.0992 F   0  0  0  0  0  0
  -21.5623   -3.4545   25.7749 F   0  0  0  0  0  0
  -29.9848  -13.5766   20.3988 N   0  0  0  0  0  0
  -26.2975  -12.9390   20.3279 N   0  0  0  0  0  0
  -25.9356  -11.6545   20.5794 N   0  0  0  0  0  0
  -22.0488  -12.8234   22.0413 N   0  0  0  0  0  0
  -25.4239  -15.1914   20.4078 N   0  0  0  0  0  0
  -31.7715  -14.9367   20.1445 O   0  0  0  0  0  0
  -21.6637   -6.8908   21.4258 O   0  0  0  0  0  0
  -22.3567  -14.5565   20.6734 O   0  0  0  0  0  0
  -24.6362  -31.8524   23.1952 C   0  0  0  0  0  0
  -25.9176  -32.4731   23.8304 C   0  0  1  0  0  0
  -27.2208  -27.2247   20.1372 C   0  0  0  0  0  0
  -25.5965  -33.8538   24.2235 N   0  0  0  0  0  0
  -23.4360  -30.4742   21.5380 C   0  0  2  0  0  0
  -24.8881  -28.9205   20.1040 C   0  0  0  0  0  0
  -22.7546  -29.4589   22.4888 C   0  0  0  0  0  0
  -18.0318  -28.1414   22.8510 C   0  0  0  0  0  0
  -24.1492  -36.7262   23.2637 C   0  0  0  0  0  0
  -25.9855  -30.7524   21.3831 C   0  0  0  0  0  0
  -26.0616  -29.3725   20.7244 C   0  0  0  0  0  0
  -27.2323  -28.5353   20.7354 C   0  0  0  0  0  0
  -26.0328  -26.8605   19.4700 C   0  0  0  0  0  0
  -24.8818  -27.6722   19.4634 C   0  0  0  0  0  0
  -23.6584  -29.8090   20.1549 C   0  0  0  0  0  0
  -25.4122  -36.3052   24.0325 C   0  0  1  0  0  0
  -20.5930  -28.3730   23.1278 C   0  0  2  0  0  0
  -20.6793  -26.9443   22.5421 C   0  0  0  0  0  0
  -19.5761  -26.6412   21.5234 C   0  0  0  0  0  0
  -18.1947  -26.7963   22.1642 C   0  0  0  0  0  0
  -19.1575  -28.8895   23.2885 C   0  0  0  0  0  0
  -18.9486  -30.1497   23.8900 C   0  0  0  0  0  0
  -17.6469  -30.6609   24.0587 C   0  0  0  0  0  0
  -25.9068  -34.9425   23.5078 C   0  0  0  0  0  0
  -16.5363  -29.9103   23.6345 C   0  0  0  0  0  0
  -16.7302  -28.6526   23.0360 C   0  0  0  0  0  0
  -26.4526  -31.6568   25.0707 C   0  0  0  0  0  0
  -25.3735  -31.3743   26.1434 C   0  0  0  0  0  0
  -27.0371  -30.2981   24.6206 C   0  0  0  0  0  0
  -27.6073  -32.4318   25.7475 C   0  0  0  0  0  0
  -27.5580  -37.1792   24.8472 C   0  0  0  0  0  0
  -21.4254  -29.3050   22.3633 N   0  0  0  0  0  0
  -26.4292  -37.3757   23.9415 N   0  0  0  0  0  0
  -24.7043  -31.0458   22.0937 N   0  0  0  0  0  0
  -23.4230  -28.8148   23.3009 O   0  0  0  0  0  0
  -28.2266  -26.2164   20.2236 O   0  0  0  0  0  0
  -26.5634  -34.8891   22.4644 O   0  0  0  0  0  0
  -23.5504  -32.1372   23.7221 O   0  0  0  0  0  0
  -31.0244  -18.1758   20.6146 C   0  0  0  0  0  0
  -30.7936  -19.6324   20.6530 C   0  0  0  0  0  0
  -29.9104  -17.3497   20.5902 C   0  0  0  0  0  0
  -29.4579  -20.0427   20.5971 C   0  0  0  0  0  0
  -27.8271  -25.0319   20.9293 C   0  0  0  0  0  0
  -31.8948  -20.5798   20.8702 C   0  0  0  0  0  0
  -28.1077  -23.6520   21.0457 C   0  0  0  0  0  0
  -33.0816  -20.5880   19.9049 C   0  0  0  0  0  0
  -29.0809  -22.6577   20.4193 C   0  0  0  0  0  0
  -33.0078  -19.7681   18.6298 C   0  0  0  0  0  0
  -34.1354  -21.2672   20.1079 N   0  0  0  0  0  0
  -28.8026  -21.3053   20.7025 N   0  0  0  0  0  0
  -29.7547  -15.9373   20.6479 N   0  0  0  0  0  0
  -31.9049  -21.3741   21.8200 O   0  0  0  0  0  0
  -30.0378  -22.9780   19.7143 O   0  0  0  0  0  0
  -27.3426  -23.0762   21.9912 O   0  0  0  0  0  0
  -28.5279  -18.4979   20.5552 S   0  0  0  0  0  0
  -31.4857  -12.6628   19.1646 H   0  0  0  0  0  0
  -30.4393  -11.5424   19.9863 H   0  0  0  0  0  0
  -29.8173  -11.7107   17.5567 H   0  0  0  0  0  0
  -29.6212  -13.4409   17.7019 H   0  0  0  0  0  0
  -27.9391  -11.2604   18.9718 H   0  0  0  0  0  0
  -27.3859  -12.4476   17.8214 H   0  0  0  0  0  0
  -27.6306  -14.2406   19.4408 H   0  0  0  0  0  0
  -28.7476  -12.2084   21.4390 H   0  0  0  0  0  0
  -28.4100  -13.8829   21.7875 H   0  0  0  0  0  0
  -25.2799   -9.5670   22.4792 H   0  0  0  0  0  0
  -24.0027   -7.4631   22.7476 H   0  0  0  0  0  0
  -21.0886   -8.8842   19.8959 H   0  0  0  0  0  0
  -22.3792  -10.9714   19.6187 H   0  0  0  0  0  0
  -21.1999   -7.6162   23.9755 H   0  0  0  0  0  0
  -21.1467   -6.0523   25.9098 H   0  0  0  0  0  0
  -22.0592   -2.7632   23.2859 H   0  0  0  0  0  0
  -22.4092  -11.9879   22.4775 H   0  0  0  0  0  0
  -21.1113  -13.1276   22.2626 H   0  0  0  0  0  0
  -24.6515  -15.8402   20.5125 H   0  0  0  0  0  0
  -26.2582  -15.6315   20.0430 H   0  0  0  0  0  0
  -26.7239  -32.5357   23.1029 H   0  0  0  0  0  0
  -25.0103  -33.9656   25.0379 H   0  0  0  0  0  0
  -22.7328  -31.2965   21.3900 H   0  0  0  0  0  0
  -23.3739  -35.9610   23.3317 H   0  0  0  0  0  0
  -24.3566  -36.8871   22.2045 H   0  0  0  0  0  0
  -23.7250  -37.6462   23.6657 H   0  0  0  0  0  0
  -26.1299  -31.5129   20.6140 H   0  0  0  0  0  0
  -26.8587  -30.8018   22.0205 H   0  0  0  0  0  0
  -28.1200  -28.8653   21.2548 H   0  0  0  0  0  0
  -25.9781  -25.8949   18.9866 H   0  0  0  0  0  0
  -23.9892  -27.3198   18.9649 H   0  0  0  0  0  0
  -23.7809  -30.5854   19.3987 H   0  0  0  0  0  0
  -22.7750  -29.2439   19.8521 H   0  0  0  0  0  0
  -25.1300  -36.1878   25.0816 H   0  0  0  0  0  0
  -21.0044  -28.3311   24.1392 H   0  0  0  0  0  0
  -20.5720  -26.2325   23.3621 H   0  0  0  0  0  0
  -21.6655  -26.7479   22.1191 H   0  0  0  0  0  0
  -19.6902  -25.6326   21.1258 H   0  0  0  0  0  0
  -19.6677  -27.3224   20.6765 H   0  0  0  0  0  0
  -17.4210  -26.6755   21.4040 H   0  0  0  0  0  0
  -18.0321  -26.0094   22.9020 H   0  0  0  0  0  0
  -19.7947  -30.7357   24.2229 H   0  0  0  0  0  0
  -17.5006  -31.6279   24.5201 H   0  0  0  0  0  0
  -15.5362  -30.2989   23.7676 H   0  0  0  0  0  0
  -15.8707  -28.0849   22.7062 H   0  0  0  0  0  0
  -24.5896  -30.7106   25.7771 H   0  0  0  0  0  0
  -24.8937  -32.2921   26.4863 H   0  0  0  0  0  0
  -25.8062  -30.8913   27.0212 H   0  0  0  0  0  0
  -26.2965  -29.6706   24.1241 H   0  0  0  0  0  0
  -27.4052  -29.7274   25.4736 H   0  0  0  0  0  0
  -27.8845  -30.4227   23.9462 H   0  0  0  0  0  0
  -27.2696  -33.3636   26.2030 H   0  0  0  0  0  0
  -28.3905  -32.6870   25.0320 H   0  0  0  0  0  0
  -28.0717  -31.8445   26.5401 H   0  0  0  0  0  0
  -28.2621  -38.0064   24.7512 H   0  0  0  0  0  0
  -28.1049  -36.2600   24.6320 H   0  0  0  0  0  0
  -27.2301  -37.1499   25.8874 H   0  0  0  0  0  0
  -20.9437  -29.8722   21.6802 H   0  0  0  0  0  0
  -26.0157  -38.2825   24.1402 H   0  0  0  0  0  0
  -32.0284  -17.7804   20.6790 H   0  0  0  0  0  0
  -27.0379  -25.3494   21.6001 H   0  0  0  0  0  0
  -31.9868  -19.6898   18.2583 H   0  0  0  0  0  0
  -33.4048  -18.7688   18.8051 H   0  0  0  0  0  0
  -33.6030  -20.2362   17.8439 H   0  0  0  0  0  0
  -34.0401  -21.7761   20.9826 H   0  0  0  0  0  0
  -27.8563  -21.2162   21.0498 H   0  0  0  0  0  0
  -28.8050  -15.6472   20.8268 H   0  0  0  0  0  0
  -27.8284  -22.3326   22.3286 H   0  0  0  0  0  0
  1 25  1  0  0  0
  1 30  2  0  0  0
  1 83  1  0  0  0
  2  3  1  0  0  0
  2 25  1  0  0  0
  2 88  1  0  0  0
  2 89  1  0  0  0
  3  4  1  0  0  0
  3 90  1  0  0  0
  3 91  1  0  0  0
  4  5  1  0  0  0
  4 92  1  0  0  0
  4 93  1  0  0  0
  5  6  1  0  0  0
  5 26  1  0  0  0
  5 94  1  0  0  0
  6 25  1  0  0  0
  6 95  1  0  0  0
  6 96  1  0  0  0
  7  8  2  0  0  0
  7 26  1  0  0  0
  7 29  1  0  0  0
  8  9  1  0  0  0
  8 22  1  0  0  0
  9 10  1  0  0  0
  9 27  2  0  0  0
 10 11  2  0  0  0
 10 15  1  0  0  0
 11 12  1  0  0  0
 11 97  1  0  0  0
 12 13  2  0  0  0
 12 98  1  0  0  0
 13 14  1  0  0  0
 13 31  1  0  0  0
 14 15  2  0  0  0
 14 99  1  0  0  0
 15100  1  0  0  0
 16 17  2  0  0  0
 16 21  1  0  0  0
 16 31  1  0  0  0
 17 18  1  0  0  0
 17101  1  0  0  0
 18 19  2  0  0  0
 18102  1  0  0  0
 19 20  1  0  0  0
 19 24  1  0  0  0
 20 21  2  0  0  0
 20103  1  0  0  0
 21 23  1  0  0  0
 22 28  1  0  0  0
 22 32  2  0  0  0
 26 27  1  0  0  0
 28104  1  0  0  0
 28105  1  0  0  0
 29106  1  0  0  0
 29107  1  0  0  0
 33 34  1  0  0  0
 33 66  1  0  0  0
 33 70  2  0  0  0
 34 36  1  0  0  0
 34 59  1  0  0  0
 34108  1  0  0  0
 35 44  2  0  0  0
 35 45  1  0  0  0
 35 68  1  0  0  0
 36 56  1  0  0  0
 36109  1  0  0  0
 37 39  1  0  0  0
 37 47  1  0  0  0
 37 66  1  0  0  0
 37110  1  0  0  0
 38 43  2  0  0  0
 38 46  1  0  0  0
 38 47  1  0  0  0
 39 64  1  0  0  0
 39 67  2  0  0  0
 40 52  1  0  0  0
 40 53  2  0  0  0
 40 58  1  0  0  0
 41111  1  0  0  0
 41112  1  0  0  0
 41113  1  0  0  0
 41 48  1  0  0  0
 42 43  1  0  0  0
 42 66  1  0  0  0
 42114  1  0  0  0
 42115  1  0  0  0
 43 44  1  0  0  0
 44116  1  0  0  0
 45 46  2  0  0  0
 45117  1  0  0  0
 46118  1  0  0  0
 47119  1  0  0  0
 47120  1  0  0  0
 48 56  1  0  0  0
 48 65  1  0  0  0
 48121  1  0  0  0
 49 50  1  0  0  0
 49 53  1  0  0  0
 49 64  1  0  0  0
 49122  1  0  0  0
 50 51  1  0  0  0
 50123  1  0  0  0
 50124  1  0  0  0
 51 52  1  0  0  0
 51125  1  0  0  0
 51126  1  0  0  0
 52127  1  0  0  0
 52128  1  0  0  0
 53 54  1  0  0  0
 54 55  2  0  0  0
 54129  1  0  0  0
 55 57  1  0  0  0
 55130  1  0  0  0
 56 69  2  0  0  0
 57 58  2  0  0  0
 57131  1  0  0  0
 58132  1  0  0  0
 59 60  1  0  0  0
 59 61  1  0  0  0
 59 62  1  0  0  0
 60133  1  0  0  0
 60134  1  0  0  0
 60135  1  0  0  0
 61136  1  0  0  0
 61137  1  0  0  0
 61138  1  0  0  0
 62139  1  0  0  0
 62140  1  0  0  0
 62141  1  0  0  0
 63 65  1  0  0  0
 63142  1  0  0  0
 63143  1  0  0  0
 63144  1  0  0  0
 64145  1  0  0  0
 65146  1  0  0  0
 68 75  1  0  0  0
 71 72  1  0  0  0
 71 73  2  0  0  0
 71147  1  0  0  0
 72 74  2  0  0  0
 72 76  1  0  0  0
 73 83  1  0  0  0
 73 87  1  0  0  0
 74 82  1  0  0  0
 74 87  1  0  0  0
 75 77  2  0  0  0
 75148  1  0  0  0
 76 78  1  0  0  0
 76 84  2  0  0  0
 77 79  1  0  0  0
 77 86  1  0  0  0
 78 80  1  0  0  0
 78 81  2  0  0  0
 79 82  1  0  0  0
 79 85  2  0  0  0
 80149  1  0  0  0
 80150  1  0  0  0
 80151  1  0  0  0
 81152  1  0  0  0
 82153  1  0  0  0
 83154  1  0  0  0
 86155  1  0  0  0
M  ISO  4   1 100  68 101  75 101  83 100
M  END
> <chiral flag>
0

> <version>
0

> <s_m_source_file>
/data/baiqing/PycharmProjects/Reinvent-master-3.2/result/LINK_invent/BTK/process_docking_weight1_custom_product_contain_oxygen_bond_distance_aromatic_linkinvent_7_9_3/rearranged_h_0165.sdf

> <i_m_source_file_index>
14

> <r_mmod_Potential_Energy-OPLS-2005>
359.251525878906

> <r_mmod_Stretch_Energy-OPLS-2005>
144.732482910156

> <r_mmod_Bend_Energy-OPLS-2005>
282.576629638672

> <r_mmod_Torsional_Energy-OPLS-2005>
263.992156982422

> <r_mmod_Improper_Torsional_Energy-OPLS-2005>
6.15425443649292

> <r_mmod_Van_der_Waal_Energy-OPLS-2005>
122.914901733398

> <r_mmod_Electrostatic_Energy-OPLS-2005>
-326.161712646484

> <r_mmod_Solvation_Energy-OPLS-2005>
-264.793182373047

> <b_mmod_Minimization_Converged-OPLS-2005>
0

> <r_mmod_RMS_Derivative-OPLS-2005>
2.6416130065918

$$$$
14
                    3D
 Structure written by MMmdl.
169177  0  0  1  0            999 V2000
  -30.7658  -14.4456   20.5909 C   0  0  0  0  0  0
  -30.4133  -12.3063   19.4114 C   0  0  0  0  0  0
  -29.4810  -12.4871   18.1988 C   0  0  0  0  0  0
  -28.0093  -12.3491   18.6259 C   0  0  0  0  0  0
  -27.6587  -13.2112   19.8676 C   0  0  2  0  0  0
  -28.7060  -13.0262   20.9897 C   0  0  0  0  0  0
  -25.2577  -13.8167   20.5683 C   0  0  0  0  0  0
  -24.1830  -13.0442   20.9166 C   0  0  0  0  0  0
  -24.6386  -11.6918   20.8738 C   0  0  0  0  0  0
  -23.9050  -10.4304   21.0407 C   0  0  0  0  0  0
  -24.3598   -9.4219   21.9177 C   0  0  0  0  0  0
  -23.6282   -8.2253   22.0759 C   0  0  0  0  0  0
  -22.4268   -8.0274   21.3545 C   0  0  0  0  0  0
  -21.9900   -9.0250   20.4646 C   0  0  0  0  0  0
  -22.7228  -10.2132   20.3059 C   0  0  0  0  0  0
  -21.6851   -6.0717   22.5273 C   0  0  0  0  0  0
  -21.4020   -6.5634   23.8198 C   0  0  0  0  0  0
  -21.3648   -5.6794   24.9158 C   0  0  0  0  0  0
  -21.6054   -4.3063   24.7230 C   0  0  0  0  0  0
  -21.8815   -3.8142   23.4359 C   0  0  0  0  0  0
  -21.9198   -4.6946   22.3409 C   0  0  0  0  0  0
  -22.7853  -13.5236   21.1850 C   0  0  0  0  0  0
  -22.1661   -4.2134   21.0984 F   0  0  0  0  0  0
  -21.5628   -3.4556   25.7740 F   0  0  0  0  0  0
  -30.0380  -13.3076   20.4252 N   0  0  0  0  0  0
  -26.3014  -12.9361   20.3358 N   0  0  0  0  0  0
  -25.9318  -11.6517   20.5783 N   0  0  0  0  0  0
  -22.0493  -12.8219   22.0389 N   0  0  0  0  0  0
  -25.4330  -15.1890   20.4121 N   0  0  0  0  0  0
  -31.8763  -14.5979   20.0783 O   0  0  0  0  0  0
  -21.6645   -6.8862   21.4234 O   0  0  0  0  0  0
  -22.3543  -14.5540   20.6687 O   0  0  0  0  0  0
  -24.6204  -31.8659   23.2105 C   0  0  0  0  0  0
  -25.9100  -32.4795   23.8403 C   0  0  1  0  0  0
  -27.2225  -27.4089   20.0709 C   0  0  0  0  0  0
  -25.5957  -33.8592   24.2329 N   0  0  0  0  0  0
  -23.4106  -30.4913   21.5504 C   0  0  2  0  0  0
  -24.8488  -28.9580   20.1147 C   0  0  0  0  0  0
  -22.7465  -29.4646   22.4973 C   0  0  0  0  0  0
  -18.0288  -28.1390   22.8479 C   0  0  0  0  0  0
  -24.1503  -36.7270   23.2638 C   0  0  0  0  0  0
  -25.9486  -30.8144   21.3787 C   0  0  0  0  0  0
  -26.0159  -29.4574   20.7041 C   0  0  0  0  0  0
  -27.2038  -28.6913   20.6716 C   0  0  0  0  0  0
  -26.0239  -26.9184   19.4989 C   0  0  0  0  0  0
  -24.8463  -27.6888   19.5122 C   0  0  0  0  0  0
  -23.6200  -29.8320   20.1642 C   0  0  0  0  0  0
  -25.4126  -36.3079   24.0337 C   0  0  1  0  0  0
  -20.5890  -28.3688   23.1295 C   0  0  2  0  0  0
  -20.6785  -26.9423   22.5404 C   0  0  0  0  0  0
  -19.5753  -26.6394   21.5208 C   0  0  0  0  0  0
  -18.1926  -26.7935   22.1623 C   0  0  0  0  0  0
  -19.1541  -28.8856   23.2873 C   0  0  0  0  0  0
  -18.9468  -30.1450   23.8894 C   0  0  0  0  0  0
  -17.6473  -30.6586   24.0571 C   0  0  0  0  0  0
  -25.9065  -34.9454   23.5114 C   0  0  0  0  0  0
  -16.5358  -29.9072   23.6360 C   0  0  0  0  0  0
  -16.7280  -28.6497   23.0362 C   0  0  0  0  0  0
  -26.4527  -31.6601   25.0756 C   0  0  0  0  0  0
  -25.3771  -31.3687   26.1480 C   0  0  0  0  0  0
  -27.0403  -30.3038   24.6227 C   0  0  0  0  0  0
  -27.6094  -32.4355   25.7492 C   0  0  0  0  0  0
  -27.5584  -37.1773   24.8471 C   0  0  0  0  0  0
  -21.4187  -29.3022   22.3695 N   0  0  0  0  0  0
  -26.4308  -37.3774   23.9410 N   0  0  0  0  0  0
  -24.6776  -31.0726   22.1018 N   0  0  0  0  0  0
  -23.4224  -28.8167   23.3006 O   0  0  0  0  0  0
  -28.4032  -26.6862   20.0724 O   0  0  0  0  0  0
  -26.5616  -34.8900   22.4672 O   0  0  0  0  0  0
  -23.5386  -32.1460   23.7473 O   0  0  0  0  0  0
  -29.5253  -18.6465   22.4886 C   0  0  0  0  0  0
  -28.9024  -19.9027   22.3333 C   0  0  0  0  0  0
  -29.4487  -19.8761   19.9738 C   0  0  0  0  0  0
  -30.1442  -17.9974   21.3998 C   0  0  0  0  0  0
  -30.1196  -18.6318   20.1239 C   0  0  0  0  0  0
  -28.8573  -20.5356   21.0752 C   0  0  0  0  0  0
  -28.1378  -24.2230   20.3743 C   0  0  0  0  0  0
  -32.0622  -20.1622   18.2730 C   0  0  0  0  0  0
  -33.2693  -18.2828   19.3830 C   0  0  0  0  0  0
  -32.4530  -18.0294   17.0278 C   0  0  0  0  0  0
  -30.7785  -18.0032   18.8925 C   0  0  0  0  0  0
  -30.8836  -16.6815   21.6841 C   0  0  0  0  0  0
  -28.6973  -22.8193   20.0347 C   0  0  0  0  0  0
  -28.4842  -25.3946   19.4244 C   0  0  0  0  0  0
  -32.1249  -18.6267   18.4106 C   0  0  0  0  0  0
  -28.2163  -21.7824   20.9633 N   0  0  0  0  0  0
  -30.1944  -15.4422   21.2896 N   0  0  0  0  0  0
  -27.4245  -24.3876   21.3716 O   0  0  0  0  0  0
  -31.4559  -12.3881   19.0972 H   0  0  0  0  0  0
  -30.3105  -11.3039   19.8302 H   0  0  0  0  0  0
  -29.7132  -11.7420   17.4363 H   0  0  0  0  0  0
  -29.6442  -13.4628   17.7399 H   0  0  0  0  0  0
  -27.8290  -11.2957   18.8428 H   0  0  0  0  0  0
  -27.3497  -12.5984   17.7938 H   0  0  0  0  0  0
  -27.6955  -14.2526   19.5484 H   0  0  0  0  0  0
  -28.6814  -12.0044   21.3687 H   0  0  0  0  0  0
  -28.4686  -13.6629   21.8437 H   0  0  0  0  0  0
  -25.2731   -9.5702   22.4761 H   0  0  0  0  0  0
  -23.9986   -7.4654   22.7495 H   0  0  0  0  0  0
  -21.0825   -8.8759   19.8964 H   0  0  0  0  0  0
  -22.3663  -10.9662   19.6179 H   0  0  0  0  0  0
  -21.2007   -7.6144   23.9687 H   0  0  0  0  0  0
  -21.1476   -6.0533   25.9049 H   0  0  0  0  0  0
  -22.0606   -2.7615   23.2866 H   0  0  0  0  0  0
  -22.4116  -11.9883   22.4774 H   0  0  0  0  0  0
  -21.1114  -13.1253   22.2608 H   0  0  0  0  0  0
  -24.6771  -15.8535   20.5390 H   0  0  0  0  0  0
  -26.2986  -15.6261   20.1191 H   0  0  0  0  0  0
  -26.7154  -32.5482   23.1142 H   0  0  0  0  0  0
  -25.0178  -33.9784   25.0514 H   0  0  0  0  0  0
  -22.7015  -31.3104   21.4085 H   0  0  0  0  0  0
  -23.3786  -35.9588   23.3334 H   0  0  0  0  0  0
  -24.3594  -36.8863   22.2045 H   0  0  0  0  0  0
  -23.7219  -37.6455   23.6650 H   0  0  0  0  0  0
  -26.1044  -31.6008   20.6406 H   0  0  0  0  0  0
  -26.8196  -30.8279   22.0229 H   0  0  0  0  0  0
  -28.1144  -29.0777   21.1091 H   0  0  0  0  0  0
  -25.9652  -25.9394   19.0468 H   0  0  0  0  0  0
  -23.9413  -27.2959   19.0656 H   0  0  0  0  0  0
  -23.7354  -30.6096   19.4080 H   0  0  0  0  0  0
  -22.7433  -29.2551   19.8628 H   0  0  0  0  0  0
  -25.1288  -36.1958   25.0830 H   0  0  0  0  0  0
  -20.9960  -28.3250   24.1422 H   0  0  0  0  0  0
  -20.5740  -26.2292   23.3589 H   0  0  0  0  0  0
  -21.6643  -26.7484   22.1143 H   0  0  0  0  0  0
  -19.6957  -25.6303   21.1236 H   0  0  0  0  0  0
  -19.6715  -27.3211   20.6743 H   0  0  0  0  0  0
  -17.4209  -26.6723   21.3995 H   0  0  0  0  0  0
  -18.0285  -26.0077   22.9002 H   0  0  0  0  0  0
  -19.7943  -30.7251   24.2277 H   0  0  0  0  0  0
  -17.5022  -31.6277   24.5133 H   0  0  0  0  0  0
  -15.5345  -30.2955   23.7696 H   0  0  0  0  0  0
  -15.8690  -28.0807   22.7087 H   0  0  0  0  0  0
  -24.5957  -30.7064   25.7757 H   0  0  0  0  0  0
  -24.8974  -32.2828   26.4982 H   0  0  0  0  0  0
  -25.8108  -30.8780   27.0208 H   0  0  0  0  0  0
  -26.2979  -29.6706   24.1368 H   0  0  0  0  0  0
  -27.4211  -29.7386   25.4743 H   0  0  0  0  0  0
  -27.8807  -30.4328   23.9407 H   0  0  0  0  0  0
  -27.2726  -33.3655   26.2084 H   0  0  0  0  0  0
  -28.3865  -32.6921   25.0279 H   0  0  0  0  0  0
  -28.0826  -31.8494   26.5382 H   0  0  0  0  0  0
  -28.2572  -38.0091   24.7524 H   0  0  0  0  0  0
  -28.1101  -36.2607   24.6304 H   0  0  0  0  0  0
  -27.2300  -37.1409   25.8876 H   0  0  0  0  0  0
  -20.9393  -29.8695   21.6849 H   0  0  0  0  0  0
  -26.0210  -38.2857   24.1439 H   0  0  0  0  0  0
  -29.5487  -18.1942   23.4691 H   0  0  0  0  0  0
  -28.4700  -20.3740   23.2047 H   0  0  0  0  0  0
  -29.3991  -20.3340   18.9965 H   0  0  0  0  0  0
  -32.9858  -20.5622   17.8538 H   0  0  0  0  0  0
  -31.9264  -20.6476   19.2397 H   0  0  0  0  0  0
  -31.2490  -20.4766   17.6188 H   0  0  0  0  0  0
  -34.2218  -18.6824   19.0301 H   0  0  0  0  0  0
  -33.3938  -17.2052   19.4947 H   0  0  0  0  0  0
  -33.0922  -18.7029   20.3739 H   0  0  0  0  0  0
  -33.3982  -18.4086   16.6377 H   0  0  0  0  0  0
  -31.6801  -18.2728   16.2962 H   0  0  0  0  0  0
  -32.5297  -16.9408   17.0703 H   0  0  0  0  0  0
  -30.0475  -18.0644   18.0853 H   0  0  0  0  0  0
  -30.9106  -16.9336   19.0409 H   0  0  0  0  0  0
  -31.0627  -16.6072   22.7566 H   0  0  0  0  0  0
  -31.8837  -16.7558   21.2591 H   0  0  0  0  0  0
  -29.7865  -22.8726   20.0709 H   0  0  0  0  0  0
  -28.4187  -22.5702   19.0105 H   0  0  0  0  0  0
  -27.8690  -25.3402   18.5271 H   0  0  0  0  0  0
  -29.5090  -25.2506   19.0844 H   0  0  0  0  0  0
  -27.8201  -22.1833   21.8109 H   0  0  0  0  0  0
  -29.2649  -15.2869   21.6479 H   0  0  0  0  0  0
  1 25  1  0  0  0
  1 30  2  0  0  0
  1 87  1  0  0  0
  2  3  1  0  0  0
  2 25  1  0  0  0
  2 89  1  0  0  0
  2 90  1  0  0  0
  3  4  1  0  0  0
  3 91  1  0  0  0
  3 92  1  0  0  0
  4  5  1  0  0  0
  4 93  1  0  0  0
  4 94  1  0  0  0
  5  6  1  0  0  0
  5 26  1  0  0  0
  5 95  1  0  0  0
  6 25  1  0  0  0
  6 96  1  0  0  0
  6 97  1  0  0  0
  7  8  2  0  0  0
  7 26  1  0  0  0
  7 29  1  0  0  0
  8  9  1  0  0  0
  8 22  1  0  0  0
  9 10  1  0  0  0
  9 27  2  0  0  0
 10 11  2  0  0  0
 10 15  1  0  0  0
 11 12  1  0  0  0
 11 98  1  0  0  0
 12 13  2  0  0  0
 12 99  1  0  0  0
 13 14  1  0  0  0
 13 31  1  0  0  0
 14 15  2  0  0  0
 14100  1  0  0  0
 15101  1  0  0  0
 16 17  2  0  0  0
 16 21  1  0  0  0
 16 31  1  0  0  0
 17 18  1  0  0  0
 17102  1  0  0  0
 18 19  2  0  0  0
 18103  1  0  0  0
 19 20  1  0  0  0
 19 24  1  0  0  0
 20 21  2  0  0  0
 20104  1  0  0  0
 21 23  1  0  0  0
 22 28  1  0  0  0
 22 32  2  0  0  0
 26 27  1  0  0  0
 28105  1  0  0  0
 28106  1  0  0  0
 29107  1  0  0  0
 29108  1  0  0  0
 33 34  1  0  0  0
 33 66  1  0  0  0
 33 70  2  0  0  0
 34 36  1  0  0  0
 34 59  1  0  0  0
 34109  1  0  0  0
 35 44  2  0  0  0
 35 45  1  0  0  0
 35 68  1  0  0  0
 36 56  1  0  0  0
 36110  1  0  0  0
 37 39  1  0  0  0
 37 47  1  0  0  0
 37 66  1  0  0  0
 37111  1  0  0  0
 38 43  2  0  0  0
 38 46  1  0  0  0
 38 47  1  0  0  0
 39 64  1  0  0  0
 39 67  2  0  0  0
 40 52  1  0  0  0
 40 53  2  0  0  0
 40 58  1  0  0  0
 41112  1  0  0  0
 41113  1  0  0  0
 41114  1  0  0  0
 41 48  1  0  0  0
 42 43  1  0  0  0
 42 66  1  0  0  0
 42115  1  0  0  0
 42116  1  0  0  0
 43 44  1  0  0  0
 44117  1  0  0  0
 45 46  2  0  0  0
 45118  1  0  0  0
 46119  1  0  0  0
 47120  1  0  0  0
 47121  1  0  0  0
 48 56  1  0  0  0
 48 65  1  0  0  0
 48122  1  0  0  0
 49 50  1  0  0  0
 49 53  1  0  0  0
 49 64  1  0  0  0
 49123  1  0  0  0
 50 51  1  0  0  0
 50124  1  0  0  0
 50125  1  0  0  0
 51 52  1  0  0  0
 51126  1  0  0  0
 51127  1  0  0  0
 52128  1  0  0  0
 52129  1  0  0  0
 53 54  1  0  0  0
 54 55  2  0  0  0
 54130  1  0  0  0
 55 57  1  0  0  0
 55131  1  0  0  0
 56 69  2  0  0  0
 57 58  2  0  0  0
 57132  1  0  0  0
 58133  1  0  0  0
 59 60  1  0  0  0
 59 61  1  0  0  0
 59 62  1  0  0  0
 60134  1  0  0  0
 60135  1  0  0  0
 60136  1  0  0  0
 61137  1  0  0  0
 61138  1  0  0  0
 61139  1  0  0  0
 62140  1  0  0  0
 62141  1  0  0  0
 62142  1  0  0  0
 63 65  1  0  0  0
 63143  1  0  0  0
 63144  1  0  0  0
 63145  1  0  0  0
 64146  1  0  0  0
 65147  1  0  0  0
 68 84  1  0  0  0
 71 72  2  0  0  0
 71 74  1  0  0  0
 71148  1  0  0  0
 72 76  1  0  0  0
 72149  1  0  0  0
 73 75  1  0  0  0
 73 76  2  0  0  0
 73150  1  0  0  0
 74 75  2  0  0  0
 74 82  1  0  0  0
 75 81  1  0  0  0
 76 86  1  0  0  0
 77 83  1  0  0  0
 77 84  1  0  0  0
 77 88  2  0  0  0
 78151  1  0  0  0
 78152  1  0  0  0
 78153  1  0  0  0
 78 85  1  0  0  0
 79 85  1  0  0  0
 79154  1  0  0  0
 79155  1  0  0  0
 79156  1  0  0  0
 80 85  1  0  0  0
 80157  1  0  0  0
 80158  1  0  0  0
 80159  1  0  0  0
 81 85  1  0  0  0
 81160  1  0  0  0
 81161  1  0  0  0
 82 87  1  0  0  0
 82162  1  0  0  0
 82163  1  0  0  0
 83 86  1  0  0  0
 83164  1  0  0  0
 83165  1  0  0  0
 84166  1  0  0  0
 84167  1  0  0  0
 86168  1  0  0  0
 87169  1  0  0  0
M  ISO  4   1 100  68 101  84 101  87 100
M  END
> <chiral flag>
0

> <version>
0

> <s_m_source_file>
/data/baiqing/PycharmProjects/Reinvent-master-3.2/result/LINK_invent/BTK/process_docking_weight1_custom_product_contain_oxygen_bond_distance_aromatic_linkinvent_7_9_3/rearranged_h_0165.sdf

> <i_m_source_file_index>
15

> <r_mmod_Potential_Energy-OPLS-2005>
-78.2479248046875

> <r_mmod_Stretch_Energy-OPLS-2005>
43.0677070617676

> <r_mmod_Bend_Energy-OPLS-2005>
120.280433654785

> <r_mmod_Torsional_Energy-OPLS-2005>
191.972564697266

> <r_mmod_Improper_Torsional_Energy-OPLS-2005>
4.79899740219116

> <r_mmod_Van_der_Waal_Energy-OPLS-2005>
152.507369995117

> <r_mmod_Electrostatic_Energy-OPLS-2005>
-380.920349121094

> <r_mmod_Solvation_Energy-OPLS-2005>
-225.645477294922

> <b_mmod_Minimization_Converged-OPLS-2005>
0

> <r_mmod_RMS_Derivative-OPLS-2005>
3.9708456993103

$$$$
15
                    3D
 Structure written by MMmdl.
162170  0  0  1  0            999 V2000
  -30.6768  -14.5146   20.5734 C   0  0  0  0  0  0
  -30.4275  -12.3383   19.4155 C   0  0  0  0  0  0
  -29.4895  -12.5030   18.2011 C   0  0  0  0  0  0
  -28.0139  -12.3510   18.6225 C   0  0  0  0  0  0
  -27.6562  -13.2053   19.8686 C   0  0  2  0  0  0
  -28.7006  -13.0023   20.9868 C   0  0  0  0  0  0
  -25.2571  -13.8148   20.5683 C   0  0  0  0  0  0
  -24.1822  -13.0428   20.9169 C   0  0  0  0  0  0
  -24.6382  -11.6897   20.8735 C   0  0  0  0  0  0
  -23.9056  -10.4288   21.0411 C   0  0  0  0  0  0
  -24.3613   -9.4204   21.9192 C   0  0  0  0  0  0
  -23.6289   -8.2240   22.0758 C   0  0  0  0  0  0
  -22.4270   -8.0278   21.3546 C   0  0  0  0  0  0
  -21.9906   -9.0251   20.4648 C   0  0  0  0  0  0
  -22.7233  -10.2131   20.3057 C   0  0  0  0  0  0
  -21.6850   -6.0736   22.5280 C   0  0  0  0  0  0
  -21.4012   -6.5636   23.8213 C   0  0  0  0  0  0
  -21.3655   -5.6789   24.9175 C   0  0  0  0  0  0
  -21.6045   -4.3055   24.7226 C   0  0  0  0  0  0
  -21.8819   -3.8148   23.4345 C   0  0  0  0  0  0
  -21.9193   -4.6965   22.3403 C   0  0  0  0  0  0
  -22.7851  -13.5229   21.1847 C   0  0  0  0  0  0
  -22.1659   -4.2148   21.0984 F   0  0  0  0  0  0
  -21.5632   -3.4540   25.7740 F   0  0  0  0  0  0
  -30.0214  -13.3294   20.4244 N   0  0  0  0  0  0
  -26.3000  -12.9317   20.3360 N   0  0  0  0  0  0
  -25.9308  -11.6479   20.5777 N   0  0  0  0  0  0
  -22.0500  -12.8219   22.0406 N   0  0  0  0  0  0
  -25.4292  -15.1868   20.4122 N   0  0  0  0  0  0
  -31.8224  -14.6989   20.1538 O   0  0  0  0  0  0
  -21.6635   -6.8876   21.4243 O   0  0  0  0  0  0
  -22.3540  -14.5543   20.6707 O   0  0  0  0  0  0
  -24.6187  -31.8644   23.2074 C   0  0  0  0  0  0
  -25.9064  -32.4805   23.8377 C   0  0  1  0  0  0
  -27.2242  -27.3974   20.1049 C   0  0  0  0  0  0
  -25.5900  -33.8602   24.2308 N   0  0  0  0  0  0
  -23.4083  -30.4885   21.5484 C   0  0  2  0  0  0
  -24.8530  -28.9499   20.1143 C   0  0  0  0  0  0
  -22.7432  -29.4634   22.4969 C   0  0  0  0  0  0
  -18.0270  -28.1380   22.8488 C   0  0  0  0  0  0
  -24.1481  -36.7307   23.2641 C   0  0  0  0  0  0
  -25.9402  -30.8213   21.3628 C   0  0  0  0  0  0
  -26.0174  -29.4526   20.7103 C   0  0  0  0  0  0
  -27.2104  -28.6864   20.6956 C   0  0  0  0  0  0
  -26.0447  -26.9173   19.4988 C   0  0  0  0  0  0
  -24.8648  -27.6847   19.5017 C   0  0  0  0  0  0
  -23.6176  -29.8219   20.1625 C   0  0  0  0  0  0
  -25.4100  -36.3099   24.0347 C   0  0  1  0  0  0
  -20.5864  -28.3669   23.1318 C   0  0  2  0  0  0
  -20.6765  -26.9403   22.5418 C   0  0  0  0  0  0
  -19.5744  -26.6389   21.5217 C   0  0  0  0  0  0
  -18.1921  -26.7927   22.1621 C   0  0  0  0  0  0
  -19.1520  -28.8839   23.2900 C   0  0  0  0  0  0
  -18.9449  -30.1443   23.8918 C   0  0  0  0  0  0
  -17.6455  -30.6591   24.0561 C   0  0  0  0  0  0
  -25.9039  -34.9466   23.5125 C   0  0  0  0  0  0
  -16.5345  -29.9087   23.6337 C   0  0  0  0  0  0
  -16.7256  -28.6505   23.0362 C   0  0  0  0  0  0
  -26.4472  -31.6598   25.0720 C   0  0  0  0  0  0
  -25.3739  -31.3706   26.1471 C   0  0  0  0  0  0
  -27.0296  -30.3042   24.6099 C   0  0  0  0  0  0
  -27.6051  -32.4315   25.7473 C   0  0  0  0  0  0
  -27.5574  -37.1805   24.8467 C   0  0  0  0  0  0
  -21.4151  -29.3031   22.3723 N   0  0  0  0  0  0
  -26.4281  -37.3792   23.9424 N   0  0  0  0  0  0
  -24.6749  -31.0726   22.0980 N   0  0  0  0  0  0
  -23.4196  -28.8166   23.3010 O   0  0  0  0  0  0
  -28.3584  -26.6080   20.1021 O   0  0  0  0  0  0
  -26.5603  -34.8922   22.4688 O   0  0  0  0  0  0
  -23.5376  -32.1379   23.7473 O   0  0  0  0  0  0
  -31.2789  -18.1782   19.7285 C   0  0  0  0  0  0
  -31.4099  -19.3656   18.9923 C   0  0  0  0  0  0
  -29.4538  -19.1903   21.0163 C   0  0  0  0  0  0
  -30.3286  -18.0731   20.7627 C   0  0  0  0  0  0
  -29.5792  -20.4109   20.2553 C   0  0  0  0  0  0
  -30.5864  -20.4709   19.2607 C   0  0  0  0  0  0
  -28.3915  -19.0313   22.0497 C   0  0  0  0  0  0
  -28.5556  -24.0890   19.9789 C   0  0  0  0  0  0
  -27.3516  -19.7133   24.3007 C   0  0  0  0  0  0
  -30.4212  -16.8045   21.6540 C   0  0  0  0  0  0
  -28.4361  -19.9927   23.2448 C   0  0  0  0  0  0
  -29.2668  -22.8910   20.6773 C   0  0  0  0  0  0
  -28.2336  -25.3525   20.8245 C   0  0  0  0  0  0
  -28.7184  -21.5389   20.3997 N   0  0  0  0  0  0
  -29.9471  -15.5156   21.1134 N   0  0  0  0  0  0
  -27.5522  -18.1258   22.0090 O   0  0  0  0  0  0
  -28.2335  -24.0211   18.7872 O   0  0  0  0  0  0
  -30.7519  -21.5905   18.5139 F   0  0  0  0  0  0
  -31.4687  -12.4572   19.1098 H   0  0  0  0  0  0
  -30.3505  -11.3302   19.8265 H   0  0  0  0  0  0
  -29.7340  -11.7662   17.4341 H   0  0  0  0  0  0
  -29.6428  -13.4823   17.7442 H   0  0  0  0  0  0
  -27.8411  -11.2960   18.8404 H   0  0  0  0  0  0
  -27.3541  -12.6007   17.7906 H   0  0  0  0  0  0
  -27.6934  -14.2497   19.5573 H   0  0  0  0  0  0
  -28.6932  -11.9650   21.3280 H   0  0  0  0  0  0
  -28.4572  -13.5980   21.8672 H   0  0  0  0  0  0
  -25.2758   -9.5681   22.4765 H   0  0  0  0  0  0
  -23.9995   -7.4634   22.7477 H   0  0  0  0  0  0
  -21.0838   -8.8776   19.8954 H   0  0  0  0  0  0
  -22.3698  -10.9674   19.6166 H   0  0  0  0  0  0
  -21.1999   -7.6141   23.9715 H   0  0  0  0  0  0
  -21.1476   -6.0520   25.9076 H   0  0  0  0  0  0
  -22.0602   -2.7607   23.2851 H   0  0  0  0  0  0
  -22.4116  -11.9865   22.4768 H   0  0  0  0  0  0
  -21.1133  -13.1262   22.2645 H   0  0  0  0  0  0
  -24.6669  -15.8437   20.5374 H   0  0  0  0  0  0
  -26.2966  -15.6377   20.1494 H   0  0  0  0  0  0
  -26.7129  -32.5501   23.1133 H   0  0  0  0  0  0
  -25.0067  -33.9764   25.0460 H   0  0  0  0  0  0
  -22.6973  -31.3052   21.4091 H   0  0  0  0  0  0
  -23.3750  -35.9636   23.3296 H   0  0  0  0  0  0
  -24.3570  -36.8929   22.2058 H   0  0  0  0  0  0
  -23.7223  -37.6507   23.6658 H   0  0  0  0  0  0
  -26.0568  -31.5836   20.5907 H   0  0  0  0  0  0
  -26.8276  -30.8750   21.9821 H   0  0  0  0  0  0
  -28.1093  -29.0692   21.1592 H   0  0  0  0  0  0
  -26.0355  -25.9455   19.0249 H   0  0  0  0  0  0
  -23.9713  -27.2977   19.0323 H   0  0  0  0  0  0
  -23.7282  -30.5974   19.4031 H   0  0  0  0  0  0
  -22.7408  -29.2455   19.8648 H   0  0  0  0  0  0
  -25.1271  -36.1964   25.0839 H   0  0  0  0  0  0
  -20.9944  -28.3238   24.1443 H   0  0  0  0  0  0
  -20.5686  -26.2272   23.3601 H   0  0  0  0  0  0
  -21.6638  -26.7457   22.1189 H   0  0  0  0  0  0
  -19.6909  -25.6301   21.1242 H   0  0  0  0  0  0
  -19.6701  -27.3205   20.6751 H   0  0  0  0  0  0
  -17.4191  -26.6684   21.4023 H   0  0  0  0  0  0
  -18.0316  -26.0058   22.9004 H   0  0  0  0  0  0
  -19.7928  -30.7244   24.2310 H   0  0  0  0  0  0
  -17.5012  -31.6281   24.5145 H   0  0  0  0  0  0
  -15.5344  -30.2998   23.7662 H   0  0  0  0  0  0
  -15.8653  -28.0829   22.7090 H   0  0  0  0  0  0
  -24.5893  -30.7076   25.7804 H   0  0  0  0  0  0
  -24.8954  -32.2864   26.4958 H   0  0  0  0  0  0
  -25.8090  -30.8837   27.0206 H   0  0  0  0  0  0
  -26.2823  -29.6808   24.1172 H   0  0  0  0  0  0
  -27.4083  -29.7286   25.4551 H   0  0  0  0  0  0
  -27.8650  -30.4362   23.9222 H   0  0  0  0  0  0
  -27.2688  -33.3637   26.2020 H   0  0  0  0  0  0
  -28.3869  -32.6830   25.0297 H   0  0  0  0  0  0
  -28.0687  -31.8443   26.5411 H   0  0  0  0  0  0
  -28.2591  -38.0100   24.7513 H   0  0  0  0  0  0
  -28.1070  -36.2636   24.6283 H   0  0  0  0  0  0
  -27.2297  -37.1429   25.8869 H   0  0  0  0  0  0
  -20.9325  -29.8750   21.6933 H   0  0  0  0  0  0
  -26.0174  -38.2878   24.1417 H   0  0  0  0  0  0
  -31.9492  -17.3545   19.5219 H   0  0  0  0  0  0
  -32.1586  -19.4360   18.2177 H   0  0  0  0  0  0
  -27.4660  -20.3759   25.1590 H   0  0  0  0  0  0
  -27.4051  -18.6868   24.6665 H   0  0  0  0  0  0
  -26.3534  -19.8713   23.8905 H   0  0  0  0  0  0
  -29.9230  -16.9523   22.6110 H   0  0  0  0  0  0
  -31.4704  -16.6869   21.9322 H   0  0  0  0  0  0
  -28.3403  -21.0180   22.8924 H   0  0  0  0  0  0
  -29.4218  -19.9125   23.7035 H   0  0  0  0  0  0
  -29.2144  -23.0589   21.7542 H   0  0  0  0  0  0
  -30.3267  -22.9405   20.4260 H   0  0  0  0  0  0
  -28.8978  -25.3798   21.6868 H   0  0  0  0  0  0
  -27.2249  -25.2323   21.2220 H   0  0  0  0  0  0
  -27.7847  -21.3847   20.7651 H   0  0  0  0  0  0
  -28.9972  -15.2710   21.3482 H   0  0  0  0  0  0
  1 25  1  0  0  0
  1 30  2  0  0  0
  1 85  1  0  0  0
  2  3  1  0  0  0
  2 25  1  0  0  0
  2 89  1  0  0  0
  2 90  1  0  0  0
  3  4  1  0  0  0
  3 91  1  0  0  0
  3 92  1  0  0  0
  4  5  1  0  0  0
  4 93  1  0  0  0
  4 94  1  0  0  0
  5  6  1  0  0  0
  5 26  1  0  0  0
  5 95  1  0  0  0
  6 25  1  0  0  0
  6 96  1  0  0  0
  6 97  1  0  0  0
  7  8  2  0  0  0
  7 26  1  0  0  0
  7 29  1  0  0  0
  8  9  1  0  0  0
  8 22  1  0  0  0
  9 10  1  0  0  0
  9 27  2  0  0  0
 10 11  2  0  0  0
 10 15  1  0  0  0
 11 12  1  0  0  0
 11 98  1  0  0  0
 12 13  2  0  0  0
 12 99  1  0  0  0
 13 14  1  0  0  0
 13 31  1  0  0  0
 14 15  2  0  0  0
 14100  1  0  0  0
 15101  1  0  0  0
 16 17  2  0  0  0
 16 21  1  0  0  0
 16 31  1  0  0  0
 17 18  1  0  0  0
 17102  1  0  0  0
 18 19  2  0  0  0
 18103  1  0  0  0
 19 20  1  0  0  0
 19 24  1  0  0  0
 20 21  2  0  0  0
 20104  1  0  0  0
 21 23  1  0  0  0
 22 28  1  0  0  0
 22 32  2  0  0  0
 26 27  1  0  0  0
 28105  1  0  0  0
 28106  1  0  0  0
 29107  1  0  0  0
 29108  1  0  0  0
 33 34  1  0  0  0
 33 66  1  0  0  0
 33 70  2  0  0  0
 34 36  1  0  0  0
 34 59  1  0  0  0
 34109  1  0  0  0
 35 44  2  0  0  0
 35 45  1  0  0  0
 35 68  1  0  0  0
 36 56  1  0  0  0
 36110  1  0  0  0
 37 39  1  0  0  0
 37 47  1  0  0  0
 37 66  1  0  0  0
 37111  1  0  0  0
 38 43  2  0  0  0
 38 46  1  0  0  0
 38 47  1  0  0  0
 39 64  1  0  0  0
 39 67  2  0  0  0
 40 52  1  0  0  0
 40 53  2  0  0  0
 40 58  1  0  0  0
 41112  1  0  0  0
 41113  1  0  0  0
 41114  1  0  0  0
 41 48  1  0  0  0
 42 43  1  0  0  0
 42 66  1  0  0  0
 42115  1  0  0  0
 42116  1  0  0  0
 43 44  1  0  0  0
 44117  1  0  0  0
 45 46  2  0  0  0
 45118  1  0  0  0
 46119  1  0  0  0
 47120  1  0  0  0
 47121  1  0  0  0
 48 56  1  0  0  0
 48 65  1  0  0  0
 48122  1  0  0  0
 49 50  1  0  0  0
 49 53  1  0  0  0
 49 64  1  0  0  0
 49123  1  0  0  0
 50 51  1  0  0  0
 50124  1  0  0  0
 50125  1  0  0  0
 51 52  1  0  0  0
 51126  1  0  0  0
 51127  1  0  0  0
 52128  1  0  0  0
 52129  1  0  0  0
 53 54  1  0  0  0
 54 55  2  0  0  0
 54130  1  0  0  0
 55 57  1  0  0  0
 55131  1  0  0  0
 56 69  2  0  0  0
 57 58  2  0  0  0
 57132  1  0  0  0
 58133  1  0  0  0
 59 60  1  0  0  0
 59 61  1  0  0  0
 59 62  1  0  0  0
 60134  1  0  0  0
 60135  1  0  0  0
 60136  1  0  0  0
 61137  1  0  0  0
 61138  1  0  0  0
 61139  1  0  0  0
 62140  1  0  0  0
 62141  1  0  0  0
 62142  1  0  0  0
 63 65  1  0  0  0
 63143  1  0  0  0
 63144  1  0  0  0
 63145  1  0  0  0
 64146  1  0  0  0
 65147  1  0  0  0
 68 83  1  0  0  0
 71 72  2  0  0  0
 71 74  1  0  0  0
 71148  1  0  0  0
 72 76  1  0  0  0
 72149  1  0  0  0
 73 74  2  0  0  0
 73 75  1  0  0  0
 73 77  1  0  0  0
 74 80  1  0  0  0
 75 76  2  0  0  0
 75 84  1  0  0  0
 76 88  1  0  0  0
 77 81  1  0  0  0
 77 86  2  0  0  0
 78 82  1  0  0  0
 78 83  1  0  0  0
 78 87  2  0  0  0
 79 81  1  0  0  0
 79150  1  0  0  0
 79151  1  0  0  0
 79152  1  0  0  0
 80 85  1  0  0  0
 80153  1  0  0  0
 80154  1  0  0  0
 81155  1  0  0  0
 81156  1  0  0  0
 82 84  1  0  0  0
 82157  1  0  0  0
 82158  1  0  0  0
 83159  1  0  0  0
 83160  1  0  0  0
 84161  1  0  0  0
 85162  1  0  0  0
M  ISO  4   1 100  68 101  83 101  85 100
M  END
> <chiral flag>
0

> <version>
0

> <s_m_source_file>
/data/baiqing/PycharmProjects/Reinvent-master-3.2/result/LINK_invent/BTK/process_docking_weight1_custom_product_contain_oxygen_bond_distance_aromatic_linkinvent_7_9_3/rearranged_h_0165.sdf

> <i_m_source_file_index>
16

> <r_mmod_Potential_Energy-OPLS-2005>
91.561767578125

> <r_mmod_Stretch_Energy-OPLS-2005>
53.8583030700684

> <r_mmod_Bend_Energy-OPLS-2005>
113.03621673584

> <r_mmod_Torsional_Energy-OPLS-2005>
280.662170410156

> <r_mmod_Improper_Torsional_Energy-OPLS-2005>
6.12468338012695

> <r_mmod_Van_der_Waal_Energy-OPLS-2005>
145.91455078125

> <r_mmod_Electrostatic_Energy-OPLS-2005>
-284.986724853516

> <r_mmod_Solvation_Energy-OPLS-2005>
-242.863311767578

> <b_mmod_Minimization_Converged-OPLS-2005>
0

> <r_mmod_RMS_Derivative-OPLS-2005>
1.89158177375793

$$$$
16
                    3D
 Structure written by MMmdl.
162170  0  0  1  0            999 V2000
  -30.6628  -14.4923   20.5867 C   0  0  0  0  0  0
  -30.4323  -12.3284   19.4106 C   0  0  0  0  0  0
  -29.4942  -12.5123   18.1992 C   0  0  0  0  0  0
  -28.0173  -12.3644   18.6170 C   0  0  0  0  0  0
  -27.6612  -13.2016   19.8740 C   0  0  2  0  0  0
  -28.7017  -12.9720   20.9913 C   0  0  0  0  0  0
  -25.2593  -13.8151   20.5679 C   0  0  0  0  0  0
  -24.1842  -13.0441   20.9165 C   0  0  0  0  0  0
  -24.6386  -11.6897   20.8742 C   0  0  0  0  0  0
  -23.9054  -10.4295   21.0409 C   0  0  0  0  0  0
  -24.3607   -9.4210   21.9189 C   0  0  0  0  0  0
  -23.6280   -8.2250   22.0756 C   0  0  0  0  0  0
  -22.4264   -8.0293   21.3546 C   0  0  0  0  0  0
  -21.9905   -9.0264   20.4644 C   0  0  0  0  0  0
  -22.7226  -10.2144   20.3060 C   0  0  0  0  0  0
  -21.6859   -6.0743   22.5271 C   0  0  0  0  0  0
  -21.4005   -6.5645   23.8203 C   0  0  0  0  0  0
  -21.3659   -5.6795   24.9167 C   0  0  0  0  0  0
  -21.6053   -4.3057   24.7222 C   0  0  0  0  0  0
  -21.8819   -3.8151   23.4339 C   0  0  0  0  0  0
  -21.9185   -4.6969   22.3392 C   0  0  0  0  0  0
  -22.7872  -13.5244   21.1837 C   0  0  0  0  0  0
  -22.1661   -4.2157   21.0974 F   0  0  0  0  0  0
  -21.5635   -3.4542   25.7733 F   0  0  0  0  0  0
  -30.0258  -13.2998   20.4378 N   0  0  0  0  0  0
  -26.3024  -12.9318   20.3359 N   0  0  0  0  0  0
  -25.9308  -11.6485   20.5753 N   0  0  0  0  0  0
  -22.0515  -12.8248   22.0393 N   0  0  0  0  0  0
  -25.4346  -15.1878   20.4106 N   0  0  0  0  0  0
  -31.7970  -14.7078   20.1493 O   0  0  0  0  0  0
  -21.6641   -6.8891   21.4231 O   0  0  0  0  0  0
  -22.3574  -14.5559   20.6683 O   0  0  0  0  0  0
  -24.6173  -31.8639   23.2091 C   0  0  0  0  0  0
  -25.9053  -32.4800   23.8406 C   0  0  1  0  0  0
  -27.2376  -27.3973   20.0985 C   0  0  0  0  0  0
  -25.5867  -33.8577   24.2321 N   0  0  0  0  0  0
  -23.4066  -30.4904   21.5495 C   0  0  2  0  0  0
  -24.8546  -28.9517   20.1102 C   0  0  0  0  0  0
  -22.7430  -29.4647   22.4975 C   0  0  0  0  0  0
  -18.0283  -28.1356   22.8525 C   0  0  0  0  0  0
  -24.1462  -36.7332   23.2655 C   0  0  0  0  0  0
  -25.9405  -30.8193   21.3671 C   0  0  0  0  0  0
  -26.0147  -29.4508   20.7125 C   0  0  0  0  0  0
  -27.2040  -28.6800   20.7060 C   0  0  0  0  0  0
  -26.0507  -26.9168   19.4957 C   0  0  0  0  0  0
  -24.8696  -27.6859   19.4980 C   0  0  0  0  0  0
  -23.6154  -29.8214   20.1654 C   0  0  0  0  0  0
  -25.4088  -36.3083   24.0336 C   0  0  1  0  0  0
  -20.5870  -28.3668   23.1307 C   0  0  2  0  0  0
  -20.6737  -26.9392   22.5416 C   0  0  0  0  0  0
  -19.5700  -26.6374   21.5217 C   0  0  0  0  0  0
  -18.1890  -26.7912   22.1635 C   0  0  0  0  0  0
  -19.1532  -28.8832   23.2916 C   0  0  0  0  0  0
  -18.9458  -30.1438   23.8930 C   0  0  0  0  0  0
  -17.6453  -30.6581   24.0570 C   0  0  0  0  0  0
  -25.9015  -34.9448   23.5142 C   0  0  0  0  0  0
  -16.5338  -29.9090   23.6321 C   0  0  0  0  0  0
  -16.7267  -28.6482   23.0380 C   0  0  0  0  0  0
  -26.4491  -31.6599   25.0750 C   0  0  0  0  0  0
  -25.3744  -31.3669   26.1485 C   0  0  0  0  0  0
  -27.0394  -30.3037   24.6188 C   0  0  0  0  0  0
  -27.6049  -32.4368   25.7499 C   0  0  0  0  0  0
  -27.5581  -37.1797   24.8463 C   0  0  0  0  0  0
  -21.4151  -29.3032   22.3705 N   0  0  0  0  0  0
  -26.4273  -37.3780   23.9420 N   0  0  0  0  0  0
  -24.6745  -31.0715   22.1005 N   0  0  0  0  0  0
  -23.4189  -28.8187   23.3022 O   0  0  0  0  0  0
  -28.4150  -26.6619   20.1420 O   0  0  0  0  0  0
  -26.5610  -34.8906   22.4725 O   0  0  0  0  0  0
  -23.5357  -32.1406   23.7461 O   0  0  0  0  0  0
  -29.9267  -18.8425   18.2546 C   0  0  0  0  0  0
  -30.1644  -17.8085   19.1724 C   0  0  0  0  0  0
  -29.4046  -20.0737   18.6883 C   0  0  0  0  0  0
  -29.2630  -19.2104   20.9680 C   0  0  0  0  0  0
  -29.8570  -17.9728   20.5381 C   0  0  0  0  0  0
  -29.0663  -20.2957   20.0438 C   0  0  0  0  0  0
  -28.7961  -19.3270   22.3749 C   0  0  0  0  0  0
  -28.3441  -24.1300   20.2401 C   0  0  0  0  0  0
  -29.1263  -20.2319   24.7507 C   0  0  0  0  0  0
  -30.2873  -16.8392   21.5041 C   0  0  0  0  0  0
  -29.6814  -20.1426   23.3189 C   0  0  0  0  0  0
  -28.6708  -22.7683   19.5637 C   0  0  0  0  0  0
  -28.5580  -25.4221   19.3980 C   0  0  0  0  0  0
  -28.5513  -21.5676   20.4264 N   0  0  0  0  0  0
  -29.9070  -15.4657   21.1364 N   0  0  0  0  0  0
  -27.7821  -18.7584   22.7911 O   0  0  0  0  0  0
  -27.9363  -24.1693   21.4075 O   0  0  0  0  0  0
  -31.4718  -12.4590   19.1033 H   0  0  0  0  0  0
  -30.3602  -11.3138   19.8050 H   0  0  0  0  0  0
  -29.7345  -11.7850   17.4230 H   0  0  0  0  0  0
  -29.6526  -13.4972   17.7577 H   0  0  0  0  0  0
  -27.8313  -11.3081   18.8136 H   0  0  0  0  0  0
  -27.3629  -12.6390   17.7901 H   0  0  0  0  0  0
  -27.7078  -14.2499   19.5810 H   0  0  0  0  0  0
  -28.6880  -11.9310   21.3190 H   0  0  0  0  0  0
  -28.4556  -13.5538   21.8809 H   0  0  0  0  0  0
  -25.2758   -9.5698   22.4760 H   0  0  0  0  0  0
  -23.9988   -7.4660   22.7493 H   0  0  0  0  0  0
  -21.0847   -8.8793   19.8963 H   0  0  0  0  0  0
  -22.3692  -10.9689   19.6185 H   0  0  0  0  0  0
  -21.1999   -7.6160   23.9706 H   0  0  0  0  0  0
  -21.1488   -6.0534   25.9075 H   0  0  0  0  0  0
  -22.0603   -2.7613   23.2835 H   0  0  0  0  0  0
  -22.4119  -11.9900   22.4768 H   0  0  0  0  0  0
  -21.1142  -13.1305   22.2618 H   0  0  0  0  0  0
  -24.6689  -15.8443   20.5214 H   0  0  0  0  0  0
  -26.2918  -15.6278   20.0984 H   0  0  0  0  0  0
  -26.7139  -32.5488   23.1183 H   0  0  0  0  0  0
  -24.9870  -33.9699   25.0364 H   0  0  0  0  0  0
  -22.6977  -31.3101   21.4119 H   0  0  0  0  0  0
  -23.3694  -35.9689   23.3289 H   0  0  0  0  0  0
  -24.3544  -36.9003   22.2076 H   0  0  0  0  0  0
  -23.7239  -37.6530   23.6712 H   0  0  0  0  0  0
  -26.0486  -31.5812   20.5948 H   0  0  0  0  0  0
  -26.8289  -30.8759   21.9851 H   0  0  0  0  0  0
  -28.0991  -29.0640   21.1802 H   0  0  0  0  0  0
  -26.0041  -25.9394   19.0397 H   0  0  0  0  0  0
  -23.9736  -27.2971   19.0334 H   0  0  0  0  0  0
  -23.7218  -30.5949   19.4045 H   0  0  0  0  0  0
  -22.7362  -29.2428   19.8756 H   0  0  0  0  0  0
  -25.1261  -36.1945   25.0832 H   0  0  0  0  0  0
  -21.0003  -28.3252   24.1407 H   0  0  0  0  0  0
  -20.5614  -26.2285   23.3609 H   0  0  0  0  0  0
  -21.6604  -26.7384   22.1220 H   0  0  0  0  0  0
  -19.6839  -25.6300   21.1221 H   0  0  0  0  0  0
  -19.6614  -27.3203   20.6756 H   0  0  0  0  0  0
  -17.4154  -26.6697   21.4037 H   0  0  0  0  0  0
  -18.0267  -26.0046   22.9017 H   0  0  0  0  0  0
  -19.7924  -30.7252   24.2304 H   0  0  0  0  0  0
  -17.4996  -31.6259   24.5182 H   0  0  0  0  0  0
  -15.5327  -30.3001   23.7613 H   0  0  0  0  0  0
  -15.8655  -28.0796   22.7105 H   0  0  0  0  0  0
  -24.5934  -30.7020   25.7793 H   0  0  0  0  0  0
  -24.8894  -32.2789   26.4964 H   0  0  0  0  0  0
  -25.8085  -30.8809   27.0229 H   0  0  0  0  0  0
  -26.2978  -29.6674   24.1339 H   0  0  0  0  0  0
  -27.4281  -29.7396   25.4684 H   0  0  0  0  0  0
  -27.8737  -30.4369   23.9291 H   0  0  0  0  0  0
  -27.2687  -33.3700   26.2028 H   0  0  0  0  0  0
  -28.3855  -32.6892   25.0312 H   0  0  0  0  0  0
  -28.0723  -31.8531   26.5439 H   0  0  0  0  0  0
  -28.2567  -38.0129   24.7560 H   0  0  0  0  0  0
  -28.1121  -36.2661   24.6237 H   0  0  0  0  0  0
  -27.2299  -37.1400   25.8865 H   0  0  0  0  0  0
  -20.9312  -29.8787   21.6955 H   0  0  0  0  0  0
  -26.0159  -38.2847   24.1454 H   0  0  0  0  0  0
  -30.1682  -18.6987   17.2099 H   0  0  0  0  0  0
  -30.6147  -16.8883   18.8237 H   0  0  0  0  0  0
  -29.2567  -20.8405   17.9424 H   0  0  0  0  0  0
  -29.7416  -20.8900   25.3631 H   0  0  0  0  0  0
  -29.1077  -19.2510   25.2280 H   0  0  0  0  0  0
  -28.1097  -20.6275   24.7578 H   0  0  0  0  0  0
  -29.9099  -16.9891   22.5150 H   0  0  0  0  0  0
  -31.3727  -16.8924   21.6028 H   0  0  0  0  0  0
  -29.7997  -21.1434   22.9039 H   0  0  0  0  0  0
  -30.6733  -19.6899   23.3282 H   0  0  0  0  0  0
  -29.6870  -22.8289   19.1710 H   0  0  0  0  0  0
  -28.0049  -22.6602   18.7056 H   0  0  0  0  0  0
  -27.9427  -25.4035   18.5013 H   0  0  0  0  0  0
  -29.5877  -25.3891   19.0404 H   0  0  0  0  0  0
  -28.1833  -21.7389   21.3600 H   0  0  0  0  0  0
  -28.9815  -15.1801   21.4163 H   0  0  0  0  0  0
  1 25  1  0  0  0
  1 30  2  0  0  0
  1 85  1  0  0  0
  2  3  1  0  0  0
  2 25  1  0  0  0
  2 88  1  0  0  0
  2 89  1  0  0  0
  3  4  1  0  0  0
  3 90  1  0  0  0
  3 91  1  0  0  0
  4  5  1  0  0  0
  4 92  1  0  0  0
  4 93  1  0  0  0
  5  6  1  0  0  0
  5 26  1  0  0  0
  5 94  1  0  0  0
  6 25  1  0  0  0
  6 95  1  0  0  0
  6 96  1  0  0  0
  7  8  2  0  0  0
  7 26  1  0  0  0
  7 29  1  0  0  0
  8  9  1  0  0  0
  8 22  1  0  0  0
  9 10  1  0  0  0
  9 27  2  0  0  0
 10 11  2  0  0  0
 10 15  1  0  0  0
 11 12  1  0  0  0
 11 97  1  0  0  0
 12 13  2  0  0  0
 12 98  1  0  0  0
 13 14  1  0  0  0
 13 31  1  0  0  0
 14 15  2  0  0  0
 14 99  1  0  0  0
 15100  1  0  0  0
 16 17  2  0  0  0
 16 21  1  0  0  0
 16 31  1  0  0  0
 17 18  1  0  0  0
 17101  1  0  0  0
 18 19  2  0  0  0
 18102  1  0  0  0
 19 20  1  0  0  0
 19 24  1  0  0  0
 20 21  2  0  0  0
 20103  1  0  0  0
 21 23  1  0  0  0
 22 28  1  0  0  0
 22 32  2  0  0  0
 26 27  1  0  0  0
 28104  1  0  0  0
 28105  1  0  0  0
 29106  1  0  0  0
 29107  1  0  0  0
 33 34  1  0  0  0
 33 66  1  0  0  0
 33 70  2  0  0  0
 34 36  1  0  0  0
 34 59  1  0  0  0
 34108  1  0  0  0
 35 44  2  0  0  0
 35 45  1  0  0  0
 35 68  1  0  0  0
 36 56  1  0  0  0
 36109  1  0  0  0
 37 39  1  0  0  0
 37 47  1  0  0  0
 37 66  1  0  0  0
 37110  1  0  0  0
 38 43  2  0  0  0
 38 46  1  0  0  0
 38 47  1  0  0  0
 39 64  1  0  0  0
 39 67  2  0  0  0
 40 52  1  0  0  0
 40 53  2  0  0  0
 40 58  1  0  0  0
 41111  1  0  0  0
 41112  1  0  0  0
 41113  1  0  0  0
 41 48  1  0  0  0
 42 43  1  0  0  0
 42 66  1  0  0  0
 42114  1  0  0  0
 42115  1  0  0  0
 43 44  1  0  0  0
 44116  1  0  0  0
 45 46  2  0  0  0
 45117  1  0  0  0
 46118  1  0  0  0
 47119  1  0  0  0
 47120  1  0  0  0
 48 56  1  0  0  0
 48 65  1  0  0  0
 48121  1  0  0  0
 49 50  1  0  0  0
 49 53  1  0  0  0
 49 64  1  0  0  0
 49122  1  0  0  0
 50 51  1  0  0  0
 50123  1  0  0  0
 50124  1  0  0  0
 51 52  1  0  0  0
 51125  1  0  0  0
 51126  1  0  0  0
 52127  1  0  0  0
 52128  1  0  0  0
 53 54  1  0  0  0
 54 55  2  0  0  0
 54129  1  0  0  0
 55 57  1  0  0  0
 55130  1  0  0  0
 56 69  2  0  0  0
 57 58  2  0  0  0
 57131  1  0  0  0
 58132  1  0  0  0
 59 60  1  0  0  0
 59 61  1  0  0  0
 59 62  1  0  0  0
 60133  1  0  0  0
 60134  1  0  0  0
 60135  1  0  0  0
 61136  1  0  0  0
 61137  1  0  0  0
 61138  1  0  0  0
 62139  1  0  0  0
 62140  1  0  0  0
 62141  1  0  0  0
 63 65  1  0  0  0
 63142  1  0  0  0
 63143  1  0  0  0
 63144  1  0  0  0
 64145  1  0  0  0
 65146  1  0  0  0
 68 83  1  0  0  0
 71 72  2  0  0  0
 71 73  1  0  0  0
 71147  1  0  0  0
 72 75  1  0  0  0
 72148  1  0  0  0
 73 76  2  0  0  0
 73149  1  0  0  0
 74 75  2  0  0  0
 74 76  1  0  0  0
 74 77  1  0  0  0
 75 80  1  0  0  0
 76 84  1  0  0  0
 77 81  1  0  0  0
 77 86  2  0  0  0
 78 82  1  0  0  0
 78 83  1  0  0  0
 78 87  2  0  0  0
 79 81  1  0  0  0
 79150  1  0  0  0
 79151  1  0  0  0
 79152  1  0  0  0
 80 85  1  0  0  0
 80153  1  0  0  0
 80154  1  0  0  0
 81155  1  0  0  0
 81156  1  0  0  0
 82 84  1  0  0  0
 82157  1  0  0  0
 82158  1  0  0  0
 83159  1  0  0  0
 83160  1  0  0  0
 84161  1  0  0  0
 85162  1  0  0  0
M  ISO  4   1 100  68 101  83 101  85 100
M  END
> <chiral flag>
0

> <version>
0

> <s_m_source_file>
/data/baiqing/PycharmProjects/Reinvent-master-3.2/result/LINK_invent/BTK/process_docking_weight1_custom_product_contain_oxygen_bond_distance_aromatic_linkinvent_7_9_3/rearranged_h_0165.sdf

> <i_m_source_file_index>
17

> <r_mmod_Potential_Energy-OPLS-2005>
29.9099311828613

> <r_mmod_Stretch_Energy-OPLS-2005>
51.9617881774902

> <r_mmod_Bend_Energy-OPLS-2005>
122.778373718262

> <r_mmod_Torsional_Energy-OPLS-2005>
232.570770263672

> <r_mmod_Improper_Torsional_Energy-OPLS-2005>
3.75570511817932

> <r_mmod_Van_der_Waal_Energy-OPLS-2005>
154.294830322266

> <r_mmod_Electrostatic_Energy-OPLS-2005>
-311.739105224609

> <r_mmod_Solvation_Energy-OPLS-2005>
-241.053695678711

> <b_mmod_Minimization_Converged-OPLS-2005>
0

> <r_mmod_RMS_Derivative-OPLS-2005>
3.35219645500183

$$$$
17
                    3D
 Structure written by MMmdl.
155163  0  0  1  0            999 V2000
  -30.7127  -14.4877   20.5632 C   0  0  0  0  0  0
  -30.4176  -12.3143   19.4303 C   0  0  0  0  0  0
  -29.4934  -12.5009   18.2098 C   0  0  0  0  0  0
  -28.0156  -12.3597   18.6228 C   0  0  0  0  0  0
  -27.6583  -13.2109   19.8710 C   0  0  2  0  0  0
  -28.7010  -13.0183   20.9963 C   0  0  0  0  0  0
  -25.2574  -13.8169   20.5679 C   0  0  0  0  0  0
  -24.1833  -13.0442   20.9185 C   0  0  0  0  0  0
  -24.6393  -11.6909   20.8743 C   0  0  0  0  0  0
  -23.9063  -10.4292   21.0408 C   0  0  0  0  0  0
  -24.3615   -9.4207   21.9185 C   0  0  0  0  0  0
  -23.6290   -8.2243   22.0754 C   0  0  0  0  0  0
  -22.4273   -8.0281   21.3544 C   0  0  0  0  0  0
  -21.9910   -9.0254   20.4646 C   0  0  0  0  0  0
  -22.7238  -10.2134   20.3055 C   0  0  0  0  0  0
  -21.6852   -6.0736   22.5279 C   0  0  0  0  0  0
  -21.4013   -6.5640   23.8213 C   0  0  0  0  0  0
  -21.3657   -5.6792   24.9174 C   0  0  0  0  0  0
  -21.6045   -4.3056   24.7224 C   0  0  0  0  0  0
  -21.8819   -3.8148   23.4346 C   0  0  0  0  0  0
  -21.9193   -4.6965   22.3403 C   0  0  0  0  0  0
  -22.7855  -13.5237   21.1846 C   0  0  0  0  0  0
  -22.1661   -4.2151   21.0981 F   0  0  0  0  0  0
  -21.5629   -3.4540   25.7737 F   0  0  0  0  0  0
  -30.0299  -13.3155   20.4384 N   0  0  0  0  0  0
  -26.3009  -12.9347   20.3354 N   0  0  0  0  0  0
  -25.9322  -11.6504   20.5772 N   0  0  0  0  0  0
  -22.0494  -12.8227   22.0398 N   0  0  0  0  0  0
  -25.4293  -15.1887   20.4065 N   0  0  0  0  0  0
  -31.8439  -14.6345   20.0938 O   0  0  0  0  0  0
  -21.6638   -6.8878   21.4240 O   0  0  0  0  0  0
  -22.3545  -14.5546   20.6695 O   0  0  0  0  0  0
  -24.6162  -31.8670   23.2094 C   0  0  0  0  0  0
  -25.9049  -32.4818   23.8393 C   0  0  1  0  0  0
  -27.2289  -27.4244   20.1015 C   0  0  0  0  0  0
  -25.5901  -33.8617   24.2329 N   0  0  0  0  0  0
  -23.4052  -30.4906   21.5498 C   0  0  2  0  0  0
  -24.8527  -28.9581   20.1108 C   0  0  0  0  0  0
  -22.7422  -29.4654   22.4981 C   0  0  0  0  0  0
  -18.0274  -28.1380   22.8493 C   0  0  0  0  0  0
  -24.1483  -36.7308   23.2639 C   0  0  0  0  0  0
  -25.9350  -30.8317   21.3626 C   0  0  0  0  0  0
  -26.0143  -29.4662   20.7078 C   0  0  0  0  0  0
  -27.2101  -28.7077   20.6978 C   0  0  0  0  0  0
  -26.0554  -26.9377   19.4886 C   0  0  0  0  0  0
  -24.8691  -27.6944   19.4953 C   0  0  0  0  0  0
  -23.6138  -29.8242   20.1635 C   0  0  0  0  0  0
  -25.4105  -36.3108   24.0339 C   0  0  1  0  0  0
  -20.5867  -28.3667   23.1314 C   0  0  2  0  0  0
  -20.6765  -26.9402   22.5415 C   0  0  0  0  0  0
  -19.5741  -26.6388   21.5213 C   0  0  0  0  0  0
  -18.1921  -26.7926   22.1625 C   0  0  0  0  0  0
  -19.1524  -28.8839   23.2901 C   0  0  0  0  0  0
  -18.9452  -30.1446   23.8910 C   0  0  0  0  0  0
  -17.6455  -30.6586   24.0565 C   0  0  0  0  0  0
  -25.9034  -34.9473   23.5132 C   0  0  0  0  0  0
  -16.5345  -29.9088   23.6330 C   0  0  0  0  0  0
  -16.7263  -28.6505   23.0351 C   0  0  0  0  0  0
  -26.4476  -31.6592   25.0717 C   0  0  0  0  0  0
  -25.3742  -31.3692   26.1465 C   0  0  0  0  0  0
  -27.0306  -30.3038   24.6083 C   0  0  0  0  0  0
  -27.6055  -32.4304   25.7480 C   0  0  0  0  0  0
  -27.5577  -37.1808   24.8469 C   0  0  0  0  0  0
  -21.4147  -29.3033   22.3720 N   0  0  0  0  0  0
  -26.4292  -37.3792   23.9411 N   0  0  0  0  0  0
  -24.6706  -31.0768   22.0993 N   0  0  0  0  0  0
  -23.4189  -28.8196   23.3028 O   0  0  0  0  0  0
  -28.3502  -26.6231   20.1357 O   0  0  0  0  0  0
  -26.5595  -34.8926   22.4692 O   0  0  0  0  0  0
  -23.5351  -32.1416   23.7487 O   0  0  0  0  0  0
  -29.4559  -17.9440   21.1408 C   0  0  0  0  0  0
  -31.1872  -19.6457   21.4203 C   0  0  0  0  0  0
  -31.7893  -17.2810   21.3553 C   0  0  0  0  0  0
  -29.8250  -19.3155   21.2643 C   0  0  0  0  0  0
  -30.4321  -16.9090   21.1783 C   0  0  0  0  0  0
  -32.1612  -18.6342   21.4651 C   0  0  0  0  0  0
  -28.8202  -20.3968   21.3084 C   0  0  0  0  0  0
  -28.7800  -24.1579   20.4236 C   0  0  0  0  0  0
  -28.1725  -22.8320   20.9348 C   0  0  0  0  0  0
  -28.1616  -25.4629   20.9800 C   0  0  0  0  0  0
  -30.0211  -15.5297   21.0832 N   0  0  0  0  0  0
  -29.0510  -21.6319   20.8125 N   0  0  0  0  0  0
  -27.6526  -20.1632   21.9049 N   0  3  0  0  0  0
  -29.7321  -24.1569   19.6334 O   0  0  0  0  0  0
  -33.4644  -18.9657   21.6327 F   0  0  0  0  0  0
  -31.4631  -12.4002   19.1293 H   0  0  0  0  0  0
  -30.3112  -11.3089   19.8411 H   0  0  0  0  0  0
  -29.7363  -11.7699   17.4374 H   0  0  0  0  0  0
  -29.6600  -13.4833   17.7652 H   0  0  0  0  0  0
  -27.8307  -11.3049   18.8293 H   0  0  0  0  0  0
  -27.3640  -12.6228   17.7885 H   0  0  0  0  0  0
  -27.6947  -14.2546   19.5582 H   0  0  0  0  0  0
  -28.6796  -11.9907   21.3621 H   0  0  0  0  0  0
  -28.4632  -13.6410   21.8599 H   0  0  0  0  0  0
  -25.2762   -9.5683   22.4757 H   0  0  0  0  0  0
  -24.0000   -7.4635   22.7475 H   0  0  0  0  0  0
  -21.0841   -8.8773   19.8951 H   0  0  0  0  0  0
  -22.3699  -10.9672   19.6162 H   0  0  0  0  0  0
  -21.2003   -7.6147   23.9717 H   0  0  0  0  0  0
  -21.1478   -6.0522   25.9077 H   0  0  0  0  0  0
  -22.0600   -2.7610   23.2846 H   0  0  0  0  0  0
  -22.4100  -11.9879   22.4776 H   0  0  0  0  0  0
  -21.1112  -13.1254   22.2603 H   0  0  0  0  0  0
  -24.6573  -15.8402   20.4983 H   0  0  0  0  0  0
  -26.2703  -15.6215   20.0468 H   0  0  0  0  0  0
  -26.7120  -32.5532   23.1158 H   0  0  0  0  0  0
  -25.0064  -33.9777   25.0483 H   0  0  0  0  0  0
  -22.6942  -31.3078   21.4109 H   0  0  0  0  0  0
  -23.3744  -35.9644   23.3317 H   0  0  0  0  0  0
  -24.3577  -36.8905   22.2051 H   0  0  0  0  0  0
  -23.7238  -37.6519   23.6640 H   0  0  0  0  0  0
  -26.0468  -31.5984   20.5947 H   0  0  0  0  0  0
  -26.8231  -30.8857   21.9804 H   0  0  0  0  0  0
  -28.1050  -29.0907   21.1683 H   0  0  0  0  0  0
  -26.0543  -25.9649   19.0174 H   0  0  0  0  0  0
  -23.9769  -27.2989   19.0297 H   0  0  0  0  0  0
  -23.7205  -30.6000   19.4043 H   0  0  0  0  0  0
  -22.7379  -29.2439   19.8684 H   0  0  0  0  0  0
  -25.1283  -36.1973   25.0833 H   0  0  0  0  0  0
  -20.9959  -28.3230   24.1434 H   0  0  0  0  0  0
  -20.5674  -26.2274   23.3604 H   0  0  0  0  0  0
  -21.6634  -26.7447   22.1201 H   0  0  0  0  0  0
  -19.6905  -25.6306   21.1227 H   0  0  0  0  0  0
  -19.6682  -27.3212   20.6755 H   0  0  0  0  0  0
  -17.4192  -26.6681   21.4023 H   0  0  0  0  0  0
  -18.0315  -26.0065   22.9016 H   0  0  0  0  0  0
  -19.7929  -30.7258   24.2283 H   0  0  0  0  0  0
  -17.5010  -31.6267   24.5165 H   0  0  0  0  0  0
  -15.5346  -30.2994   23.7652 H   0  0  0  0  0  0
  -15.8660  -28.0830   22.7060 H   0  0  0  0  0  0
  -24.5917  -30.7040   25.7798 H   0  0  0  0  0  0
  -24.8931  -32.2843   26.4925 H   0  0  0  0  0  0
  -25.8095  -30.8850   27.0215 H   0  0  0  0  0  0
  -26.2844  -29.6799   24.1147 H   0  0  0  0  0  0
  -27.4098  -29.7274   25.4531 H   0  0  0  0  0  0
  -27.8669  -30.4370   23.9217 H   0  0  0  0  0  0
  -27.2685  -33.3602   26.2074 H   0  0  0  0  0  0
  -28.3857  -32.6861   25.0298 H   0  0  0  0  0  0
  -28.0727  -31.8410   26.5381 H   0  0  0  0  0  0
  -28.2605  -38.0096   24.7506 H   0  0  0  0  0  0
  -28.1063  -36.2627   24.6306 H   0  0  0  0  0  0
  -27.2292  -37.1470   25.8871 H   0  0  0  0  0  0
  -20.9309  -29.8756   21.6941 H   0  0  0  0  0  0
  -26.0182  -38.2873   24.1407 H   0  0  0  0  0  0
  -28.4131  -17.6849   21.0213 H   0  0  0  0  0  0
  -31.4974  -20.6741   21.5370 H   0  0  0  0  0  0
  -32.5721  -16.5423   21.4244 H   0  0  0  0  0  0
  -27.2453  -22.6571   20.3881 H   0  0  0  0  0  0
  -27.9000  -22.9721   21.9817 H   0  0  0  0  0  0
  -28.6199  -25.6688   21.9473 H   0  0  0  0  0  0
  -27.1055  -25.2756   21.1791 H   0  0  0  0  0  0
  -29.0671  -15.3222   21.3347 H   0  0  0  0  0  0
  -29.9055  -21.7904   20.2892 H   0  0  0  0  0  0
  -27.5044  -19.2751   22.3598 H   0  0  0  0  0  0
  -26.9109  -20.8406   21.9344 H   0  0  0  0  0  0
  1 25  1  0  0  0
  1 30  2  0  0  0
  1 81  1  0  0  0
  2  3  1  0  0  0
  2 25  1  0  0  0
  2 86  1  0  0  0
  2 87  1  0  0  0
  3  4  1  0  0  0
  3 88  1  0  0  0
  3 89  1  0  0  0
  4  5  1  0  0  0
  4 90  1  0  0  0
  4 91  1  0  0  0
  5  6  1  0  0  0
  5 26  1  0  0  0
  5 92  1  0  0  0
  6 25  1  0  0  0
  6 93  1  0  0  0
  6 94  1  0  0  0
  7  8  2  0  0  0
  7 26  1  0  0  0
  7 29  1  0  0  0
  8  9  1  0  0  0
  8 22  1  0  0  0
  9 10  1  0  0  0
  9 27  2  0  0  0
 10 11  2  0  0  0
 10 15  1  0  0  0
 11 12  1  0  0  0
 11 95  1  0  0  0
 12 13  2  0  0  0
 12 96  1  0  0  0
 13 14  1  0  0  0
 13 31  1  0  0  0
 14 15  2  0  0  0
 14 97  1  0  0  0
 15 98  1  0  0  0
 16 17  2  0  0  0
 16 21  1  0  0  0
 16 31  1  0  0  0
 17 18  1  0  0  0
 17 99  1  0  0  0
 18 19  2  0  0  0
 18100  1  0  0  0
 19 20  1  0  0  0
 19 24  1  0  0  0
 20 21  2  0  0  0
 20101  1  0  0  0
 21 23  1  0  0  0
 22 28  1  0  0  0
 22 32  2  0  0  0
 26 27  1  0  0  0
 28102  1  0  0  0
 28103  1  0  0  0
 29104  1  0  0  0
 29105  1  0  0  0
 33 34  1  0  0  0
 33 66  1  0  0  0
 33 70  2  0  0  0
 34 36  1  0  0  0
 34 59  1  0  0  0
 34106  1  0  0  0
 35 44  2  0  0  0
 35 45  1  0  0  0
 35 68  1  0  0  0
 36 56  1  0  0  0
 36107  1  0  0  0
 37 39  1  0  0  0
 37 47  1  0  0  0
 37 66  1  0  0  0
 37108  1  0  0  0
 38 43  2  0  0  0
 38 46  1  0  0  0
 38 47  1  0  0  0
 39 64  1  0  0  0
 39 67  2  0  0  0
 40 52  1  0  0  0
 40 53  2  0  0  0
 40 58  1  0  0  0
 41109  1  0  0  0
 41110  1  0  0  0
 41111  1  0  0  0
 41 48  1  0  0  0
 42 43  1  0  0  0
 42 66  1  0  0  0
 42112  1  0  0  0
 42113  1  0  0  0
 43 44  1  0  0  0
 44114  1  0  0  0
 45 46  2  0  0  0
 45115  1  0  0  0
 46116  1  0  0  0
 47117  1  0  0  0
 47118  1  0  0  0
 48 56  1  0  0  0
 48 65  1  0  0  0
 48119  1  0  0  0
 49 50  1  0  0  0
 49 53  1  0  0  0
 49 64  1  0  0  0
 49120  1  0  0  0
 50 51  1  0  0  0
 50121  1  0  0  0
 50122  1  0  0  0
 51 52  1  0  0  0
 51123  1  0  0  0
 51124  1  0  0  0
 52125  1  0  0  0
 52126  1  0  0  0
 53 54  1  0  0  0
 54 55  2  0  0  0
 54127  1  0  0  0
 55 57  1  0  0  0
 55128  1  0  0  0
 56 69  2  0  0  0
 57 58  2  0  0  0
 57129  1  0  0  0
 58130  1  0  0  0
 59 60  1  0  0  0
 59 61  1  0  0  0
 59 62  1  0  0  0
 60131  1  0  0  0
 60132  1  0  0  0
 60133  1  0  0  0
 61134  1  0  0  0
 61135  1  0  0  0
 61136  1  0  0  0
 62137  1  0  0  0
 62138  1  0  0  0
 62139  1  0  0  0
 63 65  1  0  0  0
 63140  1  0  0  0
 63141  1  0  0  0
 63142  1  0  0  0
 64143  1  0  0  0
 65144  1  0  0  0
 68 80  1  0  0  0
 71 74  2  0  0  0
 71 75  1  0  0  0
 71145  1  0  0  0
 72 74  1  0  0  0
 72 76  2  0  0  0
 72146  1  0  0  0
 73 75  2  0  0  0
 73 76  1  0  0  0
 73147  1  0  0  0
 74 77  1  0  0  0
 75 81  1  0  0  0
 76 85  1  0  0  0
 77 82  1  0  0  0
 77 83  2  0  0  0
 78 79  1  0  0  0
 78 80  1  0  0  0
 78 84  2  0  0  0
 79 82  1  0  0  0
 79148  1  0  0  0
 79149  1  0  0  0
 80150  1  0  0  0
 80151  1  0  0  0
 81152  1  0  0  0
 82153  1  0  0  0
 83154  1  0  0  0
 83155  1  0  0  0
M  CHG  1  83   1
M  ISO  4   1 100  68 101  80 101  81 100
M  END
> <chiral flag>
0

> <version>
0

> <s_m_source_file>
/data/baiqing/PycharmProjects/Reinvent-master-3.2/result/LINK_invent/BTK/process_docking_weight1_custom_product_contain_oxygen_bond_distance_aromatic_linkinvent_7_9_3/rearranged_h_0165.sdf

> <i_m_source_file_index>
18

> <r_mmod_Potential_Energy-OPLS-2005>
-357.715362548828

> <r_mmod_Stretch_Energy-OPLS-2005>
42.4576530456543

> <r_mmod_Bend_Energy-OPLS-2005>
94.5017929077148

> <r_mmod_Torsional_Energy-OPLS-2005>
233.450759887695

> <r_mmod_Improper_Torsional_Energy-OPLS-2005>
4.19759321212769

> <r_mmod_Van_der_Waal_Energy-OPLS-2005>
156.441146850586

> <r_mmod_Electrostatic_Energy-OPLS-2005>
-444.066070556641

> <r_mmod_Solvation_Energy-OPLS-2005>
-461.265960693359

> <b_mmod_Minimization_Converged-OPLS-2005>
0

> <r_mmod_RMS_Derivative-OPLS-2005>
0.367875397205353

$$$$
18
                    3D
 Structure written by MMmdl.
151159  0  0  1  0            999 V2000
  -30.6257  -14.6237   20.5094 C   0  0  0  0  0  0
  -30.4393  -12.3831   19.4506 C   0  0  0  0  0  0
  -29.5084  -12.5081   18.2235 C   0  0  0  0  0  0
  -28.0304  -12.3488   18.6337 C   0  0  0  0  0  0
  -27.6557  -13.2139   19.8664 C   0  0  2  0  0  0
  -28.6999  -13.0560   20.9955 C   0  0  0  0  0  0
  -25.2571  -13.8167   20.5682 C   0  0  0  0  0  0
  -24.1834  -13.0438   20.9191 C   0  0  0  0  0  0
  -24.6397  -11.6907   20.8740 C   0  0  0  0  0  0
  -23.9062  -10.4293   21.0407 C   0  0  0  0  0  0
  -24.3615   -9.4207   21.9184 C   0  0  0  0  0  0
  -23.6291   -8.2242   22.0754 C   0  0  0  0  0  0
  -22.4272   -8.0282   21.3543 C   0  0  0  0  0  0
  -21.9906   -9.0256   20.4647 C   0  0  0  0  0  0
  -22.7234  -10.2137   20.3057 C   0  0  0  0  0  0
  -21.6854   -6.0736   22.5279 C   0  0  0  0  0  0
  -21.4016   -6.5640   23.8212 C   0  0  0  0  0  0
  -21.3658   -5.6792   24.9174 C   0  0  0  0  0  0
  -21.6043   -4.3055   24.7224 C   0  0  0  0  0  0
  -21.8820   -3.8146   23.4345 C   0  0  0  0  0  0
  -21.9193   -4.6963   22.3401 C   0  0  0  0  0  0
  -22.7856  -13.5235   21.1852 C   0  0  0  0  0  0
  -22.1661   -4.2148   21.0979 F   0  0  0  0  0  0
  -21.5626   -3.4538   25.7736 F   0  0  0  0  0  0
  -30.0185  -13.3975   20.4367 N   0  0  0  0  0  0
  -26.2999  -12.9342   20.3326 N   0  0  0  0  0  0
  -25.9326  -11.6499   20.5758 N   0  0  0  0  0  0
  -22.0498  -12.8232   22.0411 N   0  0  0  0  0  0
  -25.4288  -15.1887   20.4080 N   0  0  0  0  0  0
  -31.7810  -14.7939   20.1087 O   0  0  0  0  0  0
  -21.6639   -6.8877   21.4240 O   0  0  0  0  0  0
  -22.3541  -14.5540   20.6697 O   0  0  0  0  0  0
  -24.6248  -31.8611   23.2041 C   0  0  0  0  0  0
  -25.9102  -32.4786   23.8364 C   0  0  1  0  0  0
  -27.2247  -27.3325   20.1187 C   0  0  0  0  0  0
  -25.5924  -33.8586   24.2292 N   0  0  0  0  0  0
  -23.4182  -30.4850   21.5463 C   0  0  2  0  0  0
  -24.8660  -28.9431   20.1119 C   0  0  0  0  0  0
  -22.7468  -29.4629   22.4943 C   0  0  0  0  0  0
  -18.0286  -28.1382   22.8486 C   0  0  0  0  0  0
  -24.1489  -36.7300   23.2638 C   0  0  0  0  0  0
  -25.9583  -30.7959   21.3743 C   0  0  0  0  0  0
  -26.0342  -29.4241   20.7180 C   0  0  0  0  0  0
  -27.2185  -28.6303   20.7128 C   0  0  0  0  0  0
  -26.0395  -26.9092   19.4754 C   0  0  0  0  0  0
  -24.8701  -27.6904   19.4812 C   0  0  0  0  0  0
  -23.6329  -29.8208   20.1612 C   0  0  0  0  0  0
  -25.4113  -36.3089   24.0332 C   0  0  1  0  0  0
  -20.5884  -28.3687   23.1286 C   0  0  2  0  0  0
  -20.6776  -26.9412   22.5410 C   0  0  0  0  0  0
  -19.5752  -26.6383   21.5211 C   0  0  0  0  0  0
  -18.1932  -26.7925   22.1625 C   0  0  0  0  0  0
  -19.1538  -28.8851   23.2882 C   0  0  0  0  0  0
  -18.9461  -30.1452   23.8900 C   0  0  0  0  0  0
  -17.6461  -30.6586   24.0564 C   0  0  0  0  0  0
  -25.9048  -34.9456   23.5110 C   0  0  0  0  0  0
  -16.5352  -29.9085   23.6328 C   0  0  0  0  0  0
  -16.7273  -28.6503   23.0350 C   0  0  0  0  0  0
  -26.4492  -31.6587   25.0725 C   0  0  0  0  0  0
  -25.3734  -31.3723   26.1458 C   0  0  0  0  0  0
  -27.0331  -30.3012   24.6166 C   0  0  0  0  0  0
  -27.6056  -32.4318   25.7493 C   0  0  0  0  0  0
  -27.5580  -37.1806   24.8466 C   0  0  0  0  0  0
  -21.4183  -29.3043   22.3682 N   0  0  0  0  0  0
  -26.4293  -37.3779   23.9408 N   0  0  0  0  0  0
  -24.6857  -31.0634   22.0986 N   0  0  0  0  0  0
  -23.4196  -28.8167   23.3018 O   0  0  0  0  0  0
  -28.3308  -26.4750   20.1551 O   0  0  0  0  0  0
  -26.5613  -34.8920   22.4675 O   0  0  0  0  0  0
  -23.5414  -32.1404   23.7375 O   0  0  0  0  0  0
  -28.7665  -17.8989   21.1257 C   0  0  0  0  0  0
  -30.9804  -17.8344   20.1925 C   0  0  0  0  0  0
  -29.8853  -17.1116   20.7354 C   0  0  0  0  0  0
  -29.8220  -20.0391   20.4344 C   0  0  0  0  0  0
  -28.7261  -19.3177   20.9828 C   0  0  0  0  0  0
  -30.9460  -19.2538   20.0487 C   0  0  0  0  0  0
  -29.1218  -23.9842   20.2385 C   0  0  0  0  0  0
  -28.8099  -22.4700   20.5763 C   0  0  0  0  0  0
  -28.0359  -25.0789   20.5573 C   0  0  0  0  0  0
  -29.8190  -15.6567   20.9060 N   0  0  0  0  0  0
  -29.8685  -21.4653   20.2484 N   0  0  0  0  0  0
  -30.2071  -24.2902   19.7309 O   0  0  0  0  0  0
  -27.6111  -19.9792   21.3813 F   0  0  0  0  0  0
  -32.0269  -19.8809   19.5203 F   0  0  0  0  0  0
  -31.4807  -12.5077   19.1491 H   0  0  0  0  0  0
  -30.3723  -11.3844   19.8849 H   0  0  0  0  0  0
  -29.7700  -11.7600   17.4739 H   0  0  0  0  0  0
  -29.6543  -13.4799   17.7491 H   0  0  0  0  0  0
  -27.8618  -11.2948   18.8578 H   0  0  0  0  0  0
  -27.3776  -12.5873   17.7932 H   0  0  0  0  0  0
  -27.6777  -14.2515   19.5329 H   0  0  0  0  0  0
  -28.7070  -12.0304   21.3679 H   0  0  0  0  0  0
  -28.4450  -13.6786   21.8545 H   0  0  0  0  0  0
  -25.2764   -9.5682   22.4753 H   0  0  0  0  0  0
  -24.0000   -7.4634   22.7474 H   0  0  0  0  0  0
  -21.0834   -8.8778   19.8956 H   0  0  0  0  0  0
  -22.3693  -10.9677   19.6165 H   0  0  0  0  0  0
  -21.2013   -7.6149   23.9715 H   0  0  0  0  0  0
  -21.1478   -6.0523   25.9076 H   0  0  0  0  0  0
  -22.0599   -2.7607   23.2849 H   0  0  0  0  0  0
  -22.4110  -11.9894   22.4803 H   0  0  0  0  0  0
  -21.1118  -13.1263   22.2618 H   0  0  0  0  0  0
  -24.6566  -15.8395   20.5040 H   0  0  0  0  0  0
  -26.2664  -15.6225   20.0423 H   0  0  0  0  0  0
  -26.7170  -32.5464   23.1115 H   0  0  0  0  0  0
  -25.0074  -33.9732   25.0438 H   0  0  0  0  0  0
  -22.7112  -31.3050   21.4040 H   0  0  0  0  0  0
  -23.3745  -35.9639   23.3307 H   0  0  0  0  0  0
  -24.3580  -36.8911   22.2052 H   0  0  0  0  0  0
  -23.7249  -37.6508   23.6652 H   0  0  0  0  0  0
  -26.0870  -31.5591   20.6054 H   0  0  0  0  0  0
  -26.8398  -30.8458   22.0019 H   0  0  0  0  0  0
  -28.1139  -28.9932   21.1981 H   0  0  0  0  0  0
  -25.9982  -25.9633   18.9563 H   0  0  0  0  0  0
  -23.9788  -27.3210   18.9926 H   0  0  0  0  0  0
  -23.7508  -30.5979   19.4051 H   0  0  0  0  0  0
  -22.7537  -29.2490   19.8588 H   0  0  0  0  0  0
  -25.1292  -36.1944   25.0824 H   0  0  0  0  0  0
  -20.9976  -28.3262   24.1407 H   0  0  0  0  0  0
  -20.5677  -26.2299   23.3608 H   0  0  0  0  0  0
  -21.6645  -26.7442   22.1206 H   0  0  0  0  0  0
  -19.6915  -25.6293   21.1241 H   0  0  0  0  0  0
  -19.6689  -27.3195   20.6741 H   0  0  0  0  0  0
  -17.4200  -26.6667   21.4029 H   0  0  0  0  0  0
  -18.0338  -26.0067   22.9024 H   0  0  0  0  0  0
  -19.7937  -30.7265   24.2273 H   0  0  0  0  0  0
  -17.5017  -31.6265   24.5166 H   0  0  0  0  0  0
  -15.5353  -30.2989   23.7648 H   0  0  0  0  0  0
  -15.8674  -28.0821   22.7065 H   0  0  0  0  0  0
  -24.5907  -30.7071   25.7793 H   0  0  0  0  0  0
  -24.8928  -32.2890   26.4887 H   0  0  0  0  0  0
  -25.8067  -30.8902   27.0230 H   0  0  0  0  0  0
  -26.2900  -29.6765   24.1196 H   0  0  0  0  0  0
  -27.4041  -29.7263   25.4661 H   0  0  0  0  0  0
  -27.8765  -30.4301   23.9378 H   0  0  0  0  0  0
  -27.2668  -33.3616   26.2075 H   0  0  0  0  0  0
  -28.3864  -32.6880   25.0319 H   0  0  0  0  0  0
  -28.0726  -31.8440   26.5405 H   0  0  0  0  0  0
  -28.2603  -38.0097   24.7502 H   0  0  0  0  0  0
  -28.1068  -36.2628   24.6302 H   0  0  0  0  0  0
  -27.2297  -37.1469   25.8868 H   0  0  0  0  0  0
  -20.9358  -29.8770   21.6899 H   0  0  0  0  0  0
  -26.0176  -38.2857   24.1401 H   0  0  0  0  0  0
  -27.8979  -17.4143   21.5467 H   0  0  0  0  0  0
  -31.8702  -17.3147   19.8712 H   0  0  0  0  0  0
  -27.8922  -22.1973   20.0540 H   0  0  0  0  0  0
  -28.5868  -22.4090   21.6422 H   0  0  0  0  0  0
  -27.8712  -25.0727   21.6348 H   0  0  0  0  0  0
  -27.1121  -24.7143   20.1150 H   0  0  0  0  0  0
  -28.9383  -15.3212   21.2657 H   0  0  0  0  0  0
  -30.7223  -21.8464   19.8490 H   0  0  0  0  0  0
  1 25  1  0  0  0
  1 30  2  0  0  0
  1 80  1  0  0  0
  2  3  1  0  0  0
  2 25  1  0  0  0
  2 85  1  0  0  0
  2 86  1  0  0  0
  3  4  1  0  0  0
  3 87  1  0  0  0
  3 88  1  0  0  0
  4  5  1  0  0  0
  4 89  1  0  0  0
  4 90  1  0  0  0
  5  6  1  0  0  0
  5 26  1  0  0  0
  5 91  1  0  0  0
  6 25  1  0  0  0
  6 92  1  0  0  0
  6 93  1  0  0  0
  7  8  2  0  0  0
  7 26  1  0  0  0
  7 29  1  0  0  0
  8  9  1  0  0  0
  8 22  1  0  0  0
  9 10  1  0  0  0
  9 27  2  0  0  0
 10 11  2  0  0  0
 10 15  1  0  0  0
 11 12  1  0  0  0
 11 94  1  0  0  0
 12 13  2  0  0  0
 12 95  1  0  0  0
 13 14  1  0  0  0
 13 31  1  0  0  0
 14 15  2  0  0  0
 14 96  1  0  0  0
 15 97  1  0  0  0
 16 17  2  0  0  0
 16 21  1  0  0  0
 16 31  1  0  0  0
 17 18  1  0  0  0
 17 98  1  0  0  0
 18 19  2  0  0  0
 18 99  1  0  0  0
 19 20  1  0  0  0
 19 24  1  0  0  0
 20 21  2  0  0  0
 20100  1  0  0  0
 21 23  1  0  0  0
 22 28  1  0  0  0
 22 32  2  0  0  0
 26 27  1  0  0  0
 28101  1  0  0  0
 28102  1  0  0  0
 29103  1  0  0  0
 29104  1  0  0  0
 33 34  1  0  0  0
 33 66  1  0  0  0
 33 70  2  0  0  0
 34 36  1  0  0  0
 34 59  1  0  0  0
 34105  1  0  0  0
 35 44  2  0  0  0
 35 45  1  0  0  0
 35 68  1  0  0  0
 36 56  1  0  0  0
 36106  1  0  0  0
 37 39  1  0  0  0
 37 47  1  0  0  0
 37 66  1  0  0  0
 37107  1  0  0  0
 38 43  2  0  0  0
 38 46  1  0  0  0
 38 47  1  0  0  0
 39 64  1  0  0  0
 39 67  2  0  0  0
 40 52  1  0  0  0
 40 53  2  0  0  0
 40 58  1  0  0  0
 41108  1  0  0  0
 41109  1  0  0  0
 41110  1  0  0  0
 41 48  1  0  0  0
 42 43  1  0  0  0
 42 66  1  0  0  0
 42111  1  0  0  0
 42112  1  0  0  0
 43 44  1  0  0  0
 44113  1  0  0  0
 45 46  2  0  0  0
 45114  1  0  0  0
 46115  1  0  0  0
 47116  1  0  0  0
 47117  1  0  0  0
 48 56  1  0  0  0
 48 65  1  0  0  0
 48118  1  0  0  0
 49 50  1  0  0  0
 49 53  1  0  0  0
 49 64  1  0  0  0
 49119  1  0  0  0
 50 51  1  0  0  0
 50120  1  0  0  0
 50121  1  0  0  0
 51 52  1  0  0  0
 51122  1  0  0  0
 51123  1  0  0  0
 52124  1  0  0  0
 52125  1  0  0  0
 53 54  1  0  0  0
 54 55  2  0  0  0
 54126  1  0  0  0
 55 57  1  0  0  0
 55127  1  0  0  0
 56 69  2  0  0  0
 57 58  2  0  0  0
 57128  1  0  0  0
 58129  1  0  0  0
 59 60  1  0  0  0
 59 61  1  0  0  0
 59 62  1  0  0  0
 60130  1  0  0  0
 60131  1  0  0  0
 60132  1  0  0  0
 61133  1  0  0  0
 61134  1  0  0  0
 61135  1  0  0  0
 62136  1  0  0  0
 62137  1  0  0  0
 62138  1  0  0  0
 63 65  1  0  0  0
 63139  1  0  0  0
 63140  1  0  0  0
 63141  1  0  0  0
 64142  1  0  0  0
 65143  1  0  0  0
 68 79  1  0  0  0
 71 73  2  0  0  0
 71 75  1  0  0  0
 71144  1  0  0  0
 72 73  1  0  0  0
 72 76  2  0  0  0
 72145  1  0  0  0
 73 80  1  0  0  0
 74 75  2  0  0  0
 74 76  1  0  0  0
 74 81  1  0  0  0
 75 83  1  0  0  0
 76 84  1  0  0  0
 77 78  1  0  0  0
 77 79  1  0  0  0
 77 82  2  0  0  0
 78 81  1  0  0  0
 78146  1  0  0  0
 78147  1  0  0  0
 79148  1  0  0  0
 79149  1  0  0  0
 80150  1  0  0  0
 81151  1  0  0  0
M  ISO  4   1 100  68 101  79 101  80 100
M  END
> <chiral flag>
0

> <version>
0

> <s_m_source_file>
/data/baiqing/PycharmProjects/Reinvent-master-3.2/result/LINK_invent/BTK/process_docking_weight1_custom_product_contain_oxygen_bond_distance_aromatic_linkinvent_7_9_3/rearranged_h_0165.sdf

> <i_m_source_file_index>
19

> <r_mmod_Potential_Energy-OPLS-2005>
122.318359375

> <r_mmod_Stretch_Energy-OPLS-2005>
74.9209442138672

> <r_mmod_Bend_Energy-OPLS-2005>
143.641830444336

> <r_mmod_Torsional_Energy-OPLS-2005>
211.542068481445

> <r_mmod_Improper_Torsional_Energy-OPLS-2005>
3.91935276985168

> <r_mmod_Van_der_Waal_Energy-OPLS-2005>
144.646987915039

> <r_mmod_Electrostatic_Energy-OPLS-2005>
-266.134155273438

> <r_mmod_Solvation_Energy-OPLS-2005>
-234.052032470703

> <b_mmod_Minimization_Converged-OPLS-2005>
0

> <r_mmod_RMS_Derivative-OPLS-2005>
0.394397228956223

$$$$
19
                    3D
 Structure written by MMmdl.
158166  0  0  1  0            999 V2000
  -30.5983  -14.6479   20.5005 C   0  0  0  0  0  0
  -30.4431  -12.3931   19.4475 C   0  0  0  0  0  0
  -29.5076  -12.5120   18.2224 C   0  0  0  0  0  0
  -28.0324  -12.3428   18.6362 C   0  0  0  0  0  0
  -27.6562  -13.2092   19.8672 C   0  0  2  0  0  0
  -28.7032  -13.0444   20.9939 C   0  0  0  0  0  0
  -25.2575  -13.8145   20.5664 C   0  0  0  0  0  0
  -24.1841  -13.0425   20.9186 C   0  0  0  0  0  0
  -24.6402  -11.6879   20.8736 C   0  0  0  0  0  0
  -23.9063  -10.4280   21.0404 C   0  0  0  0  0  0
  -24.3607   -9.4201   21.9184 C   0  0  0  0  0  0
  -23.6286   -8.2238   22.0756 C   0  0  0  0  0  0
  -22.4271   -8.0279   21.3546 C   0  0  0  0  0  0
  -21.9902   -9.0246   20.4642 C   0  0  0  0  0  0
  -22.7227  -10.2130   20.3060 C   0  0  0  0  0  0
  -21.6850   -6.0734   22.5274 C   0  0  0  0  0  0
  -21.4007   -6.5637   23.8205 C   0  0  0  0  0  0
  -21.3660   -5.6789   24.9167 C   0  0  0  0  0  0
  -21.6049   -4.3054   24.7213 C   0  0  0  0  0  0
  -21.8819   -3.8144   23.4335 C   0  0  0  0  0  0
  -21.9185   -4.6963   22.3397 C   0  0  0  0  0  0
  -22.7868  -13.5239   21.1831 C   0  0  0  0  0  0
  -22.1655   -4.2150   21.0974 F   0  0  0  0  0  0
  -21.5635   -3.4540   25.7727 F   0  0  0  0  0  0
  -30.0179  -13.4052   20.4377 N   0  0  0  0  0  0
  -26.3007  -12.9307   20.3336 N   0  0  0  0  0  0
  -25.9337  -11.6474   20.5778 N   0  0  0  0  0  0
  -22.0499  -12.8236   22.0383 N   0  0  0  0  0  0
  -25.4282  -15.1848   20.3996 N   0  0  0  0  0  0
  -31.7459  -14.8329   20.0758 O   0  0  0  0  0  0
  -21.6634   -6.8875   21.4240 O   0  0  0  0  0  0
  -22.3561  -14.5538   20.6657 O   0  0  0  0  0  0
  -24.6239  -31.8590   23.2003 C   0  0  0  0  0  0
  -25.9079  -32.4780   23.8338 C   0  0  1  0  0  0
  -27.2199  -27.3248   20.1289 C   0  0  0  0  0  0
  -25.5896  -33.8582   24.2286 N   0  0  0  0  0  0
  -23.4168  -30.4822   21.5400 C   0  0  2  0  0  0
  -24.8667  -28.9339   20.1109 C   0  0  0  0  0  0
  -22.7469  -29.4601   22.4898 C   0  0  0  0  0  0
  -18.0295  -28.1372   22.8469 C   0  0  0  0  0  0
  -24.1497  -36.7284   23.2639 C   0  0  0  0  0  0
  -25.9545  -30.7955   21.3687 C   0  0  0  0  0  0
  -26.0327  -29.4218   20.7139 C   0  0  0  0  0  0
  -27.2179  -28.6294   20.7050 C   0  0  0  0  0  0
  -26.0351  -26.8783   19.5129 C   0  0  0  0  0  0
  -24.8697  -27.6698   19.4969 C   0  0  0  0  0  0
  -23.6337  -29.8131   20.1554 C   0  0  0  0  0  0
  -25.4105  -36.3070   24.0349 C   0  0  1  0  0  0
  -20.5887  -28.3654   23.1282 C   0  0  2  0  0  0
  -20.6769  -26.9379   22.5398 C   0  0  0  0  0  0
  -19.5757  -26.6352   21.5185 C   0  0  0  0  0  0
  -18.1927  -26.7902   22.1600 C   0  0  0  0  0  0
  -19.1545  -28.8823   23.2869 C   0  0  0  0  0  0
  -18.9476  -30.1417   23.8893 C   0  0  0  0  0  0
  -17.6475  -30.6561   24.0543 C   0  0  0  0  0  0
  -25.9040  -34.9449   23.5126 C   0  0  0  0  0  0
  -16.5364  -29.9050   23.6329 C   0  0  0  0  0  0
  -16.7272  -28.6479   23.0328 C   0  0  0  0  0  0
  -26.4471  -31.6585   25.0714 C   0  0  0  0  0  0
  -25.3705  -31.3747   26.1458 C   0  0  0  0  0  0
  -27.0304  -30.3010   24.6139 C   0  0  0  0  0  0
  -27.6051  -32.4297   25.7481 C   0  0  0  0  0  0
  -27.5593  -37.1776   24.8458 C   0  0  0  0  0  0
  -21.4174  -29.3028   22.3680 N   0  0  0  0  0  0
  -26.4281  -37.3763   23.9441 N   0  0  0  0  0  0
  -24.6834  -31.0629   22.0939 N   0  0  0  0  0  0
  -23.4235  -28.8119   23.2932 O   0  0  0  0  0  0
  -28.3297  -26.4775   20.1309 O   0  0  0  0  0  0
  -26.5589  -34.8921   22.4674 O   0  0  0  0  0  0
  -23.5405  -32.1373   23.7331 O   0  0  0  0  0  0
  -28.5175  -17.6955   21.2876 C   0  0  0  0  0  0
  -28.1837  -19.0723   21.0864 C   0  0  0  0  0  0
  -29.0788  -19.8972   20.3148 C   0  0  0  0  0  0
  -30.2389  -19.2065   19.8348 C   0  0  0  0  0  0
  -29.6659  -17.0850   20.7392 C   0  0  0  0  0  0
  -26.8875  -19.5591   21.6915 C   0  0  0  0  0  0
  -28.5126  -23.8698   19.9459 C   0  0  0  0  0  0
  -31.2795  -19.9277   18.9927 C   0  0  0  0  0  0
  -25.8813  -18.5149   22.1736 C   0  0  0  0  0  0
  -28.8409  -22.5072   20.6884 C   0  0  0  0  0  0
  -28.1642  -25.1595   20.7891 C   0  0  0  0  0  0
  -30.5121  -17.8782   20.0362 N   0  0  0  0  0  0
  -28.8195  -21.2478   19.8664 N   0  0  0  0  0  0
  -29.7821  -15.6464   20.9670 N   0  0  0  0  0  0
  -26.5681  -20.7417   21.8361 O   0  0  0  0  0  0
  -28.4874  -23.8989   18.7110 O   0  0  0  0  0  0
  -31.4849  -12.5217   19.1472 H   0  0  0  0  0  0
  -30.3815  -11.3930   19.8809 H   0  0  0  0  0  0
  -29.7714  -11.7649   17.4722 H   0  0  0  0  0  0
  -29.6442  -13.4841   17.7469 H   0  0  0  0  0  0
  -27.8735  -11.2882   18.8648 H   0  0  0  0  0  0
  -27.3722  -12.5704   17.7983 H   0  0  0  0  0  0
  -27.6774  -14.2472   19.5335 H   0  0  0  0  0  0
  -28.7217  -12.0119   21.3479 H   0  0  0  0  0  0
  -28.4447  -13.6447   21.8689 H   0  0  0  0  0  0
  -25.2764   -9.5678   22.4742 H   0  0  0  0  0  0
  -23.9987   -7.4643   22.7484 H   0  0  0  0  0  0
  -21.0836   -8.8765   19.8958 H   0  0  0  0  0  0
  -22.3689  -10.9663   19.6166 H   0  0  0  0  0  0
  -21.1999   -7.6140   23.9707 H   0  0  0  0  0  0
  -21.1484   -6.0519   25.9067 H   0  0  0  0  0  0
  -22.0598   -2.7610   23.2831 H   0  0  0  0  0  0
  -22.4109  -11.9901   22.4781 H   0  0  0  0  0  0
  -21.1129  -13.1274   22.2584 H   0  0  0  0  0  0
  -24.6367  -15.8167   20.4516 H   0  0  0  0  0  0
  -26.2469  -15.6062   19.9802 H   0  0  0  0  0  0
  -26.7138  -32.5471   23.1086 H   0  0  0  0  0  0
  -25.0096  -33.9718   25.0461 H   0  0  0  0  0  0
  -22.7082  -31.3002   21.3941 H   0  0  0  0  0  0
  -23.3774  -35.9598   23.3241 H   0  0  0  0  0  0
  -24.3607  -36.8938   22.2065 H   0  0  0  0  0  0
  -23.7226  -37.6468   23.6682 H   0  0  0  0  0  0
  -26.0824  -31.5602   20.6012 H   0  0  0  0  0  0
  -26.8367  -30.8460   21.9948 H   0  0  0  0  0  0
  -28.1165  -29.0003   21.1772 H   0  0  0  0  0  0
  -26.0068  -25.9000   19.0543 H   0  0  0  0  0  0
  -23.9781  -27.2913   19.0172 H   0  0  0  0  0  0
  -23.7481  -30.5897   19.3977 H   0  0  0  0  0  0
  -22.7583  -29.2373   19.8535 H   0  0  0  0  0  0
  -25.1274  -36.1923   25.0838 H   0  0  0  0  0  0
  -20.9979  -28.3214   24.1400 H   0  0  0  0  0  0
  -20.5619  -26.2265   23.3592 H   0  0  0  0  0  0
  -21.6634  -26.7347   22.1218 H   0  0  0  0  0  0
  -19.6916  -25.6258   21.1214 H   0  0  0  0  0  0
  -19.6714  -27.3159   20.6720 H   0  0  0  0  0  0
  -17.4194  -26.6643   21.4008 H   0  0  0  0  0  0
  -18.0329  -26.0045   22.9002 H   0  0  0  0  0  0
  -19.7963  -30.7217   24.2267 H   0  0  0  0  0  0
  -17.5043  -31.6255   24.5107 H   0  0  0  0  0  0
  -15.5371  -30.2951   23.7663 H   0  0  0  0  0  0
  -15.8675  -28.0792   22.7042 H   0  0  0  0  0  0
  -24.5896  -30.7069   25.7790 H   0  0  0  0  0  0
  -24.8890  -32.2936   26.4825 H   0  0  0  0  0  0
  -25.8025  -30.8977   27.0266 H   0  0  0  0  0  0
  -26.2869  -29.6782   24.1150 H   0  0  0  0  0  0
  -27.4021  -29.7229   25.4612 H   0  0  0  0  0  0
  -27.8732  -30.4310   23.9340 H   0  0  0  0  0  0
  -27.2687  -33.3617   26.2012 H   0  0  0  0  0  0
  -28.3888  -32.6780   25.0319 H   0  0  0  0  0  0
  -28.0675  -31.8437   26.5431 H   0  0  0  0  0  0
  -28.2538  -38.0136   24.7550 H   0  0  0  0  0  0
  -28.1152  -36.2668   24.6203 H   0  0  0  0  0  0
  -27.2333  -37.1315   25.8858 H   0  0  0  0  0  0
  -20.9321  -29.8820   21.6972 H   0  0  0  0  0  0
  -26.0171  -38.2834   24.1457 H   0  0  0  0  0  0
  -27.8649  -17.0637   21.8700 H   0  0  0  0  0  0
  -31.9688  -20.4747   19.6374 H   0  0  0  0  0  0
  -30.8211  -20.6401   18.3066 H   0  0  0  0  0  0
  -31.8584  -19.2248   18.3929 H   0  0  0  0  0  0
  -25.7464  -17.7229   21.4386 H   0  0  0  0  0  0
  -24.9120  -18.9816   22.3446 H   0  0  0  0  0  0
  -26.2199  -18.0728   23.1088 H   0  0  0  0  0  0
  -28.1401  -22.4350   21.5168 H   0  0  0  0  0  0
  -29.8250  -22.6159   21.1475 H   0  0  0  0  0  0
  -28.7940  -25.1464   21.6779 H   0  0  0  0  0  0
  -27.1435  -25.0444   21.1517 H   0  0  0  0  0  0
  -28.1891  -21.3310   19.0691 H   0  0  0  0  0  0
  -28.9714  -15.2533   21.4163 H   0  0  0  0  0  0
  1 25  1  0  0  0
  1 30  2  0  0  0
  1 84  1  0  0  0
  2  3  1  0  0  0
  2 25  1  0  0  0
  2 87  1  0  0  0
  2 88  1  0  0  0
  3  4  1  0  0  0
  3 89  1  0  0  0
  3 90  1  0  0  0
  4  5  1  0  0  0
  4 91  1  0  0  0
  4 92  1  0  0  0
  5  6  1  0  0  0
  5 26  1  0  0  0
  5 93  1  0  0  0
  6 25  1  0  0  0
  6 94  1  0  0  0
  6 95  1  0  0  0
  7  8  2  0  0  0
  7 26  1  0  0  0
  7 29  1  0  0  0
  8  9  1  0  0  0
  8 22  1  0  0  0
  9 10  1  0  0  0
  9 27  2  0  0  0
 10 11  2  0  0  0
 10 15  1  0  0  0
 11 12  1  0  0  0
 11 96  1  0  0  0
 12 13  2  0  0  0
 12 97  1  0  0  0
 13 14  1  0  0  0
 13 31  1  0  0  0
 14 15  2  0  0  0
 14 98  1  0  0  0
 15 99  1  0  0  0
 16 17  2  0  0  0
 16 21  1  0  0  0
 16 31  1  0  0  0
 17 18  1  0  0  0
 17100  1  0  0  0
 18 19  2  0  0  0
 18101  1  0  0  0
 19 20  1  0  0  0
 19 24  1  0  0  0
 20 21  2  0  0  0
 20102  1  0  0  0
 21 23  1  0  0  0
 22 28  1  0  0  0
 22 32  2  0  0  0
 26 27  1  0  0  0
 28103  1  0  0  0
 28104  1  0  0  0
 29105  1  0  0  0
 29106  1  0  0  0
 33 34  1  0  0  0
 33 66  1  0  0  0
 33 70  2  0  0  0
 34 36  1  0  0  0
 34 59  1  0  0  0
 34107  1  0  0  0
 35 44  2  0  0  0
 35 45  1  0  0  0
 35 68  1  0  0  0
 36 56  1  0  0  0
 36108  1  0  0  0
 37 39  1  0  0  0
 37 47  1  0  0  0
 37 66  1  0  0  0
 37109  1  0  0  0
 38 43  2  0  0  0
 38 46  1  0  0  0
 38 47  1  0  0  0
 39 64  1  0  0  0
 39 67  2  0  0  0
 40 52  1  0  0  0
 40 53  2  0  0  0
 40 58  1  0  0  0
 41110  1  0  0  0
 41111  1  0  0  0
 41112  1  0  0  0
 41 48  1  0  0  0
 42 43  1  0  0  0
 42 66  1  0  0  0
 42113  1  0  0  0
 42114  1  0  0  0
 43 44  1  0  0  0
 44115  1  0  0  0
 45 46  2  0  0  0
 45116  1  0  0  0
 46117  1  0  0  0
 47118  1  0  0  0
 47119  1  0  0  0
 48 56  1  0  0  0
 48 65  1  0  0  0
 48120  1  0  0  0
 49 50  1  0  0  0
 49 53  1  0  0  0
 49 64  1  0  0  0
 49121  1  0  0  0
 50 51  1  0  0  0
 50122  1  0  0  0
 50123  1  0  0  0
 51 52  1  0  0  0
 51124  1  0  0  0
 51125  1  0  0  0
 52126  1  0  0  0
 52127  1  0  0  0
 53 54  1  0  0  0
 54 55  2  0  0  0
 54128  1  0  0  0
 55 57  1  0  0  0
 55129  1  0  0  0
 56 69  2  0  0  0
 57 58  2  0  0  0
 57130  1  0  0  0
 58131  1  0  0  0
 59 60  1  0  0  0
 59 61  1  0  0  0
 59 62  1  0  0  0
 60132  1  0  0  0
 60133  1  0  0  0
 60134  1  0  0  0
 61135  1  0  0  0
 61136  1  0  0  0
 61137  1  0  0  0
 62138  1  0  0  0
 62139  1  0  0  0
 62140  1  0  0  0
 63 65  1  0  0  0
 63141  1  0  0  0
 63142  1  0  0  0
 63143  1  0  0  0
 64144  1  0  0  0
 65145  1  0  0  0
 68 81  1  0  0  0
 71 72  2  0  0  0
 71 75  1  0  0  0
 71146  1  0  0  0
 72 73  1  0  0  0
 72 76  1  0  0  0
 73 74  2  0  0  0
 73 83  1  0  0  0
 74 78  1  0  0  0
 74 82  1  0  0  0
 75 82  2  0  0  0
 75 84  1  0  0  0
 76 79  1  0  0  0
 76 85  2  0  0  0
 77 80  1  0  0  0
 77 81  1  0  0  0
 77 86  2  0  0  0
 78147  1  0  0  0
 78148  1  0  0  0
 78149  1  0  0  0
 79150  1  0  0  0
 79151  1  0  0  0
 79152  1  0  0  0
 80 83  1  0  0  0
 80153  1  0  0  0
 80154  1  0  0  0
 81155  1  0  0  0
 81156  1  0  0  0
 83157  1  0  0  0
 84158  1  0  0  0
M  ISO  4   1 100  68 101  81 101  84 100
M  END
> <chiral flag>
0

> <version>
0

> <s_m_source_file>
/data/baiqing/PycharmProjects/Reinvent-master-3.2/result/LINK_invent/BTK/process_docking_weight1_custom_product_contain_oxygen_bond_distance_aromatic_linkinvent_7_9_3/rearranged_h_0165.sdf

> <i_m_source_file_index>
20

> <r_mmod_Potential_Energy-OPLS-2005>
53.6070518493652

> <r_mmod_Stretch_Energy-OPLS-2005>
84.6045989990234

> <r_mmod_Bend_Energy-OPLS-2005>
159.983795166016

> <r_mmod_Torsional_Energy-OPLS-2005>
275.275604248047

> <r_mmod_Improper_Torsional_Energy-OPLS-2005>
6.86893510818481

> <r_mmod_Van_der_Waal_Energy-OPLS-2005>
146.248565673828

> <r_mmod_Electrostatic_Energy-OPLS-2005>
-398.994079589844

> <r_mmod_Solvation_Energy-OPLS-2005>
-268.220184326172

> <b_mmod_Minimization_Converged-OPLS-2005>
0

> <r_mmod_RMS_Derivative-OPLS-2005>
3.23116660118103

$$$$
20
                    3D
 Structure written by MMmdl.
157165  0  0  1  0            999 V2000
  -30.6905  -14.5085   20.5390 C   0  0  0  0  0  0
  -30.4226  -12.3138   19.4427 C   0  0  0  0  0  0
  -29.4983  -12.4909   18.2193 C   0  0  0  0  0  0
  -28.0191  -12.3549   18.6302 C   0  0  0  0  0  0
  -27.6598  -13.2101   19.8749 C   0  0  2  0  0  0
  -28.7009  -13.0179   21.0020 C   0  0  0  0  0  0
  -25.2579  -13.8165   20.5697 C   0  0  0  0  0  0
  -24.1831  -13.0438   20.9183 C   0  0  0  0  0  0
  -24.6391  -11.6907   20.8743 C   0  0  0  0  0  0
  -23.9060  -10.4293   21.0416 C   0  0  0  0  0  0
  -24.3612   -9.4203   21.9189 C   0  0  0  0  0  0
  -23.6282   -8.2242   22.0755 C   0  0  0  0  0  0
  -22.4264   -8.0285   21.3549 C   0  0  0  0  0  0
  -21.9905   -9.0259   20.4653 C   0  0  0  0  0  0
  -22.7234  -10.2136   20.3062 C   0  0  0  0  0  0
  -21.6852   -6.0738   22.5280 C   0  0  0  0  0  0
  -21.4015   -6.5643   23.8214 C   0  0  0  0  0  0
  -21.3656   -5.6794   24.9176 C   0  0  0  0  0  0
  -21.6041   -4.3056   24.7226 C   0  0  0  0  0  0
  -21.8816   -3.8148   23.4348 C   0  0  0  0  0  0
  -21.9188   -4.6965   22.3404 C   0  0  0  0  0  0
  -22.7855  -13.5238   21.1848 C   0  0  0  0  0  0
  -22.1659   -4.2151   21.0980 F   0  0  0  0  0  0
  -21.5626   -3.4539   25.7737 F   0  0  0  0  0  0
  -30.0327  -13.3168   20.4491 N   0  0  0  0  0  0
  -26.3015  -12.9341   20.3376 N   0  0  0  0  0  0
  -25.9319  -11.6501   20.5783 N   0  0  0  0  0  0
  -22.0502  -12.8233   22.0407 N   0  0  0  0  0  0
  -25.4305  -15.1885   20.4132 N   0  0  0  0  0  0
  -31.8290  -14.6600   20.0817 O   0  0  0  0  0  0
  -21.6634   -6.8881   21.4241 O   0  0  0  0  0  0
  -22.3548  -14.5556   20.6710 O   0  0  0  0  0  0
  -24.6160  -31.8670   23.2110 C   0  0  0  0  0  0
  -25.9050  -32.4816   23.8401 C   0  0  1  0  0  0
  -27.2281  -27.4150   20.1017 C   0  0  0  0  0  0
  -25.5904  -33.8616   24.2327 N   0  0  0  0  0  0
  -23.4053  -30.4914   21.5516 C   0  0  2  0  0  0
  -24.8522  -28.9577   20.1134 C   0  0  0  0  0  0
  -22.7420  -29.4654   22.4989 C   0  0  0  0  0  0
  -18.0268  -28.1378   22.8490 C   0  0  0  0  0  0
  -24.1486  -36.7316   23.2638 C   0  0  0  0  0  0
  -25.9370  -30.8233   21.3711 C   0  0  0  0  0  0
  -26.0129  -29.4560   20.7208 C   0  0  0  0  0  0
  -27.2037  -28.6888   20.7204 C   0  0  0  0  0  0
  -26.0560  -26.9472   19.4678 C   0  0  0  0  0  0
  -24.8690  -27.7020   19.4844 C   0  0  0  0  0  0
  -23.6153  -29.8262   20.1655 C   0  0  0  0  0  0
  -25.4107  -36.3108   24.0336 C   0  0  1  0  0  0
  -20.5861  -28.3670   23.1311 C   0  0  2  0  0  0
  -20.6763  -26.9404   22.5416 C   0  0  0  0  0  0
  -19.5744  -26.6387   21.5211 C   0  0  0  0  0  0
  -18.1919  -26.7920   22.1620 C   0  0  0  0  0  0
  -19.1520  -28.8838   23.2895 C   0  0  0  0  0  0
  -18.9447  -30.1442   23.8910 C   0  0  0  0  0  0
  -17.6455  -30.6586   24.0564 C   0  0  0  0  0  0
  -25.9036  -34.9473   23.5128 C   0  0  0  0  0  0
  -16.5344  -29.9086   23.6331 C   0  0  0  0  0  0
  -16.7259  -28.6499   23.0354 C   0  0  0  0  0  0
  -26.4484  -31.6598   25.0730 C   0  0  0  0  0  0
  -25.3758  -31.3694   26.1482 C   0  0  0  0  0  0
  -27.0325  -30.3036   24.6122 C   0  0  0  0  0  0
  -27.6062  -32.4317   25.7486 C   0  0  0  0  0  0
  -27.5578  -37.1809   24.8464 C   0  0  0  0  0  0
  -21.4147  -29.3034   22.3720 N   0  0  0  0  0  0
  -26.4289  -37.3794   23.9412 N   0  0  0  0  0  0
  -24.6708  -31.0751   22.1026 N   0  0  0  0  0  0
  -23.4178  -28.8188   23.3036 O   0  0  0  0  0  0
  -28.3650  -26.6284   20.1101 O   0  0  0  0  0  0
  -26.5598  -34.8926   22.4691 O   0  0  0  0  0  0
  -23.5347  -32.1440   23.7491 O   0  0  0  0  0  0
  -29.8565  -19.2466   21.5950 C   0  0  0  0  0  0
  -29.7429  -17.8485   21.8080 C   0  0  0  0  0  0
  -30.6347  -18.7439   19.3890 C   0  0  0  0  0  0
  -30.3354  -19.7267   20.3571 C   0  0  0  0  0  0
  -30.1243  -16.9330   20.7985 C   0  0  0  0  0  0
  -30.5804  -21.1705   20.0838 C   0  0  0  0  0  0
  -29.9053  -23.6253   20.1650 C   0  0  0  0  0  0
  -29.2182  -24.6439   21.1337 C   0  0  2  0  0  0
  -28.8833  -24.0984   22.5413 C   0  0  0  0  0  0
  -30.5397  -17.4055   19.5984 N   0  0  0  0  0  0
  -31.7221  -21.5185   19.4651 N   0  0  0  0  0  0
  -29.9937  -15.5341   21.0807 N   0  0  0  0  0  0
  -28.0261  -25.2654   20.5409 N   0  0  0  0  0  0
  -29.7175  -22.1639   20.4339 N   0  3  0  0  0  0
  -28.3620  -25.0721   23.2902 F   0  0  0  0  0  0
  -29.9835  -23.6425   23.1397 F   0  0  0  0  0  0
  -27.9903  -23.1088   22.4587 F   0  0  0  0  0  0
  -31.4685  -12.4032   19.1433 H   0  0  0  0  0  0
  -30.3208  -11.3106   19.8588 H   0  0  0  0  0  0
  -29.7401  -11.7519   17.4544 H   0  0  0  0  0  0
  -29.6675  -13.4675   17.7637 H   0  0  0  0  0  0
  -27.8346  -11.3008   18.8422 H   0  0  0  0  0  0
  -27.3690  -12.6137   17.7937 H   0  0  0  0  0  0
  -27.6958  -14.2537   19.5613 H   0  0  0  0  0  0
  -28.6783  -11.9909   21.3689 H   0  0  0  0  0  0
  -28.4595  -13.6387   21.8655 H   0  0  0  0  0  0
  -25.2761   -9.5670   22.4764 H   0  0  0  0  0  0
  -23.9987   -7.4635   22.7473 H   0  0  0  0  0  0
  -21.0840   -8.8786   19.8961 H   0  0  0  0  0  0
  -22.3704  -10.9676   19.6171 H   0  0  0  0  0  0
  -21.2018   -7.6151   23.9718 H   0  0  0  0  0  0
  -21.1478   -6.0528   25.9080 H   0  0  0  0  0  0
  -22.0597   -2.7609   23.2849 H   0  0  0  0  0  0
  -22.4108  -11.9879   22.4773 H   0  0  0  0  0  0
  -21.1131  -13.1275   22.2640 H   0  0  0  0  0  0
  -24.6665  -15.8456   20.5316 H   0  0  0  0  0  0
  -26.2835  -15.6278   20.0913 H   0  0  0  0  0  0
  -26.7114  -32.5524   23.1160 H   0  0  0  0  0  0
  -25.0063  -33.9786   25.0472 H   0  0  0  0  0  0
  -22.6945  -31.3087   21.4129 H   0  0  0  0  0  0
  -23.3743  -35.9654   23.3317 H   0  0  0  0  0  0
  -24.3571  -36.8922   22.2048 H   0  0  0  0  0  0
  -23.7246  -37.6527   23.6648 H   0  0  0  0  0  0
  -26.0536  -31.5868   20.6008 H   0  0  0  0  0  0
  -26.8227  -30.8759   21.9919 H   0  0  0  0  0  0
  -28.0970  -29.0631   21.2005 H   0  0  0  0  0  0
  -26.0541  -25.9862   18.9727 H   0  0  0  0  0  0
  -23.9801  -27.3145   19.0059 H   0  0  0  0  0  0
  -23.7243  -30.6029   19.4076 H   0  0  0  0  0  0
  -22.7387  -29.2479   19.8674 H   0  0  0  0  0  0
  -25.1284  -36.1978   25.0827 H   0  0  0  0  0  0
  -20.9944  -28.3231   24.1435 H   0  0  0  0  0  0
  -20.5668  -26.2272   23.3600 H   0  0  0  0  0  0
  -21.6630  -26.7452   22.1203 H   0  0  0  0  0  0
  -19.6910  -25.6300   21.1228 H   0  0  0  0  0  0
  -19.6681  -27.3205   20.6746 H   0  0  0  0  0  0
  -17.4189  -26.6669   21.4025 H   0  0  0  0  0  0
  -18.0326  -26.0056   22.9010 H   0  0  0  0  0  0
  -19.7926  -30.7253   24.2286 H   0  0  0  0  0  0
  -17.5010  -31.6266   24.5161 H   0  0  0  0  0  0
  -15.5343  -30.2994   23.7656 H   0  0  0  0  0  0
  -15.8653  -28.0825   22.7076 H   0  0  0  0  0  0
  -24.5919  -30.7062   25.7810 H   0  0  0  0  0  0
  -24.8967  -32.2846   26.4965 H   0  0  0  0  0  0
  -25.8110  -30.8829   27.0219 H   0  0  0  0  0  0
  -26.2876  -29.6781   24.1186 H   0  0  0  0  0  0
  -27.4102  -29.7290   25.4591 H   0  0  0  0  0  0
  -27.8711  -30.4353   23.9280 H   0  0  0  0  0  0
  -27.2683  -33.3608   26.2087 H   0  0  0  0  0  0
  -28.3849  -32.6894   25.0296 H   0  0  0  0  0  0
  -28.0755  -31.8432   26.5380 H   0  0  0  0  0  0
  -28.2603  -38.0099   24.7509 H   0  0  0  0  0  0
  -28.1067  -36.2635   24.6294 H   0  0  0  0  0  0
  -27.2294  -37.1460   25.8865 H   0  0  0  0  0  0
  -20.9307  -29.8750   21.6936 H   0  0  0  0  0  0
  -26.0185  -38.2877   24.1408 H   0  0  0  0  0  0
  -29.6072  -19.9372   22.3867 H   0  0  0  0  0  0
  -29.3911  -17.4923   22.7663 H   0  0  0  0  0  0
  -30.9970  -19.0371   18.4146 H   0  0  0  0  0  0
  -30.9739  -23.8242   20.2323 H   0  0  0  0  0  0
  -29.6324  -23.8412   19.1318 H   0  0  0  0  0  0
  -29.9379  -25.4461   21.3023 H   0  0  0  0  0  0
  -32.4455  -20.8405   19.2743 H   0  0  0  0  0  0
  -31.9331  -22.4678   19.2004 H   0  0  0  0  0  0
  -29.1807  -15.2703   21.6136 H   0  0  0  0  0  0
  -27.3754  -25.3969   21.3109 H   0  0  0  0  0  0
  -28.8124  -21.9025   20.8044 H   0  0  0  0  0  0
  1 25  1  0  0  0
  1 30  2  0  0  0
  1 82  1  0  0  0
  2  3  1  0  0  0
  2 25  1  0  0  0
  2 88  1  0  0  0
  2 89  1  0  0  0
  3  4  1  0  0  0
  3 90  1  0  0  0
  3 91  1  0  0  0
  4  5  1  0  0  0
  4 92  1  0  0  0
  4 93  1  0  0  0
  5  6  1  0  0  0
  5 26  1  0  0  0
  5 94  1  0  0  0
  6 25  1  0  0  0
  6 95  1  0  0  0
  6 96  1  0  0  0
  7  8  2  0  0  0
  7 26  1  0  0  0
  7 29  1  0  0  0
  8  9  1  0  0  0
  8 22  1  0  0  0
  9 10  1  0  0  0
  9 27  2  0  0  0
 10 11  2  0  0  0
 10 15  1  0  0  0
 11 12  1  0  0  0
 11 97  1  0  0  0
 12 13  2  0  0  0
 12 98  1  0  0  0
 13 14  1  0  0  0
 13 31  1  0  0  0
 14 15  2  0  0  0
 14 99  1  0  0  0
 15100  1  0  0  0
 16 17  2  0  0  0
 16 21  1  0  0  0
 16 31  1  0  0  0
 17 18  1  0  0  0
 17101  1  0  0  0
 18 19  2  0  0  0
 18102  1  0  0  0
 19 20  1  0  0  0
 19 24  1  0  0  0
 20 21  2  0  0  0
 20103  1  0  0  0
 21 23  1  0  0  0
 22 28  1  0  0  0
 22 32  2  0  0  0
 26 27  1  0  0  0
 28104  1  0  0  0
 28105  1  0  0  0
 29106  1  0  0  0
 29107  1  0  0  0
 33 34  1  0  0  0
 33 66  1  0  0  0
 33 70  2  0  0  0
 34 36  1  0  0  0
 34 59  1  0  0  0
 34108  1  0  0  0
 35 44  2  0  0  0
 35 45  1  0  0  0
 35 68  1  0  0  0
 36 56  1  0  0  0
 36109  1  0  0  0
 37 39  1  0  0  0
 37 47  1  0  0  0
 37 66  1  0  0  0
 37110  1  0  0  0
 38 43  2  0  0  0
 38 46  1  0  0  0
 38 47  1  0  0  0
 39 64  1  0  0  0
 39 67  2  0  0  0
 40 52  1  0  0  0
 40 53  2  0  0  0
 40 58  1  0  0  0
 41111  1  0  0  0
 41112  1  0  0  0
 41113  1  0  0  0
 41 48  1  0  0  0
 42 43  1  0  0  0
 42 66  1  0  0  0
 42114  1  0  0  0
 42115  1  0  0  0
 43 44  1  0  0  0
 44116  1  0  0  0
 45 46  2  0  0  0
 45117  1  0  0  0
 46118  1  0  0  0
 47119  1  0  0  0
 47120  1  0  0  0
 48 56  1  0  0  0
 48 65  1  0  0  0
 48121  1  0  0  0
 49 50  1  0  0  0
 49 53  1  0  0  0
 49 64  1  0  0  0
 49122  1  0  0  0
 50 51  1  0  0  0
 50123  1  0  0  0
 50124  1  0  0  0
 51 52  1  0  0  0
 51125  1  0  0  0
 51126  1  0  0  0
 52127  1  0  0  0
 52128  1  0  0  0
 53 54  1  0  0  0
 54 55  2  0  0  0
 54129  1  0  0  0
 55 57  1  0  0  0
 55130  1  0  0  0
 56 69  2  0  0  0
 57 58  2  0  0  0
 57131  1  0  0  0
 58132  1  0  0  0
 59 60  1  0  0  0
 59 61  1  0  0  0
 59 62  1  0  0  0
 60133  1  0  0  0
 60134  1  0  0  0
 60135  1  0  0  0
 61136  1  0  0  0
 61137  1  0  0  0
 61138  1  0  0  0
 62139  1  0  0  0
 62140  1  0  0  0
 62141  1  0  0  0
 63 65  1  0  0  0
 63142  1  0  0  0
 63143  1  0  0  0
 63144  1  0  0  0
 64145  1  0  0  0
 65146  1  0  0  0
 68 83  1  0  0  0
 71 72  2  0  0  0
 71 74  1  0  0  0
 71147  1  0  0  0
 72 75  1  0  0  0
 72148  1  0  0  0
 73 74  2  0  0  0
 73 80  1  0  0  0
 73149  1  0  0  0
 74 76  1  0  0  0
 75 80  2  0  0  0
 75 82  1  0  0  0
 76 81  1  0  0  0
 76 84  2  0  0  0
 77 84  1  0  0  0
 77150  1  0  0  0
 77151  1  0  0  0
 77 78  1  0  0  0
 78 79  1  0  0  0
 78 83  1  0  0  0
 78152  1  0  0  0
 79 85  1  0  0  0
 79 86  1  0  0  0
 79 87  1  0  0  0
 81153  1  0  0  0
 81154  1  0  0  0
 82155  1  0  0  0
 83156  1  0  0  0
 84157  1  0  0  0
M  CHG  1  84   1
M  ISO  4   1 100  68 101  82 100  83 101
M  END
> <chiral flag>
0

> <version>
0

> <s_m_source_file>
/data/baiqing/PycharmProjects/Reinvent-master-3.2/result/LINK_invent/BTK/process_docking_weight1_custom_product_contain_oxygen_bond_distance_aromatic_linkinvent_7_9_3/rearranged_h_0165.sdf

> <i_m_source_file_index>
21

> <r_mmod_Potential_Energy-OPLS-2005>
-204.14453125

> <r_mmod_Stretch_Energy-OPLS-2005>
44.5484390258789

> <r_mmod_Bend_Energy-OPLS-2005>
105.516761779785

> <r_mmod_Torsional_Energy-OPLS-2005>
259.282897949219

> <r_mmod_Improper_Torsional_Energy-OPLS-2005>
3.17057418823242

> <r_mmod_Van_der_Waal_Energy-OPLS-2005>
160.329437255859

> <r_mmod_Electrostatic_Energy-OPLS-2005>
-308.133117675781

> <r_mmod_Solvation_Energy-OPLS-2005>
-486.651733398438

> <b_mmod_Minimization_Converged-OPLS-2005>
0

> <r_mmod_RMS_Derivative-OPLS-2005>
1.352090716362

$$$$
21
                    3D
 Structure written by MMmdl.
153161  0  0  1  0            999 V2000
  -30.7086  -14.4637   20.5985 C   0  0  0  0  0  0
  -30.4297  -12.3159   19.4168 C   0  0  0  0  0  0
  -29.4915  -12.5174   18.2069 C   0  0  0  0  0  0
  -28.0125  -12.3872   18.6159 C   0  0  0  0  0  0
  -27.6672  -13.2100   19.8848 C   0  0  2  0  0  0
  -28.7105  -12.9691   21.0008 C   0  0  0  0  0  0
  -25.2594  -13.8178   20.5709 C   0  0  0  0  0  0
  -24.1854  -13.0451   20.9174 C   0  0  0  0  0  0
  -24.6415  -11.6907   20.8771 C   0  0  0  0  0  0
  -23.9057  -10.4304   21.0437 C   0  0  0  0  0  0
  -24.3600   -9.4221   21.9216 C   0  0  0  0  0  0
  -23.6283   -8.2248   22.0779 C   0  0  0  0  0  0
  -22.4274   -8.0300   21.3545 C   0  0  0  0  0  0
  -21.9925   -9.0275   20.4632 C   0  0  0  0  0  0
  -22.7244  -10.2151   20.3064 C   0  0  0  0  0  0
  -21.6870   -6.0741   22.5280 C   0  0  0  0  0  0
  -21.4002   -6.5645   23.8209 C   0  0  0  0  0  0
  -21.3663   -5.6802   24.9180 C   0  0  0  0  0  0
  -21.6052   -4.3067   24.7227 C   0  0  0  0  0  0
  -21.8829   -3.8155   23.4349 C   0  0  0  0  0  0
  -21.9185   -4.6962   22.3398 C   0  0  0  0  0  0
  -22.7863  -13.5227   21.1822 C   0  0  0  0  0  0
  -22.1666   -4.2160   21.0973 F   0  0  0  0  0  0
  -21.5627   -3.4544   25.7737 F   0  0  0  0  0  0
  -30.0465  -13.2812   20.4613 N   0  0  0  0  0  0
  -26.3060  -12.9372   20.3413 N   0  0  0  0  0  0
  -25.9342  -11.6516   20.5778 N   0  0  0  0  0  0
  -22.0450  -12.8223   22.0335 N   0  0  0  0  0  0
  -25.4294  -15.1904   20.4128 N   0  0  0  0  0  0
  -31.8032  -14.6826   20.0723 O   0  0  0  0  0  0
  -21.6641   -6.8900   21.4259 O   0  0  0  0  0  0
  -22.3546  -14.5547   20.6681 O   0  0  0  0  0  0
  -24.6171  -31.8661   23.2090 C   0  0  0  0  0  0
  -25.9053  -32.4811   23.8407 C   0  0  1  0  0  0
  -27.2523  -27.4372   20.1028 C   0  0  0  0  0  0
  -25.5917  -33.8618   24.2347 N   0  0  0  0  0  0
  -23.4069  -30.4835   21.5513 C   0  0  2  0  0  0
  -24.8583  -28.9396   20.1282 C   0  0  0  0  0  0
  -22.7414  -29.4656   22.5038 C   0  0  0  0  0  0
  -18.0257  -28.1420   22.8497 C   0  0  0  0  0  0
  -24.1488  -36.7294   23.2647 C   0  0  0  0  0  0
  -25.9362  -30.8294   21.3652 C   0  0  0  0  0  0
  -26.0192  -29.4630   20.7135 C   0  0  0  0  0  0
  -27.2229  -28.7211   20.6917 C   0  0  0  0  0  0
  -26.0767  -26.9183   19.5242 C   0  0  0  0  0  0
  -24.8801  -27.6630   19.5356 C   0  0  0  0  0  0
  -23.6171  -29.8025   20.1725 C   0  0  0  0  0  0
  -25.4115  -36.3093   24.0343 C   0  0  1  0  0  0
  -20.5846  -28.3698   23.1333 C   0  0  2  0  0  0
  -20.6737  -26.9439   22.5422 C   0  0  0  0  0  0
  -19.5704  -26.6401   21.5220 C   0  0  0  0  0  0
  -18.1887  -26.7971   22.1622 C   0  0  0  0  0  0
  -19.1514  -28.8881   23.2888 C   0  0  0  0  0  0
  -18.9434  -30.1497   23.8869 C   0  0  0  0  0  0
  -17.6431  -30.6616   24.0574 C   0  0  0  0  0  0
  -25.9047  -34.9463   23.5141 C   0  0  0  0  0  0
  -16.5324  -29.9097   23.6374 C   0  0  0  0  0  0
  -16.7241  -28.6536   23.0364 C   0  0  0  0  0  0
  -26.4490  -31.6598   25.0750 C   0  0  0  0  0  0
  -25.3755  -31.3658   26.1479 C   0  0  0  0  0  0
  -27.0395  -30.3056   24.6174 C   0  0  0  0  0  0
  -27.6056  -32.4335   25.7510 C   0  0  0  0  0  0
  -27.5597  -37.1804   24.8480 C   0  0  0  0  0  0
  -21.4146  -29.3043   22.3747 N   0  0  0  0  0  0
  -26.4315  -37.3776   23.9410 N   0  0  0  0  0  0
  -24.6710  -31.0745   22.0995 N   0  0  0  0  0  0
  -23.4161  -28.8198   23.3092 O   0  0  0  0  0  0
  -28.4171  -26.7079   20.0355 O   0  0  0  0  0  0
  -26.5583  -34.8908   22.4683 O   0  0  0  0  0  0
  -23.5367  -32.1431   23.7466 O   0  0  0  0  0  0
  -29.7827  -18.7413   19.5522 C   0  0  0  0  0  0
  -29.7759  -17.3482   19.7860 C   0  0  0  0  0  0
  -30.4782  -17.7338   22.0812 C   0  0  0  0  0  0
  -30.1410  -19.6551   20.5730 C   0  0  0  0  0  0
  -30.1363  -16.8259   21.0509 C   0  0  0  0  0  0
  -30.4984  -19.1309   21.8442 C   0  0  0  0  0  0
  -30.2389  -21.1316   20.2492 C   0  0  0  0  0  0
  -28.9559  -24.3176   20.3931 C   0  0  0  0  0  0
  -30.0066  -23.4665   21.1429 C   0  0  0  0  0  0
  -28.5513  -25.6723   21.0219 C   0  0  0  0  0  0
  -30.0707  -15.4184   21.3050 N   0  0  0  0  0  0
  -29.7521  -22.0112   21.1431 N   0  0  0  0  0  0
  -30.7491  -21.4917   19.1843 O   0  0  0  0  0  0
  -28.4587  -23.9308   19.3295 O   0  0  0  0  0  0
  -30.8842  -19.9548   22.8514 F   0  0  0  0  0  0
  -31.4684  -12.4364   19.0994 H   0  0  0  0  0  0
  -30.3511  -11.2983   19.8023 H   0  0  0  0  0  0
  -29.7180  -11.7922   17.4241 H   0  0  0  0  0  0
  -29.6633  -13.5031   17.7706 H   0  0  0  0  0  0
  -27.8073  -11.3296   18.7859 H   0  0  0  0  0  0
  -27.3686  -12.6894   17.7882 H   0  0  0  0  0  0
  -27.7151  -14.2631   19.6061 H   0  0  0  0  0  0
  -28.6831  -11.9242   21.3140 H   0  0  0  0  0  0
  -28.4631  -13.5426   21.8935 H   0  0  0  0  0  0
  -25.2750   -9.5684   22.4788 H   0  0  0  0  0  0
  -24.0004   -7.4638   22.7507 H   0  0  0  0  0  0
  -21.0884   -8.8779   19.8908 H   0  0  0  0  0  0
  -22.3736  -10.9692   19.6161 H   0  0  0  0  0  0
  -21.1992   -7.6148   23.9716 H   0  0  0  0  0  0
  -21.1481   -6.0534   25.9086 H   0  0  0  0  0  0
  -22.0595   -2.7618   23.2863 H   0  0  0  0  0  0
  -22.4054  -11.9903   22.4790 H   0  0  0  0  0  0
  -21.1022  -13.1237   22.2398 H   0  0  0  0  0  0
  -24.6685  -15.8488   20.5359 H   0  0  0  0  0  0
  -26.2867  -15.6315   20.1063 H   0  0  0  0  0  0
  -26.7136  -32.5530   23.1188 H   0  0  0  0  0  0
  -25.0148  -33.9799   25.0555 H   0  0  0  0  0  0
  -22.6951  -31.2983   21.4030 H   0  0  0  0  0  0
  -23.3780  -35.9603   23.3285 H   0  0  0  0  0  0
  -24.3594  -36.8946   22.2069 H   0  0  0  0  0  0
  -23.7209  -37.6472   23.6697 H   0  0  0  0  0  0
  -26.0589  -31.5974   20.6007 H   0  0  0  0  0  0
  -26.8194  -30.8802   21.9905 H   0  0  0  0  0  0
  -28.1263  -29.1309   21.1217 H   0  0  0  0  0  0
  -26.0925  -25.9378   19.0675 H   0  0  0  0  0  0
  -23.9870  -27.2437   19.0950 H   0  0  0  0  0  0
  -23.7223  -30.5679   19.4040 H   0  0  0  0  0  0
  -22.7446  -29.2130   19.8856 H   0  0  0  0  0  0
  -25.1285  -36.1981   25.0845 H   0  0  0  0  0  0
  -20.9924  -28.3264   24.1448 H   0  0  0  0  0  0
  -20.5685  -26.2294   23.3601 H   0  0  0  0  0  0
  -21.6613  -26.7486   22.1202 H   0  0  0  0  0  0
  -19.6856  -25.6307   21.1255 H   0  0  0  0  0  0
  -19.6642  -27.3211   20.6755 H   0  0  0  0  0  0
  -17.4165  -26.6794   21.3997 H   0  0  0  0  0  0
  -18.0210  -26.0106   22.9000 H   0  0  0  0  0  0
  -19.7896  -30.7363   24.2199 H   0  0  0  0  0  0
  -17.4967  -31.6297   24.5184 H   0  0  0  0  0  0
  -15.5329  -30.2978   23.7712 H   0  0  0  0  0  0
  -15.8645  -28.0848   22.7064 H   0  0  0  0  0  0
  -24.5952  -30.6997   25.7780 H   0  0  0  0  0  0
  -24.8927  -32.2791   26.4951 H   0  0  0  0  0  0
  -25.8110  -30.8796   27.0219 H   0  0  0  0  0  0
  -26.2981  -29.6721   24.1294 H   0  0  0  0  0  0
  -27.4236  -29.7377   25.4660 H   0  0  0  0  0  0
  -27.8764  -30.4375   23.9316 H   0  0  0  0  0  0
  -27.2693  -33.3661   26.2044 H   0  0  0  0  0  0
  -28.3882  -32.6845   25.0340 H   0  0  0  0  0  0
  -28.0716  -31.8497   26.5460 H   0  0  0  0  0  0
  -28.2595  -38.0108   24.7545 H   0  0  0  0  0  0
  -28.1100  -36.2648   24.6291 H   0  0  0  0  0  0
  -27.2317  -37.1440   25.8879 H   0  0  0  0  0  0
  -20.9331  -29.8755   21.6954 H   0  0  0  0  0  0
  -26.0205  -38.2867   24.1384 H   0  0  0  0  0  0
  -29.5073  -19.1103   18.5719 H   0  0  0  0  0  0
  -29.4834  -16.6869   18.9802 H   0  0  0  0  0  0
  -30.7550  -17.3661   23.0603 H   0  0  0  0  0  0
  -30.0636  -23.8051   22.1782 H   0  0  0  0  0  0
  -30.9861  -23.6716   20.7080 H   0  0  0  0  0  0
  -29.3099  -25.9788   21.7437 H   0  0  0  0  0  0
  -27.6227  -25.5294   21.5752 H   0  0  0  0  0  0
  -29.2819  -15.1011   21.8483 H   0  0  0  0  0  0
  -29.3008  -21.6306   21.9638 H   0  0  0  0  0  0
  1 25  1  0  0  0
  1 30  2  0  0  0
  1 81  1  0  0  0
  2  3  1  0  0  0
  2 25  1  0  0  0
  2 86  1  0  0  0
  2 87  1  0  0  0
  3  4  1  0  0  0
  3 88  1  0  0  0
  3 89  1  0  0  0
  4  5  1  0  0  0
  4 90  1  0  0  0
  4 91  1  0  0  0
  5  6  1  0  0  0
  5 26  1  0  0  0
  5 92  1  0  0  0
  6 25  1  0  0  0
  6 93  1  0  0  0
  6 94  1  0  0  0
  7  8  2  0  0  0
  7 26  1  0  0  0
  7 29  1  0  0  0
  8  9  1  0  0  0
  8 22  1  0  0  0
  9 10  1  0  0  0
  9 27  2  0  0  0
 10 11  2  0  0  0
 10 15  1  0  0  0
 11 12  1  0  0  0
 11 95  1  0  0  0
 12 13  2  0  0  0
 12 96  1  0  0  0
 13 14  1  0  0  0
 13 31  1  0  0  0
 14 15  2  0  0  0
 14 97  1  0  0  0
 15 98  1  0  0  0
 16 17  2  0  0  0
 16 21  1  0  0  0
 16 31  1  0  0  0
 17 18  1  0  0  0
 17 99  1  0  0  0
 18 19  2  0  0  0
 18100  1  0  0  0
 19 20  1  0  0  0
 19 24  1  0  0  0
 20 21  2  0  0  0
 20101  1  0  0  0
 21 23  1  0  0  0
 22 28  1  0  0  0
 22 32  2  0  0  0
 26 27  1  0  0  0
 28102  1  0  0  0
 28103  1  0  0  0
 29104  1  0  0  0
 29105  1  0  0  0
 33 34  1  0  0  0
 33 66  1  0  0  0
 33 70  2  0  0  0
 34 36  1  0  0  0
 34 59  1  0  0  0
 34106  1  0  0  0
 35 44  2  0  0  0
 35 45  1  0  0  0
 35 68  1  0  0  0
 36 56  1  0  0  0
 36107  1  0  0  0
 37 39  1  0  0  0
 37 47  1  0  0  0
 37 66  1  0  0  0
 37108  1  0  0  0
 38 43  2  0  0  0
 38 46  1  0  0  0
 38 47  1  0  0  0
 39 64  1  0  0  0
 39 67  2  0  0  0
 40 52  1  0  0  0
 40 53  2  0  0  0
 40 58  1  0  0  0
 41109  1  0  0  0
 41110  1  0  0  0
 41111  1  0  0  0
 41 48  1  0  0  0
 42 43  1  0  0  0
 42 66  1  0  0  0
 42112  1  0  0  0
 42113  1  0  0  0
 43 44  1  0  0  0
 44114  1  0  0  0
 45 46  2  0  0  0
 45115  1  0  0  0
 46116  1  0  0  0
 47117  1  0  0  0
 47118  1  0  0  0
 48 56  1  0  0  0
 48 65  1  0  0  0
 48119  1  0  0  0
 49 50  1  0  0  0
 49 53  1  0  0  0
 49 64  1  0  0  0
 49120  1  0  0  0
 50 51  1  0  0  0
 50121  1  0  0  0
 50122  1  0  0  0
 51 52  1  0  0  0
 51123  1  0  0  0
 51124  1  0  0  0
 52125  1  0  0  0
 52126  1  0  0  0
 53 54  1  0  0  0
 54 55  2  0  0  0
 54127  1  0  0  0
 55 57  1  0  0  0
 55128  1  0  0  0
 56 69  2  0  0  0
 57 58  2  0  0  0
 57129  1  0  0  0
 58130  1  0  0  0
 59 60  1  0  0  0
 59 61  1  0  0  0
 59 62  1  0  0  0
 60131  1  0  0  0
 60132  1  0  0  0
 60133  1  0  0  0
 61134  1  0  0  0
 61135  1  0  0  0
 61136  1  0  0  0
 62137  1  0  0  0
 62138  1  0  0  0
 62139  1  0  0  0
 63 65  1  0  0  0
 63140  1  0  0  0
 63141  1  0  0  0
 63142  1  0  0  0
 64143  1  0  0  0
 65144  1  0  0  0
 68 80  1  0  0  0
 71 72  2  0  0  0
 71 74  1  0  0  0
 71145  1  0  0  0
 72 75  1  0  0  0
 72146  1  0  0  0
 73 75  2  0  0  0
 73 76  1  0  0  0
 73147  1  0  0  0
 74 76  2  0  0  0
 74 77  1  0  0  0
 75 81  1  0  0  0
 76 85  1  0  0  0
 77 82  1  0  0  0
 77 83  2  0  0  0
 78 79  1  0  0  0
 78 80  1  0  0  0
 78 84  2  0  0  0
 79 82  1  0  0  0
 79148  1  0  0  0
 79149  1  0  0  0
 80150  1  0  0  0
 80151  1  0  0  0
 81152  1  0  0  0
 82153  1  0  0  0
M  ISO  4   1 100  68 101  80 101  81 100
M  END
> <chiral flag>
0

> <version>
0

> <s_m_source_file>
/data/baiqing/PycharmProjects/Reinvent-master-3.2/result/LINK_invent/BTK/process_docking_weight1_custom_product_contain_oxygen_bond_distance_aromatic_linkinvent_7_9_3/rearranged_h_0165.sdf

> <i_m_source_file_index>
22

> <r_mmod_Potential_Energy-OPLS-2005>
-73.3133239746094

> <r_mmod_Stretch_Energy-OPLS-2005>
39.8874664306641

> <r_mmod_Bend_Energy-OPLS-2005>
92.1341400146484

> <r_mmod_Torsional_Energy-OPLS-2005>
282.284057617188

> <r_mmod_Improper_Torsional_Energy-OPLS-2005>
3.95369577407837

> <r_mmod_Van_der_Waal_Energy-OPLS-2005>
142.8916015625

> <r_mmod_Electrostatic_Energy-OPLS-2005>
-385.332336425781

> <r_mmod_Solvation_Energy-OPLS-2005>
-259.485534667969

> <b_mmod_Minimization_Converged-OPLS-2005>
0

> <r_mmod_RMS_Derivative-OPLS-2005>
3.53751420974731

$$$$
22
                    3D
 Structure written by MMmdl.
167175  0  0  1  0            999 V2000
  -30.5121  -14.9839   20.4082 C   0  0  0  0  0  0
  -30.4456  -12.6025   19.5229 C   0  0  0  0  0  0
  -29.5369  -12.5418   18.2718 C   0  0  0  0  0  0
  -28.0644  -12.3271   18.6736 C   0  0  0  0  0  0
  -27.6326  -13.2535   19.8418 C   0  0  2  0  0  0
  -28.6687  -13.2811   20.9863 C   0  0  0  0  0  0
  -25.2462  -13.8227   20.5697 C   0  0  0  0  0  0
  -24.1782  -13.0442   20.9220 C   0  0  0  0  0  0
  -24.6408  -11.6927   20.8748 C   0  0  0  0  0  0
  -23.9090  -10.4289   21.0396 C   0  0  0  0  0  0
  -24.3638   -9.4199   21.9167 C   0  0  0  0  0  0
  -23.6303   -8.2241   22.0752 C   0  0  0  0  0  0
  -22.4283   -8.0280   21.3546 C   0  0  0  0  0  0
  -21.9918   -9.0256   20.4653 C   0  0  0  0  0  0
  -22.7261  -10.2125   20.3044 C   0  0  0  0  0  0
  -21.6859   -6.0732   22.5278 C   0  0  0  0  0  0
  -21.4020   -6.5633   23.8212 C   0  0  0  0  0  0
  -21.3661   -5.6784   24.9174 C   0  0  0  0  0  0
  -21.6042   -4.3049   24.7222 C   0  0  0  0  0  0
  -21.8819   -3.8145   23.4342 C   0  0  0  0  0  0
  -21.9193   -4.6962   22.3401 C   0  0  0  0  0  0
  -22.7793  -13.5203   21.1867 C   0  0  0  0  0  0
  -22.1665   -4.2148   21.0979 F   0  0  0  0  0  0
  -21.5628   -3.4534   25.7733 F   0  0  0  0  0  0
  -29.9507  -13.7032   20.4040 N   0  0  0  0  0  0
  -26.2900  -12.9477   20.3229 N   0  0  0  0  0  0
  -25.9346  -11.6597   20.5725 N   0  0  0  0  0  0
  -22.0442  -12.8206   22.0434 N   0  0  0  0  0  0
  -25.4107  -15.1956   20.4125 N   0  0  0  0  0  0
  -31.6956  -15.0707   20.0608 O   0  0  0  0  0  0
  -21.6646   -6.8876   21.4238 O   0  0  0  0  0  0
  -22.3469  -14.5489   20.6687 O   0  0  0  0  0  0
  -24.6471  -31.8386   23.1829 C   0  0  0  0  0  0
  -25.9218  -32.4666   23.8250 C   0  0  1  0  0  0
  -27.2233  -27.0958   20.1595 C   0  0  0  0  0  0
  -25.5944  -33.8474   24.2160 N   0  0  0  0  0  0
  -23.4543  -30.4553   21.5305 C   0  0  2  0  0  0
  -24.9053  -28.8729   20.1108 C   0  0  0  0  0  0
  -22.7581  -29.4517   22.4844 C   0  0  0  0  0  0
  -18.0304  -28.1391   22.8464 C   0  0  0  0  0  0
  -24.1496  -36.7245   23.2644 C   0  0  0  0  0  0
  -26.0131  -30.6979   21.3909 C   0  0  0  0  0  0
  -26.0842  -29.3066   20.7307 C   0  0  0  0  0  0
  -27.2429  -28.4356   20.7342 C   0  0  0  0  0  0
  -26.0162  -26.7723   19.5006 C   0  0  0  0  0  0
  -24.8859  -27.6210   19.4786 C   0  0  0  0  0  0
  -23.6842  -29.7795   20.1519 C   0  0  0  0  0  0
  -25.4132  -36.3017   24.0309 C   0  0  1  0  0  0
  -20.5921  -28.3729   23.1216 C   0  0  2  0  0  0
  -20.6792  -26.9425   22.5400 C   0  0  0  0  0  0
  -19.5774  -26.6372   21.5201 C   0  0  0  0  0  0
  -18.1950  -26.7929   22.1609 C   0  0  0  0  0  0
  -19.1560  -28.8879   23.2833 C   0  0  0  0  0  0
  -18.9485  -30.1472   23.8862 C   0  0  0  0  0  0
  -17.6482  -30.6593   24.0552 C   0  0  0  0  0  0
  -25.9082  -34.9388   23.5051 C   0  0  0  0  0  0
  -16.5371  -29.9084   23.6328 C   0  0  0  0  0  0
  -16.7285  -28.6498   23.0352 C   0  0  0  0  0  0
  -26.4499  -31.6551   25.0725 C   0  0  0  0  0  0
  -25.3650  -31.3788   26.1405 C   0  0  0  0  0  0
  -27.0383  -30.2934   24.6360 C   0  0  0  0  0  0
  -27.6017  -32.4317   25.7545 C   0  0  0  0  0  0
  -27.5578  -37.1785   24.8453 C   0  0  0  0  0  0
  -21.4275  -29.3043   22.3592 N   0  0  0  0  0  0
  -26.4289  -37.3734   23.9393 N   0  0  0  0  0  0
  -24.7250  -31.0202   22.0893 N   0  0  0  0  0  0
  -23.4194  -28.8062   23.3021 O   0  0  0  0  0  0
  -28.2660  -26.0870   20.2350 O   0  0  0  0  0  0
  -26.5678  -34.8893   22.4641 O   0  0  0  0  0  0
  -23.5576  -32.1292   23.7017 O   0  0  0  0  0  0
  -30.5225  -18.7161   22.1990 C   0  0  0  0  0  0
  -30.2250  -20.9253   22.2005 C   0  0  0  0  0  0
  -30.8163  -19.9098   22.8894 C   0  0  0  0  0  0
  -29.8662  -18.9798   21.0263 C   0  0  0  0  0  0
  -31.5760  -20.1030   24.1476 C   0  0  0  0  0  0
  -29.0717  -23.3339   20.3953 C   0  0  0  0  0  0
  -30.6346  -22.9964   25.0922 C   0  0  0  0  0  0
  -32.1158  -21.8476   26.7670 C   0  0  0  0  0  0
  -33.0584  -23.5839   25.2371 C   0  0  0  0  0  0
  -29.6742  -17.6605   20.0856 C   0  0  0  0  0  0
  -32.4423  -21.3676   24.2710 C   0  0  0  0  0  0
  -28.8745  -21.6576   20.2105 C   0  0  0  0  0  0
  -27.9651  -24.5464   20.0705 C   0  0  0  0  0  0
  -32.0457  -22.4261   25.3395 C   0  0  0  0  0  0
  -29.6077  -20.4849   21.0289 N   0  0  0  0  0  0
  -29.7030  -16.1446   20.6041 N   0  0  0  0  0  0
  -31.6173  -19.2254   25.0143 O   0  0  0  0  0  0
  -30.1804  -23.7246   20.7791 O   0  0  0  0  0  0
  -31.4838  -12.7548   19.2223 H   0  0  0  0  0  0
  -30.4318  -11.6500   20.0549 H   0  0  0  0  0  0
  -29.8629  -11.7418   17.6056 H   0  0  0  0  0  0
  -29.6330  -13.4723   17.7094 H   0  0  0  0  0  0
  -27.9506  -11.2842   18.9686 H   0  0  0  0  0  0
  -27.4111  -12.4708   17.8121 H   0  0  0  0  0  0
  -27.5959  -14.2567   19.4170 H   0  0  0  0  0  0
  -28.7527  -12.3030   21.4611 H   0  0  0  0  0  0
  -28.3571  -13.9761   21.7678 H   0  0  0  0  0  0
  -25.2781   -9.5688   22.4734 H   0  0  0  0  0  0
  -24.0025   -7.4629   22.7462 H   0  0  0  0  0  0
  -21.0849   -8.8780   19.8951 H   0  0  0  0  0  0
  -22.3725  -10.9665   19.6150 H   0  0  0  0  0  0
  -21.2016   -7.6143   23.9727 H   0  0  0  0  0  0
  -21.1484   -6.0506   25.9077 H   0  0  0  0  0  0
  -22.0595   -2.7603   23.2844 H   0  0  0  0  0  0
  -22.4083  -11.9916   22.4908 H   0  0  0  0  0  0
  -21.1038  -13.1209   22.2577 H   0  0  0  0  0  0
  -24.6331  -15.8384   20.5139 H   0  0  0  0  0  0
  -26.2464  -15.6417   20.0571 H   0  0  0  0  0  0
  -26.7298  -32.5251   23.0987 H   0  0  0  0  0  0
  -25.0058  -33.9581   25.0285 H   0  0  0  0  0  0
  -22.7601  -31.2830   21.3705 H   0  0  0  0  0  0
  -23.3763  -35.9574   23.3286 H   0  0  0  0  0  0
  -24.3577  -36.8899   22.2062 H   0  0  0  0  0  0
  -23.7246  -37.6429   23.6705 H   0  0  0  0  0  0
  -26.1782  -31.4511   20.6205 H   0  0  0  0  0  0
  -26.8789  -30.7452   22.0395 H   0  0  0  0  0  0
  -28.1400  -28.7634   21.2422 H   0  0  0  0  0  0
  -25.9109  -25.8144   19.0128 H   0  0  0  0  0  0
  -23.9867  -27.2822   18.9819 H   0  0  0  0  0  0
  -23.8259  -30.5506   19.3944 H   0  0  0  0  0  0
  -22.7991  -29.2215   19.8407 H   0  0  0  0  0  0
  -25.1333  -36.1845   25.0803 H   0  0  0  0  0  0
  -20.9998  -28.3311   24.1344 H   0  0  0  0  0  0
  -20.5666  -26.2337   23.3627 H   0  0  0  0  0  0
  -21.6666  -26.7421   22.1219 H   0  0  0  0  0  0
  -19.6941  -25.6266   21.1264 H   0  0  0  0  0  0
  -19.6718  -27.3154   20.6713 H   0  0  0  0  0  0
  -17.4223  -26.6642   21.4011 H   0  0  0  0  0  0
  -18.0365  -26.0084   22.9025 H   0  0  0  0  0  0
  -19.7964  -30.7287   24.2210 H   0  0  0  0  0  0
  -17.5043  -31.6268   24.5165 H   0  0  0  0  0  0
  -15.5369  -30.2983   23.7688 H   0  0  0  0  0  0
  -15.8679  -28.0815   22.7092 H   0  0  0  0  0  0
  -24.5798  -30.7181   25.7702 H   0  0  0  0  0  0
  -24.8890  -32.3003   26.4781 H   0  0  0  0  0  0
  -25.7893  -30.8960   27.0215 H   0  0  0  0  0  0
  -26.3032  -29.6624   24.1350 H   0  0  0  0  0  0
  -27.3968  -29.7272   25.4967 H   0  0  0  0  0  0
  -27.8922  -30.4167   23.9703 H   0  0  0  0  0  0
  -27.2567  -33.3601   26.2104 H   0  0  0  0  0  0
  -28.3863  -32.6898   25.0423 H   0  0  0  0  0  0
  -28.0636  -31.8451   26.5496 H   0  0  0  0  0  0
  -28.2589  -38.0089   24.7517 H   0  0  0  0  0  0
  -28.1088  -36.2622   24.6281 H   0  0  0  0  0  0
  -27.2293  -37.1427   25.8853 H   0  0  0  0  0  0
  -20.9489  -29.8753   21.6763 H   0  0  0  0  0  0
  -26.0148  -38.2796   24.1400 H   0  0  0  0  0  0
  -30.8458  -17.7315   22.5093 H   0  0  0  0  0  0
  -30.2058  -21.9689   22.4722 H   0  0  0  0  0  0
  -30.3744  -23.7491   25.8376 H   0  0  0  0  0  0
  -29.8656  -22.2234   25.1371 H   0  0  0  0  0  0
  -30.5634  -23.4793   24.1175 H   0  0  0  0  0  0
  -31.9491  -22.6215   27.5172 H   0  0  0  0  0  0
  -33.0908  -21.4022   26.9693 H   0  0  0  0  0  0
  -31.3634  -21.0767   26.9357 H   0  0  0  0  0  0
  -32.8379  -24.3796   25.9502 H   0  0  0  0  0  0
  -33.0557  -24.0337   24.2429 H   0  0  0  0  0  0
  -34.0765  -23.2433   25.4342 H   0  0  0  0  0  0
  -30.4229  -17.7139   19.2940 H   0  0  0  0  0  0
  -28.7237  -17.7701   19.5628 H   0  0  0  0  0  0
  -32.4941  -21.8410   23.2910 H   0  0  0  0  0  0
  -33.4570  -21.0236   24.4731 H   0  0  0  0  0  0
  -29.0805  -21.4633   19.1588 H   0  0  0  0  0  0
  -27.8053  -21.4787   20.3180 H   0  0  0  0  0  0
  -27.0920  -24.3282   20.6869 H   0  0  0  0  0  0
  -27.6451  -24.3931   19.0403 H   0  0  0  0  0  0
  -28.8092  -15.8822   20.9906 H   0  0  0  0  0  0
  1 25  1  0  0  0
  1 30  2  0  0  0
  1 86  1  0  0  0
  2  3  1  0  0  0
  2 25  1  0  0  0
  2 89  1  0  0  0
  2 90  1  0  0  0
  3  4  1  0  0  0
  3 91  1  0  0  0
  3 92  1  0  0  0
  4  5  1  0  0  0
  4 93  1  0  0  0
  4 94  1  0  0  0
  5  6  1  0  0  0
  5 26  1  0  0  0
  5 95  1  0  0  0
  6 25  1  0  0  0
  6 96  1  0  0  0
  6 97  1  0  0  0
  7  8  2  0  0  0
  7 26  1  0  0  0
  7 29  1  0  0  0
  8  9  1  0  0  0
  8 22  1  0  0  0
  9 10  1  0  0  0
  9 27  2  0  0  0
 10 11  2  0  0  0
 10 15  1  0  0  0
 11 12  1  0  0  0
 11 98  1  0  0  0
 12 13  2  0  0  0
 12 99  1  0  0  0
 13 14  1  0  0  0
 13 31  1  0  0  0
 14 15  2  0  0  0
 14100  1  0  0  0
 15101  1  0  0  0
 16 17  2  0  0  0
 16 21  1  0  0  0
 16 31  1  0  0  0
 17 18  1  0  0  0
 17102  1  0  0  0
 18 19  2  0  0  0
 18103  1  0  0  0
 19 20  1  0  0  0
 19 24  1  0  0  0
 20 21  2  0  0  0
 20104  1  0  0  0
 21 23  1  0  0  0
 22 28  1  0  0  0
 22 32  2  0  0  0
 26 27  1  0  0  0
 28105  1  0  0  0
 28106  1  0  0  0
 29107  1  0  0  0
 29108  1  0  0  0
 33 34  1  0  0  0
 33 66  1  0  0  0
 33 70  2  0  0  0
 34 36  1  0  0  0
 34 59  1  0  0  0
 34109  1  0  0  0
 35 44  2  0  0  0
 35 45  1  0  0  0
 35 68  1  0  0  0
 36 56  1  0  0  0
 36110  1  0  0  0
 37 39  1  0  0  0
 37 47  1  0  0  0
 37 66  1  0  0  0
 37111  1  0  0  0
 38 43  2  0  0  0
 38 46  1  0  0  0
 38 47  1  0  0  0
 39 64  1  0  0  0
 39 67  2  0  0  0
 40 52  1  0  0  0
 40 53  2  0  0  0
 40 58  1  0  0  0
 41112  1  0  0  0
 41113  1  0  0  0
 41114  1  0  0  0
 41 48  1  0  0  0
 42 43  1  0  0  0
 42 66  1  0  0  0
 42115  1  0  0  0
 42116  1  0  0  0
 43 44  1  0  0  0
 44117  1  0  0  0
 45 46  2  0  0  0
 45118  1  0  0  0
 46119  1  0  0  0
 47120  1  0  0  0
 47121  1  0  0  0
 48 56  1  0  0  0
 48 65  1  0  0  0
 48122  1  0  0  0
 49 50  1  0  0  0
 49 53  1  0  0  0
 49 64  1  0  0  0
 49123  1  0  0  0
 50 51  1  0  0  0
 50124  1  0  0  0
 50125  1  0  0  0
 51 52  1  0  0  0
 51126  1  0  0  0
 51127  1  0  0  0
 52128  1  0  0  0
 52129  1  0  0  0
 53 54  1  0  0  0
 54 55  2  0  0  0
 54130  1  0  0  0
 55 57  1  0  0  0
 55131  1  0  0  0
 56 69  2  0  0  0
 57 58  2  0  0  0
 57132  1  0  0  0
 58133  1  0  0  0
 59 60  1  0  0  0
 59 61  1  0  0  0
 59 62  1  0  0  0
 60134  1  0  0  0
 60135  1  0  0  0
 60136  1  0  0  0
 61137  1  0  0  0
 61138  1  0  0  0
 61139  1  0  0  0
 62140  1  0  0  0
 62141  1  0  0  0
 62142  1  0  0  0
 63 65  1  0  0  0
 63143  1  0  0  0
 63144  1  0  0  0
 63145  1  0  0  0
 64146  1  0  0  0
 65147  1  0  0  0
 68 83  1  0  0  0
 71 73  1  0  0  0
 71 74  2  0  0  0
 71148  1  0  0  0
 72 73  2  0  0  0
 72 85  1  0  0  0
 72149  1  0  0  0
 73 75  1  0  0  0
 74 80  1  0  0  0
 74 85  1  0  0  0
 75 81  1  0  0  0
 75 87  2  0  0  0
 76 82  1  0  0  0
 76 83  1  0  0  0
 76 88  2  0  0  0
 77150  1  0  0  0
 77151  1  0  0  0
 77152  1  0  0  0
 77 84  1  0  0  0
 78 84  1  0  0  0
 78153  1  0  0  0
 78154  1  0  0  0
 78155  1  0  0  0
 79 84  1  0  0  0
 79156  1  0  0  0
 79157  1  0  0  0
 79158  1  0  0  0
 80 86  1  0  0  0
 80159  1  0  0  0
 80160  1  0  0  0
 81 84  1  0  0  0
 81161  1  0  0  0
 81162  1  0  0  0
 82 85  1  0  0  0
 82163  1  0  0  0
 82164  1  0  0  0
 83165  1  0  0  0
 83166  1  0  0  0
 86167  1  0  0  0
M  ISO  4   1 100  68 101  83 101  86 100
M  END
> <chiral flag>
0

> <version>
0

> <s_m_source_file>
/data/baiqing/PycharmProjects/Reinvent-master-3.2/result/LINK_invent/BTK/process_docking_weight1_custom_product_contain_oxygen_bond_distance_aromatic_linkinvent_7_9_3/rearranged_h_0165.sdf

> <i_m_source_file_index>
23

> <r_mmod_Potential_Energy-OPLS-2005>
700.679504394531

> <r_mmod_Stretch_Energy-OPLS-2005>
331.828552246094

> <r_mmod_Bend_Energy-OPLS-2005>
336.636627197266

> <r_mmod_Torsional_Energy-OPLS-2005>
236.435470581055

> <r_mmod_Improper_Torsional_Energy-OPLS-2005>
6.95421934127808

> <r_mmod_Van_der_Waal_Energy-OPLS-2005>
110.668350219727

> <r_mmod_Electrostatic_Energy-OPLS-2005>
-290.655700683594

> <r_mmod_Solvation_Energy-OPLS-2005>
-255.890640258789

> <b_mmod_Minimization_Converged-OPLS-2005>
0

> <r_mmod_RMS_Derivative-OPLS-2005>
1.99529838562012

$$$$
23
                    3D
 Structure written by MMmdl.
168177  0  0  1  0            999 V2000
  -29.7542  -16.0365   20.8667 C   0  0  0  0  0  0
  -30.3183  -13.4772   19.7741 C   0  0  0  0  0  0
  -29.5775  -12.8707   18.5115 C   0  0  0  0  0  0
  -28.1806  -12.3524   18.8660 C   0  0  0  0  0  0
  -27.5520  -13.3259   19.8761 C   0  0  2  0  0  0
  -28.4366  -13.6751   21.0943 C   0  0  0  0  0  0
  -25.1975  -13.8258   20.5737 C   0  0  0  0  0  0
  -24.1446  -13.0371   20.9255 C   0  0  0  0  0  0
  -24.6205  -11.6894   20.8727 C   0  0  0  0  0  0
  -23.8990  -10.4245   21.0392 C   0  0  0  0  0  0
  -24.3587   -9.4183   21.9169 C   0  0  0  0  0  0
  -23.6277   -8.2211   22.0740 C   0  0  0  0  0  0
  -22.4256   -8.0242   21.3534 C   0  0  0  0  0  0
  -21.9872   -9.0195   20.4630 C   0  0  0  0  0  0
  -22.7179  -10.2076   20.3031 C   0  0  0  0  0  0
  -21.6843   -6.0714   22.5285 C   0  0  0  0  0  0
  -21.4010   -6.5627   23.8216 C   0  0  0  0  0  0
  -21.3658   -5.6782   24.9175 C   0  0  0  0  0  0
  -21.6049   -4.3046   24.7230 C   0  0  0  0  0  0
  -21.8822   -3.8131   23.4353 C   0  0  0  0  0  0
  -21.9191   -4.6944   22.3408 C   0  0  0  0  0  0
  -22.7503  -13.5106   21.1946 C   0  0  0  0  0  0
  -22.1659   -4.2129   21.0986 F   0  0  0  0  0  0
  -21.5627   -3.4537   25.7746 F   0  0  0  0  0  0
  -29.5077  -14.5570   20.6082 N   0  0  0  0  0  0
  -26.2335  -12.9559   20.3126 N   0  0  0  0  0  0
  -25.9117  -11.6625   20.5604 N   0  0  0  0  0  0
  -22.0223  -12.8085   22.0536 N   0  0  0  0  0  0
  -25.3617  -15.2020   20.4275 N   0  0  0  0  0  0
  -30.9730  -16.0927   20.5128 O   0  0  0  0  0  0
  -21.6619   -6.8845   21.4239 O   0  0  0  0  0  0
  -22.3198  -14.5429   20.6812 O   0  0  0  0  0  0
  -25.3013  -31.4254   23.3349 C   0  0  0  0  0  0
  -26.4015  -32.3454   23.8516 C   0  0  1  0  0  0
  -26.9023  -29.1181   19.2624 C   0  0  0  0  0  0
  -25.9123  -33.7535   24.1713 N   0  0  0  0  0  0
  -24.1778  -28.8130   21.7660 C   0  0  2  0  0  0
  -25.3078  -27.9119   20.4377 C   0  0  0  0  0  0
  -22.6547  -28.1768   22.0160 C   0  0  0  0  0  0
  -17.8561  -28.1349   22.8347 C   0  0  0  0  0  0
  -24.1700  -36.6319   23.2604 C   0  0  0  0  0  0
  -26.5528  -29.9387   21.9206 C   0  0  0  0  0  0
  -26.4827  -28.6430   21.1054 C   0  0  0  0  0  0
  -27.5955  -28.7140   20.3666 C   0  0  0  0  0  0
  -26.5303  -27.8601   18.6449 C   0  0  0  0  0  0
  -25.5008  -27.2169   19.2804 C   0  0  0  0  0  0
  -23.9765  -28.4756   20.3424 C   0  0  0  0  0  0
  -25.4471  -36.2082   24.0073 C   0  0  1  0  0  0
  -20.3108  -28.1395   22.6511 C   0  0  2  0  0  0
  -20.2311  -26.6074   22.5214 C   0  0  0  0  0  0
  -19.1550  -26.3107   21.5289 C   0  0  0  0  0  0
  -17.8402  -26.7758   22.1330 C   0  0  0  0  0  0
  -19.0550  -28.8135   23.1625 C   0  0  0  0  0  0
  -18.9965  -30.0695   23.8062 C   0  0  0  0  0  0
  -17.7378  -30.6572   24.0710 C   0  0  0  0  0  0
  -26.0115  -34.8726   23.4413 C   0  0  0  0  0  0
  -16.5522  -29.9862   23.7163 C   0  0  0  0  0  0
  -16.6157  -28.7209   23.1154 C   0  0  0  0  0  0
  -26.7504  -31.6656   25.2268 C   0  0  0  0  0  0
  -25.6009  -31.4720   26.2713 C   0  0  0  0  0  0
  -27.3777  -30.2754   25.0171 C   0  0  0  0  0  0
  -27.8180  -32.5318   25.8969 C   0  0  0  0  0  0
  -27.5572  -37.1592   24.8489 C   0  0  0  0  0  0
  -21.4298  -28.7499   22.0275 N   0  0  0  0  0  0
  -26.4184  -37.3268   23.9506 N   0  0  0  0  0  0
  -25.3475  -30.1151   22.5164 N   0  0  0  0  0  0
  -22.7587  -27.2429   22.7495 O   0  0  0  0  0  0
  -25.7229  -30.1008   19.4805 O   0  0  0  0  0  0
  -26.5980  -34.8744   22.3616 O   0  0  0  0  0  0
  -24.3102  -31.9776   23.8886 O   0  0  0  0  0  0
  -27.3641  -19.6833   22.9323 C   0  0  0  0  0  0
  -27.6270  -21.8407   21.5512 C   0  0  0  0  0  0
  -26.7570  -21.1162   23.3248 C   0  0  0  0  0  0
  -26.7609  -22.5174   22.6631 C   0  0  0  0  0  0
  -28.2258  -19.0882   21.7964 C   0  0  0  0  0  0
  -23.4766  -29.4205   24.1061 C   0  0  0  0  0  0
  -24.7212  -27.4871   24.4263 C   0  0  0  0  0  0
  -25.9199  -21.1919   26.7791 C   0  0  0  0  0  0
  -26.3381  -20.1179   25.7705 C   0  0  0  0  0  0
  -26.2041  -22.2212   25.6795 C   0  0  0  0  0  0
  -25.9888  -21.1044   24.6404 C   0  0  0  0  0  0
  -22.0520  -31.9263   22.5810 C   0  0  0  0  0  0
  -25.8473  -24.3830   22.8791 C   0  0  0  0  0  0
  -24.3843  -31.0282   20.5403 C   0  0  0  0  0  0
  -23.0544  -30.7611   22.2846 C   0  0  1  0  0  0
  -28.2316  -20.4584   21.2044 N   0  0  0  0  0  0
  -28.7679  -17.3013   21.4119 N   0  0  0  0  0  0
  -25.3481  -25.9883   23.9002 N   0  0  0  0  0  0
  -22.8354  -29.7568   25.1054 O   0  0  0  0  0  0
  -25.1236  -27.5970   25.5849 O   0  0  0  0  0  0
  -31.2473  -13.9226   19.4167 H   0  0  0  0  0  0
  -30.6494  -12.6715   20.4325 H   0  0  0  0  0  0
  -30.1741  -12.0807   18.0539 H   0  0  0  0  0  0
  -29.4796  -13.6549   17.7595 H   0  0  0  0  0  0
  -28.2735  -11.3636   19.3177 H   0  0  0  0  0  0
  -27.5610  -12.2413   17.9751 H   0  0  0  0  0  0
  -27.4197  -14.2431   19.2994 H   0  0  0  0  0  0
  -28.7955  -12.7847   21.6126 H   0  0  0  0  0  0
  -27.8580  -14.2345   21.8308 H   0  0  0  0  0  0
  -25.2729   -9.5684   22.4741 H   0  0  0  0  0  0
  -24.0002   -7.4604   22.7459 H   0  0  0  0  0  0
  -21.0805   -8.8692   19.8938 H   0  0  0  0  0  0
  -22.3628  -10.9606   19.6142 H   0  0  0  0  0  0
  -21.2001   -7.6139   23.9718 H   0  0  0  0  0  0
  -21.1478   -6.0508   25.9081 H   0  0  0  0  0  0
  -22.0606   -2.7594   23.2855 H   0  0  0  0  0  0
  -22.3886  -11.9769   22.4920 H   0  0  0  0  0  0
  -21.0836  -13.1066   22.2773 H   0  0  0  0  0  0
  -24.5781  -15.8398   20.5162 H   0  0  0  0  0  0
  -26.1757  -15.6333   20.0105 H   0  0  0  0  0  0
  -27.2550  -32.3687   23.1735 H   0  0  0  0  0  0
  -25.3531  -33.8099   25.0088 H   0  0  0  0  0  0
  -24.6069  -27.9994   22.2928 H   0  0  0  0  0  0
  -23.4213  -35.8388   23.2878 H   0  0  0  0  0  0
  -24.3734  -36.8529   22.2120 H   0  0  0  0  0  0
  -23.7181  -37.5158   23.7098 H   0  0  0  0  0  0
  -26.8800  -30.8309   21.3768 H   0  0  0  0  0  0
  -27.3412  -29.7485   22.6303 H   0  0  0  0  0  0
  -28.4323  -29.3259   20.6829 H   0  0  0  0  0  0
  -26.6867  -27.6887   17.5895 H   0  0  0  0  0  0
  -24.7959  -26.6040   18.7348 H   0  0  0  0  0  0
  -23.7050  -29.1344   19.5234 H   0  0  0  0  0  0
  -23.3713  -27.6030   20.0294 H   0  0  0  0  0  0
  -25.1730  -36.0416   25.0520 H   0  0  0  0  0  0
  -19.9428  -28.4424   21.6691 H   0  0  0  0  0  0
  -20.0198  -26.1538   23.4917 H   0  0  0  0  0  0
  -21.0494  -26.0403   22.0912 H   0  0  0  0  0  0
  -19.0992  -25.2408   21.3239 H   0  0  0  0  0  0
  -19.3417  -26.7812   20.5619 H   0  0  0  0  0  0
  -17.0774  -26.7828   21.3531 H   0  0  0  0  0  0
  -17.5076  -26.0435   22.8697 H   0  0  0  0  0  0
  -19.9052  -30.5963   24.0577 H   0  0  0  0  0  0
  -17.6852  -31.6297   24.5404 H   0  0  0  0  0  0
  -15.5908  -30.4394   23.9177 H   0  0  0  0  0  0
  -15.6988  -28.2097   22.8551 H   0  0  0  0  0  0
  -24.9524  -30.6347   26.0457 H   0  0  0  0  0  0
  -24.9850  -32.3641   26.3871 H   0  0  0  0  0  0
  -26.0096  -31.2511   27.2580 H   0  0  0  0  0  0
  -26.6955  -29.5096   24.6633 H   0  0  0  0  0  0
  -27.7316  -29.8862   25.9730 H   0  0  0  0  0  0
  -28.2726  -30.3222   24.3956 H   0  0  0  0  0  0
  -27.4299  -33.4950   26.2296 H   0  0  0  0  0  0
  -28.6524  -32.7344   25.2241 H   0  0  0  0  0  0
  -28.2355  -32.0529   26.7835 H   0  0  0  0  0  0
  -28.2188  -38.0235   24.7742 H   0  0  0  0  0  0
  -28.1484  -36.2739   24.6063 H   0  0  0  0  0  0
  -27.2337  -37.0813   25.8888 H   0  0  0  0  0  0
  -21.2866  -29.6517   21.5960 H   0  0  0  0  0  0
  -25.9647  -38.2088   24.1726 H   0  0  0  0  0  0
  -27.1049  -18.9062   23.6369 H   0  0  0  0  0  0
  -27.8750  -22.5288   20.7563 H   0  0  0  0  0  0
  -26.5601  -21.2682   27.6601 H   0  0  0  0  0  0
  -24.8631  -21.1316   27.0494 H   0  0  0  0  0  0
  -25.7413  -19.2053   25.7789 H   0  0  0  0  0  0
  -27.4056  -19.8968   25.8297 H   0  0  0  0  0  0
  -27.2352  -22.5805   25.7065 H   0  0  0  0  0  0
  -25.4960  -23.0472   25.6194 H   0  0  0  0  0  0
  -24.9258  -21.0236   24.4063 H   0  0  0  0  0  0
  -21.7535  -31.9227   23.6289 H   0  0  0  0  0  0
  -21.1366  -31.8745   21.9880 H   0  0  0  0  0  0
  -22.5054  -32.8964   22.3776 H   0  0  0  0  0  0
  -24.8504  -24.1070   22.5353 H   0  0  0  0  0  0
  -26.2809  -24.8786   22.0102 H   0  0  0  0  0  0
  -24.8583  -31.9972   20.7040 H   0  0  0  0  0  0
  -23.6725  -31.3050   19.7610 H   0  0  0  0  0  0
  -22.3822  -30.4962   21.4959 H   0  0  0  0  0  0
  -27.9786  -16.7535   21.7211 H   0  0  0  0  0  0
  -25.8202  -25.7693   24.7663 H   0  0  0  0  0  0
  1 25  1  0  0  0
  1 30  2  0  0  0
  1 87  1  0  0  0
  2  3  1  0  0  0
  2 25  1  0  0  0
  2 91  1  0  0  0
  2 92  1  0  0  0
  3  4  1  0  0  0
  3 93  1  0  0  0
  3 94  1  0  0  0
  4  5  1  0  0  0
  4 95  1  0  0  0
  4 96  1  0  0  0
  5  6  1  0  0  0
  5 26  1  0  0  0
  5 97  1  0  0  0
  6 25  1  0  0  0
  6 98  1  0  0  0
  6 99  1  0  0  0
  7  8  2  0  0  0
  7 26  1  0  0  0
  7 29  1  0  0  0
  8  9  1  0  0  0
  8 22  1  0  0  0
  9 10  1  0  0  0
  9 27  2  0  0  0
 10 11  2  0  0  0
 10 15  1  0  0  0
 11 12  1  0  0  0
 11100  1  0  0  0
 12 13  2  0  0  0
 12101  1  0  0  0
 13 14  1  0  0  0
 13 31  1  0  0  0
 14 15  2  0  0  0
 14102  1  0  0  0
 15103  1  0  0  0
 16 17  2  0  0  0
 16 21  1  0  0  0
 16 31  1  0  0  0
 17 18  1  0  0  0
 17104  1  0  0  0
 18 19  2  0  0  0
 18105  1  0  0  0
 19 20  1  0  0  0
 19 24  1  0  0  0
 20 21  2  0  0  0
 20106  1  0  0  0
 21 23  1  0  0  0
 22 28  1  0  0  0
 22 32  2  0  0  0
 26 27  1  0  0  0
 28107  1  0  0  0
 28108  1  0  0  0
 29109  1  0  0  0
 29110  1  0  0  0
 33 34  1  0  0  0
 33 66  1  0  0  0
 33 70  2  0  0  0
 34 36  1  0  0  0
 34 59  1  0  0  0
 34111  1  0  0  0
 35 44  2  0  0  0
 35 45  1  0  0  0
 35 68  1  0  0  0
 36 56  1  0  0  0
 36112  1  0  0  0
 37 39  1  0  0  0
 37 47  1  0  0  0
 37 66  1  0  0  0
 37113  1  0  0  0
 38 43  2  0  0  0
 38 46  1  0  0  0
 38 47  1  0  0  0
 39 64  1  0  0  0
 39 67  2  0  0  0
 40 52  1  0  0  0
 40 53  2  0  0  0
 40 58  1  0  0  0
 41114  1  0  0  0
 41115  1  0  0  0
 41116  1  0  0  0
 41 48  1  0  0  0
 42 43  1  0  0  0
 42 66  1  0  0  0
 42117  1  0  0  0
 42118  1  0  0  0
 43 44  1  0  0  0
 44119  1  0  0  0
 45 46  2  0  0  0
 45120  1  0  0  0
 46121  1  0  0  0
 47122  1  0  0  0
 47123  1  0  0  0
 48 56  1  0  0  0
 48 65  1  0  0  0
 48124  1  0  0  0
 49 50  1  0  0  0
 49 53  1  0  0  0
 49 64  1  0  0  0
 49125  1  0  0  0
 50 51  1  0  0  0
 50126  1  0  0  0
 50127  1  0  0  0
 51 52  1  0  0  0
 51128  1  0  0  0
 51129  1  0  0  0
 52130  1  0  0  0
 52131  1  0  0  0
 53 54  1  0  0  0
 54 55  2  0  0  0
 54132  1  0  0  0
 55 57  1  0  0  0
 55133  1  0  0  0
 56 69  2  0  0  0
 57 58  2  0  0  0
 57134  1  0  0  0
 58135  1  0  0  0
 59 60  1  0  0  0
 59 61  1  0  0  0
 59 62  1  0  0  0
 60136  1  0  0  0
 60137  1  0  0  0
 60138  1  0  0  0
 61139  1  0  0  0
 61140  1  0  0  0
 61141  1  0  0  0
 62142  1  0  0  0
 62143  1  0  0  0
 62144  1  0  0  0
 63 65  1  0  0  0
 63145  1  0  0  0
 63146  1  0  0  0
 63147  1  0  0  0
 64148  1  0  0  0
 65149  1  0  0  0
 68 84  1  0  0  0
 71 73  2  0  0  0
 71 75  1  0  0  0
 71150  1  0  0  0
 72 74  2  0  0  0
 72 86  1  0  0  0
 72151  1  0  0  0
 73 74  1  0  0  0
 73 81  1  0  0  0
 74 83  1  0  0  0
 75 86  2  0  0  0
 75 87  1  0  0  0
 76 77  1  0  0  0
 76 85  1  0  0  0
 76 89  2  0  0  0
 77 88  1  0  0  0
 77 90  2  0  0  0
 78 79  1  0  0  0
 78 80  1  0  0  0
 78152  1  0  0  0
 78153  1  0  0  0
 79 81  1  0  0  0
 79154  1  0  0  0
 79155  1  0  0  0
 80 81  1  0  0  0
 80156  1  0  0  0
 80157  1  0  0  0
 81158  1  0  0  0
 82159  1  0  0  0
 82160  1  0  0  0
 82161  1  0  0  0
 82 85  1  0  0  0
 83 88  1  0  0  0
 83162  1  0  0  0
 83163  1  0  0  0
 84 85  1  0  0  0
 84164  1  0  0  0
 84165  1  0  0  0
 85166  1  0  0  0
 87167  1  0  0  0
 88168  1  0  0  0
M  ISO  4   1 100  68 101  84 101  87 100
M  END
> <chiral flag>
0

> <version>
0

> <s_m_source_file>
/data/baiqing/PycharmProjects/Reinvent-master-3.2/result/LINK_invent/BTK/process_docking_weight1_custom_product_contain_oxygen_bond_distance_aromatic_linkinvent_7_9_3/rearranged_h_0165.sdf

> <i_m_source_file_index>
24

> <r_mmod_Potential_Energy-OPLS-2005>
15297.048828125

> <r_mmod_Stretch_Energy-OPLS-2005>
5173.01318359375

> <r_mmod_Bend_Energy-OPLS-2005>
2599.16918945312

> <r_mmod_Torsional_Energy-OPLS-2005>
616.135803222656

> <r_mmod_Improper_Torsional_Energy-OPLS-2005>
89.9196472167969

> <r_mmod_Van_der_Waal_Energy-OPLS-2005>
1876.46264648438

> <r_mmod_Electrostatic_Energy-OPLS-2005>
-460.804229736328

> <r_mmod_Solvation_Energy-OPLS-2005>
-258.622039794922

> <b_mmod_Minimization_Converged-OPLS-2005>
0

> <r_mmod_RMS_Derivative-OPLS-2005>
2.21584033966064

$$$$
24
                    3D
 Structure written by MMmdl.
159167  0  0  1  0            999 V2000
  -30.7004  -14.4724   20.5312 C   0  0  0  0  0  0
  -30.4164  -12.2901   19.4366 C   0  0  0  0  0  0
  -29.4970  -12.4872   18.2142 C   0  0  0  0  0  0
  -28.0130  -12.3712   18.6213 C   0  0  0  0  0  0
  -27.6608  -13.2136   19.8780 C   0  0  2  0  0  0
  -28.7022  -13.0050   21.0022 C   0  0  0  0  0  0
  -25.2568  -13.8208   20.5665 C   0  0  0  0  0  0
  -24.1829  -13.0469   20.9177 C   0  0  0  0  0  0
  -24.6380  -11.6941   20.8741 C   0  0  0  0  0  0
  -23.9039  -10.4328   21.0405 C   0  0  0  0  0  0
  -24.3604   -9.4257   21.9181 C   0  0  0  0  0  0
  -23.6288   -8.2286   22.0753 C   0  0  0  0  0  0
  -22.4265   -8.0321   21.3553 C   0  0  0  0  0  0
  -21.9902   -9.0271   20.4632 C   0  0  0  0  0  0
  -22.7224  -10.2150   20.3039 C   0  0  0  0  0  0
  -21.6855   -6.0760   22.5270 C   0  0  0  0  0  0
  -21.4004   -6.5640   23.8206 C   0  0  0  0  0  0
  -21.3645   -5.6776   24.9148 C   0  0  0  0  0  0
  -21.6034   -4.3043   24.7178 C   0  0  0  0  0  0
  -21.8830   -3.8157   23.4295 C   0  0  0  0  0  0
  -21.9196   -4.6991   22.3366 C   0  0  0  0  0  0
  -22.7852  -13.5269   21.1815 C   0  0  0  0  0  0
  -22.1670   -4.2196   21.0935 F   0  0  0  0  0  0
  -21.5600   -3.4515   25.7677 F   0  0  0  0  0  0
  -30.0369  -13.2883   20.4498 N   0  0  0  0  0  0
  -26.3010  -12.9389   20.3379 N   0  0  0  0  0  0
  -25.9304  -11.6535   20.5773 N   0  0  0  0  0  0
  -22.0494  -12.8237   22.0352 N   0  0  0  0  0  0
  -25.4237  -15.1922   20.4010 N   0  0  0  0  0  0
  -31.8461  -14.6338   20.1007 O   0  0  0  0  0  0
  -21.6641   -6.8915   21.4247 O   0  0  0  0  0  0
  -22.3524  -14.5567   20.6661 O   0  0  0  0  0  0
  -24.6194  -31.8674   23.2124 C   0  0  0  0  0  0
  -25.9088  -32.4812   23.8416 C   0  0  1  0  0  0
  -27.2212  -27.4008   20.0815 C   0  0  0  0  0  0
  -25.5934  -33.8608   24.2344 N   0  0  0  0  0  0
  -23.4059  -30.4972   21.5537 C   0  0  2  0  0  0
  -24.8455  -28.9668   20.1134 C   0  0  0  0  0  0
  -22.7429  -29.4676   22.4983 C   0  0  0  0  0  0
  -18.0273  -28.1371   22.8470 C   0  0  0  0  0  0
  -24.1473  -36.7302   23.2643 C   0  0  0  0  0  0
  -25.9414  -30.8167   21.3749 C   0  0  0  0  0  0
  -26.0100  -29.4508   20.7198 C   0  0  0  0  0  0
  -27.1948  -28.6725   20.7119 C   0  0  0  0  0  0
  -26.0327  -26.9591   19.4460 C   0  0  0  0  0  0
  -24.8531  -27.7189   19.4781 C   0  0  0  0  0  0
  -23.6129  -29.8376   20.1664 C   0  0  0  0  0  0
  -25.4094  -36.3103   24.0352 C   0  0  1  0  0  0
  -20.5865  -28.3657   23.1287 C   0  0  2  0  0  0
  -20.6767  -26.9398   22.5378 C   0  0  0  0  0  0
  -19.5744  -26.6358   21.5196 C   0  0  0  0  0  0
  -18.1914  -26.7922   22.1597 C   0  0  0  0  0  0
  -19.1524  -28.8830   23.2879 C   0  0  0  0  0  0
  -18.9465  -30.1421   23.8931 C   0  0  0  0  0  0
  -17.6470  -30.6564   24.0597 C   0  0  0  0  0  0
  -25.9031  -34.9465   23.5138 C   0  0  0  0  0  0
  -16.5353  -29.9084   23.6341 C   0  0  0  0  0  0
  -16.7265  -28.6500   23.0353 C   0  0  0  0  0  0
  -26.4489  -31.6595   25.0752 C   0  0  0  0  0  0
  -25.3756  -31.3709   26.1503 C   0  0  0  0  0  0
  -27.0316  -30.3035   24.6142 C   0  0  0  0  0  0
  -27.6062  -32.4314   25.7520 C   0  0  0  0  0  0
  -27.5565  -37.1804   24.8470 C   0  0  0  0  0  0
  -21.4152  -29.3055   22.3724 N   0  0  0  0  0  0
  -26.4276  -37.3799   23.9418 N   0  0  0  0  0  0
  -24.6749  -31.0751   22.1043 N   0  0  0  0  0  0
  -23.4205  -28.8204   23.3012 O   0  0  0  0  0  0
  -28.3854  -26.6406   20.1164 O   0  0  0  0  0  0
  -26.5575  -34.8926   22.4690 O   0  0  0  0  0  0
  -23.5380  -32.1428   23.7496 O   0  0  0  0  0  0
  -29.4715  -17.9639   21.0211 C   0  0  0  0  0  0
  -30.4374  -17.0263   19.0171 C   0  0  0  0  0  0
  -29.3670  -19.2219   20.3566 C   0  0  0  0  0  0
  -29.9888  -16.8330   20.3426 C   0  0  0  0  0  0
  -29.7901  -19.2433   19.0072 C   0  0  0  0  0  0
  -29.1269  -24.2467   20.3349 C   0  0  0  0  0  0
  -28.5415  -20.3382   22.5614 C   0  0  0  0  0  0
  -28.4224  -22.8798   20.4540 C   0  0  0  0  0  0
  -28.3691  -25.3178   19.5227 C   0  0  0  0  0  0
  -28.7204  -20.4673   21.0339 C   0  0  1  0  0  0
  -30.3456  -18.2042   18.3691 N   0  0  0  0  0  0
  -29.6774  -20.3771   18.2163 N   0  0  0  0  0  0
  -29.9717  -15.5289   20.9470 N   0  0  0  0  0  0
  -29.3799  -21.7704   20.7129 N   0  3  0  0  0  0
  -30.2223  -24.4644   20.8658 O   0  0  0  0  0  0
  -31.4627  -12.3732   19.1374 H   0  0  0  0  0  0
  -30.3013  -11.2823   19.8390 H   0  0  0  0  0  0
  -29.7308  -11.7430   17.4504 H   0  0  0  0  0  0
  -29.6854  -13.4634   17.7648 H   0  0  0  0  0  0
  -27.8058  -11.3196   18.8188 H   0  0  0  0  0  0
  -27.3690  -12.6504   17.7855 H   0  0  0  0  0  0
  -27.7047  -14.2607   19.5783 H   0  0  0  0  0  0
  -28.6719  -11.9759   21.3633 H   0  0  0  0  0  0
  -28.4743  -13.6283   21.8674 H   0  0  0  0  0  0
  -25.2748   -9.5729   22.4761 H   0  0  0  0  0  0
  -24.0008   -7.4670   22.7465 H   0  0  0  0  0  0
  -21.0838   -8.8777   19.8929 H   0  0  0  0  0  0
  -22.3686  -10.9675   19.6136 H   0  0  0  0  0  0
  -21.2010   -7.6150   23.9719 H   0  0  0  0  0  0
  -21.1442   -6.0495   25.9049 H   0  0  0  0  0  0
  -22.0634   -2.7633   23.2756 H   0  0  0  0  0  0
  -22.4127  -11.9917   22.4747 H   0  0  0  0  0  0
  -21.1095  -13.1244   22.2539 H   0  0  0  0  0  0
  -24.6458  -15.8390   20.4851 H   0  0  0  0  0  0
  -26.2705  -15.6313   20.0602 H   0  0  0  0  0  0
  -26.7169  -32.5503   23.1185 H   0  0  0  0  0  0
  -25.0127  -33.9768   25.0513 H   0  0  0  0  0  0
  -22.6947  -31.3158   21.4186 H   0  0  0  0  0  0
  -23.3729  -35.9642   23.3314 H   0  0  0  0  0  0
  -24.3559  -36.8885   22.2051 H   0  0  0  0  0  0
  -23.7219  -37.6518   23.6631 H   0  0  0  0  0  0
  -26.0615  -31.5789   20.6041 H   0  0  0  0  0  0
  -26.8312  -30.8658   21.9921 H   0  0  0  0  0  0
  -28.0860  -29.0360   21.2036 H   0  0  0  0  0  0
  -25.9516  -26.0366   18.8942 H   0  0  0  0  0  0
  -23.9616  -27.3442   18.9942 H   0  0  0  0  0  0
  -23.7250  -30.6150   19.4090 H   0  0  0  0  0  0
  -22.7328  -29.2639   19.8689 H   0  0  0  0  0  0
  -25.1255  -36.1988   25.0849 H   0  0  0  0  0  0
  -20.9952  -28.3212   24.1411 H   0  0  0  0  0  0
  -20.5685  -26.2272   23.3561 H   0  0  0  0  0  0
  -21.6629  -26.7446   22.1168 H   0  0  0  0  0  0
  -19.6895  -25.6260   21.1245 H   0  0  0  0  0  0
  -19.6680  -27.3134   20.6692 H   0  0  0  0  0  0
  -17.4180  -26.6674   21.4002 H   0  0  0  0  0  0
  -18.0311  -26.0060   22.8993 H   0  0  0  0  0  0
  -19.7946  -30.7200   24.2335 H   0  0  0  0  0  0
  -17.5040  -31.6241   24.5212 H   0  0  0  0  0  0
  -15.5357  -30.3001   23.7666 H   0  0  0  0  0  0
  -15.8650  -28.0836   22.7077 H   0  0  0  0  0  0
  -24.5945  -30.7028   25.7859 H   0  0  0  0  0  0
  -24.8938  -32.2870   26.4945 H   0  0  0  0  0  0
  -25.8136  -30.8897   27.0258 H   0  0  0  0  0  0
  -26.2861  -29.6814   24.1179 H   0  0  0  0  0  0
  -27.4048  -29.7272   25.4617 H   0  0  0  0  0  0
  -27.8721  -30.4342   23.9325 H   0  0  0  0  0  0
  -27.2672  -33.3606   26.2120 H   0  0  0  0  0  0
  -28.3877  -32.6881   25.0354 H   0  0  0  0  0  0
  -28.0732  -31.8420   26.5421 H   0  0  0  0  0  0
  -28.2600  -38.0083   24.7496 H   0  0  0  0  0  0
  -28.1037  -36.2612   24.6319 H   0  0  0  0  0  0
  -27.2274  -37.1483   25.8872 H   0  0  0  0  0  0
  -20.9294  -29.8849   21.7014 H   0  0  0  0  0  0
  -26.0156  -38.2875   24.1440 H   0  0  0  0  0  0
  -29.1276  -17.8382   22.0369 H   0  0  0  0  0  0
  -30.8245  -16.2150   18.4177 H   0  0  0  0  0  0
  -27.8899  -19.5049   22.8214 H   0  0  0  0  0  0
  -28.0751  -21.2258   22.9881 H   0  0  0  0  0  0
  -29.4963  -20.1944   23.0673 H   0  0  0  0  0  0
  -27.8680  -22.6732   19.5374 H   0  0  0  0  0  0
  -27.6987  -22.9444   21.2671 H   0  0  0  0  0  0
  -27.3765  -24.8967   19.4178 H   0  0  0  0  0  0
  -28.8010  -25.3707   18.5244 H   0  0  0  0  0  0
  -27.7184  -20.5047   20.5998 H   0  0  0  0  0  0
  -28.7173  -20.6813   18.1040 H   0  0  0  0  0  0
  -30.0323  -20.1970   17.2839 H   0  0  0  0  0  0
  -29.1567  -15.3015   21.5003 H   0  0  0  0  0  0
  -30.0285  -22.0465   21.4334 H   0  0  0  0  0  0
  -29.9055  -21.6410   19.8580 H   0  0  0  0  0  0
  1 25  1  0  0  0
  1 30  2  0  0  0
  1 83  1  0  0  0
  2  3  1  0  0  0
  2 25  1  0  0  0
  2 86  1  0  0  0
  2 87  1  0  0  0
  3  4  1  0  0  0
  3 88  1  0  0  0
  3 89  1  0  0  0
  4  5  1  0  0  0
  4 90  1  0  0  0
  4 91  1  0  0  0
  5  6  1  0  0  0
  5 26  1  0  0  0
  5 92  1  0  0  0
  6 25  1  0  0  0
  6 93  1  0  0  0
  6 94  1  0  0  0
  7  8  2  0  0  0
  7 26  1  0  0  0
  7 29  1  0  0  0
  8  9  1  0  0  0
  8 22  1  0  0  0
  9 10  1  0  0  0
  9 27  2  0  0  0
 10 11  2  0  0  0
 10 15  1  0  0  0
 11 12  1  0  0  0
 11 95  1  0  0  0
 12 13  2  0  0  0
 12 96  1  0  0  0
 13 14  1  0  0  0
 13 31  1  0  0  0
 14 15  2  0  0  0
 14 97  1  0  0  0
 15 98  1  0  0  0
 16 17  2  0  0  0
 16 21  1  0  0  0
 16 31  1  0  0  0
 17 18  1  0  0  0
 17 99  1  0  0  0
 18 19  2  0  0  0
 18100  1  0  0  0
 19 20  1  0  0  0
 19 24  1  0  0  0
 20 21  2  0  0  0
 20101  1  0  0  0
 21 23  1  0  0  0
 22 28  1  0  0  0
 22 32  2  0  0  0
 26 27  1  0  0  0
 28102  1  0  0  0
 28103  1  0  0  0
 29104  1  0  0  0
 29105  1  0  0  0
 33 34  1  0  0  0
 33 66  1  0  0  0
 33 70  2  0  0  0
 34 36  1  0  0  0
 34 59  1  0  0  0
 34106  1  0  0  0
 35 44  2  0  0  0
 35 45  1  0  0  0
 35 68  1  0  0  0
 36 56  1  0  0  0
 36107  1  0  0  0
 37 39  1  0  0  0
 37 47  1  0  0  0
 37 66  1  0  0  0
 37108  1  0  0  0
 38 43  2  0  0  0
 38 46  1  0  0  0
 38 47  1  0  0  0
 39 64  1  0  0  0
 39 67  2  0  0  0
 40 52  1  0  0  0
 40 53  2  0  0  0
 40 58  1  0  0  0
 41109  1  0  0  0
 41110  1  0  0  0
 41111  1  0  0  0
 41 48  1  0  0  0
 42 43  1  0  0  0
 42 66  1  0  0  0
 42112  1  0  0  0
 42113  1  0  0  0
 43 44  1  0  0  0
 44114  1  0  0  0
 45 46  2  0  0  0
 45115  1  0  0  0
 46116  1  0  0  0
 47117  1  0  0  0
 47118  1  0  0  0
 48 56  1  0  0  0
 48 65  1  0  0  0
 48119  1  0  0  0
 49 50  1  0  0  0
 49 53  1  0  0  0
 49 64  1  0  0  0
 49120  1  0  0  0
 50 51  1  0  0  0
 50121  1  0  0  0
 50122  1  0  0  0
 51 52  1  0  0  0
 51123  1  0  0  0
 51124  1  0  0  0
 52125  1  0  0  0
 52126  1  0  0  0
 53 54  1  0  0  0
 54 55  2  0  0  0
 54127  1  0  0  0
 55 57  1  0  0  0
 55128  1  0  0  0
 56 69  2  0  0  0
 57 58  2  0  0  0
 57129  1  0  0  0
 58130  1  0  0  0
 59 60  1  0  0  0
 59 61  1  0  0  0
 59 62  1  0  0  0
 60131  1  0  0  0
 60132  1  0  0  0
 60133  1  0  0  0
 61134  1  0  0  0
 61135  1  0  0  0
 61136  1  0  0  0
 62137  1  0  0  0
 62138  1  0  0  0
 62139  1  0  0  0
 63 65  1  0  0  0
 63140  1  0  0  0
 63141  1  0  0  0
 63142  1  0  0  0
 64143  1  0  0  0
 65144  1  0  0  0
 68 79  1  0  0  0
 71 73  2  0  0  0
 71 74  1  0  0  0
 71145  1  0  0  0
 72 74  2  0  0  0
 72 81  1  0  0  0
 72146  1  0  0  0
 73 75  1  0  0  0
 73 80  1  0  0  0
 74 83  1  0  0  0
 75 81  2  0  0  0
 75 82  1  0  0  0
 76 78  1  0  0  0
 76 79  1  0  0  0
 76 85  2  0  0  0
 77147  1  0  0  0
 77148  1  0  0  0
 77149  1  0  0  0
 77 80  1  0  0  0
 78 84  1  0  0  0
 78150  1  0  0  0
 78151  1  0  0  0
 79152  1  0  0  0
 79153  1  0  0  0
 80 84  1  0  0  0
 80154  1  0  0  0
 82155  1  0  0  0
 82156  1  0  0  0
 83157  1  0  0  0
 84158  1  0  0  0
 84159  1  0  0  0
M  CHG  1  84   1
M  ISO  4   1 100  68 101  79 101  83 100
M  END
> <chiral flag>
0

> <version>
0

> <s_m_source_file>
/data/baiqing/PycharmProjects/Reinvent-master-3.2/result/LINK_invent/BTK/process_docking_weight1_custom_product_contain_oxygen_bond_distance_aromatic_linkinvent_7_9_3/rearranged_h_0165.sdf

> <i_m_source_file_index>
25

> <r_mmod_Potential_Energy-OPLS-2005>
-519.145751953125

> <r_mmod_Stretch_Energy-OPLS-2005>
44.5973854064941

> <r_mmod_Bend_Energy-OPLS-2005>
109.87809753418

> <r_mmod_Torsional_Energy-OPLS-2005>
253.574249267578

> <r_mmod_Improper_Torsional_Energy-OPLS-2005>
12.1923732757568

> <r_mmod_Van_der_Waal_Energy-OPLS-2005>
174.221130371094

> <r_mmod_Electrostatic_Energy-OPLS-2005>
-629.933349609375

> <r_mmod_Solvation_Energy-OPLS-2005>
-501.333557128906

> <b_mmod_Minimization_Converged-OPLS-2005>
0

> <r_mmod_RMS_Derivative-OPLS-2005>
2.94948554039001

$$$$
25
                    3D
 Structure written by MMmdl.
156164  0  0  1  0            999 V2000
  -30.7389  -14.4172   20.6412 C   0  0  0  0  0  0
  -30.4205  -12.2962   19.4236 C   0  0  0  0  0  0
  -29.4975  -12.5262   18.2100 C   0  0  0  0  0  0
  -28.0233  -12.3651   18.6226 C   0  0  0  0  0  0
  -27.6691  -13.2008   19.8827 C   0  0  2  0  0  0
  -28.7042  -12.9684   21.0073 C   0  0  0  0  0  0
  -25.2628  -13.8117   20.5677 C   0  0  0  0  0  0
  -24.1868  -13.0402   20.9157 C   0  0  0  0  0  0
  -24.6424  -11.6882   20.8707 C   0  0  0  0  0  0
  -23.9089  -10.4289   21.0381 C   0  0  0  0  0  0
  -24.3637   -9.4216   21.9164 C   0  0  0  0  0  0
  -23.6301   -8.2262   22.0740 C   0  0  0  0  0  0
  -22.4287   -8.0295   21.3537 C   0  0  0  0  0  0
  -21.9927   -9.0267   20.4643 C   0  0  0  0  0  0
  -22.7260  -10.2140   20.3041 C   0  0  0  0  0  0
  -21.6863   -6.0757   22.5284 C   0  0  0  0  0  0
  -21.4027   -6.5656   23.8218 C   0  0  0  0  0  0
  -21.3654   -5.6804   24.9168 C   0  0  0  0  0  0
  -21.6034   -4.3063   24.7211 C   0  0  0  0  0  0
  -21.8831   -3.8160   23.4333 C   0  0  0  0  0  0
  -21.9203   -4.6981   22.3392 C   0  0  0  0  0  0
  -22.7903  -13.5211   21.1824 C   0  0  0  0  0  0
  -22.1678   -4.2171   21.0968 F   0  0  0  0  0  0
  -21.5606   -3.4545   25.7715 F   0  0  0  0  0  0
  -30.0468  -13.2607   20.4693 N   0  0  0  0  0  0
  -26.3070  -12.9289   20.3385 N   0  0  0  0  0  0
  -25.9354  -11.6454   20.5770 N   0  0  0  0  0  0
  -22.0572  -12.8185   22.0387 N   0  0  0  0  0  0
  -25.4327  -15.1829   20.4129 N   0  0  0  0  0  0
  -31.7923  -14.6640   20.0437 O   0  0  0  0  0  0
  -21.6648   -6.8893   21.4244 O   0  0  0  0  0  0
  -22.3577  -14.5533   20.6685 O   0  0  0  0  0  0
  -24.6092  -31.8699   23.2142 C   0  0  0  0  0  0
  -25.9006  -32.4819   23.8451 C   0  0  1  0  0  0
  -27.2489  -27.4632   20.0874 C   0  0  0  0  0  0
  -25.5875  -33.8621   24.2355 N   0  0  0  0  0  0
  -23.3982  -30.4942   21.5478 C   0  0  2  0  0  0
  -24.8514  -28.9638   20.1169 C   0  0  0  0  0  0
  -22.7361  -29.4704   22.4969 C   0  0  0  0  0  0
  -18.0269  -28.1343   22.8432 C   0  0  0  0  0  0
  -24.1493  -36.7331   23.2648 C   0  0  0  0  0  0
  -25.9244  -30.8485   21.3624 C   0  0  0  0  0  0
  -26.0091  -29.4848   20.7069 C   0  0  0  0  0  0
  -27.2075  -28.7387   20.6936 C   0  0  0  0  0  0
  -26.0666  -26.9501   19.5006 C   0  0  0  0  0  0
  -24.8744  -27.6947   19.5151 C   0  0  0  0  0  0
  -23.6115  -29.8225   20.1639 C   0  0  0  0  0  0
  -25.4110  -36.3100   24.0337 C   0  0  1  0  0  0
  -20.5853  -28.3677   23.1289 C   0  0  2  0  0  0
  -20.6783  -26.9419   22.5415 C   0  0  0  0  0  0
  -19.5807  -26.6402   21.5154 C   0  0  0  0  0  0
  -18.1962  -26.7913   22.1548 C   0  0  0  0  0  0
  -19.1512  -28.8814   23.2864 C   0  0  0  0  0  0
  -18.9435  -30.1403   23.8890 C   0  0  0  0  0  0
  -17.6421  -30.6524   24.0534 C   0  0  0  0  0  0
  -25.9020  -34.9465   23.5134 C   0  0  0  0  0  0
  -16.5325  -29.9027   23.6294 C   0  0  0  0  0  0
  -16.7260  -28.6460   23.0284 C   0  0  0  0  0  0
  -26.4471  -31.6608   25.0771 C   0  0  0  0  0  0
  -25.3777  -31.3702   26.1545 C   0  0  0  0  0  0
  -27.0325  -30.3063   24.6156 C   0  0  0  0  0  0
  -27.6030  -32.4368   25.7543 C   0  0  0  0  0  0
  -27.5574  -37.1816   24.8451 C   0  0  0  0  0  0
  -21.4112  -29.3039   22.3666 N   0  0  0  0  0  0
  -26.4289  -37.3780   23.9389 N   0  0  0  0  0  0
  -24.6613  -31.0846   22.1009 N   0  0  0  0  0  0
  -23.4112  -28.8264   23.3046 O   0  0  0  0  0  0
  -28.4147  -26.7289   20.1343 O   0  0  0  0  0  0
  -26.5577  -34.8897   22.4695 O   0  0  0  0  0  0
  -23.5301  -32.1425   23.7575 O   0  0  0  0  0  0
  -29.8922  -19.0992   21.3087 C   0  0  0  0  0  0
  -28.1617  -17.4452   21.7779 C   0  0  0  0  0  0
  -27.5609  -19.7853   21.3897 C   0  0  0  0  0  0
  -29.5284  -17.7568   21.5839 C   0  0  0  0  0  0
  -28.9214  -20.1217   21.1931 C   0  0  0  0  0  0
  -27.1868  -18.4568   21.6859 C   0  0  0  0  0  0
  -28.6522  -25.8143   19.1409 C   0  0  0  0  0  0
  -28.9642  -24.5166   19.3507 C   0  0  0  0  0  0
  -29.1203  -23.9225   20.6996 C   0  0  0  0  0  0
  -30.6311  -16.6946   21.6825 C   0  0  0  0  0  0
  -28.4373  -22.5724   20.9983 C   0  0  0  0  0  0
  -29.3526  -21.4306   20.8904 N   0  0  0  0  0  0
  -30.1834  -15.3097   21.4745 N   0  0  0  0  0  0
  -29.8009  -24.4473   21.5836 O   0  0  0  0  0  0
  -29.1603  -23.6902   18.3142 O   0  0  0  0  0  0
  -25.8796  -18.1547   21.8745 F   0  0  0  0  0  0
  -31.4682  -12.3822   19.1320 H   0  0  0  0  0  0
  -30.3020  -11.2795   19.8002 H   0  0  0  0  0  0
  -29.7490  -11.8337   17.4043 H   0  0  0  0  0  0
  -29.6605  -13.5288   17.8109 H   0  0  0  0  0  0
  -27.8512  -11.3065   18.8232 H   0  0  0  0  0  0
  -27.3693  -12.6326   17.7926 H   0  0  0  0  0  0
  -27.7260  -14.2510   19.5959 H   0  0  0  0  0  0
  -28.6701  -11.9347   21.3513 H   0  0  0  0  0  0
  -28.4493  -13.5682   21.8814 H   0  0  0  0  0  0
  -25.2781   -9.5690   22.4731 H   0  0  0  0  0  0
  -24.0018   -7.4655   22.7456 H   0  0  0  0  0  0
  -21.0864   -8.8782   19.8951 H   0  0  0  0  0  0
  -22.3709  -10.9678   19.6149 H   0  0  0  0  0  0
  -21.2039   -7.6165   23.9716 H   0  0  0  0  0  0
  -21.1454   -6.0533   25.9072 H   0  0  0  0  0  0
  -22.0613   -2.7630   23.2821 H   0  0  0  0  0  0
  -22.4246  -11.9842   22.4729 H   0  0  0  0  0  0
  -21.1194  -13.1179   22.2659 H   0  0  0  0  0  0
  -24.6643  -15.8283   20.5531 H   0  0  0  0  0  0
  -26.2839  -15.6459   20.1235 H   0  0  0  0  0  0
  -26.7076  -32.5539   23.1221 H   0  0  0  0  0  0
  -25.0017  -33.9813   25.0487 H   0  0  0  0  0  0
  -22.6863  -31.3108   21.4035 H   0  0  0  0  0  0
  -23.3716  -35.9704   23.3336 H   0  0  0  0  0  0
  -24.3568  -36.8926   22.2051 H   0  0  0  0  0  0
  -23.7296  -37.6564   23.6658 H   0  0  0  0  0  0
  -26.0308  -31.6232   20.6015 H   0  0  0  0  0  0
  -26.8095  -30.9015   21.9827 H   0  0  0  0  0  0
  -28.1008  -29.1378   21.1550 H   0  0  0  0  0  0
  -26.0543  -25.9705   19.0450 H   0  0  0  0  0  0
  -23.9822  -27.2814   19.0679 H   0  0  0  0  0  0
  -23.7188  -30.5882   19.3950 H   0  0  0  0  0  0
  -22.7394  -29.2377   19.8694 H   0  0  0  0  0  0
  -25.1298  -36.1972   25.0834 H   0  0  0  0  0  0
  -20.9953  -28.3250   24.1397 H   0  0  0  0  0  0
  -20.5682  -26.2334   23.3629 H   0  0  0  0  0  0
  -21.6653  -26.7499   22.1214 H   0  0  0  0  0  0
  -19.6964  -25.6305   21.1230 H   0  0  0  0  0  0
  -19.6827  -27.3186   20.6664 H   0  0  0  0  0  0
  -17.4255  -26.6664   21.3916 H   0  0  0  0  0  0
  -18.0364  -25.9989   22.8871 H   0  0  0  0  0  0
  -19.7923  -30.7206   24.2269 H   0  0  0  0  0  0
  -17.4974  -31.6191   24.5142 H   0  0  0  0  0  0
  -15.5300  -30.2922   23.7584 H   0  0  0  0  0  0
  -15.8662  -28.0799   22.6972 H   0  0  0  0  0  0
  -24.5883  -30.7115   25.7904 H   0  0  0  0  0  0
  -24.9048  -32.2858   26.5116 H   0  0  0  0  0  0
  -25.8163  -30.8779   27.0234 H   0  0  0  0  0  0
  -26.2882  -29.6803   24.1212 H   0  0  0  0  0  0
  -27.4087  -29.7327   25.4639 H   0  0  0  0  0  0
  -27.8723  -30.4394   23.9330 H   0  0  0  0  0  0
  -27.2593  -33.3615   26.2215 H   0  0  0  0  0  0
  -28.3807  -32.7036   25.0366 H   0  0  0  0  0  0
  -28.0763  -31.8457   26.5396 H   0  0  0  0  0  0
  -28.2600  -38.0102   24.7460 H   0  0  0  0  0  0
  -28.1059  -36.2618   24.6335 H   0  0  0  0  0  0
  -27.2274  -37.1558   25.8852 H   0  0  0  0  0  0
  -20.9304  -29.8638   21.6761 H   0  0  0  0  0  0
  -26.0172  -38.2864   24.1362 H   0  0  0  0  0  0
  -30.9392  -19.3380   21.1733 H   0  0  0  0  0  0
  -27.8324  -16.4386   21.9968 H   0  0  0  0  0  0
  -26.7800  -20.5292   21.3209 H   0  0  0  0  0  0
  -28.5501  -26.2544   18.1583 H   0  0  0  0  0  0
  -31.1076  -16.7721   22.6622 H   0  0  0  0  0  0
  -31.4091  -16.9538   20.9611 H   0  0  0  0  0  0
  -28.0274  -22.6193   22.0102 H   0  0  0  0  0  0
  -27.5969  -22.4496   20.3152 H   0  0  0  0  0  0
  -30.3280  -21.6501   21.0865 H   0  0  0  0  0  0
  -29.3666  -15.0057   21.9787 H   0  0  0  0  0  0
  -29.3336  -22.8268   18.6782 H   0  0  0  0  0  0
  1 25  1  0  0  0
  1 30  2  0  0  0
  1 83  1  0  0  0
  2  3  1  0  0  0
  2 25  1  0  0  0
  2 87  1  0  0  0
  2 88  1  0  0  0
  3  4  1  0  0  0
  3 89  1  0  0  0
  3 90  1  0  0  0
  4  5  1  0  0  0
  4 91  1  0  0  0
  4 92  1  0  0  0
  5  6  1  0  0  0
  5 26  1  0  0  0
  5 93  1  0  0  0
  6 25  1  0  0  0
  6 94  1  0  0  0
  6 95  1  0  0  0
  7  8  2  0  0  0
  7 26  1  0  0  0
  7 29  1  0  0  0
  8  9  1  0  0  0
  8 22  1  0  0  0
  9 10  1  0  0  0
  9 27  2  0  0  0
 10 11  2  0  0  0
 10 15  1  0  0  0
 11 12  1  0  0  0
 11 96  1  0  0  0
 12 13  2  0  0  0
 12 97  1  0  0  0
 13 14  1  0  0  0
 13 31  1  0  0  0
 14 15  2  0  0  0
 14 98  1  0  0  0
 15 99  1  0  0  0
 16 17  2  0  0  0
 16 21  1  0  0  0
 16 31  1  0  0  0
 17 18  1  0  0  0
 17100  1  0  0  0
 18 19  2  0  0  0
 18101  1  0  0  0
 19 20  1  0  0  0
 19 24  1  0  0  0
 20 21  2  0  0  0
 20102  1  0  0  0
 21 23  1  0  0  0
 22 28  1  0  0  0
 22 32  2  0  0  0
 26 27  1  0  0  0
 28103  1  0  0  0
 28104  1  0  0  0
 29105  1  0  0  0
 29106  1  0  0  0
 33 34  1  0  0  0
 33 66  1  0  0  0
 33 70  2  0  0  0
 34 36  1  0  0  0
 34 59  1  0  0  0
 34107  1  0  0  0
 35 44  2  0  0  0
 35 45  1  0  0  0
 35 68  1  0  0  0
 36 56  1  0  0  0
 36108  1  0  0  0
 37 39  1  0  0  0
 37 47  1  0  0  0
 37 66  1  0  0  0
 37109  1  0  0  0
 38 43  2  0  0  0
 38 46  1  0  0  0
 38 47  1  0  0  0
 39 64  1  0  0  0
 39 67  2  0  0  0
 40 52  1  0  0  0
 40 53  2  0  0  0
 40 58  1  0  0  0
 41110  1  0  0  0
 41111  1  0  0  0
 41112  1  0  0  0
 41 48  1  0  0  0
 42 43  1  0  0  0
 42 66  1  0  0  0
 42113  1  0  0  0
 42114  1  0  0  0
 43 44  1  0  0  0
 44115  1  0  0  0
 45 46  2  0  0  0
 45116  1  0  0  0
 46117  1  0  0  0
 47118  1  0  0  0
 47119  1  0  0  0
 48 56  1  0  0  0
 48 65  1  0  0  0
 48120  1  0  0  0
 49 50  1  0  0  0
 49 53  1  0  0  0
 49 64  1  0  0  0
 49121  1  0  0  0
 50 51  1  0  0  0
 50122  1  0  0  0
 50123  1  0  0  0
 51 52  1  0  0  0
 51124  1  0  0  0
 51125  1  0  0  0
 52126  1  0  0  0
 52127  1  0  0  0
 53 54  1  0  0  0
 54 55  2  0  0  0
 54128  1  0  0  0
 55 57  1  0  0  0
 55129  1  0  0  0
 56 69  2  0  0  0
 57 58  2  0  0  0
 57130  1  0  0  0
 58131  1  0  0  0
 59 60  1  0  0  0
 59 61  1  0  0  0
 59 62  1  0  0  0
 60132  1  0  0  0
 60133  1  0  0  0
 60134  1  0  0  0
 61135  1  0  0  0
 61136  1  0  0  0
 61137  1  0  0  0
 62138  1  0  0  0
 62139  1  0  0  0
 62140  1  0  0  0
 63 65  1  0  0  0
 63141  1  0  0  0
 63142  1  0  0  0
 63143  1  0  0  0
 64144  1  0  0  0
 65145  1  0  0  0
 68 77  1  0  0  0
 71 74  2  0  0  0
 71 75  1  0  0  0
 71146  1  0  0  0
 72 74  1  0  0  0
 72 76  2  0  0  0
 72147  1  0  0  0
 73 75  2  0  0  0
 73 76  1  0  0  0
 73148  1  0  0  0
 74 80  1  0  0  0
 75 82  1  0  0  0
 76 86  1  0  0  0
 77 78  2  0  0  0
 77149  1  0  0  0
 78 79  1  0  0  0
 78 85  1  0  0  0
 79 81  1  0  0  0
 79 84  2  0  0  0
 80 83  1  0  0  0
 80150  1  0  0  0
 80151  1  0  0  0
 81 82  1  0  0  0
 81152  1  0  0  0
 81153  1  0  0  0
 82154  1  0  0  0
 83155  1  0  0  0
 85156  1  0  0  0
M  ISO  4   1 100  68 101  77 101  83 100
M  END
> <chiral flag>
0

> <version>
0

> <s_m_source_file>
/data/baiqing/PycharmProjects/Reinvent-master-3.2/result/LINK_invent/BTK/process_docking_weight1_custom_product_contain_oxygen_bond_distance_aromatic_linkinvent_7_9_3/rearranged_h_0165.sdf

> <i_m_source_file_index>
26

> <r_mmod_Potential_Energy-OPLS-2005>
-80.2063293457031

> <r_mmod_Stretch_Energy-OPLS-2005>
36.3269386291504

> <r_mmod_Bend_Energy-OPLS-2005>
98.6371383666992

> <r_mmod_Torsional_Energy-OPLS-2005>
204.303802490234

> <r_mmod_Improper_Torsional_Energy-OPLS-2005>
4.45877456665039

> <r_mmod_Van_der_Waal_Energy-OPLS-2005>
150.3505859375

> <r_mmod_Electrostatic_Energy-OPLS-2005>
-351.388549804688

> <r_mmod_Solvation_Energy-OPLS-2005>
-231.812896728516

> <b_mmod_Minimization_Converged-OPLS-2005>
0

> <r_mmod_RMS_Derivative-OPLS-2005>
4.64058780670166

$$$$
26
                    3D
 Structure written by MMmdl.
163172  0  0  1  0            999 V2000
  -30.6607  -14.5136   20.5771 C   0  0  0  0  0  0
  -30.4384  -12.3334   19.4238 C   0  0  0  0  0  0
  -29.5006  -12.5127   18.2098 C   0  0  0  0  0  0
  -28.0217  -12.3636   18.6220 C   0  0  0  0  0  0
  -27.6640  -13.2013   19.8779 C   0  0  2  0  0  0
  -28.7058  -12.9722   20.9959 C   0  0  0  0  0  0
  -25.2588  -13.8128   20.5664 C   0  0  0  0  0  0
  -24.1836  -13.0416   20.9168 C   0  0  0  0  0  0
  -24.6388  -11.6888   20.8732 C   0  0  0  0  0  0
  -23.9051  -10.4281   21.0404 C   0  0  0  0  0  0
  -24.3603   -9.4197   21.9183 C   0  0  0  0  0  0
  -23.6281   -8.2230   22.0745 C   0  0  0  0  0  0
  -22.4262   -8.0269   21.3533 C   0  0  0  0  0  0
  -21.9898   -9.0246   20.4636 C   0  0  0  0  0  0
  -22.7225  -10.2127   20.3050 C   0  0  0  0  0  0
  -21.6844   -6.0733   22.5279 C   0  0  0  0  0  0
  -21.4008   -6.5637   23.8215 C   0  0  0  0  0  0
  -21.3658   -5.6788   24.9177 C   0  0  0  0  0  0
  -21.6047   -4.3051   24.7226 C   0  0  0  0  0  0
  -21.8823   -3.8143   23.4346 C   0  0  0  0  0  0
  -21.9189   -4.6962   22.3404 C   0  0  0  0  0  0
  -22.7859  -13.5228   21.1841 C   0  0  0  0  0  0
  -22.1651   -4.2146   21.0980 F   0  0  0  0  0  0
  -21.5634   -3.4536   25.7737 F   0  0  0  0  0  0
  -30.0368  -13.3062   20.4528 N   0  0  0  0  0  0
  -26.3033  -12.9293   20.3370 N   0  0  0  0  0  0
  -25.9318  -11.6463   20.5771 N   0  0  0  0  0  0
  -22.0499  -12.8224   22.0397 N   0  0  0  0  0  0
  -25.4294  -15.1838   20.4064 N   0  0  0  0  0  0
  -31.7751  -14.7465   20.0979 O   0  0  0  0  0  0
  -21.6625   -6.8869   21.4237 O   0  0  0  0  0  0
  -22.3554  -14.5546   20.6699 O   0  0  0  0  0  0
  -24.6173  -31.8654   23.2089 C   0  0  0  0  0  0
  -25.9059  -32.4805   23.8391 C   0  0  1  0  0  0
  -27.2387  -27.4173   20.1036 C   0  0  0  0  0  0
  -25.5917  -33.8608   24.2333 N   0  0  0  0  0  0
  -23.4081  -30.4878   21.5482 C   0  0  2  0  0  0
  -24.8590  -28.9498   20.1148 C   0  0  0  0  0  0
  -22.7427  -29.4652   22.4974 C   0  0  0  0  0  0
  -18.0272  -28.1381   22.8489 C   0  0  0  0  0  0
  -24.1484  -36.7300   23.2634 C   0  0  0  0  0  0
  -25.9387  -30.8242   21.3673 C   0  0  0  0  0  0
  -26.0189  -29.4571   20.7153 C   0  0  0  0  0  0
  -27.2151  -28.6975   20.7089 C   0  0  0  0  0  0
  -26.0663  -26.9293   19.4933 C   0  0  0  0  0  0
  -24.8777  -27.6850   19.5000 C   0  0  0  0  0  0
  -23.6205  -29.8179   20.1636 C   0  0  0  0  0  0
  -25.4101  -36.3102   24.0342 C   0  0  1  0  0  0
  -20.5866  -28.3674   23.1302 C   0  0  2  0  0  0
  -20.6768  -26.9408   22.5410 C   0  0  0  0  0  0
  -19.5749  -26.6387   21.5207 C   0  0  0  0  0  0
  -18.1925  -26.7928   22.1614 C   0  0  0  0  0  0
  -19.1523  -28.8845   23.2894 C   0  0  0  0  0  0
  -18.9451  -30.1450   23.8905 C   0  0  0  0  0  0
  -17.6454  -30.6590   24.0561 C   0  0  0  0  0  0
  -25.9039  -34.9469   23.5135 C   0  0  0  0  0  0
  -16.5344  -29.9088   23.6332 C   0  0  0  0  0  0
  -16.7261  -28.6504   23.0353 C   0  0  0  0  0  0
  -26.4489  -31.6585   25.0720 C   0  0  0  0  0  0
  -25.3766  -31.3671   26.1474 C   0  0  0  0  0  0
  -27.0329  -30.3030   24.6102 C   0  0  0  0  0  0
  -27.6071  -32.4303   25.7476 C   0  0  0  0  0  0
  -27.5591  -37.1782   24.8453 C   0  0  0  0  0  0
  -21.4152  -29.3036   22.3706 N   0  0  0  0  0  0
  -26.4278  -37.3799   23.9440 N   0  0  0  0  0  0
  -24.6725  -31.0739   22.0999 N   0  0  0  0  0  0
  -23.4181  -28.8195   23.3033 O   0  0  0  0  0  0
  -28.3651  -26.6188   20.1022 O   0  0  0  0  0  0
  -26.5590  -34.8925   22.4691 O   0  0  0  0  0  0
  -23.5363  -32.1412   23.7473 O   0  0  0  0  0  0
  -30.5383  -19.1832   21.4020 C   0  0  0  0  0  0
  -30.7787  -17.7858   21.4800 C   0  0  0  0  0  0
  -28.7245  -17.3854   20.2630 C   0  0  0  0  0  0
  -29.3711  -19.7102   20.7859 C   0  0  0  0  0  0
  -29.8547  -16.8666   20.9340 C   0  0  0  0  0  0
  -28.4855  -18.7787   20.1777 C   0  0  0  0  0  0
  -29.2447  -22.0574   19.5861 C   0  0  0  0  0  0
  -29.6364  -21.9921   22.0515 C   0  0  0  0  0  0
  -28.6441  -23.4954   19.6967 C   0  0  0  0  0  0
  -29.0288  -23.4108   22.1945 C   0  0  0  0  0  0
  -29.0068  -21.2234   20.8697 C   0  0  2  0  0  0
  -29.1406  -24.3025   20.9263 C   0  0  2  0  0  0
  -28.3846  -25.6565   21.1781 C   0  0  0  0  0  0
  -27.3305  -19.2068   19.5213 N   0  0  0  0  0  0
  -29.9189  -15.4575   21.1951 N   0  0  0  0  0  0
  -30.5157  -24.5976   20.7620 O   0  0  0  0  0  0
  -31.4787  -12.4620   19.1208 H   0  0  0  0  0  0
  -30.3671  -11.3187   19.8191 H   0  0  0  0  0  0
  -29.7458  -11.7847   17.4353 H   0  0  0  0  0  0
  -29.6585  -13.4968   17.7649 H   0  0  0  0  0  0
  -27.8381  -11.3071   18.8205 H   0  0  0  0  0  0
  -27.3684  -12.6332   17.7911 H   0  0  0  0  0  0
  -27.7094  -14.2494   19.5834 H   0  0  0  0  0  0
  -28.6939  -11.9288   21.3144 H   0  0  0  0  0  0
  -28.4524  -13.5420   21.8913 H   0  0  0  0  0  0
  -25.2746   -9.5673   22.4759 H   0  0  0  0  0  0
  -23.9992   -7.4621   22.7461 H   0  0  0  0  0  0
  -21.0827   -8.8763   19.8942 H   0  0  0  0  0  0
  -22.3679  -10.9668   19.6156 H   0  0  0  0  0  0
  -21.1991   -7.6143   23.9720 H   0  0  0  0  0  0
  -21.1475   -6.0513   25.9083 H   0  0  0  0  0  0
  -22.0605   -2.7606   23.2844 H   0  0  0  0  0  0
  -22.4109  -11.9871   22.4766 H   0  0  0  0  0  0
  -21.1118  -13.1257   22.2612 H   0  0  0  0  0  0
  -24.6639  -15.8392   20.5201 H   0  0  0  0  0  0
  -26.2835  -15.6250   20.0952 H   0  0  0  0  0  0
  -26.7131  -32.5515   23.1156 H   0  0  0  0  0  0
  -25.0113  -33.9767   25.0511 H   0  0  0  0  0  0
  -22.6986  -31.3053   21.4057 H   0  0  0  0  0  0
  -23.3768  -35.9606   23.3251 H   0  0  0  0  0  0
  -24.3597  -36.8959   22.2061 H   0  0  0  0  0  0
  -23.7200  -37.6477   23.6674 H   0  0  0  0  0  0
  -26.0554  -31.5895   20.5985 H   0  0  0  0  0  0
  -26.8250  -30.8775   21.9880 H   0  0  0  0  0  0
  -28.1099  -29.0815   21.1781 H   0  0  0  0  0  0
  -26.0737  -25.9556   19.0235 H   0  0  0  0  0  0
  -23.9877  -27.2876   19.0319 H   0  0  0  0  0  0
  -23.7323  -30.5922   19.4038 H   0  0  0  0  0  0
  -22.7445  -29.2390   19.8652 H   0  0  0  0  0  0
  -25.1271  -36.1950   25.0834 H   0  0  0  0  0  0
  -20.9955  -28.3237   24.1421 H   0  0  0  0  0  0
  -20.5669  -26.2282   23.3597 H   0  0  0  0  0  0
  -21.6637  -26.7452   22.1195 H   0  0  0  0  0  0
  -19.6908  -25.6299   21.1234 H   0  0  0  0  0  0
  -19.6689  -27.3198   20.6737 H   0  0  0  0  0  0
  -17.4196  -26.6680   21.4014 H   0  0  0  0  0  0
  -18.0322  -26.0062   22.9002 H   0  0  0  0  0  0
  -19.7931  -30.7260   24.2272 H   0  0  0  0  0  0
  -17.5014  -31.6274   24.5160 H   0  0  0  0  0  0
  -15.5344  -30.2994   23.7664 H   0  0  0  0  0  0
  -15.8657  -28.0829   22.7068 H   0  0  0  0  0  0
  -24.5944  -30.7011   25.7810 H   0  0  0  0  0  0
  -24.8949  -32.2812   26.4955 H   0  0  0  0  0  0
  -25.8134  -30.8820   27.0213 H   0  0  0  0  0  0
  -26.2869  -29.6760   24.1201 H   0  0  0  0  0  0
  -27.4155  -29.7290   25.4553 H   0  0  0  0  0  0
  -27.8682  -30.4350   23.9218 H   0  0  0  0  0  0
  -27.2704  -33.3602   26.2069 H   0  0  0  0  0  0
  -28.3869  -32.6859   25.0290 H   0  0  0  0  0  0
  -28.0751  -31.8412   26.5373 H   0  0  0  0  0  0
  -28.2546  -38.0146   24.7615 H   0  0  0  0  0  0
  -28.1155  -36.2689   24.6130 H   0  0  0  0  0  0
  -27.2334  -37.1244   25.8856 H   0  0  0  0  0  0
  -20.9319  -29.8745   21.6909 H   0  0  0  0  0  0
  -26.0159  -38.2858   24.1511 H   0  0  0  0  0  0
  -31.2456  -19.8453   21.8789 H   0  0  0  0  0  0
  -31.6454  -17.4269   22.0180 H   0  0  0  0  0  0
  -28.0064  -16.6988   19.8402 H   0  0  0  0  0  0
  -30.3126  -22.1116   19.3742 H   0  0  0  0  0  0
  -28.7954  -21.5557   18.7290 H   0  0  0  0  0  0
  -29.4640  -21.4435   22.9783 H   0  0  0  0  0  0
  -30.7180  -22.0621   21.9317 H   0  0  0  0  0  0
  -27.5577  -23.4111   19.7543 H   0  0  0  0  0  0
  -28.8438  -24.0532   18.7810 H   0  0  0  0  0  0
  -29.4806  -23.9144   23.0502 H   0  0  0  0  0  0
  -27.9744  -23.2984   22.4519 H   0  0  0  0  0  0
  -27.9327  -21.2342   21.0614 H   0  0  0  0  0  0
  -28.8130  -26.1538   22.0498 H   0  0  0  0  0  0
  -27.3600  -25.4103   21.4650 H   0  0  0  0  0  0
  -26.8596  -18.5730   18.8840 H   0  0  0  0  0  0
  -27.2572  -20.1791   19.2435 H   0  0  0  0  0  0
  -29.0630  -15.0660   21.5573 H   0  0  0  0  0  0
  -30.9661  -23.7731   20.6227 H   0  0  0  0  0  0
  1 25  1  0  0  0
  1 30  2  0  0  0
  1 85  1  0  0  0
  2  3  1  0  0  0
  2 25  1  0  0  0
  2 87  1  0  0  0
  2 88  1  0  0  0
  3  4  1  0  0  0
  3 89  1  0  0  0
  3 90  1  0  0  0
  4  5  1  0  0  0
  4 91  1  0  0  0
  4 92  1  0  0  0
  5  6  1  0  0  0
  5 26  1  0  0  0
  5 93  1  0  0  0
  6 25  1  0  0  0
  6 94  1  0  0  0
  6 95  1  0  0  0
  7  8  2  0  0  0
  7 26  1  0  0  0
  7 29  1  0  0  0
  8  9  1  0  0  0
  8 22  1  0  0  0
  9 10  1  0  0  0
  9 27  2  0  0  0
 10 11  2  0  0  0
 10 15  1  0  0  0
 11 12  1  0  0  0
 11 96  1  0  0  0
 12 13  2  0  0  0
 12 97  1  0  0  0
 13 14  1  0  0  0
 13 31  1  0  0  0
 14 15  2  0  0  0
 14 98  1  0  0  0
 15 99  1  0  0  0
 16 17  2  0  0  0
 16 21  1  0  0  0
 16 31  1  0  0  0
 17 18  1  0  0  0
 17100  1  0  0  0
 18 19  2  0  0  0
 18101  1  0  0  0
 19 20  1  0  0  0
 19 24  1  0  0  0
 20 21  2  0  0  0
 20102  1  0  0  0
 21 23  1  0  0  0
 22 28  1  0  0  0
 22 32  2  0  0  0
 26 27  1  0  0  0
 28103  1  0  0  0
 28104  1  0  0  0
 29105  1  0  0  0
 29106  1  0  0  0
 33 34  1  0  0  0
 33 66  1  0  0  0
 33 70  2  0  0  0
 34 36  1  0  0  0
 34 59  1  0  0  0
 34107  1  0  0  0
 35 44  2  0  0  0
 35 45  1  0  0  0
 35 68  1  0  0  0
 36 56  1  0  0  0
 36108  1  0  0  0
 37 39  1  0  0  0
 37 47  1  0  0  0
 37 66  1  0  0  0
 37109  1  0  0  0
 38 43  2  0  0  0
 38 46  1  0  0  0
 38 47  1  0  0  0
 39 64  1  0  0  0
 39 67  2  0  0  0
 40 52  1  0  0  0
 40 53  2  0  0  0
 40 58  1  0  0  0
 41110  1  0  0  0
 41111  1  0  0  0
 41112  1  0  0  0
 41 48  1  0  0  0
 42 43  1  0  0  0
 42 66  1  0  0  0
 42113  1  0  0  0
 42114  1  0  0  0
 43 44  1  0  0  0
 44115  1  0  0  0
 45 46  2  0  0  0
 45116  1  0  0  0
 46117  1  0  0  0
 47118  1  0  0  0
 47119  1  0  0  0
 48 56  1  0  0  0
 48 65  1  0  0  0
 48120  1  0  0  0
 49 50  1  0  0  0
 49 53  1  0  0  0
 49 64  1  0  0  0
 49121  1  0  0  0
 50 51  1  0  0  0
 50122  1  0  0  0
 50123  1  0  0  0
 51 52  1  0  0  0
 51124  1  0  0  0
 51125  1  0  0  0
 52126  1  0  0  0
 52127  1  0  0  0
 53 54  1  0  0  0
 54 55  2  0  0  0
 54128  1  0  0  0
 55 57  1  0  0  0
 55129  1  0  0  0
 56 69  2  0  0  0
 57 58  2  0  0  0
 57130  1  0  0  0
 58131  1  0  0  0
 59 60  1  0  0  0
 59 61  1  0  0  0
 59 62  1  0  0  0
 60132  1  0  0  0
 60133  1  0  0  0
 60134  1  0  0  0
 61135  1  0  0  0
 61136  1  0  0  0
 61137  1  0  0  0
 62138  1  0  0  0
 62139  1  0  0  0
 62140  1  0  0  0
 63 65  1  0  0  0
 63141  1  0  0  0
 63142  1  0  0  0
 63143  1  0  0  0
 64144  1  0  0  0
 65145  1  0  0  0
 68 83  1  0  0  0
 71 72  2  0  0  0
 71 74  1  0  0  0
 71146  1  0  0  0
 72 75  1  0  0  0
 72147  1  0  0  0
 73 75  2  0  0  0
 73 76  1  0  0  0
 73148  1  0  0  0
 74 76  2  0  0  0
 74 81  1  0  0  0
 75 85  1  0  0  0
 76 84  1  0  0  0
 77 79  1  0  0  0
 77 81  1  0  0  0
 77149  1  0  0  0
 77150  1  0  0  0
 78 80  1  0  0  0
 78 81  1  0  0  0
 78151  1  0  0  0
 78152  1  0  0  0
 79 82  1  0  0  0
 79153  1  0  0  0
 79154  1  0  0  0
 80 82  1  0  0  0
 80155  1  0  0  0
 80156  1  0  0  0
 81157  1  0  0  0
 82 83  1  0  0  0
 82 86  1  0  0  0
 83158  1  0  0  0
 83159  1  0  0  0
 84160  1  0  0  0
 84161  1  0  0  0
 85162  1  0  0  0
 86163  1  0  0  0
M  ISO  4   1 100  68 101  83 101  85 100
M  END
> <chiral flag>
0

> <version>
0

> <s_m_source_file>
/data/baiqing/PycharmProjects/Reinvent-master-3.2/result/LINK_invent/BTK/process_docking_weight1_custom_product_contain_oxygen_bond_distance_aromatic_linkinvent_7_9_3/rearranged_h_0165.sdf

> <i_m_source_file_index>
27

> <r_mmod_Potential_Energy-OPLS-2005>
17.8869514465332

> <r_mmod_Stretch_Energy-OPLS-2005>
47.2341995239258

> <r_mmod_Bend_Energy-OPLS-2005>
111.245834350586

> <r_mmod_Torsional_Energy-OPLS-2005>
303.621551513672

> <r_mmod_Improper_Torsional_Energy-OPLS-2005>
8.39710140228271

> <r_mmod_Van_der_Waal_Energy-OPLS-2005>
145.4228515625

> <r_mmod_Electrostatic_Energy-OPLS-2005>
-389.259796142578

> <r_mmod_Solvation_Energy-OPLS-2005>
-225.983810424805

> <b_mmod_Minimization_Converged-OPLS-2005>
0

> <r_mmod_RMS_Derivative-OPLS-2005>
0.993390798568726

$$$$
27
                    3D
 Structure written by MMmdl.
158166  0  0  1  0            999 V2000
  -30.6651  -14.3985   20.6619 C   0  0  0  0  0  0
  -30.4341  -12.3009   19.3733 C   0  0  0  0  0  0
  -29.4748  -12.5150   18.1804 C   0  0  0  0  0  0
  -27.9975  -12.3650   18.6012 C   0  0  0  0  0  0
  -27.6617  -13.1743   19.8790 C   0  0  2  0  0  0
  -28.7040  -12.8606   20.9752 C   0  0  0  0  0  0
  -25.2607  -13.8104   20.5676 C   0  0  0  0  0  0
  -24.1853  -13.0398   20.9211 C   0  0  0  0  0  0
  -24.6367  -11.6875   20.8788 C   0  0  0  0  0  0
  -23.9025  -10.4288   21.0433 C   0  0  0  0  0  0
  -24.3595   -9.4221   21.9210 C   0  0  0  0  0  0
  -23.6277   -8.2244   22.0774 C   0  0  0  0  0  0
  -22.4256   -8.0288   21.3559 C   0  0  0  0  0  0
  -21.9899   -9.0256   20.4664 C   0  0  0  0  0  0
  -22.7208  -10.2141   20.3072 C   0  0  0  0  0  0
  -21.6833   -6.0746   22.5290 C   0  0  0  0  0  0
  -21.3981   -6.5652   23.8228 C   0  0  0  0  0  0
  -21.3648   -5.6793   24.9182 C   0  0  0  0  0  0
  -21.6043   -4.3059   24.7220 C   0  0  0  0  0  0
  -21.8821   -3.8161   23.4342 C   0  0  0  0  0  0
  -21.9198   -4.6979   22.3403 C   0  0  0  0  0  0
  -22.7891  -13.5262   21.1805 C   0  0  0  0  0  0
  -22.1668   -4.2177   21.0973 F   0  0  0  0  0  0
  -21.5638   -3.4552   25.7731 F   0  0  0  0  0  0
  -30.0307  -13.2199   20.4400 N   0  0  0  0  0  0
  -26.3002  -12.9199   20.3375 N   0  0  0  0  0  0
  -25.9276  -11.6396   20.5807 N   0  0  0  0  0  0
  -22.0454  -12.8338   22.0353 N   0  0  0  0  0  0
  -25.4302  -15.1812   20.4024 N   0  0  0  0  0  0
  -31.7756  -14.6891   20.2033 O   0  0  0  0  0  0
  -21.6624   -6.8882   21.4241 O   0  0  0  0  0  0
  -22.3657  -14.5572   20.6596 O   0  0  0  0  0  0
  -24.6073  -31.8735   23.2011 C   0  0  0  0  0  0
  -25.8987  -32.4883   23.8300 C   0  0  1  0  0  0
  -27.2418  -27.4802   20.0822 C   0  0  0  0  0  0
  -25.5828  -33.8673   24.2241 N   0  0  0  0  0  0
  -23.3899  -30.4874   21.5510 C   0  0  2  0  0  0
  -24.8358  -28.9552   20.1099 C   0  0  0  0  0  0
  -22.7369  -29.4655   22.5064 C   0  0  0  0  0  0
  -18.0275  -28.1430   22.8509 C   0  0  0  0  0  0
  -24.1491  -36.7378   23.2637 C   0  0  0  0  0  0
  -25.9128  -30.8521   21.3431 C   0  0  0  0  0  0
  -25.9895  -29.4841   20.7022 C   0  0  0  0  0  0
  -27.1912  -28.7516   20.6855 C   0  0  0  0  0  0
  -26.0760  -26.9550   19.4791 C   0  0  0  0  0  0
  -24.8734  -27.6897   19.4905 C   0  0  0  0  0  0
  -23.5879  -29.8055   20.1690 C   0  0  0  0  0  0
  -25.4120  -36.3152   24.0318 C   0  0  1  0  0  0
  -20.5845  -28.3639   23.1378 C   0  0  2  0  0  0
  -20.6748  -26.9393   22.5421 C   0  0  0  0  0  0
  -19.5695  -26.6402   21.5217 C   0  0  0  0  0  0
  -18.1893  -26.7966   22.1672 C   0  0  0  0  0  0
  -19.1538  -28.8837   23.2955 C   0  0  0  0  0  0
  -18.9522  -30.1457   23.8987 C   0  0  0  0  0  0
  -17.6524  -30.6596   24.0649 C   0  0  0  0  0  0
  -25.9032  -34.9514   23.5091 C   0  0  0  0  0  0
  -16.5402  -29.9122   23.6397 C   0  0  0  0  0  0
  -16.7281  -28.6567   23.0368 C   0  0  0  0  0  0
  -26.4377  -31.6667   25.0653 C   0  0  0  0  0  0
  -25.3574  -31.3832   26.1367 C   0  0  0  0  0  0
  -27.0228  -30.3106   24.6047 C   0  0  0  0  0  0
  -27.5946  -32.4374   25.7446 C   0  0  0  0  0  0
  -27.5593  -37.1849   24.8453 C   0  0  0  0  0  0
  -21.4093  -29.3024   22.3804 N   0  0  0  0  0  0
  -26.4323  -37.3821   23.9376 N   0  0  0  0  0  0
  -24.6556  -31.0844   22.0908 N   0  0  0  0  0  0
  -23.4174  -28.8188   23.3071 O   0  0  0  0  0  0
  -28.4491  -26.8256   20.0825 O   0  0  0  0  0  0
  -26.5630  -34.8957   22.4678 O   0  0  0  0  0  0
  -23.5270  -32.1468   23.7434 O   0  0  0  0  0  0
  -29.4021  -17.6327   21.4689 C   0  0  0  0  0  0
  -30.5421  -19.0321   23.1089 C   0  0  0  0  0  0
  -31.1532  -16.6790   22.8844 C   0  0  0  0  0  0
  -29.5911  -18.8925   22.0754 C   0  0  0  0  0  0
  -30.1936  -16.5330   21.8582 C   0  0  0  0  0  0
  -31.3172  -17.9291   23.5154 C   0  0  0  0  0  0
  -28.8131  -20.0563   21.6572 C   0  0  0  0  0  0
  -29.9909  -23.5159   20.8521 C   0  0  0  0  0  0
  -29.7054  -25.0096   20.8691 C   0  0  0  0  0  0
  -28.8619  -22.5583   21.2299 C   0  0  0  0  0  0
  -28.4536  -25.4048   20.0738 C   0  0  0  0  0  0
  -29.8807  -15.2720   21.3104 N   0  0  0  0  0  0
  -29.4249  -21.2343   21.5276 N   0  0  0  0  0  0
  -27.5075  -19.9656   21.4103 N   0  3  0  0  0  0
  -31.1242  -23.0853   20.6024 O   0  0  0  0  0  0
  -32.1994  -18.0623   24.5344 F   0  0  0  0  0  0
  -31.4693  -12.4668   19.0672 H   0  0  0  0  0  0
  -30.3873  -11.2676   19.7221 H   0  0  0  0  0  0
  -29.7031  -11.8009   17.3893 H   0  0  0  0  0  0
  -29.6285  -13.5075   17.7526 H   0  0  0  0  0  0
  -27.8068  -11.3056   18.7735 H   0  0  0  0  0  0
  -27.3361  -12.6661   17.7880 H   0  0  0  0  0  0
  -27.7320  -14.2294   19.6170 H   0  0  0  0  0  0
  -28.6907  -11.7948   21.2085 H   0  0  0  0  0  0
  -28.4530  -13.3418   21.9214 H   0  0  0  0  0  0
  -25.2736   -9.5704   22.4810 H   0  0  0  0  0  0
  -24.0006   -7.4634   22.7506 H   0  0  0  0  0  0
  -21.0832   -8.8738   19.8988 H   0  0  0  0  0  0
  -22.3646  -10.9672   19.6202 H   0  0  0  0  0  0
  -21.1925   -7.6156   23.9728 H   0  0  0  0  0  0
  -21.1464   -6.0523   25.9085 H   0  0  0  0  0  0
  -22.0607   -2.7634   23.2814 H   0  0  0  0  0  0
  -22.4003  -12.0068   22.4919 H   0  0  0  0  0  0
  -21.1051  -13.1438   22.2388 H   0  0  0  0  0  0
  -24.6248  -15.7972   20.4288 H   0  0  0  0  0  0
  -26.2447  -15.6143   19.9856 H   0  0  0  0  0  0
  -26.7094  -32.5603   23.1116 H   0  0  0  0  0  0
  -24.9912  -33.9842   25.0320 H   0  0  0  0  0  0
  -22.6721  -31.2995   21.4087 H   0  0  0  0  0  0
  -23.3736  -35.9734   23.3326 H   0  0  0  0  0  0
  -24.3559  -36.8980   22.2040 H   0  0  0  0  0  0
  -23.7262  -37.6594   23.6647 H   0  0  0  0  0  0
  -26.0042  -31.6081   20.5595 H   0  0  0  0  0  0
  -26.8065  -30.9200   21.9510 H   0  0  0  0  0  0
  -28.0860  -29.1589   21.1302 H   0  0  0  0  0  0
  -26.0966  -25.9979   18.9759 H   0  0  0  0  0  0
  -23.9936  -27.2875   19.0108 H   0  0  0  0  0  0
  -23.6610  -30.5680   19.3925 H   0  0  0  0  0  0
  -22.7179  -29.1988   19.9052 H   0  0  0  0  0  0
  -25.1315  -36.2026   25.0816 H   0  0  0  0  0  0
  -20.9976  -28.3171   24.1488 H   0  0  0  0  0  0
  -20.5567  -26.2277   23.3604 H   0  0  0  0  0  0
  -21.6670  -26.7488   22.1283 H   0  0  0  0  0  0
  -19.6816  -25.6287   21.1285 H   0  0  0  0  0  0
  -19.6598  -27.3224   20.6723 H   0  0  0  0  0  0
  -17.4115  -26.6731   21.4122 H   0  0  0  0  0  0
  -18.0246  -26.0168   22.9124 H   0  0  0  0  0  0
  -19.8015  -30.7253   24.2401 H   0  0  0  0  0  0
  -17.5116  -31.6272   24.5255 H   0  0  0  0  0  0
  -15.5414  -30.3063   23.7688 H   0  0  0  0  0  0
  -15.8665  -28.0877   22.7077 H   0  0  0  0  0  0
  -24.5719  -30.7255   25.7650 H   0  0  0  0  0  0
  -24.8806  -32.3026   26.4742 H   0  0  0  0  0  0
  -25.7821  -30.8984   27.0157 H   0  0  0  0  0  0
  -26.2824  -29.6914   24.0999 H   0  0  0  0  0  0
  -27.3871  -29.7328   25.4550 H   0  0  0  0  0  0
  -27.8665  -30.4448   23.9296 H   0  0  0  0  0  0
  -27.2555  -33.3653   26.2061 H   0  0  0  0  0  0
  -28.3734  -32.6986   25.0275 H   0  0  0  0  0  0
  -28.0634  -31.8474   26.5317 H   0  0  0  0  0  0
  -28.2656  -38.0112   24.7492 H   0  0  0  0  0  0
  -28.1060  -36.2650   24.6316 H   0  0  0  0  0  0
  -27.2319  -37.1550   25.8862 H   0  0  0  0  0  0
  -20.9213  -29.8843   21.7146 H   0  0  0  0  0  0
  -26.0236  -38.2951   24.1230 H   0  0  0  0  0  0
  -28.6637  -17.5030   20.6893 H   0  0  0  0  0  0
  -30.6683  -19.9844   23.6086 H   0  0  0  0  0  0
  -31.7271  -15.8333   23.2326 H   0  0  0  0  0  0
  -30.5749  -25.5194   20.4558 H   0  0  0  0  0  0
  -29.6054  -25.3351   21.9026 H   0  0  0  0  0  0
  -28.1428  -22.5122   20.4120 H   0  0  0  0  0  0
  -28.3356  -22.9465   22.1042 H   0  0  0  0  0  0
  -27.5639  -24.9895   20.5503 H   0  0  0  0  0  0
  -28.4861  -25.0372   19.0486 H   0  0  0  0  0  0
  -28.9311  -14.9609   21.4373 H   0  0  0  0  0  0
  -30.4411  -21.2496   21.5570 H   0  0  0  0  0  0
  -27.0291  -19.0890   21.5593 H   0  0  0  0  0  0
  -26.9706  -20.7422   21.0656 H   0  0  0  0  0  0
  1 25  1  0  0  0
  1 30  2  0  0  0
  1 82  1  0  0  0
  2  3  1  0  0  0
  2 25  1  0  0  0
  2 87  1  0  0  0
  2 88  1  0  0  0
  3  4  1  0  0  0
  3 89  1  0  0  0
  3 90  1  0  0  0
  4  5  1  0  0  0
  4 91  1  0  0  0
  4 92  1  0  0  0
  5  6  1  0  0  0
  5 26  1  0  0  0
  5 93  1  0  0  0
  6 25  1  0  0  0
  6 94  1  0  0  0
  6 95  1  0  0  0
  7  8  2  0  0  0
  7 26  1  0  0  0
  7 29  1  0  0  0
  8  9  1  0  0  0
  8 22  1  0  0  0
  9 10  1  0  0  0
  9 27  2  0  0  0
 10 11  2  0  0  0
 10 15  1  0  0  0
 11 12  1  0  0  0
 11 96  1  0  0  0
 12 13  2  0  0  0
 12 97  1  0  0  0
 13 14  1  0  0  0
 13 31  1  0  0  0
 14 15  2  0  0  0
 14 98  1  0  0  0
 15 99  1  0  0  0
 16 17  2  0  0  0
 16 21  1  0  0  0
 16 31  1  0  0  0
 17 18  1  0  0  0
 17100  1  0  0  0
 18 19  2  0  0  0
 18101  1  0  0  0
 19 20  1  0  0  0
 19 24  1  0  0  0
 20 21  2  0  0  0
 20102  1  0  0  0
 21 23  1  0  0  0
 22 28  1  0  0  0
 22 32  2  0  0  0
 26 27  1  0  0  0
 28103  1  0  0  0
 28104  1  0  0  0
 29105  1  0  0  0
 29106  1  0  0  0
 33 34  1  0  0  0
 33 66  1  0  0  0
 33 70  2  0  0  0
 34 36  1  0  0  0
 34 59  1  0  0  0
 34107  1  0  0  0
 35 44  2  0  0  0
 35 45  1  0  0  0
 35 68  1  0  0  0
 36 56  1  0  0  0
 36108  1  0  0  0
 37 39  1  0  0  0
 37 47  1  0  0  0
 37 66  1  0  0  0
 37109  1  0  0  0
 38 43  2  0  0  0
 38 46  1  0  0  0
 38 47  1  0  0  0
 39 64  1  0  0  0
 39 67  2  0  0  0
 40 52  1  0  0  0
 40 53  2  0  0  0
 40 58  1  0  0  0
 41110  1  0  0  0
 41111  1  0  0  0
 41112  1  0  0  0
 41 48  1  0  0  0
 42 43  1  0  0  0
 42 66  1  0  0  0
 42113  1  0  0  0
 42114  1  0  0  0
 43 44  1  0  0  0
 44115  1  0  0  0
 45 46  2  0  0  0
 45116  1  0  0  0
 46117  1  0  0  0
 47118  1  0  0  0
 47119  1  0  0  0
 48 56  1  0  0  0
 48 65  1  0  0  0
 48120  1  0  0  0
 49 50  1  0  0  0
 49 53  1  0  0  0
 49 64  1  0  0  0
 49121  1  0  0  0
 50 51  1  0  0  0
 50122  1  0  0  0
 50123  1  0  0  0
 51 52  1  0  0  0
 51124  1  0  0  0
 51125  1  0  0  0
 52126  1  0  0  0
 52127  1  0  0  0
 53 54  1  0  0  0
 54 55  2  0  0  0
 54128  1  0  0  0
 55 57  1  0  0  0
 55129  1  0  0  0
 56 69  2  0  0  0
 57 58  2  0  0  0
 57130  1  0  0  0
 58131  1  0  0  0
 59 60  1  0  0  0
 59 61  1  0  0  0
 59 62  1  0  0  0
 60132  1  0  0  0
 60133  1  0  0  0
 60134  1  0  0  0
 61135  1  0  0  0
 61136  1  0  0  0
 61137  1  0  0  0
 62138  1  0  0  0
 62139  1  0  0  0
 62140  1  0  0  0
 63 65  1  0  0  0
 63141  1  0  0  0
 63142  1  0  0  0
 63143  1  0  0  0
 64144  1  0  0  0
 65145  1  0  0  0
 68 81  1  0  0  0
 71 74  2  0  0  0
 71 75  1  0  0  0
 71146  1  0  0  0
 72 74  1  0  0  0
 72 76  2  0  0  0
 72147  1  0  0  0
 73 75  2  0  0  0
 73 76  1  0  0  0
 73148  1  0  0  0
 74 77  1  0  0  0
 75 82  1  0  0  0
 76 86  1  0  0  0
 77 83  1  0  0  0
 77 84  2  0  0  0
 78 79  1  0  0  0
 78 80  1  0  0  0
 78 85  2  0  0  0
 79 81  1  0  0  0
 79149  1  0  0  0
 79150  1  0  0  0
 80 83  1  0  0  0
 80151  1  0  0  0
 80152  1  0  0  0
 81153  1  0  0  0
 81154  1  0  0  0
 82155  1  0  0  0
 83156  1  0  0  0
 84157  1  0  0  0
 84158  1  0  0  0
M  CHG  1  84   1
M  ISO  4   1 100  68 101  81 101  82 100
M  END
> <chiral flag>
0

> <version>
0

> <s_m_source_file>
/data/baiqing/PycharmProjects/Reinvent-master-3.2/result/LINK_invent/BTK/process_docking_weight1_custom_product_contain_oxygen_bond_distance_aromatic_linkinvent_7_9_3/rearranged_h_0165.sdf

> <i_m_source_file_index>
28

> <r_mmod_Potential_Energy-OPLS-2005>
-423.990875244141

> <r_mmod_Stretch_Energy-OPLS-2005>
30.6756038665771

> <r_mmod_Bend_Energy-OPLS-2005>
99.3692779541016

> <r_mmod_Torsional_Energy-OPLS-2005>
236.209335327148

> <r_mmod_Improper_Torsional_Energy-OPLS-2005>
5.17638349533081

> <r_mmod_Van_der_Waal_Energy-OPLS-2005>
160.43815612793

> <r_mmod_Electrostatic_Energy-OPLS-2005>
-518.351501464844

> <r_mmod_Solvation_Energy-OPLS-2005>
-450.399169921875

> <b_mmod_Minimization_Converged-OPLS-2005>
0

> <r_mmod_RMS_Derivative-OPLS-2005>
5.6131796836853

$$$$
28
                    3D
 Structure written by MMmdl.
149157  0  0  1  0            999 V2000
  -30.6769  -14.5285   20.5296 C   0  0  0  0  0  0
  -30.4356  -12.3254   19.4256 C   0  0  0  0  0  0
  -29.5046  -12.4831   18.2047 C   0  0  0  0  0  0
  -28.0226  -12.3518   18.6156 C   0  0  0  0  0  0
  -27.6590  -13.2067   19.8610 C   0  0  2  0  0  0
  -28.7083  -13.0287   20.9823 C   0  0  0  0  0  0
  -25.2586  -13.8133   20.5650 C   0  0  0  0  0  0
  -24.1852  -13.0407   20.9180 C   0  0  0  0  0  0
  -24.6412  -11.6885   20.8740 C   0  0  0  0  0  0
  -23.9082  -10.4277   21.0397 C   0  0  0  0  0  0
  -24.3613   -9.4204   21.9192 C   0  0  0  0  0  0
  -23.6273   -8.2248   22.0787 C   0  0  0  0  0  0
  -22.4269   -8.0285   21.3570 C   0  0  0  0  0  0
  -21.9902   -9.0264   20.4681 C   0  0  0  0  0  0
  -22.7240  -10.2139   20.3071 C   0  0  0  0  0  0
  -21.6855   -6.0728   22.5290 C   0  0  0  0  0  0
  -21.4025   -6.5629   23.8228 C   0  0  0  0  0  0
  -21.3645   -5.6775   24.9172 C   0  0  0  0  0  0
  -21.6038   -4.3040   24.7230 C   0  0  0  0  0  0
  -21.8811   -3.8147   23.4349 C   0  0  0  0  0  0
  -21.9189   -4.6956   22.3407 C   0  0  0  0  0  0
  -22.7869  -13.5234   21.1763 C   0  0  0  0  0  0
  -22.1666   -4.2144   21.0980 F   0  0  0  0  0  0
  -21.5605   -3.4524   25.7738 F   0  0  0  0  0  0
  -30.0252  -13.3371   20.4103 N   0  0  0  0  0  0
  -26.3034  -12.9302   20.3311 N   0  0  0  0  0  0
  -25.9344  -11.6464   20.5753 N   0  0  0  0  0  0
  -22.0492  -12.8321   22.0358 N   0  0  0  0  0  0
  -25.4206  -15.1859   20.4054 N   0  0  0  0  0  0
  -31.8586  -14.6766   20.2115 O   0  0  0  0  0  0
  -21.6626   -6.8884   21.4270 O   0  0  0  0  0  0
  -22.3589  -14.5538   20.6569 O   0  0  0  0  0  0
  -24.6195  -31.8605   23.2051 C   0  0  0  0  0  0
  -25.9058  -32.4793   23.8372 C   0  0  1  0  0  0
  -27.2447  -27.3797   20.1249 C   0  0  0  0  0  0
  -25.5906  -33.8592   24.2331 N   0  0  0  0  0  0
  -23.4153  -30.4851   21.5433 C   0  0  2  0  0  0
  -24.8635  -28.9457   20.1134 C   0  0  0  0  0  0
  -22.7451  -29.4634   22.4914 C   0  0  0  0  0  0
  -18.0284  -28.1373   22.8495 C   0  0  0  0  0  0
  -24.1484  -36.7289   23.2649 C   0  0  0  0  0  0
  -25.9494  -30.8115   21.3690 C   0  0  0  0  0  0
  -26.0232  -29.4436   20.7154 C   0  0  0  0  0  0
  -27.2147  -28.6742   20.7131 C   0  0  0  0  0  0
  -26.0631  -26.9169   19.4968 C   0  0  0  0  0  0
  -24.8835  -27.6847   19.4941 C   0  0  0  0  0  0
  -23.6290  -29.8182   20.1568 C   0  0  0  0  0  0
  -25.4104  -36.3109   24.0372 C   0  0  1  0  0  0
  -20.5902  -28.3674   23.1281 C   0  0  2  0  0  0
  -20.6780  -26.9406   22.5390 C   0  0  0  0  0  0
  -19.5748  -26.6392   21.5198 C   0  0  0  0  0  0
  -18.1937  -26.7927   22.1615 C   0  0  0  0  0  0
  -19.1545  -28.8840   23.2903 C   0  0  0  0  0  0
  -18.9473  -30.1442   23.8922 C   0  0  0  0  0  0
  -17.6474  -30.6589   24.0577 C   0  0  0  0  0  0
  -25.9023  -34.9467   23.5140 C   0  0  0  0  0  0
  -16.5363  -29.9089   23.6341 C   0  0  0  0  0  0
  -16.7276  -28.6496   23.0383 C   0  0  0  0  0  0
  -26.4490  -31.6594   25.0730 C   0  0  0  0  0  0
  -25.3807  -31.3700   26.1529 C   0  0  0  0  0  0
  -27.0291  -30.3027   24.6100 C   0  0  0  0  0  0
  -27.6038  -32.4348   25.7493 C   0  0  0  0  0  0
  -27.5586  -37.1797   24.8491 C   0  0  0  0  0  0
  -21.4175  -29.3043   22.3681 N   0  0  0  0  0  0
  -26.4287  -37.3789   23.9442 N   0  0  0  0  0  0
  -24.6803  -31.0714   22.0954 N   0  0  0  0  0  0
  -23.4187  -28.8156   23.2985 O   0  0  0  0  0  0
  -28.3975  -26.5964   20.1956 O   0  0  0  0  0  0
  -26.5576  -34.8914   22.4688 O   0  0  0  0  0  0
  -23.5383  -32.1330   23.7431 O   0  0  0  0  0  0
  -31.2287  -17.4425   21.7710 C   0  0  0  0  0  0
  -30.2495  -16.8899   20.9788 C   0  0  0  0  0  0
  -30.1416  -19.0925   20.8455 C   0  0  0  0  0  0
  -29.3635  -24.2632   20.5577 C   0  0  0  0  0  0
  -29.8834  -21.6204   20.8781 C   0  0  0  0  0  0
  -28.2426  -25.1650   19.9607 C   0  0  0  0  0  0
  -29.5082  -22.8254   19.9368 C   0  0  0  0  0  0
  -31.1544  -18.8355   21.6788 N   0  0  0  0  0  0
  -29.8724  -15.5999   20.7246 N   0  0  0  0  0  0
  -29.7667  -20.3791   20.3315 N   0  0  0  0  0  0
  -30.1391  -24.7139   21.4139 O   0  0  0  0  0  0
  -30.2333  -21.7912   22.0502 O   0  0  0  0  0  0
  -29.5476  -17.9380   20.3971 O   0  0  0  0  0  0
  -28.3636  -22.4965   19.3334 F   0  0  0  0  0  0
  -30.4447  -22.8893   18.9887 F   0  0  0  0  0  0
  -31.4787  -12.4344   19.1248 H   0  0  0  0  0  0
  -30.3456  -11.3250   19.8546 H   0  0  0  0  0  0
  -29.7481  -11.7337   17.4495 H   0  0  0  0  0  0
  -29.6709  -13.4537   17.7367 H   0  0  0  0  0  0
  -27.8393  -11.2982   18.8301 H   0  0  0  0  0  0
  -27.3700  -12.6075   17.7775 H   0  0  0  0  0  0
  -27.6851  -14.2469   19.5369 H   0  0  0  0  0  0
  -28.7021  -12.0011   21.3533 H   0  0  0  0  0  0
  -28.4738  -13.6666   21.8361 H   0  0  0  0  0  0
  -25.2763   -9.5651   22.4759 H   0  0  0  0  0  0
  -23.9953   -7.4643   22.7541 H   0  0  0  0  0  0
  -21.0796   -8.8778   19.9028 H   0  0  0  0  0  0
  -22.3684  -10.9651   19.6168 H   0  0  0  0  0  0
  -21.2054   -7.6142   23.9731 H   0  0  0  0  0  0
  -21.1466   -6.0505   25.9068 H   0  0  0  0  0  0
  -22.0611   -2.7611   23.2845 H   0  0  0  0  0  0
  -22.4028  -11.9976   22.4777 H   0  0  0  0  0  0
  -21.1142  -13.1465   22.2533 H   0  0  0  0  0  0
  -24.6359  -15.8192   20.5104 H   0  0  0  0  0  0
  -26.2408  -15.6445   20.0320 H   0  0  0  0  0  0
  -26.7118  -32.5493   23.1120 H   0  0  0  0  0  0
  -25.0213  -33.9748   25.0587 H   0  0  0  0  0  0
  -22.7096  -31.3066   21.3982 H   0  0  0  0  0  0
  -23.3751  -35.9612   23.3322 H   0  0  0  0  0  0
  -24.3587  -36.8868   22.2057 H   0  0  0  0  0  0
  -23.7194  -37.6491   23.6609 H   0  0  0  0  0  0
  -26.0848  -31.5716   20.5985 H   0  0  0  0  0  0
  -26.8278  -30.8534   21.9996 H   0  0  0  0  0  0
  -28.1048  -29.0591   21.1888 H   0  0  0  0  0  0
  -26.0252  -25.9546   19.0062 H   0  0  0  0  0  0
  -23.9982  -27.2987   19.0119 H   0  0  0  0  0  0
  -23.7468  -30.5912   19.3967 H   0  0  0  0  0  0
  -22.7544  -29.2378   19.8528 H   0  0  0  0  0  0
  -25.1252  -36.1982   25.0865 H   0  0  0  0  0  0
  -21.0010  -28.3223   24.1389 H   0  0  0  0  0  0
  -20.5699  -26.2277   23.3568 H   0  0  0  0  0  0
  -21.6650  -26.7439   22.1177 H   0  0  0  0  0  0
  -19.6935  -25.6311   21.1207 H   0  0  0  0  0  0
  -19.6708  -27.3221   20.6735 H   0  0  0  0  0  0
  -17.4221  -26.6707   21.4010 H   0  0  0  0  0  0
  -18.0335  -26.0056   22.8983 H   0  0  0  0  0  0
  -19.7952  -30.7251   24.2304 H   0  0  0  0  0  0
  -17.5033  -31.6271   24.5160 H   0  0  0  0  0  0
  -15.5374  -30.3005   23.7639 H   0  0  0  0  0  0
  -15.8675  -28.0806   22.7111 H   0  0  0  0  0  0
  -24.5978  -30.7019   25.7946 H   0  0  0  0  0  0
  -24.9024  -32.2849   26.5024 H   0  0  0  0  0  0
  -25.8253  -30.8892   27.0259 H   0  0  0  0  0  0
  -26.2787  -29.6837   24.1158 H   0  0  0  0  0  0
  -27.4063  -29.7227   25.4541 H   0  0  0  0  0  0
  -27.8649  -30.4370   23.9224 H   0  0  0  0  0  0
  -27.2590  -33.3636   26.2054 H   0  0  0  0  0  0
  -28.3814  -32.6945   25.0302 H   0  0  0  0  0  0
  -28.0710  -31.8501   26.5428 H   0  0  0  0  0  0
  -28.2608  -38.0100   24.7526 H   0  0  0  0  0  0
  -28.1067  -36.2616   24.6289 H   0  0  0  0  0  0
  -27.2309  -37.1421   25.8902 H   0  0  0  0  0  0
  -20.9334  -29.8771   21.6919 H   0  0  0  0  0  0
  -26.0192  -38.2874   24.1443 H   0  0  0  0  0  0
  -31.9643  -16.9513   22.3985 H   0  0  0  0  0  0
  -27.3044  -24.8149   20.3950 H   0  0  0  0  0  0
  -28.1937  -24.9825   18.8878 H   0  0  0  0  0  0
  -28.8847  -15.4311   20.6125 H   0  0  0  0  0  0
  -29.3669  -20.3573   19.4050 H   0  0  0  0  0  0
  1 25  1  0  0  0
  1 30  2  0  0  0
  1 79  1  0  0  0
  2  3  1  0  0  0
  2 25  1  0  0  0
  2 86  1  0  0  0
  2 87  1  0  0  0
  3  4  1  0  0  0
  3 88  1  0  0  0
  3 89  1  0  0  0
  4  5  1  0  0  0
  4 90  1  0  0  0
  4 91  1  0  0  0
  5  6  1  0  0  0
  5 26  1  0  0  0
  5 92  1  0  0  0
  6 25  1  0  0  0
  6 93  1  0  0  0
  6 94  1  0  0  0
  7  8  2  0  0  0
  7 26  1  0  0  0
  7 29  1  0  0  0
  8  9  1  0  0  0
  8 22  1  0  0  0
  9 10  1  0  0  0
  9 27  2  0  0  0
 10 11  2  0  0  0
 10 15  1  0  0  0
 11 12  1  0  0  0
 11 95  1  0  0  0
 12 13  2  0  0  0
 12 96  1  0  0  0
 13 14  1  0  0  0
 13 31  1  0  0  0
 14 15  2  0  0  0
 14 97  1  0  0  0
 15 98  1  0  0  0
 16 17  2  0  0  0
 16 21  1  0  0  0
 16 31  1  0  0  0
 17 18  1  0  0  0
 17 99  1  0  0  0
 18 19  2  0  0  0
 18100  1  0  0  0
 19 20  1  0  0  0
 19 24  1  0  0  0
 20 21  2  0  0  0
 20101  1  0  0  0
 21 23  1  0  0  0
 22 28  1  0  0  0
 22 32  2  0  0  0
 26 27  1  0  0  0
 28102  1  0  0  0
 28103  1  0  0  0
 29104  1  0  0  0
 29105  1  0  0  0
 33 34  1  0  0  0
 33 66  1  0  0  0
 33 70  2  0  0  0
 34 36  1  0  0  0
 34 59  1  0  0  0
 34106  1  0  0  0
 35 44  2  0  0  0
 35 45  1  0  0  0
 35 68  1  0  0  0
 36 56  1  0  0  0
 36107  1  0  0  0
 37 39  1  0  0  0
 37 47  1  0  0  0
 37 66  1  0  0  0
 37108  1  0  0  0
 38 43  2  0  0  0
 38 46  1  0  0  0
 38 47  1  0  0  0
 39 64  1  0  0  0
 39 67  2  0  0  0
 40 52  1  0  0  0
 40 53  2  0  0  0
 40 58  1  0  0  0
 41109  1  0  0  0
 41110  1  0  0  0
 41111  1  0  0  0
 41 48  1  0  0  0
 42 43  1  0  0  0
 42 66  1  0  0  0
 42112  1  0  0  0
 42113  1  0  0  0
 43 44  1  0  0  0
 44114  1  0  0  0
 45 46  2  0  0  0
 45115  1  0  0  0
 46116  1  0  0  0
 47117  1  0  0  0
 47118  1  0  0  0
 48 56  1  0  0  0
 48 65  1  0  0  0
 48119  1  0  0  0
 49 50  1  0  0  0
 49 53  1  0  0  0
 49 64  1  0  0  0
 49120  1  0  0  0
 50 51  1  0  0  0
 50121  1  0  0  0
 50122  1  0  0  0
 51 52  1  0  0  0
 51123  1  0  0  0
 51124  1  0  0  0
 52125  1  0  0  0
 52126  1  0  0  0
 53 54  1  0  0  0
 54 55  2  0  0  0
 54127  1  0  0  0
 55 57  1  0  0  0
 55128  1  0  0  0
 56 69  2  0  0  0
 57 58  2  0  0  0
 57129  1  0  0  0
 58130  1  0  0  0
 59 60  1  0  0  0
 59 61  1  0  0  0
 59 62  1  0  0  0
 60131  1  0  0  0
 60132  1  0  0  0
 60133  1  0  0  0
 61134  1  0  0  0
 61135  1  0  0  0
 61136  1  0  0  0
 62137  1  0  0  0
 62138  1  0  0  0
 62139  1  0  0  0
 63 65  1  0  0  0
 63140  1  0  0  0
 63141  1  0  0  0
 63142  1  0  0  0
 64143  1  0  0  0
 65144  1  0  0  0
 68 76  1  0  0  0
 71 72  2  0  0  0
 71 78  1  0  0  0
 71145  1  0  0  0
 72 79  1  0  0  0
 72 83  1  0  0  0
 73 78  2  0  0  0
 73 80  1  0  0  0
 73 83  1  0  0  0
 74 76  1  0  0  0
 74 77  1  0  0  0
 74 81  2  0  0  0
 75 77  1  0  0  0
 75 80  1  0  0  0
 75 82  2  0  0  0
 76146  1  0  0  0
 76147  1  0  0  0
 77 84  1  0  0  0
 77 85  1  0  0  0
 79148  1  0  0  0
 80149  1  0  0  0
M  ISO  4   1 100  68 101  76 101  79 100
M  END
> <chiral flag>
0

> <version>
0

> <s_m_source_file>
/data/baiqing/PycharmProjects/Reinvent-master-3.2/result/LINK_invent/BTK/process_docking_weight1_custom_product_contain_oxygen_bond_distance_aromatic_linkinvent_7_9_3/rearranged_h_0165.sdf

> <i_m_source_file_index>
29

> <r_mmod_Potential_Energy-OPLS-2005>
-44.0664901733398

> <r_mmod_Stretch_Energy-OPLS-2005>
51.8821067810059

> <r_mmod_Bend_Energy-OPLS-2005>
120.751754760742

> <r_mmod_Torsional_Energy-OPLS-2005>
248.564102172852

> <r_mmod_Improper_Torsional_Energy-OPLS-2005>
8.44379043579102

> <r_mmod_Van_der_Waal_Energy-OPLS-2005>
133.18212890625

> <r_mmod_Electrostatic_Energy-OPLS-2005>
-359.229278564453

> <r_mmod_Solvation_Energy-OPLS-2005>
-275.095031738281

> <b_mmod_Minimization_Converged-OPLS-2005>
0

> <r_mmod_RMS_Derivative-OPLS-2005>
5.46983194351196

$$$$
29
                    3D
 Structure written by MMmdl.
156164  0  0  1  0            999 V2000
  -30.7076  -14.4328   20.6423 C   0  0  0  0  0  0
  -30.4283  -12.3143   19.3916 C   0  0  0  0  0  0
  -29.4807  -12.5177   18.1907 C   0  0  0  0  0  0
  -28.0037  -12.3753   18.6109 C   0  0  0  0  0  0
  -27.6635  -13.1989   19.8814 C   0  0  2  0  0  0
  -28.7078  -12.9307   20.9868 C   0  0  0  0  0  0
  -25.2592  -13.8158   20.5686 C   0  0  0  0  0  0
  -24.1825  -13.0444   20.9163 C   0  0  0  0  0  0
  -24.6370  -11.6908   20.8718 C   0  0  0  0  0  0
  -23.9034  -10.4294   21.0368 C   0  0  0  0  0  0
  -24.3591   -9.4207   21.9149 C   0  0  0  0  0  0
  -23.6271   -8.2243   22.0728 C   0  0  0  0  0  0
  -22.4250   -8.0285   21.3536 C   0  0  0  0  0  0
  -21.9875   -9.0255   20.4633 C   0  0  0  0  0  0
  -22.7199  -10.2133   20.3032 C   0  0  0  0  0  0
  -21.6849   -6.0735   22.5284 C   0  0  0  0  0  0
  -21.4010   -6.5644   23.8220 C   0  0  0  0  0  0
  -21.3638   -5.6797   24.9185 C   0  0  0  0  0  0
  -21.6025   -4.3056   24.7232 C   0  0  0  0  0  0
  -21.8819   -3.8152   23.4357 C   0  0  0  0  0  0
  -21.9183   -4.6960   22.3408 C   0  0  0  0  0  0
  -22.7855  -13.5238   21.1831 C   0  0  0  0  0  0
  -22.1636   -4.2143   21.0977 F   0  0  0  0  0  0
  -21.5621   -3.4531   25.7738 F   0  0  0  0  0  0
  -30.0394  -13.2634   20.4442 N   0  0  0  0  0  0
  -26.3032  -12.9316   20.3432 N   0  0  0  0  0  0
  -25.9302  -11.6480   20.5781 N   0  0  0  0  0  0
  -22.0533  -12.8229   22.0402 N   0  0  0  0  0  0
  -25.4329  -15.1868   20.4065 N   0  0  0  0  0  0
  -31.7847  -14.6982   20.0972 O   0  0  0  0  0  0
  -21.6631   -6.8870   21.4240 O   0  0  0  0  0  0
  -22.3529  -14.5549   20.6672 O   0  0  0  0  0  0
  -24.6106  -31.8726   23.2096 C   0  0  0  0  0  0
  -25.9006  -32.4856   23.8400 C   0  0  1  0  0  0
  -27.2481  -27.4667   20.0947 C   0  0  0  0  0  0
  -25.5874  -33.8650   24.2335 N   0  0  0  0  0  0
  -23.3970  -30.4912   21.5531 C   0  0  2  0  0  0
  -24.8463  -28.9538   20.1210 C   0  0  0  0  0  0
  -22.7399  -29.4660   22.5038 C   0  0  0  0  0  0
  -18.0268  -28.1358   22.8511 C   0  0  0  0  0  0
  -24.1488  -36.7332   23.2630 C   0  0  0  0  0  0
  -25.9206  -30.8482   21.3533 C   0  0  0  0  0  0
  -26.0039  -29.4818   20.7068 C   0  0  0  0  0  0
  -27.2090  -28.7467   20.6862 C   0  0  0  0  0  0
  -26.0752  -26.9420   19.5087 C   0  0  0  0  0  0
  -24.8751  -27.6810   19.5210 C   0  0  0  0  0  0
  -23.6032  -29.8150   20.1706 C   0  0  0  0  0  0
  -25.4101  -36.3141   24.0345 C   0  0  1  0  0  0
  -20.5859  -28.3624   23.1351 C   0  0  2  0  0  0
  -20.6752  -26.9367   22.5426 C   0  0  0  0  0  0
  -19.5727  -26.6366   21.5221 C   0  0  0  0  0  0
  -18.1907  -26.7908   22.1633 C   0  0  0  0  0  0
  -19.1517  -28.8808   23.2928 C   0  0  0  0  0  0
  -18.9446  -30.1424   23.8918 C   0  0  0  0  0  0
  -17.6448  -30.6572   24.0556 C   0  0  0  0  0  0
  -25.9024  -34.9503   23.5142 C   0  0  0  0  0  0
  -16.5337  -29.9070   23.6318 C   0  0  0  0  0  0
  -16.7263  -28.6484   23.0350 C   0  0  0  0  0  0
  -26.4414  -31.6628   25.0724 C   0  0  0  0  0  0
  -25.3669  -31.3768   26.1473 C   0  0  0  0  0  0
  -27.0197  -30.3073   24.6052 C   0  0  0  0  0  0
  -27.6012  -32.4317   25.7479 C   0  0  0  0  0  0
  -27.5600  -37.1806   24.8445 C   0  0  0  0  0  0
  -21.4129  -29.3015   22.3783 N   0  0  0  0  0  0
  -26.4292  -37.3824   23.9426 N   0  0  0  0  0  0
  -24.6615  -31.0843   22.0978 N   0  0  0  0  0  0
  -23.4202  -28.8212   23.3060 O   0  0  0  0  0  0
  -28.4320  -26.7693   20.0729 O   0  0  0  0  0  0
  -26.5594  -34.8953   22.4706 O   0  0  0  0  0  0
  -23.5310  -32.1440   23.7524 O   0  0  0  0  0  0
  -30.9702  -16.5754   23.2982 C   0  0  0  0  0  0
  -31.4005  -17.7892   23.8671 C   0  0  0  0  0  0
  -30.5237  -17.7312   21.1870 C   0  0  0  0  0  0
  -30.5534  -16.5351   21.9512 C   0  0  0  0  0  0
  -30.9486  -18.9533   21.7656 C   0  0  0  0  0  0
  -31.3994  -18.9681   23.1031 C   0  0  0  0  0  0
  -29.6493  -22.2422   20.6507 C   0  0  0  0  0  0
  -28.7250  -24.3803   19.6032 C   0  0  0  0  0  0
  -28.4418  -22.9248   19.9938 C   0  0  0  0  0  0
  -29.6399  -20.7036   20.7024 C   0  0  0  0  0  0
  -28.3817  -25.4567   20.6412 C   0  0  0  0  0  0
  -30.0640  -15.3086   21.4341 N   0  0  0  0  0  0
  -30.9544  -20.1628   21.0530 N   0  0  0  0  0  0
  -30.5859  -22.8747   21.1575 O   0  0  0  0  0  0
  -29.1711  -24.6681   18.4855 O   0  0  0  0  0  0
  -31.8222  -20.1313   23.6540 F   0  0  0  0  0  0
  -31.4644  -12.4463   19.0749 H   0  0  0  0  0  0
  -30.3617  -11.2921   19.7664 H   0  0  0  0  0  0
  -29.7135  -11.8021   17.4017 H   0  0  0  0  0  0
  -29.6392  -13.5076   17.7597 H   0  0  0  0  0  0
  -27.8059  -11.3173   18.7899 H   0  0  0  0  0  0
  -27.3485  -12.6679   17.7886 H   0  0  0  0  0  0
  -27.7232  -14.2546   19.6146 H   0  0  0  0  0  0
  -28.6872  -11.8751   21.2638 H   0  0  0  0  0  0
  -28.4581  -13.4708   21.9009 H   0  0  0  0  0  0
  -25.2743   -9.5676   22.4720 H   0  0  0  0  0  0
  -23.9967   -7.4627   22.7455 H   0  0  0  0  0  0
  -21.0801   -8.8773   19.8959 H   0  0  0  0  0  0
  -22.3647  -10.9662   19.6125 H   0  0  0  0  0  0
  -21.2033   -7.6158   23.9711 H   0  0  0  0  0  0
  -21.1438   -6.0536   25.9084 H   0  0  0  0  0  0
  -22.0626   -2.7613   23.2868 H   0  0  0  0  0  0
  -22.4182  -11.9873   22.4735 H   0  0  0  0  0  0
  -21.1163  -13.1228   22.2679 H   0  0  0  0  0  0
  -24.6645  -15.8424   20.5065 H   0  0  0  0  0  0
  -26.2908  -15.6224   20.0910 H   0  0  0  0  0  0
  -26.7092  -32.5578   23.1187 H   0  0  0  0  0  0
  -25.0042  -33.9816   25.0494 H   0  0  0  0  0  0
  -22.6823  -31.3051   21.4135 H   0  0  0  0  0  0
  -23.3766  -35.9645   23.3266 H   0  0  0  0  0  0
  -24.3603  -36.8961   22.2049 H   0  0  0  0  0  0
  -23.7205  -37.6524   23.6639 H   0  0  0  0  0  0
  -26.0176  -31.6120   20.5806 H   0  0  0  0  0  0
  -26.8138  -30.9138   21.9628 H   0  0  0  0  0  0
  -28.1066  -29.1578   21.1273 H   0  0  0  0  0  0
  -26.0895  -25.9721   19.0324 H   0  0  0  0  0  0
  -23.9849  -27.2689   19.0664 H   0  0  0  0  0  0
  -23.7020  -30.5846   19.4042 H   0  0  0  0  0  0
  -22.7282  -29.2289   19.8829 H   0  0  0  0  0  0
  -25.1266  -36.2018   25.0837 H   0  0  0  0  0  0
  -20.9948  -28.3166   24.1474 H   0  0  0  0  0  0
  -20.5642  -26.2228   23.3602 H   0  0  0  0  0  0
  -21.6623  -26.7404   22.1224 H   0  0  0  0  0  0
  -19.6875  -25.6281   21.1232 H   0  0  0  0  0  0
  -19.6670  -27.3188   20.6760 H   0  0  0  0  0  0
  -17.4184  -26.6682   21.4027 H   0  0  0  0  0  0
  -18.0291  -26.0037   22.9011 H   0  0  0  0  0  0
  -19.7921  -30.7233   24.2300 H   0  0  0  0  0  0
  -17.5001  -31.6257   24.5140 H   0  0  0  0  0  0
  -15.5337  -30.2968   23.7623 H   0  0  0  0  0  0
  -15.8670  -28.0797   22.7053 H   0  0  0  0  0  0
  -24.5847  -30.7095   25.7832 H   0  0  0  0  0  0
  -24.8835  -32.2936   26.4868 H   0  0  0  0  0  0
  -25.8007  -30.8992   27.0266 H   0  0  0  0  0  0
  -26.2727  -29.6929   24.1010 H   0  0  0  0  0  0
  -27.3870  -29.7223   25.4491 H   0  0  0  0  0  0
  -27.8607  -30.4405   23.9242 H   0  0  0  0  0  0
  -27.2657  -33.3616   26.2087 H   0  0  0  0  0  0
  -28.3807  -32.6877   25.0291 H   0  0  0  0  0  0
  -28.0683  -31.8410   26.5370 H   0  0  0  0  0  0
  -28.2577  -38.0150   24.7589 H   0  0  0  0  0  0
  -28.1146  -36.2694   24.6142 H   0  0  0  0  0  0
  -27.2347  -37.1301   25.8853 H   0  0  0  0  0  0
  -20.9276  -29.8772   21.7042 H   0  0  0  0  0  0
  -26.0195  -38.2905   24.1462 H   0  0  0  0  0  0
  -30.9624  -15.6818   23.9069 H   0  0  0  0  0  0
  -31.7270  -17.8203   24.8960 H   0  0  0  0  0  0
  -30.1837  -17.7115   20.1617 H   0  0  0  0  0  0
  -27.6036  -22.9032   20.6886 H   0  0  0  0  0  0
  -28.1412  -22.3652   19.1094 H   0  0  0  0  0  0
  -29.3248  -20.3170   19.7327 H   0  0  0  0  0  0
  -28.8912  -20.3964   21.4346 H   0  0  0  0  0  0
  -29.1052  -25.4046   21.4552 H   0  0  0  0  0  0
  -27.4048  -25.2376   21.0732 H   0  0  0  0  0  0
  -29.2059  -14.9614   21.8345 H   0  0  0  0  0  0
  -31.4654  -20.8853   21.5615 H   0  0  0  0  0  0
  1 25  1  0  0  0
  1 30  2  0  0  0
  1 82  1  0  0  0
  2  3  1  0  0  0
  2 25  1  0  0  0
  2 87  1  0  0  0
  2 88  1  0  0  0
  3  4  1  0  0  0
  3 89  1  0  0  0
  3 90  1  0  0  0
  4  5  1  0  0  0
  4 91  1  0  0  0
  4 92  1  0  0  0
  5  6  1  0  0  0
  5 26  1  0  0  0
  5 93  1  0  0  0
  6 25  1  0  0  0
  6 94  1  0  0  0
  6 95  1  0  0  0
  7  8  2  0  0  0
  7 26  1  0  0  0
  7 29  1  0  0  0
  8  9  1  0  0  0
  8 22  1  0  0  0
  9 10  1  0  0  0
  9 27  2  0  0  0
 10 11  2  0  0  0
 10 15  1  0  0  0
 11 12  1  0  0  0
 11 96  1  0  0  0
 12 13  2  0  0  0
 12 97  1  0  0  0
 13 14  1  0  0  0
 13 31  1  0  0  0
 14 15  2  0  0  0
 14 98  1  0  0  0
 15 99  1  0  0  0
 16 17  2  0  0  0
 16 21  1  0  0  0
 16 31  1  0  0  0
 17 18  1  0  0  0
 17100  1  0  0  0
 18 19  2  0  0  0
 18101  1  0  0  0
 19 20  1  0  0  0
 19 24  1  0  0  0
 20 21  2  0  0  0
 20102  1  0  0  0
 21 23  1  0  0  0
 22 28  1  0  0  0
 22 32  2  0  0  0
 26 27  1  0  0  0
 28103  1  0  0  0
 28104  1  0  0  0
 29105  1  0  0  0
 29106  1  0  0  0
 33 34  1  0  0  0
 33 66  1  0  0  0
 33 70  2  0  0  0
 34 36  1  0  0  0
 34 59  1  0  0  0
 34107  1  0  0  0
 35 44  2  0  0  0
 35 45  1  0  0  0
 35 68  1  0  0  0
 36 56  1  0  0  0
 36108  1  0  0  0
 37 39  1  0  0  0
 37 47  1  0  0  0
 37 66  1  0  0  0
 37109  1  0  0  0
 38 43  2  0  0  0
 38 46  1  0  0  0
 38 47  1  0  0  0
 39 64  1  0  0  0
 39 67  2  0  0  0
 40 52  1  0  0  0
 40 53  2  0  0  0
 40 58  1  0  0  0
 41110  1  0  0  0
 41111  1  0  0  0
 41112  1  0  0  0
 41 48  1  0  0  0
 42 43  1  0  0  0
 42 66  1  0  0  0
 42113  1  0  0  0
 42114  1  0  0  0
 43 44  1  0  0  0
 44115  1  0  0  0
 45 46  2  0  0  0
 45116  1  0  0  0
 46117  1  0  0  0
 47118  1  0  0  0
 47119  1  0  0  0
 48 56  1  0  0  0
 48 65  1  0  0  0
 48120  1  0  0  0
 49 50  1  0  0  0
 49 53  1  0  0  0
 49 64  1  0  0  0
 49121  1  0  0  0
 50 51  1  0  0  0
 50122  1  0  0  0
 50123  1  0  0  0
 51 52  1  0  0  0
 51124  1  0  0  0
 51125  1  0  0  0
 52126  1  0  0  0
 52127  1  0  0  0
 53 54  1  0  0  0
 54 55  2  0  0  0
 54128  1  0  0  0
 55 57  1  0  0  0
 55129  1  0  0  0
 56 69  2  0  0  0
 57 58  2  0  0  0
 57130  1  0  0  0
 58131  1  0  0  0
 59 60  1  0  0  0
 59 61  1  0  0  0
 59 62  1  0  0  0
 60132  1  0  0  0
 60133  1  0  0  0
 60134  1  0  0  0
 61135  1  0  0  0
 61136  1  0  0  0
 61137  1  0  0  0
 62138  1  0  0  0
 62139  1  0  0  0
 62140  1  0  0  0
 63 65  1  0  0  0
 63141  1  0  0  0
 63142  1  0  0  0
 63143  1  0  0  0
 64144  1  0  0  0
 65145  1  0  0  0
 68 81  1  0  0  0
 71 72  2  0  0  0
 71 74  1  0  0  0
 71146  1  0  0  0
 72 76  1  0  0  0
 72147  1  0  0  0
 73 74  2  0  0  0
 73 75  1  0  0  0
 73148  1  0  0  0
 74 82  1  0  0  0
 75 76  2  0  0  0
 75 83  1  0  0  0
 76 86  1  0  0  0
 77 79  1  0  0  0
 77 80  1  0  0  0
 77 84  2  0  0  0
 78 79  1  0  0  0
 78 81  1  0  0  0
 78 85  2  0  0  0
 79149  1  0  0  0
 79150  1  0  0  0
 80 83  1  0  0  0
 80151  1  0  0  0
 80152  1  0  0  0
 81153  1  0  0  0
 81154  1  0  0  0
 82155  1  0  0  0
 83156  1  0  0  0
M  ISO  4   1 100  68 101  81 101  82 100
M  END
> <chiral flag>
0

> <version>
0

> <s_m_source_file>
/data/baiqing/PycharmProjects/Reinvent-master-3.2/result/LINK_invent/BTK/process_docking_weight1_custom_product_contain_oxygen_bond_distance_aromatic_linkinvent_7_9_3/rearranged_h_0165.sdf

> <i_m_source_file_index>
30

> <r_mmod_Potential_Energy-OPLS-2005>
-61.5410537719727

> <r_mmod_Stretch_Energy-OPLS-2005>
34.5590591430664

> <r_mmod_Bend_Energy-OPLS-2005>
91.0878829956055

> <r_mmod_Torsional_Energy-OPLS-2005>
261.35107421875

> <r_mmod_Improper_Torsional_Energy-OPLS-2005>
8.77453327178955

> <r_mmod_Van_der_Waal_Energy-OPLS-2005>
150.94303894043

> <r_mmod_Electrostatic_Energy-OPLS-2005>
-359.444030761719

> <r_mmod_Solvation_Energy-OPLS-2005>
-257.534912109375

> <b_mmod_Minimization_Converged-OPLS-2005>
0

> <r_mmod_RMS_Derivative-OPLS-2005>
2.42103147506714

$$$$
30
                    3D
 Structure written by MMmdl.
164173  0  0  1  0            999 V2000
  -30.6226  -14.6728   20.4556 C   0  0  0  0  0  0
  -30.4263  -12.4032   19.4759 C   0  0  0  0  0  0
  -29.5097  -12.5020   18.2351 C   0  0  0  0  0  0
  -28.0330  -12.3404   18.6427 C   0  0  0  0  0  0
  -27.6470  -13.2264   19.8578 C   0  0  2  0  0  0
  -28.6857  -13.1235   20.9962 C   0  0  0  0  0  0
  -25.2555  -13.8189   20.5715 C   0  0  0  0  0  0
  -24.1835  -13.0430   20.9220 C   0  0  0  0  0  0
  -24.6417  -11.6913   20.8752 C   0  0  0  0  0  0
  -23.9070  -10.4296   21.0421 C   0  0  0  0  0  0
  -24.3619   -9.4207   21.9201 C   0  0  0  0  0  0
  -23.6289   -8.2242   22.0763 C   0  0  0  0  0  0
  -22.4278   -8.0285   21.3542 C   0  0  0  0  0  0
  -21.9914   -9.0265   20.4649 C   0  0  0  0  0  0
  -22.7247  -10.2156   20.3066 C   0  0  0  0  0  0
  -21.6848   -6.0732   22.5275 C   0  0  0  0  0  0
  -21.4005   -6.5636   23.8217 C   0  0  0  0  0  0
  -21.3674   -5.6790   24.9176 C   0  0  0  0  0  0
  -21.6049   -4.3049   24.7237 C   0  0  0  0  0  0
  -21.8821   -3.8136   23.4356 C   0  0  0  0  0  0
  -21.9188   -4.6955   22.3411 C   0  0  0  0  0  0
  -22.7858  -13.5209   21.1865 C   0  0  0  0  0  0
  -22.1666   -4.2131   21.0993 F   0  0  0  0  0  0
  -21.5627   -3.4542   25.7761 F   0  0  0  0  0  0
  -29.9999  -13.4491   20.4302 N   0  0  0  0  0  0
  -26.2961  -12.9386   20.3281 N   0  0  0  0  0  0
  -25.9323  -11.6526   20.5712 N   0  0  0  0  0  0
  -22.0485  -12.8212   22.0431 N   0  0  0  0  0  0
  -25.4228  -15.1923   20.4187 N   0  0  0  0  0  0
  -31.8069  -14.7720   20.1127 O   0  0  0  0  0  0
  -21.6637   -6.8884   21.4244 O   0  0  0  0  0  0
  -22.3567  -14.5508   20.6719 O   0  0  0  0  0  0
  -24.6259  -31.8587   23.2011 C   0  0  0  0  0  0
  -25.9115  -32.4771   23.8344 C   0  0  1  0  0  0
  -27.2227  -27.3157   20.1249 C   0  0  0  0  0  0
  -25.5929  -33.8575   24.2273 N   0  0  0  0  0  0
  -23.4206  -30.4804   21.5429 C   0  0  2  0  0  0
  -24.8701  -28.9331   20.1116 C   0  0  0  0  0  0
  -22.7474  -29.4614   22.4928 C   0  0  0  0  0  0
  -18.0293  -28.1372   22.8486 C   0  0  0  0  0  0
  -24.1487  -36.7281   23.2640 C   0  0  0  0  0  0
  -25.9620  -30.7892   21.3730 C   0  0  0  0  0  0
  -26.0397  -29.4159   20.7157 C   0  0  0  0  0  0
  -27.2246  -28.6177   20.7127 C   0  0  0  0  0  0
  -26.0389  -26.8837   19.4978 C   0  0  0  0  0  0
  -24.8713  -27.6721   19.4929 C   0  0  0  0  0  0
  -23.6365  -29.8136   20.1592 C   0  0  0  0  0  0
  -25.4114  -36.3078   24.0329 C   0  0  1  0  0  0
  -20.5892  -28.3681   23.1283 C   0  0  2  0  0  0
  -20.6783  -26.9404   22.5411 C   0  0  0  0  0  0
  -19.5761  -26.6375   21.5211 C   0  0  0  0  0  0
  -18.1939  -26.7913   22.1621 C   0  0  0  0  0  0
  -19.1544  -28.8841   23.2875 C   0  0  0  0  0  0
  -18.9468  -30.1444   23.8893 C   0  0  0  0  0  0
  -17.6471  -30.6579   24.0563 C   0  0  0  0  0  0
  -25.9052  -34.9450   23.5094 C   0  0  0  0  0  0
  -16.5360  -29.9080   23.6336 C   0  0  0  0  0  0
  -16.7283  -28.6494   23.0360 C   0  0  0  0  0  0
  -26.4500  -31.6581   25.0710 C   0  0  0  0  0  0
  -25.3733  -31.3746   26.1438 C   0  0  0  0  0  0
  -27.0337  -30.2997   24.6175 C   0  0  0  0  0  0
  -27.6062  -32.4311   25.7477 C   0  0  0  0  0  0
  -27.5580  -37.1791   24.8464 C   0  0  0  0  0  0
  -21.4185  -29.3026   22.3666 N   0  0  0  0  0  0
  -26.4291  -37.3775   23.9410 N   0  0  0  0  0  0
  -24.6882  -31.0597   22.0962 N   0  0  0  0  0  0
  -23.4193  -28.8164   23.3028 O   0  0  0  0  0  0
  -28.2991  -26.4185   20.1514 O   0  0  0  0  0  0
  -26.5628  -34.8922   22.4664 O   0  0  0  0  0  0
  -23.5419  -32.1401   23.7327 O   0  0  0  0  0  0
  -29.8881  -16.8435   18.4890 C   0  0  0  0  0  0
  -29.7149  -17.9385   17.6558 C   0  0  0  0  0  0
  -29.7732  -17.0208   19.8814 C   0  0  0  0  0  0
  -29.3411  -19.3343   19.4372 C   0  0  0  0  0  0
  -30.1735  -21.7719   20.3237 C   0  0  0  0  0  0
  -27.6920  -21.2663   20.4269 C   0  0  0  0  0  0
  -29.8473  -23.3250   20.2651 C   0  0  0  0  0  0
  -27.4050  -22.8188   20.3355 C   0  0  0  0  0  0
  -29.0385  -20.8629   19.7752 C   0  0  2  0  0  0
  -28.5117  -23.7329   20.9604 C   0  0  2  0  0  0
  -27.7572  -23.3445   23.2827 C   0  0  0  0  0  0
  -28.1612  -25.3152   21.1253 C   0  0  0  0  0  0
  -29.4612  -19.1536   18.1239 N   0  0  0  0  0  0
  -29.4767  -18.3073   20.3348 N   0  0  0  0  0  0
  -29.8001  -17.8214   16.2794 N   0  0  0  0  0  0
  -29.8510  -15.7941   20.6874 N   0  0  0  0  0  0
  -28.7760  -23.2477   22.2876 O   0  0  0  0  0  0
  -31.4715  -12.5055   19.1809 H   0  0  0  0  0  0
  -30.3476  -11.4184   19.9386 H   0  0  0  0  0  0
  -29.7814  -11.7411   17.5024 H   0  0  0  0  0  0
  -29.6515  -13.4632   17.7389 H   0  0  0  0  0  0
  -27.8744  -11.2887   18.8864 H   0  0  0  0  0  0
  -27.3857  -12.5586   17.7924 H   0  0  0  0  0  0
  -27.6541  -14.2566   19.5008 H   0  0  0  0  0  0
  -28.6940  -12.1174   21.4180 H   0  0  0  0  0  0
  -28.4276  -13.7930   21.8183 H   0  0  0  0  0  0
  -25.2759   -9.5673   22.4781 H   0  0  0  0  0  0
  -23.9979   -7.4626   22.7494 H   0  0  0  0  0  0
  -21.0831   -8.8793   19.8971 H   0  0  0  0  0  0
  -22.3689  -10.9706   19.6180 H   0  0  0  0  0  0
  -21.1995   -7.6143   23.9718 H   0  0  0  0  0  0
  -21.1496   -6.0520   25.9083 H   0  0  0  0  0  0
  -22.0584   -2.7590   23.2868 H   0  0  0  0  0  0
  -22.4044  -11.9846   22.4821 H   0  0  0  0  0  0
  -21.1116  -13.1271   22.2621 H   0  0  0  0  0  0
  -24.6529  -15.8424   20.5331 H   0  0  0  0  0  0
  -26.2611  -15.6312   20.0600 H   0  0  0  0  0  0
  -26.7181  -32.5448   23.1094 H   0  0  0  0  0  0
  -25.0055  -33.9719   25.0402 H   0  0  0  0  0  0
  -22.7139  -31.3003   21.3992 H   0  0  0  0  0  0
  -23.3752  -35.9609   23.3298 H   0  0  0  0  0  0
  -24.3578  -36.8906   22.2056 H   0  0  0  0  0  0
  -23.7237  -37.6478   23.6666 H   0  0  0  0  0  0
  -26.0941  -31.5547   20.6066 H   0  0  0  0  0  0
  -26.8411  -30.8368   22.0045 H   0  0  0  0  0  0
  -28.1212  -28.9817   21.1947 H   0  0  0  0  0  0
  -26.0121  -25.9083   19.0340 H   0  0  0  0  0  0
  -23.9761  -27.2943   19.0186 H   0  0  0  0  0  0
  -23.7523  -30.5909   19.4027 H   0  0  0  0  0  0
  -22.7567  -29.2415   19.8588 H   0  0  0  0  0  0
  -25.1293  -36.1920   25.0821 H   0  0  0  0  0  0
  -20.9987  -28.3261   24.1403 H   0  0  0  0  0  0
  -20.5678  -26.2292   23.3608 H   0  0  0  0  0  0
  -21.6654  -26.7423   22.1214 H   0  0  0  0  0  0
  -19.6920  -25.6288   21.1235 H   0  0  0  0  0  0
  -19.6700  -27.3189   20.6743 H   0  0  0  0  0  0
  -17.4207  -26.6665   21.4024 H   0  0  0  0  0  0
  -18.0339  -26.0054   22.9018 H   0  0  0  0  0  0
  -19.7945  -30.7256   24.2262 H   0  0  0  0  0  0
  -17.5029  -31.6261   24.5156 H   0  0  0  0  0  0
  -15.5362  -30.2982   23.7652 H   0  0  0  0  0  0
  -15.8687  -28.0809   22.7080 H   0  0  0  0  0  0
  -24.5883  -30.7123   25.7772 H   0  0  0  0  0  0
  -24.8961  -32.2931   26.4866 H   0  0  0  0  0  0
  -25.8048  -30.8912   27.0213 H   0  0  0  0  0  0
  -26.2914  -29.6737   24.1210 H   0  0  0  0  0  0
  -27.4036  -29.7264   25.4687 H   0  0  0  0  0  0
  -27.8783  -30.4266   23.9399 H   0  0  0  0  0  0
  -27.2678  -33.3617   26.2048 H   0  0  0  0  0  0
  -28.3883  -32.6861   25.0311 H   0  0  0  0  0  0
  -28.0718  -31.8435   26.5400 H   0  0  0  0  0  0
  -28.2599  -38.0089   24.7517 H   0  0  0  0  0  0
  -28.1075  -36.2619   24.6278 H   0  0  0  0  0  0
  -27.2298  -37.1424   25.8869 H   0  0  0  0  0  0
  -20.9351  -29.8738   21.6871 H   0  0  0  0  0  0
  -26.0164  -38.2841   24.1427 H   0  0  0  0  0  0
  -30.0916  -15.8731   18.0593 H   0  0  0  0  0  0
  -30.4024  -21.4714   21.3457 H   0  0  0  0  0  0
  -31.0756  -21.5823   19.7434 H   0  0  0  0  0  0
  -26.8868  -20.7297   19.9265 H   0  0  0  0  0  0
  -27.6815  -20.9347   21.4651 H   0  0  0  0  0  0
  -29.8161  -23.6514   19.2248 H   0  0  0  0  0  0
  -30.6700  -23.8733   20.7241 H   0  0  0  0  0  0
  -26.4386  -23.0344   20.7884 H   0  0  0  0  0  0
  -27.2881  -23.0942   19.2859 H   0  0  0  0  0  0
  -28.9020  -21.2872   18.7777 H   0  0  0  0  0  0
  -28.0894  -22.8123   24.1741 H   0  0  0  0  0  0
  -26.8162  -22.8899   22.9755 H   0  0  0  0  0  0
  -27.5682  -24.3754   23.5818 H   0  0  0  0  0  0
  -28.7999  -25.6672   21.9356 H   0  0  0  0  0  0
  -27.1559  -25.3658   21.5452 H   0  0  0  0  0  0
  -29.7192  -16.8992   15.8677 H   0  0  0  0  0  0
  -29.3827  -18.5548   15.7213 H   0  0  0  0  0  0
  -29.0331  -15.6267   21.2505 H   0  0  0  0  0  0
  1 25  1  0  0  0
  1 30  2  0  0  0
  1 86  1  0  0  0
  2  3  1  0  0  0
  2 25  1  0  0  0
  2 88  1  0  0  0
  2 89  1  0  0  0
  3  4  1  0  0  0
  3 90  1  0  0  0
  3 91  1  0  0  0
  4  5  1  0  0  0
  4 92  1  0  0  0
  4 93  1  0  0  0
  5  6  1  0  0  0
  5 26  1  0  0  0
  5 94  1  0  0  0
  6 25  1  0  0  0
  6 95  1  0  0  0
  6 96  1  0  0  0
  7  8  2  0  0  0
  7 26  1  0  0  0
  7 29  1  0  0  0
  8  9  1  0  0  0
  8 22  1  0  0  0
  9 10  1  0  0  0
  9 27  2  0  0  0
 10 11  2  0  0  0
 10 15  1  0  0  0
 11 12  1  0  0  0
 11 97  1  0  0  0
 12 13  2  0  0  0
 12 98  1  0  0  0
 13 14  1  0  0  0
 13 31  1  0  0  0
 14 15  2  0  0  0
 14 99  1  0  0  0
 15100  1  0  0  0
 16 17  2  0  0  0
 16 21  1  0  0  0
 16 31  1  0  0  0
 17 18  1  0  0  0
 17101  1  0  0  0
 18 19  2  0  0  0
 18102  1  0  0  0
 19 20  1  0  0  0
 19 24  1  0  0  0
 20 21  2  0  0  0
 20103  1  0  0  0
 21 23  1  0  0  0
 22 28  1  0  0  0
 22 32  2  0  0  0
 26 27  1  0  0  0
 28104  1  0  0  0
 28105  1  0  0  0
 29106  1  0  0  0
 29107  1  0  0  0
 33 34  1  0  0  0
 33 66  1  0  0  0
 33 70  2  0  0  0
 34 36  1  0  0  0
 34 59  1  0  0  0
 34108  1  0  0  0
 35 44  2  0  0  0
 35 45  1  0  0  0
 35 68  1  0  0  0
 36 56  1  0  0  0
 36109  1  0  0  0
 37 39  1  0  0  0
 37 47  1  0  0  0
 37 66  1  0  0  0
 37110  1  0  0  0
 38 43  2  0  0  0
 38 46  1  0  0  0
 38 47  1  0  0  0
 39 64  1  0  0  0
 39 67  2  0  0  0
 40 52  1  0  0  0
 40 53  2  0  0  0
 40 58  1  0  0  0
 41111  1  0  0  0
 41112  1  0  0  0
 41113  1  0  0  0
 41 48  1  0  0  0
 42 43  1  0  0  0
 42 66  1  0  0  0
 42114  1  0  0  0
 42115  1  0  0  0
 43 44  1  0  0  0
 44116  1  0  0  0
 45 46  2  0  0  0
 45117  1  0  0  0
 46118  1  0  0  0
 47119  1  0  0  0
 47120  1  0  0  0
 48 56  1  0  0  0
 48 65  1  0  0  0
 48121  1  0  0  0
 49 50  1  0  0  0
 49 53  1  0  0  0
 49 64  1  0  0  0
 49122  1  0  0  0
 50 51  1  0  0  0
 50123  1  0  0  0
 50124  1  0  0  0
 51 52  1  0  0  0
 51125  1  0  0  0
 51126  1  0  0  0
 52127  1  0  0  0
 52128  1  0  0  0
 53 54  1  0  0  0
 54 55  2  0  0  0
 54129  1  0  0  0
 55 57  1  0  0  0
 55130  1  0  0  0
 56 69  2  0  0  0
 57 58  2  0  0  0
 57131  1  0  0  0
 58132  1  0  0  0
 59 60  1  0  0  0
 59 61  1  0  0  0
 59 62  1  0  0  0
 60133  1  0  0  0
 60134  1  0  0  0
 60135  1  0  0  0
 61136  1  0  0  0
 61137  1  0  0  0
 61138  1  0  0  0
 62139  1  0  0  0
 62140  1  0  0  0
 62141  1  0  0  0
 63 65  1  0  0  0
 63142  1  0  0  0
 63143  1  0  0  0
 63144  1  0  0  0
 64145  1  0  0  0
 65146  1  0  0  0
 68 82  1  0  0  0
 71 72  2  0  0  0
 71 73  1  0  0  0
 71147  1  0  0  0
 72 83  1  0  0  0
 72 85  1  0  0  0
 73 84  2  0  0  0
 73 86  1  0  0  0
 74 83  2  0  0  0
 74 84  1  0  0  0
 74 79  1  0  0  0
 75 77  1  0  0  0
 75 79  1  0  0  0
 75148  1  0  0  0
 75149  1  0  0  0
 76 78  1  0  0  0
 76 79  1  0  0  0
 76150  1  0  0  0
 76151  1  0  0  0
 77 80  1  0  0  0
 77152  1  0  0  0
 77153  1  0  0  0
 78 80  1  0  0  0
 78154  1  0  0  0
 78155  1  0  0  0
 79156  1  0  0  0
 80 82  1  0  0  0
 80 87  1  0  0  0
 81 87  1  0  0  0
 81157  1  0  0  0
 81158  1  0  0  0
 81159  1  0  0  0
 82160  1  0  0  0
 82161  1  0  0  0
 85162  1  0  0  0
 85163  1  0  0  0
 86164  1  0  0  0
M  ISO  4   1 100  68 101  82 101  86 100
M  END
> <chiral flag>
0

> <version>
0

> <s_m_source_file>
/data/baiqing/PycharmProjects/Reinvent-master-3.2/result/LINK_invent/BTK/process_docking_weight1_custom_product_contain_oxygen_bond_distance_aromatic_linkinvent_7_9_3/rearranged_h_0165.sdf

> <i_m_source_file_index>
31

> <r_mmod_Potential_Energy-OPLS-2005>
-289.265533447266

> <r_mmod_Stretch_Energy-OPLS-2005>
99.7009582519531

> <r_mmod_Bend_Energy-OPLS-2005>
203.993515014648

> <r_mmod_Torsional_Energy-OPLS-2005>
284.429290771484

> <r_mmod_Improper_Torsional_Energy-OPLS-2005>
9.19920539855957

> <r_mmod_Van_der_Waal_Energy-OPLS-2005>
153.558807373047

> <r_mmod_Electrostatic_Energy-OPLS-2005>
-857.796142578125

> <r_mmod_Solvation_Energy-OPLS-2005>
-241.75407409668

> <b_mmod_Minimization_Converged-OPLS-2005>
0

> <r_mmod_RMS_Derivative-OPLS-2005>
2.8206160068512

$$$$
31
                    3D
 Structure written by MMmdl.
167176  0  0  1  0            999 V2000
  -30.6135  -14.6080   20.5438 C   0  0  0  0  0  0
  -30.4519  -12.3834   19.4345 C   0  0  0  0  0  0
  -29.5082  -12.5143   18.2166 C   0  0  0  0  0  0
  -28.0302  -12.3510   18.6302 C   0  0  0  0  0  0
  -27.6607  -13.2040   19.8717 C   0  0  2  0  0  0
  -28.7072  -13.0072   20.9930 C   0  0  0  0  0  0
  -25.2590  -13.8139   20.5673 C   0  0  0  0  0  0
  -24.1840  -13.0421   20.9173 C   0  0  0  0  0  0
  -24.6385  -11.6886   20.8723 C   0  0  0  0  0  0
  -23.9044  -10.4281   21.0395 C   0  0  0  0  0  0
  -24.3598   -9.4202   21.9174 C   0  0  0  0  0  0
  -23.6278   -8.2237   22.0746 C   0  0  0  0  0  0
  -22.4265   -8.0269   21.3538 C   0  0  0  0  0  0
  -21.9892   -9.0239   20.4643 C   0  0  0  0  0  0
  -22.7212  -10.2121   20.3048 C   0  0  0  0  0  0
  -21.6852   -6.0723   22.5272 C   0  0  0  0  0  0
  -21.4013   -6.5626   23.8204 C   0  0  0  0  0  0
  -21.3659   -5.6780   24.9166 C   0  0  0  0  0  0
  -21.6048   -4.3044   24.7219 C   0  0  0  0  0  0
  -21.8821   -3.8135   23.4340 C   0  0  0  0  0  0
  -21.9196   -4.6952   22.3396 C   0  0  0  0  0  0
  -22.7866  -13.5232   21.1841 C   0  0  0  0  0  0
  -22.1665   -4.2139   21.0975 F   0  0  0  0  0  0
  -21.5631   -3.4528   25.7730 F   0  0  0  0  0  0
  -30.0278  -13.3718   20.4440 N   0  0  0  0  0  0
  -26.3021  -12.9295   20.3345 N   0  0  0  0  0  0
  -25.9316  -11.6464   20.5752 N   0  0  0  0  0  0
  -22.0502  -12.8235   22.0397 N   0  0  0  0  0  0
  -25.4298  -15.1860   20.4084 N   0  0  0  0  0  0
  -31.7516  -14.8249   20.1119 O   0  0  0  0  0  0
  -21.6633   -6.8863   21.4233 O   0  0  0  0  0  0
  -22.3560  -14.5541   20.6684 O   0  0  0  0  0  0
  -24.6248  -31.8621   23.2040 C   0  0  0  0  0  0
  -25.9102  -32.4793   23.8361 C   0  0  1  0  0  0
  -27.2271  -27.3384   20.1064 C   0  0  0  0  0  0
  -25.5931  -33.8590   24.2291 N   0  0  0  0  0  0
  -23.4172  -30.4877   21.5461 C   0  0  2  0  0  0
  -24.8639  -28.9482   20.1106 C   0  0  0  0  0  0
  -22.7463  -29.4636   22.4930 C   0  0  0  0  0  0
  -18.0294  -28.1398   22.8491 C   0  0  0  0  0  0
  -24.1487  -36.7274   23.2639 C   0  0  0  0  0  0
  -25.9581  -30.7988   21.3732 C   0  0  0  0  0  0
  -26.0325  -29.4280   20.7140 C   0  0  0  0  0  0
  -27.2168  -28.6347   20.7042 C   0  0  0  0  0  0
  -26.0304  -26.9089   19.4816 C   0  0  0  0  0  0
  -24.8628  -27.6924   19.4879 C   0  0  0  0  0  0
  -23.6310  -29.8255   20.1607 C   0  0  0  0  0  0
  -25.4111  -36.3082   24.0336 C   0  0  1  0  0  0
  -20.5891  -28.3688   23.1296 C   0  0  2  0  0  0
  -20.6776  -26.9410   22.5424 C   0  0  0  0  0  0
  -19.5753  -26.6398   21.5221 C   0  0  0  0  0  0
  -18.1932  -26.7945   22.1626 C   0  0  0  0  0  0
  -19.1546  -28.8856   23.2897 C   0  0  0  0  0  0
  -18.9466  -30.1467   23.8905 C   0  0  0  0  0  0
  -17.6467  -30.6595   24.0575 C   0  0  0  0  0  0
  -25.9048  -34.9456   23.5106 C   0  0  0  0  0  0
  -16.5356  -29.9093   23.6347 C   0  0  0  0  0  0
  -16.7284  -28.6518   23.0355 C   0  0  0  0  0  0
  -26.4487  -31.6598   25.0722 C   0  0  0  0  0  0
  -25.3729  -31.3750   26.1458 C   0  0  0  0  0  0
  -27.0320  -30.3025   24.6161 C   0  0  0  0  0  0
  -27.6057  -32.4320   25.7484 C   0  0  0  0  0  0
  -27.5580  -37.1787   24.8463 C   0  0  0  0  0  0
  -21.4178  -29.3042   22.3675 N   0  0  0  0  0  0
  -26.4280  -37.3785   23.9417 N   0  0  0  0  0  0
  -24.6853  -31.0652   22.0981 N   0  0  0  0  0  0
  -23.4198  -28.8175   23.2999 O   0  0  0  0  0  0
  -28.3505  -26.4989   20.1508 O   0  0  0  0  0  0
  -26.5608  -34.8922   22.4669 O   0  0  0  0  0  0
  -23.5418  -32.1401   23.7383 O   0  0  0  0  0  0
  -28.5507  -18.8720   21.1370 C   0  0  0  0  0  0
  -29.8794  -19.2119   21.0778 C   0  0  0  0  0  0
  -29.6525  -16.9917   20.9220 C   0  0  0  0  0  0
  -29.2671  -24.0647   20.2817 C   0  0  0  0  0  0
  -32.4139  -21.2868   19.2071 C   0  0  0  0  0  0
  -32.8285  -20.3730   20.3854 C   0  0  0  0  0  0
  -30.8838  -21.3969   19.0301 C   0  0  0  0  0  0
  -30.4899  -20.6332   21.3522 C   0  0  1  0  0  0
  -32.0273  -20.6474   21.6907 C   0  0  0  0  0  0
  -32.4234  -19.6191   22.7801 C   0  0  0  0  0  0
  -32.4392  -22.0276   22.2717 C   0  0  0  0  0  0
  -28.9809  -22.5180   20.2976 C   0  0  0  0  0  0
  -28.0996  -25.0577   19.9436 C   0  0  0  0  0  0
  -30.5692  -17.9817   20.8615 N   0  0  0  0  0  0
  -29.7876  -15.5611   21.0535 N   0  0  0  0  0  0
  -30.2664  -21.7289   20.3340 N   0  3  2  0  0  0
  -30.4049  -24.4752   20.5350 O   0  0  0  0  0  0
  -28.4010  -17.5063   21.0657 O   0  0  0  0  0  0
  -31.4879  -12.5332   19.1254 H   0  0  0  0  0  0
  -30.4075  -11.3764   19.8518 H   0  0  0  0  0  0
  -29.7680  -11.7734   17.4592 H   0  0  0  0  0  0
  -29.6498  -13.4893   17.7475 H   0  0  0  0  0  0
  -27.8614  -11.2955   18.8466 H   0  0  0  0  0  0
  -27.3754  -12.5980   17.7936 H   0  0  0  0  0  0
  -27.6924  -14.2463   19.5552 H   0  0  0  0  0  0
  -28.7179  -11.9662   21.3198 H   0  0  0  0  0  0
  -28.4457  -13.5822   21.8826 H   0  0  0  0  0  0
  -25.2745   -9.5686   22.4742 H   0  0  0  0  0  0
  -23.9994   -7.4630   22.7465 H   0  0  0  0  0  0
  -21.0823   -8.8747   19.8953 H   0  0  0  0  0  0
  -22.3660  -10.9652   19.6155 H   0  0  0  0  0  0
  -21.1999   -7.6134   23.9700 H   0  0  0  0  0  0
  -21.1484   -6.0510   25.9068 H   0  0  0  0  0  0
  -22.0603   -2.7598   23.2836 H   0  0  0  0  0  0
  -22.4105  -11.9897   22.4795 H   0  0  0  0  0  0
  -21.1121  -13.1270   22.2594 H   0  0  0  0  0  0
  -24.6557  -15.8335   20.5098 H   0  0  0  0  0  0
  -26.2739  -15.6326   20.0729 H   0  0  0  0  0  0
  -26.7164  -32.5463   23.1109 H   0  0  0  0  0  0
  -25.0114  -33.9740   25.0457 H   0  0  0  0  0  0
  -22.7116  -31.3095   21.4054 H   0  0  0  0  0  0
  -23.3765  -35.9590   23.3296 H   0  0  0  0  0  0
  -24.3592  -36.8899   22.2056 H   0  0  0  0  0  0
  -23.7216  -37.6465   23.6659 H   0  0  0  0  0  0
  -26.0917  -31.5645   20.6077 H   0  0  0  0  0  0
  -26.8378  -30.8441   22.0030 H   0  0  0  0  0  0
  -28.1126  -28.9998   21.1862 H   0  0  0  0  0  0
  -25.9602  -25.9540   18.9835 H   0  0  0  0  0  0
  -23.9662  -27.3196   19.0118 H   0  0  0  0  0  0
  -23.7488  -30.6024   19.4041 H   0  0  0  0  0  0
  -22.7513  -29.2543   19.8580 H   0  0  0  0  0  0
  -25.1297  -36.1928   25.0829 H   0  0  0  0  0  0
  -21.0011  -28.3266   24.1405 H   0  0  0  0  0  0
  -20.5680  -26.2295   23.3622 H   0  0  0  0  0  0
  -21.6645  -26.7444   22.1217 H   0  0  0  0  0  0
  -19.6905  -25.6313   21.1246 H   0  0  0  0  0  0
  -19.6701  -27.3215   20.6754 H   0  0  0  0  0  0
  -17.4211  -26.6726   21.4014 H   0  0  0  0  0  0
  -18.0309  -26.0090   22.9020 H   0  0  0  0  0  0
  -19.7939  -30.7293   24.2263 H   0  0  0  0  0  0
  -17.5020  -31.6273   24.5181 H   0  0  0  0  0  0
  -15.5357  -30.2996   23.7667 H   0  0  0  0  0  0
  -15.8689  -28.0846   22.7049 H   0  0  0  0  0  0
  -24.5919  -30.7067   25.7815 H   0  0  0  0  0  0
  -24.8892  -32.2917   26.4837 H   0  0  0  0  0  0
  -25.8069  -30.8986   27.0257 H   0  0  0  0  0  0
  -26.2878  -29.6786   24.1192 H   0  0  0  0  0  0
  -27.4034  -29.7277   25.4654 H   0  0  0  0  0  0
  -27.8752  -30.4323   23.9374 H   0  0  0  0  0  0
  -27.2685  -33.3640   26.2030 H   0  0  0  0  0  0
  -28.3880  -32.6838   25.0311 H   0  0  0  0  0  0
  -28.0701  -31.8453   26.5420 H   0  0  0  0  0  0
  -28.2594  -38.0091   24.7541 H   0  0  0  0  0  0
  -28.1082  -36.2626   24.6251 H   0  0  0  0  0  0
  -27.2312  -37.1403   25.8872 H   0  0  0  0  0  0
  -20.9336  -29.8767   21.6899 H   0  0  0  0  0  0
  -26.0161  -38.2853   24.1454 H   0  0  0  0  0  0
  -27.6463  -19.4409   21.3070 H   0  0  0  0  0  0
  -32.8634  -20.9212   18.2829 H   0  0  0  0  0  0
  -32.8300  -22.2838   19.3559 H   0  0  0  0  0  0
  -33.8982  -20.4813   20.5697 H   0  0  0  0  0  0
  -32.6960  -19.3350   20.0786 H   0  0  0  0  0  0
  -30.4676  -20.4664   18.6404 H   0  0  0  0  0  0
  -30.6624  -22.1689   18.2920 H   0  0  0  0  0  0
  -29.9953  -20.9898   22.2574 H   0  0  0  0  0  0
  -32.3908  -18.5873   22.4393 H   0  0  0  0  0  0
  -31.7775  -19.6976   23.6554 H   0  0  0  0  0  0
  -33.4465  -19.7782   23.1217 H   0  0  0  0  0  0
  -32.3006  -22.8554   21.5779 H   0  0  0  0  0  0
  -33.4958  -22.0416   22.5445 H   0  0  0  0  0  0
  -31.8775  -22.2648   23.1767 H   0  0  0  0  0  0
  -28.3800  -22.2361   19.4329 H   0  0  0  0  0  0
  -28.3884  -22.3006   21.1860 H   0  0  0  0  0  0
  -27.2365  -24.7536   20.5367 H   0  0  0  0  0  0
  -27.8454  -24.8959   18.8961 H   0  0  0  0  0  0
  -28.9402  -15.1398   21.3930 H   0  0  0  0  0  0
  -30.8678  -22.4629   20.6889 H   0  0  0  0  0  0
  1 25  1  0  0  0
  1 30  2  0  0  0
  1 85  1  0  0  0
  2  3  1  0  0  0
  2 25  1  0  0  0
  2 89  1  0  0  0
  2 90  1  0  0  0
  3  4  1  0  0  0
  3 91  1  0  0  0
  3 92  1  0  0  0
  4  5  1  0  0  0
  4 93  1  0  0  0
  4 94  1  0  0  0
  5  6  1  0  0  0
  5 26  1  0  0  0
  5 95  1  0  0  0
  6 25  1  0  0  0
  6 96  1  0  0  0
  6 97  1  0  0  0
  7  8  2  0  0  0
  7 26  1  0  0  0
  7 29  1  0  0  0
  8  9  1  0  0  0
  8 22  1  0  0  0
  9 10  1  0  0  0
  9 27  2  0  0  0
 10 11  2  0  0  0
 10 15  1  0  0  0
 11 12  1  0  0  0
 11 98  1  0  0  0
 12 13  2  0  0  0
 12 99  1  0  0  0
 13 14  1  0  0  0
 13 31  1  0  0  0
 14 15  2  0  0  0
 14100  1  0  0  0
 15101  1  0  0  0
 16 17  2  0  0  0
 16 21  1  0  0  0
 16 31  1  0  0  0
 17 18  1  0  0  0
 17102  1  0  0  0
 18 19  2  0  0  0
 18103  1  0  0  0
 19 20  1  0  0  0
 19 24  1  0  0  0
 20 21  2  0  0  0
 20104  1  0  0  0
 21 23  1  0  0  0
 22 28  1  0  0  0
 22 32  2  0  0  0
 26 27  1  0  0  0
 28105  1  0  0  0
 28106  1  0  0  0
 29107  1  0  0  0
 29108  1  0  0  0
 33 34  1  0  0  0
 33 66  1  0  0  0
 33 70  2  0  0  0
 34 36  1  0  0  0
 34 59  1  0  0  0
 34109  1  0  0  0
 35 44  2  0  0  0
 35 45  1  0  0  0
 35 68  1  0  0  0
 36 56  1  0  0  0
 36110  1  0  0  0
 37 39  1  0  0  0
 37 47  1  0  0  0
 37 66  1  0  0  0
 37111  1  0  0  0
 38 43  2  0  0  0
 38 46  1  0  0  0
 38 47  1  0  0  0
 39 64  1  0  0  0
 39 67  2  0  0  0
 40 52  1  0  0  0
 40 53  2  0  0  0
 40 58  1  0  0  0
 41112  1  0  0  0
 41113  1  0  0  0
 41114  1  0  0  0
 41 48  1  0  0  0
 42 43  1  0  0  0
 42 66  1  0  0  0
 42115  1  0  0  0
 42116  1  0  0  0
 43 44  1  0  0  0
 44117  1  0  0  0
 45 46  2  0  0  0
 45118  1  0  0  0
 46119  1  0  0  0
 47120  1  0  0  0
 47121  1  0  0  0
 48 56  1  0  0  0
 48 65  1  0  0  0
 48122  1  0  0  0
 49 50  1  0  0  0
 49 53  1  0  0  0
 49 64  1  0  0  0
 49123  1  0  0  0
 50 51  1  0  0  0
 50124  1  0  0  0
 50125  1  0  0  0
 51 52  1  0  0  0
 51126  1  0  0  0
 51127  1  0  0  0
 52128  1  0  0  0
 52129  1  0  0  0
 53 54  1  0  0  0
 54 55  2  0  0  0
 54130  1  0  0  0
 55 57  1  0  0  0
 55131  1  0  0  0
 56 69  2  0  0  0
 57 58  2  0  0  0
 57132  1  0  0  0
 58133  1  0  0  0
 59 60  1  0  0  0
 59 61  1  0  0  0
 59 62  1  0  0  0
 60134  1  0  0  0
 60135  1  0  0  0
 60136  1  0  0  0
 61137  1  0  0  0
 61138  1  0  0  0
 61139  1  0  0  0
 62140  1  0  0  0
 62141  1  0  0  0
 62142  1  0  0  0
 63 65  1  0  0  0
 63143  1  0  0  0
 63144  1  0  0  0
 63145  1  0  0  0
 64146  1  0  0  0
 65147  1  0  0  0
 68 83  1  0  0  0
 71 72  2  0  0  0
 71 88  1  0  0  0
 71148  1  0  0  0
 72 84  1  0  0  0
 72 78  1  0  0  0
 73 84  2  0  0  0
 73 85  1  0  0  0
 73 88  1  0  0  0
 74 82  1  0  0  0
 74 83  1  0  0  0
 74 87  2  0  0  0
 75 76  1  0  0  0
 75 77  1  0  0  0
 75149  1  0  0  0
 75150  1  0  0  0
 76 79  1  0  0  0
 76151  1  0  0  0
 76152  1  0  0  0
 77 86  1  0  0  0
 77153  1  0  0  0
 77154  1  0  0  0
 78 79  1  0  0  0
 78 86  1  0  0  0
 78155  1  0  0  0
 79 80  1  0  0  0
 79 81  1  0  0  0
 80156  1  0  0  0
 80157  1  0  0  0
 80158  1  0  0  0
 81159  1  0  0  0
 81160  1  0  0  0
 81161  1  0  0  0
 82162  1  0  0  0
 82163  1  0  0  0
 82 86  1  0  0  0
 83164  1  0  0  0
 83165  1  0  0  0
 85166  1  0  0  0
 86167  1  0  0  0
M  CHG  1  86   1
M  ISO  4   1 100  68 101  83 101  85 100
M  END
> <chiral flag>
0

> <version>
0

> <s_m_source_file>
/data/baiqing/PycharmProjects/Reinvent-master-3.2/result/LINK_invent/BTK/process_docking_weight1_custom_product_contain_oxygen_bond_distance_aromatic_linkinvent_7_9_3/rearranged_h_0165.sdf

> <i_m_source_file_index>
32

> <r_mmod_Potential_Energy-OPLS-2005>
-141.199127197266

> <r_mmod_Stretch_Energy-OPLS-2005>
73.3922653198242

> <r_mmod_Bend_Energy-OPLS-2005>
182.814697265625

> <r_mmod_Torsional_Energy-OPLS-2005>
272.795349121094

> <r_mmod_Improper_Torsional_Energy-OPLS-2005>
5.23956537246704

> <r_mmod_Van_der_Waal_Energy-OPLS-2005>
134.498718261719

> <r_mmod_Electrostatic_Energy-OPLS-2005>
-391.782379150391

> <r_mmod_Solvation_Energy-OPLS-2005>
-457.862335205078

> <b_mmod_Minimization_Converged-OPLS-2005>
0

> <r_mmod_RMS_Derivative-OPLS-2005>
1.18595194816589

$$$$
32
                    3D
 Structure written by MMmdl.
154162  0  0  1  0            999 V2000
  -30.7106  -14.5147   20.5471 C   0  0  0  0  0  0
  -30.4167  -12.3268   19.4383 C   0  0  0  0  0  0
  -29.4954  -12.4996   18.2141 C   0  0  0  0  0  0
  -28.0180  -12.3559   18.6267 C   0  0  0  0  0  0
  -27.6563  -13.2149   19.8685 C   0  0  2  0  0  0
  -28.6996  -13.0437   20.9969 C   0  0  0  0  0  0
  -25.2566  -13.8176   20.5686 C   0  0  0  0  0  0
  -24.1829  -13.0443   20.9191 C   0  0  0  0  0  0
  -24.6393  -11.6912   20.8740 C   0  0  0  0  0  0
  -23.9062  -10.4294   21.0404 C   0  0  0  0  0  0
  -24.3615   -9.4210   21.9181 C   0  0  0  0  0  0
  -23.6292   -8.2245   22.0751 C   0  0  0  0  0  0
  -22.4275   -8.0281   21.3543 C   0  0  0  0  0  0
  -21.9908   -9.0254   20.4647 C   0  0  0  0  0  0
  -22.7234  -10.2135   20.3054 C   0  0  0  0  0  0
  -21.6854   -6.0734   22.5279 C   0  0  0  0  0  0
  -21.4014   -6.5637   23.8212 C   0  0  0  0  0  0
  -21.3659   -5.6790   24.9175 C   0  0  0  0  0  0
  -21.6044   -4.3053   24.7225 C   0  0  0  0  0  0
  -21.8820   -3.8145   23.4348 C   0  0  0  0  0  0
  -21.9195   -4.6962   22.3403 C   0  0  0  0  0  0
  -22.7851  -13.5235   21.1850 C   0  0  0  0  0  0
  -22.1664   -4.2147   21.0981 F   0  0  0  0  0  0
  -21.5629   -3.4538   25.7739 F   0  0  0  0  0  0
  -30.0260  -13.3405   20.4348 N   0  0  0  0  0  0
  -26.3001  -12.9358   20.3346 N   0  0  0  0  0  0
  -25.9322  -11.6513   20.5766 N   0  0  0  0  0  0
  -22.0491  -12.8227   22.0406 N   0  0  0  0  0  0
  -25.4280  -15.1894   20.4081 N   0  0  0  0  0  0
  -31.8494  -14.6387   20.0915 O   0  0  0  0  0  0
  -21.6640   -6.8876   21.4240 O   0  0  0  0  0  0
  -22.3538  -14.5542   20.6698 O   0  0  0  0  0  0
  -24.6179  -31.8664   23.2090 C   0  0  0  0  0  0
  -25.9060  -32.4816   23.8393 C   0  0  1  0  0  0
  -27.2260  -27.4078   20.1012 C   0  0  0  0  0  0
  -25.5906  -33.8614   24.2323 N   0  0  0  0  0  0
  -23.4080  -30.4912   21.5493 C   0  0  2  0  0  0
  -24.8562  -28.9611   20.1075 C   0  0  0  0  0  0
  -22.7433  -29.4651   22.4963 C   0  0  0  0  0  0
  -18.0278  -28.1380   22.8490 C   0  0  0  0  0  0
  -24.1487  -36.7309   23.2638 C   0  0  0  0  0  0
  -25.9412  -30.8247   21.3678 C   0  0  0  0  0  0
  -26.0196  -29.4597   20.7096 C   0  0  0  0  0  0
  -27.2118  -28.6906   20.7040 C   0  0  0  0  0  0
  -26.0497  -26.9419   19.4743 C   0  0  0  0  0  0
  -24.8677  -27.7031   19.4836 C   0  0  0  0  0  0
  -23.6184  -29.8290   20.1621 C   0  0  0  0  0  0
  -25.4108  -36.3108   24.0338 C   0  0  1  0  0  0
  -20.5872  -28.3672   23.1306 C   0  0  2  0  0  0
  -20.6767  -26.9403   22.5418 C   0  0  0  0  0  0
  -19.5748  -26.6387   21.5211 C   0  0  0  0  0  0
  -18.1925  -26.7926   22.1621 C   0  0  0  0  0  0
  -19.1528  -28.8841   23.2895 C   0  0  0  0  0  0
  -18.9455  -30.1446   23.8908 C   0  0  0  0  0  0
  -17.6457  -30.6585   24.0565 C   0  0  0  0  0  0
  -25.9036  -34.9473   23.5127 C   0  0  0  0  0  0
  -16.5348  -29.9088   23.6327 C   0  0  0  0  0  0
  -16.7266  -28.6504   23.0349 C   0  0  0  0  0  0
  -26.4477  -31.6598   25.0728 C   0  0  0  0  0  0
  -25.3738  -31.3713   26.1474 C   0  0  0  0  0  0
  -27.0304  -30.3033   24.6120 C   0  0  0  0  0  0
  -27.6055  -32.4315   25.7488 C   0  0  0  0  0  0
  -27.5582  -37.1808   24.8464 C   0  0  0  0  0  0
  -21.4156  -29.3036   22.3707 N   0  0  0  0  0  0
  -26.4293  -37.3793   23.9412 N   0  0  0  0  0  0
  -24.6739  -31.0747   22.1002 N   0  0  0  0  0  0
  -23.4192  -28.8185   23.3010 O   0  0  0  0  0  0
  -28.3262  -26.5688   20.1563 O   0  0  0  0  0  0
  -26.5597  -34.8924   22.4688 O   0  0  0  0  0  0
  -23.5363  -32.1424   23.7468 O   0  0  0  0  0  0
  -29.4761  -18.0167   21.1293 C   0  0  0  0  0  0
  -31.2319  -19.7037   21.3378 C   0  0  0  0  0  0
  -31.8094  -17.3332   21.2139 C   0  0  0  0  0  0
  -29.8595  -19.3893   21.2545 C   0  0  0  0  0  0
  -30.4427  -16.9669   21.1057 C   0  0  0  0  0  0
  -32.1969  -18.6827   21.3164 C   0  0  0  0  0  0
  -28.0671  -25.3264   20.7227 C   0  0  0  0  0  0
  -28.8647  -20.4816   21.4085 C   0  0  0  0  0  0
  -28.7289  -24.1641   20.4866 C   0  0  0  0  0  0
  -28.2639  -22.9323   21.1506 C   0  0  0  0  0  0
  -30.0186  -15.5831   21.0223 N   0  0  0  0  0  0
  -29.0684  -21.7434   20.9206 N   0  0  0  0  0  0
  -27.7650  -20.1818   22.1095 N   0  3  0  0  0  0
  -27.2591  -22.8692   21.8714 O   0  0  0  0  0  0
  -29.7819  -24.1209   19.6569 O   0  0  0  0  0  0
  -33.5099  -19.0013   21.4190 F   0  0  0  0  0  0
  -31.4626  -12.4095   19.1373 H   0  0  0  0  0  0
  -30.3099  -11.3263   19.8604 H   0  0  0  0  0  0
  -29.7424  -11.7625   17.4489 H   0  0  0  0  0  0
  -29.6599  -13.4786   17.7609 H   0  0  0  0  0  0
  -27.8377  -11.3020   18.8416 H   0  0  0  0  0  0
  -27.3662  -12.6101   17.7898 H   0  0  0  0  0  0
  -27.6866  -14.2553   19.5443 H   0  0  0  0  0  0
  -28.6830  -12.0227   21.3812 H   0  0  0  0  0  0
  -28.4608  -13.6831   21.8481 H   0  0  0  0  0  0
  -25.2762   -9.5689   22.4752 H   0  0  0  0  0  0
  -24.0005   -7.4637   22.7468 H   0  0  0  0  0  0
  -21.0839   -8.8772   19.8953 H   0  0  0  0  0  0
  -22.3691  -10.9672   19.6162 H   0  0  0  0  0  0
  -21.2004   -7.6144   23.9714 H   0  0  0  0  0  0
  -21.1479   -6.0521   25.9077 H   0  0  0  0  0  0
  -22.0598   -2.7607   23.2850 H   0  0  0  0  0  0
  -22.4101  -11.9885   22.4794 H   0  0  0  0  0  0
  -21.1109  -13.1254   22.2607 H   0  0  0  0  0  0
  -24.6570  -15.8415   20.5044 H   0  0  0  0  0  0
  -26.2698  -15.6236   20.0518 H   0  0  0  0  0  0
  -26.7134  -32.5522   23.1158 H   0  0  0  0  0  0
  -25.0062  -33.9776   25.0473 H   0  0  0  0  0  0
  -22.6977  -31.3091   21.4113 H   0  0  0  0  0  0
  -23.3749  -35.9643   23.3309 H   0  0  0  0  0  0
  -24.3583  -36.8915   22.2051 H   0  0  0  0  0  0
  -23.7238  -37.6517   23.6645 H   0  0  0  0  0  0
  -26.0600  -31.5929   20.6024 H   0  0  0  0  0  0
  -26.8262  -30.8747   21.9904 H   0  0  0  0  0  0
  -28.1052  -29.0606   21.1873 H   0  0  0  0  0  0
  -26.0404  -25.9711   18.9988 H   0  0  0  0  0  0
  -23.9752  -27.3151   19.0122 H   0  0  0  0  0  0
  -23.7272  -30.6070   19.4056 H   0  0  0  0  0  0
  -22.7418  -29.2511   19.8639 H   0  0  0  0  0  0
  -25.1281  -36.1974   25.0830 H   0  0  0  0  0  0
  -20.9964  -28.3242   24.1427 H   0  0  0  0  0  0
  -20.5671  -26.2277   23.3607 H   0  0  0  0  0  0
  -21.6639  -26.7447   22.1211 H   0  0  0  0  0  0
  -19.6910  -25.6301   21.1234 H   0  0  0  0  0  0
  -19.6688  -27.3203   20.6745 H   0  0  0  0  0  0
  -17.4196  -26.6677   21.4022 H   0  0  0  0  0  0
  -18.0324  -26.0065   22.9015 H   0  0  0  0  0  0
  -19.7932  -30.7257   24.2286 H   0  0  0  0  0  0
  -17.5015  -31.6266   24.5165 H   0  0  0  0  0  0
  -15.5349  -30.2994   23.7646 H   0  0  0  0  0  0
  -15.8665  -28.0827   22.7059 H   0  0  0  0  0  0
  -24.5909  -30.7060   25.7813 H   0  0  0  0  0  0
  -24.8930  -32.2873   26.4919 H   0  0  0  0  0  0
  -25.8089  -30.8886   27.0233 H   0  0  0  0  0  0
  -26.2851  -29.6801   24.1165 H   0  0  0  0  0  0
  -27.4052  -29.7266   25.4586 H   0  0  0  0  0  0
  -27.8699  -30.4340   23.9287 H   0  0  0  0  0  0
  -27.2677  -33.3607   26.2090 H   0  0  0  0  0  0
  -28.3849  -32.6889   25.0303 H   0  0  0  0  0  0
  -28.0739  -31.8424   26.5382 H   0  0  0  0  0  0
  -28.2603  -38.0103   24.7518 H   0  0  0  0  0  0
  -28.1073  -36.2636   24.6276 H   0  0  0  0  0  0
  -27.2305  -37.1448   25.8869 H   0  0  0  0  0  0
  -20.9314  -29.8762   21.6934 H   0  0  0  0  0  0
  -26.0182  -38.2872   24.1416 H   0  0  0  0  0  0
  -28.4260  -17.7654   21.0674 H   0  0  0  0  0  0
  -31.5640  -20.7247   21.4603 H   0  0  0  0  0  0
  -32.5955  -16.5962   21.2397 H   0  0  0  0  0  0
  -27.2263  -25.3677   21.4065 H   0  0  0  0  0  0
  -29.0593  -15.3899   21.2649 H   0  0  0  0  0  0
  -29.8798  -21.8183   20.3273 H   0  0  0  0  0  0
  -27.6619  -19.2841   22.5546 H   0  0  0  0  0  0
  -27.0994  -20.9204   22.3027 H   0  0  0  0  0  0
  -29.9115  -25.0042   19.3343 H   0  0  0  0  0  0
  1 25  1  0  0  0
  1 30  2  0  0  0
  1 81  1  0  0  0
  2  3  1  0  0  0
  2 25  1  0  0  0
  2 87  1  0  0  0
  2 88  1  0  0  0
  3  4  1  0  0  0
  3 89  1  0  0  0
  3 90  1  0  0  0
  4  5  1  0  0  0
  4 91  1  0  0  0
  4 92  1  0  0  0
  5  6  1  0  0  0
  5 26  1  0  0  0
  5 93  1  0  0  0
  6 25  1  0  0  0
  6 94  1  0  0  0
  6 95  1  0  0  0
  7  8  2  0  0  0
  7 26  1  0  0  0
  7 29  1  0  0  0
  8  9  1  0  0  0
  8 22  1  0  0  0
  9 10  1  0  0  0
  9 27  2  0  0  0
 10 11  2  0  0  0
 10 15  1  0  0  0
 11 12  1  0  0  0
 11 96  1  0  0  0
 12 13  2  0  0  0
 12 97  1  0  0  0
 13 14  1  0  0  0
 13 31  1  0  0  0
 14 15  2  0  0  0
 14 98  1  0  0  0
 15 99  1  0  0  0
 16 17  2  0  0  0
 16 21  1  0  0  0
 16 31  1  0  0  0
 17 18  1  0  0  0
 17100  1  0  0  0
 18 19  2  0  0  0
 18101  1  0  0  0
 19 20  1  0  0  0
 19 24  1  0  0  0
 20 21  2  0  0  0
 20102  1  0  0  0
 21 23  1  0  0  0
 22 28  1  0  0  0
 22 32  2  0  0  0
 26 27  1  0  0  0
 28103  1  0  0  0
 28104  1  0  0  0
 29105  1  0  0  0
 29106  1  0  0  0
 33 34  1  0  0  0
 33 66  1  0  0  0
 33 70  2  0  0  0
 34 36  1  0  0  0
 34 59  1  0  0  0
 34107  1  0  0  0
 35 44  2  0  0  0
 35 45  1  0  0  0
 35 68  1  0  0  0
 36 56  1  0  0  0
 36108  1  0  0  0
 37 39  1  0  0  0
 37 47  1  0  0  0
 37 66  1  0  0  0
 37109  1  0  0  0
 38 43  2  0  0  0
 38 46  1  0  0  0
 38 47  1  0  0  0
 39 64  1  0  0  0
 39 67  2  0  0  0
 40 52  1  0  0  0
 40 53  2  0  0  0
 40 58  1  0  0  0
 41110  1  0  0  0
 41111  1  0  0  0
 41112  1  0  0  0
 41 48  1  0  0  0
 42 43  1  0  0  0
 42 66  1  0  0  0
 42113  1  0  0  0
 42114  1  0  0  0
 43 44  1  0  0  0
 44115  1  0  0  0
 45 46  2  0  0  0
 45116  1  0  0  0
 46117  1  0  0  0
 47118  1  0  0  0
 47119  1  0  0  0
 48 56  1  0  0  0
 48 65  1  0  0  0
 48120  1  0  0  0
 49 50  1  0  0  0
 49 53  1  0  0  0
 49 64  1  0  0  0
 49121  1  0  0  0
 50 51  1  0  0  0
 50122  1  0  0  0
 50123  1  0  0  0
 51 52  1  0  0  0
 51124  1  0  0  0
 51125  1  0  0  0
 52126  1  0  0  0
 52127  1  0  0  0
 53 54  1  0  0  0
 54 55  2  0  0  0
 54128  1  0  0  0
 55 57  1  0  0  0
 55129  1  0  0  0
 56 69  2  0  0  0
 57 58  2  0  0  0
 57130  1  0  0  0
 58131  1  0  0  0
 59 60  1  0  0  0
 59 61  1  0  0  0
 59 62  1  0  0  0
 60132  1  0  0  0
 60133  1  0  0  0
 60134  1  0  0  0
 61135  1  0  0  0
 61136  1  0  0  0
 61137  1  0  0  0
 62138  1  0  0  0
 62139  1  0  0  0
 62140  1  0  0  0
 63 65  1  0  0  0
 63141  1  0  0  0
 63142  1  0  0  0
 63143  1  0  0  0
 64144  1  0  0  0
 65145  1  0  0  0
 68 77  1  0  0  0
 71 74  2  0  0  0
 71 75  1  0  0  0
 71146  1  0  0  0
 72 74  1  0  0  0
 72 76  2  0  0  0
 72147  1  0  0  0
 73 75  2  0  0  0
 73 76  1  0  0  0
 73148  1  0  0  0
 74 78  1  0  0  0
 75 81  1  0  0  0
 76 86  1  0  0  0
 77 79  2  0  0  0
 77149  1  0  0  0
 78 82  1  0  0  0
 78 83  2  0  0  0
 79 80  1  0  0  0
 79 85  1  0  0  0
 80 82  1  0  0  0
 80 84  2  0  0  0
 81150  1  0  0  0
 82151  1  0  0  0
 83152  1  0  0  0
 83153  1  0  0  0
 85154  1  0  0  0
M  CHG  1  83   1
M  ISO  4   1 100  68 101  77 101  81 100
M  END
> <chiral flag>
0

> <version>
0

> <s_m_source_file>
/data/baiqing/PycharmProjects/Reinvent-master-3.2/result/LINK_invent/BTK/process_docking_weight1_custom_product_contain_oxygen_bond_distance_aromatic_linkinvent_7_9_3/rearranged_h_0165.sdf

> <i_m_source_file_index>
33

> <r_mmod_Potential_Energy-OPLS-2005>
-408.953247070312

> <r_mmod_Stretch_Energy-OPLS-2005>
48.6685600280762

> <r_mmod_Bend_Energy-OPLS-2005>
108.268493652344

> <r_mmod_Torsional_Energy-OPLS-2005>
203.220993041992

> <r_mmod_Improper_Torsional_Energy-OPLS-2005>
4.78966283798218

> <r_mmod_Van_der_Waal_Energy-OPLS-2005>
176.813690185547

> <r_mmod_Electrostatic_Energy-OPLS-2005>
-533.11865234375

> <r_mmod_Solvation_Energy-OPLS-2005>
-440.193572998047

> <b_mmod_Minimization_Converged-OPLS-2005>
0

> <r_mmod_RMS_Derivative-OPLS-2005>
0.32960057258606

$$$$
33
                    3D
 Structure written by MMmdl.
162171  0  0  1  0            999 V2000
  -29.3977  -16.4224   19.9551 C   0  0  0  0  0  0
  -30.1956  -13.7352   19.4938 C   0  0  0  0  0  0
  -29.5054  -12.8646   18.3851 C   0  0  0  0  0  0
  -28.1640  -12.2943   18.8566 C   0  0  0  0  0  0
  -27.4648  -13.3402   19.7442 C   0  0  2  0  0  0
  -28.3455  -13.9926   20.8229 C   0  0  0  0  0  0
  -25.1693  -13.8226   20.5713 C   0  0  0  0  0  0
  -24.1290  -13.0315   20.9394 C   0  0  0  0  0  0
  -24.6117  -11.6879   20.8797 C   0  0  0  0  0  0
  -23.8983  -10.4227   21.0408 C   0  0  0  0  0  0
  -24.3544   -9.4197   21.9215 C   0  0  0  0  0  0
  -23.6232   -8.2224   22.0772 C   0  0  0  0  0  0
  -22.4256   -8.0212   21.3513 C   0  0  0  0  0  0
  -21.9854   -9.0209   20.4655 C   0  0  0  0  0  0
  -22.7180  -10.2078   20.3069 C   0  0  0  0  0  0
  -21.6844   -6.0722   22.5308 C   0  0  0  0  0  0
  -21.4014   -6.5639   23.8238 C   0  0  0  0  0  0
  -21.3630   -5.6775   24.9178 C   0  0  0  0  0  0
  -21.6046   -4.3053   24.7221 C   0  0  0  0  0  0
  -21.8820   -3.8153   23.4341 C   0  0  0  0  0  0
  -21.9168   -4.6956   22.3398 C   0  0  0  0  0  0
  -22.7371  -13.5047   21.2045 C   0  0  0  0  0  0
  -22.1661   -4.2133   21.0977 F   0  0  0  0  0  0
  -21.5582   -3.4548   25.7736 F   0  0  0  0  0  0
  -29.2598  -14.8817   20.0700 N   0  0  0  0  0  0
  -26.1981  -12.9552   20.2883 N   0  0  0  0  0  0
  -25.8978  -11.6641   20.5500 N   0  0  0  0  0  0
  -22.0029  -12.8061   22.0609 N   0  0  0  0  0  0
  -25.3330  -15.1975   20.4126 N   0  0  0  0  0  0
  -30.6670  -16.4100   19.8333 O   0  0  0  0  0  0
  -21.6601   -6.8830   21.4264 O   0  0  0  0  0  0
  -22.3121  -14.5390   20.6880 O   0  0  0  0  0  0
  -24.5167  -31.6364   22.7400 C   0  0  0  0  0  0
  -25.7861  -32.3745   23.5124 C   0  0  1  0  0  0
  -28.2686  -27.6833   19.9709 C   0  0  0  0  0  0
  -25.4141  -33.7631   23.9224 N   0  0  0  0  0  0
  -23.4466  -29.3820   21.6151 C   0  0  2  0  0  0
  -25.9188  -27.2216   20.6510 C   0  0  0  0  0  0
  -22.5317  -29.3213   22.7558 C   0  0  0  0  0  0
  -17.9592  -28.1301   22.8489 C   0  0  0  0  0  0
  -24.1370  -36.7100   23.2774 C   0  0  0  0  0  0
  -25.5767  -30.4255   20.3340 C   0  0  0  0  0  0
  -26.4013  -28.7980   19.9433 C   0  0  0  0  0  0
  -27.6918  -28.8860   19.6355 C   0  0  0  0  0  0
  -27.6270  -26.4931   19.5643 C   0  0  0  0  0  0
  -26.6395  -26.1755   20.4543 C   0  0  0  0  0  0
  -24.0599  -27.4378   21.7200 C   0  0  0  0  0  0
  -25.4088  -36.2522   24.0091 C   0  0  1  0  0  0
  -20.4627  -28.2828   23.1994 C   0  0  2  0  0  0
  -20.5403  -26.8528   22.6105 C   0  0  0  0  0  0
  -19.4975  -26.5964   21.5287 C   0  0  0  0  0  0
  -18.1058  -26.8046   22.1202 C   0  0  0  0  0  0
  -19.0749  -28.8517   23.3242 C   0  0  0  0  0  0
  -18.8982  -30.1268   23.9095 C   0  0  0  0  0  0
  -17.6059  -30.6593   24.0581 C   0  0  0  0  0  0
  -25.8967  -34.9067   23.4145 C   0  0  0  0  0  0
  -16.4915  -29.9178   23.6318 C   0  0  0  0  0  0
  -16.6704  -28.6625   23.0214 C   0  0  0  0  0  0
  -26.4135  -31.7503   24.8995 C   0  0  0  0  0  0
  -25.3721  -31.3086   25.9571 C   0  0  0  0  0  0
  -27.3147  -30.5666   24.6106 C   0  0  0  0  0  0
  -27.4046  -32.7215   25.6242 C   0  0  0  0  0  0
  -27.5531  -37.1427   24.8398 C   0  0  0  0  0  0
  -21.2767  -29.1728   22.4217 N   0  0  0  0  0  0
  -26.4085  -37.3493   23.9586 N   0  0  0  0  0  0
  -24.4446  -30.7372   21.5533 N   0  0  0  0  0  0
  -22.9716  -29.0527   23.8653 O   0  0  0  0  0  0
  -28.3597  -27.5734   21.3273 O   0  0  0  0  0  0
  -26.6717  -34.9242   22.4577 O   0  0  0  0  0  0
  -23.4842  -31.9376   23.3655 O   0  0  0  0  0  0
  -27.0120  -21.2315   19.6159 C   0  0  0  0  0  0
  -26.4421  -19.2884   18.4240 C   0  0  0  0  0  0
  -25.9289  -22.4761   18.9547 C   0  0  0  0  0  0
  -27.4418  -19.5071   19.4092 C   0  0  0  0  0  0
  -25.5064  -21.5875   17.8673 C   0  0  0  0  0  0
  -25.4251  -24.4380   18.7597 C   0  0  0  0  0  0
  -25.8460  -28.8325   22.2510 C   0  0  0  0  0  0
  -25.4409  -21.2527   15.2210 C   0  0  0  0  0  0
  -26.0771  -22.5766   15.4390 C   0  0  0  0  0  0
  -25.0714  -22.0764   16.4730 C   0  0  0  0  0  0
  -23.9217  -26.2530   17.6767 C   0  0  0  0  0  0
  -24.2396  -28.0351   19.6210 C   0  0  0  0  0  0
  -27.5569  -28.4617   22.3231 C   0  0  0  0  0  0
  -25.6136  -20.2005   17.7773 N   0  0  0  0  0  0
  -28.3328  -17.8198   19.9988 N   0  0  0  0  0  0
  -24.4693  -25.9485   19.0315 N   0  0  0  0  0  0
  -26.1464  -24.7048   17.7981 O   0  0  0  0  0  0
  -25.4267  -28.9501   23.3907 O   0  0  0  0  0  0
  -31.0674  -14.1889   19.0206 H   0  0  0  0  0  0
  -30.6180  -13.1322   20.3011 H   0  0  0  0  0  0
  -30.1780  -12.0747   18.0543 H   0  0  0  0  0  0
  -29.3175  -13.5013   17.5178 H   0  0  0  0  0  0
  -28.3501  -11.3874   19.4391 H   0  0  0  0  0  0
  -27.5417  -12.0153   18.0045 H   0  0  0  0  0  0
  -27.2105  -14.1186   19.0175 H   0  0  0  0  0  0
  -28.8200  -13.2641   21.4823 H   0  0  0  0  0  0
  -27.7418  -14.6292   21.4761 H   0  0  0  0  0  0
  -25.2654   -9.5669   22.4834 H   0  0  0  0  0  0
  -23.9944   -7.4580   22.7466 H   0  0  0  0  0  0
  -21.0789   -8.8693   19.8929 H   0  0  0  0  0  0
  -22.3635  -10.9591   19.6157 H   0  0  0  0  0  0
  -21.2098   -7.6167   23.9725 H   0  0  0  0  0  0
  -21.1427   -6.0525   25.9052 H   0  0  0  0  0  0
  -22.0630   -2.7628   23.2853 H   0  0  0  0  0  0
  -22.3662  -11.9774   22.5011 H   0  0  0  0  0  0
  -21.0619  -13.1084   22.2765 H   0  0  0  0  0  0
  -24.5770  -15.8535   20.5571 H   0  0  0  0  0  0
  -26.1685  -15.6207   20.0314 H   0  0  0  0  0  0
  -26.5796  -32.4607   22.7710 H   0  0  0  0  0  0
  -24.6992  -33.8315   24.6354 H   0  0  0  0  0  0
  -22.8015  -29.6137   20.7589 H   0  0  0  0  0  0
  -23.3843  -35.9222   23.2656 H   0  0  0  0  0  0
  -24.3456  -36.9781   22.2412 H   0  0  0  0  0  0
  -23.6843  -37.5759   23.7626 H   0  0  0  0  0  0
  -25.0559  -30.7243   19.4190 H   0  0  0  0  0  0
  -26.3618  -31.1784   20.4125 H   0  0  0  0  0  0
  -28.1888  -29.8164   19.3879 H   0  0  0  0  0  0
  -28.3371  -25.6768   19.4427 H   0  0  0  0  0  0
  -26.6354  -25.2749   21.0759 H   0  0  0  0  0  0
  -23.3214  -26.7243   21.3299 H   0  0  0  0  0  0
  -24.0762  -27.0139   22.7250 H   0  0  0  0  0  0
  -25.1429  -36.0779   25.0537 H   0  0  0  0  0  0
  -20.8069  -28.1872   24.2347 H   0  0  0  0  0  0
  -20.3470  -26.1350   23.4141 H   0  0  0  0  0  0
  -21.5198  -26.5866   22.2368 H   0  0  0  0  0  0
  -19.5793  -25.5796   21.1399 H   0  0  0  0  0  0
  -19.6435  -27.2621   20.6773 H   0  0  0  0  0  0
  -17.3617  -26.7759   21.3204 H   0  0  0  0  0  0
  -17.8650  -26.0016   22.8166 H   0  0  0  0  0  0
  -19.7535  -30.7009   24.2434 H   0  0  0  0  0  0
  -17.4634  -31.6299   24.5200 H   0  0  0  0  0  0
  -15.4901  -30.3003   23.7744 H   0  0  0  0  0  0
  -15.8146  -28.1022   22.6674 H   0  0  0  0  0  0
  -24.6770  -30.5795   25.5425 H   0  0  0  0  0  0
  -24.7867  -32.1322   26.3569 H   0  0  0  0  0  0
  -25.8719  -30.8167   26.7928 H   0  0  0  0  0  0
  -26.8835  -29.6160   24.8912 H   0  0  0  0  0  0
  -28.2542  -30.5432   25.1638 H   0  0  0  0  0  0
  -27.5773  -30.7130   23.5694 H   0  0  0  0  0  0
  -26.8920  -33.6036   26.0115 H   0  0  0  0  0  0
  -28.1769  -33.0966   24.9465 H   0  0  0  0  0  0
  -27.9100  -32.2828   26.4882 H   0  0  0  0  0  0
  -28.2139  -38.0085   24.8015 H   0  0  0  0  0  0
  -28.1381  -36.2713   24.5469 H   0  0  0  0  0  0
  -27.2388  -37.0116   25.8755 H   0  0  0  0  0  0
  -21.0560  -29.2420   21.4324 H   0  0  0  0  0  0
  -25.9796  -38.2370   24.2116 H   0  0  0  0  0  0
  -27.6349  -21.6746   20.3820 H   0  0  0  0  0  0
  -26.2705  -18.2719   18.1029 H   0  0  0  0  0  0
  -26.1000  -20.3867   15.3361 H   0  0  0  0  0  0
  -24.7762  -21.2113   14.3515 H   0  0  0  0  0  0
  -25.7858  -23.3199   14.6979 H   0  0  0  0  0  0
  -27.1435  -22.5449   15.6520 H   0  0  0  0  0  0
  -24.0760  -22.5259   16.4711 H   0  0  0  0  0  0
  -23.5240  -25.4038   17.1166 H   0  0  0  0  0  0
  -24.7153  -26.7021   17.0650 H   0  0  0  0  0  0
  -23.1178  -26.9933   17.6514 H   0  0  0  0  0  0
  -24.3556  -28.6944   18.7494 H   0  0  0  0  0  0
  -23.1365  -28.0489   19.6442 H   0  0  0  0  0  0
  -27.5302  -27.7724   23.1601 H   0  0  0  0  0  0
  -28.2703  -29.2201   22.6570 H   0  0  0  0  0  0
  -27.5993  -17.3917   20.5346 H   0  0  0  0  0  0
  1 25  1  0  0  0
  1 30  2  0  0  0
  1 85  1  0  0  0
  2  3  1  0  0  0
  2 25  1  0  0  0
  2 89  1  0  0  0
  2 90  1  0  0  0
  3  4  1  0  0  0
  3 91  1  0  0  0
  3 92  1  0  0  0
  4  5  1  0  0  0
  4 93  1  0  0  0
  4 94  1  0  0  0
  5  6  1  0  0  0
  5 26  1  0  0  0
  5 95  1  0  0  0
  6 25  1  0  0  0
  6 96  1  0  0  0
  6 97  1  0  0  0
  7  8  2  0  0  0
  7 26  1  0  0  0
  7 29  1  0  0  0
  8  9  1  0  0  0
  8 22  1  0  0  0
  9 10  1  0  0  0
  9 27  2  0  0  0
 10 11  2  0  0  0
 10 15  1  0  0  0
 11 12  1  0  0  0
 11 98  1  0  0  0
 12 13  2  0  0  0
 12 99  1  0  0  0
 13 14  1  0  0  0
 13 31  1  0  0  0
 14 15  2  0  0  0
 14100  1  0  0  0
 15101  1  0  0  0
 16 17  2  0  0  0
 16 21  1  0  0  0
 16 31  1  0  0  0
 17 18  1  0  0  0
 17102  1  0  0  0
 18 19  2  0  0  0
 18103  1  0  0  0
 19 20  1  0  0  0
 19 24  1  0  0  0
 20 21  2  0  0  0
 20104  1  0  0  0
 21 23  1  0  0  0
 22 28  1  0  0  0
 22 32  2  0  0  0
 26 27  1  0  0  0
 28105  1  0  0  0
 28106  1  0  0  0
 29107  1  0  0  0
 29108  1  0  0  0
 33 34  1  0  0  0
 33 66  1  0  0  0
 33 70  2  0  0  0
 34 36  1  0  0  0
 34 59  1  0  0  0
 34109  1  0  0  0
 35 44  2  0  0  0
 35 45  1  0  0  0
 35 68  1  0  0  0
 36 56  1  0  0  0
 36110  1  0  0  0
 37 39  1  0  0  0
 37 47  1  0  0  0
 37 66  1  0  0  0
 37111  1  0  0  0
 38 43  2  0  0  0
 38 46  1  0  0  0
 38 47  1  0  0  0
 39 64  1  0  0  0
 39 67  2  0  0  0
 40 52  1  0  0  0
 40 53  2  0  0  0
 40 58  1  0  0  0
 41112  1  0  0  0
 41113  1  0  0  0
 41114  1  0  0  0
 41 48  1  0  0  0
 42 43  1  0  0  0
 42 66  1  0  0  0
 42115  1  0  0  0
 42116  1  0  0  0
 43 44  1  0  0  0
 44117  1  0  0  0
 45 46  2  0  0  0
 45118  1  0  0  0
 46119  1  0  0  0
 47120  1  0  0  0
 47121  1  0  0  0
 48 56  1  0  0  0
 48 65  1  0  0  0
 48122  1  0  0  0
 49 50  1  0  0  0
 49 53  1  0  0  0
 49 64  1  0  0  0
 49123  1  0  0  0
 50 51  1  0  0  0
 50124  1  0  0  0
 50125  1  0  0  0
 51 52  1  0  0  0
 51126  1  0  0  0
 51127  1  0  0  0
 52128  1  0  0  0
 52129  1  0  0  0
 53 54  1  0  0  0
 54 55  2  0  0  0
 54130  1  0  0  0
 55 57  1  0  0  0
 55131  1  0  0  0
 56 69  2  0  0  0
 57 58  2  0  0  0
 57132  1  0  0  0
 58133  1  0  0  0
 59 60  1  0  0  0
 59 61  1  0  0  0
 59 62  1  0  0  0
 60134  1  0  0  0
 60135  1  0  0  0
 60136  1  0  0  0
 61137  1  0  0  0
 61138  1  0  0  0
 61139  1  0  0  0
 62140  1  0  0  0
 62141  1  0  0  0
 62142  1  0  0  0
 63 65  1  0  0  0
 63143  1  0  0  0
 63144  1  0  0  0
 63145  1  0  0  0
 64146  1  0  0  0
 65147  1  0  0  0
 68 83  1  0  0  0
 71 73  2  0  0  0
 71 74  1  0  0  0
 71148  1  0  0  0
 72 74  2  0  0  0
 72 84  1  0  0  0
 72149  1  0  0  0
 73 75  1  0  0  0
 73 76  1  0  0  0
 74 85  1  0  0  0
 75 84  2  0  0  0
 75 80  1  0  0  0
 76 86  1  0  0  0
 76 87  2  0  0  0
 77 82  1  0  0  0
 77 83  1  0  0  0
 77 88  2  0  0  0
 78 79  1  0  0  0
 78 80  1  0  0  0
 78150  1  0  0  0
 78151  1  0  0  0
 79 80  1  0  0  0
 79152  1  0  0  0
 79153  1  0  0  0
 80154  1  0  0  0
 81 86  1  0  0  0
 81155  1  0  0  0
 81156  1  0  0  0
 81157  1  0  0  0
 82 86  1  0  0  0
 82158  1  0  0  0
 82159  1  0  0  0
 83160  1  0  0  0
 83161  1  0  0  0
 85162  1  0  0  0
M  ISO  4   1 100  68 101  83 101  85 100
M  END
> <chiral flag>
0

> <version>
0

> <s_m_source_file>
/data/baiqing/PycharmProjects/Reinvent-master-3.2/result/LINK_invent/BTK/process_docking_weight1_custom_product_contain_oxygen_bond_distance_aromatic_linkinvent_7_9_3/rearranged_h_0165.sdf

> <i_m_source_file_index>
34

> <r_mmod_Potential_Energy-OPLS-2005>
18287.1796875

> <r_mmod_Stretch_Energy-OPLS-2005>
8734.447265625

> <r_mmod_Bend_Energy-OPLS-2005>
1643.91186523438

> <r_mmod_Torsional_Energy-OPLS-2005>
734.483581542969

> <r_mmod_Improper_Torsional_Energy-OPLS-2005>
88.4534683227539

> <r_mmod_Van_der_Waal_Energy-OPLS-2005>
2774.50024414062

> <r_mmod_Electrostatic_Energy-OPLS-2005>
-535.753112792969

> <r_mmod_Solvation_Energy-OPLS-2005>
-270.200561523438

> <b_mmod_Minimization_Converged-OPLS-2005>
0

> <r_mmod_RMS_Derivative-OPLS-2005>
37.9289360046387

$$$$
34
                    3D
 Structure written by MMmdl.
164173  0  0  1  0            999 V2000
  -30.6952  -14.4832   20.5933 C   0  0  0  0  0  0
  -30.4304  -12.3196   19.4225 C   0  0  0  0  0  0
  -29.4986  -12.5186   18.2086 C   0  0  0  0  0  0
  -28.0191  -12.3800   18.6174 C   0  0  0  0  0  0
  -27.6664  -13.2087   19.8809 C   0  0  2  0  0  0
  -28.7075  -12.9765   20.9996 C   0  0  0  0  0  0
  -25.2616  -13.8169   20.5697 C   0  0  0  0  0  0
  -24.1856  -13.0447   20.9171 C   0  0  0  0  0  0
  -24.6405  -11.6912   20.8719 C   0  0  0  0  0  0
  -23.9067  -10.4298   21.0392 C   0  0  0  0  0  0
  -24.3612   -9.4217   21.9175 C   0  0  0  0  0  0
  -23.6288   -8.2257   22.0756 C   0  0  0  0  0  0
  -22.4269   -8.0290   21.3550 C   0  0  0  0  0  0
  -21.9901   -9.0264   20.4651 C   0  0  0  0  0  0
  -22.7237  -10.2141   20.3051 C   0  0  0  0  0  0
  -21.6856   -6.0731   22.5276 C   0  0  0  0  0  0
  -21.4019   -6.5632   23.8209 C   0  0  0  0  0  0
  -21.3662   -5.6788   24.9171 C   0  0  0  0  0  0
  -21.6044   -4.3051   24.7225 C   0  0  0  0  0  0
  -21.8820   -3.8143   23.4346 C   0  0  0  0  0  0
  -21.9196   -4.6958   22.3400 C   0  0  0  0  0  0
  -22.7880  -13.5254   21.1828 C   0  0  0  0  0  0
  -22.1665   -4.2145   21.0977 F   0  0  0  0  0  0
  -21.5626   -3.4537   25.7739 F   0  0  0  0  0  0
  -30.0439  -13.2924   20.4582 N   0  0  0  0  0  0
  -26.3053  -12.9338   20.3386 N   0  0  0  0  0  0
  -25.9334  -11.6497   20.5750 N   0  0  0  0  0  0
  -22.0505  -12.8261   22.0379 N   0  0  0  0  0  0
  -25.4359  -15.1884   20.4127 N   0  0  0  0  0  0
  -31.7937  -14.7033   20.0743 O   0  0  0  0  0  0
  -21.6646   -6.8879   21.4240 O   0  0  0  0  0  0
  -22.3575  -14.5564   20.6673 O   0  0  0  0  0  0
  -24.6185  -31.8677   23.2125 C   0  0  0  0  0  0
  -25.9077  -32.4812   23.8408 C   0  0  1  0  0  0
  -27.2230  -27.3944   20.0753 C   0  0  0  0  0  0
  -25.5922  -33.8613   24.2331 N   0  0  0  0  0  0
  -23.4065  -30.4971   21.5547 C   0  0  2  0  0  0
  -24.8487  -28.9708   20.1112 C   0  0  0  0  0  0
  -22.7429  -29.4659   22.4973 C   0  0  0  0  0  0
  -18.0274  -28.1380   22.8485 C   0  0  0  0  0  0
  -24.1487  -36.7309   23.2631 C   0  0  0  0  0  0
  -25.9447  -30.8134   21.3812 C   0  0  0  0  0  0
  -26.0150  -29.4493   20.7207 C   0  0  0  0  0  0
  -27.1994  -28.6654   20.7107 C   0  0  0  0  0  0
  -26.0312  -26.9672   19.4330 C   0  0  0  0  0  0
  -24.8542  -27.7282   19.4676 C   0  0  0  0  0  0
  -23.6162  -29.8441   20.1653 C   0  0  0  0  0  0
  -25.4104  -36.3099   24.0333 C   0  0  1  0  0  0
  -20.5868  -28.3671   23.1304 C   0  0  2  0  0  0
  -20.6767  -26.9406   22.5408 C   0  0  0  0  0  0
  -19.5740  -26.6383   21.5208 C   0  0  0  0  0  0
  -18.1921  -26.7924   22.1623 C   0  0  0  0  0  0
  -19.1526  -28.8843   23.2890 C   0  0  0  0  0  0
  -18.9457  -30.1449   23.8897 C   0  0  0  0  0  0
  -17.6459  -30.6583   24.0562 C   0  0  0  0  0  0
  -25.9041  -34.9469   23.5126 C   0  0  0  0  0  0
  -16.5349  -29.9084   23.6325 C   0  0  0  0  0  0
  -16.7264  -28.6505   23.0340 C   0  0  0  0  0  0
  -26.4492  -31.6587   25.0742 C   0  0  0  0  0  0
  -25.3754  -31.3707   26.1485 C   0  0  0  0  0  0
  -27.0320  -30.3008   24.6163 C   0  0  0  0  0  0
  -27.6057  -32.4311   25.7508 C   0  0  0  0  0  0
  -27.5582  -37.1801   24.8456 C   0  0  0  0  0  0
  -21.4154  -29.3041   22.3713 N   0  0  0  0  0  0
  -26.4281  -37.3790   23.9417 N   0  0  0  0  0  0
  -24.6746  -31.0746   22.1058 N   0  0  0  0  0  0
  -23.4192  -28.8176   23.3004 O   0  0  0  0  0  0
  -28.3752  -26.6060   20.1091 O   0  0  0  0  0  0
  -26.5602  -34.8923   22.4687 O   0  0  0  0  0  0
  -23.5370  -32.1464   23.7490 O   0  0  0  0  0  0
  -28.5942  -18.8751   21.3020 C   0  0  0  0  0  0
  -28.7723  -17.4897   21.4986 C   0  0  0  0  0  0
  -31.0047  -17.6453   20.5707 C   0  0  0  0  0  0
  -29.6039  -19.6741   20.7164 C   0  0  0  0  0  0
  -29.9639  -16.8431   21.1069 C   0  0  0  0  0  0
  -30.8304  -19.0420   20.3816 C   0  0  0  0  0  0
  -29.7073  -21.6671   19.0279 C   0  0  0  0  0  0
  -29.7628  -22.1907   21.4594 C   0  0  0  0  0  0
  -29.0451  -23.0316   18.7271 C   0  0  0  0  0  0
  -29.1146  -23.5830   21.2001 C   0  0  0  0  0  0
  -29.2845  -21.1588   20.4174 C   0  0  2  0  0  0
  -29.3331  -24.1607   19.7647 C   0  0  2  0  0  0
  -31.2933  -25.5273   20.2754 C   0  0  0  0  0  0
  -28.3376  -25.3282   19.4200 C   0  0  0  0  0  0
  -30.0201  -15.4193   21.2920 N   0  0  0  0  0  0
  -30.7003  -24.4916   19.5014 O   0  0  0  0  0  0
  -31.8510  -19.7628   19.8599 F   0  0  0  0  0  0
  -31.4732  -12.4281   19.1183 H   0  0  0  0  0  0
  -30.3401  -11.3044   19.8117 H   0  0  0  0  0  0
  -29.7355  -11.7957   17.4271 H   0  0  0  0  0  0
  -29.6689  -13.5049   17.7733 H   0  0  0  0  0  0
  -27.8206  -11.3230   18.7999 H   0  0  0  0  0  0
  -27.3737  -12.6704   17.7877 H   0  0  0  0  0  0
  -27.7144  -14.2597   19.5941 H   0  0  0  0  0  0
  -28.6852  -11.9359   21.3258 H   0  0  0  0  0  0
  -28.4548  -13.5565   21.8881 H   0  0  0  0  0  0
  -25.2750   -9.5698   22.4761 H   0  0  0  0  0  0
  -23.9996   -7.4648   22.7475 H   0  0  0  0  0  0
  -21.0832   -8.8785   19.8958 H   0  0  0  0  0  0
  -22.3689  -10.9681   19.6165 H   0  0  0  0  0  0
  -21.2013   -7.6141   23.9708 H   0  0  0  0  0  0
  -21.1481   -6.0519   25.9073 H   0  0  0  0  0  0
  -22.0596   -2.7604   23.2850 H   0  0  0  0  0  0
  -22.4098  -11.9918   22.4781 H   0  0  0  0  0  0
  -21.1126  -13.1306   22.2564 H   0  0  0  0  0  0
  -24.6714  -15.8466   20.5180 H   0  0  0  0  0  0
  -26.2900  -15.6231   20.0872 H   0  0  0  0  0  0
  -26.7137  -32.5502   23.1154 H   0  0  0  0  0  0
  -25.0069  -33.9777   25.0472 H   0  0  0  0  0  0
  -22.6963  -31.3160   21.4219 H   0  0  0  0  0  0
  -23.3747  -35.9642   23.3283 H   0  0  0  0  0  0
  -24.3589  -36.8941   22.2050 H   0  0  0  0  0  0
  -23.7245  -37.6510   23.6660 H   0  0  0  0  0  0
  -26.0767  -31.5820   20.6182 H   0  0  0  0  0  0
  -26.8258  -30.8537   22.0096 H   0  0  0  0  0  0
  -28.0930  -29.0284   21.1991 H   0  0  0  0  0  0
  -25.9529  -26.0469   18.8773 H   0  0  0  0  0  0
  -23.9634  -27.3605   18.9759 H   0  0  0  0  0  0
  -23.7336  -30.6275   19.4153 H   0  0  0  0  0  0
  -22.7365  -29.2748   19.8596 H   0  0  0  0  0  0
  -25.1273  -36.1956   25.0821 H   0  0  0  0  0  0
  -20.9953  -28.3237   24.1427 H   0  0  0  0  0  0
  -20.5677  -26.2278   23.3596 H   0  0  0  0  0  0
  -21.6639  -26.7455   22.1198 H   0  0  0  0  0  0
  -19.6904  -25.6297   21.1229 H   0  0  0  0  0  0
  -19.6669  -27.3200   20.6742 H   0  0  0  0  0  0
  -17.4188  -26.6666   21.4026 H   0  0  0  0  0  0
  -18.0324  -26.0065   22.9020 H   0  0  0  0  0  0
  -19.7936  -30.7264   24.2259 H   0  0  0  0  0  0
  -17.5018  -31.6265   24.5163 H   0  0  0  0  0  0
  -15.5351  -30.2991   23.7646 H   0  0  0  0  0  0
  -15.8662  -28.0829   22.7045 H   0  0  0  0  0  0
  -24.5918  -30.7062   25.7831 H   0  0  0  0  0  0
  -24.8965  -32.2871   26.4943 H   0  0  0  0  0  0
  -25.8106  -30.8868   27.0238 H   0  0  0  0  0  0
  -26.2879  -29.6767   24.1199 H   0  0  0  0  0  0
  -27.4035  -29.7247   25.4649 H   0  0  0  0  0  0
  -27.8749  -30.4286   23.9367 H   0  0  0  0  0  0
  -27.2661  -33.3599   26.2102 H   0  0  0  0  0  0
  -28.3861  -32.6884   25.0336 H   0  0  0  0  0  0
  -28.0729  -31.8429   26.5416 H   0  0  0  0  0  0
  -28.2569  -38.0127   24.7544 H   0  0  0  0  0  0
  -28.1107  -36.2664   24.6212 H   0  0  0  0  0  0
  -27.2316  -37.1375   25.8861 H   0  0  0  0  0  0
  -20.9310  -29.8792   21.6962 H   0  0  0  0  0  0
  -26.0163  -38.2859   24.1438 H   0  0  0  0  0  0
  -27.6493  -19.3182   21.5843 H   0  0  0  0  0  0
  -27.9615  -16.9193   21.9311 H   0  0  0  0  0  0
  -31.9490  -17.2055   20.2872 H   0  0  0  0  0  0
  -30.7913  -21.7591   18.9590 H   0  0  0  0  0  0
  -29.4060  -20.9504   18.2639 H   0  0  0  0  0  0
  -29.4882  -21.8548   22.4598 H   0  0  0  0  0  0
  -30.8505  -22.2681   21.4447 H   0  0  0  0  0  0
  -27.9686  -22.8657   18.6571 H   0  0  0  0  0  0
  -29.3484  -23.3620   17.7322 H   0  0  0  0  0  0
  -29.4328  -24.2944   21.9604 H   0  0  0  0  0  0
  -28.0417  -23.4730   21.3629 H   0  0  0  0  0  0
  -28.1939  -21.1999   20.4241 H   0  0  0  0  0  0
  -32.3360  -25.6351   19.9764 H   0  0  0  0  0  0
  -31.2892  -25.3054   21.3415 H   0  0  0  0  0  0
  -30.8176  -26.4922   20.1106 H   0  0  0  0  0  0
  -27.3786  -24.8555   19.6194 H   0  0  0  0  0  0
  -28.3761  -25.5375   18.3493 H   0  0  0  0  0  0
  -29.2205  -15.0303   21.7677 H   0  0  0  0  0  0
  1 25  1  0  0  0
  1 30  2  0  0  0
  1 85  1  0  0  0
  2  3  1  0  0  0
  2 25  1  0  0  0
  2 88  1  0  0  0
  2 89  1  0  0  0
  3  4  1  0  0  0
  3 90  1  0  0  0
  3 91  1  0  0  0
  4  5  1  0  0  0
  4 92  1  0  0  0
  4 93  1  0  0  0
  5  6  1  0  0  0
  5 26  1  0  0  0
  5 94  1  0  0  0
  6 25  1  0  0  0
  6 95  1  0  0  0
  6 96  1  0  0  0
  7  8  2  0  0  0
  7 26  1  0  0  0
  7 29  1  0  0  0
  8  9  1  0  0  0
  8 22  1  0  0  0
  9 10  1  0  0  0
  9 27  2  0  0  0
 10 11  2  0  0  0
 10 15  1  0  0  0
 11 12  1  0  0  0
 11 97  1  0  0  0
 12 13  2  0  0  0
 12 98  1  0  0  0
 13 14  1  0  0  0
 13 31  1  0  0  0
 14 15  2  0  0  0
 14 99  1  0  0  0
 15100  1  0  0  0
 16 17  2  0  0  0
 16 21  1  0  0  0
 16 31  1  0  0  0
 17 18  1  0  0  0
 17101  1  0  0  0
 18 19  2  0  0  0
 18102  1  0  0  0
 19 20  1  0  0  0
 19 24  1  0  0  0
 20 21  2  0  0  0
 20103  1  0  0  0
 21 23  1  0  0  0
 22 28  1  0  0  0
 22 32  2  0  0  0
 26 27  1  0  0  0
 28104  1  0  0  0
 28105  1  0  0  0
 29106  1  0  0  0
 29107  1  0  0  0
 33 34  1  0  0  0
 33 66  1  0  0  0
 33 70  2  0  0  0
 34 36  1  0  0  0
 34 59  1  0  0  0
 34108  1  0  0  0
 35 44  2  0  0  0
 35 45  1  0  0  0
 35 68  1  0  0  0
 36 56  1  0  0  0
 36109  1  0  0  0
 37 39  1  0  0  0
 37 47  1  0  0  0
 37 66  1  0  0  0
 37110  1  0  0  0
 38 43  2  0  0  0
 38 46  1  0  0  0
 38 47  1  0  0  0
 39 64  1  0  0  0
 39 67  2  0  0  0
 40 52  1  0  0  0
 40 53  2  0  0  0
 40 58  1  0  0  0
 41111  1  0  0  0
 41112  1  0  0  0
 41113  1  0  0  0
 41 48  1  0  0  0
 42 43  1  0  0  0
 42 66  1  0  0  0
 42114  1  0  0  0
 42115  1  0  0  0
 43 44  1  0  0  0
 44116  1  0  0  0
 45 46  2  0  0  0
 45117  1  0  0  0
 46118  1  0  0  0
 47119  1  0  0  0
 47120  1  0  0  0
 48 56  1  0  0  0
 48 65  1  0  0  0
 48121  1  0  0  0
 49 50  1  0  0  0
 49 53  1  0  0  0
 49 64  1  0  0  0
 49122  1  0  0  0
 50 51  1  0  0  0
 50123  1  0  0  0
 50124  1  0  0  0
 51 52  1  0  0  0
 51125  1  0  0  0
 51126  1  0  0  0
 52127  1  0  0  0
 52128  1  0  0  0
 53 54  1  0  0  0
 54 55  2  0  0  0
 54129  1  0  0  0
 55 57  1  0  0  0
 55130  1  0  0  0
 56 69  2  0  0  0
 57 58  2  0  0  0
 57131  1  0  0  0
 58132  1  0  0  0
 59 60  1  0  0  0
 59 61  1  0  0  0
 59 62  1  0  0  0
 60133  1  0  0  0
 60134  1  0  0  0
 60135  1  0  0  0
 61136  1  0  0  0
 61137  1  0  0  0
 61138  1  0  0  0
 62139  1  0  0  0
 62140  1  0  0  0
 62141  1  0  0  0
 63 65  1  0  0  0
 63142  1  0  0  0
 63143  1  0  0  0
 63144  1  0  0  0
 64145  1  0  0  0
 65146  1  0  0  0
 68 84  1  0  0  0
 71 72  2  0  0  0
 71 74  1  0  0  0
 71147  1  0  0  0
 72 75  1  0  0  0
 72148  1  0  0  0
 73 75  2  0  0  0
 73 76  1  0  0  0
 73149  1  0  0  0
 74 76  2  0  0  0
 74 81  1  0  0  0
 75 85  1  0  0  0
 76 87  1  0  0  0
 77 79  1  0  0  0
 77 81  1  0  0  0
 77150  1  0  0  0
 77151  1  0  0  0
 78 80  1  0  0  0
 78 81  1  0  0  0
 78152  1  0  0  0
 78153  1  0  0  0
 79 82  1  0  0  0
 79154  1  0  0  0
 79155  1  0  0  0
 80 82  1  0  0  0
 80156  1  0  0  0
 80157  1  0  0  0
 81158  1  0  0  0
 82 84  1  0  0  0
 82 86  1  0  0  0
 83 86  1  0  0  0
 83159  1  0  0  0
 83160  1  0  0  0
 83161  1  0  0  0
 84162  1  0  0  0
 84163  1  0  0  0
 85164  1  0  0  0
M  ISO  4   1 100  68 101  84 101  85 100
M  END
> <chiral flag>
0

> <version>
0

> <s_m_source_file>
/data/baiqing/PycharmProjects/Reinvent-master-3.2/result/LINK_invent/BTK/process_docking_weight1_custom_product_contain_oxygen_bond_distance_aromatic_linkinvent_7_9_3/rearranged_h_0165.sdf

> <i_m_source_file_index>
35

> <r_mmod_Potential_Energy-OPLS-2005>
52.601634979248

> <r_mmod_Stretch_Energy-OPLS-2005>
49.4307098388672

> <r_mmod_Bend_Energy-OPLS-2005>
141.908050537109

> <r_mmod_Torsional_Energy-OPLS-2005>
234.243011474609

> <r_mmod_Improper_Torsional_Energy-OPLS-2005>
3.71322011947632

> <r_mmod_Van_der_Waal_Energy-OPLS-2005>
166.439392089844

> <r_mmod_Electrostatic_Energy-OPLS-2005>
-355.059204101562

> <r_mmod_Solvation_Energy-OPLS-2005>
-205.71240234375

> <b_mmod_Minimization_Converged-OPLS-2005>
0

> <r_mmod_RMS_Derivative-OPLS-2005>
1.1044088602066

$$$$
35
                    3D
 Structure written by MMmdl.
151159  0  0  1  0            999 V2000
  -30.6656  -14.5472   20.5487 C   0  0  0  0  0  0
  -30.4271  -12.3490   19.4315 C   0  0  0  0  0  0
  -29.4975  -12.5026   18.2102 C   0  0  0  0  0  0
  -28.0209  -12.3438   18.6251 C   0  0  0  0  0  0
  -27.6537  -13.2063   19.8617 C   0  0  2  0  0  0
  -28.6954  -13.0288   20.9871 C   0  0  0  0  0  0
  -25.2570  -13.8159   20.5643 C   0  0  0  0  0  0
  -24.1821  -13.0443   20.9162 C   0  0  0  0  0  0
  -24.6367  -11.6906   20.8718 C   0  0  0  0  0  0
  -23.9043  -10.4290   21.0390 C   0  0  0  0  0  0
  -24.3601   -9.4212   21.9175 C   0  0  0  0  0  0
  -23.6279   -8.2251   22.0765 C   0  0  0  0  0  0
  -22.4266   -8.0274   21.3552 C   0  0  0  0  0  0
  -21.9893   -9.0244   20.4651 C   0  0  0  0  0  0
  -22.7214  -10.2124   20.3045 C   0  0  0  0  0  0
  -21.6850   -6.0721   22.5279 C   0  0  0  0  0  0
  -21.4010   -6.5632   23.8209 C   0  0  0  0  0  0
  -21.3660   -5.6788   24.9169 C   0  0  0  0  0  0
  -21.6051   -4.3054   24.7221 C   0  0  0  0  0  0
  -21.8821   -3.8140   23.4350 C   0  0  0  0  0  0
  -21.9195   -4.6956   22.3400 C   0  0  0  0  0  0
  -22.7849  -13.5251   21.1826 C   0  0  0  0  0  0
  -22.1663   -4.2139   21.0981 F   0  0  0  0  0  0
  -21.5636   -3.4539   25.7741 F   0  0  0  0  0  0
  -30.0161  -13.3539   20.4267 N   0  0  0  0  0  0
  -26.2975  -12.9317   20.3283 N   0  0  0  0  0  0
  -25.9290  -11.6480   20.5739 N   0  0  0  0  0  0
  -22.0475  -12.8243   22.0371 N   0  0  0  0  0  0
  -25.4321  -15.1877   20.4039 N   0  0  0  0  0  0
  -31.8128  -14.7158   20.1250 O   0  0  0  0  0  0
  -21.6640   -6.8867   21.4242 O   0  0  0  0  0  0
  -22.3548  -14.5557   20.6669 O   0  0  0  0  0  0
  -24.6217  -31.8637   23.2024 C   0  0  0  0  0  0
  -25.9080  -32.4797   23.8348 C   0  0  1  0  0  0
  -27.2368  -27.3759   20.0859 C   0  0  0  0  0  0
  -25.5914  -33.8595   24.2272 N   0  0  0  0  0  0
  -23.4127  -30.4854   21.5430 C   0  0  2  0  0  0
  -24.8569  -28.9394   20.1141 C   0  0  0  0  0  0
  -22.7443  -29.4651   22.4943 C   0  0  0  0  0  0
  -18.0280  -28.1393   22.8471 C   0  0  0  0  0  0
  -24.1495  -36.7291   23.2636 C   0  0  0  0  0  0
  -25.9491  -30.8104   21.3625 C   0  0  0  0  0  0
  -26.0232  -29.4404   20.7051 C   0  0  0  0  0  0
  -27.2125  -28.6668   20.6835 C   0  0  0  0  0  0
  -26.0404  -26.8975   19.5047 C   0  0  0  0  0  0
  -24.8631  -27.6693   19.5133 C   0  0  0  0  0  0
  -23.6222  -29.8130   20.1608 C   0  0  0  0  0  0
  -25.4123  -36.3087   24.0325 C   0  0  1  0  0  0
  -20.5881  -28.3679   23.1296 C   0  0  2  0  0  0
  -20.6778  -26.9412   22.5406 C   0  0  0  0  0  0
  -19.5756  -26.6405   21.5206 C   0  0  0  0  0  0
  -18.1926  -26.7937   22.1613 C   0  0  0  0  0  0
  -19.1538  -28.8843   23.2873 C   0  0  0  0  0  0
  -18.9469  -30.1443   23.8896 C   0  0  0  0  0  0
  -17.6473  -30.6592   24.0558 C   0  0  0  0  0  0
  -25.9061  -34.9461   23.5102 C   0  0  0  0  0  0
  -16.5354  -29.9099   23.6337 C   0  0  0  0  0  0
  -16.7269  -28.6515   23.0349 C   0  0  0  0  0  0
  -26.4466  -31.6603   25.0716 C   0  0  0  0  0  0
  -25.3689  -31.3780   26.1440 C   0  0  0  0  0  0
  -27.0304  -30.3029   24.6164 C   0  0  0  0  0  0
  -27.6030  -32.4345   25.7483 C   0  0  0  0  0  0
  -27.5577  -37.1799   24.8467 C   0  0  0  0  0  0
  -21.4167  -29.3037   22.3671 N   0  0  0  0  0  0
  -26.4301  -37.3783   23.9403 N   0  0  0  0  0  0
  -24.6798  -31.0684   22.0939 N   0  0  0  0  0  0
  -23.4187  -28.8194   23.3020 O   0  0  0  0  0  0
  -28.4117  -26.6305   20.1069 O   0  0  0  0  0  0
  -26.5627  -34.8922   22.4674 O   0  0  0  0  0  0
  -23.5391  -32.1405   23.7373 O   0  0  0  0  0  0
  -29.2421  -18.2388   19.3169 C   0  0  0  0  0  0
  -28.8551  -19.6073   19.1458 C   0  0  0  0  0  0
  -29.7619  -18.1041   20.5804 C   0  0  0  0  0  0
  -29.1460  -20.2259   20.3302 C   0  0  0  0  0  0
  -28.4982  -24.0942   20.3406 C   0  0  0  0  0  0
  -30.4035  -16.9524   21.3506 C   0  0  0  0  0  0
  -28.7029  -22.6719   19.7157 C   0  0  0  0  0  0
  -28.5296  -25.3510   19.4102 C   0  0  0  0  0  0
  -28.9272  -21.5755   20.6930 N   0  0  0  0  0  0
  -29.9353  -15.5783   21.0388 N   0  0  0  0  0  0
  -28.3377  -24.2095   21.5610 O   0  0  0  0  0  0
  -29.6917  -19.3314   21.2176 O   0  0  0  0  0  0
  -31.4689  -12.4639   19.1285 H   0  0  0  0  0  0
  -30.3505  -11.3466   19.8555 H   0  0  0  0  0  0
  -29.7526  -11.7643   17.4488 H   0  0  0  0  0  0
  -29.6475  -13.4819   17.7512 H   0  0  0  0  0  0
  -27.8525  -11.2891   18.8489 H   0  0  0  0  0  0
  -27.3653  -12.5849   17.7871 H   0  0  0  0  0  0
  -27.6846  -14.2459   19.5356 H   0  0  0  0  0  0
  -28.6929  -11.9993   21.3491 H   0  0  0  0  0  0
  -28.4458  -13.6454   21.8520 H   0  0  0  0  0  0
  -25.2741   -9.5699   22.4743 H   0  0  0  0  0  0
  -23.9991   -7.4649   22.7488 H   0  0  0  0  0  0
  -21.0831   -8.8742   19.8952 H   0  0  0  0  0  0
  -22.3663  -10.9654   19.6148 H   0  0  0  0  0  0
  -21.1993   -7.6137   23.9707 H   0  0  0  0  0  0
  -21.1484   -6.0515   25.9071 H   0  0  0  0  0  0
  -22.0600   -2.7601   23.2847 H   0  0  0  0  0  0
  -22.4074  -11.9897   22.4752 H   0  0  0  0  0  0
  -21.1092  -13.1278   22.2562 H   0  0  0  0  0  0
  -24.6698  -15.8473   20.5105 H   0  0  0  0  0  0
  -26.2806  -15.6174   20.0580 H   0  0  0  0  0  0
  -26.7140  -32.5462   23.1084 H   0  0  0  0  0  0
  -25.0068  -33.9749   25.0416 H   0  0  0  0  0  0
  -22.7049  -31.3029   21.3970 H   0  0  0  0  0  0
  -23.3758  -35.9629   23.3336 H   0  0  0  0  0  0
  -24.3576  -36.8886   22.2046 H   0  0  0  0  0  0
  -23.7259  -37.6509   23.6633 H   0  0  0  0  0  0
  -26.0789  -31.5768   20.5964 H   0  0  0  0  0  0
  -26.8312  -30.8562   21.9903 H   0  0  0  0  0  0
  -28.1161  -29.0559   21.1306 H   0  0  0  0  0  0
  -25.9770  -25.9187   19.0567 H   0  0  0  0  0  0
  -23.9621  -27.2709   19.0665 H   0  0  0  0  0  0
  -23.7307  -30.5847   19.3992 H   0  0  0  0  0  0
  -22.7444  -29.2348   19.8657 H   0  0  0  0  0  0
  -25.1299  -36.1944   25.0822 H   0  0  0  0  0  0
  -20.9962  -28.3262   24.1423 H   0  0  0  0  0  0
  -20.5717  -26.2270   23.3589 H   0  0  0  0  0  0
  -21.6637  -26.7480   22.1160 H   0  0  0  0  0  0
  -19.6932  -25.6330   21.1209 H   0  0  0  0  0  0
  -19.6712  -27.3226   20.6752 H   0  0  0  0  0  0
  -17.4205  -26.6679   21.4014 H   0  0  0  0  0  0
  -18.0315  -26.0092   22.9019 H   0  0  0  0  0  0
  -19.7949  -30.7257   24.2252 H   0  0  0  0  0  0
  -17.5041  -31.6263   24.5171 H   0  0  0  0  0  0
  -15.5354  -30.3001   23.7679 H   0  0  0  0  0  0
  -15.8667  -28.0843   22.7070 H   0  0  0  0  0  0
  -24.5873  -30.7106   25.7791 H   0  0  0  0  0  0
  -24.8842  -32.2956   26.4789 H   0  0  0  0  0  0
  -25.7993  -30.9029   27.0262 H   0  0  0  0  0  0
  -26.2871  -29.6789   24.1191 H   0  0  0  0  0  0
  -27.4008  -29.7286   25.4664 H   0  0  0  0  0  0
  -27.8724  -30.4316   23.9367 H   0  0  0  0  0  0
  -27.2648  -33.3668   26.2018 H   0  0  0  0  0  0
  -28.3852  -32.6890   25.0319 H   0  0  0  0  0  0
  -28.0670  -31.8498   26.5437 H   0  0  0  0  0  0
  -28.2604  -38.0081   24.7506 H   0  0  0  0  0  0
  -28.1066  -36.2622   24.6308 H   0  0  0  0  0  0
  -27.2286  -37.1455   25.8865 H   0  0  0  0  0  0
  -20.9331  -29.8752   21.6884 H   0  0  0  0  0  0
  -26.0190  -38.2867   24.1418 H   0  0  0  0  0  0
  -29.1690  -17.4427   18.5877 H   0  0  0  0  0  0
  -28.4179  -20.0596   18.2672 H   0  0  0  0  0  0
  -30.2417  -17.1074   22.4183 H   0  0  0  0  0  0
  -31.4852  -17.0105   21.2207 H   0  0  0  0  0  0
  -29.5493  -22.7123   19.0291 H   0  0  0  0  0  0
  -27.8237  -22.4420   19.1123 H   0  0  0  0  0  0
  -27.8297  -25.2424   18.5846 H   0  0  0  0  0  0
  -29.5129  -25.3572   18.9400 H   0  0  0  0  0  0
  -29.0792  -21.8955   21.6466 H   0  0  0  0  0  0
  -28.9893  -15.3604   21.3114 H   0  0  0  0  0  0
  1 25  1  0  0  0
  1 30  2  0  0  0
  1 80  1  0  0  0
  2  3  1  0  0  0
  2 25  1  0  0  0
  2 83  1  0  0  0
  2 84  1  0  0  0
  3  4  1  0  0  0
  3 85  1  0  0  0
  3 86  1  0  0  0
  4  5  1  0  0  0
  4 87  1  0  0  0
  4 88  1  0  0  0
  5  6  1  0  0  0
  5 26  1  0  0  0
  5 89  1  0  0  0
  6 25  1  0  0  0
  6 90  1  0  0  0
  6 91  1  0  0  0
  7  8  2  0  0  0
  7 26  1  0  0  0
  7 29  1  0  0  0
  8  9  1  0  0  0
  8 22  1  0  0  0
  9 10  1  0  0  0
  9 27  2  0  0  0
 10 11  2  0  0  0
 10 15  1  0  0  0
 11 12  1  0  0  0
 11 92  1  0  0  0
 12 13  2  0  0  0
 12 93  1  0  0  0
 13 14  1  0  0  0
 13 31  1  0  0  0
 14 15  2  0  0  0
 14 94  1  0  0  0
 15 95  1  0  0  0
 16 17  2  0  0  0
 16 21  1  0  0  0
 16 31  1  0  0  0
 17 18  1  0  0  0
 17 96  1  0  0  0
 18 19  2  0  0  0
 18 97  1  0  0  0
 19 20  1  0  0  0
 19 24  1  0  0  0
 20 21  2  0  0  0
 20 98  1  0  0  0
 21 23  1  0  0  0
 22 28  1  0  0  0
 22 32  2  0  0  0
 26 27  1  0  0  0
 28 99  1  0  0  0
 28100  1  0  0  0
 29101  1  0  0  0
 29102  1  0  0  0
 33 34  1  0  0  0
 33 66  1  0  0  0
 33 70  2  0  0  0
 34 36  1  0  0  0
 34 59  1  0  0  0
 34103  1  0  0  0
 35 44  2  0  0  0
 35 45  1  0  0  0
 35 68  1  0  0  0
 36 56  1  0  0  0
 36104  1  0  0  0
 37 39  1  0  0  0
 37 47  1  0  0  0
 37 66  1  0  0  0
 37105  1  0  0  0
 38 43  2  0  0  0
 38 46  1  0  0  0
 38 47  1  0  0  0
 39 64  1  0  0  0
 39 67  2  0  0  0
 40 52  1  0  0  0
 40 53  2  0  0  0
 40 58  1  0  0  0
 41106  1  0  0  0
 41107  1  0  0  0
 41108  1  0  0  0
 41 48  1  0  0  0
 42 43  1  0  0  0
 42 66  1  0  0  0
 42109  1  0  0  0
 42110  1  0  0  0
 43 44  1  0  0  0
 44111  1  0  0  0
 45 46  2  0  0  0
 45112  1  0  0  0
 46113  1  0  0  0
 47114  1  0  0  0
 47115  1  0  0  0
 48 56  1  0  0  0
 48 65  1  0  0  0
 48116  1  0  0  0
 49 50  1  0  0  0
 49 53  1  0  0  0
 49 64  1  0  0  0
 49117  1  0  0  0
 50 51  1  0  0  0
 50118  1  0  0  0
 50119  1  0  0  0
 51 52  1  0  0  0
 51120  1  0  0  0
 51121  1  0  0  0
 52122  1  0  0  0
 52123  1  0  0  0
 53 54  1  0  0  0
 54 55  2  0  0  0
 54124  1  0  0  0
 55 57  1  0  0  0
 55125  1  0  0  0
 56 69  2  0  0  0
 57 58  2  0  0  0
 57126  1  0  0  0
 58127  1  0  0  0
 59 60  1  0  0  0
 59 61  1  0  0  0
 59 62  1  0  0  0
 60128  1  0  0  0
 60129  1  0  0  0
 60130  1  0  0  0
 61131  1  0  0  0
 61132  1  0  0  0
 61133  1  0  0  0
 62134  1  0  0  0
 62135  1  0  0  0
 62136  1  0  0  0
 63 65  1  0  0  0
 63137  1  0  0  0
 63138  1  0  0  0
 63139  1  0  0  0
 64140  1  0  0  0
 65141  1  0  0  0
 68 78  1  0  0  0
 71 72  1  0  0  0
 71 73  2  0  0  0
 71142  1  0  0  0
 72 74  2  0  0  0
 72143  1  0  0  0
 73 76  1  0  0  0
 73 82  1  0  0  0
 74 79  1  0  0  0
 74 82  1  0  0  0
 75 77  1  0  0  0
 75 78  1  0  0  0
 75 81  2  0  0  0
 76 80  1  0  0  0
 76144  1  0  0  0
 76145  1  0  0  0
 77 79  1  0  0  0
 77146  1  0  0  0
 77147  1  0  0  0
 78148  1  0  0  0
 78149  1  0  0  0
 79150  1  0  0  0
 80151  1  0  0  0
M  ISO  4   1 100  68 101  78 101  80 100
M  END
> <chiral flag>
0

> <version>
0

> <s_m_source_file>
/data/baiqing/PycharmProjects/Reinvent-master-3.2/result/LINK_invent/BTK/process_docking_weight1_custom_product_contain_oxygen_bond_distance_aromatic_linkinvent_7_9_3/rearranged_h_0165.sdf

> <i_m_source_file_index>
36

> <r_mmod_Potential_Energy-OPLS-2005>
-151.395431518555

> <r_mmod_Stretch_Energy-OPLS-2005>
51.02734375

> <r_mmod_Bend_Energy-OPLS-2005>
124.293907165527

> <r_mmod_Torsional_Energy-OPLS-2005>
186.248672485352

> <r_mmod_Improper_Torsional_Energy-OPLS-2005>
3.47074699401855

> <r_mmod_Van_der_Waal_Energy-OPLS-2005>
124.719711303711

> <r_mmod_Electrostatic_Energy-OPLS-2005>
-416.508239746094

> <r_mmod_Solvation_Energy-OPLS-2005>
-248.977355957031

> <b_mmod_Minimization_Converged-OPLS-2005>
0

> <r_mmod_RMS_Derivative-OPLS-2005>
2.58687424659729

$$$$
36
                    3D
 Structure written by MMmdl.
152160  0  0  1  0            999 V2000
  -30.7197  -14.4909   20.5595 C   0  0  0  0  0  0
  -30.4145  -12.3171   19.4285 C   0  0  0  0  0  0
  -29.4913  -12.4990   18.2076 C   0  0  0  0  0  0
  -28.0140  -12.3587   18.6224 C   0  0  0  0  0  0
  -27.6566  -13.2136   19.8683 C   0  0  2  0  0  0
  -28.7006  -13.0317   20.9936 C   0  0  0  0  0  0
  -25.2571  -13.8176   20.5688 C   0  0  0  0  0  0
  -24.1831  -13.0442   20.9184 C   0  0  0  0  0  0
  -24.6394  -11.6911   20.8742 C   0  0  0  0  0  0
  -23.9065  -10.4293   21.0408 C   0  0  0  0  0  0
  -24.3617   -9.4207   21.9184 C   0  0  0  0  0  0
  -23.6290   -8.2243   22.0754 C   0  0  0  0  0  0
  -22.4274   -8.0281   21.3544 C   0  0  0  0  0  0
  -21.9911   -9.0255   20.4647 C   0  0  0  0  0  0
  -22.7240  -10.2134   20.3056 C   0  0  0  0  0  0
  -21.6852   -6.0735   22.5279 C   0  0  0  0  0  0
  -21.4013   -6.5639   23.8211 C   0  0  0  0  0  0
  -21.3657   -5.6793   24.9174 C   0  0  0  0  0  0
  -21.6044   -4.3056   24.7226 C   0  0  0  0  0  0
  -21.8820   -3.8146   23.4348 C   0  0  0  0  0  0
  -21.9193   -4.6963   22.3404 C   0  0  0  0  0  0
  -22.7852  -13.5237   21.1845 C   0  0  0  0  0  0
  -22.1661   -4.2148   21.0982 F   0  0  0  0  0  0
  -21.5629   -3.4540   25.7738 F   0  0  0  0  0  0
  -30.0262  -13.3257   20.4290 N   0  0  0  0  0  0
  -26.3005  -12.9357   20.3352 N   0  0  0  0  0  0
  -25.9325  -11.6511   20.5772 N   0  0  0  0  0  0
  -22.0495  -12.8227   22.0399 N   0  0  0  0  0  0
  -25.4284  -15.1896   20.4093 N   0  0  0  0  0  0
  -31.8591  -14.6237   20.1050 O   0  0  0  0  0  0
  -21.6640   -6.8878   21.4241 O   0  0  0  0  0  0
  -22.3539  -14.5545   20.6696 O   0  0  0  0  0  0
  -24.6174  -31.8662   23.2095 C   0  0  0  0  0  0
  -25.9060  -32.4814   23.8393 C   0  0  1  0  0  0
  -27.2276  -27.4108   20.1029 C   0  0  0  0  0  0
  -25.5907  -33.8614   24.2324 N   0  0  0  0  0  0
  -23.4062  -30.4906   21.5503 C   0  0  2  0  0  0
  -24.8524  -28.9552   20.1141 C   0  0  0  0  0  0
  -22.7424  -29.4655   22.4987 C   0  0  0  0  0  0
  -18.0270  -28.1379   22.8493 C   0  0  0  0  0  0
  -24.1482  -36.7304   23.2639 C   0  0  0  0  0  0
  -25.9381  -30.8243   21.3672 C   0  0  0  0  0  0
  -26.0149  -29.4574   20.7139 C   0  0  0  0  0  0
  -27.2074  -28.6920   20.7067 C   0  0  0  0  0  0
  -26.0504  -26.9369   19.4828 C   0  0  0  0  0  0
  -24.8656  -27.6944   19.4949 C   0  0  0  0  0  0
  -23.6154  -29.8237   20.1651 C   0  0  0  0  0  0
  -25.4104  -36.3106   24.0338 C   0  0  1  0  0  0
  -20.5865  -28.3669   23.1309 C   0  0  2  0  0  0
  -20.6766  -26.9403   22.5412 C   0  0  0  0  0  0
  -19.5745  -26.6386   21.5210 C   0  0  0  0  0  0
  -18.1921  -26.7926   22.1620 C   0  0  0  0  0  0
  -19.1522  -28.8840   23.2898 C   0  0  0  0  0  0
  -18.9450  -30.1445   23.8909 C   0  0  0  0  0  0
  -17.6454  -30.6589   24.0563 C   0  0  0  0  0  0
  -25.9037  -34.9472   23.5129 C   0  0  0  0  0  0
  -16.5343  -29.9089   23.6333 C   0  0  0  0  0  0
  -16.7258  -28.6503   23.0358 C   0  0  0  0  0  0
  -26.4481  -31.6599   25.0728 C   0  0  0  0  0  0
  -25.3744  -31.3697   26.1472 C   0  0  0  0  0  0
  -27.0323  -30.3043   24.6117 C   0  0  0  0  0  0
  -27.6057  -32.4321   25.7488 C   0  0  0  0  0  0
  -27.5577  -37.1804   24.8468 C   0  0  0  0  0  0
  -21.4150  -29.3033   22.3718 N   0  0  0  0  0  0
  -26.4287  -37.3794   23.9415 N   0  0  0  0  0  0
  -24.6722  -31.0750   22.1004 N   0  0  0  0  0  0
  -23.4185  -28.8197   23.3038 O   0  0  0  0  0  0
  -28.3641  -26.6220   20.1129 O   0  0  0  0  0  0
  -26.5602  -34.8925   22.4691 O   0  0  0  0  0  0
  -23.5361  -32.1418   23.7479 O   0  0  0  0  0  0
  -29.7950  -18.0471   20.9859 C   0  0  0  0  0  0
  -31.6239  -19.4692   21.7496 C   0  0  0  0  0  0
  -31.8538  -17.0455   21.8320 C   0  0  0  0  0  0
  -30.3268  -19.3559   21.1927 C   0  0  0  0  0  0
  -30.5634  -16.8791   21.2755 C   0  0  0  0  0  0
  -32.3785  -18.3271   22.0656 C   0  0  0  0  0  0
  -28.2029  -25.2909   20.4711 C   0  0  0  0  0  0
  -29.1053  -24.3151   20.2118 C   0  0  0  0  0  0
  -28.8398  -22.8817   20.6226 C   0  0  0  0  0  0
  -29.9830  -21.7831   20.5914 C   0  0  0  0  0  0
  -29.5454  -20.5347   20.9073 N   0  0  0  0  0  0
  -30.0387  -15.5554   21.0497 N   0  0  0  0  0  0
  -27.7155  -22.5358   21.0114 O   0  0  0  0  0  0
  -31.1577  -22.0378   20.3001 O   0  0  0  0  0  0
  -30.2412  -24.6311   19.5718 O   0  0  0  0  0  0
  -33.6140  -18.4628   22.6040 F   0  0  0  0  0  0
  -31.4603  -12.3997   19.1269 H   0  0  0  0  0  0
  -30.3067  -11.3145   19.8452 H   0  0  0  0  0  0
  -29.7342  -11.7647   17.4381 H   0  0  0  0  0  0
  -29.6576  -13.4796   17.7588 H   0  0  0  0  0  0
  -27.8307  -11.3044   18.8317 H   0  0  0  0  0  0
  -27.3620  -12.6187   17.7879 H   0  0  0  0  0  0
  -27.6897  -14.2560   19.5506 H   0  0  0  0  0  0
  -28.6809  -12.0082   21.3712 H   0  0  0  0  0  0
  -28.4664  -13.6664   21.8494 H   0  0  0  0  0  0
  -25.2764   -9.5682   22.4756 H   0  0  0  0  0  0
  -24.0001   -7.4637   22.7476 H   0  0  0  0  0  0
  -21.0841   -8.8773   19.8954 H   0  0  0  0  0  0
  -22.3701  -10.9670   19.6161 H   0  0  0  0  0  0
  -21.2003   -7.6147   23.9715 H   0  0  0  0  0  0
  -21.1478   -6.0523   25.9077 H   0  0  0  0  0  0
  -22.0601   -2.7609   23.2849 H   0  0  0  0  0  0
  -22.4109  -11.9885   22.4783 H   0  0  0  0  0  0
  -21.1112  -13.1248   22.2606 H   0  0  0  0  0  0
  -24.6603  -15.8439   20.5142 H   0  0  0  0  0  0
  -26.2778  -15.6284   20.0767 H   0  0  0  0  0  0
  -26.7129  -32.5517   23.1154 H   0  0  0  0  0  0
  -25.0075  -33.9774   25.0480 H   0  0  0  0  0  0
  -22.6965  -31.3086   21.4109 H   0  0  0  0  0  0
  -23.3746  -35.9636   23.3314 H   0  0  0  0  0  0
  -24.3572  -36.8904   22.2050 H   0  0  0  0  0  0
  -23.7232  -37.6510   23.6645 H   0  0  0  0  0  0
  -26.0553  -31.5892   20.5982 H   0  0  0  0  0  0
  -26.8245  -30.8759   21.9874 H   0  0  0  0  0  0
  -28.1038  -29.0709   21.1771 H   0  0  0  0  0  0
  -26.0433  -25.9712   18.9974 H   0  0  0  0  0  0
  -23.9731  -27.3026   19.0261 H   0  0  0  0  0  0
  -23.7254  -30.5985   19.4055 H   0  0  0  0  0  0
  -22.7387  -29.2449   19.8686 H   0  0  0  0  0  0
  -25.1283  -36.1967   25.0831 H   0  0  0  0  0  0
  -20.9951  -28.3232   24.1431 H   0  0  0  0  0  0
  -20.5669  -26.2279   23.3603 H   0  0  0  0  0  0
  -21.6637  -26.7455   22.1200 H   0  0  0  0  0  0
  -19.6911  -25.6301   21.1233 H   0  0  0  0  0  0
  -19.6684  -27.3206   20.6749 H   0  0  0  0  0  0
  -17.4193  -26.6675   21.4019 H   0  0  0  0  0  0
  -18.0321  -26.0061   22.9010 H   0  0  0  0  0  0
  -19.7926  -30.7254   24.2289 H   0  0  0  0  0  0
  -17.5011  -31.6274   24.5159 H   0  0  0  0  0  0
  -15.5345  -30.2996   23.7662 H   0  0  0  0  0  0
  -15.8653  -28.0827   22.7082 H   0  0  0  0  0  0
  -24.5920  -30.7046   25.7801 H   0  0  0  0  0  0
  -24.8935  -32.2847   26.4938 H   0  0  0  0  0  0
  -25.8094  -30.8848   27.0221 H   0  0  0  0  0  0
  -26.2873  -29.6788   24.1186 H   0  0  0  0  0  0
  -27.4109  -29.7297   25.4581 H   0  0  0  0  0  0
  -27.8701  -30.4366   23.9266 H   0  0  0  0  0  0
  -27.2683  -33.3615   26.2085 H   0  0  0  0  0  0
  -28.3854  -32.6885   25.0304 H   0  0  0  0  0  0
  -28.0740  -31.8431   26.5383 H   0  0  0  0  0  0
  -28.2602  -38.0096   24.7522 H   0  0  0  0  0  0
  -28.1065  -36.2631   24.6287 H   0  0  0  0  0  0
  -27.2296  -37.1444   25.8870 H   0  0  0  0  0  0
  -20.9322  -29.8744   21.6921 H   0  0  0  0  0  0
  -26.0175  -38.2870   24.1423 H   0  0  0  0  0  0
  -28.7994  -17.9376   20.5781 H   0  0  0  0  0  0
  -32.0610  -20.4329   21.9640 H   0  0  0  0  0  0
  -32.4603  -16.1906   22.0927 H   0  0  0  0  0  0
  -27.2708  -25.1027   20.9905 H   0  0  0  0  0  0
  -28.5382  -20.4652   20.9902 H   0  0  0  0  0  0
  -29.0548  -15.4117   21.2200 H   0  0  0  0  0  0
  -30.2083  -25.5649   19.4048 H   0  0  0  0  0  0
  1 25  1  0  0  0
  1 30  2  0  0  0
  1 82  1  0  0  0
  2  3  1  0  0  0
  2 25  1  0  0  0
  2 87  1  0  0  0
  2 88  1  0  0  0
  3  4  1  0  0  0
  3 89  1  0  0  0
  3 90  1  0  0  0
  4  5  1  0  0  0
  4 91  1  0  0  0
  4 92  1  0  0  0
  5  6  1  0  0  0
  5 26  1  0  0  0
  5 93  1  0  0  0
  6 25  1  0  0  0
  6 94  1  0  0  0
  6 95  1  0  0  0
  7  8  2  0  0  0
  7 26  1  0  0  0
  7 29  1  0  0  0
  8  9  1  0  0  0
  8 22  1  0  0  0
  9 10  1  0  0  0
  9 27  2  0  0  0
 10 11  2  0  0  0
 10 15  1  0  0  0
 11 12  1  0  0  0
 11 96  1  0  0  0
 12 13  2  0  0  0
 12 97  1  0  0  0
 13 14  1  0  0  0
 13 31  1  0  0  0
 14 15  2  0  0  0
 14 98  1  0  0  0
 15 99  1  0  0  0
 16 17  2  0  0  0
 16 21  1  0  0  0
 16 31  1  0  0  0
 17 18  1  0  0  0
 17100  1  0  0  0
 18 19  2  0  0  0
 18101  1  0  0  0
 19 20  1  0  0  0
 19 24  1  0  0  0
 20 21  2  0  0  0
 20102  1  0  0  0
 21 23  1  0  0  0
 22 28  1  0  0  0
 22 32  2  0  0  0
 26 27  1  0  0  0
 28103  1  0  0  0
 28104  1  0  0  0
 29105  1  0  0  0
 29106  1  0  0  0
 33 34  1  0  0  0
 33 66  1  0  0  0
 33 70  2  0  0  0
 34 36  1  0  0  0
 34 59  1  0  0  0
 34107  1  0  0  0
 35 44  2  0  0  0
 35 45  1  0  0  0
 35 68  1  0  0  0
 36 56  1  0  0  0
 36108  1  0  0  0
 37 39  1  0  0  0
 37 47  1  0  0  0
 37 66  1  0  0  0
 37109  1  0  0  0
 38 43  2  0  0  0
 38 46  1  0  0  0
 38 47  1  0  0  0
 39 64  1  0  0  0
 39 67  2  0  0  0
 40 52  1  0  0  0
 40 53  2  0  0  0
 40 58  1  0  0  0
 41110  1  0  0  0
 41111  1  0  0  0
 41112  1  0  0  0
 41 48  1  0  0  0
 42 43  1  0  0  0
 42 66  1  0  0  0
 42113  1  0  0  0
 42114  1  0  0  0
 43 44  1  0  0  0
 44115  1  0  0  0
 45 46  2  0  0  0
 45116  1  0  0  0
 46117  1  0  0  0
 47118  1  0  0  0
 47119  1  0  0  0
 48 56  1  0  0  0
 48 65  1  0  0  0
 48120  1  0  0  0
 49 50  1  0  0  0
 49 53  1  0  0  0
 49 64  1  0  0  0
 49121  1  0  0  0
 50 51  1  0  0  0
 50122  1  0  0  0
 50123  1  0  0  0
 51 52  1  0  0  0
 51124  1  0  0  0
 51125  1  0  0  0
 52126  1  0  0  0
 52127  1  0  0  0
 53 54  1  0  0  0
 54 55  2  0  0  0
 54128  1  0  0  0
 55 57  1  0  0  0
 55129  1  0  0  0
 56 69  2  0  0  0
 57 58  2  0  0  0
 57130  1  0  0  0
 58131  1  0  0  0
 59 60  1  0  0  0
 59 61  1  0  0  0
 59 62  1  0  0  0
 60132  1  0  0  0
 60133  1  0  0  0
 60134  1  0  0  0
 61135  1  0  0  0
 61136  1  0  0  0
 61137  1  0  0  0
 62138  1  0  0  0
 62139  1  0  0  0
 62140  1  0  0  0
 63 65  1  0  0  0
 63141  1  0  0  0
 63142  1  0  0  0
 63143  1  0  0  0
 64144  1  0  0  0
 65145  1  0  0  0
 68 77  1  0  0  0
 71 74  2  0  0  0
 71 75  1  0  0  0
 71146  1  0  0  0
 72 74  1  0  0  0
 72 76  2  0  0  0
 72147  1  0  0  0
 73 75  2  0  0  0
 73 76  1  0  0  0
 73148  1  0  0  0
 74 81  1  0  0  0
 75 82  1  0  0  0
 76 86  1  0  0  0
 77 78  2  0  0  0
 77149  1  0  0  0
 78 79  1  0  0  0
 78 85  1  0  0  0
 79 80  1  0  0  0
 79 83  2  0  0  0
 80 81  1  0  0  0
 80 84  2  0  0  0
 81150  1  0  0  0
 82151  1  0  0  0
 85152  1  0  0  0
M  ISO  4   1 100  68 101  77 101  82 100
M  END
> <chiral flag>
0

> <version>
0

> <s_m_source_file>
/data/baiqing/PycharmProjects/Reinvent-master-3.2/result/LINK_invent/BTK/process_docking_weight1_custom_product_contain_oxygen_bond_distance_aromatic_linkinvent_7_9_3/rearranged_h_0165.sdf

> <i_m_source_file_index>
37

> <r_mmod_Potential_Energy-OPLS-2005>
79.1414947509766

> <r_mmod_Stretch_Energy-OPLS-2005>
51.0976829528809

> <r_mmod_Bend_Energy-OPLS-2005>
101.247665405273

> <r_mmod_Torsional_Energy-OPLS-2005>
226.982330322266

> <r_mmod_Improper_Torsional_Energy-OPLS-2005>
3.93101167678833

> <r_mmod_Van_der_Waal_Energy-OPLS-2005>
167.308746337891

> <r_mmod_Electrostatic_Energy-OPLS-2005>
-253.929107666016

> <r_mmod_Solvation_Energy-OPLS-2005>
-235.190536499023

> <b_mmod_Minimization_Converged-OPLS-2005>
0

> <r_mmod_RMS_Derivative-OPLS-2005>
0.589839279651642

$$$$
37
                    3D
 Structure written by MMmdl.
159167  0  0  1  0            999 V2000
  -30.6856  -14.6189   20.4243 C   0  0  0  0  0  0
  -30.4023  -12.3519   19.4692 C   0  0  0  0  0  0
  -29.4984  -12.4963   18.2271 C   0  0  0  0  0  0
  -28.0218  -12.3490   18.6390 C   0  0  0  0  0  0
  -27.6427  -13.2426   19.8502 C   0  0  2  0  0  0
  -28.6868  -13.1478   20.9792 C   0  0  0  0  0  0
  -25.2483  -13.8235   20.5733 C   0  0  0  0  0  0
  -24.1767  -13.0421   20.9213 C   0  0  0  0  0  0
  -24.6377  -11.6930   20.8763 C   0  0  0  0  0  0
  -23.9081  -10.4281   21.0429 C   0  0  0  0  0  0
  -24.3626   -9.4200   21.9199 C   0  0  0  0  0  0
  -23.6290   -8.2241   22.0756 C   0  0  0  0  0  0
  -22.4278   -8.0285   21.3545 C   0  0  0  0  0  0
  -21.9921   -9.0265   20.4648 C   0  0  0  0  0  0
  -22.7270  -10.2134   20.3068 C   0  0  0  0  0  0
  -21.6838   -6.0731   22.5271 C   0  0  0  0  0  0
  -21.4041   -6.5641   23.8225 C   0  0  0  0  0  0
  -21.3690   -5.6793   24.9182 C   0  0  0  0  0  0
  -21.6022   -4.3045   24.7239 C   0  0  0  0  0  0
  -21.8803   -3.8139   23.4359 C   0  0  0  0  0  0
  -21.9188   -4.6946   22.3421 C   0  0  0  0  0  0
  -22.7789  -13.5209   21.1896 C   0  0  0  0  0  0
  -22.1636   -4.2139   21.0987 F   0  0  0  0  0  0
  -21.5637   -3.4538   25.7756 F   0  0  0  0  0  0
  -30.0122  -13.4225   20.4100 N   0  0  0  0  0  0
  -26.2936  -12.9464   20.3301 N   0  0  0  0  0  0
  -25.9312  -11.6591   20.5756 N   0  0  0  0  0  0
  -22.0459  -12.8156   22.0459 N   0  0  0  0  0  0
  -25.4116  -15.1962   20.4230 N   0  0  0  0  0  0
  -31.8845  -14.6204   20.1409 O   0  0  0  0  0  0
  -21.6621   -6.8882   21.4239 O   0  0  0  0  0  0
  -22.3442  -14.5489   20.6740 O   0  0  0  0  0  0
  -24.6324  -31.8518   23.1925 C   0  0  0  0  0  0
  -25.9209  -32.4680   23.8223 C   0  0  1  0  0  0
  -27.2168  -27.2899   20.0633 C   0  0  0  0  0  0
  -25.6001  -33.8485   24.2126 N   0  0  0  0  0  0
  -23.4129  -30.4779   21.5458 C   0  0  2  0  0  0
  -24.8444  -28.9237   20.1111 C   0  0  0  0  0  0
  -22.7417  -29.4625   22.4973 C   0  0  0  0  0  0
  -18.0296  -28.1435   22.8453 C   0  0  0  0  0  0
  -24.1477  -36.7211   23.2611 C   0  0  0  0  0  0
  -25.9599  -30.7678   21.3631 C   0  0  0  0  0  0
  -26.0260  -29.3977   20.6954 C   0  0  0  0  0  0
  -27.2102  -28.5967   20.6591 C   0  0  0  0  0  0
  -25.9863  -26.8574   19.5114 C   0  0  0  0  0  0
  -24.8289  -27.6547   19.5222 C   0  0  0  0  0  0
  -23.6102  -29.8035   20.1664 C   0  0  0  0  0  0
  -25.4117  -36.2977   24.0266 C   0  0  1  0  0  0
  -20.5863  -28.3737   23.1243 C   0  0  2  0  0  0
  -20.6803  -26.9483   22.5366 C   0  0  0  0  0  0
  -19.5792  -26.6439   21.5165 C   0  0  0  0  0  0
  -18.1969  -26.7977   22.1597 C   0  0  0  0  0  0
  -19.1534  -28.8908   23.2834 C   0  0  0  0  0  0
  -18.9488  -30.1506   23.8861 C   0  0  0  0  0  0
  -17.6490  -30.6641   24.0564 C   0  0  0  0  0  0
  -25.9112  -34.9374   23.4986 C   0  0  0  0  0  0
  -16.5372  -29.9137   23.6347 C   0  0  0  0  0  0
  -16.7285  -28.6546   23.0371 C   0  0  0  0  0  0
  -26.4549  -31.6522   25.0646 C   0  0  0  0  0  0
  -25.3737  -31.3736   26.1332 C   0  0  0  0  0  0
  -27.0365  -30.2890   24.6220 C   0  0  0  0  0  0
  -27.6076  -32.4269   25.7462 C   0  0  0  0  0  0
  -27.5548  -37.1735   24.8465 C   0  0  0  0  0  0
  -21.4163  -29.3032   22.3606 N   0  0  0  0  0  0
  -26.4267  -37.3709   23.9411 N   0  0  0  0  0  0
  -24.6888  -31.0489   22.0890 N   0  0  0  0  0  0
  -23.4086  -28.8194   23.3109 O   0  0  0  0  0  0
  -28.3536  -26.4535   20.0662 O   0  0  0  0  0  0
  -26.5720  -34.8880   22.4574 O   0  0  0  0  0  0
  -23.5507  -32.1373   23.7261 O   0  0  0  0  0  0
  -28.4627  -20.1645   20.7845 C   0  0  0  0  0  0
  -28.9077  -18.8088   20.7759 C   0  0  0  0  0  0
  -29.8062  -20.6340   18.8714 C   0  0  0  0  0  0
  -28.8685  -21.1298   19.8186 C   0  0  0  0  0  0
  -29.8187  -18.3069   19.8111 C   0  0  0  0  0  0
  -30.2717  -19.2700   18.8401 C   0  0  0  0  0  0
  -30.3172  -16.8492   19.8617 C   0  0  0  0  0  0
  -28.1788  -22.5299   19.7055 C   0  0  0  0  0  0
  -28.9973  -23.8711   19.8558 C   0  0  0  0  0  0
  -31.1427  -19.6703   16.4223 C   0  0  0  0  0  0
  -25.9485  -21.5930   19.4418 C   0  0  0  0  0  0
  -31.2668  -18.8660   17.7286 C   0  0  0  0  0  0
  -28.3922  -25.2119   19.2339 C   0  0  0  0  0  0
  -29.9127  -15.8098   20.5485 N   0  0  0  0  0  0
  -26.9140  -22.6728   19.5319 N   0  0  0  0  0  0
  -30.0998  -23.9089   20.4194 O   0  0  0  0  0  0
  -31.4565  -12.3927   19.1871 H   0  0  0  0  0  0
  -30.2554  -11.3697   19.9254 H   0  0  0  0  0  0
  -29.7515  -11.7465   17.4752 H   0  0  0  0  0  0
  -29.6666  -13.4706   17.7641 H   0  0  0  0  0  0
  -27.8581  -11.3020   18.8941 H   0  0  0  0  0  0
  -27.3662  -12.5621   17.7931 H   0  0  0  0  0  0
  -27.6494  -14.2738   19.4917 H   0  0  0  0  0  0
  -28.6646  -12.1568   21.4370 H   0  0  0  0  0  0
  -28.4580  -13.8577   21.7759 H   0  0  0  0  0  0
  -25.2771   -9.5641   22.4783 H   0  0  0  0  0  0
  -23.9982   -7.4611   22.7476 H   0  0  0  0  0  0
  -21.0863   -8.8797   19.8960 H   0  0  0  0  0  0
  -22.3754  -10.9665   19.6173 H   0  0  0  0  0  0
  -21.2045   -7.6155   23.9728 H   0  0  0  0  0  0
  -21.1534   -6.0529   25.9085 H   0  0  0  0  0  0
  -22.0555   -2.7606   23.2863 H   0  0  0  0  0  0
  -22.4063  -11.9835   22.4868 H   0  0  0  0  0  0
  -21.1079  -13.1193   22.2699 H   0  0  0  0  0  0
  -24.6498  -15.8551   20.5523 H   0  0  0  0  0  0
  -26.2794  -15.6408   20.1480 H   0  0  0  0  0  0
  -26.7256  -32.5228   23.0911 H   0  0  0  0  0  0
  -24.9992  -33.9583   25.0177 H   0  0  0  0  0  0
  -22.7073  -31.3008   21.4060 H   0  0  0  0  0  0
  -23.3728  -35.9568   23.3332 H   0  0  0  0  0  0
  -24.3514  -36.8811   22.2010 H   0  0  0  0  0  0
  -23.7283  -37.6430   23.6652 H   0  0  0  0  0  0
  -26.1132  -31.5391   20.6055 H   0  0  0  0  0  0
  -26.8332  -30.7861   22.0013 H   0  0  0  0  0  0
  -28.1207  -28.9732   21.1054 H   0  0  0  0  0  0
  -25.8270  -25.8749   19.1005 H   0  0  0  0  0  0
  -23.9187  -27.2556   19.0929 H   0  0  0  0  0  0
  -23.7013  -30.5706   19.3986 H   0  0  0  0  0  0
  -22.7271  -29.2286   19.8796 H   0  0  0  0  0  0
  -25.1309  -36.1734   25.0764 H   0  0  0  0  0  0
  -20.9976  -28.3433   24.1353 H   0  0  0  0  0  0
  -20.5739  -26.2396   23.3584 H   0  0  0  0  0  0
  -21.6676  -26.7568   22.1127 H   0  0  0  0  0  0
  -19.6987  -25.6347   21.1223 H   0  0  0  0  0  0
  -19.6747  -27.3221   20.6667 H   0  0  0  0  0  0
  -17.4213  -26.6641   21.4049 H   0  0  0  0  0  0
  -18.0477  -26.0158   22.9039 H   0  0  0  0  0  0
  -19.7975  -30.7317   24.2220 H   0  0  0  0  0  0
  -17.5076  -31.6324   24.5188 H   0  0  0  0  0  0
  -15.5386  -30.3049   23.7743 H   0  0  0  0  0  0
  -15.8664  -28.0866   22.7151 H   0  0  0  0  0  0
  -24.5925  -30.7062   25.7641 H   0  0  0  0  0  0
  -24.8912  -32.2938   26.4636 H   0  0  0  0  0  0
  -25.8009  -30.8967   27.0160 H   0  0  0  0  0  0
  -26.2928  -29.6603   24.1273 H   0  0  0  0  0  0
  -27.3997  -29.7185   25.4781 H   0  0  0  0  0  0
  -27.8856  -30.4041   23.9472 H   0  0  0  0  0  0
  -27.2645  -33.3551   26.2032 H   0  0  0  0  0  0
  -28.3930  -32.6849   25.0348 H   0  0  0  0  0  0
  -28.0712  -31.8400   26.5392 H   0  0  0  0  0  0
  -28.2555  -38.0035   24.7510 H   0  0  0  0  0  0
  -28.1055  -36.2560   24.6316 H   0  0  0  0  0  0
  -27.2258  -37.1401   25.8866 H   0  0  0  0  0  0
  -20.9444  -29.8497   21.6533 H   0  0  0  0  0  0
  -26.0097  -38.2749   24.1504 H   0  0  0  0  0  0
  -27.7385  -20.4605   21.5280 H   0  0  0  0  0  0
  -28.5264  -18.1254   21.5226 H   0  0  0  0  0  0
  -30.1408  -21.3301   18.1186 H   0  0  0  0  0  0
  -31.1732  -16.7042   19.1960 H   0  0  0  0  0  0
  -31.7952  -19.2548   15.6548 H   0  0  0  0  0  0
  -31.4285  -20.7153   16.5478 H   0  0  0  0  0  0
  -30.1211  -19.6350   16.0412 H   0  0  0  0  0  0
  -26.3667  -20.5986   19.3119 H   0  0  0  0  0  0
  -25.3282  -21.5780   20.3400 H   0  0  0  0  0  0
  -25.2767  -21.7721   18.5979 H   0  0  0  0  0  0
  -31.1229  -17.8265   17.4314 H   0  0  0  0  0  0
  -32.2891  -18.9278   18.1117 H   0  0  0  0  0  0
  -27.4607  -24.9724   18.7308 H   0  0  0  0  0  0
  -29.0475  -25.4550   18.3991 H   0  0  0  0  0  0
  1 25  1  0  0  0
  1 30  2  0  0  0
  1 84  1  0  0  0
  2  3  1  0  0  0
  2 25  1  0  0  0
  2 87  1  0  0  0
  2 88  1  0  0  0
  3  4  1  0  0  0
  3 89  1  0  0  0
  3 90  1  0  0  0
  4  5  1  0  0  0
  4 91  1  0  0  0
  4 92  1  0  0  0
  5  6  1  0  0  0
  5 26  1  0  0  0
  5 93  1  0  0  0
  6 25  1  0  0  0
  6 94  1  0  0  0
  6 95  1  0  0  0
  7  8  2  0  0  0
  7 26  1  0  0  0
  7 29  1  0  0  0
  8  9  1  0  0  0
  8 22  1  0  0  0
  9 10  1  0  0  0
  9 27  2  0  0  0
 10 11  2  0  0  0
 10 15  1  0  0  0
 11 12  1  0  0  0
 11 96  1  0  0  0
 12 13  2  0  0  0
 12 97  1  0  0  0
 13 14  1  0  0  0
 13 31  1  0  0  0
 14 15  2  0  0  0
 14 98  1  0  0  0
 15 99  1  0  0  0
 16 17  2  0  0  0
 16 21  1  0  0  0
 16 31  1  0  0  0
 17 18  1  0  0  0
 17100  1  0  0  0
 18 19  2  0  0  0
 18101  1  0  0  0
 19 20  1  0  0  0
 19 24  1  0  0  0
 20 21  2  0  0  0
 20102  1  0  0  0
 21 23  1  0  0  0
 22 28  1  0  0  0
 22 32  2  0  0  0
 26 27  1  0  0  0
 28103  1  0  0  0
 28104  1  0  0  0
 29105  1  0  0  0
 29106  1  0  0  0
 33 34  1  0  0  0
 33 66  1  0  0  0
 33 70  2  0  0  0
 34 36  1  0  0  0
 34 59  1  0  0  0
 34107  1  0  0  0
 35 44  2  0  0  0
 35 45  1  0  0  0
 35 68  1  0  0  0
 36 56  1  0  0  0
 36108  1  0  0  0
 37 39  1  0  0  0
 37 47  1  0  0  0
 37 66  1  0  0  0
 37109  1  0  0  0
 38 43  2  0  0  0
 38 46  1  0  0  0
 38 47  1  0  0  0
 39 64  1  0  0  0
 39 67  2  0  0  0
 40 52  1  0  0  0
 40 53  2  0  0  0
 40 58  1  0  0  0
 41110  1  0  0  0
 41111  1  0  0  0
 41112  1  0  0  0
 41 48  1  0  0  0
 42 43  1  0  0  0
 42 66  1  0  0  0
 42113  1  0  0  0
 42114  1  0  0  0
 43 44  1  0  0  0
 44115  1  0  0  0
 45 46  2  0  0  0
 45116  1  0  0  0
 46117  1  0  0  0
 47118  1  0  0  0
 47119  1  0  0  0
 48 56  1  0  0  0
 48 65  1  0  0  0
 48120  1  0  0  0
 49 50  1  0  0  0
 49 53  1  0  0  0
 49 64  1  0  0  0
 49121  1  0  0  0
 50 51  1  0  0  0
 50122  1  0  0  0
 50123  1  0  0  0
 51 52  1  0  0  0
 51124  1  0  0  0
 51125  1  0  0  0
 52126  1  0  0  0
 52127  1  0  0  0
 53 54  1  0  0  0
 54 55  2  0  0  0
 54128  1  0  0  0
 55 57  1  0  0  0
 55129  1  0  0  0
 56 69  2  0  0  0
 57 58  2  0  0  0
 57130  1  0  0  0
 58131  1  0  0  0
 59 60  1  0  0  0
 59 61  1  0  0  0
 59 62  1  0  0  0
 60132  1  0  0  0
 60133  1  0  0  0
 60134  1  0  0  0
 61135  1  0  0  0
 61136  1  0  0  0
 61137  1  0  0  0
 62138  1  0  0  0
 62139  1  0  0  0
 62140  1  0  0  0
 63 65  1  0  0  0
 63141  1  0  0  0
 63142  1  0  0  0
 63143  1  0  0  0
 64144  1  0  0  0
 65145  1  0  0  0
 68 83  1  0  0  0
 71 72  2  0  0  0
 71 74  1  0  0  0
 71146  1  0  0  0
 72 75  1  0  0  0
 72147  1  0  0  0
 73 74  2  0  0  0
 73 76  1  0  0  0
 73148  1  0  0  0
 74 78  1  0  0  0
 75 76  2  0  0  0
 75 77  1  0  0  0
 76 82  1  0  0  0
 77 84  2  0  0  0
 77149  1  0  0  0
 78 79  1  0  0  0
 78 85  2  0  0  0
 79 83  1  0  0  0
 79 86  2  0  0  0
 80 82  1  0  0  0
 80150  1  0  0  0
 80151  1  0  0  0
 80152  1  0  0  0
 81 85  1  0  0  0
 81153  1  0  0  0
 81154  1  0  0  0
 81155  1  0  0  0
 82156  1  0  0  0
 82157  1  0  0  0
 83158  1  0  0  0
 83159  1  0  0  0
M  ISO  4   1 100  68 101  83 101  84 100
M  END
> <chiral flag>
0

> <version>
0

> <s_m_source_file>
/data/baiqing/PycharmProjects/Reinvent-master-3.2/result/LINK_invent/BTK/process_docking_weight1_custom_product_contain_oxygen_bond_distance_aromatic_linkinvent_7_9_3/rearranged_h_0165.sdf

> <i_m_source_file_index>
38

> <r_mmod_Potential_Energy-OPLS-2005>
305.409027099609

> <r_mmod_Stretch_Energy-OPLS-2005>
110.605209350586

> <r_mmod_Bend_Energy-OPLS-2005>
169.589218139648

> <r_mmod_Torsional_Energy-OPLS-2005>
199.541931152344

> <r_mmod_Improper_Torsional_Energy-OPLS-2005>
6.15466976165771

> <r_mmod_Van_der_Waal_Energy-OPLS-2005>
172.140090942383

> <r_mmod_Electrostatic_Energy-OPLS-2005>
-207.655364990234

> <r_mmod_Solvation_Energy-OPLS-2005>
-201.318084716797

> <b_mmod_Minimization_Converged-OPLS-2005>
0

> <r_mmod_RMS_Derivative-OPLS-2005>
6.82842874526978

$$$$
38
                    3D
 Structure written by MMmdl.
157165  0  0  1  0            999 V2000
  -30.7226  -14.4196   20.6427 C   0  0  0  0  0  0
  -30.4420  -12.3010   19.4033 C   0  0  0  0  0  0
  -29.4921  -12.4962   18.2038 C   0  0  0  0  0  0
  -28.0182  -12.3545   18.6270 C   0  0  0  0  0  0
  -27.6721  -13.1981   19.8802 C   0  0  2  0  0  0
  -28.7102  -12.9412   20.9940 C   0  0  0  0  0  0
  -25.2647  -13.8161   20.5653 C   0  0  0  0  0  0
  -24.1886  -13.0455   20.9178 C   0  0  0  0  0  0
  -24.6418  -11.6920   20.8762 C   0  0  0  0  0  0
  -23.9068  -10.4303   21.0425 C   0  0  0  0  0  0
  -24.3607   -9.4210   21.9212 C   0  0  0  0  0  0
  -23.6284   -8.2234   22.0754 C   0  0  0  0  0  0
  -22.4275   -8.0279   21.3522 C   0  0  0  0  0  0
  -21.9902   -9.0276   20.4651 C   0  0  0  0  0  0
  -22.7225  -10.2166   20.3079 C   0  0  0  0  0  0
  -21.6855   -6.0759   22.5287 C   0  0  0  0  0  0
  -21.4025   -6.5660   23.8229 C   0  0  0  0  0  0
  -21.3659   -5.6801   24.9175 C   0  0  0  0  0  0
  -21.6032   -4.3061   24.7224 C   0  0  0  0  0  0
  -21.8815   -3.8161   23.4343 C   0  0  0  0  0  0
  -21.9181   -4.6982   22.3401 C   0  0  0  0  0  0
  -22.7902  -13.5264   21.1829 C   0  0  0  0  0  0
  -22.1658   -4.2178   21.0978 F   0  0  0  0  0  0
  -21.5596   -3.4540   25.7731 F   0  0  0  0  0  0
  -30.0542  -13.2480   20.4612 N   0  0  0  0  0  0
  -26.3091  -12.9323   20.3399 N   0  0  0  0  0  0
  -25.9339  -11.6492   20.5806 N   0  0  0  0  0  0
  -22.0522  -12.8306   22.0423 N   0  0  0  0  0  0
  -25.4382  -15.1868   20.3944 N   0  0  0  0  0  0
  -31.7805  -14.6845   20.0672 O   0  0  0  0  0  0
  -21.6617   -6.8896   21.4246 O   0  0  0  0  0  0
  -22.3585  -14.5551   20.6642 O   0  0  0  0  0  0
  -24.6125  -31.8680   23.2117 C   0  0  0  0  0  0
  -25.9022  -32.4817   23.8406 C   0  0  1  0  0  0
  -27.2357  -27.4599   20.0894 C   0  0  0  0  0  0
  -25.5890  -33.8614   24.2365 N   0  0  0  0  0  0
  -23.3997  -30.4916   21.5525 C   0  0  2  0  0  0
  -24.8460  -28.9634   20.1129 C   0  0  0  0  0  0
  -22.7405  -29.4639   22.5000 C   0  0  0  0  0  0
  -18.0266  -28.1339   22.8499 C   0  0  0  0  0  0
  -24.1473  -36.7302   23.2651 C   0  0  0  0  0  0
  -25.9249  -30.8496   21.3531 C   0  0  0  0  0  0
  -26.0076  -29.4870   20.6945 C   0  0  0  0  0  0
  -27.2120  -28.7474   20.6689 C   0  0  0  0  0  0
  -26.0561  -26.9397   19.5143 C   0  0  0  0  0  0
  -24.8644  -27.6893   19.5176 C   0  0  0  0  0  0
  -23.6048  -29.8247   20.1663 C   0  0  0  0  0  0
  -25.4092  -36.3111   24.0360 C   0  0  1  0  0  0
  -20.5855  -28.3613   23.1322 C   0  0  2  0  0  0
  -20.6735  -26.9352   22.5409 C   0  0  0  0  0  0
  -19.5720  -26.6362   21.5188 C   0  0  0  0  0  0
  -18.1903  -26.7896   22.1608 C   0  0  0  0  0  0
  -19.1517  -28.8798   23.2899 C   0  0  0  0  0  0
  -18.9443  -30.1413   23.8891 C   0  0  0  0  0  0
  -17.6440  -30.6547   24.0550 C   0  0  0  0  0  0
  -25.9010  -34.9469   23.5159 C   0  0  0  0  0  0
  -16.5335  -29.9039   23.6324 C   0  0  0  0  0  0
  -16.7255  -28.6455   23.0358 C   0  0  0  0  0  0
  -26.4486  -31.6580   25.0708 C   0  0  0  0  0  0
  -25.3780  -31.3626   26.1486 C   0  0  0  0  0  0
  -27.0327  -30.3051   24.6009 C   0  0  0  0  0  0
  -27.6094  -32.4277   25.7442 C   0  0  0  0  0  0
  -27.5574  -37.1798   24.8482 C   0  0  0  0  0  0
  -21.4136  -29.2989   22.3741 N   0  0  0  0  0  0
  -26.4286  -37.3792   23.9423 N   0  0  0  0  0  0
  -24.6642  -31.0819   22.0988 N   0  0  0  0  0  0
  -23.4194  -28.8188   23.3030 O   0  0  0  0  0  0
  -28.3955  -26.7192   20.0970 O   0  0  0  0  0  0
  -26.5575  -34.8930   22.4713 O   0  0  0  0  0  0
  -23.5321  -32.1400   23.7532 O   0  0  0  0  0  0
  -28.8597  -17.0291   22.4167 C   0  0  0  0  0  0
  -28.4592  -18.3734   22.4749 C   0  0  0  0  0  0
  -30.0245  -18.9277   20.6784 C   0  0  0  0  0  0
  -29.8523  -16.6081   21.5085 C   0  0  0  0  0  0
  -29.0402  -19.3250   21.6167 C   0  0  0  0  0  0
  -30.4242  -17.5685   20.6303 C   0  0  0  0  0  0
  -29.8137  -22.2055   19.1837 C   0  0  0  0  0  0
  -30.6614  -19.8911   19.6699 C   0  0  0  0  0  0
  -29.8119  -23.6643   19.6626 C   0  0  0  0  0  0
  -28.3881  -24.2498   19.7879 C   0  0  0  0  0  0
  -28.2851  -25.4496   20.7512 C   0  0  0  0  0  0
  -30.1676  -15.2171   21.5655 N   0  0  0  0  0  0
  -30.5120  -21.3297   19.9196 N   0  0  0  0  0  0
  -29.1939  -21.8871   18.1664 O   0  0  0  0  0  0
  -28.6236  -20.6096   21.7123 F   0  0  0  0  0  0
  -31.3648  -17.2203   19.7212 F   0  0  0  0  0  0
  -31.4755  -12.4398   19.0766 H   0  0  0  0  0  0
  -30.3932  -11.2773   19.7780 H   0  0  0  0  0  0
  -29.7222  -11.7698   17.4247 H   0  0  0  0  0  0
  -29.6565  -13.4814   17.7649 H   0  0  0  0  0  0
  -27.8389  -11.2994   18.8370 H   0  0  0  0  0  0
  -27.3554  -12.6165   17.8004 H   0  0  0  0  0  0
  -27.7309  -14.2487   19.5959 H   0  0  0  0  0  0
  -28.6837  -11.8961   21.3055 H   0  0  0  0  0  0
  -28.4415  -13.5054   21.8871 H   0  0  0  0  0  0
  -25.2732   -9.5698   22.4814 H   0  0  0  0  0  0
  -23.9992   -7.4630   22.7479 H   0  0  0  0  0  0
  -21.0809   -8.8808   19.8982 H   0  0  0  0  0  0
  -22.3652  -10.9725   19.6214 H   0  0  0  0  0  0
  -21.2053   -7.6173   23.9749 H   0  0  0  0  0  0
  -21.1473   -6.0525   25.9090 H   0  0  0  0  0  0
  -22.0587   -2.7631   23.2826 H   0  0  0  0  0  0
  -22.4057  -11.9960   22.4847 H   0  0  0  0  0  0
  -21.1179  -13.1449   22.2639 H   0  0  0  0  0  0
  -24.6691  -15.8445   20.4684 H   0  0  0  0  0  0
  -26.2792  -15.6104   20.0246 H   0  0  0  0  0  0
  -26.7086  -32.5564   23.1171 H   0  0  0  0  0  0
  -25.0058  -33.9761   25.0538 H   0  0  0  0  0  0
  -22.6855  -31.3057   21.4165 H   0  0  0  0  0  0
  -23.3737  -35.9629   23.3326 H   0  0  0  0  0  0
  -24.3570  -36.8892   22.2061 H   0  0  0  0  0  0
  -23.7215  -37.6512   23.6640 H   0  0  0  0  0  0
  -26.0227  -31.6216   20.5878 H   0  0  0  0  0  0
  -26.8184  -30.9098   21.9627 H   0  0  0  0  0  0
  -28.1160  -29.1550   21.0991 H   0  0  0  0  0  0
  -26.0572  -25.9542   19.0709 H   0  0  0  0  0  0
  -23.9702  -27.2786   19.0694 H   0  0  0  0  0  0
  -23.7043  -30.6017   19.4072 H   0  0  0  0  0  0
  -22.7317  -29.2381   19.8746 H   0  0  0  0  0  0
  -25.1257  -36.1979   25.0849 H   0  0  0  0  0  0
  -20.9946  -28.3151   24.1438 H   0  0  0  0  0  0
  -20.5571  -26.2221   23.3586 H   0  0  0  0  0  0
  -21.6614  -26.7342   22.1239 H   0  0  0  0  0  0
  -19.6872  -25.6278   21.1183 H   0  0  0  0  0  0
  -19.6665  -27.3197   20.6732 H   0  0  0  0  0  0
  -17.4176  -26.6667   21.4001 H   0  0  0  0  0  0
  -18.0300  -26.0011   22.8967 H   0  0  0  0  0  0
  -19.7918  -30.7227   24.2273 H   0  0  0  0  0  0
  -17.4986  -31.6237   24.5123 H   0  0  0  0  0  0
  -15.5329  -30.2919   23.7641 H   0  0  0  0  0  0
  -15.8669  -28.0744   22.7092 H   0  0  0  0  0  0
  -24.5956  -30.6979   25.7818 H   0  0  0  0  0  0
  -24.8976  -32.2752   26.5009 H   0  0  0  0  0  0
  -25.8177  -30.8739   27.0194 H   0  0  0  0  0  0
  -26.2828  -29.6753   24.1210 H   0  0  0  0  0  0
  -27.4330  -29.7332   25.4393 H   0  0  0  0  0  0
  -27.8551  -30.4441   23.8990 H   0  0  0  0  0  0
  -27.2761  -33.3570   26.2071 H   0  0  0  0  0  0
  -28.3862  -32.6835   25.0223 H   0  0  0  0  0  0
  -28.0814  -31.8359   26.5299 H   0  0  0  0  0  0
  -28.2617  -38.0073   24.7510 H   0  0  0  0  0  0
  -28.1040  -36.2604   24.6318 H   0  0  0  0  0  0
  -27.2297  -37.1480   25.8891 H   0  0  0  0  0  0
  -20.9293  -29.8720   21.6984 H   0  0  0  0  0  0
  -26.0180  -38.2867   24.1430 H   0  0  0  0  0  0
  -28.3925  -16.3186   23.0826 H   0  0  0  0  0  0
  -27.6981  -18.6810   23.1768 H   0  0  0  0  0  0
  -30.2848  -19.6219   18.6827 H   0  0  0  0  0  0
  -31.7308  -19.6821   19.6420 H   0  0  0  0  0  0
  -30.4159  -24.2664   18.9825 H   0  0  0  0  0  0
  -30.3123  -23.7111   20.6310 H   0  0  0  0  0  0
  -27.7293  -23.4676   20.1697 H   0  0  0  0  0  0
  -27.9898  -24.5072   18.8052 H   0  0  0  0  0  0
  -29.0622  -25.3963   21.5146 H   0  0  0  0  0  0
  -27.3504  -25.3681   21.3105 H   0  0  0  0  0  0
  -29.5483  -14.6945   22.1647 H   0  0  0  0  0  0
  -30.9842  -21.6942   20.7362 H   0  0  0  0  0  0
  1 25  1  0  0  0
  1 30  2  0  0  0
  1 82  1  0  0  0
  2  3  1  0  0  0
  2 25  1  0  0  0
  2 87  1  0  0  0
  2 88  1  0  0  0
  3  4  1  0  0  0
  3 89  1  0  0  0
  3 90  1  0  0  0
  4  5  1  0  0  0
  4 91  1  0  0  0
  4 92  1  0  0  0
  5  6  1  0  0  0
  5 26  1  0  0  0
  5 93  1  0  0  0
  6 25  1  0  0  0
  6 94  1  0  0  0
  6 95  1  0  0  0
  7  8  2  0  0  0
  7 26  1  0  0  0
  7 29  1  0  0  0
  8  9  1  0  0  0
  8 22  1  0  0  0
  9 10  1  0  0  0
  9 27  2  0  0  0
 10 11  2  0  0  0
 10 15  1  0  0  0
 11 12  1  0  0  0
 11 96  1  0  0  0
 12 13  2  0  0  0
 12 97  1  0  0  0
 13 14  1  0  0  0
 13 31  1  0  0  0
 14 15  2  0  0  0
 14 98  1  0  0  0
 15 99  1  0  0  0
 16 17  2  0  0  0
 16 21  1  0  0  0
 16 31  1  0  0  0
 17 18  1  0  0  0
 17100  1  0  0  0
 18 19  2  0  0  0
 18101  1  0  0  0
 19 20  1  0  0  0
 19 24  1  0  0  0
 20 21  2  0  0  0
 20102  1  0  0  0
 21 23  1  0  0  0
 22 28  1  0  0  0
 22 32  2  0  0  0
 26 27  1  0  0  0
 28103  1  0  0  0
 28104  1  0  0  0
 29105  1  0  0  0
 29106  1  0  0  0
 33 34  1  0  0  0
 33 66  1  0  0  0
 33 70  2  0  0  0
 34 36  1  0  0  0
 34 59  1  0  0  0
 34107  1  0  0  0
 35 44  2  0  0  0
 35 45  1  0  0  0
 35 68  1  0  0  0
 36 56  1  0  0  0
 36108  1  0  0  0
 37 39  1  0  0  0
 37 47  1  0  0  0
 37 66  1  0  0  0
 37109  1  0  0  0
 38 43  2  0  0  0
 38 46  1  0  0  0
 38 47  1  0  0  0
 39 64  1  0  0  0
 39 67  2  0  0  0
 40 52  1  0  0  0
 40 53  2  0  0  0
 40 58  1  0  0  0
 41110  1  0  0  0
 41111  1  0  0  0
 41112  1  0  0  0
 41 48  1  0  0  0
 42 43  1  0  0  0
 42 66  1  0  0  0
 42113  1  0  0  0
 42114  1  0  0  0
 43 44  1  0  0  0
 44115  1  0  0  0
 45 46  2  0  0  0
 45116  1  0  0  0
 46117  1  0  0  0
 47118  1  0  0  0
 47119  1  0  0  0
 48 56  1  0  0  0
 48 65  1  0  0  0
 48120  1  0  0  0
 49 50  1  0  0  0
 49 53  1  0  0  0
 49 64  1  0  0  0
 49121  1  0  0  0
 50 51  1  0  0  0
 50122  1  0  0  0
 50123  1  0  0  0
 51 52  1  0  0  0
 51124  1  0  0  0
 51125  1  0  0  0
 52126  1  0  0  0
 52127  1  0  0  0
 53 54  1  0  0  0
 54 55  2  0  0  0
 54128  1  0  0  0
 55 57  1  0  0  0
 55129  1  0  0  0
 56 69  2  0  0  0
 57 58  2  0  0  0
 57130  1  0  0  0
 58131  1  0  0  0
 59 60  1  0  0  0
 59 61  1  0  0  0
 59 62  1  0  0  0
 60132  1  0  0  0
 60133  1  0  0  0
 60134  1  0  0  0
 61135  1  0  0  0
 61136  1  0  0  0
 61137  1  0  0  0
 62138  1  0  0  0
 62139  1  0  0  0
 62140  1  0  0  0
 63 65  1  0  0  0
 63141  1  0  0  0
 63142  1  0  0  0
 63143  1  0  0  0
 64144  1  0  0  0
 65145  1  0  0  0
 68 81  1  0  0  0
 71 72  2  0  0  0
 71 74  1  0  0  0
 71146  1  0  0  0
 72 75  1  0  0  0
 72147  1  0  0  0
 73 75  2  0  0  0
 73 76  1  0  0  0
 73 78  1  0  0  0
 74 76  2  0  0  0
 74 82  1  0  0  0
 75 85  1  0  0  0
 76 86  1  0  0  0
 77 79  1  0  0  0
 77 83  1  0  0  0
 77 84  2  0  0  0
 78 83  1  0  0  0
 78148  1  0  0  0
 78149  1  0  0  0
 79 80  1  0  0  0
 79150  1  0  0  0
 79151  1  0  0  0
 80 81  1  0  0  0
 80152  1  0  0  0
 80153  1  0  0  0
 81154  1  0  0  0
 81155  1  0  0  0
 82156  1  0  0  0
 83157  1  0  0  0
M  ISO  4   1 100  68 101  81 101  82 100
M  END
> <chiral flag>
0

> <version>
0

> <s_m_source_file>
/data/baiqing/PycharmProjects/Reinvent-master-3.2/result/LINK_invent/BTK/process_docking_weight1_custom_product_contain_oxygen_bond_distance_aromatic_linkinvent_7_9_3/rearranged_h_0165.sdf

> <i_m_source_file_index>
39

> <r_mmod_Potential_Energy-OPLS-2005>
-168.761764526367

> <r_mmod_Stretch_Energy-OPLS-2005>
35.7662658691406

> <r_mmod_Bend_Energy-OPLS-2005>
105.686752319336

> <r_mmod_Torsional_Energy-OPLS-2005>
239.215682983398

> <r_mmod_Improper_Torsional_Energy-OPLS-2005>
4.70268201828003

> <r_mmod_Van_der_Waal_Energy-OPLS-2005>
160.319686889648

> <r_mmod_Electrostatic_Energy-OPLS-2005>
-484.224395751953

> <r_mmod_Solvation_Energy-OPLS-2005>
-238.932861328125

> <b_mmod_Minimization_Converged-OPLS-2005>
0

> <r_mmod_RMS_Derivative-OPLS-2005>
3.41988730430603

$$$$
39
                    3D
 Structure written by MMmdl.
161170  0  0  1  0            999 V2000
  -30.6130  -14.6432   20.5236 C   0  0  0  0  0  0
  -30.4448  -12.4004   19.4512 C   0  0  0  0  0  0
  -29.5105  -12.5168   18.2256 C   0  0  0  0  0  0
  -28.0334  -12.3500   18.6371 C   0  0  0  0  0  0
  -27.6571  -13.2149   19.8693 C   0  0  2  0  0  0
  -28.7010  -13.0527   20.9972 C   0  0  0  0  0  0
  -25.2573  -13.8166   20.5683 C   0  0  0  0  0  0
  -24.1834  -13.0434   20.9180 C   0  0  0  0  0  0
  -24.6401  -11.6905   20.8737 C   0  0  0  0  0  0
  -23.9066  -10.4289   21.0405 C   0  0  0  0  0  0
  -24.3616   -9.4206   21.9184 C   0  0  0  0  0  0
  -23.6289   -8.2244   22.0755 C   0  0  0  0  0  0
  -22.4273   -8.0282   21.3543 C   0  0  0  0  0  0
  -21.9909   -9.0256   20.4645 C   0  0  0  0  0  0
  -22.7240  -10.2133   20.3053 C   0  0  0  0  0  0
  -21.6852   -6.0735   22.5279 C   0  0  0  0  0  0
  -21.4013   -6.5640   23.8212 C   0  0  0  0  0  0
  -21.3658   -5.6790   24.9172 C   0  0  0  0  0  0
  -21.6044   -4.3052   24.7222 C   0  0  0  0  0  0
  -21.8820   -3.8145   23.4344 C   0  0  0  0  0  0
  -21.9193   -4.6963   22.3401 C   0  0  0  0  0  0
  -22.7856  -13.5231   21.1846 C   0  0  0  0  0  0
  -22.1662   -4.2148   21.0978 F   0  0  0  0  0  0
  -21.5629   -3.4535   25.7736 F   0  0  0  0  0  0
  -30.0171  -13.4100   20.4408 N   0  0  0  0  0  0
  -26.3007  -12.9347   20.3340 N   0  0  0  0  0  0
  -25.9330  -11.6500   20.5760 N   0  0  0  0  0  0
  -22.0493  -12.8226   22.0400 N   0  0  0  0  0  0
  -25.4285  -15.1888   20.4109 N   0  0  0  0  0  0
  -31.7545  -14.8367   20.0940 O   0  0  0  0  0  0
  -21.6637   -6.8879   21.4240 O   0  0  0  0  0  0
  -22.3545  -14.5541   20.6698 O   0  0  0  0  0  0
  -24.6265  -31.8594   23.2028 C   0  0  0  0  0  0
  -25.9111  -32.4776   23.8356 C   0  0  1  0  0  0
  -27.2233  -27.3138   20.1126 C   0  0  0  0  0  0
  -25.5923  -33.8577   24.2276 N   0  0  0  0  0  0
  -23.4207  -30.4844   21.5453 C   0  0  2  0  0  0
  -24.8669  -28.9422   20.1089 C   0  0  0  0  0  0
  -22.7480  -29.4624   22.4931 C   0  0  0  0  0  0
  -18.0288  -28.1390   22.8491 C   0  0  0  0  0  0
  -24.1485  -36.7291   23.2641 C   0  0  0  0  0  0
  -25.9631  -30.7874   21.3765 C   0  0  0  0  0  0
  -26.0361  -29.4152   20.7175 C   0  0  0  0  0  0
  -27.2158  -28.6116   20.7137 C   0  0  0  0  0  0
  -26.0312  -26.9031   19.4686 C   0  0  0  0  0  0
  -24.8667  -27.6914   19.4764 C   0  0  0  0  0  0
  -23.6353  -29.8224   20.1595 C   0  0  0  0  0  0
  -25.4110  -36.3082   24.0333 C   0  0  1  0  0  0
  -20.5890  -28.3691   23.1282 C   0  0  2  0  0  0
  -20.6777  -26.9415   22.5408 C   0  0  0  0  0  0
  -19.5748  -26.6389   21.5213 C   0  0  0  0  0  0
  -18.1931  -26.7935   22.1626 C   0  0  0  0  0  0
  -19.1542  -28.8857   23.2882 C   0  0  0  0  0  0
  -18.9463  -30.1459   23.8899 C   0  0  0  0  0  0
  -17.6464  -30.6592   24.0567 C   0  0  0  0  0  0
  -25.9052  -34.9452   23.5106 C   0  0  0  0  0  0
  -16.5353  -29.9094   23.6333 C   0  0  0  0  0  0
  -16.7275  -28.6511   23.0354 C   0  0  0  0  0  0
  -26.4490  -31.6590   25.0730 C   0  0  0  0  0  0
  -25.3720  -31.3728   26.1454 C   0  0  0  0  0  0
  -27.0339  -30.3016   24.6189 C   0  0  0  0  0  0
  -27.6045  -32.4330   25.7505 C   0  0  0  0  0  0
  -27.5578  -37.1800   24.8464 C   0  0  0  0  0  0
  -21.4194  -29.3043   22.3673 N   0  0  0  0  0  0
  -26.4284  -37.3779   23.9418 N   0  0  0  0  0  0
  -24.6889  -31.0605   22.0982 N   0  0  0  0  0  0
  -23.4203  -28.8160   23.3008 O   0  0  0  0  0  0
  -28.3344  -26.4533   20.1769 O   0  0  0  0  0  0
  -26.5624  -34.8922   22.4674 O   0  0  0  0  0  0
  -23.5427  -32.1395   23.7351 O   0  0  0  0  0  0
  -29.7404  -19.2662   19.7563 C   0  0  0  0  0  0
  -29.8350  -19.2999   22.1782 C   0  0  0  0  0  0
  -29.9466  -17.8643   22.1823 C   0  0  0  0  0  0
  -29.7531  -20.0340   20.9519 C   0  0  0  0  0  0
  -29.9366  -17.1059   20.9758 C   0  0  0  0  0  0
  -29.8245  -17.8396   19.7646 C   0  0  0  0  0  0
  -29.1086  -23.9641   20.4944 C   0  0  0  0  0  0
  -28.7770  -19.7526   24.5645 C   0  0  0  0  0  0
  -28.7387  -21.0678   23.8373 C   0  0  0  0  0  0
  -29.8129  -20.0502   23.4956 C   0  0  0  0  0  0
  -30.0776  -17.1076   23.5037 C   0  0  0  0  0  0
  -28.9908  -22.4241   20.1166 C   0  0  0  0  0  0
  -28.1152  -25.0162   19.8619 C   0  0  0  0  0  0
  -29.8290  -15.6472   21.0207 N   0  0  0  0  0  0
  -29.7595  -21.4725   20.9810 N   0  0  0  0  0  0
  -29.9660  -24.3246   21.3096 O   0  0  0  0  0  0
  -29.7578  -17.1676   18.5891 F   0  0  0  0  0  0
  -31.4842  -12.5384   19.1480 H   0  0  0  0  0  0
  -30.3909  -11.4005   19.8843 H   0  0  0  0  0  0
  -29.7768  -11.7698   17.4766 H   0  0  0  0  0  0
  -29.6497  -13.4889   17.7498 H   0  0  0  0  0  0
  -27.8718  -11.2956   18.8646 H   0  0  0  0  0  0
  -27.3782  -12.5828   17.7970 H   0  0  0  0  0  0
  -27.6810  -14.2535   19.5384 H   0  0  0  0  0  0
  -28.7152  -12.0233   21.3586 H   0  0  0  0  0  0
  -28.4392  -13.6622   21.8633 H   0  0  0  0  0  0
  -25.2761   -9.5681   22.4755 H   0  0  0  0  0  0
  -23.9997   -7.4636   22.7476 H   0  0  0  0  0  0
  -21.0839   -8.8774   19.8951 H   0  0  0  0  0  0
  -22.3702  -10.9669   19.6158 H   0  0  0  0  0  0
  -21.2004   -7.6149   23.9714 H   0  0  0  0  0  0
  -21.1480   -6.0519   25.9075 H   0  0  0  0  0  0
  -22.0601   -2.7606   23.2842 H   0  0  0  0  0  0
  -22.4096  -11.9878   22.4780 H   0  0  0  0  0  0
  -21.1117  -13.1266   22.2609 H   0  0  0  0  0  0
  -24.6603  -15.8422   20.5185 H   0  0  0  0  0  0
  -26.2788  -15.6296   20.0834 H   0  0  0  0  0  0
  -26.7180  -32.5438   23.1106 H   0  0  0  0  0  0
  -25.0060  -33.9719   25.0415 H   0  0  0  0  0  0
  -22.7147  -31.3053   21.4032 H   0  0  0  0  0  0
  -23.3753  -35.9616   23.3296 H   0  0  0  0  0  0
  -24.3582  -36.8914   22.2057 H   0  0  0  0  0  0
  -23.7227  -37.6488   23.6664 H   0  0  0  0  0  0
  -26.0970  -31.5510   20.6092 H   0  0  0  0  0  0
  -26.8430  -30.8341   22.0063 H   0  0  0  0  0  0
  -28.1100  -28.9682   21.2058 H   0  0  0  0  0  0
  -25.9620  -25.9559   18.9552 H   0  0  0  0  0  0
  -23.9732  -27.3260   18.9893 H   0  0  0  0  0  0
  -23.7542  -30.6002   19.4040 H   0  0  0  0  0  0
  -22.7552  -29.2523   19.8567 H   0  0  0  0  0  0
  -25.1287  -36.1932   25.0824 H   0  0  0  0  0  0
  -20.9983  -28.3261   24.1402 H   0  0  0  0  0  0
  -20.5680  -26.2301   23.3606 H   0  0  0  0  0  0
  -21.6643  -26.7446   22.1193 H   0  0  0  0  0  0
  -19.6911  -25.6301   21.1239 H   0  0  0  0  0  0
  -19.6688  -27.3205   20.6745 H   0  0  0  0  0  0
  -17.4199  -26.6686   21.4028 H   0  0  0  0  0  0
  -18.0329  -26.0076   22.9021 H   0  0  0  0  0  0
  -19.7939  -30.7276   24.2266 H   0  0  0  0  0  0
  -17.5020  -31.6273   24.5170 H   0  0  0  0  0  0
  -15.5355  -30.2997   23.7660 H   0  0  0  0  0  0
  -15.8674  -28.0833   22.7067 H   0  0  0  0  0  0
  -24.5892  -30.7081   25.7781 H   0  0  0  0  0  0
  -24.8916  -32.2895   26.4884 H   0  0  0  0  0  0
  -25.8041  -30.8900   27.0226 H   0  0  0  0  0  0
  -26.2919  -29.6768   24.1203 H   0  0  0  0  0  0
  -27.4030  -29.7269   25.4694 H   0  0  0  0  0  0
  -27.8790  -30.4310   23.9423 H   0  0  0  0  0  0
  -27.2651  -33.3633   26.2073 H   0  0  0  0  0  0
  -28.3862  -32.6884   25.0339 H   0  0  0  0  0  0
  -28.0704  -31.8461   26.5430 H   0  0  0  0  0  0
  -28.2582  -38.0111   24.7528 H   0  0  0  0  0  0
  -28.1082  -36.2642   24.6261 H   0  0  0  0  0  0
  -27.2302  -37.1410   25.8868 H   0  0  0  0  0  0
  -20.9370  -29.8772   21.6888 H   0  0  0  0  0  0
  -26.0163  -38.2850   24.1429 H   0  0  0  0  0  0
  -29.6752  -19.7684   18.8028 H   0  0  0  0  0  0
  -27.9851  -19.0425   24.3333 H   0  0  0  0  0  0
  -29.0967  -19.7741   25.6044 H   0  0  0  0  0  0
  -29.0357  -21.9503   24.4011 H   0  0  0  0  0  0
  -27.9197  -21.2151   23.1357 H   0  0  0  0  0  0
  -30.8274  -20.2663   23.8261 H   0  0  0  0  0  0
  -30.5958  -17.6908   24.2637 H   0  0  0  0  0  0
  -30.6575  -16.1917   23.3922 H   0  0  0  0  0  0
  -29.0934  -16.8379   23.8870 H   0  0  0  0  0  0
  -29.3143  -22.3081   19.0818 H   0  0  0  0  0  0
  -27.9355  -22.1507   20.1432 H   0  0  0  0  0  0
  -27.1311  -24.7135   20.2184 H   0  0  0  0  0  0
  -28.1180  -24.8864   18.7797 H   0  0  0  0  0  0
  -28.9763  -15.3096   21.4386 H   0  0  0  0  0  0
  -29.9384  -21.8764   21.8972 H   0  0  0  0  0  0
  1 25  1  0  0  0
  1 30  2  0  0  0
  1 84  1  0  0  0
  2  3  1  0  0  0
  2 25  1  0  0  0
  2 88  1  0  0  0
  2 89  1  0  0  0
  3  4  1  0  0  0
  3 90  1  0  0  0
  3 91  1  0  0  0
  4  5  1  0  0  0
  4 92  1  0  0  0
  4 93  1  0  0  0
  5  6  1  0  0  0
  5 26  1  0  0  0
  5 94  1  0  0  0
  6 25  1  0  0  0
  6 95  1  0  0  0
  6 96  1  0  0  0
  7  8  2  0  0  0
  7 26  1  0  0  0
  7 29  1  0  0  0
  8  9  1  0  0  0
  8 22  1  0  0  0
  9 10  1  0  0  0
  9 27  2  0  0  0
 10 11  2  0  0  0
 10 15  1  0  0  0
 11 12  1  0  0  0
 11 97  1  0  0  0
 12 13  2  0  0  0
 12 98  1  0  0  0
 13 14  1  0  0  0
 13 31  1  0  0  0
 14 15  2  0  0  0
 14 99  1  0  0  0
 15100  1  0  0  0
 16 17  2  0  0  0
 16 21  1  0  0  0
 16 31  1  0  0  0
 17 18  1  0  0  0
 17101  1  0  0  0
 18 19  2  0  0  0
 18102  1  0  0  0
 19 20  1  0  0  0
 19 24  1  0  0  0
 20 21  2  0  0  0
 20103  1  0  0  0
 21 23  1  0  0  0
 22 28  1  0  0  0
 22 32  2  0  0  0
 26 27  1  0  0  0
 28104  1  0  0  0
 28105  1  0  0  0
 29106  1  0  0  0
 29107  1  0  0  0
 33 34  1  0  0  0
 33 66  1  0  0  0
 33 70  2  0  0  0
 34 36  1  0  0  0
 34 59  1  0  0  0
 34108  1  0  0  0
 35 44  2  0  0  0
 35 45  1  0  0  0
 35 68  1  0  0  0
 36 56  1  0  0  0
 36109  1  0  0  0
 37 39  1  0  0  0
 37 47  1  0  0  0
 37 66  1  0  0  0
 37110  1  0  0  0
 38 43  2  0  0  0
 38 46  1  0  0  0
 38 47  1  0  0  0
 39 64  1  0  0  0
 39 67  2  0  0  0
 40 52  1  0  0  0
 40 53  2  0  0  0
 40 58  1  0  0  0
 41111  1  0  0  0
 41112  1  0  0  0
 41113  1  0  0  0
 41 48  1  0  0  0
 42 43  1  0  0  0
 42 66  1  0  0  0
 42114  1  0  0  0
 42115  1  0  0  0
 43 44  1  0  0  0
 44116  1  0  0  0
 45 46  2  0  0  0
 45117  1  0  0  0
 46118  1  0  0  0
 47119  1  0  0  0
 47120  1  0  0  0
 48 56  1  0  0  0
 48 65  1  0  0  0
 48121  1  0  0  0
 49 50  1  0  0  0
 49 53  1  0  0  0
 49 64  1  0  0  0
 49122  1  0  0  0
 50 51  1  0  0  0
 50123  1  0  0  0
 50124  1  0  0  0
 51 52  1  0  0  0
 51125  1  0  0  0
 51126  1  0  0  0
 52127  1  0  0  0
 52128  1  0  0  0
 53 54  1  0  0  0
 54 55  2  0  0  0
 54129  1  0  0  0
 55 57  1  0  0  0
 55130  1  0  0  0
 56 69  2  0  0  0
 57 58  2  0  0  0
 57131  1  0  0  0
 58132  1  0  0  0
 59 60  1  0  0  0
 59 61  1  0  0  0
 59 62  1  0  0  0
 60133  1  0  0  0
 60134  1  0  0  0
 60135  1  0  0  0
 61136  1  0  0  0
 61137  1  0  0  0
 61138  1  0  0  0
 62139  1  0  0  0
 62140  1  0  0  0
 62141  1  0  0  0
 63 65  1  0  0  0
 63142  1  0  0  0
 63143  1  0  0  0
 63144  1  0  0  0
 64145  1  0  0  0
 65146  1  0  0  0
 68 83  1  0  0  0
 71 74  2  0  0  0
 71 76  1  0  0  0
 71147  1  0  0  0
 72 73  2  0  0  0
 72 74  1  0  0  0
 72 80  1  0  0  0
 73 75  1  0  0  0
 73 81  1  0  0  0
 74 85  1  0  0  0
 75 76  2  0  0  0
 75 84  1  0  0  0
 76 87  1  0  0  0
 77 82  1  0  0  0
 77 83  1  0  0  0
 77 86  2  0  0  0
 78 79  1  0  0  0
 78 80  1  0  0  0
 78148  1  0  0  0
 78149  1  0  0  0
 79 80  1  0  0  0
 79150  1  0  0  0
 79151  1  0  0  0
 80152  1  0  0  0
 81153  1  0  0  0
 81154  1  0  0  0
 81155  1  0  0  0
 82 85  1  0  0  0
 82156  1  0  0  0
 82157  1  0  0  0
 83158  1  0  0  0
 83159  1  0  0  0
 84160  1  0  0  0
 85161  1  0  0  0
M  ISO  4   1 100  68 101  83 101  84 100
M  END
> <chiral flag>
0

> <version>
0

> <s_m_source_file>
/data/baiqing/PycharmProjects/Reinvent-master-3.2/result/LINK_invent/BTK/process_docking_weight1_custom_product_contain_oxygen_bond_distance_aromatic_linkinvent_7_9_3/rearranged_h_0165.sdf

> <i_m_source_file_index>
40

> <r_mmod_Potential_Energy-OPLS-2005>
93.0275268554688

> <r_mmod_Stretch_Energy-OPLS-2005>
83.957405090332

> <r_mmod_Bend_Energy-OPLS-2005>
141.815383911133

> <r_mmod_Torsional_Energy-OPLS-2005>
260.743103027344

> <r_mmod_Improper_Torsional_Energy-OPLS-2005>
6.02647304534912

> <r_mmod_Van_der_Waal_Energy-OPLS-2005>
148.410568237305

> <r_mmod_Electrostatic_Energy-OPLS-2005>
-360.348297119141

> <r_mmod_Solvation_Energy-OPLS-2005>
-238.460891723633

> <b_mmod_Minimization_Converged-OPLS-2005>
0

> <r_mmod_RMS_Derivative-OPLS-2005>
0.536245942115784

$$$$
40
                    3D
 Structure written by MMmdl.
167175  0  0  1  0            999 V2000
  -30.6987  -14.5240   20.5308 C   0  0  0  0  0  0
  -30.4188  -12.3267   19.4437 C   0  0  0  0  0  0
  -29.4979  -12.4981   18.2178 C   0  0  0  0  0  0
  -28.0197  -12.3564   18.6287 C   0  0  0  0  0  0
  -27.6570  -13.2158   19.8704 C   0  0  2  0  0  0
  -28.7001  -13.0476   20.9996 C   0  0  0  0  0  0
  -25.2572  -13.8180   20.5693 C   0  0  0  0  0  0
  -24.1833  -13.0442   20.9185 C   0  0  0  0  0  0
  -24.6397  -11.6912   20.8737 C   0  0  0  0  0  0
  -23.9069  -10.4291   21.0404 C   0  0  0  0  0  0
  -24.3621   -9.4208   21.9184 C   0  0  0  0  0  0
  -23.6291   -8.2246   22.0759 C   0  0  0  0  0  0
  -22.4274   -8.0282   21.3549 C   0  0  0  0  0  0
  -21.9912   -9.0257   20.4652 C   0  0  0  0  0  0
  -22.7241  -10.2134   20.3058 C   0  0  0  0  0  0
  -21.6853   -6.0735   22.5277 C   0  0  0  0  0  0
  -21.4012   -6.5641   23.8210 C   0  0  0  0  0  0
  -21.3660   -5.6793   24.9172 C   0  0  0  0  0  0
  -21.6046   -4.3054   24.7221 C   0  0  0  0  0  0
  -21.8819   -3.8145   23.4343 C   0  0  0  0  0  0
  -21.9193   -4.6963   22.3400 C   0  0  0  0  0  0
  -22.7855  -13.5236   21.1838 C   0  0  0  0  0  0
  -22.1661   -4.2148   21.0976 F   0  0  0  0  0  0
  -21.5632   -3.4539   25.7735 F   0  0  0  0  0  0
  -30.0254  -13.3423   20.4368 N   0  0  0  0  0  0
  -26.3007  -12.9365   20.3358 N   0  0  0  0  0  0
  -25.9330  -11.6515   20.5779 N   0  0  0  0  0  0
  -22.0499  -12.8227   22.0394 N   0  0  0  0  0  0
  -25.4284  -15.1900   20.4100 N   0  0  0  0  0  0
  -31.8500  -14.6548   20.1087 O   0  0  0  0  0  0
  -21.6644   -6.8876   21.4237 O   0  0  0  0  0  0
  -22.3540  -14.5539   20.6682 O   0  0  0  0  0  0
  -24.6183  -31.8649   23.2094 C   0  0  0  0  0  0
  -25.9061  -32.4812   23.8399 C   0  0  1  0  0  0
  -27.2297  -27.4067   20.1051 C   0  0  0  0  0  0
  -25.5910  -33.8613   24.2328 N   0  0  0  0  0  0
  -23.4086  -30.4890   21.5501 C   0  0  2  0  0  0
  -24.8562  -28.9540   20.1125 C   0  0  0  0  0  0
  -22.7433  -29.4646   22.4984 C   0  0  0  0  0  0
  -18.0271  -28.1378   22.8493 C   0  0  0  0  0  0
  -24.1486  -36.7305   23.2640 C   0  0  0  0  0  0
  -25.9408  -30.8233   21.3667 C   0  0  0  0  0  0
  -26.0195  -29.4570   20.7110 C   0  0  0  0  0  0
  -27.2131  -28.6915   20.7032 C   0  0  0  0  0  0
  -26.0526  -26.9303   19.4904 C   0  0  0  0  0  0
  -24.8690  -27.6912   19.4967 C   0  0  0  0  0  0
  -23.6187  -29.8225   20.1645 C   0  0  0  0  0  0
  -25.4107  -36.3107   24.0341 C   0  0  1  0  0  0
  -20.5866  -28.3669   23.1311 C   0  0  2  0  0  0
  -20.6759  -26.9403   22.5413 C   0  0  0  0  0  0
  -19.5744  -26.6382   21.5210 C   0  0  0  0  0  0
  -18.1924  -26.7924   22.1619 C   0  0  0  0  0  0
  -19.1523  -28.8840   23.2898 C   0  0  0  0  0  0
  -18.9446  -30.1444   23.8913 C   0  0  0  0  0  0
  -17.6445  -30.6585   24.0562 C   0  0  0  0  0  0
  -25.9036  -34.9472   23.5130 C   0  0  0  0  0  0
  -16.5336  -29.9084   23.6332 C   0  0  0  0  0  0
  -16.7256  -28.6498   23.0361 C   0  0  0  0  0  0
  -26.4481  -31.6601   25.0737 C   0  0  0  0  0  0
  -25.3742  -31.3692   26.1478 C   0  0  0  0  0  0
  -27.0317  -30.3047   24.6123 C   0  0  0  0  0  0
  -27.6073  -32.4311   25.7482 C   0  0  0  0  0  0
  -27.5582  -37.1803   24.8464 C   0  0  0  0  0  0
  -21.4154  -29.3033   22.3719 N   0  0  0  0  0  0
  -26.4290  -37.3794   23.9415 N   0  0  0  0  0  0
  -24.6745  -31.0734   22.1005 N   0  0  0  0  0  0
  -23.4190  -28.8184   23.3036 O   0  0  0  0  0  0
  -28.3450  -26.5882   20.1327 O   0  0  0  0  0  0
  -26.5592  -34.8925   22.4688 O   0  0  0  0  0  0
  -23.5365  -32.1400   23.7476 O   0  0  0  0  0  0
  -29.7112  -19.4369   20.9027 C   0  0  0  0  0  0
  -29.0600  -20.4951   22.9752 C   0  0  0  0  0  0
  -29.8593  -18.1746   21.5551 C   0  0  0  0  0  0
  -29.5942  -18.0926   22.9582 C   0  0  0  0  0  0
  -29.3039  -20.6110   21.5901 C   0  0  0  0  0  0
  -29.1928  -19.2661   23.6628 C   0  0  0  0  0  0
  -28.1634  -25.3658   20.7655 C   0  0  0  0  0  0
  -28.8117  -24.2067   20.4754 C   0  0  0  0  0  0
  -28.4980  -22.9862   21.2474 C   0  0  0  0  0  0
  -31.2596  -16.4472   23.9994 C   0  0  0  0  0  0
  -28.2769  -20.0034   27.2874 C   0  0  0  0  0  0
  -29.7838  -16.7794   23.7319 C   0  0  0  0  0  0
  -30.4425  -17.0077   20.7109 C   0  0  0  0  0  0
  -28.5083  -20.3633   25.8176 C   0  0  0  0  0  0
  -29.2314  -21.8906   20.9135 N   0  0  0  0  0  0
  -28.9609  -19.2092   25.0509 N   0  0  0  0  0  0
  -29.9845  -15.6102   20.9093 N   0  0  0  0  0  0
  -27.6161  -22.9455   22.1098 O   0  0  0  0  0  0
  -29.7289  -24.1713   19.4970 O   0  0  0  0  0  0
  -31.4649  -12.4128   19.1453 H   0  0  0  0  0  0
  -30.3128  -11.3267   19.8672 H   0  0  0  0  0  0
  -29.7453  -11.7601   17.4536 H   0  0  0  0  0  0
  -29.6626  -13.4768   17.7637 H   0  0  0  0  0  0
  -27.8369  -11.3025   18.8419 H   0  0  0  0  0  0
  -27.3689  -12.6122   17.7917 H   0  0  0  0  0  0
  -27.6860  -14.2564   19.5458 H   0  0  0  0  0  0
  -28.6827  -12.0286   21.3892 H   0  0  0  0  0  0
  -28.4656  -13.6940   21.8465 H   0  0  0  0  0  0
  -25.2768   -9.5683   22.4756 H   0  0  0  0  0  0
  -23.9999   -7.4643   22.7484 H   0  0  0  0  0  0
  -21.0842   -8.8775   19.8961 H   0  0  0  0  0  0
  -22.3701  -10.9671   19.6167 H   0  0  0  0  0  0
  -21.2000   -7.6149   23.9709 H   0  0  0  0  0  0
  -21.1487   -6.0527   25.9075 H   0  0  0  0  0  0
  -22.0597   -2.7608   23.2842 H   0  0  0  0  0  0
  -22.4116  -11.9885   22.4774 H   0  0  0  0  0  0
  -21.1122  -13.1260   22.2604 H   0  0  0  0  0  0
  -24.6617  -15.8444   20.5215 H   0  0  0  0  0  0
  -26.2796  -15.6308   20.0844 H   0  0  0  0  0  0
  -26.7140  -32.5510   23.1168 H   0  0  0  0  0  0
  -25.0095  -33.9771   25.0498 H   0  0  0  0  0  0
  -22.6986  -31.3070   21.4110 H   0  0  0  0  0  0
  -23.3751  -35.9635   23.3303 H   0  0  0  0  0  0
  -24.3585  -36.8912   22.2053 H   0  0  0  0  0  0
  -23.7231  -37.6508   23.6648 H   0  0  0  0  0  0
  -26.0572  -31.5904   20.6001 H   0  0  0  0  0  0
  -26.8280  -30.8747   21.9863 H   0  0  0  0  0  0
  -28.1089  -29.0686   21.1764 H   0  0  0  0  0  0
  -26.0476  -25.9561   19.0215 H   0  0  0  0  0  0
  -23.9756  -27.2977   19.0313 H   0  0  0  0  0  0
  -23.7283  -30.5981   19.4058 H   0  0  0  0  0  0
  -22.7416  -29.2435   19.8682 H   0  0  0  0  0  0
  -25.1288  -36.1969   25.0835 H   0  0  0  0  0  0
  -20.9951  -28.3220   24.1431 H   0  0  0  0  0  0
  -20.5662  -26.2272   23.3599 H   0  0  0  0  0  0
  -21.6632  -26.7444   22.1205 H   0  0  0  0  0  0
  -19.6908  -25.6296   21.1236 H   0  0  0  0  0  0
  -19.6693  -27.3195   20.6742 H   0  0  0  0  0  0
  -17.4197  -26.6678   21.4015 H   0  0  0  0  0  0
  -18.0322  -26.0062   22.9008 H   0  0  0  0  0  0
  -19.7919  -30.7256   24.2299 H   0  0  0  0  0  0
  -17.4998  -31.6276   24.5148 H   0  0  0  0  0  0
  -15.5340  -30.2991   23.7653 H   0  0  0  0  0  0
  -15.8650  -28.0816   22.7088 H   0  0  0  0  0  0
  -24.5933  -30.7025   25.7798 H   0  0  0  0  0  0
  -24.8913  -32.2833   26.4941 H   0  0  0  0  0  0
  -25.8094  -30.8847   27.0228 H   0  0  0  0  0  0
  -26.2862  -29.6797   24.1196 H   0  0  0  0  0  0
  -27.4102  -29.7298   25.4585 H   0  0  0  0  0  0
  -27.8689  -30.4372   23.9268 H   0  0  0  0  0  0
  -27.2731  -33.3621   26.2069 H   0  0  0  0  0  0
  -28.3870  -32.6847   25.0288 H   0  0  0  0  0  0
  -28.0757  -31.8424   26.5378 H   0  0  0  0  0  0
  -28.2598  -38.0104   24.7529 H   0  0  0  0  0  0
  -28.1082  -36.2640   24.6268 H   0  0  0  0  0  0
  -27.2305  -37.1416   25.8866 H   0  0  0  0  0  0
  -20.9321  -29.8746   21.6930 H   0  0  0  0  0  0
  -26.0179  -38.2870   24.1426 H   0  0  0  0  0  0
  -29.9432  -19.5101   19.8489 H   0  0  0  0  0  0
  -28.7981  -21.3826   23.5275 H   0  0  0  0  0  0
  -27.4190  -25.4287   21.5508 H   0  0  0  0  0  0
  -31.3515  -15.5165   24.5597 H   0  0  0  0  0  0
  -31.7358  -17.2347   24.5843 H   0  0  0  0  0  0
  -31.8272  -16.3302   23.0773 H   0  0  0  0  0  0
  -27.9358  -20.8770   27.8444 H   0  0  0  0  0  0
  -29.1920  -19.6500   27.7641 H   0  0  0  0  0  0
  -27.5161  -19.2297   27.3983 H   0  0  0  0  0  0
  -29.2815  -15.9631   23.2225 H   0  0  0  0  0  0
  -29.2632  -16.7971   24.6870 H   0  0  0  0  0  0
  -31.5243  -17.0564   20.8452 H   0  0  0  0  0  0
  -30.2777  -17.2320   19.6560 H   0  0  0  0  0  0
  -29.2509  -21.1609   25.7538 H   0  0  0  0  0  0
  -27.5819  -20.7503   25.3888 H   0  0  0  0  0  0
  -29.8176  -22.0213   20.0991 H   0  0  0  0  0  0
  -29.0955  -18.3285   25.5377 H   0  0  0  0  0  0
  -29.0301  -15.4667   21.1994 H   0  0  0  0  0  0
  -29.7772  -25.0486   19.1374 H   0  0  0  0  0  0
  1 25  1  0  0  0
  1 30  2  0  0  0
  1 87  1  0  0  0
  2  3  1  0  0  0
  2 25  1  0  0  0
  2 90  1  0  0  0
  2 91  1  0  0  0
  3  4  1  0  0  0
  3 92  1  0  0  0
  3 93  1  0  0  0
  4  5  1  0  0  0
  4 94  1  0  0  0
  4 95  1  0  0  0
  5  6  1  0  0  0
  5 26  1  0  0  0
  5 96  1  0  0  0
  6 25  1  0  0  0
  6 97  1  0  0  0
  6 98  1  0  0  0
  7  8  2  0  0  0
  7 26  1  0  0  0
  7 29  1  0  0  0
  8  9  1  0  0  0
  8 22  1  0  0  0
  9 10  1  0  0  0
  9 27  2  0  0  0
 10 11  2  0  0  0
 10 15  1  0  0  0
 11 12  1  0  0  0
 11 99  1  0  0  0
 12 13  2  0  0  0
 12100  1  0  0  0
 13 14  1  0  0  0
 13 31  1  0  0  0
 14 15  2  0  0  0
 14101  1  0  0  0
 15102  1  0  0  0
 16 17  2  0  0  0
 16 21  1  0  0  0
 16 31  1  0  0  0
 17 18  1  0  0  0
 17103  1  0  0  0
 18 19  2  0  0  0
 18104  1  0  0  0
 19 20  1  0  0  0
 19 24  1  0  0  0
 20 21  2  0  0  0
 20105  1  0  0  0
 21 23  1  0  0  0
 22 28  1  0  0  0
 22 32  2  0  0  0
 26 27  1  0  0  0
 28106  1  0  0  0
 28107  1  0  0  0
 29108  1  0  0  0
 29109  1  0  0  0
 33 34  1  0  0  0
 33 66  1  0  0  0
 33 70  2  0  0  0
 34 36  1  0  0  0
 34 59  1  0  0  0
 34110  1  0  0  0
 35 44  2  0  0  0
 35 45  1  0  0  0
 35 68  1  0  0  0
 36 56  1  0  0  0
 36111  1  0  0  0
 37 39  1  0  0  0
 37 47  1  0  0  0
 37 66  1  0  0  0
 37112  1  0  0  0
 38 43  2  0  0  0
 38 46  1  0  0  0
 38 47  1  0  0  0
 39 64  1  0  0  0
 39 67  2  0  0  0
 40 52  1  0  0  0
 40 53  2  0  0  0
 40 58  1  0  0  0
 41113  1  0  0  0
 41114  1  0  0  0
 41115  1  0  0  0
 41 48  1  0  0  0
 42 43  1  0  0  0
 42 66  1  0  0  0
 42116  1  0  0  0
 42117  1  0  0  0
 43 44  1  0  0  0
 44118  1  0  0  0
 45 46  2  0  0  0
 45119  1  0  0  0
 46120  1  0  0  0
 47121  1  0  0  0
 47122  1  0  0  0
 48 56  1  0  0  0
 48 65  1  0  0  0
 48123  1  0  0  0
 49 50  1  0  0  0
 49 53  1  0  0  0
 49 64  1  0  0  0
 49124  1  0  0  0
 50 51  1  0  0  0
 50125  1  0  0  0
 50126  1  0  0  0
 51 52  1  0  0  0
 51127  1  0  0  0
 51128  1  0  0  0
 52129  1  0  0  0
 52130  1  0  0  0
 53 54  1  0  0  0
 54 55  2  0  0  0
 54131  1  0  0  0
 55 57  1  0  0  0
 55132  1  0  0  0
 56 69  2  0  0  0
 57 58  2  0  0  0
 57133  1  0  0  0
 58134  1  0  0  0
 59 60  1  0  0  0
 59 61  1  0  0  0
 59 62  1  0  0  0
 60135  1  0  0  0
 60136  1  0  0  0
 60137  1  0  0  0
 61138  1  0  0  0
 61139  1  0  0  0
 61140  1  0  0  0
 62141  1  0  0  0
 62142  1  0  0  0
 62143  1  0  0  0
 63 65  1  0  0  0
 63144  1  0  0  0
 63145  1  0  0  0
 63146  1  0  0  0
 64147  1  0  0  0
 65148  1  0  0  0
 68 77  1  0  0  0
 71 73  2  0  0  0
 71 75  1  0  0  0
 71149  1  0  0  0
 72 75  2  0  0  0
 72 76  1  0  0  0
 72150  1  0  0  0
 73 74  1  0  0  0
 73 83  1  0  0  0
 74 76  2  0  0  0
 74 82  1  0  0  0
 75 85  1  0  0  0
 76 86  1  0  0  0
 77 78  2  0  0  0
 77151  1  0  0  0
 78 79  1  0  0  0
 78 89  1  0  0  0
 79 85  1  0  0  0
 79 88  2  0  0  0
 80 82  1  0  0  0
 80152  1  0  0  0
 80153  1  0  0  0
 80154  1  0  0  0
 81 84  1  0  0  0
 81155  1  0  0  0
 81156  1  0  0  0
 81157  1  0  0  0
 82158  1  0  0  0
 82159  1  0  0  0
 83 87  1  0  0  0
 83160  1  0  0  0
 83161  1  0  0  0
 84 86  1  0  0  0
 84162  1  0  0  0
 84163  1  0  0  0
 85164  1  0  0  0
 86165  1  0  0  0
 87166  1  0  0  0
 89167  1  0  0  0
M  ISO  4   1 100  68 101  77 101  87 100
M  END
> <chiral flag>
0

> <version>
0

> <s_m_source_file>
/data/baiqing/PycharmProjects/Reinvent-master-3.2/result/LINK_invent/BTK/process_docking_weight1_custom_product_contain_oxygen_bond_distance_aromatic_linkinvent_7_9_3/rearranged_h_0165.sdf

> <i_m_source_file_index>
41

> <r_mmod_Potential_Energy-OPLS-2005>
-126.750717163086

> <r_mmod_Stretch_Energy-OPLS-2005>
52.6679992675781

> <r_mmod_Bend_Energy-OPLS-2005>
122.274681091309

> <r_mmod_Torsional_Energy-OPLS-2005>
203.724075317383

> <r_mmod_Improper_Torsional_Energy-OPLS-2005>
5.71320724487305

> <r_mmod_Van_der_Waal_Energy-OPLS-2005>
171.041366577148

> <r_mmod_Electrostatic_Energy-OPLS-2005>
-479.973388671875

> <r_mmod_Solvation_Energy-OPLS-2005>
-224.202911376953

> <b_mmod_Minimization_Converged-OPLS-2005>
0

> <r_mmod_RMS_Derivative-OPLS-2005>
0.864300429821014

$$$$
42
                    3D
 Structure written by MMmdl.
156164  0  0  1  0            999 V2000
  -30.6148  -14.7278   20.4975 C   0  0  0  0  0  0
  -30.4307  -12.4546   19.4718 C   0  0  0  0  0  0
  -29.5110  -12.5264   18.2335 C   0  0  0  0  0  0
  -28.0341  -12.3485   18.6427 C   0  0  0  0  0  0
  -27.6412  -13.2354   19.8544 C   0  0  2  0  0  0
  -28.6832  -13.1482   20.9903 C   0  0  0  0  0  0
  -25.2469  -13.8171   20.5581 C   0  0  0  0  0  0
  -24.1802  -13.0440   20.9221 C   0  0  0  0  0  0
  -24.6416  -11.6927   20.8785 C   0  0  0  0  0  0
  -23.9102  -10.4298   21.0447 C   0  0  0  0  0  0
  -24.3654   -9.4199   21.9209 C   0  0  0  0  0  0
  -23.6320   -8.2240   22.0774 C   0  0  0  0  0  0
  -22.4296   -8.0304   21.3562 C   0  0  0  0  0  0
  -21.9951   -9.0270   20.4655 C   0  0  0  0  0  0
  -22.7298  -10.2134   20.3075 C   0  0  0  0  0  0
  -21.6843   -6.0758   22.5291 C   0  0  0  0  0  0
  -21.3995   -6.5647   23.8223 C   0  0  0  0  0  0
  -21.3650   -5.6790   24.9184 C   0  0  0  0  0  0
  -21.6048   -4.3059   24.7214 C   0  0  0  0  0  0
  -21.8825   -3.8159   23.4331 C   0  0  0  0  0  0
  -21.9186   -4.6987   22.3402 C   0  0  0  0  0  0
  -22.7821  -13.5224   21.1874 C   0  0  0  0  0  0
  -22.1667   -4.2183   21.0976 F   0  0  0  0  0  0
  -21.5631   -3.4531   25.7718 F   0  0  0  0  0  0
  -29.9874  -13.5061   20.4163 N   0  0  0  0  0  0
  -26.2934  -12.9404   20.3257 N   0  0  0  0  0  0
  -25.9347  -11.6546   20.5788 N   0  0  0  0  0  0
  -22.0462  -12.8198   22.0427 N   0  0  0  0  0  0
  -25.4063  -15.1871   20.3778 N   0  0  0  0  0  0
  -31.7969  -14.8252   20.1532 O   0  0  0  0  0  0
  -21.6651   -6.8909   21.4263 O   0  0  0  0  0  0
  -22.3491  -14.5529   20.6751 O   0  0  0  0  0  0
  -24.6297  -31.8560   23.1981 C   0  0  0  0  0  0
  -25.9125  -32.4753   23.8333 C   0  0  1  0  0  0
  -27.2236  -27.2830   20.1403 C   0  0  0  0  0  0
  -25.5952  -33.8562   24.2271 N   0  0  0  0  0  0
  -23.4256  -30.4767   21.5407 C   0  0  2  0  0  0
  -24.8725  -28.9171   20.1179 C   0  0  0  0  0  0
  -22.7489  -29.4620   22.4940 C   0  0  0  0  0  0
  -18.0285  -28.1393   22.8506 C   0  0  0  0  0  0
  -24.1470  -36.7235   23.2654 C   0  0  0  0  0  0
  -25.9670  -30.7755   21.3723 C   0  0  0  0  0  0
  -26.0426  -29.3975   20.7209 C   0  0  0  0  0  0
  -27.2241  -28.5936   20.7191 C   0  0  0  0  0  0
  -26.0342  -26.8562   19.5158 C   0  0  0  0  0  0
  -24.8719  -27.6539   19.5019 C   0  0  0  0  0  0
  -23.6415  -29.8017   20.1602 C   0  0  0  0  0  0
  -25.4096  -36.3052   24.0347 C   0  0  1  0  0  0
  -20.5896  -28.3678   23.1281 C   0  0  2  0  0  0
  -20.6775  -26.9408   22.5415 C   0  0  0  0  0  0
  -19.5737  -26.6367   21.5225 C   0  0  0  0  0  0
  -18.1918  -26.7945   22.1619 C   0  0  0  0  0  0
  -19.1537  -28.8853   23.2890 C   0  0  0  0  0  0
  -18.9473  -30.1470   23.8882 C   0  0  0  0  0  0
  -17.6468  -30.6604   24.0557 C   0  0  0  0  0  0
  -25.9048  -34.9438   23.5092 C   0  0  0  0  0  0
  -16.5349  -29.9087   23.6369 C   0  0  0  0  0  0
  -16.7276  -28.6509   23.0384 C   0  0  0  0  0  0
  -26.4502  -31.6573   25.0721 C   0  0  0  0  0  0
  -25.3740  -31.3700   26.1446 C   0  0  0  0  0  0
  -27.0379  -30.3015   24.6172 C   0  0  0  0  0  0
  -27.6039  -32.4330   25.7508 C   0  0  0  0  0  0
  -27.5556  -37.1742   24.8470 C   0  0  0  0  0  0
  -21.4206  -29.3032   22.3680 N   0  0  0  0  0  0
  -26.4251  -37.3755   23.9458 N   0  0  0  0  0  0
  -24.6927  -31.0545   22.0936 N   0  0  0  0  0  0
  -23.4193  -28.8170   23.3038 O   0  0  0  0  0  0
  -28.3242  -26.4068   20.1399 O   0  0  0  0  0  0
  -26.5608  -34.8917   22.4656 O   0  0  0  0  0  0
  -23.5453  -32.1358   23.7296 O   0  0  0  0  0  0
  -31.5011  -17.6738   21.1799 C   0  0  0  0  0  0
  -31.0125  -20.0792   21.0497 C   0  0  0  0  0  0
  -29.2595  -18.4407   20.6146 C   0  0  0  0  0  0
  -30.1814  -17.3152   20.8189 C   0  0  0  0  0  0
  -29.6692  -19.8544   20.6772 C   0  0  0  0  0  0
  -31.9015  -19.0183   21.3058 C   0  0  0  0  0  0
  -27.8346  -18.1153   20.3690 C   0  0  0  0  0  0
  -28.5724  -23.7366   20.1113 C   0  0  0  0  0  0
  -26.9337  -18.1740   21.5971 C   0  0  0  0  0  0
  -28.9763  -22.4249   20.9472 C   0  0  0  0  0  0
  -28.1785  -25.0984   20.8581 C   0  0  0  0  0  0
  -29.8364  -15.8546   20.7462 N   0  0  0  0  0  0
  -28.8570  -21.0237   20.3516 N   0  0  0  0  0  0
  -27.3842  -17.7381   19.2846 O   0  0  0  0  0  0
  -28.5461  -23.6815   18.8773 O   0  0  0  0  0  0
  -33.1791  -19.2988   21.6606 F   0  0  0  0  0  0
  -31.4752  -12.5763   19.1804 H   0  0  0  0  0  0
  -30.3654  -11.4717   19.9377 H   0  0  0  0  0  0
  -29.7964  -11.7682   17.5045 H   0  0  0  0  0  0
  -29.6346  -13.4893   17.7331 H   0  0  0  0  0  0
  -27.8760  -11.2991   18.8888 H   0  0  0  0  0  0
  -27.3765  -12.5582   17.7988 H   0  0  0  0  0  0
  -27.6410  -14.2628   19.4880 H   0  0  0  0  0  0
  -28.7126  -12.1424   21.4089 H   0  0  0  0  0  0
  -28.4195  -13.8115   21.8177 H   0  0  0  0  0  0
  -25.2806   -9.5654   22.4779 H   0  0  0  0  0  0
  -24.0028   -7.4610   22.7473 H   0  0  0  0  0  0
  -21.0889   -8.8815   19.8926 H   0  0  0  0  0  0
  -22.3809  -10.9683   19.6165 H   0  0  0  0  0  0
  -21.1988   -7.6150   23.9737 H   0  0  0  0  0  0
  -21.1455   -6.0507   25.9078 H   0  0  0  0  0  0
  -22.0605   -2.7630   23.2805 H   0  0  0  0  0  0
  -22.4035  -11.9836   22.4800 H   0  0  0  0  0  0
  -21.1099  -13.1217   22.2672 H   0  0  0  0  0  0
  -24.6010  -15.8032   20.4063 H   0  0  0  0  0  0
  -26.1928  -15.5981   19.8918 H   0  0  0  0  0  0
  -26.7197  -32.5393   23.1079 H   0  0  0  0  0  0
  -25.0180  -33.9707   25.0476 H   0  0  0  0  0  0
  -22.7244  -31.3001   21.3914 H   0  0  0  0  0  0
  -23.3776  -35.9513   23.3254 H   0  0  0  0  0  0
  -24.3578  -36.8919   22.2082 H   0  0  0  0  0  0
  -23.7151  -37.6388   23.6707 H   0  0  0  0  0  0
  -26.1021  -31.5338   20.6013 H   0  0  0  0  0  0
  -26.8482  -30.8259   21.9995 H   0  0  0  0  0  0
  -28.1231  -28.9655   21.1908 H   0  0  0  0  0  0
  -26.0033  -25.8865   19.0383 H   0  0  0  0  0  0
  -23.9749  -27.2806   19.0270 H   0  0  0  0  0  0
  -23.7633  -30.5728   19.3987 H   0  0  0  0  0  0
  -22.7628  -29.2288   19.8595 H   0  0  0  0  0  0
  -25.1266  -36.1854   25.0832 H   0  0  0  0  0  0
  -20.9995  -28.3213   24.1404 H   0  0  0  0  0  0
  -20.5675  -26.2289   23.3609 H   0  0  0  0  0  0
  -21.6622  -26.7419   22.1177 H   0  0  0  0  0  0
  -19.6881  -25.6275   21.1281 H   0  0  0  0  0  0
  -19.6704  -27.3180   20.6768 H   0  0  0  0  0  0
  -17.4203  -26.6768   21.3990 H   0  0  0  0  0  0
  -18.0263  -26.0078   22.8990 H   0  0  0  0  0  0
  -19.7959  -30.7312   24.2188 H   0  0  0  0  0  0
  -17.5041  -31.6289   24.5144 H   0  0  0  0  0  0
  -15.5362  -30.2961   23.7744 H   0  0  0  0  0  0
  -15.8677  -28.0834   22.7075 H   0  0  0  0  0  0
  -24.5941  -30.7015   25.7769 H   0  0  0  0  0  0
  -24.8914  -32.2878   26.4834 H   0  0  0  0  0  0
  -25.8098  -30.8906   27.0227 H   0  0  0  0  0  0
  -26.2959  -29.6737   24.1232 H   0  0  0  0  0  0
  -27.4156  -29.7284   25.4645 H   0  0  0  0  0  0
  -27.8785  -30.4344   23.9361 H   0  0  0  0  0  0
  -27.2631  -33.3653   26.2011 H   0  0  0  0  0  0
  -28.3889  -32.6836   25.0368 H   0  0  0  0  0  0
  -28.0650  -31.8507   26.5489 H   0  0  0  0  0  0
  -28.2487  -38.0111   24.7590 H   0  0  0  0  0  0
  -28.1123  -36.2648   24.6167 H   0  0  0  0  0  0
  -27.2316  -37.1210   25.8875 H   0  0  0  0  0  0
  -20.9390  -29.8736   21.6871 H   0  0  0  0  0  0
  -26.0111  -38.2798   24.1536 H   0  0  0  0  0  0
  -32.2429  -16.9187   21.3924 H   0  0  0  0  0  0
  -31.4100  -21.0790   21.1213 H   0  0  0  0  0  0
  -27.5073  -18.4087   22.4944 H   0  0  0  0  0  0
  -26.4559  -17.2076   21.7491 H   0  0  0  0  0  0
  -26.1605  -18.9308   21.4685 H   0  0  0  0  0  0
  -28.3566  -22.4354   21.8438 H   0  0  0  0  0  0
  -29.9899  -22.5966   21.3040 H   0  0  0  0  0  0
  -28.7892  -25.1572   21.7602 H   0  0  0  0  0  0
  -27.1499  -24.9926   21.2019 H   0  0  0  0  0  0
  -28.8602  -15.6267   20.8549 H   0  0  0  0  0  0
  -27.9896  -20.8756   19.8442 H   0  0  0  0  0  0
  1 25  1  0  0  0
  1 30  2  0  0  0
  1 82  1  0  0  0
  2  3  1  0  0  0
  2 25  1  0  0  0
  2 87  1  0  0  0
  2 88  1  0  0  0
  3  4  1  0  0  0
  3 89  1  0  0  0
  3 90  1  0  0  0
  4  5  1  0  0  0
  4 91  1  0  0  0
  4 92  1  0  0  0
  5  6  1  0  0  0
  5 26  1  0  0  0
  5 93  1  0  0  0
  6 25  1  0  0  0
  6 94  1  0  0  0
  6 95  1  0  0  0
  7  8  2  0  0  0
  7 26  1  0  0  0
  7 29  1  0  0  0
  8  9  1  0  0  0
  8 22  1  0  0  0
  9 10  1  0  0  0
  9 27  2  0  0  0
 10 11  2  0  0  0
 10 15  1  0  0  0
 11 12  1  0  0  0
 11 96  1  0  0  0
 12 13  2  0  0  0
 12 97  1  0  0  0
 13 14  1  0  0  0
 13 31  1  0  0  0
 14 15  2  0  0  0
 14 98  1  0  0  0
 15 99  1  0  0  0
 16 17  2  0  0  0
 16 21  1  0  0  0
 16 31  1  0  0  0
 17 18  1  0  0  0
 17100  1  0  0  0
 18 19  2  0  0  0
 18101  1  0  0  0
 19 20  1  0  0  0
 19 24  1  0  0  0
 20 21  2  0  0  0
 20102  1  0  0  0
 21 23  1  0  0  0
 22 28  1  0  0  0
 22 32  2  0  0  0
 26 27  1  0  0  0
 28103  1  0  0  0
 28104  1  0  0  0
 29105  1  0  0  0
 29106  1  0  0  0
 33 34  1  0  0  0
 33 66  1  0  0  0
 33 70  2  0  0  0
 34 36  1  0  0  0
 34 59  1  0  0  0
 34107  1  0  0  0
 35 44  2  0  0  0
 35 45  1  0  0  0
 35 68  1  0  0  0
 36 56  1  0  0  0
 36108  1  0  0  0
 37 39  1  0  0  0
 37 47  1  0  0  0
 37 66  1  0  0  0
 37109  1  0  0  0
 38 43  2  0  0  0
 38 46  1  0  0  0
 38 47  1  0  0  0
 39 64  1  0  0  0
 39 67  2  0  0  0
 40 52  1  0  0  0
 40 53  2  0  0  0
 40 58  1  0  0  0
 41110  1  0  0  0
 41111  1  0  0  0
 41112  1  0  0  0
 41 48  1  0  0  0
 42 43  1  0  0  0
 42 66  1  0  0  0
 42113  1  0  0  0
 42114  1  0  0  0
 43 44  1  0  0  0
 44115  1  0  0  0
 45 46  2  0  0  0
 45116  1  0  0  0
 46117  1  0  0  0
 47118  1  0  0  0
 47119  1  0  0  0
 48 56  1  0  0  0
 48 65  1  0  0  0
 48120  1  0  0  0
 49 50  1  0  0  0
 49 53  1  0  0  0
 49 64  1  0  0  0
 49121  1  0  0  0
 50 51  1  0  0  0
 50122  1  0  0  0
 50123  1  0  0  0
 51 52  1  0  0  0
 51124  1  0  0  0
 51125  1  0  0  0
 52126  1  0  0  0
 52127  1  0  0  0
 53 54  1  0  0  0
 54 55  2  0  0  0
 54128  1  0  0  0
 55 57  1  0  0  0
 55129  1  0  0  0
 56 69  2  0  0  0
 57 58  2  0  0  0
 57130  1  0  0  0
 58131  1  0  0  0
 59 60  1  0  0  0
 59 61  1  0  0  0
 59 62  1  0  0  0
 60132  1  0  0  0
 60133  1  0  0  0
 60134  1  0  0  0
 61135  1  0  0  0
 61136  1  0  0  0
 61137  1  0  0  0
 62138  1  0  0  0
 62139  1  0  0  0
 62140  1  0  0  0
 63 65  1  0  0  0
 63141  1  0  0  0
 63142  1  0  0  0
 63143  1  0  0  0
 64144  1  0  0  0
 65145  1  0  0  0
 68 81  1  0  0  0
 71 74  2  0  0  0
 71 76  1  0  0  0
 71146  1  0  0  0
 72 75  1  0  0  0
 72 76  2  0  0  0
 72147  1  0  0  0
 73 74  1  0  0  0
 73 75  2  0  0  0
 73 77  1  0  0  0
 74 82  1  0  0  0
 75 83  1  0  0  0
 76 86  1  0  0  0
 77 79  1  0  0  0
 77 84  2  0  0  0
 78 80  1  0  0  0
 78 81  1  0  0  0
 78 85  2  0  0  0
 79148  1  0  0  0
 79149  1  0  0  0
 79150  1  0  0  0
 80 83  1  0  0  0
 80151  1  0  0  0
 80152  1  0  0  0
 81153  1  0  0  0
 81154  1  0  0  0
 82155  1  0  0  0
 83156  1  0  0  0
M  ISO  4   1 100  68 101  81 101  82 100
M  END
> <chiral flag>
0

> <version>
0

> <s_m_source_file>
/data/baiqing/PycharmProjects/Reinvent-master-3.2/result/LINK_invent/BTK/process_docking_weight1_custom_product_contain_oxygen_bond_distance_aromatic_linkinvent_7_9_3/rearranged_h_0165.sdf

> <i_m_source_file_index>
42

> <r_mmod_Potential_Energy-OPLS-2005>
373.709136962891

> <r_mmod_Stretch_Energy-OPLS-2005>
130.224716186523

> <r_mmod_Bend_Energy-OPLS-2005>
166.189270019531

> <r_mmod_Torsional_Energy-OPLS-2005>
286.14013671875

> <r_mmod_Improper_Torsional_Energy-OPLS-2005>
7.55956888198853

> <r_mmod_Van_der_Waal_Energy-OPLS-2005>
130.025344848633

> <r_mmod_Electrostatic_Energy-OPLS-2005>
-178.000915527344

> <r_mmod_Solvation_Energy-OPLS-2005>
-242.171279907227

> <b_mmod_Minimization_Converged-OPLS-2005>
0

> <r_mmod_RMS_Derivative-OPLS-2005>
3.31967830657959

$$$$
43
                    3D
 Structure written by MMmdl.
165174  0  0  1  0            999 V2000
  -30.7436  -14.4924   20.6953 C   0  0  0  0  0  0
  -30.4624  -12.3730   19.4061 C   0  0  0  0  0  0
  -29.5095  -12.5181   18.2001 C   0  0  0  0  0  0
  -28.0376  -12.3590   18.6245 C   0  0  0  0  0  0
  -27.6781  -13.1943   19.8806 C   0  0  2  0  0  0
  -28.7309  -12.9692   20.9909 C   0  0  0  0  0  0
  -25.2680  -13.8115   20.5660 C   0  0  0  0  0  0
  -24.1910  -13.0425   20.9100 C   0  0  0  0  0  0
  -24.6409  -11.6864   20.8704 C   0  0  0  0  0  0
  -23.9048  -10.4256   21.0359 C   0  0  0  0  0  0
  -24.3575   -9.4163   21.9157 C   0  0  0  0  0  0
  -23.6228   -8.2225   22.0764 C   0  0  0  0  0  0
  -22.4242   -8.0251   21.3548 C   0  0  0  0  0  0
  -21.9840   -9.0237   20.4671 C   0  0  0  0  0  0
  -22.7188  -10.2093   20.3039 C   0  0  0  0  0  0
  -21.6827   -6.0677   22.5278 C   0  0  0  0  0  0
  -21.4013   -6.5596   23.8212 C   0  0  0  0  0  0
  -21.3669   -5.6782   24.9196 C   0  0  0  0  0  0
  -21.6069   -4.3034   24.7266 C   0  0  0  0  0  0
  -21.8800   -3.8090   23.4394 C   0  0  0  0  0  0
  -21.9159   -4.6896   22.3424 C   0  0  0  0  0  0
  -22.7933  -13.5246   21.1765 C   0  0  0  0  0  0
  -22.1621   -4.2061   21.1012 F   0  0  0  0  0  0
  -21.5610   -3.4537   25.7771 F   0  0  0  0  0  0
  -30.0528  -13.3340   20.4461 N   0  0  0  0  0  0
  -26.3144  -12.9274   20.3407 N   0  0  0  0  0  0
  -25.9359  -11.6444   20.5762 N   0  0  0  0  0  0
  -22.0529  -12.8348   22.0334 N   0  0  0  0  0  0
  -25.4337  -15.1860   20.4037 N   0  0  0  0  0  0
  -31.7748  -14.7643   20.0731 O   0  0  0  0  0  0
  -21.6614   -6.8852   21.4265 O   0  0  0  0  0  0
  -22.3663  -14.5538   20.6516 O   0  0  0  0  0  0
  -24.6161  -31.8644   23.2137 C   0  0  0  0  0  0
  -25.9026  -32.4789   23.8446 C   0  0  1  0  0  0
  -27.2032  -27.3972   20.0745 C   0  0  0  0  0  0
  -25.5957  -33.8618   24.2413 N   0  0  0  0  0  0
  -23.4044  -30.4992   21.5523 C   0  0  2  0  0  0
  -24.8417  -28.9724   20.1082 C   0  0  0  0  0  0
  -22.7411  -29.4686   22.4943 C   0  0  0  0  0  0
  -18.0257  -28.1443   22.8439 C   0  0  0  0  0  0
  -24.1512  -36.7262   23.2649 C   0  0  0  0  0  0
  -25.9399  -30.8196   21.3676 C   0  0  0  0  0  0
  -26.0109  -29.4552   20.7103 C   0  0  0  0  0  0
  -27.1958  -28.6754   20.6908 C   0  0  0  0  0  0
  -26.0057  -26.9476   19.4617 C   0  0  0  0  0  0
  -24.8370  -27.7195   19.4831 C   0  0  0  0  0  0
  -23.6105  -29.8476   20.1622 C   0  0  0  0  0  0
  -25.4094  -36.3074   24.0378 C   0  0  1  0  0  0
  -20.5864  -28.3717   23.1295 C   0  0  2  0  0  0
  -20.6787  -26.9455   22.5396 C   0  0  0  0  0  0
  -19.5781  -26.6447   21.5179 C   0  0  0  0  0  0
  -18.1950  -26.7965   22.1591 C   0  0  0  0  0  0
  -19.1515  -28.8879   23.2875 C   0  0  0  0  0  0
  -18.9458  -30.1485   23.8919 C   0  0  0  0  0  0
  -17.6476  -30.6628   24.0586 C   0  0  0  0  0  0
  -25.9032  -34.9449   23.5158 C   0  0  0  0  0  0
  -16.5355  -29.9163   23.6334 C   0  0  0  0  0  0
  -16.7254  -28.6587   23.0301 C   0  0  0  0  0  0
  -26.4483  -31.6494   25.0710 C   0  0  0  0  0  0
  -25.3847  -31.3470   26.1511 C   0  0  0  0  0  0
  -27.0232  -30.2954   24.5968 C   0  0  0  0  0  0
  -27.6133  -32.4179   25.7393 C   0  0  0  0  0  0
  -27.5565  -37.1806   24.8491 C   0  0  0  0  0  0
  -21.4129  -29.3059   22.3689 N   0  0  0  0  0  0
  -26.4286  -37.3753   23.9453 N   0  0  0  0  0  0
  -24.6741  -31.0758   22.1022 N   0  0  0  0  0  0
  -23.4168  -28.8155   23.2935 O   0  0  0  0  0  0
  -28.3492  -26.6093   20.0844 O   0  0  0  0  0  0
  -26.5522  -34.8860   22.4678 O   0  0  0  0  0  0
  -23.5366  -32.1425   23.7533 O   0  0  0  0  0  0
  -30.0678  -18.0087   21.1164 C   0  0  0  0  0  0
  -31.3712  -19.6869   22.3005 C   0  0  0  0  0  0
  -30.7485  -16.9592   21.8130 C   0  0  0  0  0  0
  -31.8007  -17.3136   22.7000 C   0  0  0  0  0  0
  -32.0820  -18.6783   22.9788 C   0  0  0  0  0  0
  -30.3739  -19.3832   21.3514 C   0  0  0  0  0  0
  -29.5600  -21.7481   20.9897 C   0  0  0  0  0  0
  -32.5758  -16.1978   23.3862 C   0  0  0  0  0  0
  -31.6347  -15.1900   24.0451 C   0  0  0  0  0  0
  -30.4133  -14.7893   23.1942 C   0  0  0  0  0  0
  -30.2367  -15.4770   21.8042 C   0  0  2  0  0  0
  -33.1048  -19.1012   24.0307 C   0  0  0  0  0  0
  -29.0848  -22.7651   19.9216 C   0  0  0  0  0  0
  -29.3038  -24.2805   20.2667 C   0  0  0  0  0  0
  -28.1649  -25.2018   19.7802 C   0  0  0  0  0  0
  -29.7156  -20.4465   20.6268 N   0  0  0  0  0  0
  -29.7285  -22.1456   22.1457 O   0  0  0  0  0  0
  -31.4950  -12.5141   19.0863 H   0  0  0  0  0  0
  -30.4296  -11.3580   19.8061 H   0  0  0  0  0  0
  -29.7664  -11.7713   17.4435 H   0  0  0  0  0  0
  -29.6488  -13.4967   17.7385 H   0  0  0  0  0  0
  -27.8833  -11.3025   18.8351 H   0  0  0  0  0  0
  -27.3771  -12.6119   17.7964 H   0  0  0  0  0  0
  -27.7234  -14.2420   19.5889 H   0  0  0  0  0  0
  -28.7465  -11.9214   21.2905 H   0  0  0  0  0  0
  -28.4600  -13.5111   21.8928 H   0  0  0  0  0  0
  -25.2720   -9.5571   22.4762 H   0  0  0  0  0  0
  -23.9845   -7.4633   22.7527 H   0  0  0  0  0  0
  -21.0730   -8.8806   19.9042 H   0  0  0  0  0  0
  -22.3645  -10.9638   19.6149 H   0  0  0  0  0  0
  -21.2018   -7.6108   23.9696 H   0  0  0  0  0  0
  -21.1526   -6.0517   25.9110 H   0  0  0  0  0  0
  -22.0542   -2.7544   23.2923 H   0  0  0  0  0  0
  -22.4060  -12.0022   22.4822 H   0  0  0  0  0  0
  -21.1185  -13.1487   22.2532 H   0  0  0  0  0  0
  -24.6481  -15.8220   20.4922 H   0  0  0  0  0  0
  -26.2815  -15.6391   20.0863 H   0  0  0  0  0  0
  -26.7032  -32.5488   23.1176 H   0  0  0  0  0  0
  -25.0334  -33.9792   25.0695 H   0  0  0  0  0  0
  -22.6927  -31.3185   21.4238 H   0  0  0  0  0  0
  -23.3785  -35.9591   23.3294 H   0  0  0  0  0  0
  -24.3661  -36.8837   22.2083 H   0  0  0  0  0  0
  -23.7252  -37.6475   23.6599 H   0  0  0  0  0  0
  -26.0599  -31.5819   20.5930 H   0  0  0  0  0  0
  -26.8266  -30.8706   21.9845 H   0  0  0  0  0  0
  -28.0971  -29.0389   21.1648 H   0  0  0  0  0  0
  -25.9266  -25.9942   18.9627 H   0  0  0  0  0  0
  -23.9392  -27.3482   19.0063 H   0  0  0  0  0  0
  -23.7327  -30.6355   19.4147 H   0  0  0  0  0  0
  -22.7254  -29.2889   19.8540 H   0  0  0  0  0  0
  -25.1262  -36.1936   25.0866 H   0  0  0  0  0  0
  -20.9942  -28.3303   24.1420 H   0  0  0  0  0  0
  -20.5684  -26.2326   23.3571 H   0  0  0  0  0  0
  -21.6674  -26.7522   22.1200 H   0  0  0  0  0  0
  -19.6978  -25.6352   21.1226 H   0  0  0  0  0  0
  -19.6767  -27.3258   20.6710 H   0  0  0  0  0  0
  -17.4206  -26.6634   21.4013 H   0  0  0  0  0  0
  -18.0415  -26.0158   22.9063 H   0  0  0  0  0  0
  -19.7954  -30.7269   24.2335 H   0  0  0  0  0  0
  -17.5057  -31.6300   24.5215 H   0  0  0  0  0  0
  -15.5373  -30.3107   23.7675 H   0  0  0  0  0  0
  -15.8628  -28.0960   22.7007 H   0  0  0  0  0  0
  -24.6133  -30.6693   25.7834 H   0  0  0  0  0  0
  -24.8900  -32.2502   26.5045 H   0  0  0  0  0  0
  -25.8380  -30.8647   27.0191 H   0  0  0  0  0  0
  -27.8503  -30.4289   23.8988 H   0  0  0  0  0  0
  -26.2673  -29.6792   24.1062 H   0  0  0  0  0  0
  -27.4133  -29.7081   25.4285 H   0  0  0  0  0  0
  -27.2899  -33.3480   26.2037 H   0  0  0  0  0  0
  -28.3864  -32.6677   25.0125 H   0  0  0  0  0  0
  -28.0889  -31.8256   26.5198 H   0  0  0  0  0  0
  -28.2596  -38.0093   24.7488 H   0  0  0  0  0  0
  -28.1050  -36.2625   24.6351 H   0  0  0  0  0  0
  -27.2309  -37.1494   25.8905 H   0  0  0  0  0  0
  -20.9300  -29.8830   21.6942 H   0  0  0  0  0  0
  -26.0174  -38.2833   24.1439 H   0  0  0  0  0  0
  -29.2718  -17.7673   20.4265 H   0  0  0  0  0  0
  -31.6137  -20.7164   22.5270 H   0  0  0  0  0  0
  -33.2917  -16.5651   24.1200 H   0  0  0  0  0  0
  -33.1864  -15.6955   22.6385 H   0  0  0  0  0  0
  -31.2542  -15.6371   24.9609 H   0  0  0  0  0  0
  -32.1930  -14.3060   24.3589 H   0  0  0  0  0  0
  -29.5197  -14.9878   23.7838 H   0  0  0  0  0  0
  -30.4284  -13.7004   23.0989 H   0  0  0  0  0  0
  -29.1649  -15.5754   21.6318 H   0  0  0  0  0  0
  -33.0676  -20.1731   24.2288 H   0  0  0  0  0  0
  -34.1194  -18.8603   23.7132 H   0  0  0  0  0  0
  -32.9139  -18.6119   24.9877 H   0  0  0  0  0  0
  -28.0253  -22.5782   19.7427 H   0  0  0  0  0  0
  -29.6038  -22.5589   18.9852 H   0  0  0  0  0  0
  -30.2389  -24.6093   19.8138 H   0  0  0  0  0  0
  -29.4076  -24.4296   21.3403 H   0  0  0  0  0  0
  -27.2642  -24.8425   20.2818 H   0  0  0  0  0  0
  -28.0132  -25.0757   18.7062 H   0  0  0  0  0  0
  -29.3696  -20.2039   19.7068 H   0  0  0  0  0  0
  1 25  1  0  0  0
  1 30  2  0  0  0
  1 81  1  0  0  0
  2  3  1  0  0  0
  2 25  1  0  0  0
  2 88  1  0  0  0
  2 89  1  0  0  0
  3  4  1  0  0  0
  3 90  1  0  0  0
  3 91  1  0  0  0
  4  5  1  0  0  0
  4 92  1  0  0  0
  4 93  1  0  0  0
  5  6  1  0  0  0
  5 26  1  0  0  0
  5 94  1  0  0  0
  6 25  1  0  0  0
  6 95  1  0  0  0
  6 96  1  0  0  0
  7  8  2  0  0  0
  7 26  1  0  0  0
  7 29  1  0  0  0
  8  9  1  0  0  0
  8 22  1  0  0  0
  9 10  1  0  0  0
  9 27  2  0  0  0
 10 11  2  0  0  0
 10 15  1  0  0  0
 11 12  1  0  0  0
 11 97  1  0  0  0
 12 13  2  0  0  0
 12 98  1  0  0  0
 13 14  1  0  0  0
 13 31  1  0  0  0
 14 15  2  0  0  0
 14 99  1  0  0  0
 15100  1  0  0  0
 16 17  2  0  0  0
 16 21  1  0  0  0
 16 31  1  0  0  0
 17 18  1  0  0  0
 17101  1  0  0  0
 18 19  2  0  0  0
 18102  1  0  0  0
 19 20  1  0  0  0
 19 24  1  0  0  0
 20 21  2  0  0  0
 20103  1  0  0  0
 21 23  1  0  0  0
 22 28  1  0  0  0
 22 32  2  0  0  0
 26 27  1  0  0  0
 28104  1  0  0  0
 28105  1  0  0  0
 29106  1  0  0  0
 29107  1  0  0  0
 33 34  1  0  0  0
 33 66  1  0  0  0
 33 70  2  0  0  0
 34 36  1  0  0  0
 34 59  1  0  0  0
 34108  1  0  0  0
 35 44  2  0  0  0
 35 45  1  0  0  0
 35 68  1  0  0  0
 36 56  1  0  0  0
 36109  1  0  0  0
 37 39  1  0  0  0
 37 47  1  0  0  0
 37 66  1  0  0  0
 37110  1  0  0  0
 38 43  2  0  0  0
 38 46  1  0  0  0
 38 47  1  0  0  0
 39 64  1  0  0  0
 39 67  2  0  0  0
 40 52  1  0  0  0
 40 53  2  0  0  0
 40 58  1  0  0  0
 41111  1  0  0  0
 41112  1  0  0  0
 41113  1  0  0  0
 41 48  1  0  0  0
 42 43  1  0  0  0
 42 66  1  0  0  0
 42114  1  0  0  0
 42115  1  0  0  0
 43 44  1  0  0  0
 44116  1  0  0  0
 45 46  2  0  0  0
 45117  1  0  0  0
 46118  1  0  0  0
 47119  1  0  0  0
 47120  1  0  0  0
 48 56  1  0  0  0
 48 65  1  0  0  0
 48121  1  0  0  0
 49 50  1  0  0  0
 49 53  1  0  0  0
 49 64  1  0  0  0
 49122  1  0  0  0
 50 51  1  0  0  0
 50123  1  0  0  0
 50124  1  0  0  0
 51 52  1  0  0  0
 51125  1  0  0  0
 51126  1  0  0  0
 52127  1  0  0  0
 52128  1  0  0  0
 53 54  1  0  0  0
 54 55  2  0  0  0
 54129  1  0  0  0
 55 57  1  0  0  0
 55130  1  0  0  0
 56 69  2  0  0  0
 57 58  2  0  0  0
 57131  1  0  0  0
 58132  1  0  0  0
 59 60  1  0  0  0
 59 61  1  0  0  0
 59 62  1  0  0  0
 60133  1  0  0  0
 60134  1  0  0  0
 60135  1  0  0  0
 61136  1  0  0  0
 61137  1  0  0  0
 61138  1  0  0  0
 62139  1  0  0  0
 62140  1  0  0  0
 62141  1  0  0  0
 63 65  1  0  0  0
 63142  1  0  0  0
 63143  1  0  0  0
 63144  1  0  0  0
 64145  1  0  0  0
 65146  1  0  0  0
 68 85  1  0  0  0
 71 73  2  0  0  0
 71 76  1  0  0  0
 71147  1  0  0  0
 72 75  1  0  0  0
 72 76  2  0  0  0
 72148  1  0  0  0
 73 74  1  0  0  0
 73 81  1  0  0  0
 74 75  2  0  0  0
 74 78  1  0  0  0
 75 82  1  0  0  0
 76 86  1  0  0  0
 77 83  1  0  0  0
 77 86  1  0  0  0
 77 87  2  0  0  0
 78 79  1  0  0  0
 78149  1  0  0  0
 78150  1  0  0  0
 79 80  1  0  0  0
 79151  1  0  0  0
 79152  1  0  0  0
 80 81  1  0  0  0
 80153  1  0  0  0
 80154  1  0  0  0
 81155  1  0  0  0
 82156  1  0  0  0
 82157  1  0  0  0
 82158  1  0  0  0
 83 84  1  0  0  0
 83159  1  0  0  0
 83160  1  0  0  0
 84 85  1  0  0  0
 84161  1  0  0  0
 84162  1  0  0  0
 85163  1  0  0  0
 85164  1  0  0  0
 86165  1  0  0  0
M  ISO  4   1 100  68 101  81 100  85 101
M  END
> <chiral flag>
0

> <version>
0

> <s_m_source_file>
/data/baiqing/PycharmProjects/Reinvent-master-3.2/result/LINK_invent/BTK/process_docking_weight1_custom_product_contain_oxygen_bond_distance_aromatic_linkinvent_7_9_3/rearranged_h_0165.sdf

> <i_m_source_file_index>
43

> <r_mmod_Potential_Energy-OPLS-2005>
35.5209541320801

> <r_mmod_Stretch_Energy-OPLS-2005>
57.7828102111816

> <r_mmod_Bend_Energy-OPLS-2005>
118.825729370117

> <r_mmod_Torsional_Energy-OPLS-2005>
217.626373291016

> <r_mmod_Improper_Torsional_Energy-OPLS-2005>
2.82418608665466

> <r_mmod_Van_der_Waal_Energy-OPLS-2005>
172.974243164062

> <r_mmod_Electrostatic_Energy-OPLS-2005>
-331.476196289062

> <r_mmod_Solvation_Energy-OPLS-2005>
-223.012649536133

> <b_mmod_Minimization_Converged-OPLS-2005>
0

> <r_mmod_RMS_Derivative-OPLS-2005>
7.25669860839844

$$$$
44
                    3D
 Structure written by MMmdl.
157165  0  0  1  0            999 V2000
  -30.7456  -14.4088   20.6099 C   0  0  0  0  0  0
  -30.4160  -12.2818   19.4077 C   0  0  0  0  0  0
  -29.4885  -12.5019   18.1974 C   0  0  0  0  0  0
  -28.0132  -12.3602   18.6176 C   0  0  0  0  0  0
  -27.6663  -13.2012   19.8748 C   0  0  2  0  0  0
  -28.7066  -12.9701   20.9940 C   0  0  0  0  0  0
  -25.2617  -13.8153   20.5676 C   0  0  0  0  0  0
  -24.1854  -13.0449   20.9159 C   0  0  0  0  0  0
  -24.6388  -11.6908   20.8727 C   0  0  0  0  0  0
  -23.9045  -10.4304   21.0395 C   0  0  0  0  0  0
  -24.3600   -9.4223   21.9175 C   0  0  0  0  0  0
  -23.6281   -8.2258   22.0749 C   0  0  0  0  0  0
  -22.4271   -8.0290   21.3540 C   0  0  0  0  0  0
  -21.9893   -9.0265   20.4649 C   0  0  0  0  0  0
  -22.7213  -10.2146   20.3049 C   0  0  0  0  0  0
  -21.6857   -6.0740   22.5281 C   0  0  0  0  0  0
  -21.4022   -6.5638   23.8220 C   0  0  0  0  0  0
  -21.3655   -5.6789   24.9178 C   0  0  0  0  0  0
  -21.6039   -4.3050   24.7224 C   0  0  0  0  0  0
  -21.8819   -3.8149   23.4345 C   0  0  0  0  0  0
  -21.9190   -4.6970   22.3401 C   0  0  0  0  0  0
  -22.7878  -13.5268   21.1818 C   0  0  0  0  0  0
  -22.1658   -4.2153   21.0979 F   0  0  0  0  0  0
  -21.5617   -3.4532   25.7734 F   0  0  0  0  0  0
  -30.0434  -13.2581   20.4433 N   0  0  0  0  0  0
  -26.3051  -12.9318   20.3371 N   0  0  0  0  0  0
  -25.9313  -11.6482   20.5758 N   0  0  0  0  0  0
  -22.0488  -12.8294   22.0373 N   0  0  0  0  0  0
  -25.4371  -15.1876   20.4105 N   0  0  0  0  0  0
  -31.8371  -14.6139   20.0697 O   0  0  0  0  0  0
  -21.6639   -6.8884   21.4242 O   0  0  0  0  0  0
  -22.3580  -14.5580   20.6659 O   0  0  0  0  0  0
  -24.6135  -31.8691   23.2105 C   0  0  0  0  0  0
  -25.9039  -32.4810   23.8392 C   0  0  1  0  0  0
  -27.2359  -27.4428   20.0778 C   0  0  0  0  0  0
  -25.5920  -33.8612   24.2334 N   0  0  0  0  0  0
  -23.3996  -30.4928   21.5534 C   0  0  2  0  0  0
  -24.8414  -28.9583   20.1208 C   0  0  0  0  0  0
  -22.7405  -29.4664   22.5012 C   0  0  0  0  0  0
  -18.0276  -28.1380   22.8496 C   0  0  0  0  0  0
  -24.1491  -36.7298   23.2636 C   0  0  0  0  0  0
  -25.9287  -30.8321   21.3649 C   0  0  0  0  0  0
  -26.0038  -29.4686   20.7099 C   0  0  0  0  0  0
  -27.2027  -28.7211   20.6831 C   0  0  0  0  0  0
  -26.0445  -26.9399   19.5003 C   0  0  0  0  0  0
  -24.8553  -27.6900   19.5191 C   0  0  0  0  0  0
  -23.6050  -29.8266   20.1683 C   0  0  0  0  0  0
  -25.4117  -36.3105   24.0334 C   0  0  1  0  0  0
  -20.5861  -28.3671   23.1327 C   0  0  2  0  0  0
  -20.6766  -26.9414   22.5421 C   0  0  0  0  0  0
  -19.5737  -26.6391   21.5219 C   0  0  0  0  0  0
  -18.1916  -26.7926   22.1633 C   0  0  0  0  0  0
  -19.1524  -28.8842   23.2904 C   0  0  0  0  0  0
  -18.9449  -30.1448   23.8915 C   0  0  0  0  0  0
  -17.6450  -30.6585   24.0567 C   0  0  0  0  0  0
  -25.9047  -34.9472   23.5129 C   0  0  0  0  0  0
  -16.5339  -29.9086   23.6323 C   0  0  0  0  0  0
  -16.7264  -28.6501   23.0349 C   0  0  0  0  0  0
  -26.4471  -31.6576   25.0715 C   0  0  0  0  0  0
  -25.3742  -31.3697   26.1476 C   0  0  0  0  0  0
  -27.0285  -30.3009   24.6078 C   0  0  0  0  0  0
  -27.6051  -32.4294   25.7476 C   0  0  0  0  0  0
  -27.5590  -37.1808   24.8470 C   0  0  0  0  0  0
  -21.4139  -29.3033   22.3733 N   0  0  0  0  0  0
  -26.4302  -37.3779   23.9409 N   0  0  0  0  0  0
  -24.6651  -31.0797   22.1006 N   0  0  0  0  0  0
  -23.4168  -28.8213   23.3064 O   0  0  0  0  0  0
  -28.4255  -26.7384   20.0667 O   0  0  0  0  0  0
  -26.5594  -34.8923   22.4684 O   0  0  0  0  0  0
  -23.5337  -32.1461   23.7505 O   0  0  0  0  0  0
  -32.0472  -18.3580   22.4907 C   0  0  0  0  0  0
  -31.5363  -19.3413   21.6219 C   0  0  0  0  0  0
  -31.5914  -17.0305   22.4030 C   0  0  0  0  0  0
  -30.5619  -19.0079   20.6527 C   0  0  0  0  0  0
  -30.6166  -16.6841   21.4456 C   0  0  0  0  0  0
  -30.0933  -17.6720   20.5796 C   0  0  0  0  0  0
  -30.9756  -22.4200   19.4809 C   0  0  0  0  0  0
  -30.0219  -20.0743   19.6991 C   0  0  0  0  0  0
  -29.6592  -23.1180   19.8644 C   0  0  0  0  0  0
  -29.7397  -24.6674   19.9072 C   0  0  0  0  0  0
  -28.3569  -25.3314   19.8136 C   0  0  0  0  0  0
  -30.1569  -15.3480   21.3607 N   0  0  0  0  0  0
  -31.0260  -21.0850   19.3536 N   0  0  0  0  0  0
  -31.9870  -23.0875   19.2624 O   0  0  0  0  0  0
  -29.1529  -17.3279   19.6654 F   0  0  0  0  0  0
  -31.4610  -12.3633   19.1046 H   0  0  0  0  0  0
  -30.3033  -11.2687   19.7968 H   0  0  0  0  0  0
  -29.7216  -11.7855   17.4089 H   0  0  0  0  0  0
  -29.6586  -13.4925   17.7721 H   0  0  0  0  0  0
  -27.8284  -11.3048   18.8218 H   0  0  0  0  0  0
  -27.3575  -12.6266   17.7876 H   0  0  0  0  0  0
  -27.7210  -14.2499   19.5806 H   0  0  0  0  0  0
  -28.6753  -11.9324   21.3301 H   0  0  0  0  0  0
  -28.4653  -13.5647   21.8763 H   0  0  0  0  0  0
  -25.2746   -9.5710   22.4745 H   0  0  0  0  0  0
  -23.9990   -7.4658   22.7477 H   0  0  0  0  0  0
  -21.0811   -8.8787   19.8970 H   0  0  0  0  0  0
  -22.3662  -10.9683   19.6160 H   0  0  0  0  0  0
  -21.2027   -7.6147   23.9726 H   0  0  0  0  0  0
  -21.1463   -6.0514   25.9081 H   0  0  0  0  0  0
  -22.0597   -2.7610   23.2842 H   0  0  0  0  0  0
  -22.4083  -11.9978   22.4814 H   0  0  0  0  0  0
  -21.1107  -13.1358   22.2533 H   0  0  0  0  0  0
  -24.6739  -15.8466   20.5213 H   0  0  0  0  0  0
  -26.2947  -15.6250   20.0942 H   0  0  0  0  0  0
  -26.7100  -32.5503   23.1145 H   0  0  0  0  0  0
  -25.0084  -33.9766   25.0492 H   0  0  0  0  0  0
  -22.6874  -31.3097   21.4169 H   0  0  0  0  0  0
  -23.3746  -35.9640   23.3308 H   0  0  0  0  0  0
  -24.3587  -36.8899   22.2051 H   0  0  0  0  0  0
  -23.7256  -37.6516   23.6632 H   0  0  0  0  0  0
  -26.0503  -31.5970   20.5968 H   0  0  0  0  0  0
  -26.8142  -30.8752   21.9877 H   0  0  0  0  0  0
  -28.1032  -29.1196   21.1302 H   0  0  0  0  0  0
  -26.0019  -25.9732   19.0221 H   0  0  0  0  0  0
  -23.9596  -27.2847   19.0696 H   0  0  0  0  0  0
  -23.7195  -30.6027   19.4109 H   0  0  0  0  0  0
  -22.7258  -29.2525   19.8688 H   0  0  0  0  0  0
  -25.1284  -36.1969   25.0823 H   0  0  0  0  0  0
  -20.9956  -28.3245   24.1446 H   0  0  0  0  0  0
  -20.5698  -26.2280   23.3609 H   0  0  0  0  0  0
  -21.6634  -26.7467   22.1200 H   0  0  0  0  0  0
  -19.6905  -25.6308   21.1232 H   0  0  0  0  0  0
  -19.6676  -27.3217   20.6764 H   0  0  0  0  0  0
  -17.4200  -26.6691   21.4022 H   0  0  0  0  0  0
  -18.0310  -26.0055   22.9021 H   0  0  0  0  0  0
  -19.7922  -30.7261   24.2288 H   0  0  0  0  0  0
  -17.5005  -31.6265   24.5174 H   0  0  0  0  0  0
  -15.5344  -30.2999   23.7627 H   0  0  0  0  0  0
  -15.8664  -28.0820   22.7061 H   0  0  0  0  0  0
  -24.5920  -30.7022   25.7839 H   0  0  0  0  0  0
  -24.8929  -32.2858   26.4903 H   0  0  0  0  0  0
  -25.8116  -30.8902   27.0240 H   0  0  0  0  0  0
  -26.2823  -29.6802   24.1102 H   0  0  0  0  0  0
  -27.4020  -29.7206   25.4524 H   0  0  0  0  0  0
  -27.8672  -30.4310   23.9238 H   0  0  0  0  0  0
  -27.2654  -33.3583   26.2064 H   0  0  0  0  0  0
  -28.3848  -32.6869   25.0297 H   0  0  0  0  0  0
  -28.0715  -31.8408   26.5387 H   0  0  0  0  0  0
  -28.2606  -38.0105   24.7506 H   0  0  0  0  0  0
  -28.1082  -36.2632   24.6293 H   0  0  0  0  0  0
  -27.2296  -37.1461   25.8869 H   0  0  0  0  0  0
  -20.9311  -29.8751   21.6942 H   0  0  0  0  0  0
  -26.0187  -38.2854   24.1410 H   0  0  0  0  0  0
  -32.8002  -18.6224   23.2197 H   0  0  0  0  0  0
  -31.9069  -20.3540   21.7045 H   0  0  0  0  0  0
  -31.9990  -16.2805   23.0666 H   0  0  0  0  0  0
  -29.1311  -20.5145   20.1460 H   0  0  0  0  0  0
  -29.6941  -19.5981   18.7736 H   0  0  0  0  0  0
  -28.9030  -22.8146   19.1386 H   0  0  0  0  0  0
  -29.3292  -22.7495   20.8371 H   0  0  0  0  0  0
  -30.2365  -24.9743   20.8283 H   0  0  0  0  0  0
  -30.3522  -25.0492   19.0897 H   0  0  0  0  0  0
  -27.6782  -24.8692   20.5330 H   0  0  0  0  0  0
  -27.9666  -25.1443   18.8126 H   0  0  0  0  0  0
  -29.2266  -15.1526   21.6979 H   0  0  0  0  0  0
  -31.9083  -20.7095   19.0326 H   0  0  0  0  0  0
  1 25  1  0  0  0
  1 30  2  0  0  0
  1 82  1  0  0  0
  2  3  1  0  0  0
  2 25  1  0  0  0
  2 86  1  0  0  0
  2 87  1  0  0  0
  3  4  1  0  0  0
  3 88  1  0  0  0
  3 89  1  0  0  0
  4  5  1  0  0  0
  4 90  1  0  0  0
  4 91  1  0  0  0
  5  6  1  0  0  0
  5 26  1  0  0  0
  5 92  1  0  0  0
  6 25  1  0  0  0
  6 93  1  0  0  0
  6 94  1  0  0  0
  7  8  2  0  0  0
  7 26  1  0  0  0
  7 29  1  0  0  0
  8  9  1  0  0  0
  8 22  1  0  0  0
  9 10  1  0  0  0
  9 27  2  0  0  0
 10 11  2  0  0  0
 10 15  1  0  0  0
 11 12  1  0  0  0
 11 95  1  0  0  0
 12 13  2  0  0  0
 12 96  1  0  0  0
 13 14  1  0  0  0
 13 31  1  0  0  0
 14 15  2  0  0  0
 14 97  1  0  0  0
 15 98  1  0  0  0
 16 17  2  0  0  0
 16 21  1  0  0  0
 16 31  1  0  0  0
 17 18  1  0  0  0
 17 99  1  0  0  0
 18 19  2  0  0  0
 18100  1  0  0  0
 19 20  1  0  0  0
 19 24  1  0  0  0
 20 21  2  0  0  0
 20101  1  0  0  0
 21 23  1  0  0  0
 22 28  1  0  0  0
 22 32  2  0  0  0
 26 27  1  0  0  0
 28102  1  0  0  0
 28103  1  0  0  0
 29104  1  0  0  0
 29105  1  0  0  0
 33 34  1  0  0  0
 33 66  1  0  0  0
 33 70  2  0  0  0
 34 36  1  0  0  0
 34 59  1  0  0  0
 34106  1  0  0  0
 35 44  2  0  0  0
 35 45  1  0  0  0
 35 68  1  0  0  0
 36 56  1  0  0  0
 36107  1  0  0  0
 37 39  1  0  0  0
 37 47  1  0  0  0
 37 66  1  0  0  0
 37108  1  0  0  0
 38 43  2  0  0  0
 38 46  1  0  0  0
 38 47  1  0  0  0
 39 64  1  0  0  0
 39 67  2  0  0  0
 40 52  1  0  0  0
 40 53  2  0  0  0
 40 58  1  0  0  0
 41109  1  0  0  0
 41110  1  0  0  0
 41111  1  0  0  0
 41 48  1  0  0  0
 42 43  1  0  0  0
 42 66  1  0  0  0
 42112  1  0  0  0
 42113  1  0  0  0
 43 44  1  0  0  0
 44114  1  0  0  0
 45 46  2  0  0  0
 45115  1  0  0  0
 46116  1  0  0  0
 47117  1  0  0  0
 47118  1  0  0  0
 48 56  1  0  0  0
 48 65  1  0  0  0
 48119  1  0  0  0
 49 50  1  0  0  0
 49 53  1  0  0  0
 49 64  1  0  0  0
 49120  1  0  0  0
 50 51  1  0  0  0
 50121  1  0  0  0
 50122  1  0  0  0
 51 52  1  0  0  0
 51123  1  0  0  0
 51124  1  0  0  0
 52125  1  0  0  0
 52126  1  0  0  0
 53 54  1  0  0  0
 54 55  2  0  0  0
 54127  1  0  0  0
 55 57  1  0  0  0
 55128  1  0  0  0
 56 69  2  0  0  0
 57 58  2  0  0  0
 57129  1  0  0  0
 58130  1  0  0  0
 59 60  1  0  0  0
 59 61  1  0  0  0
 59 62  1  0  0  0
 60131  1  0  0  0
 60132  1  0  0  0
 60133  1  0  0  0
 61134  1  0  0  0
 61135  1  0  0  0
 61136  1  0  0  0
 62137  1  0  0  0
 62138  1  0  0  0
 62139  1  0  0  0
 63 65  1  0  0  0
 63140  1  0  0  0
 63141  1  0  0  0
 63142  1  0  0  0
 64143  1  0  0  0
 65144  1  0  0  0
 68 81  1  0  0  0
 71 72  2  0  0  0
 71 73  1  0  0  0
 71145  1  0  0  0
 72 74  1  0  0  0
 72146  1  0  0  0
 73 75  2  0  0  0
 73147  1  0  0  0
 74 76  2  0  0  0
 74 78  1  0  0  0
 75 76  1  0  0  0
 75 82  1  0  0  0
 76 85  1  0  0  0
 77 79  1  0  0  0
 77 83  1  0  0  0
 77 84  2  0  0  0
 78 83  1  0  0  0
 78148  1  0  0  0
 78149  1  0  0  0
 79 80  1  0  0  0
 79150  1  0  0  0
 79151  1  0  0  0
 80 81  1  0  0  0
 80152  1  0  0  0
 80153  1  0  0  0
 81154  1  0  0  0
 81155  1  0  0  0
 82156  1  0  0  0
 83157  1  0  0  0
M  ISO  4   1 100  68 101  81 101  82 100
M  END
> <chiral flag>
0

> <version>
0

> <s_m_source_file>
/data/baiqing/PycharmProjects/Reinvent-master-3.2/result/LINK_invent/BTK/process_docking_weight1_custom_product_contain_oxygen_bond_distance_aromatic_linkinvent_7_9_3/rearranged_h_0165.sdf

> <i_m_source_file_index>
44

> <r_mmod_Potential_Energy-OPLS-2005>
-185.68701171875

> <r_mmod_Stretch_Energy-OPLS-2005>
34.0922431945801

> <r_mmod_Bend_Energy-OPLS-2005>
94.4778213500977

> <r_mmod_Torsional_Energy-OPLS-2005>
237.125854492188

> <r_mmod_Improper_Torsional_Energy-OPLS-2005>
2.60262393951416

> <r_mmod_Van_der_Waal_Energy-OPLS-2005>
161.244979858398

> <r_mmod_Electrostatic_Energy-OPLS-2005>
-492.084503173828

> <r_mmod_Solvation_Energy-OPLS-2005>
-232.614608764648

> <b_mmod_Minimization_Converged-OPLS-2005>
0

> <r_mmod_RMS_Derivative-OPLS-2005>
1.96293652057648

$$$$
45
                    3D
 Structure written by MMmdl.
160168  0  0  1  0            999 V2000
  -30.6625  -14.5066   20.6032 C   0  0  0  0  0  0
  -30.4462  -12.3438   19.4013 C   0  0  0  0  0  0
  -29.4955  -12.5161   18.1954 C   0  0  0  0  0  0
  -28.0173  -12.3740   18.6137 C   0  0  0  0  0  0
  -27.6699  -13.2008   19.8799 C   0  0  2  0  0  0
  -28.7153  -12.9434   20.9876 C   0  0  0  0  0  0
  -25.2633  -13.8145   20.5668 C   0  0  0  0  0  0
  -24.1862  -13.0440   20.9159 C   0  0  0  0  0  0
  -24.6402  -11.6909   20.8722 C   0  0  0  0  0  0
  -23.9048  -10.4300   21.0399 C   0  0  0  0  0  0
  -24.3605   -9.4219   21.9179 C   0  0  0  0  0  0
  -23.6285   -8.2250   22.0745 C   0  0  0  0  0  0
  -22.4267   -8.0281   21.3544 C   0  0  0  0  0  0
  -21.9904   -9.0252   20.4643 C   0  0  0  0  0  0
  -22.7221  -10.2139   20.3048 C   0  0  0  0  0  0
  -21.6849   -6.0729   22.5275 C   0  0  0  0  0  0
  -21.4010   -6.5635   23.8213 C   0  0  0  0  0  0
  -21.3659   -5.6793   24.9174 C   0  0  0  0  0  0
  -21.6045   -4.3049   24.7223 C   0  0  0  0  0  0
  -21.8825   -3.8145   23.4346 C   0  0  0  0  0  0
  -21.9197   -4.6961   22.3401 C   0  0  0  0  0  0
  -22.7887  -13.5256   21.1832 C   0  0  0  0  0  0
  -22.1666   -4.2147   21.0974 F   0  0  0  0  0  0
  -21.5633   -3.4535   25.7737 F   0  0  0  0  0  0
  -30.0482  -13.2956   20.4524 N   0  0  0  0  0  0
  -26.3072  -12.9309   20.3395 N   0  0  0  0  0  0
  -25.9329  -11.6467   20.5767 N   0  0  0  0  0  0
  -22.0518  -12.8255   22.0384 N   0  0  0  0  0  0
  -25.4396  -15.1856   20.4078 N   0  0  0  0  0  0
  -31.7038  -14.8141   20.0159 O   0  0  0  0  0  0
  -21.6642   -6.8876   21.4234 O   0  0  0  0  0  0
  -22.3580  -14.5575   20.6695 O   0  0  0  0  0  0
  -24.6217  -31.8624   23.2051 C   0  0  0  0  0  0
  -25.9079  -32.4781   23.8369 C   0  0  1  0  0  0
  -27.2380  -27.3663   20.0738 C   0  0  0  0  0  0
  -25.5909  -33.8575   24.2293 N   0  0  0  0  0  0
  -23.4146  -30.4861   21.5474 C   0  0  2  0  0  0
  -24.8596  -28.9517   20.1086 C   0  0  0  0  0  0
  -22.7478  -29.4602   22.4944 C   0  0  0  0  0  0
  -18.0291  -28.1396   22.8507 C   0  0  0  0  0  0
  -24.1478  -36.7281   23.2632 C   0  0  0  0  0  0
  -25.9544  -30.7983   21.3759 C   0  0  0  0  0  0
  -26.0273  -29.4335   20.7104 C   0  0  0  0  0  0
  -27.2152  -28.6516   20.6905 C   0  0  0  0  0  0
  -26.0419  -26.9307   19.4521 C   0  0  0  0  0  0
  -24.8661  -27.7008   19.4740 C   0  0  0  0  0  0
  -23.6261  -29.8253   20.1609 C   0  0  0  0  0  0
  -25.4105  -36.3073   24.0334 C   0  0  1  0  0  0
  -20.5898  -28.3657   23.1290 C   0  0  2  0  0  0
  -20.6770  -26.9380   22.5418 C   0  0  0  0  0  0
  -19.5750  -26.6385   21.5216 C   0  0  0  0  0  0
  -18.1925  -26.7946   22.1628 C   0  0  0  0  0  0
  -19.1556  -28.8854   23.2885 C   0  0  0  0  0  0
  -18.9465  -30.1467   23.8892 C   0  0  0  0  0  0
  -17.6461  -30.6592   24.0585 C   0  0  0  0  0  0
  -25.9045  -34.9449   23.5111 C   0  0  0  0  0  0
  -16.5351  -29.9093   23.6342 C   0  0  0  0  0  0
  -16.7279  -28.6518   23.0351 C   0  0  0  0  0  0
  -26.4477  -31.6601   25.0742 C   0  0  0  0  0  0
  -25.3715  -31.3759   26.1468 C   0  0  0  0  0  0
  -27.0311  -30.3035   24.6187 C   0  0  0  0  0  0
  -27.6033  -32.4353   25.7512 C   0  0  0  0  0  0
  -27.5571  -37.1788   24.8469 C   0  0  0  0  0  0
  -21.4198  -29.3014   22.3685 N   0  0  0  0  0  0
  -26.4288  -37.3764   23.9403 N   0  0  0  0  0  0
  -24.6819  -31.0665   22.0982 N   0  0  0  0  0  0
  -23.4226  -28.8120   23.2983 O   0  0  0  0  0  0
  -28.3914  -26.5736   20.1014 O   0  0  0  0  0  0
  -26.5605  -34.8918   22.4667 O   0  0  0  0  0  0
  -23.5394  -32.1376   23.7415 O   0  0  0  0  0  0
  -28.0366  -18.1621   22.6331 C   0  0  0  0  0  0
  -28.3709  -19.1992   21.7519 C   0  0  0  0  0  0
  -28.6521  -16.9104   22.5081 C   0  0  0  0  0  0
  -29.9619  -17.7292   20.6126 C   0  0  0  0  0  0
  -29.3378  -19.0231   20.7370 C   0  0  0  0  0  0
  -29.6089  -16.6600   21.5035 C   0  0  0  0  0  0
  -29.3769  -24.1819   20.2046 C   0  0  0  0  0  0
  -28.3276  -25.1922   19.6173 C   0  0  0  0  0  0
  -29.5452  -20.2410   19.7880 C   0  0  1  0  0  0
  -29.8260  -21.6491   20.4847 C   0  0  1  0  0  0
  -31.3173  -21.8641   20.8872 C   0  0  0  0  0  0
  -30.4468  -19.9405   18.6553 N   0  0  0  0  0  0
  -30.0807  -15.2996   21.5237 N   0  0  0  0  0  0
  -29.2567  -22.7816   19.6710 N   0  0  0  0  0  0
  -31.7825  -20.8027   21.5448 F   0  0  0  0  0  0
  -32.0757  -22.0677   19.8070 F   0  0  0  0  0  0
  -31.4487  -22.9174   21.6945 F   0  0  0  0  0  0
  -31.4807  -12.4925   19.0855 H   0  0  0  0  0  0
  -30.3975  -11.3243   19.7846 H   0  0  0  0  0  0
  -29.7324  -11.7799   17.4259 H   0  0  0  0  0  0
  -29.6521  -13.4929   17.7362 H   0  0  0  0  0  0
  -27.8242  -11.3180   18.7995 H   0  0  0  0  0  0
  -27.3636  -12.6570   17.7877 H   0  0  0  0  0  0
  -27.7254  -14.2545   19.6064 H   0  0  0  0  0  0
  -28.7062  -11.8898   21.2692 H   0  0  0  0  0  0
  -28.4481  -13.4771   21.8988 H   0  0  0  0  0  0
  -25.2755   -9.5698   22.4751 H   0  0  0  0  0  0
  -24.0001   -7.4645   22.7473 H   0  0  0  0  0  0
  -21.0830   -8.8756   19.8956 H   0  0  0  0  0  0
  -22.3667  -10.9667   19.6153 H   0  0  0  0  0  0
  -21.1989   -7.6144   23.9707 H   0  0  0  0  0  0
  -21.1475   -6.0521   25.9079 H   0  0  0  0  0  0
  -22.0603   -2.7604   23.2841 H   0  0  0  0  0  0
  -22.4116  -11.9908   22.4775 H   0  0  0  0  0  0
  -21.1138  -13.1293   22.2593 H   0  0  0  0  0  0
  -24.6828  -15.8497   20.5262 H   0  0  0  0  0  0
  -26.3123  -15.6209   20.1327 H   0  0  0  0  0  0
  -26.7149  -32.5465   23.1128 H   0  0  0  0  0  0
  -25.0098  -33.9720   25.0468 H   0  0  0  0  0  0
  -22.7063  -31.3046   21.4093 H   0  0  0  0  0  0
  -23.3750  -35.9605   23.3328 H   0  0  0  0  0  0
  -24.3587  -36.8863   22.2049 H   0  0  0  0  0  0
  -23.7235  -37.6481   23.6660 H   0  0  0  0  0  0
  -26.0916  -31.5616   20.6096 H   0  0  0  0  0  0
  -26.8323  -30.8374   22.0066 H   0  0  0  0  0  0
  -28.1140  -29.0264   21.1578 H   0  0  0  0  0  0
  -25.9795  -25.9884   18.9299 H   0  0  0  0  0  0
  -23.9735  -27.3295   18.9905 H   0  0  0  0  0  0
  -23.7408  -30.6029   19.4054 H   0  0  0  0  0  0
  -22.7484  -29.2485   19.8621 H   0  0  0  0  0  0
  -25.1284  -36.1923   25.0833 H   0  0  0  0  0  0
  -20.9984  -28.3205   24.1405 H   0  0  0  0  0  0
  -20.5639  -26.2246   23.3605 H   0  0  0  0  0  0
  -21.6621  -26.7396   22.1198 H   0  0  0  0  0  0
  -19.6879  -25.6288   21.1228 H   0  0  0  0  0  0
  -19.6704  -27.3201   20.6764 H   0  0  0  0  0  0
  -17.4186  -26.6722   21.4026 H   0  0  0  0  0  0
  -18.0306  -26.0097   22.9038 H   0  0  0  0  0  0
  -19.7930  -30.7319   24.2207 H   0  0  0  0  0  0
  -17.5007  -31.6266   24.5202 H   0  0  0  0  0  0
  -15.5338  -30.2994   23.7676 H   0  0  0  0  0  0
  -15.8690  -28.0856   22.7023 H   0  0  0  0  0  0
  -24.5931  -30.7052   25.7831 H   0  0  0  0  0  0
  -24.8852  -32.2917   26.4837 H   0  0  0  0  0  0
  -25.8030  -30.9022   27.0287 H   0  0  0  0  0  0
  -26.2871  -29.6818   24.1191 H   0  0  0  0  0  0
  -27.3984  -29.7273   25.4678 H   0  0  0  0  0  0
  -27.8765  -30.4352   23.9437 H   0  0  0  0  0  0
  -27.2643  -33.3681   26.2034 H   0  0  0  0  0  0
  -28.3860  -32.6848   25.0347 H   0  0  0  0  0  0
  -28.0673  -31.8515   26.5467 H   0  0  0  0  0  0
  -28.2577  -38.0091   24.7489 H   0  0  0  0  0  0
  -28.1069  -36.2609   24.6325 H   0  0  0  0  0  0
  -27.2288  -37.1454   25.8872 H   0  0  0  0  0  0
  -20.9356  -29.8779   21.6950 H   0  0  0  0  0  0
  -26.0173  -38.2827   24.1439 H   0  0  0  0  0  0
  -27.2894  -18.3233   23.3973 H   0  0  0  0  0  0
  -27.8457  -20.1374   21.8566 H   0  0  0  0  0  0
  -28.3591  -16.1300   23.1977 H   0  0  0  0  0  0
  -30.6868  -17.5420   19.8325 H   0  0  0  0  0  0
  -29.2555  -24.1806   21.2880 H   0  0  0  0  0  0
  -30.3814  -24.5612   20.0129 H   0  0  0  0  0  0
  -27.3605  -24.7519   19.8539 H   0  0  0  0  0  0
  -28.4187  -25.2153   18.5303 H   0  0  0  0  0  0
  -28.5461  -20.3359   19.3589 H   0  0  0  0  0  0
  -29.2751  -21.6514   21.4243 H   0  0  0  0  0  0
  -31.3130  -20.4779   18.7384 H   0  0  0  0  0  0
  -30.7311  -18.9606   18.6837 H   0  0  0  0  0  0
  -29.5426  -14.7290   22.1578 H   0  0  0  0  0  0
  -29.6982  -22.7308   18.7536 H   0  0  0  0  0  0
  1 25  1  0  0  0
  1 30  2  0  0  0
  1 83  1  0  0  0
  2  3  1  0  0  0
  2 25  1  0  0  0
  2 88  1  0  0  0
  2 89  1  0  0  0
  3  4  1  0  0  0
  3 90  1  0  0  0
  3 91  1  0  0  0
  4  5  1  0  0  0
  4 92  1  0  0  0
  4 93  1  0  0  0
  5  6  1  0  0  0
  5 26  1  0  0  0
  5 94  1  0  0  0
  6 25  1  0  0  0
  6 95  1  0  0  0
  6 96  1  0  0  0
  7  8  2  0  0  0
  7 26  1  0  0  0
  7 29  1  0  0  0
  8  9  1  0  0  0
  8 22  1  0  0  0
  9 10  1  0  0  0
  9 27  2  0  0  0
 10 11  2  0  0  0
 10 15  1  0  0  0
 11 12  1  0  0  0
 11 97  1  0  0  0
 12 13  2  0  0  0
 12 98  1  0  0  0
 13 14  1  0  0  0
 13 31  1  0  0  0
 14 15  2  0  0  0
 14 99  1  0  0  0
 15100  1  0  0  0
 16 17  2  0  0  0
 16 21  1  0  0  0
 16 31  1  0  0  0
 17 18  1  0  0  0
 17101  1  0  0  0
 18 19  2  0  0  0
 18102  1  0  0  0
 19 20  1  0  0  0
 19 24  1  0  0  0
 20 21  2  0  0  0
 20103  1  0  0  0
 21 23  1  0  0  0
 22 28  1  0  0  0
 22 32  2  0  0  0
 26 27  1  0  0  0
 28104  1  0  0  0
 28105  1  0  0  0
 29106  1  0  0  0
 29107  1  0  0  0
 33 34  1  0  0  0
 33 66  1  0  0  0
 33 70  2  0  0  0
 34 36  1  0  0  0
 34 59  1  0  0  0
 34108  1  0  0  0
 35 44  2  0  0  0
 35 45  1  0  0  0
 35 68  1  0  0  0
 36 56  1  0  0  0
 36109  1  0  0  0
 37 39  1  0  0  0
 37 47  1  0  0  0
 37 66  1  0  0  0
 37110  1  0  0  0
 38 43  2  0  0  0
 38 46  1  0  0  0
 38 47  1  0  0  0
 39 64  1  0  0  0
 39 67  2  0  0  0
 40 52  1  0  0  0
 40 53  2  0  0  0
 40 58  1  0  0  0
 41111  1  0  0  0
 41112  1  0  0  0
 41113  1  0  0  0
 41 48  1  0  0  0
 42 43  1  0  0  0
 42 66  1  0  0  0
 42114  1  0  0  0
 42115  1  0  0  0
 43 44  1  0  0  0
 44116  1  0  0  0
 45 46  2  0  0  0
 45117  1  0  0  0
 46118  1  0  0  0
 47119  1  0  0  0
 47120  1  0  0  0
 48 56  1  0  0  0
 48 65  1  0  0  0
 48121  1  0  0  0
 49 50  1  0  0  0
 49 53  1  0  0  0
 49 64  1  0  0  0
 49122  1  0  0  0
 50 51  1  0  0  0
 50123  1  0  0  0
 50124  1  0  0  0
 51 52  1  0  0  0
 51125  1  0  0  0
 51126  1  0  0  0
 52127  1  0  0  0
 52128  1  0  0  0
 53 54  1  0  0  0
 54 55  2  0  0  0
 54129  1  0  0  0
 55 57  1  0  0  0
 55130  1  0  0  0
 56 69  2  0  0  0
 57 58  2  0  0  0
 57131  1  0  0  0
 58132  1  0  0  0
 59 60  1  0  0  0
 59 61  1  0  0  0
 59 62  1  0  0  0
 60133  1  0  0  0
 60134  1  0  0  0
 60135  1  0  0  0
 61136  1  0  0  0
 61137  1  0  0  0
 61138  1  0  0  0
 62139  1  0  0  0
 62140  1  0  0  0
 62141  1  0  0  0
 63 65  1  0  0  0
 63142  1  0  0  0
 63143  1  0  0  0
 63144  1  0  0  0
 64145  1  0  0  0
 65146  1  0  0  0
 68 78  1  0  0  0
 71 72  2  0  0  0
 71 73  1  0  0  0
 71147  1  0  0  0
 72 75  1  0  0  0
 72148  1  0  0  0
 73 76  2  0  0  0
 73149  1  0  0  0
 74 75  2  0  0  0
 74 76  1  0  0  0
 74150  1  0  0  0
 75 79  1  0  0  0
 76 83  1  0  0  0
 77 78  1  0  0  0
 77 84  1  0  0  0
 77151  1  0  0  0
 77152  1  0  0  0
 78153  1  0  0  0
 78154  1  0  0  0
 79 80  1  0  0  0
 79 82  1  0  0  0
 79155  1  0  0  0
 80 81  1  0  0  0
 80 84  1  0  0  0
 80156  1  0  0  0
 81 85  1  0  0  0
 81 86  1  0  0  0
 81 87  1  0  0  0
 82157  1  0  0  0
 82158  1  0  0  0
 83159  1  0  0  0
 84160  1  0  0  0
M  ISO  4   1 100  68 101  78 101  83 100
M  END
> <chiral flag>
0

> <version>
0

> <s_m_source_file>
/data/baiqing/PycharmProjects/Reinvent-master-3.2/result/LINK_invent/BTK/process_docking_weight1_custom_product_contain_oxygen_bond_distance_aromatic_linkinvent_7_9_3/rearranged_h_0165.sdf

> <i_m_source_file_index>
45

> <r_mmod_Potential_Energy-OPLS-2005>
171.122451782227

> <r_mmod_Stretch_Energy-OPLS-2005>
66.134162902832

> <r_mmod_Bend_Energy-OPLS-2005>
148.003692626953

> <r_mmod_Torsional_Energy-OPLS-2005>
280.883575439453

> <r_mmod_Improper_Torsional_Energy-OPLS-2005>
4.8476767539978

> <r_mmod_Van_der_Waal_Energy-OPLS-2005>
152.786224365234

> <r_mmod_Electrostatic_Energy-OPLS-2005>
-294.399688720703

> <r_mmod_Solvation_Energy-OPLS-2005>
-211.250885009766

> <b_mmod_Minimization_Converged-OPLS-2005>
0

> <r_mmod_RMS_Derivative-OPLS-2005>
3.17922401428223

$$$$
46
                    3D
 Structure written by MMmdl.
147155  0  0  1  0            999 V2000
  -30.5807  -14.7622   20.4512 C   0  0  0  0  0  0
  -30.4362  -12.4629   19.4680 C   0  0  0  0  0  0
  -29.5093  -12.5097   18.2320 C   0  0  0  0  0  0
  -28.0372  -12.3208   18.6491 C   0  0  0  0  0  0
  -27.6385  -13.2251   19.8455 C   0  0  2  0  0  0
  -28.6843  -13.1600   20.9799 C   0  0  0  0  0  0
  -25.2505  -13.8175   20.5677 C   0  0  0  0  0  0
  -24.1798  -13.0429   20.9212 C   0  0  0  0  0  0
  -24.6381  -11.6905   20.8751 C   0  0  0  0  0  0
  -23.9057  -10.4288   21.0413 C   0  0  0  0  0  0
  -24.3610   -9.4205   21.9187 C   0  0  0  0  0  0
  -23.6288   -8.2239   22.0759 C   0  0  0  0  0  0
  -22.4269   -8.0273   21.3547 C   0  0  0  0  0  0
  -21.9905   -9.0245   20.4644 C   0  0  0  0  0  0
  -22.7236  -10.2128   20.3056 C   0  0  0  0  0  0
  -21.6855   -6.0733   22.5281 C   0  0  0  0  0  0
  -21.4018   -6.5636   23.8214 C   0  0  0  0  0  0
  -21.3665   -5.6792   24.9175 C   0  0  0  0  0  0
  -21.6045   -4.3053   24.7229 C   0  0  0  0  0  0
  -21.8818   -3.8142   23.4349 C   0  0  0  0  0  0
  -21.9193   -4.6959   22.3405 C   0  0  0  0  0  0
  -22.7820  -13.5213   21.1872 C   0  0  0  0  0  0
  -22.1659   -4.2141   21.0986 F   0  0  0  0  0  0
  -21.5629   -3.4537   25.7743 F   0  0  0  0  0  0
  -29.9807  -13.5232   20.3948 N   0  0  0  0  0  0
  -26.2915  -12.9367   20.3246 N   0  0  0  0  0  0
  -25.9303  -11.6517   20.5735 N   0  0  0  0  0  0
  -22.0466  -12.8198   22.0428 N   0  0  0  0  0  0
  -25.4187  -15.1906   20.4090 N   0  0  0  0  0  0
  -31.7815  -14.8684   20.1817 O   0  0  0  0  0  0
  -21.6639   -6.8871   21.4243 O   0  0  0  0  0  0
  -22.3501  -14.5515   20.6719 O   0  0  0  0  0  0
  -24.6330  -31.8538   23.1957 C   0  0  0  0  0  0
  -25.9146  -32.4746   23.8317 C   0  0  1  0  0  0
  -27.2217  -27.2516   20.1416 C   0  0  0  0  0  0
  -25.5935  -33.8548   24.2244 N   0  0  0  0  0  0
  -23.4312  -30.4737   21.5396 C   0  0  2  0  0  0
  -24.8797  -28.9134   20.1152 C   0  0  0  0  0  0
  -22.7510  -29.4599   22.4912 C   0  0  0  0  0  0
  -18.0291  -28.1388   22.8483 C   0  0  0  0  0  0
  -24.1493  -36.7280   23.2641 C   0  0  0  0  0  0
  -25.9773  -30.7649   21.3763 C   0  0  0  0  0  0
  -26.0517  -29.3848   20.7211 C   0  0  0  0  0  0
  -27.2302  -28.5690   20.7152 C   0  0  0  0  0  0
  -26.0285  -26.8440   19.5118 C   0  0  0  0  0  0
  -24.8732  -27.6521   19.4976 C   0  0  0  0  0  0
  -23.6510  -29.8022   20.1583 C   0  0  0  0  0  0
  -25.4121  -36.3065   24.0324 C   0  0  1  0  0  0
  -20.5896  -28.3708   23.1266 C   0  0  2  0  0  0
  -20.6781  -26.9423   22.5411 C   0  0  0  0  0  0
  -19.5758  -26.6387   21.5212 C   0  0  0  0  0  0
  -18.1936  -26.7931   22.1620 C   0  0  0  0  0  0
  -19.1544  -28.8863   23.2867 C   0  0  0  0  0  0
  -18.9465  -30.1461   23.8889 C   0  0  0  0  0  0
  -17.6465  -30.6588   24.0563 C   0  0  0  0  0  0
  -25.9062  -34.9435   23.5088 C   0  0  0  0  0  0
  -16.5357  -29.9088   23.6330 C   0  0  0  0  0  0
  -16.7277  -28.6506   23.0351 C   0  0  0  0  0  0
  -26.4507  -31.6570   25.0709 C   0  0  0  0  0  0
  -25.3720  -31.3726   26.1419 C   0  0  0  0  0  0
  -27.0361  -30.2982   24.6215 C   0  0  0  0  0  0
  -27.6060  -32.4312   25.7488 C   0  0  0  0  0  0
  -27.5584  -37.1794   24.8461 C   0  0  0  0  0  0
  -21.4217  -29.3048   22.3647 N   0  0  0  0  0  0
  -26.4294  -37.3767   23.9406 N   0  0  0  0  0  0
  -24.6995  -31.0495   22.0935 N   0  0  0  0  0  0
  -23.4198  -28.8147   23.3025 O   0  0  0  0  0  0
  -28.3091  -26.3499   20.1446 O   0  0  0  0  0  0
  -26.5640  -34.8914   22.4661 O   0  0  0  0  0  0
  -23.5475  -32.1366   23.7245 O   0  0  0  0  0  0
  -30.8733  -19.6534   21.0270 C   0  0  0  0  0  0
  -29.6020  -19.6936   20.5052 C   0  0  0  0  0  0
  -30.0289  -17.3256   20.6126 C   0  0  0  0  0  0
  -28.5829  -23.6523   20.0135 C   0  0  0  0  0  0
  -28.9531  -22.3001   20.8167 C   0  0  0  0  0  0
  -28.1152  -24.9927   20.7784 C   0  0  0  0  0  0
  -29.1425  -18.3365   20.2967 N   0  0  0  0  0  0
  -28.8614  -20.9153   20.1754 N   0  0  0  0  0  0
  -29.7464  -15.8713   20.5412 N   0  0  0  0  0  0
  -28.6405  -23.6428   18.7795 O   0  0  0  0  0  0
  -31.5306  -18.0230   21.2120 S   0  0  0  0  0  0
  -31.4765  -12.5977   19.1669 H   0  0  0  0  0  0
  -30.3870  -11.4862   19.9512 H   0  0  0  0  0  0
  -29.7957  -11.7431   17.5106 H   0  0  0  0  0  0
  -29.6249  -13.4677   17.7230 H   0  0  0  0  0  0
  -27.9050  -11.2724   18.9198 H   0  0  0  0  0  0
  -27.3765  -12.5000   17.8003 H   0  0  0  0  0  0
  -27.6285  -14.2431   19.4567 H   0  0  0  0  0  0
  -28.7258  -12.1597   21.4132 H   0  0  0  0  0  0
  -28.4167  -13.8350   21.7949 H   0  0  0  0  0  0
  -25.2754   -9.5678   22.4759 H   0  0  0  0  0  0
  -23.9996   -7.4629   22.7476 H   0  0  0  0  0  0
  -21.0842   -8.8760   19.8941 H   0  0  0  0  0  0
  -22.3697  -10.9662   19.6155 H   0  0  0  0  0  0
  -21.2014   -7.6143   23.9715 H   0  0  0  0  0  0
  -21.1488   -6.0523   25.9080 H   0  0  0  0  0  0
  -22.0592   -2.7602   23.2856 H   0  0  0  0  0  0
  -22.4086  -11.9853   22.4803 H   0  0  0  0  0  0
  -21.1083  -13.1220   22.2637 H   0  0  0  0  0  0
  -24.6450  -15.8377   20.5163 H   0  0  0  0  0  0
  -26.2525  -15.6353   20.0488 H   0  0  0  0  0  0
  -26.7215  -32.5394   23.1062 H   0  0  0  0  0  0
  -25.0053  -33.9683   25.0371 H   0  0  0  0  0  0
  -22.7289  -31.2960   21.3893 H   0  0  0  0  0  0
  -23.3758  -35.9608   23.3291 H   0  0  0  0  0  0
  -24.3582  -36.8917   22.2057 H   0  0  0  0  0  0
  -23.7244  -37.6475   23.6677 H   0  0  0  0  0  0
  -26.1167  -31.5247   20.6066 H   0  0  0  0  0  0
  -26.8543  -30.8156   22.0100 H   0  0  0  0  0  0
  -28.1332  -28.9288   21.1883 H   0  0  0  0  0  0
  -25.9841  -25.8743   19.0361 H   0  0  0  0  0  0
  -23.9763  -27.2873   19.0164 H   0  0  0  0  0  0
  -23.7779  -30.5752   19.3999 H   0  0  0  0  0  0
  -22.7701  -29.2351   19.8534 H   0  0  0  0  0  0
  -25.1307  -36.1909   25.0818 H   0  0  0  0  0  0
  -20.9987  -28.3289   24.1387 H   0  0  0  0  0  0
  -20.5683  -26.2320   23.3619 H   0  0  0  0  0  0
  -21.6651  -26.7447   22.1205 H   0  0  0  0  0  0
  -19.6926  -25.6298   21.1243 H   0  0  0  0  0  0
  -19.6693  -27.3197   20.6739 H   0  0  0  0  0  0
  -17.4210  -26.6677   21.4017 H   0  0  0  0  0  0
  -18.0333  -26.0072   22.9015 H   0  0  0  0  0  0
  -19.7941  -30.7274   24.2264 H   0  0  0  0  0  0
  -17.5020  -31.6268   24.5169 H   0  0  0  0  0  0
  -15.5359  -30.2990   23.7657 H   0  0  0  0  0  0
  -15.8676  -28.0824   22.7072 H   0  0  0  0  0  0
  -24.5898  -30.7080   25.7731 H   0  0  0  0  0  0
  -24.8906  -32.2896   26.4827 H   0  0  0  0  0  0
  -25.8018  -30.8902   27.0206 H   0  0  0  0  0  0
  -26.2952  -29.6712   24.1243 H   0  0  0  0  0  0
  -27.4033  -29.7266   25.4749 H   0  0  0  0  0  0
  -27.8832  -30.4241   23.9469 H   0  0  0  0  0  0
  -27.2669  -33.3615   26.2059 H   0  0  0  0  0  0
  -28.3877  -32.6869   25.0320 H   0  0  0  0  0  0
  -28.0726  -31.8439   26.5408 H   0  0  0  0  0  0
  -28.2593  -38.0099   24.7521 H   0  0  0  0  0  0
  -28.1091  -36.2631   24.6275 H   0  0  0  0  0  0
  -27.2300  -37.1425   25.8862 H   0  0  0  0  0  0
  -20.9414  -29.8754   21.6828 H   0  0  0  0  0  0
  -26.0169  -38.2840   24.1407 H   0  0  0  0  0  0
  -31.4987  -20.4939   21.2914 H   0  0  0  0  0  0
  -28.3096  -22.2802   21.6967 H   0  0  0  0  0  0
  -29.9659  -22.4294   21.1996 H   0  0  0  0  0  0
  -28.6397  -25.0118   21.7334 H   0  0  0  0  0  0
  -27.0627  -24.8631   21.0317 H   0  0  0  0  0  0
  -27.9793  -20.7599   19.6944 H   0  0  0  0  0  0
  -28.7682  -15.6392   20.5635 H   0  0  0  0  0  0
  1 25  1  0  0  0
  1 30  2  0  0  0
  1 79  1  0  0  0
  2  3  1  0  0  0
  2 25  1  0  0  0
  2 82  1  0  0  0
  2 83  1  0  0  0
  3  4  1  0  0  0
  3 84  1  0  0  0
  3 85  1  0  0  0
  4  5  1  0  0  0
  4 86  1  0  0  0
  4 87  1  0  0  0
  5  6  1  0  0  0
  5 26  1  0  0  0
  5 88  1  0  0  0
  6 25  1  0  0  0
  6 89  1  0  0  0
  6 90  1  0  0  0
  7  8  2  0  0  0
  7 26  1  0  0  0
  7 29  1  0  0  0
  8  9  1  0  0  0
  8 22  1  0  0  0
  9 10  1  0  0  0
  9 27  2  0  0  0
 10 11  2  0  0  0
 10 15  1  0  0  0
 11 12  1  0  0  0
 11 91  1  0  0  0
 12 13  2  0  0  0
 12 92  1  0  0  0
 13 14  1  0  0  0
 13 31  1  0  0  0
 14 15  2  0  0  0
 14 93  1  0  0  0
 15 94  1  0  0  0
 16 17  2  0  0  0
 16 21  1  0  0  0
 16 31  1  0  0  0
 17 18  1  0  0  0
 17 95  1  0  0  0
 18 19  2  0  0  0
 18 96  1  0  0  0
 19 20  1  0  0  0
 19 24  1  0  0  0
 20 21  2  0  0  0
 20 97  1  0  0  0
 21 23  1  0  0  0
 22 28  1  0  0  0
 22 32  2  0  0  0
 26 27  1  0  0  0
 28 98  1  0  0  0
 28 99  1  0  0  0
 29100  1  0  0  0
 29101  1  0  0  0
 33 34  1  0  0  0
 33 66  1  0  0  0
 33 70  2  0  0  0
 34 36  1  0  0  0
 34 59  1  0  0  0
 34102  1  0  0  0
 35 44  2  0  0  0
 35 45  1  0  0  0
 35 68  1  0  0  0
 36 56  1  0  0  0
 36103  1  0  0  0
 37 39  1  0  0  0
 37 47  1  0  0  0
 37 66  1  0  0  0
 37104  1  0  0  0
 38 43  2  0  0  0
 38 46  1  0  0  0
 38 47  1  0  0  0
 39 64  1  0  0  0
 39 67  2  0  0  0
 40 52  1  0  0  0
 40 53  2  0  0  0
 40 58  1  0  0  0
 41105  1  0  0  0
 41106  1  0  0  0
 41107  1  0  0  0
 41 48  1  0  0  0
 42 43  1  0  0  0
 42 66  1  0  0  0
 42108  1  0  0  0
 42109  1  0  0  0
 43 44  1  0  0  0
 44110  1  0  0  0
 45 46  2  0  0  0
 45111  1  0  0  0
 46112  1  0  0  0
 47113  1  0  0  0
 47114  1  0  0  0
 48 56  1  0  0  0
 48 65  1  0  0  0
 48115  1  0  0  0
 49 50  1  0  0  0
 49 53  1  0  0  0
 49 64  1  0  0  0
 49116  1  0  0  0
 50 51  1  0  0  0
 50117  1  0  0  0
 50118  1  0  0  0
 51 52  1  0  0  0
 51119  1  0  0  0
 51120  1  0  0  0
 52121  1  0  0  0
 52122  1  0  0  0
 53 54  1  0  0  0
 54 55  2  0  0  0
 54123  1  0  0  0
 55 57  1  0  0  0
 55124  1  0  0  0
 56 69  2  0  0  0
 57 58  2  0  0  0
 57125  1  0  0  0
 58126  1  0  0  0
 59 60  1  0  0  0
 59 61  1  0  0  0
 59 62  1  0  0  0
 60127  1  0  0  0
 60128  1  0  0  0
 60129  1  0  0  0
 61130  1  0  0  0
 61131  1  0  0  0
 61132  1  0  0  0
 62133  1  0  0  0
 62134  1  0  0  0
 62135  1  0  0  0
 63 65  1  0  0  0
 63136  1  0  0  0
 63137  1  0  0  0
 63138  1  0  0  0
 64139  1  0  0  0
 65140  1  0  0  0
 68 76  1  0  0  0
 71 72  2  0  0  0
 71 81  1  0  0  0
 71141  1  0  0  0
 72 77  1  0  0  0
 72 78  1  0  0  0
 73 77  2  0  0  0
 73 79  1  0  0  0
 73 81  1  0  0  0
 74 75  1  0  0  0
 74 76  1  0  0  0
 74 80  2  0  0  0
 75 78  1  0  0  0
 75142  1  0  0  0
 75143  1  0  0  0
 76144  1  0  0  0
 76145  1  0  0  0
 78146  1  0  0  0
 79147  1  0  0  0
M  ISO  4   1 100  68 101  76 101  79 100
M  END
> <chiral flag>
0

> <version>
0

> <s_m_source_file>
/data/baiqing/PycharmProjects/Reinvent-master-3.2/result/LINK_invent/BTK/process_docking_weight1_custom_product_contain_oxygen_bond_distance_aromatic_linkinvent_7_9_3/rearranged_h_0165.sdf

> <i_m_source_file_index>
46

> <r_mmod_Potential_Energy-OPLS-2005>
31.6894950866699

> <r_mmod_Stretch_Energy-OPLS-2005>
122.532089233398

> <r_mmod_Bend_Energy-OPLS-2005>
162.952117919922

> <r_mmod_Torsional_Energy-OPLS-2005>
231.383087158203

> <r_mmod_Improper_Torsional_Energy-OPLS-2005>
7.95003414154053

> <r_mmod_Van_der_Waal_Energy-OPLS-2005>
110.997039794922

> <r_mmod_Electrostatic_Energy-OPLS-2005>
-443.802215576172

> <r_mmod_Solvation_Energy-OPLS-2005>
-252.825927734375

> <b_mmod_Minimization_Converged-OPLS-2005>
0

> <r_mmod_RMS_Derivative-OPLS-2005>
1.08819127082825

$$$$
47
                    3D
 Structure written by MMmdl.
158167  0  0  1  0            999 V2000
  -30.7038  -14.4501   20.5763 C   0  0  0  0  0  0
  -30.4189  -12.2906   19.4262 C   0  0  0  0  0  0
  -29.4960  -12.5085   18.2093 C   0  0  0  0  0  0
  -28.0161  -12.3726   18.6166 C   0  0  0  0  0  0
  -27.6637  -13.2051   19.8784 C   0  0  2  0  0  0
  -28.7021  -12.9751   21.0006 C   0  0  0  0  0  0
  -25.2605  -13.8159   20.5681 C   0  0  0  0  0  0
  -24.1843  -13.0446   20.9167 C   0  0  0  0  0  0
  -24.6381  -11.6907   20.8719 C   0  0  0  0  0  0
  -23.9043  -10.4295   21.0390 C   0  0  0  0  0  0
  -24.3601   -9.4218   21.9178 C   0  0  0  0  0  0
  -23.6279   -8.2252   22.0750 C   0  0  0  0  0  0
  -22.4264   -8.0284   21.3537 C   0  0  0  0  0  0
  -21.9890   -9.0252   20.4642 C   0  0  0  0  0  0
  -22.7211  -10.2131   20.3046 C   0  0  0  0  0  0
  -21.6857   -6.0734   22.5274 C   0  0  0  0  0  0
  -21.4024   -6.5636   23.8210 C   0  0  0  0  0  0
  -21.3656   -5.6787   24.9172 C   0  0  0  0  0  0
  -21.6041   -4.3052   24.7222 C   0  0  0  0  0  0
  -21.8819   -3.8142   23.4345 C   0  0  0  0  0  0
  -21.9194   -4.6960   22.3400 C   0  0  0  0  0  0
  -22.7872  -13.5257   21.1838 C   0  0  0  0  0  0
  -22.1663   -4.2142   21.0978 F   0  0  0  0  0  0
  -21.5618   -3.4540   25.7742 F   0  0  0  0  0  0
  -30.0387  -13.2714   20.4552 N   0  0  0  0  0  0
  -26.3033  -12.9320   20.3366 N   0  0  0  0  0  0
  -25.9311  -11.6482   20.5753 N   0  0  0  0  0  0
  -22.0497  -12.8256   22.0388 N   0  0  0  0  0  0
  -25.4358  -15.1878   20.4107 N   0  0  0  0  0  0
  -31.8236  -14.6314   20.0938 O   0  0  0  0  0  0
  -21.6632   -6.8881   21.4237 O   0  0  0  0  0  0
  -22.3566  -14.5568   20.6689 O   0  0  0  0  0  0
  -24.6131  -31.8670   23.2104 C   0  0  0  0  0  0
  -25.9035  -32.4811   23.8389 C   0  0  1  0  0  0
  -27.2354  -27.4391   20.0864 C   0  0  0  0  0  0
  -25.5894  -33.8611   24.2320 N   0  0  0  0  0  0
  -23.3998  -30.4900   21.5515 C   0  0  2  0  0  0
  -24.8432  -28.9545   20.1154 C   0  0  0  0  0  0
  -22.7402  -29.4642   22.5000 C   0  0  0  0  0  0
  -18.0269  -28.1369   22.8492 C   0  0  0  0  0  0
  -24.1486  -36.7321   23.2637 C   0  0  0  0  0  0
  -25.9268  -30.8322   21.3626 C   0  0  0  0  0  0
  -26.0011  -29.4659   20.7122 C   0  0  0  0  0  0
  -27.1944  -28.7112   20.7011 C   0  0  0  0  0  0
  -26.0526  -26.9322   19.4988 C   0  0  0  0  0  0
  -24.8622  -27.6853   19.5107 C   0  0  0  0  0  0
  -23.6059  -29.8220   20.1652 C   0  0  0  0  0  0
  -25.4103  -36.3100   24.0331 C   0  0  1  0  0  0
  -20.5854  -28.3650   23.1322 C   0  0  2  0  0  0
  -20.6758  -26.9388   22.5419 C   0  0  0  0  0  0
  -19.5738  -26.6379   21.5211 C   0  0  0  0  0  0
  -18.1916  -26.7920   22.1619 C   0  0  0  0  0  0
  -19.1517  -28.8826   23.2905 C   0  0  0  0  0  0
  -18.9445  -30.1434   23.8915 C   0  0  0  0  0  0
  -17.6447  -30.6576   24.0563 C   0  0  0  0  0  0
  -25.9030  -34.9464   23.5120 C   0  0  0  0  0  0
  -16.5340  -29.9080   23.6320 C   0  0  0  0  0  0
  -16.7258  -28.6495   23.0344 C   0  0  0  0  0  0
  -26.4463  -31.6591   25.0720 C   0  0  0  0  0  0
  -25.3741  -31.3694   26.1483 C   0  0  0  0  0  0
  -27.0287  -30.3036   24.6085 C   0  0  0  0  0  0
  -27.6043  -32.4308   25.7479 C   0  0  0  0  0  0
  -27.5575  -37.1810   24.8455 C   0  0  0  0  0  0
  -21.4130  -29.3019   22.3741 N   0  0  0  0  0  0
  -26.4286  -37.3785   23.9402 N   0  0  0  0  0  0
  -24.6648  -31.0774   22.1005 N   0  0  0  0  0  0
  -23.4180  -28.8181   23.3036 O   0  0  0  0  0  0
  -28.4348  -26.7564   20.0981 O   0  0  0  0  0  0
  -26.5595  -34.8917   22.4684 O   0  0  0  0  0  0
  -23.5331  -32.1420   23.7512 O   0  0  0  0  0  0
  -29.0935  -17.6867   21.4729 C   0  0  0  0  0  0
  -31.1440  -17.4800   20.2182 C   0  0  0  0  0  0
  -29.1348  -19.0749   21.2162 C   0  0  0  0  0  0
  -30.1087  -16.8528   20.9567 C   0  0  0  0  0  0
  -30.1955  -19.5826   20.4429 C   0  0  0  0  0  0
  -28.0414  -20.0007   21.7396 C   0  0  0  0  0  0
  -28.4222  -21.4904   21.6234 C   0  0  0  0  0  0
  -29.0966  -21.7771   20.2697 C   0  0  1  0  0  0
  -29.4606  -23.2635   20.0363 C   0  0  0  0  0  0
  -28.2785  -24.2645   20.0298 C   0  0  0  0  0  0
  -28.6150  -25.5870   19.2953 C   0  0  0  0  0  0
  -31.1818  -18.8078   19.9667 N   0  0  0  0  0  0
  -30.2868  -20.9405   20.1252 N   0  0  0  0  0  0
  -30.0105  -15.4387   21.1747 N   0  0  0  0  0  0
  -31.4662  -12.3737   19.1292 H   0  0  0  0  0  0
  -30.3028  -11.2787   19.8169 H   0  0  0  0  0  0
  -29.7323  -11.7938   17.4202 H   0  0  0  0  0  0
  -29.6717  -13.4996   17.7871 H   0  0  0  0  0  0
  -27.8189  -11.3162   18.8036 H   0  0  0  0  0  0
  -27.3699  -12.6593   17.7858 H   0  0  0  0  0  0
  -27.7122  -14.2550   19.5886 H   0  0  0  0  0  0
  -28.6720  -11.9380   21.3383 H   0  0  0  0  0  0
  -28.4614  -13.5702   21.8825 H   0  0  0  0  0  0
  -25.2742   -9.5705   22.4753 H   0  0  0  0  0  0
  -23.9992   -7.4649   22.7469 H   0  0  0  0  0  0
  -21.0819   -8.8760   19.8953 H   0  0  0  0  0  0
  -22.3656  -10.9668   19.6159 H   0  0  0  0  0  0
  -21.2022   -7.6144   23.9719 H   0  0  0  0  0  0
  -21.1475   -6.0516   25.9076 H   0  0  0  0  0  0
  -22.0598   -2.7602   23.2850 H   0  0  0  0  0  0
  -22.4088  -11.9908   22.4784 H   0  0  0  0  0  0
  -21.1121  -13.1304   22.2585 H   0  0  0  0  0  0
  -24.6719  -15.8470   20.5177 H   0  0  0  0  0  0
  -26.2894  -15.6213   20.0825 H   0  0  0  0  0  0
  -26.7105  -32.5517   23.1152 H   0  0  0  0  0  0
  -25.0029  -33.9767   25.0454 H   0  0  0  0  0  0
  -22.6883  -31.3064   21.4142 H   0  0  0  0  0  0
  -23.3730  -35.9675   23.3303 H   0  0  0  0  0  0
  -24.3587  -36.8940   22.2054 H   0  0  0  0  0  0
  -23.7266  -37.6536   23.6655 H   0  0  0  0  0  0
  -26.0383  -31.5975   20.5930 H   0  0  0  0  0  0
  -26.8158  -30.8855   21.9792 H   0  0  0  0  0  0
  -28.0912  -29.1042   21.1597 H   0  0  0  0  0  0
  -26.0258  -25.9573   19.0348 H   0  0  0  0  0  0
  -23.9680  -27.2830   19.0543 H   0  0  0  0  0  0
  -23.7125  -30.5971   19.4052 H   0  0  0  0  0  0
  -22.7300  -29.2408   19.8714 H   0  0  0  0  0  0
  -25.1280  -36.1956   25.0823 H   0  0  0  0  0  0
  -20.9937  -28.3211   24.1445 H   0  0  0  0  0  0
  -20.5651  -26.2256   23.3600 H   0  0  0  0  0  0
  -21.6632  -26.7433   22.1212 H   0  0  0  0  0  0
  -19.6899  -25.6297   21.1223 H   0  0  0  0  0  0
  -19.6673  -27.3203   20.6752 H   0  0  0  0  0  0
  -17.4186  -26.6666   21.4021 H   0  0  0  0  0  0
  -18.0315  -26.0055   22.9002 H   0  0  0  0  0  0
  -19.7919  -30.7243   24.2293 H   0  0  0  0  0  0
  -17.5001  -31.6255   24.5163 H   0  0  0  0  0  0
  -15.5340  -30.2984   23.7629 H   0  0  0  0  0  0
  -15.8661  -28.0816   22.7051 H   0  0  0  0  0  0
  -24.5895  -30.7062   25.7822 H   0  0  0  0  0  0
  -24.8963  -32.2855   26.4965 H   0  0  0  0  0  0
  -25.8106  -30.8831   27.0218 H   0  0  0  0  0  0
  -26.2822  -29.6806   24.1147 H   0  0  0  0  0  0
  -27.4074  -29.7255   25.4523 H   0  0  0  0  0  0
  -27.8649  -30.4357   23.9216 H   0  0  0  0  0  0
  -27.2658  -33.3586   26.2100 H   0  0  0  0  0  0
  -28.3828  -32.6903   25.0295 H   0  0  0  0  0  0
  -28.0740  -31.8413   26.5363 H   0  0  0  0  0  0
  -28.2585  -38.0111   24.7500 H   0  0  0  0  0  0
  -28.1071  -36.2643   24.6269 H   0  0  0  0  0  0
  -27.2296  -37.1460   25.8858 H   0  0  0  0  0  0
  -20.9289  -29.8757   21.6981 H   0  0  0  0  0  0
  -26.0166  -38.2858   24.1405 H   0  0  0  0  0  0
  -28.2772  -17.2688   22.0447 H   0  0  0  0  0  0
  -31.9697  -16.9414   19.7848 H   0  0  0  0  0  0
  -27.8011  -19.7520   22.7740 H   0  0  0  0  0  0
  -27.1390  -19.8117   21.1567 H   0  0  0  0  0  0
  -29.1080  -21.7558   22.4301 H   0  0  0  0  0  0
  -27.5339  -22.1083   21.7612 H   0  0  0  0  0  0
  -28.4028  -21.4805   19.4803 H   0  0  0  0  0  0
  -29.9588  -23.3231   19.0673 H   0  0  0  0  0  0
  -30.1996  -23.5922   20.7693 H   0  0  0  0  0  0
  -27.9726  -24.4719   21.0559 H   0  0  0  0  0  0
  -27.4136  -23.8078   19.5469 H   0  0  0  0  0  0
  -28.0928  -25.6536   18.3399 H   0  0  0  0  0  0
  -29.6705  -25.5899   19.0233 H   0  0  0  0  0  0
  -31.0018  -21.2251   19.4645 H   0  0  0  0  0  0
  -29.1696  -15.1246   21.6364 H   0  0  0  0  0  0
  1 25  1  0  0  0
  1 30  2  0  0  0
  1 84  1  0  0  0
  2  3  1  0  0  0
  2 25  1  0  0  0
  2 85  1  0  0  0
  2 86  1  0  0  0
  3  4  1  0  0  0
  3 87  1  0  0  0
  3 88  1  0  0  0
  4  5  1  0  0  0
  4 89  1  0  0  0
  4 90  1  0  0  0
  5  6  1  0  0  0
  5 26  1  0  0  0
  5 91  1  0  0  0
  6 25  1  0  0  0
  6 92  1  0  0  0
  6 93  1  0  0  0
  7  8  2  0  0  0
  7 26  1  0  0  0
  7 29  1  0  0  0
  8  9  1  0  0  0
  8 22  1  0  0  0
  9 10  1  0  0  0
  9 27  2  0  0  0
 10 11  2  0  0  0
 10 15  1  0  0  0
 11 12  1  0  0  0
 11 94  1  0  0  0
 12 13  2  0  0  0
 12 95  1  0  0  0
 13 14  1  0  0  0
 13 31  1  0  0  0
 14 15  2  0  0  0
 14 96  1  0  0  0
 15 97  1  0  0  0
 16 17  2  0  0  0
 16 21  1  0  0  0
 16 31  1  0  0  0
 17 18  1  0  0  0
 17 98  1  0  0  0
 18 19  2  0  0  0
 18 99  1  0  0  0
 19 20  1  0  0  0
 19 24  1  0  0  0
 20 21  2  0  0  0
 20100  1  0  0  0
 21 23  1  0  0  0
 22 28  1  0  0  0
 22 32  2  0  0  0
 26 27  1  0  0  0
 28101  1  0  0  0
 28102  1  0  0  0
 29103  1  0  0  0
 29104  1  0  0  0
 33 34  1  0  0  0
 33 66  1  0  0  0
 33 70  2  0  0  0
 34 36  1  0  0  0
 34 59  1  0  0  0
 34105  1  0  0  0
 35 44  2  0  0  0
 35 45  1  0  0  0
 35 68  1  0  0  0
 36 56  1  0  0  0
 36106  1  0  0  0
 37 39  1  0  0  0
 37 47  1  0  0  0
 37 66  1  0  0  0
 37107  1  0  0  0
 38 43  2  0  0  0
 38 46  1  0  0  0
 38 47  1  0  0  0
 39 64  1  0  0  0
 39 67  2  0  0  0
 40 52  1  0  0  0
 40 53  2  0  0  0
 40 58  1  0  0  0
 41108  1  0  0  0
 41109  1  0  0  0
 41110  1  0  0  0
 41 48  1  0  0  0
 42 43  1  0  0  0
 42 66  1  0  0  0
 42111  1  0  0  0
 42112  1  0  0  0
 43 44  1  0  0  0
 44113  1  0  0  0
 45 46  2  0  0  0
 45114  1  0  0  0
 46115  1  0  0  0
 47116  1  0  0  0
 47117  1  0  0  0
 48 56  1  0  0  0
 48 65  1  0  0  0
 48118  1  0  0  0
 49 50  1  0  0  0
 49 53  1  0  0  0
 49 64  1  0  0  0
 49119  1  0  0  0
 50 51  1  0  0  0
 50120  1  0  0  0
 50121  1  0  0  0
 51 52  1  0  0  0
 51122  1  0  0  0
 51123  1  0  0  0
 52124  1  0  0  0
 52125  1  0  0  0
 53 54  1  0  0  0
 54 55  2  0  0  0
 54126  1  0  0  0
 55 57  1  0  0  0
 55127  1  0  0  0
 56 69  2  0  0  0
 57 58  2  0  0  0
 57128  1  0  0  0
 58129  1  0  0  0
 59 60  1  0  0  0
 59 61  1  0  0  0
 59 62  1  0  0  0
 60130  1  0  0  0
 60131  1  0  0  0
 60132  1  0  0  0
 61133  1  0  0  0
 61134  1  0  0  0
 61135  1  0  0  0
 62136  1  0  0  0
 62137  1  0  0  0
 62138  1  0  0  0
 63 65  1  0  0  0
 63139  1  0  0  0
 63140  1  0  0  0
 63141  1  0  0  0
 64142  1  0  0  0
 65143  1  0  0  0
 68 81  1  0  0  0
 71 73  2  0  0  0
 71 74  1  0  0  0
 71144  1  0  0  0
 72 74  2  0  0  0
 72 82  1  0  0  0
 72145  1  0  0  0
 73 75  1  0  0  0
 73 76  1  0  0  0
 74 84  1  0  0  0
 75 82  2  0  0  0
 75 83  1  0  0  0
 76 77  1  0  0  0
 76146  1  0  0  0
 76147  1  0  0  0
 77 78  1  0  0  0
 77148  1  0  0  0
 77149  1  0  0  0
 78 79  1  0  0  0
 78 83  1  0  0  0
 78150  1  0  0  0
 79 80  1  0  0  0
 79151  1  0  0  0
 79152  1  0  0  0
 80 81  1  0  0  0
 80153  1  0  0  0
 80154  1  0  0  0
 81155  1  0  0  0
 81156  1  0  0  0
 83157  1  0  0  0
 84158  1  0  0  0
M  ISO  4   1 100  68 101  81 101  84 100
M  END
> <chiral flag>
0

> <version>
0

> <s_m_source_file>
/data/baiqing/PycharmProjects/Reinvent-master-3.2/result/LINK_invent/BTK/process_docking_weight1_custom_product_contain_oxygen_bond_distance_aromatic_linkinvent_7_9_3/rearranged_h_0165.sdf

> <i_m_source_file_index>
47

> <r_mmod_Potential_Energy-OPLS-2005>
-331.554321289062

> <r_mmod_Stretch_Energy-OPLS-2005>
35.6365814208984

> <r_mmod_Bend_Energy-OPLS-2005>
113.275001525879

> <r_mmod_Torsional_Energy-OPLS-2005>
220.838836669922

> <r_mmod_Improper_Torsional_Energy-OPLS-2005>
4.96291542053223

> <r_mmod_Van_der_Waal_Energy-OPLS-2005>
169.926666259766

> <r_mmod_Electrostatic_Energy-OPLS-2005>
-653.2705078125

> <r_mmod_Solvation_Energy-OPLS-2005>
-234.216552734375

> <b_mmod_Minimization_Converged-OPLS-2005>
0

> <r_mmod_RMS_Derivative-OPLS-2005>
1.39282178878784

$$$$
48
                    3D
 Structure written by MMmdl.
159167  0  0  1  0            999 V2000
  -30.6563  -14.4992   20.5631 C   0  0  0  0  0  0
  -30.4305  -12.3238   19.4119 C   0  0  0  0  0  0
  -29.4923  -12.5007   18.1997 C   0  0  0  0  0  0
  -28.0146  -12.3567   18.6174 C   0  0  0  0  0  0
  -27.6580  -13.1995   19.8701 C   0  0  2  0  0  0
  -28.7003  -12.9750   20.9879 C   0  0  0  0  0  0
  -25.2577  -13.8148   20.5646 C   0  0  0  0  0  0
  -24.1833  -13.0437   20.9174 C   0  0  0  0  0  0
  -24.6377  -11.6905   20.8738 C   0  0  0  0  0  0
  -23.9046  -10.4290   21.0403 C   0  0  0  0  0  0
  -24.3596   -9.4209   21.9185 C   0  0  0  0  0  0
  -23.6269   -8.2243   22.0761 C   0  0  0  0  0  0
  -22.4254   -8.0273   21.3542 C   0  0  0  0  0  0
  -21.9895   -9.0248   20.4645 C   0  0  0  0  0  0
  -22.7220  -10.2127   20.3053 C   0  0  0  0  0  0
  -21.6847   -6.0730   22.5267 C   0  0  0  0  0  0
  -21.4007   -6.5640   23.8200 C   0  0  0  0  0  0
  -21.3657   -5.6793   24.9165 C   0  0  0  0  0  0
  -21.6045   -4.3050   24.7220 C   0  0  0  0  0  0
  -21.8819   -3.8143   23.4340 C   0  0  0  0  0  0
  -21.9189   -4.6959   22.3393 C   0  0  0  0  0  0
  -22.7857  -13.5244   21.1834 C   0  0  0  0  0  0
  -22.1658   -4.2152   21.0968 F   0  0  0  0  0  0
  -21.5638   -3.4528   25.7740 F   0  0  0  0  0  0
  -30.0236  -13.3025   20.4307 N   0  0  0  0  0  0
  -26.2998  -12.9296   20.3333 N   0  0  0  0  0  0
  -25.9292  -11.6460   20.5756 N   0  0  0  0  0  0
  -22.0493  -12.8232   22.0387 N   0  0  0  0  0  0
  -25.4316  -15.1859   20.4010 N   0  0  0  0  0  0
  -31.7989  -14.7050   20.1445 O   0  0  0  0  0  0
  -21.6627   -6.8863   21.4227 O   0  0  0  0  0  0
  -22.3547  -14.5552   20.6693 O   0  0  0  0  0  0
  -24.6187  -31.8641   23.2073 C   0  0  0  0  0  0
  -25.9082  -32.4793   23.8380 C   0  0  1  0  0  0
  -27.2342  -27.4026   20.0915 C   0  0  0  0  0  0
  -25.5932  -33.8579   24.2329 N   0  0  0  0  0  0
  -23.4063  -30.4881   21.5473 C   0  0  2  0  0  0
  -24.8524  -28.9469   20.1141 C   0  0  0  0  0  0
  -22.7437  -29.4642   22.4971 C   0  0  0  0  0  0
  -18.0264  -28.1361   22.8483 C   0  0  0  0  0  0
  -24.1481  -36.7296   23.2630 C   0  0  0  0  0  0
  -25.9381  -30.8195   21.3619 C   0  0  0  0  0  0
  -26.0141  -29.4499   20.7118 C   0  0  0  0  0  0
  -27.2042  -28.6833   20.6997 C   0  0  0  0  0  0
  -26.0461  -26.9149   19.5018 C   0  0  0  0  0  0
  -24.8645  -27.6795   19.5077 C   0  0  0  0  0  0
  -23.6150  -29.8166   20.1637 C   0  0  0  0  0  0
  -25.4099  -36.3090   24.0345 C   0  0  1  0  0  0
  -20.5865  -28.3657   23.1298 C   0  0  2  0  0  0
  -20.6752  -26.9393   22.5396 C   0  0  0  0  0  0
  -19.5737  -26.6378   21.5174 C   0  0  0  0  0  0
  -18.1901  -26.7911   22.1599 C   0  0  0  0  0  0
  -19.1520  -28.8824   23.2878 C   0  0  0  0  0  0
  -18.9457  -30.1426   23.8906 C   0  0  0  0  0  0
  -17.6465  -30.6575   24.0556 C   0  0  0  0  0  0
  -25.9044  -34.9455   23.5135 C   0  0  0  0  0  0
  -16.5349  -29.9081   23.6317 C   0  0  0  0  0  0
  -16.7262  -28.6483   23.0368 C   0  0  0  0  0  0
  -26.4501  -31.6577   25.0717 C   0  0  0  0  0  0
  -25.3763  -31.3666   26.1473 C   0  0  0  0  0  0
  -27.0349  -30.3030   24.6086 C   0  0  0  0  0  0
  -27.6086  -32.4291   25.7486 C   0  0  0  0  0  0
  -27.5584  -37.1787   24.8455 C   0  0  0  0  0  0
  -21.4160  -29.3035   22.3733 N   0  0  0  0  0  0
  -26.4273  -37.3795   23.9437 N   0  0  0  0  0  0
  -24.6725  -31.0736   22.0970 N   0  0  0  0  0  0
  -23.4212  -28.8161   23.2992 O   0  0  0  0  0  0
  -28.4165  -26.6792   20.1107 O   0  0  0  0  0  0
  -26.5583  -34.8919   22.4686 O   0  0  0  0  0  0
  -23.5381  -32.1410   23.7468 O   0  0  0  0  0  0
  -29.4408  -18.7683   18.1444 C   0  0  0  0  0  0
  -29.7781  -17.7572   19.0586 C   0  0  0  0  0  0
  -29.0477  -20.0385   18.6003 C   0  0  0  0  0  0
  -29.2806  -19.2806   20.9166 C   0  0  0  0  0  0
  -29.7203  -17.9914   20.4483 C   0  0  0  0  0  0
  -28.9514  -20.3256   19.9822 C   0  0  0  0  0  0
  -29.1170  -19.5010   22.3829 C   0  0  0  0  0  0
  -28.3752  -24.1636   20.1960 C   0  0  0  0  0  0
  -30.0431  -20.5197   23.0359 C   0  0  0  0  0  0
  -30.2543  -16.8752   21.3846 C   0  0  0  0  0  0
  -28.6750  -22.8068   19.5080 C   0  0  0  0  0  0
  -28.5506  -25.4537   19.3499 C   0  0  0  0  0  0
  -28.5204  -21.6211   20.3788 N   0  0  0  0  0  0
  -29.8814  -15.4897   21.0532 N   0  0  0  0  0  0
  -28.3151  -18.8721   23.0804 O   0  0  0  0  0  0
  -28.0239  -24.2014   21.3818 O   0  0  0  0  0  0
  -31.4709  -12.4502   19.1061 H   0  0  0  0  0  0
  -30.3561  -11.3123   19.8130 H   0  0  0  0  0  0
  -29.7344  -11.7660   17.4299 H   0  0  0  0  0  0
  -29.6530  -13.4821   17.7482 H   0  0  0  0  0  0
  -27.8295  -11.3012   18.8179 H   0  0  0  0  0  0
  -27.3613  -12.6231   17.7858 H   0  0  0  0  0  0
  -27.7021  -14.2474   19.5707 H   0  0  0  0  0  0
  -28.6868  -11.9357   21.3207 H   0  0  0  0  0  0
  -28.4576  -13.5629   21.8747 H   0  0  0  0  0  0
  -25.2734   -9.5695   22.4767 H   0  0  0  0  0  0
  -23.9982   -7.4641   22.7490 H   0  0  0  0  0  0
  -21.0833   -8.8753   19.8947 H   0  0  0  0  0  0
  -22.3672  -10.9663   19.6168 H   0  0  0  0  0  0
  -21.1991   -7.6146   23.9705 H   0  0  0  0  0  0
  -21.1484   -6.0524   25.9074 H   0  0  0  0  0  0
  -22.0602   -2.7610   23.2835 H   0  0  0  0  0  0
  -22.4085  -11.9876   22.4751 H   0  0  0  0  0  0
  -21.1121  -13.1273   22.2612 H   0  0  0  0  0  0
  -24.6596  -15.8377   20.4907 H   0  0  0  0  0  0
  -26.2778  -15.6214   20.0553 H   0  0  0  0  0  0
  -26.7151  -32.5521   23.1146 H   0  0  0  0  0  0
  -25.0123  -33.9695   25.0513 H   0  0  0  0  0  0
  -22.6965  -31.3053   21.4049 H   0  0  0  0  0  0
  -23.3745  -35.9622   23.3250 H   0  0  0  0  0  0
  -24.3564  -36.8958   22.2047 H   0  0  0  0  0  0
  -23.7225  -37.6484   23.6678 H   0  0  0  0  0  0
  -26.0477  -31.5796   20.5867 H   0  0  0  0  0  0
  -26.8283  -30.8825   21.9761 H   0  0  0  0  0  0
  -28.1031  -29.0643   21.1654 H   0  0  0  0  0  0
  -25.9961  -25.9369   19.0501 H   0  0  0  0  0  0
  -23.9692  -27.2829   19.0485 H   0  0  0  0  0  0
  -23.7244  -30.5877   19.4000 H   0  0  0  0  0  0
  -22.7411  -29.2347   19.8678 H   0  0  0  0  0  0
  -25.1255  -36.1918   25.0831 H   0  0  0  0  0  0
  -20.9955  -28.3229   24.1431 H   0  0  0  0  0  0
  -20.5615  -26.2274   23.3582 H   0  0  0  0  0  0
  -21.6624  -26.7402   22.1208 H   0  0  0  0  0  0
  -19.6889  -25.6287   21.1203 H   0  0  0  0  0  0
  -19.6667  -27.3183   20.6699 H   0  0  0  0  0  0
  -17.4165  -26.6656   21.3991 H   0  0  0  0  0  0
  -18.0310  -26.0025   22.8976 H   0  0  0  0  0  0
  -19.7942  -30.7210   24.2314 H   0  0  0  0  0  0
  -17.5024  -31.6258   24.5147 H   0  0  0  0  0  0
  -15.5358  -30.3001   23.7622 H   0  0  0  0  0  0
  -15.8650  -28.0795   22.7135 H   0  0  0  0  0  0
  -24.5975  -30.6965   25.7813 H   0  0  0  0  0  0
  -24.8895  -32.2796   26.4913 H   0  0  0  0  0  0
  -25.8118  -30.8862   27.0248 H   0  0  0  0  0  0
  -26.2887  -29.6749   24.1206 H   0  0  0  0  0  0
  -27.4215  -29.7302   25.4529 H   0  0  0  0  0  0
  -27.8680  -30.4358   23.9176 H   0  0  0  0  0  0
  -27.2755  -33.3645   26.2001 H   0  0  0  0  0  0
  -28.3949  -32.6751   25.0331 H   0  0  0  0  0  0
  -28.0696  -31.8430   26.5450 H   0  0  0  0  0  0
  -28.2549  -38.0134   24.7595 H   0  0  0  0  0  0
  -28.1142  -36.2678   24.6175 H   0  0  0  0  0  0
  -27.2313  -37.1314   25.8853 H   0  0  0  0  0  0
  -20.9340  -29.8823   21.7000 H   0  0  0  0  0  0
  -26.0149  -38.2863   24.1476 H   0  0  0  0  0  0
  -29.4956  -18.5742   17.0825 H   0  0  0  0  0  0
  -30.1138  -16.8011   18.6799 H   0  0  0  0  0  0
  -28.8031  -20.7823   17.8555 H   0  0  0  0  0  0
  -31.0797  -20.2109   22.9120 H   0  0  0  0  0  0
  -29.8300  -20.5943   24.1023 H   0  0  0  0  0  0
  -29.9193  -21.5049   22.5900 H   0  0  0  0  0  0
  -29.9418  -17.0141   22.4183 H   0  0  0  0  0  0
  -31.3425  -16.9655   21.4073 H   0  0  0  0  0  0
  -29.6966  -22.8425   19.1294 H   0  0  0  0  0  0
  -28.0135  -22.7244   18.6450 H   0  0  0  0  0  0
  -27.9067  -25.4286   18.4725 H   0  0  0  0  0  0
  -29.5659  -25.4378   18.9572 H   0  0  0  0  0  0
  -28.3839  -21.8498   21.3585 H   0  0  0  0  0  0
  -28.9444  -15.2144   21.3056 H   0  0  0  0  0  0
  1 25  1  0  0  0
  1 30  2  0  0  0
  1 84  1  0  0  0
  2  3  1  0  0  0
  2 25  1  0  0  0
  2 87  1  0  0  0
  2 88  1  0  0  0
  3  4  1  0  0  0
  3 89  1  0  0  0
  3 90  1  0  0  0
  4  5  1  0  0  0
  4 91  1  0  0  0
  4 92  1  0  0  0
  5  6  1  0  0  0
  5 26  1  0  0  0
  5 93  1  0  0  0
  6 25  1  0  0  0
  6 94  1  0  0  0
  6 95  1  0  0  0
  7  8  2  0  0  0
  7 26  1  0  0  0
  7 29  1  0  0  0
  8  9  1  0  0  0
  8 22  1  0  0  0
  9 10  1  0  0  0
  9 27  2  0  0  0
 10 11  2  0  0  0
 10 15  1  0  0  0
 11 12  1  0  0  0
 11 96  1  0  0  0
 12 13  2  0  0  0
 12 97  1  0  0  0
 13 14  1  0  0  0
 13 31  1  0  0  0
 14 15  2  0  0  0
 14 98  1  0  0  0
 15 99  1  0  0  0
 16 17  2  0  0  0
 16 21  1  0  0  0
 16 31  1  0  0  0
 17 18  1  0  0  0
 17100  1  0  0  0
 18 19  2  0  0  0
 18101  1  0  0  0
 19 20  1  0  0  0
 19 24  1  0  0  0
 20 21  2  0  0  0
 20102  1  0  0  0
 21 23  1  0  0  0
 22 28  1  0  0  0
 22 32  2  0  0  0
 26 27  1  0  0  0
 28103  1  0  0  0
 28104  1  0  0  0
 29105  1  0  0  0
 29106  1  0  0  0
 33 34  1  0  0  0
 33 66  1  0  0  0
 33 70  2  0  0  0
 34 36  1  0  0  0
 34 59  1  0  0  0
 34107  1  0  0  0
 35 44  2  0  0  0
 35 45  1  0  0  0
 35 68  1  0  0  0
 36 56  1  0  0  0
 36108  1  0  0  0
 37 39  1  0  0  0
 37 47  1  0  0  0
 37 66  1  0  0  0
 37109  1  0  0  0
 38 43  2  0  0  0
 38 46  1  0  0  0
 38 47  1  0  0  0
 39 64  1  0  0  0
 39 67  2  0  0  0
 40 52  1  0  0  0
 40 53  2  0  0  0
 40 58  1  0  0  0
 41110  1  0  0  0
 41111  1  0  0  0
 41112  1  0  0  0
 41 48  1  0  0  0
 42 43  1  0  0  0
 42 66  1  0  0  0
 42113  1  0  0  0
 42114  1  0  0  0
 43 44  1  0  0  0
 44115  1  0  0  0
 45 46  2  0  0  0
 45116  1  0  0  0
 46117  1  0  0  0
 47118  1  0  0  0
 47119  1  0  0  0
 48 56  1  0  0  0
 48 65  1  0  0  0
 48120  1  0  0  0
 49 50  1  0  0  0
 49 53  1  0  0  0
 49 64  1  0  0  0
 49121  1  0  0  0
 50 51  1  0  0  0
 50122  1  0  0  0
 50123  1  0  0  0
 51 52  1  0  0  0
 51124  1  0  0  0
 51125  1  0  0  0
 52126  1  0  0  0
 52127  1  0  0  0
 53 54  1  0  0  0
 54 55  2  0  0  0
 54128  1  0  0  0
 55 57  1  0  0  0
 55129  1  0  0  0
 56 69  2  0  0  0
 57 58  2  0  0  0
 57130  1  0  0  0
 58131  1  0  0  0
 59 60  1  0  0  0
 59 61  1  0  0  0
 59 62  1  0  0  0
 60132  1  0  0  0
 60133  1  0  0  0
 60134  1  0  0  0
 61135  1  0  0  0
 61136  1  0  0  0
 61137  1  0  0  0
 62138  1  0  0  0
 62139  1  0  0  0
 62140  1  0  0  0
 63 65  1  0  0  0
 63141  1  0  0  0
 63142  1  0  0  0
 63143  1  0  0  0
 64144  1  0  0  0
 65145  1  0  0  0
 68 82  1  0  0  0
 71 72  2  0  0  0
 71 73  1  0  0  0
 71146  1  0  0  0
 72 75  1  0  0  0
 72147  1  0  0  0
 73 76  2  0  0  0
 73148  1  0  0  0
 74 75  2  0  0  0
 74 76  1  0  0  0
 74 77  1  0  0  0
 75 80  1  0  0  0
 76 83  1  0  0  0
 77 79  1  0  0  0
 77 85  2  0  0  0
 78 81  1  0  0  0
 78 82  1  0  0  0
 78 86  2  0  0  0
 79149  1  0  0  0
 79150  1  0  0  0
 79151  1  0  0  0
 80 84  1  0  0  0
 80152  1  0  0  0
 80153  1  0  0  0
 81 83  1  0  0  0
 81154  1  0  0  0
 81155  1  0  0  0
 82156  1  0  0  0
 82157  1  0  0  0
 83158  1  0  0  0
 84159  1  0  0  0
M  ISO  4   1 100  68 101  82 101  84 100
M  END
> <chiral flag>
0

> <version>
0

> <s_m_source_file>
/data/baiqing/PycharmProjects/Reinvent-master-3.2/result/LINK_invent/BTK/process_docking_weight1_custom_product_contain_oxygen_bond_distance_aromatic_linkinvent_7_9_3/rearranged_h_0165.sdf

> <i_m_source_file_index>
48

> <r_mmod_Potential_Energy-OPLS-2005>
2.09131836891174

> <r_mmod_Stretch_Energy-OPLS-2005>
50.0777893066406

> <r_mmod_Bend_Energy-OPLS-2005>
117.915016174316

> <r_mmod_Torsional_Energy-OPLS-2005>
228.883972167969

> <r_mmod_Improper_Torsional_Energy-OPLS-2005>
5.11156415939331

> <r_mmod_Van_der_Waal_Energy-OPLS-2005>
156.634719848633

> <r_mmod_Electrostatic_Energy-OPLS-2005>
-330.278472900391

> <r_mmod_Solvation_Energy-OPLS-2005>
-243.450866699219

> <b_mmod_Minimization_Converged-OPLS-2005>
0

> <r_mmod_RMS_Derivative-OPLS-2005>
2.67544746398926

$$$$
49
                    3D
 Structure written by MMmdl.
154162  0  0  1  0            999 V2000
  -30.6792  -14.4844   20.5725 C   0  0  0  0  0  0
  -30.4296  -12.3113   19.4222 C   0  0  0  0  0  0
  -29.4971  -12.5050   18.2072 C   0  0  0  0  0  0
  -28.0178  -12.3621   18.6186 C   0  0  0  0  0  0
  -27.6623  -13.2008   19.8750 C   0  0  2  0  0  0
  -28.7035  -12.9717   20.9947 C   0  0  0  0  0  0
  -25.2599  -13.8144   20.5669 C   0  0  0  0  0  0
  -24.1846  -13.0434   20.9184 C   0  0  0  0  0  0
  -24.6387  -11.6897   20.8736 C   0  0  0  0  0  0
  -23.9048  -10.4289   21.0407 C   0  0  0  0  0  0
  -24.3605   -9.4206   21.9184 C   0  0  0  0  0  0
  -23.6285   -8.2239   22.0753 C   0  0  0  0  0  0
  -22.4268   -8.0276   21.3542 C   0  0  0  0  0  0
  -21.9899   -9.0249   20.4646 C   0  0  0  0  0  0
  -22.7222  -10.2131   20.3056 C   0  0  0  0  0  0
  -21.6851   -6.0732   22.5279 C   0  0  0  0  0  0
  -21.4012   -6.5637   23.8212 C   0  0  0  0  0  0
  -21.3659   -5.6791   24.9175 C   0  0  0  0  0  0
  -21.6044   -4.3054   24.7226 C   0  0  0  0  0  0
  -21.8820   -3.8144   23.4348 C   0  0  0  0  0  0
  -21.9193   -4.6960   22.3403 C   0  0  0  0  0  0
  -22.7872  -13.5244   21.1846 C   0  0  0  0  0  0
  -22.1662   -4.2146   21.0981 F   0  0  0  0  0  0
  -21.5630   -3.4537   25.7738 F   0  0  0  0  0  0
  -30.0353  -13.2896   20.4482 N   0  0  0  0  0  0
  -26.3023  -12.9299   20.3350 N   0  0  0  0  0  0
  -25.9310  -11.6468   20.5758 N   0  0  0  0  0  0
  -22.0506  -12.8240   22.0400 N   0  0  0  0  0  0
  -25.4333  -15.1858   20.4045 N   0  0  0  0  0  0
  -31.8123  -14.6711   20.1141 O   0  0  0  0  0  0
  -21.6636   -6.8871   21.4239 O   0  0  0  0  0  0
  -22.3564  -14.5553   20.6694 O   0  0  0  0  0  0
  -24.6134  -31.8681   23.2097 C   0  0  0  0  0  0
  -25.9029  -32.4826   23.8396 C   0  0  1  0  0  0
  -27.2374  -27.4384   20.1028 C   0  0  0  0  0  0
  -25.5886  -33.8624   24.2329 N   0  0  0  0  0  0
  -23.4028  -30.4895   21.5495 C   0  0  2  0  0  0
  -24.8525  -28.9513   20.1188 C   0  0  0  0  0  0
  -22.7408  -29.4655   22.4990 C   0  0  0  0  0  0
  -18.0272  -28.1379   22.8496 C   0  0  0  0  0  0
  -24.1486  -36.7318   23.2639 C   0  0  0  0  0  0
  -25.9304  -30.8335   21.3635 C   0  0  0  0  0  0
  -26.0105  -29.4652   20.7177 C   0  0  0  0  0  0
  -27.2086  -28.7143   20.7107 C   0  0  0  0  0  0
  -26.0683  -26.9353   19.4998 C   0  0  0  0  0  0
  -24.8750  -27.6839   19.5088 C   0  0  0  0  0  0
  -23.6134  -29.8179   20.1656 C   0  0  0  0  0  0
  -25.4107  -36.3115   24.0339 C   0  0  1  0  0  0
  -20.5862  -28.3662   23.1321 C   0  0  2  0  0  0
  -20.6762  -26.9399   22.5420 C   0  0  0  0  0  0
  -19.5741  -26.6388   21.5214 C   0  0  0  0  0  0
  -18.1920  -26.7926   22.1626 C   0  0  0  0  0  0
  -19.1521  -28.8837   23.2906 C   0  0  0  0  0  0
  -18.9449  -30.1446   23.8914 C   0  0  0  0  0  0
  -17.6452  -30.6586   24.0567 C   0  0  0  0  0  0
  -25.9030  -34.9479   23.5134 C   0  0  0  0  0  0
  -16.5343  -29.9088   23.6327 C   0  0  0  0  0  0
  -16.7261  -28.6505   23.0348 C   0  0  0  0  0  0
  -26.4465  -31.6599   25.0717 C   0  0  0  0  0  0
  -25.3737  -31.3699   26.1469 C   0  0  0  0  0  0
  -27.0293  -30.3044   24.6079 C   0  0  0  0  0  0
  -27.6046  -32.4315   25.7477 C   0  0  0  0  0  0
  -27.5581  -37.1814   24.8467 C   0  0  0  0  0  0
  -21.4135  -29.3029   22.3728 N   0  0  0  0  0  0
  -26.4297  -37.3795   23.9406 N   0  0  0  0  0  0
  -24.6669  -31.0781   22.0998 N   0  0  0  0  0  0
  -23.4179  -28.8200   23.3035 O   0  0  0  0  0  0
  -28.3861  -26.6848   20.0601 O   0  0  0  0  0  0
  -26.5596  -34.8929   22.4697 O   0  0  0  0  0  0
  -23.5327  -32.1432   23.7490 O   0  0  0  0  0  0
  -28.8835  -19.0324   21.0063 C   0  0  0  0  0  0
  -28.8544  -17.6222   21.0802 C   0  0  0  0  0  0
  -30.1178  -19.7160   20.9210 C   0  0  0  0  0  0
  -30.0552  -16.8842   21.0340 C   0  0  0  0  0  0
  -31.2761  -18.8888   20.8958 C   0  0  0  0  0  0
  -30.1576  -21.2367   20.8299 C   0  0  0  0  0  0
  -28.6895  -24.3228   20.7661 C   0  0  0  0  0  0
  -29.2843  -23.3687   21.8235 C   0  0  0  0  0  0
  -28.5583  -25.8064   21.1838 C   0  0  0  0  0  0
  -31.2399  -17.5385   20.9514 N   0  0  0  0  0  0
  -32.5743  -19.3808   20.8397 N   0  0  0  0  0  0
  -29.9192  -15.4648   21.1081 N   0  0  0  0  0  0
  -29.2141  -21.9295   21.4935 N   0  0  0  0  0  0
  -31.0735  -21.8137   20.2391 O   0  0  0  0  0  0
  -28.3242  -23.9187   19.6555 O   0  0  0  0  0  0
  -31.4729  -12.4198   19.1203 H   0  0  0  0  0  0
  -30.3395  -11.2982   19.8173 H   0  0  0  0  0  0
  -29.7389  -11.7805   17.4285 H   0  0  0  0  0  0
  -29.6622  -13.4905   17.7686 H   0  0  0  0  0  0
  -27.8301  -11.3059   18.8157 H   0  0  0  0  0  0
  -27.3669  -12.6347   17.7871 H   0  0  0  0  0  0
  -27.7081  -14.2488   19.5790 H   0  0  0  0  0  0
  -28.6832  -11.9306   21.3203 H   0  0  0  0  0  0
  -28.4597  -13.5530   21.8851 H   0  0  0  0  0  0
  -25.2752   -9.5685   22.4754 H   0  0  0  0  0  0
  -24.0000   -7.4630   22.7470 H   0  0  0  0  0  0
  -21.0830   -8.8762   19.8952 H   0  0  0  0  0  0
  -22.3678  -10.9668   19.6163 H   0  0  0  0  0  0
  -21.2002   -7.6145   23.9714 H   0  0  0  0  0  0
  -21.1482   -6.0522   25.9078 H   0  0  0  0  0  0
  -22.0599   -2.7607   23.2848 H   0  0  0  0  0  0
  -22.4117  -11.9899   22.4788 H   0  0  0  0  0  0
  -21.1127  -13.1273   22.2605 H   0  0  0  0  0  0
  -24.6598  -15.8358   20.4940 H   0  0  0  0  0  0
  -26.2663  -15.6140   20.0222 H   0  0  0  0  0  0
  -26.7101  -32.5547   23.1165 H   0  0  0  0  0  0
  -25.0038  -33.9789   25.0475 H   0  0  0  0  0  0
  -22.6914  -31.3058   21.4082 H   0  0  0  0  0  0
  -23.3742  -35.9657   23.3319 H   0  0  0  0  0  0
  -24.3580  -36.8913   22.2050 H   0  0  0  0  0  0
  -23.7244  -37.6532   23.6641 H   0  0  0  0  0  0
  -26.0393  -31.5961   20.5910 H   0  0  0  0  0  0
  -26.8195  -30.8927   21.9792 H   0  0  0  0  0  0
  -28.1055  -29.1094   21.1673 H   0  0  0  0  0  0
  -26.0846  -25.9643   19.0243 H   0  0  0  0  0  0
  -23.9850  -27.2828   19.0435 H   0  0  0  0  0  0
  -23.7215  -30.5908   19.4038 H   0  0  0  0  0  0
  -22.7381  -29.2359   19.8709 H   0  0  0  0  0  0
  -25.1284  -36.1985   25.0833 H   0  0  0  0  0  0
  -20.9956  -28.3226   24.1441 H   0  0  0  0  0  0
  -20.5668  -26.2268   23.3605 H   0  0  0  0  0  0
  -21.6633  -26.7446   22.1210 H   0  0  0  0  0  0
  -19.6902  -25.6304   21.1232 H   0  0  0  0  0  0
  -19.6682  -27.3211   20.6754 H   0  0  0  0  0  0
  -17.4192  -26.6678   21.4026 H   0  0  0  0  0  0
  -18.0320  -26.0066   22.9020 H   0  0  0  0  0  0
  -19.7926  -30.7257   24.2290 H   0  0  0  0  0  0
  -17.5009  -31.6268   24.5165 H   0  0  0  0  0  0
  -15.5346  -30.2996   23.7643 H   0  0  0  0  0  0
  -15.8662  -28.0833   22.7048 H   0  0  0  0  0  0
  -24.5902  -30.7055   25.7804 H   0  0  0  0  0  0
  -24.8937  -32.2854   26.4938 H   0  0  0  0  0  0
  -25.8095  -30.8851   27.0213 H   0  0  0  0  0  0
  -26.2830  -29.6808   24.1141 H   0  0  0  0  0  0
  -27.4080  -29.7273   25.4525 H   0  0  0  0  0  0
  -27.8658  -30.4372   23.9213 H   0  0  0  0  0  0
  -27.2669  -33.3600   26.2092 H   0  0  0  0  0  0
  -28.3834  -32.6897   25.0290 H   0  0  0  0  0  0
  -28.0738  -31.8416   26.5360 H   0  0  0  0  0  0
  -28.2612  -38.0098   24.7503 H   0  0  0  0  0  0
  -28.1063  -36.2631   24.6309 H   0  0  0  0  0  0
  -27.2299  -37.1483   25.8871 H   0  0  0  0  0  0
  -20.9294  -29.8751   21.6951 H   0  0  0  0  0  0
  -26.0190  -38.2876   24.1398 H   0  0  0  0  0  0
  -27.9514  -19.5786   21.0179 H   0  0  0  0  0  0
  -27.8982  -17.1223   21.1549 H   0  0  0  0  0  0
  -28.7483  -23.5284   22.7591 H   0  0  0  0  0  0
  -30.3174  -23.6639   22.0132 H   0  0  0  0  0  0
  -29.4593  -26.1017   21.7214 H   0  0  0  0  0  0
  -27.7280  -25.8964   21.8860 H   0  0  0  0  0  0
  -32.6832  -20.3389   20.5202 H   0  0  0  0  0  0
  -33.3066  -18.7525   20.5329 H   0  0  0  0  0  0
  -29.0198  -15.1402   21.4219 H   0  0  0  0  0  0
  -28.4739  -21.4113   21.9441 H   0  0  0  0  0  0
  1 25  1  0  0  0
  1 30  2  0  0  0
  1 82  1  0  0  0
  2  3  1  0  0  0
  2 25  1  0  0  0
  2 86  1  0  0  0
  2 87  1  0  0  0
  3  4  1  0  0  0
  3 88  1  0  0  0
  3 89  1  0  0  0
  4  5  1  0  0  0
  4 90  1  0  0  0
  4 91  1  0  0  0
  5  6  1  0  0  0
  5 26  1  0  0  0
  5 92  1  0  0  0
  6 25  1  0  0  0
  6 93  1  0  0  0
  6 94  1  0  0  0
  7  8  2  0  0  0
  7 26  1  0  0  0
  7 29  1  0  0  0
  8  9  1  0  0  0
  8 22  1  0  0  0
  9 10  1  0  0  0
  9 27  2  0  0  0
 10 11  2  0  0  0
 10 15  1  0  0  0
 11 12  1  0  0  0
 11 95  1  0  0  0
 12 13  2  0  0  0
 12 96  1  0  0  0
 13 14  1  0  0  0
 13 31  1  0  0  0
 14 15  2  0  0  0
 14 97  1  0  0  0
 15 98  1  0  0  0
 16 17  2  0  0  0
 16 21  1  0  0  0
 16 31  1  0  0  0
 17 18  1  0  0  0
 17 99  1  0  0  0
 18 19  2  0  0  0
 18100  1  0  0  0
 19 20  1  0  0  0
 19 24  1  0  0  0
 20 21  2  0  0  0
 20101  1  0  0  0
 21 23  1  0  0  0
 22 28  1  0  0  0
 22 32  2  0  0  0
 26 27  1  0  0  0
 28102  1  0  0  0
 28103  1  0  0  0
 29104  1  0  0  0
 29105  1  0  0  0
 33 34  1  0  0  0
 33 66  1  0  0  0
 33 70  2  0  0  0
 34 36  1  0  0  0
 34 59  1  0  0  0
 34106  1  0  0  0
 35 44  2  0  0  0
 35 45  1  0  0  0
 35 68  1  0  0  0
 36 56  1  0  0  0
 36107  1  0  0  0
 37 39  1  0  0  0
 37 47  1  0  0  0
 37 66  1  0  0  0
 37108  1  0  0  0
 38 43  2  0  0  0
 38 46  1  0  0  0
 38 47  1  0  0  0
 39 64  1  0  0  0
 39 67  2  0  0  0
 40 52  1  0  0  0
 40 53  2  0  0  0
 40 58  1  0  0  0
 41109  1  0  0  0
 41110  1  0  0  0
 41111  1  0  0  0
 41 48  1  0  0  0
 42 43  1  0  0  0
 42 66  1  0  0  0
 42112  1  0  0  0
 42113  1  0  0  0
 43 44  1  0  0  0
 44114  1  0  0  0
 45 46  2  0  0  0
 45115  1  0  0  0
 46116  1  0  0  0
 47117  1  0  0  0
 47118  1  0  0  0
 48 56  1  0  0  0
 48 65  1  0  0  0
 48119  1  0  0  0
 49 50  1  0  0  0
 49 53  1  0  0  0
 49 64  1  0  0  0
 49120  1  0  0  0
 50 51  1  0  0  0
 50121  1  0  0  0
 50122  1  0  0  0
 51 52  1  0  0  0
 51123  1  0  0  0
 51124  1  0  0  0
 52125  1  0  0  0
 52126  1  0  0  0
 53 54  1  0  0  0
 54 55  2  0  0  0
 54127  1  0  0  0
 55 57  1  0  0  0
 55128  1  0  0  0
 56 69  2  0  0  0
 57 58  2  0  0  0
 57129  1  0  0  0
 58130  1  0  0  0
 59 60  1  0  0  0
 59 61  1  0  0  0
 59 62  1  0  0  0
 60131  1  0  0  0
 60132  1  0  0  0
 60133  1  0  0  0
 61134  1  0  0  0
 61135  1  0  0  0
 61136  1  0  0  0
 62137  1  0  0  0
 62138  1  0  0  0
 62139  1  0  0  0
 63 65  1  0  0  0
 63140  1  0  0  0
 63141  1  0  0  0
 63142  1  0  0  0
 64143  1  0  0  0
 65144  1  0  0  0
 68 79  1  0  0  0
 71 72  2  0  0  0
 71 73  1  0  0  0
 71145  1  0  0  0
 72 74  1  0  0  0
 72146  1  0  0  0
 73 75  2  0  0  0
 73 76  1  0  0  0
 74 80  2  0  0  0
 74 82  1  0  0  0
 75 80  1  0  0  0
 75 81  1  0  0  0
 76 83  1  0  0  0
 76 84  2  0  0  0
 77 78  1  0  0  0
 77 79  1  0  0  0
 77 85  2  0  0  0
 78 83  1  0  0  0
 78147  1  0  0  0
 78148  1  0  0  0
 79149  1  0  0  0
 79150  1  0  0  0
 81151  1  0  0  0
 81152  1  0  0  0
 82153  1  0  0  0
 83154  1  0  0  0
M  ISO  4   1 100  68 101  79 101  82 100
M  END
> <chiral flag>
0

> <version>
0

> <s_m_source_file>
/data/baiqing/PycharmProjects/Reinvent-master-3.2/result/LINK_invent/BTK/process_docking_weight1_custom_product_contain_oxygen_bond_distance_aromatic_linkinvent_7_9_3/rearranged_h_0165.sdf

> <i_m_source_file_index>
49

> <r_mmod_Potential_Energy-OPLS-2005>
-251.557342529297

> <r_mmod_Stretch_Energy-OPLS-2005>
39.9954643249512

> <r_mmod_Bend_Energy-OPLS-2005>
107.583984375

> <r_mmod_Torsional_Energy-OPLS-2005>
245.433822631836

> <r_mmod_Improper_Torsional_Energy-OPLS-2005>
8.21402168273926

> <r_mmod_Van_der_Waal_Energy-OPLS-2005>
153.100936889648

> <r_mmod_Electrostatic_Energy-OPLS-2005>
-522.638549804688

> <r_mmod_Solvation_Energy-OPLS-2005>
-295.480041503906

> <b_mmod_Minimization_Converged-OPLS-2005>
0

> <r_mmod_RMS_Derivative-OPLS-2005>
0.315461605787277

$$$$
50
                    3D
 Structure written by MMmdl.
159167  0  0  1  0            999 V2000
  -30.8339  -14.2721   20.7465 C   0  0  0  0  0  0
  -30.4101  -12.2763   19.3711 C   0  0  0  0  0  0
  -29.4717  -12.5311   18.1813 C   0  0  0  0  0  0
  -28.0031  -12.3776   18.6106 C   0  0  0  0  0  0
  -27.6692  -13.2030   19.8795 C   0  0  2  0  0  0
  -28.7084  -12.9492   20.9946 C   0  0  0  0  0  0
  -25.2617  -13.8167   20.5679 C   0  0  0  0  0  0
  -24.1856  -13.0448   20.9173 C   0  0  0  0  0  0
  -24.6410  -11.6912   20.8745 C   0  0  0  0  0  0
  -23.9078  -10.4300   21.0413 C   0  0  0  0  0  0
  -24.3627   -9.4212   21.9189 C   0  0  0  0  0  0
  -23.6297   -8.2249   22.0760 C   0  0  0  0  0  0
  -22.4277   -8.0296   21.3551 C   0  0  0  0  0  0
  -21.9924   -9.0271   20.4646 C   0  0  0  0  0  0
  -22.7261  -10.2145   20.3053 C   0  0  0  0  0  0
  -21.6850   -6.0749   22.5286 C   0  0  0  0  0  0
  -21.4011   -6.5655   23.8220 C   0  0  0  0  0  0
  -21.3651   -5.6802   24.9180 C   0  0  0  0  0  0
  -21.6038   -4.3064   24.7225 C   0  0  0  0  0  0
  -21.8821   -3.8160   23.4346 C   0  0  0  0  0  0
  -21.9193   -4.6977   22.3406 C   0  0  0  0  0  0
  -22.7879  -13.5244   21.1845 C   0  0  0  0  0  0
  -22.1661   -4.2166   21.0981 F   0  0  0  0  0  0
  -21.5620   -3.4542   25.7734 F   0  0  0  0  0  0
  -30.0626  -13.1964   20.4609 N   0  0  0  0  0  0
  -26.3068  -12.9335   20.3401 N   0  0  0  0  0  0
  -25.9336  -11.6497   20.5784 N   0  0  0  0  0  0
  -22.0509  -12.8221   22.0384 N   0  0  0  0  0  0
  -25.4350  -15.1879   20.4067 N   0  0  0  0  0  0
  -31.7423  -14.6775   20.0153 O   0  0  0  0  0  0
  -21.6637   -6.8897   21.4250 O   0  0  0  0  0  0
  -22.3566  -14.5563   20.6716 O   0  0  0  0  0  0
  -24.6094  -31.8712   23.2136 C   0  0  0  0  0  0
  -25.9007  -32.4839   23.8415 C   0  0  1  0  0  0
  -27.2365  -27.4885   20.0787 C   0  0  0  0  0  0
  -25.5881  -33.8638   24.2350 N   0  0  0  0  0  0
  -23.3951  -30.4947   21.5533 C   0  0  2  0  0  0
  -24.8424  -28.9666   20.1139 C   0  0  0  0  0  0
  -22.7385  -29.4669   22.5016 C   0  0  0  0  0  0
  -18.0267  -28.1373   22.8493 C   0  0  0  0  0  0
  -24.1479  -36.7319   23.2640 C   0  0  0  0  0  0
  -25.9182  -30.8527   21.3576 C   0  0  0  0  0  0
  -25.9994  -29.4908   20.7052 C   0  0  0  0  0  0
  -27.2027  -28.7570   20.6881 C   0  0  0  0  0  0
  -26.0677  -26.9629   19.4894 C   0  0  0  0  0  0
  -24.8678  -27.6985   19.5057 C   0  0  0  0  0  0
  -23.6003  -29.8256   20.1674 C   0  0  0  0  0  0
  -25.4099  -36.3124   24.0348 C   0  0  1  0  0  0
  -20.5853  -28.3646   23.1345 C   0  0  2  0  0  0
  -20.6753  -26.9387   22.5437 C   0  0  0  0  0  0
  -19.5742  -26.6386   21.5216 C   0  0  0  0  0  0
  -18.1914  -26.7930   22.1609 C   0  0  0  0  0  0
  -19.1513  -28.8828   23.2917 C   0  0  0  0  0  0
  -18.9446  -30.1436   23.8920 C   0  0  0  0  0  0
  -17.6449  -30.6579   24.0570 C   0  0  0  0  0  0
  -25.9024  -34.9487   23.5144 C   0  0  0  0  0  0
  -16.5339  -29.9083   23.6327 C   0  0  0  0  0  0
  -16.7257  -28.6504   23.0339 C   0  0  0  0  0  0
  -26.4456  -31.6601   25.0722 C   0  0  0  0  0  0
  -25.3741  -31.3691   26.1482 C   0  0  0  0  0  0
  -27.0275  -30.3055   24.6048 C   0  0  0  0  0  0
  -27.6049  -32.4304   25.7469 C   0  0  0  0  0  0
  -27.5579  -37.1814   24.8461 C   0  0  0  0  0  0
  -21.4118  -29.3015   22.3753 N   0  0  0  0  0  0
  -26.4287  -37.3806   23.9412 N   0  0  0  0  0  0
  -24.6590  -31.0856   22.1010 N   0  0  0  0  0  0
  -23.4185  -28.8212   23.3039 O   0  0  0  0  0  0
  -28.3883  -26.7499   20.0846 O   0  0  0  0  0  0
  -26.5577  -34.8932   22.4699 O   0  0  0  0  0  0
  -23.5299  -32.1438   23.7564 O   0  0  0  0  0  0
  -28.9913  -18.7702   22.7936 C   0  0  0  0  0  0
  -30.8481  -19.3897   21.3496 C   0  0  0  0  0  0
  -29.5729  -17.5072   23.0255 C   0  0  0  0  0  0
  -30.8078  -17.1809   22.4070 C   0  0  0  0  0  0
  -29.6162  -19.7138   21.9569 C   0  0  0  0  0  0
  -31.4436  -18.1357   21.5792 C   0  0  0  0  0  0
  -28.3316  -25.6324   20.8694 C   0  0  0  0  0  0
  -29.1457  -24.5792   20.7064 C   0  0  0  0  0  0
  -28.9915  -23.3972   21.5815 C   0  0  0  0  0  0
  -28.8436  -16.5308   23.9362 C   0  0  0  0  0  0
  -31.4483  -15.8119   22.5974 C   0  0  0  0  0  0
  -29.6867  -22.0854   21.1999 C   0  0  0  0  0  0
  -28.9721  -20.9388   21.7583 N   0  0  0  0  0  0
  -30.6636  -14.7462   21.9832 N   0  0  0  0  0  0
  -28.2829  -23.4062   22.5970 O   0  0  0  0  0  0
  -30.0933  -24.5680   19.7573 O   0  0  0  0  0  0
  -32.6295  -17.8538   20.9870 F   0  0  0  0  0  0
  -31.4516  -12.3781   19.0587 H   0  0  0  0  0  0
  -30.3077  -11.2476   19.7199 H   0  0  0  0  0  0
  -29.6952  -11.8368   17.3705 H   0  0  0  0  0  0
  -29.6404  -13.5335   17.7842 H   0  0  0  0  0  0
  -27.8206  -11.3187   18.7979 H   0  0  0  0  0  0
  -27.3404  -12.6600   17.7921 H   0  0  0  0  0  0
  -27.7300  -14.2563   19.6050 H   0  0  0  0  0  0
  -28.6480  -11.9171   21.3432 H   0  0  0  0  0  0
  -28.4629  -13.5691   21.8571 H   0  0  0  0  0  0
  -25.2780   -9.5674   22.4756 H   0  0  0  0  0  0
  -24.0000   -7.4636   22.7479 H   0  0  0  0  0  0
  -21.0859   -8.8798   19.8946 H   0  0  0  0  0  0
  -22.3743  -10.9681   19.6145 H   0  0  0  0  0  0
  -21.2005   -7.6165   23.9729 H   0  0  0  0  0  0
  -21.1461   -6.0531   25.9082 H   0  0  0  0  0  0
  -22.0603   -2.7622   23.2841 H   0  0  0  0  0  0
  -22.4108  -11.9849   22.4723 H   0  0  0  0  0  0
  -21.1127  -13.1241   22.2594 H   0  0  0  0  0  0
  -24.6740  -15.8496   20.5154 H   0  0  0  0  0  0
  -26.2987  -15.6237   20.1075 H   0  0  0  0  0  0
  -26.7080  -32.5572   23.1187 H   0  0  0  0  0  0
  -25.0033  -33.9807   25.0496 H   0  0  0  0  0  0
  -22.6813  -31.3099   21.4168 H   0  0  0  0  0  0
  -23.3747  -35.9645   23.3305 H   0  0  0  0  0  0
  -24.3581  -36.8924   22.2054 H   0  0  0  0  0  0
  -23.7215  -37.6522   23.6643 H   0  0  0  0  0  0
  -26.0205  -31.6209   20.5895 H   0  0  0  0  0  0
  -26.8096  -30.9093   21.9702 H   0  0  0  0  0  0
  -28.0980  -29.1533   21.1463 H   0  0  0  0  0  0
  -26.0896  -25.9879   19.0233 H   0  0  0  0  0  0
  -23.9770  -27.2880   19.0502 H   0  0  0  0  0  0
  -23.7004  -30.6001   19.4058 H   0  0  0  0  0  0
  -22.7262  -29.2401   19.8762 H   0  0  0  0  0  0
  -25.1272  -36.1995   25.0843 H   0  0  0  0  0  0
  -20.9951  -28.3200   24.1466 H   0  0  0  0  0  0
  -20.5638  -26.2250   23.3616 H   0  0  0  0  0  0
  -21.6624  -26.7431   22.1234 H   0  0  0  0  0  0
  -19.6900  -25.6305   21.1224 H   0  0  0  0  0  0
  -19.6702  -27.3213   20.6762 H   0  0  0  0  0  0
  -17.4203  -26.6719   21.3984 H   0  0  0  0  0  0
  -18.0285  -26.0053   22.8977 H   0  0  0  0  0  0
  -19.7926  -30.7245   24.2295 H   0  0  0  0  0  0
  -17.5008  -31.6260   24.5169 H   0  0  0  0  0  0
  -15.5339  -30.2989   23.7645 H   0  0  0  0  0  0
  -15.8660  -28.0835   22.7029 H   0  0  0  0  0  0
  -24.5942  -30.6992   25.7841 H   0  0  0  0  0  0
  -24.8886  -32.2833   26.4914 H   0  0  0  0  0  0
  -25.8118  -30.8901   27.0249 H   0  0  0  0  0  0
  -26.2799  -29.6825   24.1124 H   0  0  0  0  0  0
  -27.4095  -29.7277   25.4474 H   0  0  0  0  0  0
  -27.8612  -30.4396   23.9150 H   0  0  0  0  0  0
  -27.2693  -33.3603   26.2072 H   0  0  0  0  0  0
  -28.3845  -32.6858   25.0279 H   0  0  0  0  0  0
  -28.0730  -31.8404   26.5358 H   0  0  0  0  0  0
  -28.2610  -38.0098   24.7501 H   0  0  0  0  0  0
  -28.1061  -36.2634   24.6286 H   0  0  0  0  0  0
  -27.2312  -37.1468   25.8869 H   0  0  0  0  0  0
  -20.9267  -29.8740   21.6987 H   0  0  0  0  0  0
  -26.0184  -38.2889   24.1412 H   0  0  0  0  0  0
  -28.0461  -19.0112   23.2611 H   0  0  0  0  0  0
  -31.3535  -20.0844   20.6961 H   0  0  0  0  0  0
  -27.5590  -25.6806   21.6288 H   0  0  0  0  0  0
  -28.0673  -17.0330   24.5150 H   0  0  0  0  0  0
  -29.5233  -16.0659   24.6496 H   0  0  0  0  0  0
  -28.3633  -15.7465   23.3514 H   0  0  0  0  0  0
  -31.5486  -15.6054   23.6626 H   0  0  0  0  0  0
  -32.4697  -15.8057   22.2126 H   0  0  0  0  0  0
  -30.7123  -22.1262   21.5688 H   0  0  0  0  0  0
  -29.7284  -22.0005   20.1133 H   0  0  0  0  0  0
  -28.2216  -21.2025   22.3950 H   0  0  0  0  0  0
  -29.9639  -14.2945   22.5513 H   0  0  0  0  0  0
  -30.0324  -25.3998   19.3044 H   0  0  0  0  0  0
  1 25  1  0  0  0
  1 30  2  0  0  0
  1 84  1  0  0  0
  2  3  1  0  0  0
  2 25  1  0  0  0
  2 88  1  0  0  0
  2 89  1  0  0  0
  3  4  1  0  0  0
  3 90  1  0  0  0
  3 91  1  0  0  0
  4  5  1  0  0  0
  4 92  1  0  0  0
  4 93  1  0  0  0
  5  6  1  0  0  0
  5 26  1  0  0  0
  5 94  1  0  0  0
  6 25  1  0  0  0
  6 95  1  0  0  0
  6 96  1  0  0  0
  7  8  2  0  0  0
  7 26  1  0  0  0
  7 29  1  0  0  0
  8  9  1  0  0  0
  8 22  1  0  0  0
  9 10  1  0  0  0
  9 27  2  0  0  0
 10 11  2  0  0  0
 10 15  1  0  0  0
 11 12  1  0  0  0
 11 97  1  0  0  0
 12 13  2  0  0  0
 12 98  1  0  0  0
 13 14  1  0  0  0
 13 31  1  0  0  0
 14 15  2  0  0  0
 14 99  1  0  0  0
 15100  1  0  0  0
 16 17  2  0  0  0
 16 21  1  0  0  0
 16 31  1  0  0  0
 17 18  1  0  0  0
 17101  1  0  0  0
 18 19  2  0  0  0
 18102  1  0  0  0
 19 20  1  0  0  0
 19 24  1  0  0  0
 20 21  2  0  0  0
 20103  1  0  0  0
 21 23  1  0  0  0
 22 28  1  0  0  0
 22 32  2  0  0  0
 26 27  1  0  0  0
 28104  1  0  0  0
 28105  1  0  0  0
 29106  1  0  0  0
 29107  1  0  0  0
 33 34  1  0  0  0
 33 66  1  0  0  0
 33 70  2  0  0  0
 34 36  1  0  0  0
 34 59  1  0  0  0
 34108  1  0  0  0
 35 44  2  0  0  0
 35 45  1  0  0  0
 35 68  1  0  0  0
 36 56  1  0  0  0
 36109  1  0  0  0
 37 39  1  0  0  0
 37 47  1  0  0  0
 37 66  1  0  0  0
 37110  1  0  0  0
 38 43  2  0  0  0
 38 46  1  0  0  0
 38 47  1  0  0  0
 39 64  1  0  0  0
 39 67  2  0  0  0
 40 52  1  0  0  0
 40 53  2  0  0  0
 40 58  1  0  0  0
 41111  1  0  0  0
 41112  1  0  0  0
 41113  1  0  0  0
 41 48  1  0  0  0
 42 43  1  0  0  0
 42 66  1  0  0  0
 42114  1  0  0  0
 42115  1  0  0  0
 43 44  1  0  0  0
 44116  1  0  0  0
 45 46  2  0  0  0
 45117  1  0  0  0
 46118  1  0  0  0
 47119  1  0  0  0
 47120  1  0  0  0
 48 56  1  0  0  0
 48 65  1  0  0  0
 48121  1  0  0  0
 49 50  1  0  0  0
 49 53  1  0  0  0
 49 64  1  0  0  0
 49122  1  0  0  0
 50 51  1  0  0  0
 50123  1  0  0  0
 50124  1  0  0  0
 51 52  1  0  0  0
 51125  1  0  0  0
 51126  1  0  0  0
 52127  1  0  0  0
 52128  1  0  0  0
 53 54  1  0  0  0
 54 55  2  0  0  0
 54129  1  0  0  0
 55 57  1  0  0  0
 55130  1  0  0  0
 56 69  2  0  0  0
 57 58  2  0  0  0
 57131  1  0  0  0
 58132  1  0  0  0
 59 60  1  0  0  0
 59 61  1  0  0  0
 59 62  1  0  0  0
 60133  1  0  0  0
 60134  1  0  0  0
 60135  1  0  0  0
 61136  1  0  0  0
 61137  1  0  0  0
 61138  1  0  0  0
 62139  1  0  0  0
 62140  1  0  0  0
 62141  1  0  0  0
 63 65  1  0  0  0
 63142  1  0  0  0
 63143  1  0  0  0
 63144  1  0  0  0
 64145  1  0  0  0
 65146  1  0  0  0
 68 77  1  0  0  0
 71 73  2  0  0  0
 71 75  1  0  0  0
 71147  1  0  0  0
 72 75  2  0  0  0
 72 76  1  0  0  0
 72148  1  0  0  0
 73 74  1  0  0  0
 73 80  1  0  0  0
 74 76  2  0  0  0
 74 81  1  0  0  0
 75 83  1  0  0  0
 76 87  1  0  0  0
 77 78  2  0  0  0
 77149  1  0  0  0
 78 79  1  0  0  0
 78 86  1  0  0  0
 79 82  1  0  0  0
 79 85  2  0  0  0
 80150  1  0  0  0
 80151  1  0  0  0
 80152  1  0  0  0
 81 84  1  0  0  0
 81153  1  0  0  0
 81154  1  0  0  0
 82 83  1  0  0  0
 82155  1  0  0  0
 82156  1  0  0  0
 83157  1  0  0  0
 84158  1  0  0  0
 86159  1  0  0  0
M  ISO  4   1 100  68 101  77 101  84 100
M  END
> <chiral flag>
0

> <version>
0

> <s_m_source_file>
/data/baiqing/PycharmProjects/Reinvent-master-3.2/result/LINK_invent/BTK/process_docking_weight1_custom_product_contain_oxygen_bond_distance_aromatic_linkinvent_7_9_3/rearranged_h_0165.sdf

> <i_m_source_file_index>
50

> <r_mmod_Potential_Energy-OPLS-2005>
-72.3804779052734

> <r_mmod_Stretch_Energy-OPLS-2005>
31.2852439880371

> <r_mmod_Bend_Energy-OPLS-2005>
90.8344039916992

> <r_mmod_Torsional_Energy-OPLS-2005>
192.092056274414

> <r_mmod_Improper_Torsional_Energy-OPLS-2005>
6.24803781509399

> <r_mmod_Van_der_Waal_Energy-OPLS-2005>
160.615127563477

> <r_mmod_Electrostatic_Energy-OPLS-2005>
-336.938598632812

> <r_mmod_Solvation_Energy-OPLS-2005>
-225.260894775391

> <b_mmod_Minimization_Converged-OPLS-2005>
0

> <r_mmod_RMS_Derivative-OPLS-2005>
0.928700268268585

$$$$
51
                    3D
 Structure written by MMmdl.
168176  0  0  1  0            999 V2000
  -30.7280  -14.5214   20.5044 C   0  0  0  0  0  0
  -30.4022  -12.3232   19.4447 C   0  0  0  0  0  0
  -29.4910  -12.4897   18.2139 C   0  0  0  0  0  0
  -28.0140  -12.3521   18.6272 C   0  0  0  0  0  0
  -27.6492  -13.2240   19.8595 C   0  0  2  0  0  0
  -28.6938  -13.0900   20.9904 C   0  0  0  0  0  0
  -25.2527  -13.8194   20.5691 C   0  0  0  0  0  0
  -24.1799  -13.0445   20.9183 C   0  0  0  0  0  0
  -24.6384  -11.6925   20.8731 C   0  0  0  0  0  0
  -23.9061  -10.4301   21.0401 C   0  0  0  0  0  0
  -24.3616   -9.4219   21.9173 C   0  0  0  0  0  0
  -23.6297   -8.2248   22.0745 C   0  0  0  0  0  0
  -22.4278   -8.0274   21.3540 C   0  0  0  0  0  0
  -21.9907   -9.0250   20.4641 C   0  0  0  0  0  0
  -22.7236  -10.2130   20.3051 C   0  0  0  0  0  0
  -21.6858   -6.0731   22.5274 C   0  0  0  0  0  0
  -21.4021   -6.5635   23.8212 C   0  0  0  0  0  0
  -21.3664   -5.6791   24.9170 C   0  0  0  0  0  0
  -21.6045   -4.3049   24.7226 C   0  0  0  0  0  0
  -21.8822   -3.8138   23.4347 C   0  0  0  0  0  0
  -21.9199   -4.6957   22.3401 C   0  0  0  0  0  0
  -22.7824  -13.5221   21.1845 C   0  0  0  0  0  0
  -22.1663   -4.2143   21.0982 F   0  0  0  0  0  0
  -21.5629   -3.4539   25.7744 F   0  0  0  0  0  0
  -30.0153  -13.3630   20.4146 N   0  0  0  0  0  0
  -26.2968  -12.9399   20.3325 N   0  0  0  0  0  0
  -25.9307  -11.6547   20.5754 N   0  0  0  0  0  0
  -22.0479  -12.8215   22.0415 N   0  0  0  0  0  0
  -25.4221  -15.1917   20.4096 N   0  0  0  0  0  0
  -31.9016  -14.5796   20.1330 O   0  0  0  0  0  0
  -21.6641   -6.8869   21.4239 O   0  0  0  0  0  0
  -22.3510  -14.5539   20.6714 O   0  0  0  0  0  0
  -24.6160  -31.8648   23.2081 C   0  0  0  0  0  0
  -25.9054  -32.4795   23.8376 C   0  0  1  0  0  0
  -27.2307  -27.4117   20.1037 C   0  0  0  0  0  0
  -25.5919  -33.8595   24.2336 N   0  0  0  0  0  0
  -23.4046  -30.4864   21.5478 C   0  0  2  0  0  0
  -24.8565  -28.9535   20.1071 C   0  0  0  0  0  0
  -22.7425  -29.4615   22.4974 C   0  0  0  0  0  0
  -18.0261  -28.1357   22.8490 C   0  0  0  0  0  0
  -24.1493  -36.7295   23.2631 C   0  0  0  0  0  0
  -25.9349  -30.8266   21.3626 C   0  0  0  0  0  0
  -26.0168  -29.4591   20.7087 C   0  0  0  0  0  0
  -27.2102  -28.6960   20.7057 C   0  0  0  0  0  0
  -26.0608  -26.9322   19.4849 C   0  0  0  0  0  0
  -24.8753  -27.6915   19.4887 C   0  0  0  0  0  0
  -23.6149  -29.8186   20.1620 C   0  0  0  0  0  0
  -25.4107  -36.3098   24.0351 C   0  0  1  0  0  0
  -20.5853  -28.3639   23.1318 C   0  0  2  0  0  0
  -20.6740  -26.9367   22.5416 C   0  0  0  0  0  0
  -19.5720  -26.6361   21.5202 C   0  0  0  0  0  0
  -18.1897  -26.7914   22.1606 C   0  0  0  0  0  0
  -19.1512  -28.8818   23.2895 C   0  0  0  0  0  0
  -18.9452  -30.1435   23.8890 C   0  0  0  0  0  0
  -17.6451  -30.6564   24.0555 C   0  0  0  0  0  0
  -25.9035  -34.9456   23.5138 C   0  0  0  0  0  0
  -16.5345  -29.9062   23.6327 C   0  0  0  0  0  0
  -16.7247  -28.6477   23.0350 C   0  0  0  0  0  0
  -26.4488  -31.6571   25.0698 C   0  0  0  0  0  0
  -25.3769  -31.3684   26.1469 C   0  0  0  0  0  0
  -27.0298  -30.3012   24.6054 C   0  0  0  0  0  0
  -27.6066  -32.4272   25.7458 C   0  0  0  0  0  0
  -27.5595  -37.1783   24.8460 C   0  0  0  0  0  0
  -21.4139  -29.3014   22.3740 N   0  0  0  0  0  0
  -26.4278  -37.3799   23.9427 N   0  0  0  0  0  0
  -24.6695  -31.0741   22.0983 N   0  0  0  0  0  0
  -23.4206  -28.8141   23.2987 O   0  0  0  0  0  0
  -28.3274  -26.5723   20.1332 O   0  0  0  0  0  0
  -26.5565  -34.8911   22.4682 O   0  0  0  0  0  0
  -23.5345  -32.1406   23.7468 O   0  0  0  0  0  0
  -29.3107  -20.5451   19.9858 C   0  0  0  0  0  0
  -29.6058  -20.2158   22.3613 C   0  0  0  0  0  0
  -29.6953  -19.1962   19.7431 C   0  0  0  0  0  0
  -30.0614  -18.3407   20.8297 C   0  0  0  0  0  0
  -29.3027  -21.0887   21.2926 C   0  0  0  0  0  0
  -29.9775  -18.8702   22.1383 C   0  0  0  0  0  0
  -28.6423  -26.0753   21.3791 C   0  0  0  0  0  0
  -28.8809  -24.7886   21.7602 C   0  0  0  0  0  0
  -28.8674  -23.5985   20.8817 C   0  0  0  0  0  0
  -30.6128  -20.5431   16.7500 C   0  0  0  0  0  0
  -32.2418  -19.3322   18.2070 C   0  0  0  0  0  0
  -31.1383  -18.1474   16.2950 C   0  0  0  0  0  0
  -29.7126  -18.7239   18.2884 C   0  0  0  0  0  0
  -30.7703  -16.9764   20.6303 C   0  0  0  0  0  0
  -30.9228  -19.1848   17.4141 C   0  0  0  0  0  0
  -29.0487  -22.4699   21.6147 N   0  0  0  0  0  0
  -30.0714  -15.6731   20.7962 N   0  0  0  0  0  0
  -28.7023  -23.6037   19.6599 O   0  0  0  0  0  0
  -29.1536  -24.5929   23.0652 O   0  0  0  0  0  0
  -30.3234  -18.1002   23.1983 F   0  0  0  0  0  0
  -31.4500  -12.3847   19.1467 H   0  0  0  0  0  0
  -30.2776  -11.3323   19.8848 H   0  0  0  0  0  0
  -29.7356  -11.7467   17.4539 H   0  0  0  0  0  0
  -29.6611  -13.4654   17.7558 H   0  0  0  0  0  0
  -27.8341  -11.2999   18.8527 H   0  0  0  0  0  0
  -27.3649  -12.5996   17.7862 H   0  0  0  0  0  0
  -27.6681  -14.2589   19.5169 H   0  0  0  0  0  0
  -28.6757  -12.0866   21.4181 H   0  0  0  0  0  0
  -28.4679  -13.7741   21.8086 H   0  0  0  0  0  0
  -25.2764   -9.5701   22.4743 H   0  0  0  0  0  0
  -24.0014   -7.4645   22.7464 H   0  0  0  0  0  0
  -21.0837   -8.8771   19.8947 H   0  0  0  0  0  0
  -22.3694  -10.9664   19.6154 H   0  0  0  0  0  0
  -21.2013   -7.6147   23.9712 H   0  0  0  0  0  0
  -21.1476   -6.0518   25.9076 H   0  0  0  0  0  0
  -22.0594   -2.7601   23.2858 H   0  0  0  0  0  0
  -22.4079  -11.9871   22.4819 H   0  0  0  0  0  0
  -21.1099  -13.1234   22.2621 H   0  0  0  0  0  0
  -24.6558  -15.8473   20.5230 H   0  0  0  0  0  0
  -26.2742  -15.6334   20.0908 H   0  0  0  0  0  0
  -26.7105  -32.5533   23.1115 H   0  0  0  0  0  0
  -25.0152  -33.9748   25.0536 H   0  0  0  0  0  0
  -22.6906  -31.3007   21.4085 H   0  0  0  0  0  0
  -23.3768  -35.9613   23.3274 H   0  0  0  0  0  0
  -24.3599  -36.8920   22.2048 H   0  0  0  0  0  0
  -23.7218  -37.6484   23.6652 H   0  0  0  0  0  0
  -26.0471  -31.5934   20.5945 H   0  0  0  0  0  0
  -26.8211  -30.8833   21.9823 H   0  0  0  0  0  0
  -28.1025  -29.0777   21.1809 H   0  0  0  0  0  0
  -26.0641  -25.9548   19.0241 H   0  0  0  0  0  0
  -23.9853  -27.2958   19.0204 H   0  0  0  0  0  0
  -23.7207  -30.5943   19.4025 H   0  0  0  0  0  0
  -22.7386  -29.2372   19.8685 H   0  0  0  0  0  0
  -25.1267  -36.1960   25.0840 H   0  0  0  0  0  0
  -20.9932  -28.3195   24.1442 H   0  0  0  0  0  0
  -20.5613  -26.2226   23.3588 H   0  0  0  0  0  0
  -21.6620  -26.7377   22.1239 H   0  0  0  0  0  0
  -19.6874  -25.6278   21.1213 H   0  0  0  0  0  0
  -19.6675  -27.3178   20.6741 H   0  0  0  0  0  0
  -17.4167  -26.6667   21.4005 H   0  0  0  0  0  0
  -18.0289  -26.0054   22.8996 H   0  0  0  0  0  0
  -19.7934  -30.7258   24.2242 H   0  0  0  0  0  0
  -17.5008  -31.6252   24.5147 H   0  0  0  0  0  0
  -15.5347  -30.2952   23.7665 H   0  0  0  0  0  0
  -15.8648  -28.0789   22.7066 H   0  0  0  0  0  0
  -24.5972  -30.6977   25.7858 H   0  0  0  0  0  0
  -24.8930  -32.2835   26.4897 H   0  0  0  0  0  0
  -25.8165  -30.8917   27.0241 H   0  0  0  0  0  0
  -26.2830  -29.6768   24.1149 H   0  0  0  0  0  0
  -27.4116  -29.7251   25.4489 H   0  0  0  0  0  0
  -27.8643  -30.4318   23.9159 H   0  0  0  0  0  0
  -27.2709  -33.3574   26.2053 H   0  0  0  0  0  0
  -28.3886  -32.6815   25.0289 H   0  0  0  0  0  0
  -28.0731  -31.8385   26.5367 H   0  0  0  0  0  0
  -28.2578  -38.0117   24.7580 H   0  0  0  0  0  0
  -28.1122  -36.2652   24.6191 H   0  0  0  0  0  0
  -27.2330  -37.1343   25.8865 H   0  0  0  0  0  0
  -20.9268  -29.8771   21.7018 H   0  0  0  0  0  0
  -26.0174  -38.2865   24.1478 H   0  0  0  0  0  0
  -29.0572  -21.1741   19.1473 H   0  0  0  0  0  0
  -29.6014  -20.5830   23.3775 H   0  0  0  0  0  0
  -28.6818  -26.8794   22.1006 H   0  0  0  0  0  0
  -31.3852  -20.8181   16.0298 H   0  0  0  0  0  0
  -30.5650  -21.3493   17.4815 H   0  0  0  0  0  0
  -29.6639  -20.5282   16.2123 H   0  0  0  0  0  0
  -33.0439  -19.6971   17.5640 H   0  0  0  0  0  0
  -32.5838  -18.3833   18.6171 H   0  0  0  0  0  0
  -32.1538  -20.0401   19.0318 H   0  0  0  0  0  0
  -31.9415  -18.4460   15.6201 H   0  0  0  0  0  0
  -30.2381  -18.0196   15.6915 H   0  0  0  0  0  0
  -31.4022  -17.1684   16.6978 H   0  0  0  0  0  0
  -28.7790  -19.0369   17.8187 H   0  0  0  0  0  0
  -29.6413  -17.6365   18.2828 H   0  0  0  0  0  0
  -31.6147  -16.9709   21.3224 H   0  0  0  0  0  0
  -31.2356  -16.9783   19.6475 H   0  0  0  0  0  0
  -29.1154  -22.7119   22.5961 H   0  0  0  0  0  0
  -29.0940  -15.6544   21.0399 H   0  0  0  0  0  0
  -29.1235  -25.4373   23.4943 H   0  0  0  0  0  0
  1 25  1  0  0  0
  1 30  2  0  0  0
  1 87  1  0  0  0
  2  3  1  0  0  0
  2 25  1  0  0  0
  2 91  1  0  0  0
  2 92  1  0  0  0
  3  4  1  0  0  0
  3 93  1  0  0  0
  3 94  1  0  0  0
  4  5  1  0  0  0
  4 95  1  0  0  0
  4 96  1  0  0  0
  5  6  1  0  0  0
  5 26  1  0  0  0
  5 97  1  0  0  0
  6 25  1  0  0  0
  6 98  1  0  0  0
  6 99  1  0  0  0
  7  8  2  0  0  0
  7 26  1  0  0  0
  7 29  1  0  0  0
  8  9  1  0  0  0
  8 22  1  0  0  0
  9 10  1  0  0  0
  9 27  2  0  0  0
 10 11  2  0  0  0
 10 15  1  0  0  0
 11 12  1  0  0  0
 11100  1  0  0  0
 12 13  2  0  0  0
 12101  1  0  0  0
 13 14  1  0  0  0
 13 31  1  0  0  0
 14 15  2  0  0  0
 14102  1  0  0  0
 15103  1  0  0  0
 16 17  2  0  0  0
 16 21  1  0  0  0
 16 31  1  0  0  0
 17 18  1  0  0  0
 17104  1  0  0  0
 18 19  2  0  0  0
 18105  1  0  0  0
 19 20  1  0  0  0
 19 24  1  0  0  0
 20 21  2  0  0  0
 20106  1  0  0  0
 21 23  1  0  0  0
 22 28  1  0  0  0
 22 32  2  0  0  0
 26 27  1  0  0  0
 28107  1  0  0  0
 28108  1  0  0  0
 29109  1  0  0  0
 29110  1  0  0  0
 33 34  1  0  0  0
 33 66  1  0  0  0
 33 70  2  0  0  0
 34 36  1  0  0  0
 34 59  1  0  0  0
 34111  1  0  0  0
 35 44  2  0  0  0
 35 45  1  0  0  0
 35 68  1  0  0  0
 36 56  1  0  0  0
 36112  1  0  0  0
 37 39  1  0  0  0
 37 47  1  0  0  0
 37 66  1  0  0  0
 37113  1  0  0  0
 38 43  2  0  0  0
 38 46  1  0  0  0
 38 47  1  0  0  0
 39 64  1  0  0  0
 39 67  2  0  0  0
 40 52  1  0  0  0
 40 53  2  0  0  0
 40 58  1  0  0  0
 41114  1  0  0  0
 41115  1  0  0  0
 41116  1  0  0  0
 41 48  1  0  0  0
 42 43  1  0  0  0
 42 66  1  0  0  0
 42117  1  0  0  0
 42118  1  0  0  0
 43 44  1  0  0  0
 44119  1  0  0  0
 45 46  2  0  0  0
 45120  1  0  0  0
 46121  1  0  0  0
 47122  1  0  0  0
 47123  1  0  0  0
 48 56  1  0  0  0
 48 65  1  0  0  0
 48124  1  0  0  0
 49 50  1  0  0  0
 49 53  1  0  0  0
 49 64  1  0  0  0
 49125  1  0  0  0
 50 51  1  0  0  0
 50126  1  0  0  0
 50127  1  0  0  0
 51 52  1  0  0  0
 51128  1  0  0  0
 51129  1  0  0  0
 52130  1  0  0  0
 52131  1  0  0  0
 53 54  1  0  0  0
 54 55  2  0  0  0
 54132  1  0  0  0
 55 57  1  0  0  0
 55133  1  0  0  0
 56 69  2  0  0  0
 57 58  2  0  0  0
 57134  1  0  0  0
 58135  1  0  0  0
 59 60  1  0  0  0
 59 61  1  0  0  0
 59 62  1  0  0  0
 60136  1  0  0  0
 60137  1  0  0  0
 60138  1  0  0  0
 61139  1  0  0  0
 61140  1  0  0  0
 61141  1  0  0  0
 62142  1  0  0  0
 62143  1  0  0  0
 62144  1  0  0  0
 63 65  1  0  0  0
 63145  1  0  0  0
 63146  1  0  0  0
 63147  1  0  0  0
 64148  1  0  0  0
 65149  1  0  0  0
 68 77  1  0  0  0
 71 73  2  0  0  0
 71 75  1  0  0  0
 71150  1  0  0  0
 72 75  2  0  0  0
 72 76  1  0  0  0
 72151  1  0  0  0
 73 74  1  0  0  0
 73 83  1  0  0  0
 74 76  2  0  0  0
 74 84  1  0  0  0
 75 86  1  0  0  0
 76 90  1  0  0  0
 77 78  2  0  0  0
 77152  1  0  0  0
 78 79  1  0  0  0
 78 89  1  0  0  0
 79 86  1  0  0  0
 79 88  2  0  0  0
 80153  1  0  0  0
 80154  1  0  0  0
 80155  1  0  0  0
 80 85  1  0  0  0
 81 85  1  0  0  0
 81156  1  0  0  0
 81157  1  0  0  0
 81158  1  0  0  0
 82 85  1  0  0  0
 82159  1  0  0  0
 82160  1  0  0  0
 82161  1  0  0  0
 83 85  1  0  0  0
 83162  1  0  0  0
 83163  1  0  0  0
 84 87  1  0  0  0
 84164  1  0  0  0
 84165  1  0  0  0
 86166  1  0  0  0
 87167  1  0  0  0
 89168  1  0  0  0
M  ISO  4   1 100  68 101  77 101  87 100
M  END
> <chiral flag>
0

> <version>
0

> <s_m_source_file>
/data/baiqing/PycharmProjects/Reinvent-master-3.2/result/LINK_invent/BTK/process_docking_weight1_custom_product_contain_oxygen_bond_distance_aromatic_linkinvent_7_9_3/rearranged_h_0165.sdf

> <i_m_source_file_index>
51

> <r_mmod_Potential_Energy-OPLS-2005>
-15.3752574920654

> <r_mmod_Stretch_Energy-OPLS-2005>
50.1408500671387

> <r_mmod_Bend_Energy-OPLS-2005>
150.909927368164

> <r_mmod_Torsional_Energy-OPLS-2005>
227.027481079102

> <r_mmod_Improper_Torsional_Energy-OPLS-2005>
6.55525684356689

> <r_mmod_Van_der_Waal_Energy-OPLS-2005>
158.081207275391

> <r_mmod_Electrostatic_Energy-OPLS-2005>
-418.425109863281

> <r_mmod_Solvation_Energy-OPLS-2005>
-216.457275390625

> <b_mmod_Minimization_Converged-OPLS-2005>
0

> <r_mmod_RMS_Derivative-OPLS-2005>
2.23214435577393

$$$$
52
                    3D
 Structure written by MMmdl.
156164  0  0  1  0            999 V2000
  -30.6273  -14.7350   20.4593 C   0  0  0  0  0  0
  -30.4293  -12.4504   19.4652 C   0  0  0  0  0  0
  -29.5048  -12.4965   18.2297 C   0  0  0  0  0  0
  -28.0306  -12.3254   18.6484 C   0  0  0  0  0  0
  -27.6370  -13.2311   19.8471 C   0  0  2  0  0  0
  -28.6851  -13.1705   20.9792 C   0  0  0  0  0  0
  -25.2475  -13.8187   20.5711 C   0  0  0  0  0  0
  -24.1775  -13.0417   20.9213 C   0  0  0  0  0  0
  -24.6368  -11.6901   20.8749 C   0  0  0  0  0  0
  -23.9045  -10.4277   21.0376 C   0  0  0  0  0  0
  -24.3604   -9.4202   21.9158 C   0  0  0  0  0  0
  -23.6291   -8.2241   22.0728 C   0  0  0  0  0  0
  -22.4275   -8.0265   21.3532 C   0  0  0  0  0  0
  -21.9900   -9.0224   20.4626 C   0  0  0  0  0  0
  -22.7210  -10.2106   20.3025 C   0  0  0  0  0  0
  -21.6856   -6.0717   22.5271 C   0  0  0  0  0  0
  -21.4012   -6.5623   23.8197 C   0  0  0  0  0  0
  -21.3660   -5.6776   24.9171 C   0  0  0  0  0  0
  -21.6052   -4.3046   24.7222 C   0  0  0  0  0  0
  -21.8822   -3.8128   23.4358 C   0  0  0  0  0  0
  -21.9199   -4.6942   22.3401 C   0  0  0  0  0  0
  -22.7789  -13.5208   21.1858 C   0  0  0  0  0  0
  -22.1663   -4.2121   21.0985 F   0  0  0  0  0  0
  -21.5630   -3.4532   25.7747 F   0  0  0  0  0  0
  -29.9860  -13.5160   20.3911 N   0  0  0  0  0  0
  -26.2899  -12.9407   20.3267 N   0  0  0  0  0  0
  -25.9309  -11.6549   20.5745 N   0  0  0  0  0  0
  -22.0451  -12.8188   22.0434 N   0  0  0  0  0  0
  -25.4141  -15.1918   20.4098 N   0  0  0  0  0  0
  -31.8139  -14.8096   20.1277 O   0  0  0  0  0  0
  -21.6642   -6.8855   21.4229 O   0  0  0  0  0  0
  -22.3481  -14.5501   20.6684 O   0  0  0  0  0  0
  -24.6326  -31.8562   23.2020 C   0  0  0  0  0  0
  -25.9132  -32.4777   23.8389 C   0  0  1  0  0  0
  -27.2303  -27.2740   20.1354 C   0  0  0  0  0  0
  -25.5907  -33.8574   24.2314 N   0  0  0  0  0  0
  -23.4324  -30.4773   21.5437 C   0  0  2  0  0  0
  -24.8824  -28.9198   20.1201 C   0  0  0  0  0  0
  -22.7525  -29.4611   22.4928 C   0  0  0  0  0  0
  -18.0297  -28.1422   22.8478 C   0  0  0  0  0  0
  -24.1484  -36.7295   23.2644 C   0  0  0  0  0  0
  -25.9775  -30.7789   21.3757 C   0  0  0  0  0  0
  -26.0552  -29.3987   20.7186 C   0  0  0  0  0  0
  -27.2399  -28.5936   20.7013 C   0  0  0  0  0  0
  -26.0338  -26.8495   19.5262 C   0  0  0  0  0  0
  -24.8776  -27.6538   19.5111 C   0  0  0  0  0  0
  -23.6534  -29.8099   20.1610 C   0  0  0  0  0  0
  -25.4106  -36.3095   24.0347 C   0  0  1  0  0  0
  -20.5907  -28.3731   23.1275 C   0  0  2  0  0  0
  -20.6794  -26.9449   22.5416 C   0  0  0  0  0  0
  -19.5759  -26.6410   21.5231 C   0  0  0  0  0  0
  -18.1939  -26.7966   22.1628 C   0  0  0  0  0  0
  -19.1550  -28.8895   23.2875 C   0  0  0  0  0  0
  -18.9461  -30.1492   23.8900 C   0  0  0  0  0  0
  -17.6457  -30.6611   24.0572 C   0  0  0  0  0  0
  -25.9038  -34.9453   23.5144 C   0  0  0  0  0  0
  -16.5355  -29.9105   23.6334 C   0  0  0  0  0  0
  -16.7284  -28.6531   23.0347 C   0  0  0  0  0  0
  -26.4496  -31.6581   25.0760 C   0  0  0  0  0  0
  -25.3731  -31.3679   26.1481 C   0  0  0  0  0  0
  -27.0331  -30.3004   24.6227 C   0  0  0  0  0  0
  -27.6092  -32.4291   25.7505 C   0  0  0  0  0  0
  -27.5589  -37.1790   24.8459 C   0  0  0  0  0  0
  -21.4233  -29.3060   22.3660 N   0  0  0  0  0  0
  -26.4285  -37.3791   23.9427 N   0  0  0  0  0  0
  -24.7005  -31.0542   22.0982 N   0  0  0  0  0  0
  -23.4214  -28.8170   23.3048 O   0  0  0  0  0  0
  -28.3248  -26.3837   20.1245 O   0  0  0  0  0  0
  -26.5629  -34.8920   22.4722 O   0  0  0  0  0  0
  -23.5467  -32.1364   23.7302 O   0  0  0  0  0  0
  -31.8961  -18.9610   21.5630 C   0  0  0  0  0  0
  -29.4386  -18.4600   20.4010 C   0  0  0  0  0  0
  -31.1334  -20.0693   21.1176 C   0  0  0  0  0  0
  -29.8306  -19.8612   20.5633 C   0  0  0  0  0  0
  -30.2494  -17.3105   20.7946 C   0  0  0  0  0  0
  -31.4649  -17.6290   21.4436 C   0  0  0  0  0  0
  -31.8316  -21.3871   21.1917 C   0  0  0  0  0  0
  -28.5468  -23.6880   20.0126 C   0  0  0  0  0  0
  -32.4483  -21.7691   22.5324 C   0  0  0  0  0  0
  -28.7779  -22.3182   20.8311 C   0  0  0  0  0  0
  -28.1544  -25.0415   20.7840 C   0  0  0  0  0  0
  -29.8548  -15.8802   20.6336 N   0  0  0  0  0  0
  -28.9711  -20.9648   20.1409 N   0  0  0  0  0  0
  -31.9214  -22.1790   20.2474 O   0  0  0  0  0  0
  -28.6243  -23.6765   18.7810 O   0  0  0  0  0  0
  -32.2297  -16.6646   22.0035 F   0  0  0  0  0  0
  -31.4705  -12.5704   19.1614 H   0  0  0  0  0  0
  -30.3745  -11.4771   19.9548 H   0  0  0  0  0  0
  -29.7854  -11.7140   17.5236 H   0  0  0  0  0  0
  -29.6347  -13.4448   17.7055 H   0  0  0  0  0  0
  -27.8926  -11.2785   18.9184 H   0  0  0  0  0  0
  -27.3704  -12.5067   17.7980 H   0  0  0  0  0  0
  -27.6259  -14.2492   19.4613 H   0  0  0  0  0  0
  -28.7212  -12.1736   21.4208 H   0  0  0  0  0  0
  -28.4257  -13.8536   21.7891 H   0  0  0  0  0  0
  -25.2752   -9.5691   22.4734 H   0  0  0  0  0  0
  -24.0000   -7.4631   22.7456 H   0  0  0  0  0  0
  -21.0827   -8.8729   19.8943 H   0  0  0  0  0  0
  -22.3665  -10.9631   19.6127 H   0  0  0  0  0  0
  -21.2013   -7.6134   23.9697 H   0  0  0  0  0  0
  -21.1470   -6.0512   25.9067 H   0  0  0  0  0  0
  -22.0618   -2.7592   23.2858 H   0  0  0  0  0  0
  -22.4075  -11.9888   22.4878 H   0  0  0  0  0  0
  -21.1040  -13.1167   22.2582 H   0  0  0  0  0  0
  -24.6395  -15.8369   20.5229 H   0  0  0  0  0  0
  -26.2467  -15.6386   20.0497 H   0  0  0  0  0  0
  -26.7214  -32.5453   23.1150 H   0  0  0  0  0  0
  -24.9986  -33.9715   25.0412 H   0  0  0  0  0  0
  -22.7287  -31.2991   21.3971 H   0  0  0  0  0  0
  -23.3764  -35.9604   23.3278 H   0  0  0  0  0  0
  -24.3591  -36.8942   22.2066 H   0  0  0  0  0  0
  -23.7195  -37.6475   23.6676 H   0  0  0  0  0  0
  -26.1121  -31.5438   20.6100 H   0  0  0  0  0  0
  -26.8559  -30.8315   22.0080 H   0  0  0  0  0  0
  -28.1489  -28.9682   21.1536 H   0  0  0  0  0  0
  -25.9944  -25.8727   19.0649 H   0  0  0  0  0  0
  -23.9793  -27.2810   19.0392 H   0  0  0  0  0  0
  -23.7842  -30.5898   19.4087 H   0  0  0  0  0  0
  -22.7720  -29.2451   19.8512 H   0  0  0  0  0  0
  -25.1275  -36.1966   25.0837 H   0  0  0  0  0  0
  -20.9991  -28.3316   24.1399 H   0  0  0  0  0  0
  -20.5738  -26.2336   23.3619 H   0  0  0  0  0  0
  -21.6653  -26.7501   22.1181 H   0  0  0  0  0  0
  -19.6922  -25.6323   21.1261 H   0  0  0  0  0  0
  -19.6705  -27.3219   20.6763 H   0  0  0  0  0  0
  -17.4220  -26.6736   21.4026 H   0  0  0  0  0  0
  -18.0317  -26.0118   22.9027 H   0  0  0  0  0  0
  -19.7930  -30.7326   24.2262 H   0  0  0  0  0  0
  -17.5001  -31.6286   24.5186 H   0  0  0  0  0  0
  -15.5352  -30.3006   23.7666 H   0  0  0  0  0  0
  -15.8685  -28.0865   22.7044 H   0  0  0  0  0  0
  -24.5953  -30.6979   25.7797 H   0  0  0  0  0  0
  -24.8849  -32.2799   26.4923 H   0  0  0  0  0  0
  -25.8053  -30.8856   27.0261 H   0  0  0  0  0  0
  -26.2904  -29.6755   24.1256 H   0  0  0  0  0  0
  -27.4014  -29.7260   25.4743 H   0  0  0  0  0  0
  -27.8789  -30.4284   23.9470 H   0  0  0  0  0  0
  -27.2775  -33.3619   26.2087 H   0  0  0  0  0  0
  -28.3890  -32.6805   25.0296 H   0  0  0  0  0  0
  -28.0787  -31.8400   26.5402 H   0  0  0  0  0  0
  -28.2576  -38.0124   24.7572 H   0  0  0  0  0  0
  -28.1122  -36.2661   24.6195 H   0  0  0  0  0  0
  -27.2327  -37.1324   25.8866 H   0  0  0  0  0  0
  -20.9449  -29.8722   21.6796 H   0  0  0  0  0  0
  -26.0180  -38.2866   24.1450 H   0  0  0  0  0  0
  -32.8703  -19.1192   22.0105 H   0  0  0  0  0  0
  -28.4814  -18.2545   19.9466 H   0  0  0  0  0  0
  -32.2610  -21.0044   23.2868 H   0  0  0  0  0  0
  -32.0168  -22.7033   22.8872 H   0  0  0  0  0  0
  -33.5241  -21.9023   22.4317 H   0  0  0  0  0  0
  -27.8864  -22.2076   21.4501 H   0  0  0  0  0  0
  -29.5739  -22.5075   21.5471 H   0  0  0  0  0  0
  -28.7596  -25.0568   21.6892 H   0  0  0  0  0  0
  -27.1252  -24.9313   21.1261 H   0  0  0  0  0  0
  -28.8624  -15.7076   20.6266 H   0  0  0  0  0  0
  -28.1409  -20.6871   19.6209 H   0  0  0  0  0  0
  1 25  1  0  0  0
  1 30  2  0  0  0
  1 82  1  0  0  0
  2  3  1  0  0  0
  2 25  1  0  0  0
  2 87  1  0  0  0
  2 88  1  0  0  0
  3  4  1  0  0  0
  3 89  1  0  0  0
  3 90  1  0  0  0
  4  5  1  0  0  0
  4 91  1  0  0  0
  4 92  1  0  0  0
  5  6  1  0  0  0
  5 26  1  0  0  0
  5 93  1  0  0  0
  6 25  1  0  0  0
  6 94  1  0  0  0
  6 95  1  0  0  0
  7  8  2  0  0  0
  7 26  1  0  0  0
  7 29  1  0  0  0
  8  9  1  0  0  0
  8 22  1  0  0  0
  9 10  1  0  0  0
  9 27  2  0  0  0
 10 11  2  0  0  0
 10 15  1  0  0  0
 11 12  1  0  0  0
 11 96  1  0  0  0
 12 13  2  0  0  0
 12 97  1  0  0  0
 13 14  1  0  0  0
 13 31  1  0  0  0
 14 15  2  0  0  0
 14 98  1  0  0  0
 15 99  1  0  0  0
 16 17  2  0  0  0
 16 21  1  0  0  0
 16 31  1  0  0  0
 17 18  1  0  0  0
 17100  1  0  0  0
 18 19  2  0  0  0
 18101  1  0  0  0
 19 20  1  0  0  0
 19 24  1  0  0  0
 20 21  2  0  0  0
 20102  1  0  0  0
 21 23  1  0  0  0
 22 28  1  0  0  0
 22 32  2  0  0  0
 26 27  1  0  0  0
 28103  1  0  0  0
 28104  1  0  0  0
 29105  1  0  0  0
 29106  1  0  0  0
 33 34  1  0  0  0
 33 66  1  0  0  0
 33 70  2  0  0  0
 34 36  1  0  0  0
 34 59  1  0  0  0
 34107  1  0  0  0
 35 44  2  0  0  0
 35 45  1  0  0  0
 35 68  1  0  0  0
 36 56  1  0  0  0
 36108  1  0  0  0
 37 39  1  0  0  0
 37 47  1  0  0  0
 37 66  1  0  0  0
 37109  1  0  0  0
 38 43  2  0  0  0
 38 46  1  0  0  0
 38 47  1  0  0  0
 39 64  1  0  0  0
 39 67  2  0  0  0
 40 52  1  0  0  0
 40 53  2  0  0  0
 40 58  1  0  0  0
 41110  1  0  0  0
 41111  1  0  0  0
 41112  1  0  0  0
 41 48  1  0  0  0
 42 43  1  0  0  0
 42 66  1  0  0  0
 42113  1  0  0  0
 42114  1  0  0  0
 43 44  1  0  0  0
 44115  1  0  0  0
 45 46  2  0  0  0
 45116  1  0  0  0
 46117  1  0  0  0
 47118  1  0  0  0
 47119  1  0  0  0
 48 56  1  0  0  0
 48 65  1  0  0  0
 48120  1  0  0  0
 49 50  1  0  0  0
 49 53  1  0  0  0
 49 64  1  0  0  0
 49121  1  0  0  0
 50 51  1  0  0  0
 50122  1  0  0  0
 50123  1  0  0  0
 51 52  1  0  0  0
 51124  1  0  0  0
 51125  1  0  0  0
 52126  1  0  0  0
 52127  1  0  0  0
 53 54  1  0  0  0
 54 55  2  0  0  0
 54128  1  0  0  0
 55 57  1  0  0  0
 55129  1  0  0  0
 56 69  2  0  0  0
 57 58  2  0  0  0
 57130  1  0  0  0
 58131  1  0  0  0
 59 60  1  0  0  0
 59 61  1  0  0  0
 59 62  1  0  0  0
 60132  1  0  0  0
 60133  1  0  0  0
 60134  1  0  0  0
 61135  1  0  0  0
 61136  1  0  0  0
 61137  1  0  0  0
 62138  1  0  0  0
 62139  1  0  0  0
 62140  1  0  0  0
 63 65  1  0  0  0
 63141  1  0  0  0
 63142  1  0  0  0
 63143  1  0  0  0
 64144  1  0  0  0
 65145  1  0  0  0
 68 81  1  0  0  0
 71 73  2  0  0  0
 71 76  1  0  0  0
 71146  1  0  0  0
 72 74  2  0  0  0
 72 75  1  0  0  0
 72147  1  0  0  0
 73 74  1  0  0  0
 73 77  1  0  0  0
 74 83  1  0  0  0
 75 76  2  0  0  0
 75 82  1  0  0  0
 76 86  1  0  0  0
 77 79  1  0  0  0
 77 84  2  0  0  0
 78 80  1  0  0  0
 78 81  1  0  0  0
 78 85  2  0  0  0
 79148  1  0  0  0
 79149  1  0  0  0
 79150  1  0  0  0
 80 83  1  0  0  0
 80151  1  0  0  0
 80152  1  0  0  0
 81153  1  0  0  0
 81154  1  0  0  0
 82155  1  0  0  0
 83156  1  0  0  0
M  ISO  4   1 100  68 101  81 101  82 100
M  END
> <chiral flag>
0

> <version>
0

> <s_m_source_file>
/data/baiqing/PycharmProjects/Reinvent-master-3.2/result/LINK_invent/BTK/process_docking_weight1_custom_product_contain_oxygen_bond_distance_aromatic_linkinvent_7_9_3/rearranged_h_0165.sdf

> <i_m_source_file_index>
52

> <r_mmod_Potential_Energy-OPLS-2005>
241.904373168945

> <r_mmod_Stretch_Energy-OPLS-2005>
132.915130615234

> <r_mmod_Bend_Energy-OPLS-2005>
173.714172363281

> <r_mmod_Torsional_Energy-OPLS-2005>
276.899841308594

> <r_mmod_Improper_Torsional_Energy-OPLS-2005>
9.02158069610596

> <r_mmod_Van_der_Waal_Energy-OPLS-2005>
142.500244140625

> <r_mmod_Electrostatic_Energy-OPLS-2005>
-298.656402587891

> <r_mmod_Solvation_Energy-OPLS-2005>
-273.308044433594

> <b_mmod_Minimization_Converged-OPLS-2005>
0

> <r_mmod_RMS_Derivative-OPLS-2005>
4.44968557357788

$$$$
53
                    3D
 Structure written by MMmdl.
152160  0  0  1  0            999 V2000
  -30.5989  -14.7112   20.4298 C   0  0  0  0  0  0
  -30.4254  -12.4219   19.4606 C   0  0  0  0  0  0
  -29.5117  -12.5288   18.2194 C   0  0  0  0  0  0
  -28.0256  -12.3861   18.6164 C   0  0  0  0  0  0
  -27.6476  -13.2384   19.8595 C   0  0  2  0  0  0
  -28.6938  -13.1145   20.9896 C   0  0  0  0  0  0
  -25.2488  -13.8193   20.5712 C   0  0  0  0  0  0
  -24.1776  -13.0438   20.9215 C   0  0  0  0  0  0
  -24.6363  -11.6919   20.8717 C   0  0  0  0  0  0
  -23.9025  -10.4296   21.0396 C   0  0  0  0  0  0
  -24.3583   -9.4221   21.9153 C   0  0  0  0  0  0
  -23.6310   -8.2222   22.0713 C   0  0  0  0  0  0
  -22.4271   -8.0257   21.3526 C   0  0  0  0  0  0
  -21.9905   -9.0229   20.4627 C   0  0  0  0  0  0
  -22.7201  -10.2131   20.3049 C   0  0  0  0  0  0
  -21.6847   -6.0724   22.5274 C   0  0  0  0  0  0
  -21.4000   -6.5631   23.8218 C   0  0  0  0  0  0
  -21.3689   -5.6776   24.9171 C   0  0  0  0  0  0
  -21.6067   -4.3053   24.7210 C   0  0  0  0  0  0
  -21.8820   -3.8137   23.4325 C   0  0  0  0  0  0
  -21.9193   -4.6941   22.3396 C   0  0  0  0  0  0
  -22.7796  -13.5229   21.1930 C   0  0  0  0  0  0
  -22.1654   -4.2126   21.0971 F   0  0  0  0  0  0
  -21.5665   -3.4543   25.7737 F   0  0  0  0  0  0
  -29.9995  -13.4707   20.4184 N   0  0  0  0  0  0
  -26.2944  -12.9430   20.3288 N   0  0  0  0  0  0
  -25.9308  -11.6552   20.5675 N   0  0  0  0  0  0
  -22.0425  -12.8199   22.0480 N   0  0  0  0  0  0
  -25.4224  -15.1938   20.4184 N   0  0  0  0  0  0
  -31.7665  -14.8314   20.0521 O   0  0  0  0  0  0
  -21.6626   -6.8862   21.4242 O   0  0  0  0  0  0
  -22.3474  -14.5545   20.6810 O   0  0  0  0  0  0
  -24.6366  -31.8573   23.1955 C   0  0  0  0  0  0
  -25.9180  -32.4767   23.8338 C   0  0  1  0  0  0
  -27.2313  -27.2454   20.1342 C   0  0  0  0  0  0
  -25.5980  -33.8576   24.2285 N   0  0  0  0  0  0
  -23.4356  -30.4811   21.5360 C   0  0  2  0  0  0
  -24.8875  -28.9275   20.1070 C   0  0  0  0  0  0
  -22.7561  -29.4622   22.4841 C   0  0  0  0  0  0
  -18.0318  -28.1408   22.8467 C   0  0  0  0  0  0
  -24.1506  -36.7241   23.2635 C   0  0  0  0  0  0
  -25.9856  -30.7701   21.3767 C   0  0  0  0  0  0
  -26.0615  -29.3916   20.7151 C   0  0  0  0  0  0
  -27.2381  -28.5684   20.7056 C   0  0  0  0  0  0
  -26.0220  -26.8503   19.5172 C   0  0  0  0  0  0
  -24.8753  -27.6667   19.4943 C   0  0  0  0  0  0
  -23.6582  -29.8172   20.1521 C   0  0  0  0  0  0
  -25.4135  -36.3060   24.0337 C   0  0  1  0  0  0
  -20.5931  -28.3727   23.1245 C   0  0  2  0  0  0
  -20.6807  -26.9431   22.5411 C   0  0  0  0  0  0
  -19.5791  -26.6380   21.5214 C   0  0  0  0  0  0
  -18.1962  -26.7948   22.1611 C   0  0  0  0  0  0
  -19.1577  -28.8878   23.2856 C   0  0  0  0  0  0
  -18.9470  -30.1473   23.8887 C   0  0  0  0  0  0
  -17.6470  -30.6584   24.0551 C   0  0  0  0  0  0
  -25.9077  -34.9438   23.5097 C   0  0  0  0  0  0
  -16.5362  -29.9077   23.6325 C   0  0  0  0  0  0
  -16.7311  -28.6502   23.0340 C   0  0  0  0  0  0
  -26.4540  -31.6590   25.0725 C   0  0  0  0  0  0
  -25.3731  -31.3741   26.1411 C   0  0  0  0  0  0
  -27.0383  -30.3009   24.6217 C   0  0  0  0  0  0
  -27.6159  -32.4269   25.7466 C   0  0  0  0  0  0
  -27.5610  -37.1754   24.8455 C   0  0  0  0  0  0
  -21.4250  -29.3061   22.3609 N   0  0  0  0  0  0
  -26.4296  -37.3769   23.9429 N   0  0  0  0  0  0
  -24.7052  -31.0539   22.0919 N   0  0  0  0  0  0
  -23.4248  -28.8159   23.2938 O   0  0  0  0  0  0
  -28.3235  -26.3336   20.1884 O   0  0  0  0  0  0
  -26.5622  -34.8910   22.4646 O   0  0  0  0  0  0
  -23.5507  -32.1392   23.7224 O   0  0  0  0  0  0
  -30.1915  -17.5663   18.9021 C   0  0  0  0  0  0
  -30.0307  -18.9354   18.8218 C   0  0  0  0  0  0
  -29.8862  -17.2060   20.2450 C   0  0  0  0  0  0
  -28.7893  -22.1302   19.9343 C   0  0  0  0  0  0
  -30.2513  -19.7936   17.6115 C   0  0  0  0  0  0
  -29.1372  -23.6548   20.3305 C   0  0  0  0  0  0
  -29.5144  -20.8679   20.6147 C   0  0  0  0  0  0
  -28.0598  -24.8471   20.0410 C   0  0  0  0  0  0
  -29.5385  -18.3290   20.9273 N   0  0  0  0  0  0
  -29.6340  -19.4315   20.0730 N   0  0  0  0  0  0
  -29.8220  -15.8166   20.7388 N   0  0  0  0  0  0
  -27.9120  -21.9243   19.0920 O   0  0  0  0  0  0
  -31.4730  -12.5266   19.1713 H   0  0  0  0  0  0
  -30.3422  -11.4280   19.9020 H   0  0  0  0  0  0
  -29.7804  -11.7745   17.4774 H   0  0  0  0  0  0
  -29.6668  -13.4980   17.7395 H   0  0  0  0  0  0
  -27.8285  -11.3331   18.8120 H   0  0  0  0  0  0
  -27.3890  -12.6655   17.7763 H   0  0  0  0  0  0
  -27.6577  -14.2772   19.5250 H   0  0  0  0  0  0
  -28.7154  -12.0959   21.3818 H   0  0  0  0  0  0
  -28.4404  -13.7592   21.8302 H   0  0  0  0  0  0
  -25.2721   -9.5748   22.4705 H   0  0  0  0  0  0
  -24.0064   -7.4608   22.7404 H   0  0  0  0  0  0
  -21.0850   -8.8763   19.8925 H   0  0  0  0  0  0
  -22.3662  -10.9668   19.6169 H   0  0  0  0  0  0
  -21.1966   -7.6137   23.9724 H   0  0  0  0  0  0
  -21.1530   -6.0486   25.9090 H   0  0  0  0  0  0
  -22.0579   -2.7589   23.2802 H   0  0  0  0  0  0
  -22.4052  -11.9910   22.4945 H   0  0  0  0  0  0
  -21.1036  -13.1236   22.2663 H   0  0  0  0  0  0
  -24.6722  -15.8622   20.5600 H   0  0  0  0  0  0
  -26.2825  -15.6295   20.1143 H   0  0  0  0  0  0
  -26.7261  -32.5434   23.1104 H   0  0  0  0  0  0
  -25.0204  -33.9743   25.0482 H   0  0  0  0  0  0
  -22.7332  -31.3045   21.3897 H   0  0  0  0  0  0
  -23.3804  -35.9530   23.3271 H   0  0  0  0  0  0
  -24.3597  -36.8881   22.2048 H   0  0  0  0  0  0
  -23.7215  -37.6421   23.6666 H   0  0  0  0  0  0
  -26.1330  -31.5358   20.6130 H   0  0  0  0  0  0
  -26.8598  -30.8180   22.0145 H   0  0  0  0  0  0
  -28.1402  -28.9266   21.1817 H   0  0  0  0  0  0
  -25.9242  -25.8764   19.0654 H   0  0  0  0  0  0
  -23.9754  -27.3047   19.0150 H   0  0  0  0  0  0
  -23.7796  -30.5963   19.3976 H   0  0  0  0  0  0
  -22.7795  -29.2487   19.8432 H   0  0  0  0  0  0
  -25.1305  -36.1894   25.0827 H   0  0  0  0  0  0
  -21.0065  -28.3304   24.1354 H   0  0  0  0  0  0
  -20.5700  -26.2333   23.3625 H   0  0  0  0  0  0
  -21.6672  -26.7429   22.1211 H   0  0  0  0  0  0
  -19.6935  -25.6273   21.1295 H   0  0  0  0  0  0
  -19.6753  -27.3146   20.6710 H   0  0  0  0  0  0
  -17.4252  -26.6704   21.4002 H   0  0  0  0  0  0
  -18.0342  -26.0108   22.9024 H   0  0  0  0  0  0
  -19.7938  -30.7292   24.2266 H   0  0  0  0  0  0
  -17.5008  -31.6269   24.5155 H   0  0  0  0  0  0
  -15.5357  -30.2959   23.7655 H   0  0  0  0  0  0
  -15.8723  -28.0816   22.7036 H   0  0  0  0  0  0
  -24.5920  -30.7118   25.7663 H   0  0  0  0  0  0
  -24.8899  -32.2906   26.4809 H   0  0  0  0  0  0
  -25.7988  -30.8892   27.0204 H   0  0  0  0  0  0
  -26.2963  -29.6734   24.1271 H   0  0  0  0  0  0
  -27.4104  -29.7308   25.4738 H   0  0  0  0  0  0
  -27.8833  -30.4288   23.9446 H   0  0  0  0  0  0
  -27.2895  -33.3609   26.2046 H   0  0  0  0  0  0
  -28.3971  -32.6742   25.0263 H   0  0  0  0  0  0
  -28.0840  -31.8357   26.5351 H   0  0  0  0  0  0
  -28.2565  -38.0115   24.7598 H   0  0  0  0  0  0
  -28.1168  -36.2644   24.6151 H   0  0  0  0  0  0
  -27.2341  -37.1251   25.8858 H   0  0  0  0  0  0
  -20.9437  -29.8779   21.6812 H   0  0  0  0  0  0
  -26.0169  -38.2830   24.1476 H   0  0  0  0  0  0
  -30.4888  -16.9115   18.0908 H   0  0  0  0  0  0
  -30.5217  -19.1816   16.7462 H   0  0  0  0  0  0
  -31.0598  -20.5091   17.7638 H   0  0  0  0  0  0
  -29.3468  -20.3357   17.3369 H   0  0  0  0  0  0
  -30.0549  -23.8902   19.7928 H   0  0  0  0  0  0
  -29.4071  -23.6638   21.3866 H   0  0  0  0  0  0
  -29.0150  -20.7686   21.5791 H   0  0  0  0  0  0
  -30.5271  -21.1840   20.8602 H   0  0  0  0  0  0
  -27.2137  -24.6309   20.6966 H   0  0  0  0  0  0
  -27.7056  -24.6842   19.0227 H   0  0  0  0  0  0
  -28.9785  -15.5977   21.2492 H   0  0  0  0  0  0
  1 25  1  0  0  0
  1 30  2  0  0  0
  1 81  1  0  0  0
  2  3  1  0  0  0
  2 25  1  0  0  0
  2 83  1  0  0  0
  2 84  1  0  0  0
  3  4  1  0  0  0
  3 85  1  0  0  0
  3 86  1  0  0  0
  4  5  1  0  0  0
  4 87  1  0  0  0
  4 88  1  0  0  0
  5  6  1  0  0  0
  5 26  1  0  0  0
  5 89  1  0  0  0
  6 25  1  0  0  0
  6 90  1  0  0  0
  6 91  1  0  0  0
  7  8  2  0  0  0
  7 26  1  0  0  0
  7 29  1  0  0  0
  8  9  1  0  0  0
  8 22  1  0  0  0
  9 10  1  0  0  0
  9 27  2  0  0  0
 10 11  2  0  0  0
 10 15  1  0  0  0
 11 12  1  0  0  0
 11 92  1  0  0  0
 12 13  2  0  0  0
 12 93  1  0  0  0
 13 14  1  0  0  0
 13 31  1  0  0  0
 14 15  2  0  0  0
 14 94  1  0  0  0
 15 95  1  0  0  0
 16 17  2  0  0  0
 16 21  1  0  0  0
 16 31  1  0  0  0
 17 18  1  0  0  0
 17 96  1  0  0  0
 18 19  2  0  0  0
 18 97  1  0  0  0
 19 20  1  0  0  0
 19 24  1  0  0  0
 20 21  2  0  0  0
 20 98  1  0  0  0
 21 23  1  0  0  0
 22 28  1  0  0  0
 22 32  2  0  0  0
 26 27  1  0  0  0
 28 99  1  0  0  0
 28100  1  0  0  0
 29101  1  0  0  0
 29102  1  0  0  0
 33 34  1  0  0  0
 33 66  1  0  0  0
 33 70  2  0  0  0
 34 36  1  0  0  0
 34 59  1  0  0  0
 34103  1  0  0  0
 35 44  2  0  0  0
 35 45  1  0  0  0
 35 68  1  0  0  0
 36 56  1  0  0  0
 36104  1  0  0  0
 37 39  1  0  0  0
 37 47  1  0  0  0
 37 66  1  0  0  0
 37105  1  0  0  0
 38 43  2  0  0  0
 38 46  1  0  0  0
 38 47  1  0  0  0
 39 64  1  0  0  0
 39 67  2  0  0  0
 40 52  1  0  0  0
 40 53  2  0  0  0
 40 58  1  0  0  0
 41106  1  0  0  0
 41107  1  0  0  0
 41108  1  0  0  0
 41 48  1  0  0  0
 42 43  1  0  0  0
 42 66  1  0  0  0
 42109  1  0  0  0
 42110  1  0  0  0
 43 44  1  0  0  0
 44111  1  0  0  0
 45 46  2  0  0  0
 45112  1  0  0  0
 46113  1  0  0  0
 47114  1  0  0  0
 47115  1  0  0  0
 48 56  1  0  0  0
 48 65  1  0  0  0
 48116  1  0  0  0
 49 50  1  0  0  0
 49 53  1  0  0  0
 49 64  1  0  0  0
 49117  1  0  0  0
 50 51  1  0  0  0
 50118  1  0  0  0
 50119  1  0  0  0
 51 52  1  0  0  0
 51120  1  0  0  0
 51121  1  0  0  0
 52122  1  0  0  0
 52123  1  0  0  0
 53 54  1  0  0  0
 54 55  2  0  0  0
 54124  1  0  0  0
 55 57  1  0  0  0
 55125  1  0  0  0
 56 69  2  0  0  0
 57 58  2  0  0  0
 57126  1  0  0  0
 58127  1  0  0  0
 59 60  1  0  0  0
 59 61  1  0  0  0
 59 62  1  0  0  0
 60128  1  0  0  0
 60129  1  0  0  0
 60130  1  0  0  0
 61131  1  0  0  0
 61132  1  0  0  0
 61133  1  0  0  0
 62134  1  0  0  0
 62135  1  0  0  0
 62136  1  0  0  0
 63 65  1  0  0  0
 63137  1  0  0  0
 63138  1  0  0  0
 63139  1  0  0  0
 64140  1  0  0  0
 65141  1  0  0  0
 68 78  1  0  0  0
 71 72  2  0  0  0
 71 73  1  0  0  0
 71142  1  0  0  0
 72 75  1  0  0  0
 72 80  1  0  0  0
 73 79  2  0  0  0
 73 81  1  0  0  0
 74 76  1  0  0  0
 74 77  1  0  0  0
 74 82  2  0  0  0
 75143  1  0  0  0
 75144  1  0  0  0
 75145  1  0  0  0
 76 78  1  0  0  0
 76146  1  0  0  0
 76147  1  0  0  0
 77 80  1  0  0  0
 77148  1  0  0  0
 77149  1  0  0  0
 78150  1  0  0  0
 78151  1  0  0  0
 79 80  1  0  0  0
 81152  1  0  0  0
M  ISO  4   1 100  68 101  78 101  81 100
M  END
> <chiral flag>
0

> <version>
0

> <s_m_source_file>
/data/baiqing/PycharmProjects/Reinvent-master-3.2/result/LINK_invent/BTK/process_docking_weight1_custom_product_contain_oxygen_bond_distance_aromatic_linkinvent_7_9_3/rearranged_h_0165.sdf

> <i_m_source_file_index>
53

> <r_mmod_Potential_Energy-OPLS-2005>
103.771682739258

> <r_mmod_Stretch_Energy-OPLS-2005>
129.346786499023

> <r_mmod_Bend_Energy-OPLS-2005>
174.395751953125

> <r_mmod_Torsional_Energy-OPLS-2005>
239.226593017578

> <r_mmod_Improper_Torsional_Energy-OPLS-2005>
4.8991494178772

> <r_mmod_Van_der_Waal_Energy-OPLS-2005>
113.907363891602

> <r_mmod_Electrostatic_Energy-OPLS-2005>
-405.223754882812

> <r_mmod_Solvation_Energy-OPLS-2005>
-234.271148681641

> <b_mmod_Minimization_Converged-OPLS-2005>
0

> <r_mmod_RMS_Derivative-OPLS-2005>
5.11765098571777

$$$$
54
                    3D
 Structure written by MMmdl.
150158  0  0  1  0            999 V2000
  -30.7000  -14.5023   20.5763 C   0  0  0  0  0  0
  -30.4202  -12.3315   19.4232 C   0  0  0  0  0  0
  -29.4917  -12.5061   18.2049 C   0  0  0  0  0  0
  -28.0146  -12.3603   18.6204 C   0  0  0  0  0  0
  -27.6556  -13.2116   19.8683 C   0  0  2  0  0  0
  -28.6983  -13.0174   20.9906 C   0  0  0  0  0  0
  -25.2559  -13.8172   20.5680 C   0  0  0  0  0  0
  -24.1821  -13.0441   20.9185 C   0  0  0  0  0  0
  -24.6384  -11.6910   20.8738 C   0  0  0  0  0  0
  -23.9055  -10.4294   21.0406 C   0  0  0  0  0  0
  -24.3611   -9.4209   21.9183 C   0  0  0  0  0  0
  -23.6291   -8.2241   22.0752 C   0  0  0  0  0  0
  -22.4271   -8.0279   21.3544 C   0  0  0  0  0  0
  -21.9906   -9.0249   20.4645 C   0  0  0  0  0  0
  -22.7230  -10.2131   20.3054 C   0  0  0  0  0  0
  -21.6852   -6.0734   22.5281 C   0  0  0  0  0  0
  -21.4012   -6.5639   23.8214 C   0  0  0  0  0  0
  -21.3660   -5.6789   24.9177 C   0  0  0  0  0  0
  -21.6046   -4.3052   24.7226 C   0  0  0  0  0  0
  -21.8821   -3.8145   23.4347 C   0  0  0  0  0  0
  -21.9192   -4.6961   22.3404 C   0  0  0  0  0  0
  -22.7846  -13.5233   21.1856 C   0  0  0  0  0  0
  -22.1660   -4.2148   21.0982 F   0  0  0  0  0  0
  -21.5630   -3.4534   25.7739 F   0  0  0  0  0  0
  -30.0221  -13.3298   20.4297 N   0  0  0  0  0  0
  -26.2990  -12.9348   20.3341 N   0  0  0  0  0  0
  -25.9309  -11.6503   20.5758 N   0  0  0  0  0  0
  -22.0488  -12.8221   22.0412 N   0  0  0  0  0  0
  -25.4284  -15.1892   20.4094 N   0  0  0  0  0  0
  -31.8345  -14.6679   20.1198 O   0  0  0  0  0  0
  -21.6638   -6.8876   21.4242 O   0  0  0  0  0  0
  -22.3534  -14.5541   20.6711 O   0  0  0  0  0  0
  -24.6179  -31.8656   23.2082 C   0  0  0  0  0  0
  -25.9063  -32.4805   23.8382 C   0  0  1  0  0  0
  -27.2301  -27.3994   20.0905 C   0  0  0  0  0  0
  -25.5919  -33.8606   24.2317 N   0  0  0  0  0  0
  -23.4058  -30.4901   21.5497 C   0  0  2  0  0  0
  -24.8486  -28.9508   20.1147 C   0  0  0  0  0  0
  -22.7419  -29.4653   22.4982 C   0  0  0  0  0  0
  -18.0271  -28.1376   22.8488 C   0  0  0  0  0  0
  -24.1489  -36.7301   23.2638 C   0  0  0  0  0  0
  -25.9382  -30.8195   21.3659 C   0  0  0  0  0  0
  -26.0112  -29.4516   20.7111 C   0  0  0  0  0  0
  -27.2007  -28.6829   20.6956 C   0  0  0  0  0  0
  -26.0384  -26.9159   19.5002 C   0  0  0  0  0  0
  -24.8584  -27.6836   19.5088 C   0  0  0  0  0  0
  -23.6141  -29.8232   20.1643 C   0  0  0  0  0  0
  -25.4111  -36.3099   24.0336 C   0  0  1  0  0  0
  -20.5863  -28.3666   23.1311 C   0  0  2  0  0  0
  -20.6762  -26.9400   22.5416 C   0  0  0  0  0  0
  -19.5745  -26.6383   21.5209 C   0  0  0  0  0  0
  -18.1922  -26.7924   22.1617 C   0  0  0  0  0  0
  -19.1520  -28.8837   23.2896 C   0  0  0  0  0  0
  -18.9450  -30.1446   23.8903 C   0  0  0  0  0  0
  -17.6452  -30.6582   24.0564 C   0  0  0  0  0  0
  -25.9044  -34.9466   23.5122 C   0  0  0  0  0  0
  -16.5343  -29.9083   23.6330 C   0  0  0  0  0  0
  -16.7260  -28.6502   23.0345 C   0  0  0  0  0  0
  -26.4482  -31.6590   25.0719 C   0  0  0  0  0  0
  -25.3746  -31.3698   26.1468 C   0  0  0  0  0  0
  -27.0310  -30.3027   24.6111 C   0  0  0  0  0  0
  -27.6061  -32.4304   25.7477 C   0  0  0  0  0  0
  -27.5581  -37.1804   24.8465 C   0  0  0  0  0  0
  -21.4144  -29.3033   22.3718 N   0  0  0  0  0  0
  -26.4293  -37.3788   23.9412 N   0  0  0  0  0  0
  -24.6725  -31.0735   22.0993 N   0  0  0  0  0  0
  -23.4180  -28.8197   23.3034 O   0  0  0  0  0  0
  -28.4145  -26.6768   20.1078 O   0  0  0  0  0  0
  -26.5600  -34.8921   22.4680 O   0  0  0  0  0  0
  -23.5366  -32.1422   23.7464 O   0  0  0  0  0  0
  -29.1206  -19.6240   19.6672 C   0  0  0  0  0  0
  -29.0847  -20.3837   20.8192 C   0  0  0  0  0  0
  -29.9246  -18.0382   21.1209 C   0  0  0  0  0  0
  -28.4019  -24.1907   20.4923 C   0  0  0  0  0  0
  -30.6362  -16.7899   21.6091 C   0  0  0  0  0  0
  -28.6541  -22.7439   19.9731 C   0  0  0  0  0  0
  -28.5147  -25.3678   19.4855 C   0  0  0  0  0  0
  -29.5892  -18.3051   19.8508 N   0  0  0  0  0  0
  -28.7051  -21.7250   21.0414 N   0  0  0  0  0  0
  -30.0342  -15.5137   21.1712 N   0  0  0  0  0  0
  -28.1392  -24.3860   21.6856 O   0  0  0  0  0  0
  -29.6111  -19.4196   22.1843 S   0  0  0  0  0  0
  -31.4640  -12.4332   19.1211 H   0  0  0  0  0  0
  -30.3273  -11.3254   19.8354 H   0  0  0  0  0  0
  -29.7372  -11.7731   17.4351 H   0  0  0  0  0  0
  -29.6525  -13.4877   17.7558 H   0  0  0  0  0  0
  -27.8331  -11.3051   18.8281 H   0  0  0  0  0  0
  -27.3613  -12.6206   17.7869 H   0  0  0  0  0  0
  -27.6920  -14.2564   19.5584 H   0  0  0  0  0  0
  -28.6851  -11.9868   21.3482 H   0  0  0  0  0  0
  -28.4560  -13.6315   21.8588 H   0  0  0  0  0  0
  -25.2759   -9.5688   22.4752 H   0  0  0  0  0  0
  -24.0006   -7.4632   22.7466 H   0  0  0  0  0  0
  -21.0840   -8.8765   19.8948 H   0  0  0  0  0  0
  -22.3691  -10.9666   19.6158 H   0  0  0  0  0  0
  -21.2000   -7.6147   23.9717 H   0  0  0  0  0  0
  -21.1482   -6.0520   25.9081 H   0  0  0  0  0  0
  -22.0598   -2.7607   23.2844 H   0  0  0  0  0  0
  -22.4101  -11.9877   22.4792 H   0  0  0  0  0  0
  -21.1107  -13.1247   22.2619 H   0  0  0  0  0  0
  -24.6628  -15.8457   20.5175 H   0  0  0  0  0  0
  -26.2819  -15.6271   20.0854 H   0  0  0  0  0  0
  -26.7131  -32.5498   23.1139 H   0  0  0  0  0  0
  -25.0105  -33.9770   25.0487 H   0  0  0  0  0  0
  -22.6962  -31.3084   21.4109 H   0  0  0  0  0  0
  -23.3753  -35.9632   23.3302 H   0  0  0  0  0  0
  -24.3588  -36.8912   22.2053 H   0  0  0  0  0  0
  -23.7236  -37.6505   23.6648 H   0  0  0  0  0  0
  -26.0578  -31.5852   20.5983 H   0  0  0  0  0  0
  -26.8240  -30.8688   21.9879 H   0  0  0  0  0  0
  -28.0990  -29.0698   21.1565 H   0  0  0  0  0  0
  -25.9807  -25.9445   19.0353 H   0  0  0  0  0  0
  -23.9609  -27.2894   19.0523 H   0  0  0  0  0  0
  -23.7265  -30.5986   19.4057 H   0  0  0  0  0  0
  -22.7357  -29.2474   19.8672 H   0  0  0  0  0  0
  -25.1287  -36.1962   25.0829 H   0  0  0  0  0  0
  -20.9953  -28.3228   24.1433 H   0  0  0  0  0  0
  -20.5663  -26.2274   23.3602 H   0  0  0  0  0  0
  -21.6633  -26.7442   22.1210 H   0  0  0  0  0  0
  -19.6910  -25.6298   21.1230 H   0  0  0  0  0  0
  -19.6690  -27.3201   20.6745 H   0  0  0  0  0  0
  -17.4197  -26.6675   21.4014 H   0  0  0  0  0  0
  -18.0320  -26.0061   22.9008 H   0  0  0  0  0  0
  -19.7928  -30.7259   24.2267 H   0  0  0  0  0  0
  -17.5011  -31.6262   24.5165 H   0  0  0  0  0  0
  -15.5345  -30.2987   23.7654 H   0  0  0  0  0  0
  -15.8661  -28.0829   22.7045 H   0  0  0  0  0  0
  -24.5938  -30.7019   25.7811 H   0  0  0  0  0  0
  -24.8913  -32.2848   26.4901 H   0  0  0  0  0  0
  -25.8109  -30.8890   27.0233 H   0  0  0  0  0  0
  -26.2855  -29.6786   24.1169 H   0  0  0  0  0  0
  -27.4074  -29.7269   25.4577 H   0  0  0  0  0  0
  -27.8696  -30.4332   23.9266 H   0  0  0  0  0  0
  -27.2692  -33.3604   26.2065 H   0  0  0  0  0  0
  -28.3867  -32.6856   25.0297 H   0  0  0  0  0  0
  -28.0733  -31.8416   26.5382 H   0  0  0  0  0  0
  -28.2598  -38.0102   24.7517 H   0  0  0  0  0  0
  -28.1075  -36.2633   24.6282 H   0  0  0  0  0  0
  -27.2304  -37.1443   25.8870 H   0  0  0  0  0  0
  -20.9306  -29.8759   21.6943 H   0  0  0  0  0  0
  -26.0177  -38.2864   24.1415 H   0  0  0  0  0  0
  -28.8414  -19.9413   18.6721 H   0  0  0  0  0  0
  -30.6367  -16.8009   22.6994 H   0  0  0  0  0  0
  -31.6828  -16.8665   21.3115 H   0  0  0  0  0  0
  -29.5922  -22.7373   19.4163 H   0  0  0  0  0  0
  -27.8631  -22.4927   19.2654 H   0  0  0  0  0  0
  -27.8261  -25.2277   18.6554 H   0  0  0  0  0  0
  -29.5079  -25.3059   19.0410 H   0  0  0  0  0  0
  -28.7132  -22.1253   21.9786 H   0  0  0  0  0  0
  -29.0839  -15.3360   21.4565 H   0  0  0  0  0  0
  1 25  1  0  0  0
  1 30  2  0  0  0
  1 80  1  0  0  0
  2  3  1  0  0  0
  2 25  1  0  0  0
  2 83  1  0  0  0
  2 84  1  0  0  0
  3  4  1  0  0  0
  3 85  1  0  0  0
  3 86  1  0  0  0
  4  5  1  0  0  0
  4 87  1  0  0  0
  4 88  1  0  0  0
  5  6  1  0  0  0
  5 26  1  0  0  0
  5 89  1  0  0  0
  6 25  1  0  0  0
  6 90  1  0  0  0
  6 91  1  0  0  0
  7  8  2  0  0  0
  7 26  1  0  0  0
  7 29  1  0  0  0
  8  9  1  0  0  0
  8 22  1  0  0  0
  9 10  1  0  0  0
  9 27  2  0  0  0
 10 11  2  0  0  0
 10 15  1  0  0  0
 11 12  1  0  0  0
 11 92  1  0  0  0
 12 13  2  0  0  0
 12 93  1  0  0  0
 13 14  1  0  0  0
 13 31  1  0  0  0
 14 15  2  0  0  0
 14 94  1  0  0  0
 15 95  1  0  0  0
 16 17  2  0  0  0
 16 21  1  0  0  0
 16 31  1  0  0  0
 17 18  1  0  0  0
 17 96  1  0  0  0
 18 19  2  0  0  0
 18 97  1  0  0  0
 19 20  1  0  0  0
 19 24  1  0  0  0
 20 21  2  0  0  0
 20 98  1  0  0  0
 21 23  1  0  0  0
 22 28  1  0  0  0
 22 32  2  0  0  0
 26 27  1  0  0  0
 28 99  1  0  0  0
 28100  1  0  0  0
 29101  1  0  0  0
 29102  1  0  0  0
 33 34  1  0  0  0
 33 66  1  0  0  0
 33 70  2  0  0  0
 34 36  1  0  0  0
 34 59  1  0  0  0
 34103  1  0  0  0
 35 44  2  0  0  0
 35 45  1  0  0  0
 35 68  1  0  0  0
 36 56  1  0  0  0
 36104  1  0  0  0
 37 39  1  0  0  0
 37 47  1  0  0  0
 37 66  1  0  0  0
 37105  1  0  0  0
 38 43  2  0  0  0
 38 46  1  0  0  0
 38 47  1  0  0  0
 39 64  1  0  0  0
 39 67  2  0  0  0
 40 52  1  0  0  0
 40 53  2  0  0  0
 40 58  1  0  0  0
 41106  1  0  0  0
 41107  1  0  0  0
 41108  1  0  0  0
 41 48  1  0  0  0
 42 43  1  0  0  0
 42 66  1  0  0  0
 42109  1  0  0  0
 42110  1  0  0  0
 43 44  1  0  0  0
 44111  1  0  0  0
 45 46  2  0  0  0
 45112  1  0  0  0
 46113  1  0  0  0
 47114  1  0  0  0
 47115  1  0  0  0
 48 56  1  0  0  0
 48 65  1  0  0  0
 48116  1  0  0  0
 49 50  1  0  0  0
 49 53  1  0  0  0
 49 64  1  0  0  0
 49117  1  0  0  0
 50 51  1  0  0  0
 50118  1  0  0  0
 50119  1  0  0  0
 51 52  1  0  0  0
 51120  1  0  0  0
 51121  1  0  0  0
 52122  1  0  0  0
 52123  1  0  0  0
 53 54  1  0  0  0
 54 55  2  0  0  0
 54124  1  0  0  0
 55 57  1  0  0  0
 55125  1  0  0  0
 56 69  2  0  0  0
 57 58  2  0  0  0
 57126  1  0  0  0
 58127  1  0  0  0
 59 60  1  0  0  0
 59 61  1  0  0  0
 59 62  1  0  0  0
 60128  1  0  0  0
 60129  1  0  0  0
 60130  1  0  0  0
 61131  1  0  0  0
 61132  1  0  0  0
 61133  1  0  0  0
 62134  1  0  0  0
 62135  1  0  0  0
 62136  1  0  0  0
 63 65  1  0  0  0
 63137  1  0  0  0
 63138  1  0  0  0
 63139  1  0  0  0
 64140  1  0  0  0
 65141  1  0  0  0
 68 77  1  0  0  0
 71 72  2  0  0  0
 71 78  1  0  0  0
 71142  1  0  0  0
 72 79  1  0  0  0
 72 82  1  0  0  0
 73 75  1  0  0  0
 73 78  2  0  0  0
 73 82  1  0  0  0
 74 76  1  0  0  0
 74 77  1  0  0  0
 74 81  2  0  0  0
 75 80  1  0  0  0
 75143  1  0  0  0
 75144  1  0  0  0
 76 79  1  0  0  0
 76145  1  0  0  0
 76146  1  0  0  0
 77147  1  0  0  0
 77148  1  0  0  0
 79149  1  0  0  0
 80150  1  0  0  0
M  ISO  4   1 100  68 101  77 101  80 100
M  END
> <chiral flag>
0

> <version>
0

> <s_m_source_file>
/data/baiqing/PycharmProjects/Reinvent-master-3.2/result/LINK_invent/BTK/process_docking_weight1_custom_product_contain_oxygen_bond_distance_aromatic_linkinvent_7_9_3/rearranged_h_0165.sdf

> <i_m_source_file_index>
54

> <r_mmod_Potential_Energy-OPLS-2005>
-104.072341918945

> <r_mmod_Stretch_Energy-OPLS-2005>
42.9874458312988

> <r_mmod_Bend_Energy-OPLS-2005>
115.903800964355

> <r_mmod_Torsional_Energy-OPLS-2005>
187.403518676758

> <r_mmod_Improper_Torsional_Energy-OPLS-2005>
3.67591905593872

> <r_mmod_Van_der_Waal_Energy-OPLS-2005>
127.883674621582

> <r_mmod_Electrostatic_Energy-OPLS-2005>
-342.401000976562

> <r_mmod_Solvation_Energy-OPLS-2005>
-256.838714599609

> <b_mmod_Minimization_Converged-OPLS-2005>
0

> <r_mmod_RMS_Derivative-OPLS-2005>
0.568599164485931

$$$$
55
                    3D
 Structure written by MMmdl.
155163  0  0  1  0            999 V2000
  -30.7165  -14.4854   20.5679 C   0  0  0  0  0  0
  -30.4173  -12.3147   19.4300 C   0  0  0  0  0  0
  -29.4938  -12.5013   18.2095 C   0  0  0  0  0  0
  -28.0162  -12.3592   18.6231 C   0  0  0  0  0  0
  -27.6589  -13.2108   19.8709 C   0  0  2  0  0  0
  -28.7011  -13.0194   20.9967 C   0  0  0  0  0  0
  -25.2580  -13.8169   20.5684 C   0  0  0  0  0  0
  -24.1837  -13.0443   20.9191 C   0  0  0  0  0  0
  -24.6394  -11.6909   20.8742 C   0  0  0  0  0  0
  -23.9062  -10.4295   21.0408 C   0  0  0  0  0  0
  -24.3614   -9.4209   21.9187 C   0  0  0  0  0  0
  -23.6291   -8.2244   22.0755 C   0  0  0  0  0  0
  -22.4273   -8.0282   21.3546 C   0  0  0  0  0  0
  -21.9909   -9.0255   20.4648 C   0  0  0  0  0  0
  -22.7235  -10.2137   20.3057 C   0  0  0  0  0  0
  -21.6854   -6.0737   22.5281 C   0  0  0  0  0  0
  -21.4012   -6.5640   23.8214 C   0  0  0  0  0  0
  -21.3657   -5.6792   24.9175 C   0  0  0  0  0  0
  -21.6044   -4.3055   24.7226 C   0  0  0  0  0  0
  -21.8819   -3.8148   23.4347 C   0  0  0  0  0  0
  -21.9192   -4.6965   22.3403 C   0  0  0  0  0  0
  -22.7859  -13.5243   21.1847 C   0  0  0  0  0  0
  -22.1663   -4.2151   21.0981 F   0  0  0  0  0  0
  -21.5627   -3.4539   25.7739 F   0  0  0  0  0  0
  -30.0303  -13.3158   20.4388 N   0  0  0  0  0  0
  -26.3013  -12.9344   20.3353 N   0  0  0  0  0  0
  -25.9323  -11.6503   20.5769 N   0  0  0  0  0  0
  -22.0493  -12.8236   22.0396 N   0  0  0  0  0  0
  -25.4298  -15.1885   20.4075 N   0  0  0  0  0  0
  -31.8448  -14.6332   20.0910 O   0  0  0  0  0  0
  -21.6639   -6.8879   21.4242 O   0  0  0  0  0  0
  -22.3552  -14.5553   20.6694 O   0  0  0  0  0  0
  -24.6160  -31.8667   23.2093 C   0  0  0  0  0  0
  -25.9046  -32.4816   23.8394 C   0  0  1  0  0  0
  -27.2300  -27.4251   20.1017 C   0  0  0  0  0  0
  -25.5898  -33.8614   24.2325 N   0  0  0  0  0  0
  -23.4053  -30.4907   21.5493 C   0  0  2  0  0  0
  -24.8535  -28.9585   20.1104 C   0  0  0  0  0  0
  -22.7425  -29.4651   22.4973 C   0  0  0  0  0  0
  -18.0274  -28.1379   22.8491 C   0  0  0  0  0  0
  -24.1485  -36.7313   23.2638 C   0  0  0  0  0  0
  -25.9355  -30.8318   21.3630 C   0  0  0  0  0  0
  -26.0151  -29.4666   20.7076 C   0  0  0  0  0  0
  -27.2109  -28.7084   20.6979 C   0  0  0  0  0  0
  -26.0566  -26.9395   19.4869 C   0  0  0  0  0  0
  -24.8700  -27.6957   19.4936 C   0  0  0  0  0  0
  -23.6147  -29.8248   20.1632 C   0  0  0  0  0  0
  -25.4104  -36.3106   24.0339 C   0  0  1  0  0  0
  -20.5868  -28.3665   23.1312 C   0  0  2  0  0  0
  -20.6762  -26.9398   22.5414 C   0  0  0  0  0  0
  -19.5739  -26.6387   21.5211 C   0  0  0  0  0  0
  -18.1920  -26.7926   22.1625 C   0  0  0  0  0  0
  -19.1526  -28.8839   23.2899 C   0  0  0  0  0  0
  -18.9451  -30.1446   23.8908 C   0  0  0  0  0  0
  -17.6452  -30.6583   24.0567 C   0  0  0  0  0  0
  -25.9031  -34.9471   23.5129 C   0  0  0  0  0  0
  -16.5342  -29.9084   23.6331 C   0  0  0  0  0  0
  -16.7263  -28.6504   23.0347 C   0  0  0  0  0  0
  -26.4472  -31.6593   25.0720 C   0  0  0  0  0  0
  -25.3742  -31.3698   26.1473 C   0  0  0  0  0  0
  -27.0300  -30.3035   24.6091 C   0  0  0  0  0  0
  -27.6051  -32.4309   25.7484 C   0  0  0  0  0  0
  -27.5579  -37.1811   24.8465 C   0  0  0  0  0  0
  -21.4149  -29.3031   22.3718 N   0  0  0  0  0  0
  -26.4291  -37.3790   23.9410 N   0  0  0  0  0  0
  -24.6707  -31.0767   22.0994 N   0  0  0  0  0  0
  -23.4195  -28.8187   23.3012 O   0  0  0  0  0  0
  -28.3496  -26.6217   20.1408 O   0  0  0  0  0  0
  -26.5594  -34.8921   22.4690 O   0  0  0  0  0  0
  -23.5349  -32.1413   23.7484 O   0  0  0  0  0  0
  -31.8212  -17.2324   21.4479 C   0  0  0  0  0  0
  -32.2149  -18.5765   21.5727 C   0  0  0  0  0  0
  -29.5097  -17.9472   21.1731 C   0  0  0  0  0  0
  -29.8948  -19.3131   21.3171 C   0  0  0  0  0  0
  -30.4637  -16.8932   21.2277 C   0  0  0  0  0  0
  -31.2655  -19.6118   21.5066 C   0  0  0  0  0  0
  -28.8799  -20.3961   21.3277 C   0  0  0  0  0  0
  -28.8313  -24.1712   20.4771 C   0  0  0  0  0  0
  -28.2178  -22.8351   20.9536 C   0  0  0  0  0  0
  -28.1498  -25.4636   20.9858 C   0  0  0  0  0  0
  -30.0341  -15.5246   21.1044 N   0  0  0  0  0  0
  -29.1193  -21.6489   20.8779 N   0  0  0  0  0  0
  -27.6686  -20.1425   21.8296 N   0  3  0  0  0  0
  -29.8341  -24.1891   19.7529 O   0  0  0  0  0  0
  -31.6893  -20.8932   21.6398 F   0  0  0  0  0  0
  -31.4628  -12.4003   19.1282 H   0  0  0  0  0  0
  -30.3105  -11.3095   19.8407 H   0  0  0  0  0  0
  -29.7371  -11.7704   17.4372 H   0  0  0  0  0  0
  -29.6608  -13.4834   17.7643 H   0  0  0  0  0  0
  -27.8326  -11.3045   18.8311 H   0  0  0  0  0  0
  -27.3638  -12.6205   17.7892 H   0  0  0  0  0  0
  -27.6954  -14.2544   19.5574 H   0  0  0  0  0  0
  -28.6795  -11.9925   21.3648 H   0  0  0  0  0  0
  -28.4623  -13.6437   21.8588 H   0  0  0  0  0  0
  -25.2762   -9.5686   22.4760 H   0  0  0  0  0  0
  -24.0003   -7.4637   22.7472 H   0  0  0  0  0  0
  -21.0843   -8.8773   19.8954 H   0  0  0  0  0  0
  -22.3696  -10.9673   19.6163 H   0  0  0  0  0  0
  -21.2004   -7.6148   23.9717 H   0  0  0  0  0  0
  -21.1478   -6.0523   25.9078 H   0  0  0  0  0  0
  -22.0599   -2.7611   23.2847 H   0  0  0  0  0  0
  -22.4099  -11.9892   22.4781 H   0  0  0  0  0  0
  -21.1111  -13.1266   22.2596 H   0  0  0  0  0  0
  -24.6576  -15.8395   20.5002 H   0  0  0  0  0  0
  -26.2710  -15.6217   20.0488 H   0  0  0  0  0  0
  -26.7118  -32.5529   23.1161 H   0  0  0  0  0  0
  -25.0060  -33.9774   25.0478 H   0  0  0  0  0  0
  -22.6945  -31.3083   21.4107 H   0  0  0  0  0  0
  -23.3740  -35.9654   23.3307 H   0  0  0  0  0  0
  -24.3578  -36.8916   22.2050 H   0  0  0  0  0  0
  -23.7245  -37.6524   23.6645 H   0  0  0  0  0  0
  -26.0479  -31.5989   20.5954 H   0  0  0  0  0  0
  -26.8232  -30.8849   21.9816 H   0  0  0  0  0  0
  -28.1055  -29.0906   21.1697 H   0  0  0  0  0  0
  -26.0554  -25.9672   19.0141 H   0  0  0  0  0  0
  -23.9784  -27.3011   19.0259 H   0  0  0  0  0  0
  -23.7226  -30.6004   19.4042 H   0  0  0  0  0  0
  -22.7387  -29.2448   19.8672 H   0  0  0  0  0  0
  -25.1280  -36.1974   25.0833 H   0  0  0  0  0  0
  -20.9964  -28.3227   24.1430 H   0  0  0  0  0  0
  -20.5663  -26.2269   23.3599 H   0  0  0  0  0  0
  -21.6633  -26.7440   22.1211 H   0  0  0  0  0  0
  -19.6897  -25.6302   21.1228 H   0  0  0  0  0  0
  -19.6678  -27.3210   20.6751 H   0  0  0  0  0  0
  -17.4192  -26.6678   21.4024 H   0  0  0  0  0  0
  -18.0318  -26.0065   22.9018 H   0  0  0  0  0  0
  -19.7926  -30.7262   24.2278 H   0  0  0  0  0  0
  -17.5007  -31.6264   24.5167 H   0  0  0  0  0  0
  -15.5343  -30.2987   23.7648 H   0  0  0  0  0  0
  -15.8664  -28.0829   22.7048 H   0  0  0  0  0  0
  -24.5911  -30.7047   25.7816 H   0  0  0  0  0  0
  -24.8937  -32.2851   26.4939 H   0  0  0  0  0  0
  -25.8100  -30.8859   27.0222 H   0  0  0  0  0  0
  -26.2841  -29.6800   24.1148 H   0  0  0  0  0  0
  -27.4074  -29.7267   25.4544 H   0  0  0  0  0  0
  -27.8675  -30.4355   23.9236 H   0  0  0  0  0  0
  -27.2677  -33.3601   26.2092 H   0  0  0  0  0  0
  -28.3850  -32.6881   25.0305 H   0  0  0  0  0  0
  -28.0731  -31.8412   26.5376 H   0  0  0  0  0  0
  -28.2605  -38.0102   24.7511 H   0  0  0  0  0  0
  -28.1067  -36.2633   24.6291 H   0  0  0  0  0  0
  -27.2298  -37.1471   25.8869 H   0  0  0  0  0  0
  -20.9308  -29.8761   21.6949 H   0  0  0  0  0  0
  -26.0178  -38.2868   24.1408 H   0  0  0  0  0  0
  -32.5850  -16.4741   21.5331 H   0  0  0  0  0  0
  -33.2554  -18.8166   21.7324 H   0  0  0  0  0  0
  -28.4680  -17.7046   21.0192 H   0  0  0  0  0  0
  -27.3226  -22.6478   20.3596 H   0  0  0  0  0  0
  -27.8898  -22.9690   21.9852 H   0  0  0  0  0  0
  -28.5491  -25.6890   21.9745 H   0  0  0  0  0  0
  -27.0907  -25.2459   21.1287 H   0  0  0  0  0  0
  -29.0772  -15.3241   21.3504 H   0  0  0  0  0  0
  -30.0568  -21.8496   20.5407 H   0  0  0  0  0  0
  -27.4876  -19.2443   22.2520 H   0  0  0  0  0  0
  -26.9260  -20.8194   21.8248 H   0  0  0  0  0  0
  1 25  1  0  0  0
  1 30  2  0  0  0
  1 81  1  0  0  0
  2  3  1  0  0  0
  2 25  1  0  0  0
  2 86  1  0  0  0
  2 87  1  0  0  0
  3  4  1  0  0  0
  3 88  1  0  0  0
  3 89  1  0  0  0
  4  5  1  0  0  0
  4 90  1  0  0  0
  4 91  1  0  0  0
  5  6  1  0  0  0
  5 26  1  0  0  0
  5 92  1  0  0  0
  6 25  1  0  0  0
  6 93  1  0  0  0
  6 94  1  0  0  0
  7  8  2  0  0  0
  7 26  1  0  0  0
  7 29  1  0  0  0
  8  9  1  0  0  0
  8 22  1  0  0  0
  9 10  1  0  0  0
  9 27  2  0  0  0
 10 11  2  0  0  0
 10 15  1  0  0  0
 11 12  1  0  0  0
 11 95  1  0  0  0
 12 13  2  0  0  0
 12 96  1  0  0  0
 13 14  1  0  0  0
 13 31  1  0  0  0
 14 15  2  0  0  0
 14 97  1  0  0  0
 15 98  1  0  0  0
 16 17  2  0  0  0
 16 21  1  0  0  0
 16 31  1  0  0  0
 17 18  1  0  0  0
 17 99  1  0  0  0
 18 19  2  0  0  0
 18100  1  0  0  0
 19 20  1  0  0  0
 19 24  1  0  0  0
 20 21  2  0  0  0
 20101  1  0  0  0
 21 23  1  0  0  0
 22 28  1  0  0  0
 22 32  2  0  0  0
 26 27  1  0  0  0
 28102  1  0  0  0
 28103  1  0  0  0
 29104  1  0  0  0
 29105  1  0  0  0
 33 34  1  0  0  0
 33 66  1  0  0  0
 33 70  2  0  0  0
 34 36  1  0  0  0
 34 59  1  0  0  0
 34106  1  0  0  0
 35 44  2  0  0  0
 35 45  1  0  0  0
 35 68  1  0  0  0
 36 56  1  0  0  0
 36107  1  0  0  0
 37 39  1  0  0  0
 37 47  1  0  0  0
 37 66  1  0  0  0
 37108  1  0  0  0
 38 43  2  0  0  0
 38 46  1  0  0  0
 38 47  1  0  0  0
 39 64  1  0  0  0
 39 67  2  0  0  0
 40 52  1  0  0  0
 40 53  2  0  0  0
 40 58  1  0  0  0
 41109  1  0  0  0
 41110  1  0  0  0
 41111  1  0  0  0
 41 48  1  0  0  0
 42 43  1  0  0  0
 42 66  1  0  0  0
 42112  1  0  0  0
 42113  1  0  0  0
 43 44  1  0  0  0
 44114  1  0  0  0
 45 46  2  0  0  0
 45115  1  0  0  0
 46116  1  0  0  0
 47117  1  0  0  0
 47118  1  0  0  0
 48 56  1  0  0  0
 48 65  1  0  0  0
 48119  1  0  0  0
 49 50  1  0  0  0
 49 53  1  0  0  0
 49 64  1  0  0  0
 49120  1  0  0  0
 50 51  1  0  0  0
 50121  1  0  0  0
 50122  1  0  0  0
 51 52  1  0  0  0
 51123  1  0  0  0
 51124  1  0  0  0
 52125  1  0  0  0
 52126  1  0  0  0
 53 54  1  0  0  0
 54 55  2  0  0  0
 54127  1  0  0  0
 55 57  1  0  0  0
 55128  1  0  0  0
 56 69  2  0  0  0
 57 58  2  0  0  0
 57129  1  0  0  0
 58130  1  0  0  0
 59 60  1  0  0  0
 59 61  1  0  0  0
 59 62  1  0  0  0
 60131  1  0  0  0
 60132  1  0  0  0
 60133  1  0  0  0
 61134  1  0  0  0
 61135  1  0  0  0
 61136  1  0  0  0
 62137  1  0  0  0
 62138  1  0  0  0
 62139  1  0  0  0
 63 65  1  0  0  0
 63140  1  0  0  0
 63141  1  0  0  0
 63142  1  0  0  0
 64143  1  0  0  0
 65144  1  0  0  0
 68 80  1  0  0  0
 71 72  2  0  0  0
 71 75  1  0  0  0
 71145  1  0  0  0
 72 76  1  0  0  0
 72146  1  0  0  0
 73 74  1  0  0  0
 73 75  2  0  0  0
 73147  1  0  0  0
 74 76  2  0  0  0
 74 77  1  0  0  0
 75 81  1  0  0  0
 76 85  1  0  0  0
 77 82  1  0  0  0
 77 83  2  0  0  0
 78 79  1  0  0  0
 78 80  1  0  0  0
 78 84  2  0  0  0
 79 82  1  0  0  0
 79148  1  0  0  0
 79149  1  0  0  0
 80150  1  0  0  0
 80151  1  0  0  0
 81152  1  0  0  0
 82153  1  0  0  0
 83154  1  0  0  0
 83155  1  0  0  0
M  CHG  1  83   1
M  ISO  4   1 100  68 101  80 101  81 100
M  END
> <chiral flag>
0

> <version>
0

> <s_m_source_file>
/data/baiqing/PycharmProjects/Reinvent-master-3.2/result/LINK_invent/BTK/process_docking_weight1_custom_product_contain_oxygen_bond_distance_aromatic_linkinvent_7_9_3/rearranged_h_0165.sdf

> <i_m_source_file_index>
55

> <r_mmod_Potential_Energy-OPLS-2005>
-294.588165283203

> <r_mmod_Stretch_Energy-OPLS-2005>
42.9088859558105

> <r_mmod_Bend_Energy-OPLS-2005>
95.2397842407227

> <r_mmod_Torsional_Energy-OPLS-2005>
232.98957824707

> <r_mmod_Improper_Torsional_Energy-OPLS-2005>
4.07881832122803

> <r_mmod_Van_der_Waal_Energy-OPLS-2005>
159.099060058594

> <r_mmod_Electrostatic_Energy-OPLS-2005>
-396.502807617188

> <r_mmod_Solvation_Energy-OPLS-2005>
-448.963256835938

> <b_mmod_Minimization_Converged-OPLS-2005>
0

> <r_mmod_RMS_Derivative-OPLS-2005>
0.510173261165619

$$$$
56
                    3D
 Structure written by MMmdl.
164173  0  0  1  0            999 V2000
  -30.6226  -14.6728   20.4556 C   0  0  0  0  0  0
  -30.4263  -12.4032   19.4759 C   0  0  0  0  0  0
  -29.5097  -12.5020   18.2351 C   0  0  0  0  0  0
  -28.0330  -12.3404   18.6427 C   0  0  0  0  0  0
  -27.6470  -13.2264   19.8578 C   0  0  2  0  0  0
  -28.6857  -13.1235   20.9962 C   0  0  0  0  0  0
  -25.2555  -13.8189   20.5715 C   0  0  0  0  0  0
  -24.1835  -13.0430   20.9220 C   0  0  0  0  0  0
  -24.6417  -11.6913   20.8752 C   0  0  0  0  0  0
  -23.9070  -10.4296   21.0421 C   0  0  0  0  0  0
  -24.3619   -9.4207   21.9201 C   0  0  0  0  0  0
  -23.6289   -8.2242   22.0763 C   0  0  0  0  0  0
  -22.4278   -8.0285   21.3542 C   0  0  0  0  0  0
  -21.9914   -9.0265   20.4649 C   0  0  0  0  0  0
  -22.7247  -10.2156   20.3066 C   0  0  0  0  0  0
  -21.6848   -6.0732   22.5275 C   0  0  0  0  0  0
  -21.4005   -6.5636   23.8217 C   0  0  0  0  0  0
  -21.3674   -5.6790   24.9176 C   0  0  0  0  0  0
  -21.6049   -4.3049   24.7237 C   0  0  0  0  0  0
  -21.8821   -3.8136   23.4356 C   0  0  0  0  0  0
  -21.9188   -4.6955   22.3411 C   0  0  0  0  0  0
  -22.7858  -13.5209   21.1865 C   0  0  0  0  0  0
  -22.1666   -4.2131   21.0993 F   0  0  0  0  0  0
  -21.5627   -3.4542   25.7761 F   0  0  0  0  0  0
  -29.9999  -13.4491   20.4302 N   0  0  0  0  0  0
  -26.2961  -12.9386   20.3281 N   0  0  0  0  0  0
  -25.9323  -11.6526   20.5712 N   0  0  0  0  0  0
  -22.0485  -12.8212   22.0431 N   0  0  0  0  0  0
  -25.4228  -15.1923   20.4187 N   0  0  0  0  0  0
  -31.8069  -14.7720   20.1127 O   0  0  0  0  0  0
  -21.6637   -6.8884   21.4244 O   0  0  0  0  0  0
  -22.3567  -14.5508   20.6719 O   0  0  0  0  0  0
  -24.6259  -31.8587   23.2011 C   0  0  0  0  0  0
  -25.9115  -32.4771   23.8344 C   0  0  1  0  0  0
  -27.2227  -27.3157   20.1249 C   0  0  0  0  0  0
  -25.5929  -33.8575   24.2273 N   0  0  0  0  0  0
  -23.4206  -30.4804   21.5429 C   0  0  2  0  0  0
  -24.8701  -28.9331   20.1116 C   0  0  0  0  0  0
  -22.7474  -29.4614   22.4928 C   0  0  0  0  0  0
  -18.0293  -28.1372   22.8486 C   0  0  0  0  0  0
  -24.1487  -36.7281   23.2640 C   0  0  0  0  0  0
  -25.9620  -30.7892   21.3730 C   0  0  0  0  0  0
  -26.0397  -29.4159   20.7157 C   0  0  0  0  0  0
  -27.2246  -28.6177   20.7127 C   0  0  0  0  0  0
  -26.0389  -26.8837   19.4978 C   0  0  0  0  0  0
  -24.8713  -27.6721   19.4929 C   0  0  0  0  0  0
  -23.6365  -29.8136   20.1592 C   0  0  0  0  0  0
  -25.4114  -36.3078   24.0329 C   0  0  1  0  0  0
  -20.5892  -28.3681   23.1283 C   0  0  2  0  0  0
  -20.6783  -26.9404   22.5411 C   0  0  0  0  0  0
  -19.5761  -26.6375   21.5211 C   0  0  0  0  0  0
  -18.1939  -26.7913   22.1621 C   0  0  0  0  0  0
  -19.1544  -28.8841   23.2875 C   0  0  0  0  0  0
  -18.9468  -30.1444   23.8893 C   0  0  0  0  0  0
  -17.6471  -30.6579   24.0563 C   0  0  0  0  0  0
  -25.9052  -34.9450   23.5094 C   0  0  0  0  0  0
  -16.5360  -29.9080   23.6336 C   0  0  0  0  0  0
  -16.7283  -28.6494   23.0360 C   0  0  0  0  0  0
  -26.4500  -31.6581   25.0710 C   0  0  0  0  0  0
  -25.3733  -31.3746   26.1438 C   0  0  0  0  0  0
  -27.0337  -30.2997   24.6175 C   0  0  0  0  0  0
  -27.6062  -32.4311   25.7477 C   0  0  0  0  0  0
  -27.5580  -37.1791   24.8464 C   0  0  0  0  0  0
  -21.4185  -29.3026   22.3666 N   0  0  0  0  0  0
  -26.4291  -37.3775   23.9410 N   0  0  0  0  0  0
  -24.6882  -31.0597   22.0962 N   0  0  0  0  0  0
  -23.4193  -28.8164   23.3028 O   0  0  0  0  0  0
  -28.2991  -26.4185   20.1514 O   0  0  0  0  0  0
  -26.5628  -34.8922   22.4664 O   0  0  0  0  0  0
  -23.5419  -32.1401   23.7327 O   0  0  0  0  0  0
  -29.8881  -16.8435   18.4890 C   0  0  0  0  0  0
  -29.7149  -17.9385   17.6558 C   0  0  0  0  0  0
  -29.7732  -17.0208   19.8814 C   0  0  0  0  0  0
  -29.3411  -19.3343   19.4372 C   0  0  0  0  0  0
  -30.1735  -21.7719   20.3237 C   0  0  0  0  0  0
  -27.6920  -21.2663   20.4269 C   0  0  0  0  0  0
  -29.8473  -23.3250   20.2651 C   0  0  0  0  0  0
  -27.4050  -22.8188   20.3355 C   0  0  0  0  0  0
  -29.0385  -20.8629   19.7752 C   0  0  2  0  0  0
  -28.5117  -23.7329   20.9604 C   0  0  2  0  0  0
  -27.7572  -23.3445   23.2827 C   0  0  0  0  0  0
  -28.1612  -25.3152   21.1253 C   0  0  0  0  0  0
  -29.4612  -19.1536   18.1239 N   0  0  0  0  0  0
  -29.4767  -18.3073   20.3348 N   0  0  0  0  0  0
  -29.8001  -17.8214   16.2794 N   0  0  0  0  0  0
  -29.8510  -15.7941   20.6874 N   0  0  0  0  0  0
  -28.7760  -23.2477   22.2876 O   0  0  0  0  0  0
  -31.4715  -12.5055   19.1809 H   0  0  0  0  0  0
  -30.3476  -11.4184   19.9386 H   0  0  0  0  0  0
  -29.7814  -11.7411   17.5024 H   0  0  0  0  0  0
  -29.6515  -13.4632   17.7389 H   0  0  0  0  0  0
  -27.8744  -11.2887   18.8864 H   0  0  0  0  0  0
  -27.3857  -12.5586   17.7924 H   0  0  0  0  0  0
  -27.6541  -14.2566   19.5008 H   0  0  0  0  0  0
  -28.6940  -12.1174   21.4180 H   0  0  0  0  0  0
  -28.4276  -13.7930   21.8183 H   0  0  0  0  0  0
  -25.2759   -9.5673   22.4781 H   0  0  0  0  0  0
  -23.9979   -7.4626   22.7494 H   0  0  0  0  0  0
  -21.0831   -8.8793   19.8971 H   0  0  0  0  0  0
  -22.3689  -10.9706   19.6180 H   0  0  0  0  0  0
  -21.1995   -7.6143   23.9718 H   0  0  0  0  0  0
  -21.1496   -6.0520   25.9083 H   0  0  0  0  0  0
  -22.0584   -2.7590   23.2868 H   0  0  0  0  0  0
  -22.4044  -11.9846   22.4821 H   0  0  0  0  0  0
  -21.1116  -13.1271   22.2621 H   0  0  0  0  0  0
  -24.6529  -15.8424   20.5331 H   0  0  0  0  0  0
  -26.2611  -15.6312   20.0600 H   0  0  0  0  0  0
  -26.7181  -32.5448   23.1094 H   0  0  0  0  0  0
  -25.0055  -33.9719   25.0402 H   0  0  0  0  0  0
  -22.7139  -31.3003   21.3992 H   0  0  0  0  0  0
  -23.3752  -35.9609   23.3298 H   0  0  0  0  0  0
  -24.3578  -36.8906   22.2056 H   0  0  0  0  0  0
  -23.7237  -37.6478   23.6666 H   0  0  0  0  0  0
  -26.0941  -31.5547   20.6066 H   0  0  0  0  0  0
  -26.8411  -30.8368   22.0045 H   0  0  0  0  0  0
  -28.1212  -28.9817   21.1947 H   0  0  0  0  0  0
  -26.0121  -25.9083   19.0340 H   0  0  0  0  0  0
  -23.9761  -27.2943   19.0186 H   0  0  0  0  0  0
  -23.7523  -30.5909   19.4027 H   0  0  0  0  0  0
  -22.7567  -29.2415   19.8588 H   0  0  0  0  0  0
  -25.1293  -36.1920   25.0821 H   0  0  0  0  0  0
  -20.9987  -28.3261   24.1403 H   0  0  0  0  0  0
  -20.5678  -26.2292   23.3608 H   0  0  0  0  0  0
  -21.6654  -26.7423   22.1214 H   0  0  0  0  0  0
  -19.6920  -25.6288   21.1235 H   0  0  0  0  0  0
  -19.6700  -27.3189   20.6743 H   0  0  0  0  0  0
  -17.4207  -26.6665   21.4024 H   0  0  0  0  0  0
  -18.0339  -26.0054   22.9018 H   0  0  0  0  0  0
  -19.7945  -30.7256   24.2262 H   0  0  0  0  0  0
  -17.5029  -31.6261   24.5156 H   0  0  0  0  0  0
  -15.5362  -30.2982   23.7652 H   0  0  0  0  0  0
  -15.8687  -28.0809   22.7080 H   0  0  0  0  0  0
  -24.5883  -30.7123   25.7772 H   0  0  0  0  0  0
  -24.8961  -32.2931   26.4866 H   0  0  0  0  0  0
  -25.8048  -30.8912   27.0213 H   0  0  0  0  0  0
  -26.2914  -29.6737   24.1210 H   0  0  0  0  0  0
  -27.4036  -29.7264   25.4687 H   0  0  0  0  0  0
  -27.8783  -30.4266   23.9399 H   0  0  0  0  0  0
  -27.2678  -33.3617   26.2048 H   0  0  0  0  0  0
  -28.3883  -32.6861   25.0311 H   0  0  0  0  0  0
  -28.0718  -31.8435   26.5400 H   0  0  0  0  0  0
  -28.2599  -38.0089   24.7517 H   0  0  0  0  0  0
  -28.1075  -36.2619   24.6278 H   0  0  0  0  0  0
  -27.2298  -37.1424   25.8869 H   0  0  0  0  0  0
  -20.9351  -29.8738   21.6871 H   0  0  0  0  0  0
  -26.0164  -38.2841   24.1427 H   0  0  0  0  0  0
  -30.0916  -15.8731   18.0593 H   0  0  0  0  0  0
  -30.4024  -21.4714   21.3457 H   0  0  0  0  0  0
  -31.0756  -21.5823   19.7434 H   0  0  0  0  0  0
  -26.8868  -20.7297   19.9265 H   0  0  0  0  0  0
  -27.6815  -20.9347   21.4651 H   0  0  0  0  0  0
  -29.8161  -23.6514   19.2248 H   0  0  0  0  0  0
  -30.6700  -23.8733   20.7241 H   0  0  0  0  0  0
  -26.4386  -23.0344   20.7884 H   0  0  0  0  0  0
  -27.2881  -23.0942   19.2859 H   0  0  0  0  0  0
  -28.9020  -21.2872   18.7777 H   0  0  0  0  0  0
  -28.0894  -22.8123   24.1741 H   0  0  0  0  0  0
  -26.8162  -22.8899   22.9755 H   0  0  0  0  0  0
  -27.5682  -24.3754   23.5818 H   0  0  0  0  0  0
  -28.7999  -25.6672   21.9356 H   0  0  0  0  0  0
  -27.1559  -25.3658   21.5452 H   0  0  0  0  0  0
  -29.7192  -16.8992   15.8677 H   0  0  0  0  0  0
  -29.3827  -18.5548   15.7213 H   0  0  0  0  0  0
  -29.0331  -15.6267   21.2505 H   0  0  0  0  0  0
  1 25  1  0  0  0
  1 30  2  0  0  0
  1 86  1  0  0  0
  2  3  1  0  0  0
  2 25  1  0  0  0
  2 88  1  0  0  0
  2 89  1  0  0  0
  3  4  1  0  0  0
  3 90  1  0  0  0
  3 91  1  0  0  0
  4  5  1  0  0  0
  4 92  1  0  0  0
  4 93  1  0  0  0
  5  6  1  0  0  0
  5 26  1  0  0  0
  5 94  1  0  0  0
  6 25  1  0  0  0
  6 95  1  0  0  0
  6 96  1  0  0  0
  7  8  2  0  0  0
  7 26  1  0  0  0
  7 29  1  0  0  0
  8  9  1  0  0  0
  8 22  1  0  0  0
  9 10  1  0  0  0
  9 27  2  0  0  0
 10 11  2  0  0  0
 10 15  1  0  0  0
 11 12  1  0  0  0
 11 97  1  0  0  0
 12 13  2  0  0  0
 12 98  1  0  0  0
 13 14  1  0  0  0
 13 31  1  0  0  0
 14 15  2  0  0  0
 14 99  1  0  0  0
 15100  1  0  0  0
 16 17  2  0  0  0
 16 21  1  0  0  0
 16 31  1  0  0  0
 17 18  1  0  0  0
 17101  1  0  0  0
 18 19  2  0  0  0
 18102  1  0  0  0
 19 20  1  0  0  0
 19 24  1  0  0  0
 20 21  2  0  0  0
 20103  1  0  0  0
 21 23  1  0  0  0
 22 28  1  0  0  0
 22 32  2  0  0  0
 26 27  1  0  0  0
 28104  1  0  0  0
 28105  1  0  0  0
 29106  1  0  0  0
 29107  1  0  0  0
 33 34  1  0  0  0
 33 66  1  0  0  0
 33 70  2  0  0  0
 34 36  1  0  0  0
 34 59  1  0  0  0
 34108  1  0  0  0
 35 44  2  0  0  0
 35 45  1  0  0  0
 35 68  1  0  0  0
 36 56  1  0  0  0
 36109  1  0  0  0
 37 39  1  0  0  0
 37 47  1  0  0  0
 37 66  1  0  0  0
 37110  1  0  0  0
 38 43  2  0  0  0
 38 46  1  0  0  0
 38 47  1  0  0  0
 39 64  1  0  0  0
 39 67  2  0  0  0
 40 52  1  0  0  0
 40 53  2  0  0  0
 40 58  1  0  0  0
 41111  1  0  0  0
 41112  1  0  0  0
 41113  1  0  0  0
 41 48  1  0  0  0
 42 43  1  0  0  0
 42 66  1  0  0  0
 42114  1  0  0  0
 42115  1  0  0  0
 43 44  1  0  0  0
 44116  1  0  0  0
 45 46  2  0  0  0
 45117  1  0  0  0
 46118  1  0  0  0
 47119  1  0  0  0
 47120  1  0  0  0
 48 56  1  0  0  0
 48 65  1  0  0  0
 48121  1  0  0  0
 49 50  1  0  0  0
 49 53  1  0  0  0
 49 64  1  0  0  0
 49122  1  0  0  0
 50 51  1  0  0  0
 50123  1  0  0  0
 50124  1  0  0  0
 51 52  1  0  0  0
 51125  1  0  0  0
 51126  1  0  0  0
 52127  1  0  0  0
 52128  1  0  0  0
 53 54  1  0  0  0
 54 55  2  0  0  0
 54129  1  0  0  0
 55 57  1  0  0  0
 55130  1  0  0  0
 56 69  2  0  0  0
 57 58  2  0  0  0
 57131  1  0  0  0
 58132  1  0  0  0
 59 60  1  0  0  0
 59 61  1  0  0  0
 59 62  1  0  0  0
 60133  1  0  0  0
 60134  1  0  0  0
 60135  1  0  0  0
 61136  1  0  0  0
 61137  1  0  0  0
 61138  1  0  0  0
 62139  1  0  0  0
 62140  1  0  0  0
 62141  1  0  0  0
 63 65  1  0  0  0
 63142  1  0  0  0
 63143  1  0  0  0
 63144  1  0  0  0
 64145  1  0  0  0
 65146  1  0  0  0
 68 82  1  0  0  0
 71 72  2  0  0  0
 71 73  1  0  0  0
 71147  1  0  0  0
 72 83  1  0  0  0
 72 85  1  0  0  0
 73 84  2  0  0  0
 73 86  1  0  0  0
 74 83  2  0  0  0
 74 84  1  0  0  0
 74 79  1  0  0  0
 75 77  1  0  0  0
 75 79  1  0  0  0
 75148  1  0  0  0
 75149  1  0  0  0
 76 78  1  0  0  0
 76 79  1  0  0  0
 76150  1  0  0  0
 76151  1  0  0  0
 77 80  1  0  0  0
 77152  1  0  0  0
 77153  1  0  0  0
 78 80  1  0  0  0
 78154  1  0  0  0
 78155  1  0  0  0
 79156  1  0  0  0
 80 82  1  0  0  0
 80 87  1  0  0  0
 81 87  1  0  0  0
 81157  1  0  0  0
 81158  1  0  0  0
 81159  1  0  0  0
 82160  1  0  0  0
 82161  1  0  0  0
 85162  1  0  0  0
 85163  1  0  0  0
 86164  1  0  0  0
M  ISO  4   1 100  68 101  82 101  86 100
M  END
> <chiral flag>
0

> <version>
0

> <s_m_source_file>
/data/baiqing/PycharmProjects/Reinvent-master-3.2/result/LINK_invent/BTK/process_docking_weight1_custom_product_contain_oxygen_bond_distance_aromatic_linkinvent_7_9_3/rearranged_h_0165.sdf

> <i_m_source_file_index>
56

> <r_mmod_Potential_Energy-OPLS-2005>
-289.265533447266

> <r_mmod_Stretch_Energy-OPLS-2005>
99.7009582519531

> <r_mmod_Bend_Energy-OPLS-2005>
203.993515014648

> <r_mmod_Torsional_Energy-OPLS-2005>
284.429290771484

> <r_mmod_Improper_Torsional_Energy-OPLS-2005>
9.19920539855957

> <r_mmod_Van_der_Waal_Energy-OPLS-2005>
153.558807373047

> <r_mmod_Electrostatic_Energy-OPLS-2005>
-857.796142578125

> <r_mmod_Solvation_Energy-OPLS-2005>
-241.75407409668

> <b_mmod_Minimization_Converged-OPLS-2005>
0

> <r_mmod_RMS_Derivative-OPLS-2005>
2.8206160068512

$$$$
57
                    3D
 Structure written by MMmdl.
156164  0  0  1  0            999 V2000
  -30.6632  -14.6661   20.4392 C   0  0  0  0  0  0
  -30.4299  -12.4173   19.4505 C   0  0  0  0  0  0
  -29.5045  -12.5346   18.2215 C   0  0  0  0  0  0
  -28.0208  -12.4026   18.6221 C   0  0  0  0  0  0
  -27.6506  -13.2481   19.8715 C   0  0  2  0  0  0
  -28.7092  -13.1264   20.9945 C   0  0  0  0  0  0
  -25.2490  -13.8210   20.5750 C   0  0  0  0  0  0
  -24.1788  -13.0396   20.9222 C   0  0  0  0  0  0
  -24.6406  -11.6886   20.8750 C   0  0  0  0  0  0
  -23.9081  -10.4240   21.0365 C   0  0  0  0  0  0
  -24.3624   -9.4158   21.9153 C   0  0  0  0  0  0
  -23.6252   -8.2229   22.0795 C   0  0  0  0  0  0
  -22.4245   -8.0248   21.3550 C   0  0  0  0  0  0
  -21.9878   -9.0226   20.4672 C   0  0  0  0  0  0
  -22.7236  -10.2084   20.3042 C   0  0  0  0  0  0
  -21.6828   -6.0701   22.5276 C   0  0  0  0  0  0
  -21.4019   -6.5652   23.8199 C   0  0  0  0  0  0
  -21.3668   -5.6819   24.9185 C   0  0  0  0  0  0
  -21.6056   -4.3085   24.7264 C   0  0  0  0  0  0
  -21.8784   -3.8140   23.4401 C   0  0  0  0  0  0
  -21.9198   -4.6939   22.3412 C   0  0  0  0  0  0
  -22.7804  -13.5161   21.1837 C   0  0  0  0  0  0
  -22.1630   -4.2091   21.0993 F   0  0  0  0  0  0
  -21.5634   -3.4600   25.7818 F   0  0  0  0  0  0
  -30.0189  -13.4558   20.4119 N   0  0  0  0  0  0
  -26.2982  -12.9464   20.3415 N   0  0  0  0  0  0
  -25.9376  -11.6575   20.5846 N   0  0  0  0  0  0
  -22.0455  -12.8157   22.0430 N   0  0  0  0  0  0
  -25.4118  -15.1945   20.4229 N   0  0  0  0  0  0
  -31.8393  -14.7729   20.0803 O   0  0  0  0  0  0
  -21.6641   -6.8838   21.4212 O   0  0  0  0  0  0
  -22.3486  -14.5447   20.6695 O   0  0  0  0  0  0
  -24.6145  -31.8629   23.1995 C   0  0  0  0  0  0
  -25.9028  -32.4830   23.8329 C   0  0  1  0  0  0
  -27.2812  -27.4162   20.0967 C   0  0  0  0  0  0
  -25.5840  -33.8624   24.2274 N   0  0  0  0  0  0
  -23.4121  -30.4716   21.5471 C   0  0  2  0  0  0
  -24.8758  -28.9449   20.0964 C   0  0  0  0  0  0
  -22.7465  -29.4565   22.5031 C   0  0  0  0  0  0
  -18.0239  -28.1384   22.8542 C   0  0  0  0  0  0
  -24.1501  -36.7320   23.2650 C   0  0  0  0  0  0
  -25.9376  -30.8278   21.3552 C   0  0  0  0  0  0
  -26.0240  -29.4581   20.7036 C   0  0  0  0  0  0
  -27.2229  -28.7042   20.6987 C   0  0  0  0  0  0
  -26.1109  -26.9213   19.4816 C   0  0  0  0  0  0
  -24.9200  -27.6821   19.4730 C   0  0  0  0  0  0
  -23.6249  -29.8002   20.1598 C   0  0  0  0  0  0
  -25.4129  -36.3129   24.0333 C   0  0  1  0  0  0
  -20.5858  -28.3633   23.1413 C   0  0  2  0  0  0
  -20.6790  -26.9390   22.5509 C   0  0  0  0  0  0
  -19.5738  -26.6385   21.5316 C   0  0  0  0  0  0
  -18.1880  -26.7930   22.1679 C   0  0  0  0  0  0
  -19.1510  -28.8833   23.2938 C   0  0  0  0  0  0
  -18.9427  -30.1467   23.8907 C   0  0  0  0  0  0
  -17.6403  -30.6578   24.0585 C   0  0  0  0  0  0
  -25.9069  -34.9486   23.5128 C   0  0  0  0  0  0
  -16.5291  -29.9092   23.6336 C   0  0  0  0  0  0
  -16.7229  -28.6539   23.0334 C   0  0  0  0  0  0
  -26.4433  -31.6599   25.0673 C   0  0  0  0  0  0
  -25.3661  -31.3671   26.1395 C   0  0  0  0  0  0
  -27.0244  -30.3038   24.6027 C   0  0  0  0  0  0
  -27.6020  -32.4257   25.7396 C   0  0  0  0  0  0
  -27.5564  -37.1832   24.8442 C   0  0  0  0  0  0
  -21.4173  -29.2967   22.3801 N   0  0  0  0  0  0
  -26.4308  -37.3820   23.9415 N   0  0  0  0  0  0
  -24.6717  -31.0693   22.0922 N   0  0  0  0  0  0
  -23.4204  -28.8102   23.3114 O   0  0  0  0  0  0
  -28.4648  -26.6950   20.1967 O   0  0  0  0  0  0
  -26.5649  -34.8915   22.4692 O   0  0  0  0  0  0
  -23.5359  -32.1330   23.7443 O   0  0  0  0  0  0
  -29.7958  -19.5568   18.6312 C   0  0  0  0  0  0
  -29.4081  -18.3498   18.0203 C   0  0  0  0  0  0
  -30.3682  -18.3157   20.6545 C   0  0  0  0  0  0
  -30.2869  -19.5758   19.9518 C   0  0  0  0  0  0
  -29.9848  -17.0684   20.0396 C   0  0  0  0  0  0
  -29.5071  -17.1215   18.7072 C   0  0  0  0  0  0
  -28.7218  -25.4676   19.5984 C   0  0  0  0  0  0
  -29.2168  -24.4143   20.3079 C   0  0  0  0  0  0
  -29.7134  -23.1660   19.6769 C   0  0  0  0  0  0
  -31.5950  -20.8860   21.7835 C   0  0  0  0  0  0
  -30.8225  -20.9596   20.4562 C   0  0  2  0  0  0
  -29.9347  -15.7814   20.7339 N   0  0  0  0  0  0
  -29.8749  -22.1192   20.5356 N   0  0  0  0  0  0
  -30.0731  -23.0902   18.5015 O   0  0  0  0  0  0
  -29.3201  -24.5483   21.6383 O   0  0  0  0  0  0
  -29.1104  -15.9898   18.0788 F   0  0  0  0  0  0
  -31.4703  -12.5280   19.1379 H   0  0  0  0  0  0
  -30.3541  -11.4316   19.9090 H   0  0  0  0  0  0
  -29.7665  -11.7690   17.4921 H   0  0  0  0  0  0
  -29.6682  -13.4933   17.7286 H   0  0  0  0  0  0
  -27.8224  -11.3522   18.8188 H   0  0  0  0  0  0
  -27.3827  -12.6786   17.7808 H   0  0  0  0  0  0
  -27.6550  -14.2906   19.5516 H   0  0  0  0  0  0
  -28.7309  -12.1152   21.4017 H   0  0  0  0  0  0
  -28.4745  -13.7907   21.8263 H   0  0  0  0  0  0
  -25.2756   -9.5679   22.4745 H   0  0  0  0  0  0
  -23.9972   -7.4676   22.7584 H   0  0  0  0  0  0
  -21.0796   -8.8713   19.9014 H   0  0  0  0  0  0
  -22.3626  -10.9633   19.6181 H   0  0  0  0  0  0
  -21.1983   -7.6166   23.9681 H   0  0  0  0  0  0
  -21.1520   -6.0584   25.9074 H   0  0  0  0  0  0
  -22.0551   -2.7601   23.2956 H   0  0  0  0  0  0
  -22.4116  -11.9791   22.4742 H   0  0  0  0  0  0
  -21.1077  -13.1184   22.2671 H   0  0  0  0  0  0
  -24.6525  -15.8506   20.5743 H   0  0  0  0  0  0
  -26.2620  -15.6400   20.1019 H   0  0  0  0  0  0
  -26.7124  -32.5555   23.1136 H   0  0  0  0  0  0
  -24.9964  -33.9784   25.0377 H   0  0  0  0  0  0
  -22.6985  -31.2805   21.4087 H   0  0  0  0  0  0
  -23.3791  -35.9620   23.3285 H   0  0  0  0  0  0
  -24.3587  -36.8968   22.2070 H   0  0  0  0  0  0
  -23.7220  -37.6492   23.6685 H   0  0  0  0  0  0
  -26.0236  -31.5964   20.5871 H   0  0  0  0  0  0
  -26.8303  -30.9015   21.9625 H   0  0  0  0  0  0
  -28.1094  -29.0945   21.1814 H   0  0  0  0  0  0
  -26.1093  -25.9460   19.0189 H   0  0  0  0  0  0
  -24.0400  -27.2980   18.9720 H   0  0  0  0  0  0
  -23.6968  -30.5771   19.3963 H   0  0  0  0  0  0
  -22.7568  -29.1994   19.8874 H   0  0  0  0  0  0
  -25.1328  -36.1990   25.0836 H   0  0  0  0  0  0
  -20.9883  -28.3196   24.1543 H   0  0  0  0  0  0
  -20.5840  -26.2200   23.3683 H   0  0  0  0  0  0
  -21.6621  -26.7497   22.1189 H   0  0  0  0  0  0
  -19.6905  -25.6307   21.1300 H   0  0  0  0  0  0
  -19.6707  -27.3282   20.6922 H   0  0  0  0  0  0
  -17.4216  -26.6739   21.4010 H   0  0  0  0  0  0
  -18.0180  -26.0041   22.9042 H   0  0  0  0  0  0
  -19.7893  -30.7330   24.2244 H   0  0  0  0  0  0
  -17.4947  -31.6263   24.5187 H   0  0  0  0  0  0
  -15.5313  -30.2997   23.7667 H   0  0  0  0  0  0
  -15.8651  -28.0916   22.6967 H   0  0  0  0  0  0
  -24.5869  -30.7025   25.7638 H   0  0  0  0  0  0
  -24.8845  -32.2859   26.4784 H   0  0  0  0  0  0
  -25.7982  -30.8816   27.0159 H   0  0  0  0  0  0
  -26.2793  -29.6836   24.1074 H   0  0  0  0  0  0
  -27.4000  -29.7233   25.4452 H   0  0  0  0  0  0
  -27.8595  -30.4343   23.9148 H   0  0  0  0  0  0
  -27.2709  -33.3594   26.1936 H   0  0  0  0  0  0
  -28.3850  -32.6739   25.0218 H   0  0  0  0  0  0
  -28.0676  -31.8385   26.5348 H   0  0  0  0  0  0
  -28.2607  -38.0102   24.7532 H   0  0  0  0  0  0
  -28.1049  -36.2665   24.6264 H   0  0  0  0  0  0
  -27.2282  -37.1460   25.8831 H   0  0  0  0  0  0
  -20.9345  -29.8590   21.6929 H   0  0  0  0  0  0
  -26.0193  -38.2881   24.1421 H   0  0  0  0  0  0
  -29.7435  -20.4817   18.0699 H   0  0  0  0  0  0
  -29.0375  -18.3724   17.0082 H   0  0  0  0  0  0
  -30.7429  -18.2968   21.6659 H   0  0  0  0  0  0
  -28.5604  -25.4794   18.5263 H   0  0  0  0  0  0
  -32.2838  -20.0392   21.8047 H   0  0  0  0  0  0
  -30.9210  -20.8099   22.6343 H   0  0  0  0  0  0
  -32.1975  -21.7863   21.9253 H   0  0  0  0  0  0
  -31.5765  -21.2418   19.7183 H   0  0  0  0  0  0
  -29.0244  -15.5550   21.1058 H   0  0  0  0  0  0
  -29.5039  -22.3020   21.4609 H   0  0  0  0  0  0
  -29.1153  -25.4560   21.8382 H   0  0  0  0  0  0
  1 25  1  0  0  0
  1 30  2  0  0  0
  1 82  1  0  0  0
  2  3  1  0  0  0
  2 25  1  0  0  0
  2 87  1  0  0  0
  2 88  1  0  0  0
  3  4  1  0  0  0
  3 89  1  0  0  0
  3 90  1  0  0  0
  4  5  1  0  0  0
  4 91  1  0  0  0
  4 92  1  0  0  0
  5  6  1  0  0  0
  5 26  1  0  0  0
  5 93  1  0  0  0
  6 25  1  0  0  0
  6 94  1  0  0  0
  6 95  1  0  0  0
  7  8  2  0  0  0
  7 26  1  0  0  0
  7 29  1  0  0  0
  8  9  1  0  0  0
  8 22  1  0  0  0
  9 10  1  0  0  0
  9 27  2  0  0  0
 10 11  2  0  0  0
 10 15  1  0  0  0
 11 12  1  0  0  0
 11 96  1  0  0  0
 12 13  2  0  0  0
 12 97  1  0  0  0
 13 14  1  0  0  0
 13 31  1  0  0  0
 14 15  2  0  0  0
 14 98  1  0  0  0
 15 99  1  0  0  0
 16 17  2  0  0  0
 16 21  1  0  0  0
 16 31  1  0  0  0
 17 18  1  0  0  0
 17100  1  0  0  0
 18 19  2  0  0  0
 18101  1  0  0  0
 19 20  1  0  0  0
 19 24  1  0  0  0
 20 21  2  0  0  0
 20102  1  0  0  0
 21 23  1  0  0  0
 22 28  1  0  0  0
 22 32  2  0  0  0
 26 27  1  0  0  0
 28103  1  0  0  0
 28104  1  0  0  0
 29105  1  0  0  0
 29106  1  0  0  0
 33 34  1  0  0  0
 33 66  1  0  0  0
 33 70  2  0  0  0
 34 36  1  0  0  0
 34 59  1  0  0  0
 34107  1  0  0  0
 35 44  2  0  0  0
 35 45  1  0  0  0
 35 68  1  0  0  0
 36 56  1  0  0  0
 36108  1  0  0  0
 37 39  1  0  0  0
 37 47  1  0  0  0
 37 66  1  0  0  0
 37109  1  0  0  0
 38 43  2  0  0  0
 38 46  1  0  0  0
 38 47  1  0  0  0
 39 64  1  0  0  0
 39 67  2  0  0  0
 40 52  1  0  0  0
 40 53  2  0  0  0
 40 58  1  0  0  0
 41110  1  0  0  0
 41111  1  0  0  0
 41112  1  0  0  0
 41 48  1  0  0  0
 42 43  1  0  0  0
 42 66  1  0  0  0
 42113  1  0  0  0
 42114  1  0  0  0
 43 44  1  0  0  0
 44115  1  0  0  0
 45 46  2  0  0  0
 45116  1  0  0  0
 46117  1  0  0  0
 47118  1  0  0  0
 47119  1  0  0  0
 48 56  1  0  0  0
 48 65  1  0  0  0
 48120  1  0  0  0
 49 50  1  0  0  0
 49 53  1  0  0  0
 49 64  1  0  0  0
 49121  1  0  0  0
 50 51  1  0  0  0
 50122  1  0  0  0
 50123  1  0  0  0
 51 52  1  0  0  0
 51124  1  0  0  0
 51125  1  0  0  0
 52126  1  0  0  0
 52127  1  0  0  0
 53 54  1  0  0  0
 54 55  2  0  0  0
 54128  1  0  0  0
 55 57  1  0  0  0
 55129  1  0  0  0
 56 69  2  0  0  0
 57 58  2  0  0  0
 57130  1  0  0  0
 58131  1  0  0  0
 59 60  1  0  0  0
 59 61  1  0  0  0
 59 62  1  0  0  0
 60132  1  0  0  0
 60133  1  0  0  0
 60134  1  0  0  0
 61135  1  0  0  0
 61136  1  0  0  0
 61137  1  0  0  0
 62138  1  0  0  0
 62139  1  0  0  0
 62140  1  0  0  0
 63 65  1  0  0  0
 63141  1  0  0  0
 63142  1  0  0  0
 63143  1  0  0  0
 64144  1  0  0  0
 65145  1  0  0  0
 68 77  1  0  0  0
 71 72  2  0  0  0
 71 74  1  0  0  0
 71146  1  0  0  0
 72 76  1  0  0  0
 72147  1  0  0  0
 73 74  2  0  0  0
 73 75  1  0  0  0
 73148  1  0  0  0
 74 81  1  0  0  0
 75 76  2  0  0  0
 75 82  1  0  0  0
 76 86  1  0  0  0
 77 78  2  0  0  0
 77149  1  0  0  0
 78 79  1  0  0  0
 78 85  1  0  0  0
 79 83  1  0  0  0
 79 84  2  0  0  0
 80150  1  0  0  0
 80151  1  0  0  0
 80152  1  0  0  0
 80 81  1  0  0  0
 81 83  1  0  0  0
 81153  1  0  0  0
 82154  1  0  0  0
 83155  1  0  0  0
 85156  1  0  0  0
M  ISO  4   1 100  68 101  77 101  82 100
M  END
> <chiral flag>
0

> <version>
0

> <s_m_source_file>
/data/baiqing/PycharmProjects/Reinvent-master-3.2/result/LINK_invent/BTK/process_docking_weight1_custom_product_contain_oxygen_bond_distance_aromatic_linkinvent_7_9_3/rearranged_h_0165.sdf

> <i_m_source_file_index>
57

> <r_mmod_Potential_Energy-OPLS-2005>
-87.3490371704102

> <r_mmod_Stretch_Energy-OPLS-2005>
65.386344909668

> <r_mmod_Bend_Energy-OPLS-2005>
137.895385742188

> <r_mmod_Torsional_Energy-OPLS-2005>
257.02392578125

> <r_mmod_Improper_Torsional_Energy-OPLS-2005>
9.65109252929688

> <r_mmod_Van_der_Waal_Energy-OPLS-2005>
139.281494140625

> <r_mmod_Electrostatic_Energy-OPLS-2005>
-517.675659179688

> <r_mmod_Solvation_Energy-OPLS-2005>
-221.684280395508

> <b_mmod_Minimization_Converged-OPLS-2005>
0

> <r_mmod_RMS_Derivative-OPLS-2005>
8.63158226013184

$$$$
58
                    3D
 Structure written by MMmdl.
156164  0  0  1  0            999 V2000
  -30.5645  -14.7845   20.4727 C   0  0  0  0  0  0
  -30.4355  -12.4781   19.4850 C   0  0  0  0  0  0
  -29.5154  -12.5403   18.2432 C   0  0  0  0  0  0
  -28.0403  -12.3535   18.6476 C   0  0  0  0  0  0
  -27.6426  -13.2353   19.8603 C   0  0  2  0  0  0
  -28.6836  -13.1509   20.9989 C   0  0  0  0  0  0
  -25.2511  -13.8216   20.5722 C   0  0  0  0  0  0
  -24.1797  -13.0443   20.9186 C   0  0  0  0  0  0
  -24.6384  -11.6915   20.8709 C   0  0  0  0  0  0
  -23.9052  -10.4295   21.0389 C   0  0  0  0  0  0
  -24.3609   -9.4217   21.9177 C   0  0  0  0  0  0
  -23.6286   -8.2252   22.0748 C   0  0  0  0  0  0
  -22.4279   -8.0282   21.3537 C   0  0  0  0  0  0
  -21.9894   -9.0250   20.4648 C   0  0  0  0  0  0
  -22.7213  -10.2133   20.3056 C   0  0  0  0  0  0
  -21.6856   -6.0730   22.5273 C   0  0  0  0  0  0
  -21.4018   -6.5629   23.8208 C   0  0  0  0  0  0
  -21.3661   -5.6784   24.9165 C   0  0  0  0  0  0
  -21.6042   -4.3048   24.7216 C   0  0  0  0  0  0
  -21.8818   -3.8136   23.4338 C   0  0  0  0  0  0
  -21.9191   -4.6953   22.3394 C   0  0  0  0  0  0
  -22.7828  -13.5230   21.1850 C   0  0  0  0  0  0
  -22.1672   -4.2139   21.0969 F   0  0  0  0  0  0
  -21.5620   -3.4522   25.7728 F   0  0  0  0  0  0
  -29.9863  -13.5288   20.4347 N   0  0  0  0  0  0
  -26.2938  -12.9417   20.3308 N   0  0  0  0  0  0
  -25.9322  -11.6555   20.5730 N   0  0  0  0  0  0
  -22.0469  -12.8237   22.0419 N   0  0  0  0  0  0
  -25.4203  -15.1957   20.4217 N   0  0  0  0  0  0
  -31.7243  -14.9259   20.0688 O   0  0  0  0  0  0
  -21.6650   -6.8874   21.4237 O   0  0  0  0  0  0
  -22.3514  -14.5521   20.6678 O   0  0  0  0  0  0
  -24.6348  -31.8514   23.1952 C   0  0  0  0  0  0
  -25.9148  -32.4734   23.8314 C   0  0  1  0  0  0
  -27.2161  -27.2136   20.1438 C   0  0  0  0  0  0
  -25.5924  -33.8532   24.2227 N   0  0  0  0  0  0
  -23.4359  -30.4728   21.5392 C   0  0  2  0  0  0
  -24.8859  -28.9156   20.1076 C   0  0  0  0  0  0
  -22.7533  -29.4571   22.4884 C   0  0  0  0  0  0
  -18.0302  -28.1401   22.8481 C   0  0  0  0  0  0
  -24.1490  -36.7275   23.2641 C   0  0  0  0  0  0
  -25.9861  -30.7464   21.3872 C   0  0  0  0  0  0
  -26.0574  -29.3648   20.7307 C   0  0  0  0  0  0
  -27.2239  -28.5261   20.7405 C   0  0  0  0  0  0
  -26.0276  -26.8541   19.4695 C   0  0  0  0  0  0
  -24.8783  -27.6696   19.4641 C   0  0  0  0  0  0
  -23.6601  -29.8102   20.1543 C   0  0  0  0  0  0
  -25.4115  -36.3054   24.0325 C   0  0  1  0  0  0
  -20.5907  -28.3705   23.1257 C   0  0  2  0  0  0
  -20.6793  -26.9415   22.5416 C   0  0  0  0  0  0
  -19.5766  -26.6380   21.5223 C   0  0  0  0  0  0
  -18.1943  -26.7938   22.1631 C   0  0  0  0  0  0
  -19.1557  -28.8873   23.2866 C   0  0  0  0  0  0
  -18.9471  -30.1471   23.8899 C   0  0  0  0  0  0
  -17.6469  -30.6591   24.0572 C   0  0  0  0  0  0
  -25.9060  -34.9427   23.5088 C   0  0  0  0  0  0
  -16.5362  -29.9094   23.6330 C   0  0  0  0  0  0
  -16.7287  -28.6514   23.0342 C   0  0  0  0  0  0
  -26.4487  -31.6577   25.0727 C   0  0  0  0  0  0
  -25.3683  -31.3764   26.1437 C   0  0  0  0  0  0
  -27.0336  -30.2980   24.6266 C   0  0  0  0  0  0
  -27.6043  -32.4325   25.7498 C   0  0  0  0  0  0
  -27.5571  -37.1804   24.8460 C   0  0  0  0  0  0
  -21.4236  -29.3029   22.3628 N   0  0  0  0  0  0
  -26.4288  -37.3756   23.9400 N   0  0  0  0  0  0
  -24.7049  -31.0429   22.0962 N   0  0  0  0  0  0
  -23.4205  -28.8109   23.3002 O   0  0  0  0  0  0
  -28.2843  -26.2712   20.1917 O   0  0  0  0  0  0
  -26.5644  -34.8910   22.4666 O   0  0  0  0  0  0
  -23.5487  -32.1365   23.7206 O   0  0  0  0  0  0
  -28.7304  -17.4980   19.2755 C   0  0  0  0  0  0
  -28.6051  -18.8735   19.2032 C   0  0  0  0  0  0
  -29.5904  -17.2474   20.3838 C   0  0  0  0  0  0
  -28.0254  -24.8545   20.3250 C   0  0  0  0  0  0
  -27.8730  -19.5585   18.1287 C   0  0  0  0  0  0
  -28.9110  -23.7736   20.2905 C   0  0  0  0  0  0
  -28.5226  -22.2543   20.4222 C   0  0  0  0  0  0
  -25.4603  -19.8402   17.3031 C   0  0  0  0  0  0
  -26.6376  -18.8741   17.5321 C   0  0  0  0  0  0
  -29.5814  -21.0225   20.4744 C   0  0  0  0  0  0
  -29.9153  -18.4573   20.9567 N   0  0  0  0  0  0
  -29.3096  -19.5099   20.2289 N   0  0  0  0  0  0
  -29.7856  -15.8616   20.8985 N   0  0  0  0  0  0
  -28.2050  -20.6740   17.7148 O   0  0  0  0  0  0
  -27.3315  -21.9434   20.5179 O   0  0  0  0  0  0
  -30.2176  -24.0193   20.1269 O   0  0  0  0  0  0
  -31.4774  -12.6098   19.1879 H   0  0  0  0  0  0
  -30.3781  -11.4934   19.9523 H   0  0  0  0  0  0
  -29.8030  -11.7846   17.5129 H   0  0  0  0  0  0
  -29.6392  -13.5055   17.7475 H   0  0  0  0  0  0
  -27.8937  -11.3001   18.8921 H   0  0  0  0  0  0
  -27.3905  -12.5663   17.7972 H   0  0  0  0  0  0
  -27.6383  -14.2621   19.4943 H   0  0  0  0  0  0
  -28.7212  -12.1410   21.4118 H   0  0  0  0  0  0
  -28.4023  -13.8040   21.8266 H   0  0  0  0  0  0
  -25.2752   -9.5692   22.4753 H   0  0  0  0  0  0
  -23.9979   -7.4652   22.7480 H   0  0  0  0  0  0
  -21.0810   -8.8762   19.8979 H   0  0  0  0  0  0
  -22.3648  -10.9667   19.6169 H   0  0  0  0  0  0
  -21.2025   -7.6146   23.9699 H   0  0  0  0  0  0
  -21.1490   -6.0527   25.9069 H   0  0  0  0  0  0
  -22.0595   -2.7596   23.2852 H   0  0  0  0  0  0
  -22.4066  -11.9893   22.4825 H   0  0  0  0  0  0
  -21.1095  -13.1288   22.2614 H   0  0  0  0  0  0
  -24.6486  -15.8441   20.5375 H   0  0  0  0  0  0
  -26.2716  -15.6436   20.1113 H   0  0  0  0  0  0
  -26.7209  -32.5368   23.1047 H   0  0  0  0  0  0
  -25.0017  -33.9657   25.0338 H   0  0  0  0  0  0
  -22.7344  -31.2963   21.3921 H   0  0  0  0  0  0
  -23.3740  -35.9624   23.3329 H   0  0  0  0  0  0
  -24.3566  -36.8873   22.2050 H   0  0  0  0  0  0
  -23.7269  -37.6493   23.6655 H   0  0  0  0  0  0
  -26.1330  -31.5029   20.6153 H   0  0  0  0  0  0
  -26.8597  -30.7940   22.0250 H   0  0  0  0  0  0
  -28.1172  -28.8644   21.2469 H   0  0  0  0  0  0
  -25.9656  -25.9074   18.9540 H   0  0  0  0  0  0
  -23.9864  -27.3250   18.9590 H   0  0  0  0  0  0
  -23.7945  -30.5900   19.4036 H   0  0  0  0  0  0
  -22.7768  -29.2518   19.8394 H   0  0  0  0  0  0
  -25.1306  -36.1906   25.0818 H   0  0  0  0  0  0
  -20.9993  -28.3299   24.1380 H   0  0  0  0  0  0
  -20.5691  -26.2314   23.3626 H   0  0  0  0  0  0
  -21.6665  -26.7436   22.1216 H   0  0  0  0  0  0
  -19.6924  -25.6290   21.1254 H   0  0  0  0  0  0
  -19.6700  -27.3192   20.6754 H   0  0  0  0  0  0
  -17.4208  -26.6668   21.4043 H   0  0  0  0  0  0
  -18.0341  -26.0098   22.9044 H   0  0  0  0  0  0
  -19.7944  -30.7290   24.2269 H   0  0  0  0  0  0
  -17.5018  -31.6267   24.5184 H   0  0  0  0  0  0
  -15.5365  -30.2992   23.7659 H   0  0  0  0  0  0
  -15.8683  -28.0842   22.7046 H   0  0  0  0  0  0
  -24.5834  -30.7148   25.7749 H   0  0  0  0  0  0
  -24.8906  -32.2956   26.4844 H   0  0  0  0  0  0
  -25.7956  -30.8926   27.0230 H   0  0  0  0  0  0
  -26.2935  -29.6728   24.1257 H   0  0  0  0  0  0
  -27.3948  -29.7251   25.4816 H   0  0  0  0  0  0
  -27.8847  -30.4233   23.9569 H   0  0  0  0  0  0
  -27.2650  -33.3629   26.2071 H   0  0  0  0  0  0
  -28.3847  -32.6884   25.0315 H   0  0  0  0  0  0
  -28.0720  -31.8458   26.5419 H   0  0  0  0  0  0
  -28.2609  -38.0080   24.7477 H   0  0  0  0  0  0
  -28.1054  -36.2616   24.6331 H   0  0  0  0  0  0
  -27.2292  -37.1503   25.8864 H   0  0  0  0  0  0
  -20.9432  -29.8748   21.6824 H   0  0  0  0  0  0
  -26.0167  -38.2835   24.1388 H   0  0  0  0  0  0
  -28.2636  -16.7760   18.6201 H   0  0  0  0  0  0
  -26.9736  -24.6567   20.4779 H   0  0  0  0  0  0
  -24.6303  -19.3255   16.8187 H   0  0  0  0  0  0
  -25.7431  -20.6795   16.6659 H   0  0  0  0  0  0
  -25.0942  -20.2451   18.2476 H   0  0  0  0  0  0
  -26.3211  -18.0596   18.1838 H   0  0  0  0  0  0
  -26.9311  -18.4252   16.5835 H   0  0  0  0  0  0
  -30.0560  -21.0952   21.4519 H   0  0  0  0  0  0
  -30.3657  -21.2937   19.7685 H   0  0  0  0  0  0
  -28.9639  -15.5201   21.3708 H   0  0  0  0  0  0
  -30.3143  -24.9624   20.0765 H   0  0  0  0  0  0
  1 25  1  0  0  0
  1 30  2  0  0  0
  1 83  1  0  0  0
  2  3  1  0  0  0
  2 25  1  0  0  0
  2 87  1  0  0  0
  2 88  1  0  0  0
  3  4  1  0  0  0
  3 89  1  0  0  0
  3 90  1  0  0  0
  4  5  1  0  0  0
  4 91  1  0  0  0
  4 92  1  0  0  0
  5  6  1  0  0  0
  5 26  1  0  0  0
  5 93  1  0  0  0
  6 25  1  0  0  0
  6 94  1  0  0  0
  6 95  1  0  0  0
  7  8  2  0  0  0
  7 26  1  0  0  0
  7 29  1  0  0  0
  8  9  1  0  0  0
  8 22  1  0  0  0
  9 10  1  0  0  0
  9 27  2  0  0  0
 10 11  2  0  0  0
 10 15  1  0  0  0
 11 12  1  0  0  0
 11 96  1  0  0  0
 12 13  2  0  0  0
 12 97  1  0  0  0
 13 14  1  0  0  0
 13 31  1  0  0  0
 14 15  2  0  0  0
 14 98  1  0  0  0
 15 99  1  0  0  0
 16 17  2  0  0  0
 16 21  1  0  0  0
 16 31  1  0  0  0
 17 18  1  0  0  0
 17100  1  0  0  0
 18 19  2  0  0  0
 18101  1  0  0  0
 19 20  1  0  0  0
 19 24  1  0  0  0
 20 21  2  0  0  0
 20102  1  0  0  0
 21 23  1  0  0  0
 22 28  1  0  0  0
 22 32  2  0  0  0
 26 27  1  0  0  0
 28103  1  0  0  0
 28104  1  0  0  0
 29105  1  0  0  0
 29106  1  0  0  0
 33 34  1  0  0  0
 33 66  1  0  0  0
 33 70  2  0  0  0
 34 36  1  0  0  0
 34 59  1  0  0  0
 34107  1  0  0  0
 35 44  2  0  0  0
 35 45  1  0  0  0
 35 68  1  0  0  0
 36 56  1  0  0  0
 36108  1  0  0  0
 37 39  1  0  0  0
 37 47  1  0  0  0
 37 66  1  0  0  0
 37109  1  0  0  0
 38 43  2  0  0  0
 38 46  1  0  0  0
 38 47  1  0  0  0
 39 64  1  0  0  0
 39 67  2  0  0  0
 40 52  1  0  0  0
 40 53  2  0  0  0
 40 58  1  0  0  0
 41110  1  0  0  0
 41111  1  0  0  0
 41112  1  0  0  0
 41 48  1  0  0  0
 42 43  1  0  0  0
 42 66  1  0  0  0
 42113  1  0  0  0
 42114  1  0  0  0
 43 44  1  0  0  0
 44115  1  0  0  0
 45 46  2  0  0  0
 45116  1  0  0  0
 46117  1  0  0  0
 47118  1  0  0  0
 47119  1  0  0  0
 48 56  1  0  0  0
 48 65  1  0  0  0
 48120  1  0  0  0
 49 50  1  0  0  0
 49 53  1  0  0  0
 49 64  1  0  0  0
 49121  1  0  0  0
 50 51  1  0  0  0
 50122  1  0  0  0
 50123  1  0  0  0
 51 52  1  0  0  0
 51124  1  0  0  0
 51125  1  0  0  0
 52126  1  0  0  0
 52127  1  0  0  0
 53 54  1  0  0  0
 54 55  2  0  0  0
 54128  1  0  0  0
 55 57  1  0  0  0
 55129  1  0  0  0
 56 69  2  0  0  0
 57 58  2  0  0  0
 57130  1  0  0  0
 58131  1  0  0  0
 59 60  1  0  0  0
 59 61  1  0  0  0
 59 62  1  0  0  0
 60132  1  0  0  0
 60133  1  0  0  0
 60134  1  0  0  0
 61135  1  0  0  0
 61136  1  0  0  0
 61137  1  0  0  0
 62138  1  0  0  0
 62139  1  0  0  0
 62140  1  0  0  0
 63 65  1  0  0  0
 63141  1  0  0  0
 63142  1  0  0  0
 63143  1  0  0  0
 64144  1  0  0  0
 65145  1  0  0  0
 68 74  1  0  0  0
 71 72  2  0  0  0
 71 73  1  0  0  0
 71146  1  0  0  0
 72 75  1  0  0  0
 72 82  1  0  0  0
 73 81  2  0  0  0
 73 83  1  0  0  0
 74 76  2  0  0  0
 74147  1  0  0  0
 75 79  1  0  0  0
 75 84  2  0  0  0
 76 77  1  0  0  0
 76 86  1  0  0  0
 77 80  1  0  0  0
 77 85  2  0  0  0
 78 79  1  0  0  0
 78148  1  0  0  0
 78149  1  0  0  0
 78150  1  0  0  0
 79151  1  0  0  0
 79152  1  0  0  0
 80 82  1  0  0  0
 80153  1  0  0  0
 80154  1  0  0  0
 81 82  1  0  0  0
 83155  1  0  0  0
 86156  1  0  0  0
M  ISO  4   1 100  68 101  74 101  83 100
M  END
> <chiral flag>
0

> <version>
0

> <s_m_source_file>
/data/baiqing/PycharmProjects/Reinvent-master-3.2/result/LINK_invent/BTK/process_docking_weight1_custom_product_contain_oxygen_bond_distance_aromatic_linkinvent_7_9_3/rearranged_h_0165.sdf

> <i_m_source_file_index>
58

> <r_mmod_Potential_Energy-OPLS-2005>
234.922027587891

> <r_mmod_Stretch_Energy-OPLS-2005>
152.162246704102

> <r_mmod_Bend_Energy-OPLS-2005>
182.277435302734

> <r_mmod_Torsional_Energy-OPLS-2005>
273.233306884766

> <r_mmod_Improper_Torsional_Energy-OPLS-2005>
6.95070838928223

> <r_mmod_Van_der_Waal_Energy-OPLS-2005>
111.01774597168

> <r_mmod_Electrostatic_Energy-OPLS-2005>
-354.765075683594

> <r_mmod_Solvation_Energy-OPLS-2005>
-246.130630493164

> <b_mmod_Minimization_Converged-OPLS-2005>
0

> <r_mmod_RMS_Derivative-OPLS-2005>
2.31003522872925

$$$$
59
                    3D
 Structure written by MMmdl.
153161  0  0  1  0            999 V2000
  -30.7107  -14.4867   20.5538 C   0  0  0  0  0  0
  -30.4156  -12.3090   19.4304 C   0  0  0  0  0  0
  -29.4919  -12.4946   18.2092 C   0  0  0  0  0  0
  -28.0143  -12.3544   18.6234 C   0  0  0  0  0  0
  -27.6567  -13.2091   19.8690 C   0  0  2  0  0  0
  -28.6992  -13.0209   20.9954 C   0  0  0  0  0  0
  -25.2575  -13.8166   20.5681 C   0  0  0  0  0  0
  -24.1835  -13.0441   20.9190 C   0  0  0  0  0  0
  -24.6392  -11.6909   20.8742 C   0  0  0  0  0  0
  -23.9062  -10.4293   21.0410 C   0  0  0  0  0  0
  -24.3614   -9.4208   21.9186 C   0  0  0  0  0  0
  -23.6292   -8.2243   22.0753 C   0  0  0  0  0  0
  -22.4274   -8.0280   21.3544 C   0  0  0  0  0  0
  -21.9907   -9.0253   20.4645 C   0  0  0  0  0  0
  -22.7234  -10.2135   20.3058 C   0  0  0  0  0  0
  -21.6854   -6.0734   22.5277 C   0  0  0  0  0  0
  -21.4013   -6.5641   23.8208 C   0  0  0  0  0  0
  -21.3655   -5.6796   24.9170 C   0  0  0  0  0  0
  -21.6047   -4.3058   24.7225 C   0  0  0  0  0  0
  -21.8820   -3.8148   23.4347 C   0  0  0  0  0  0
  -21.9194   -4.6962   22.3401 C   0  0  0  0  0  0
  -22.7859  -13.5240   21.1845 C   0  0  0  0  0  0
  -22.1664   -4.2152   21.0978 F   0  0  0  0  0  0
  -21.5626   -3.4540   25.7735 F   0  0  0  0  0  0
  -30.0283  -13.3130   20.4357 N   0  0  0  0  0  0
  -26.2999  -12.9341   20.3341 N   0  0  0  0  0  0
  -25.9316  -11.6500   20.5767 N   0  0  0  0  0  0
  -22.0500  -12.8231   22.0400 N   0  0  0  0  0  0
  -25.4307  -15.1883   20.4059 N   0  0  0  0  0  0
  -31.8549  -14.6128   20.1047 O   0  0  0  0  0  0
  -21.6640   -6.8879   21.4241 O   0  0  0  0  0  0
  -22.3547  -14.5549   20.6697 O   0  0  0  0  0  0
  -24.6151  -31.8666   23.2094 C   0  0  0  0  0  0
  -25.9050  -32.4817   23.8385 C   0  0  1  0  0  0
  -27.2330  -27.4273   20.1081 C   0  0  0  0  0  0
  -25.5906  -33.8615   24.2324 N   0  0  0  0  0  0
  -23.4045  -30.4898   21.5480 C   0  0  2  0  0  0
  -24.8545  -28.9547   20.1129 C   0  0  0  0  0  0
  -22.7416  -29.4658   22.4978 C   0  0  0  0  0  0
  -18.0269  -28.1382   22.8496 C   0  0  0  0  0  0
  -24.1488  -36.7309   23.2635 C   0  0  0  0  0  0
  -25.9335  -30.8327   21.3621 C   0  0  0  0  0  0
  -26.0142  -29.4661   20.7100 C   0  0  0  0  0  0
  -27.2108  -28.7108   20.7021 C   0  0  0  0  0  0
  -26.0616  -26.9318   19.5000 C   0  0  0  0  0  0
  -24.8735  -27.6879   19.5017 C   0  0  0  0  0  0
  -23.6143  -29.8205   20.1632 C   0  0  0  0  0  0
  -25.4110  -36.3109   24.0340 C   0  0  1  0  0  0
  -20.5861  -28.3673   23.1315 C   0  0  2  0  0  0
  -20.6764  -26.9408   22.5415 C   0  0  0  0  0  0
  -19.5742  -26.6388   21.5213 C   0  0  0  0  0  0
  -18.1917  -26.7930   22.1621 C   0  0  0  0  0  0
  -19.1520  -28.8845   23.2897 C   0  0  0  0  0  0
  -18.9451  -30.1450   23.8911 C   0  0  0  0  0  0
  -17.6457  -30.6591   24.0569 C   0  0  0  0  0  0
  -25.9039  -34.9476   23.5128 C   0  0  0  0  0  0
  -16.5345  -29.9095   23.6330 C   0  0  0  0  0  0
  -16.7259  -28.6511   23.0356 C   0  0  0  0  0  0
  -26.4478  -31.6597   25.0715 C   0  0  0  0  0  0
  -25.3745  -31.3700   26.1467 C   0  0  0  0  0  0
  -27.0309  -30.3045   24.6083 C   0  0  0  0  0  0
  -27.6053  -32.4313   25.7474 C   0  0  0  0  0  0
  -27.5584  -37.1800   24.8462 C   0  0  0  0  0  0
  -21.4144  -29.3041   22.3728 N   0  0  0  0  0  0
  -26.4292  -37.3799   23.9415 N   0  0  0  0  0  0
  -24.6692  -31.0768   22.0989 N   0  0  0  0  0  0
  -23.4185  -28.8194   23.3022 O   0  0  0  0  0  0
  -28.3687  -26.6483   20.1271 O   0  0  0  0  0  0
  -26.5596  -34.8933   22.4685 O   0  0  0  0  0  0
  -23.5346  -32.1422   23.7487 O   0  0  0  0  0  0
  -29.3703  -17.9088   20.9416 C   0  0  0  0  0  0
  -30.3755  -16.9209   21.0659 C   0  0  0  0  0  0
  -29.7618  -19.2603   20.9454 C   0  0  0  0  0  0
  -31.9259  -18.6220   21.2439 C   0  0  0  0  0  0
  -28.0539  -22.7781   22.1912 C   0  0  0  0  0  0
  -28.6544  -22.8586   20.9858 C   0  0  0  0  0  0
  -28.8097  -24.1879   20.2976 C   0  0  0  0  0  0
  -29.2080  -21.6209   20.2541 C   0  0  0  0  0  0
  -28.2356  -25.4691   20.9535 C   0  0  0  0  0  0
  -31.6498  -17.3229   21.2416 N   0  0  0  0  0  0
  -31.0441  -19.6010   21.0987 N   0  0  0  0  0  0
  -29.9951  -15.5383   21.0204 N   0  0  0  0  0  0
  -28.8270  -20.3040   20.8114 N   0  0  0  0  0  0
  -29.3934  -24.2942   19.2126 O   0  0  0  0  0  0
  -33.2208  -18.9793   21.4059 F   0  0  0  0  0  0
  -31.4611  -12.3909   19.1279 H   0  0  0  0  0  0
  -30.3061  -11.3055   19.8441 H   0  0  0  0  0  0
  -29.7331  -11.7590   17.4402 H   0  0  0  0  0  0
  -29.6593  -13.4745   17.7593 H   0  0  0  0  0  0
  -27.8307  -11.2994   18.8332 H   0  0  0  0  0  0
  -27.3622  -12.6138   17.7887 H   0  0  0  0  0  0
  -27.6920  -14.2511   19.5510 H   0  0  0  0  0  0
  -28.6767  -11.9966   21.3693 H   0  0  0  0  0  0
  -28.4623  -13.6510   21.8538 H   0  0  0  0  0  0
  -25.2759   -9.5687   22.4753 H   0  0  0  0  0  0
  -24.0005   -7.4636   22.7468 H   0  0  0  0  0  0
  -21.0842   -8.8772   19.8947 H   0  0  0  0  0  0
  -22.3695  -10.9675   19.6164 H   0  0  0  0  0  0
  -21.2007   -7.6149   23.9714 H   0  0  0  0  0  0
  -21.1474   -6.0523   25.9075 H   0  0  0  0  0  0
  -22.0603   -2.7610   23.2844 H   0  0  0  0  0  0
  -22.4111  -11.9891   22.4786 H   0  0  0  0  0  0
  -21.1114  -13.1248   22.2598 H   0  0  0  0  0  0
  -24.6601  -15.8405   20.4999 H   0  0  0  0  0  0
  -26.2707  -15.6200   20.0437 H   0  0  0  0  0  0
  -26.7124  -32.5545   23.1149 H   0  0  0  0  0  0
  -25.0087  -33.9770   25.0491 H   0  0  0  0  0  0
  -22.6936  -31.3068   21.4076 H   0  0  0  0  0  0
  -23.3753  -35.9635   23.3300 H   0  0  0  0  0  0
  -24.3588  -36.8923   22.2048 H   0  0  0  0  0  0
  -23.7234  -37.6512   23.6651 H   0  0  0  0  0  0
  -26.0442  -31.5990   20.5930 H   0  0  0  0  0  0
  -26.8212  -30.8877   21.9807 H   0  0  0  0  0  0
  -28.1065  -29.0980   21.1681 H   0  0  0  0  0  0
  -26.0658  -25.9571   19.0321 H   0  0  0  0  0  0
  -23.9839  -27.2886   19.0349 H   0  0  0  0  0  0
  -23.7199  -30.5947   19.4024 H   0  0  0  0  0  0
  -22.7393  -29.2378   19.8691 H   0  0  0  0  0  0
  -25.1279  -36.1967   25.0831 H   0  0  0  0  0  0
  -20.9949  -28.3238   24.1437 H   0  0  0  0  0  0
  -20.5678  -26.2277   23.3603 H   0  0  0  0  0  0
  -21.6631  -26.7460   22.1197 H   0  0  0  0  0  0
  -19.6905  -25.6300   21.1239 H   0  0  0  0  0  0
  -19.6682  -27.3203   20.6748 H   0  0  0  0  0  0
  -17.4188  -26.6692   21.4019 H   0  0  0  0  0  0
  -18.0306  -26.0065   22.9009 H   0  0  0  0  0  0
  -19.7931  -30.7260   24.2282 H   0  0  0  0  0  0
  -17.5016  -31.6275   24.5159 H   0  0  0  0  0  0
  -15.5349  -30.3003   23.7655 H   0  0  0  0  0  0
  -15.8658  -28.0840   22.7063 H   0  0  0  0  0  0
  -24.5916  -30.7055   25.7802 H   0  0  0  0  0  0
  -24.8943  -32.2856   26.4930 H   0  0  0  0  0  0
  -25.8100  -30.8858   27.0217 H   0  0  0  0  0  0
  -26.2847  -29.6797   24.1165 H   0  0  0  0  0  0
  -27.4119  -29.7293   25.4529 H   0  0  0  0  0  0
  -27.8664  -30.4372   23.9204 H   0  0  0  0  0  0
  -27.2676  -33.3605   26.2076 H   0  0  0  0  0  0
  -28.3847  -32.6886   25.0290 H   0  0  0  0  0  0
  -28.0739  -31.8424   26.5368 H   0  0  0  0  0  0
  -28.2586  -38.0112   24.7540 H   0  0  0  0  0  0
  -28.1094  -36.2646   24.6246 H   0  0  0  0  0  0
  -27.2308  -37.1399   25.8866 H   0  0  0  0  0  0
  -20.9302  -29.8777   21.6966 H   0  0  0  0  0  0
  -26.0182  -38.2872   24.1439 H   0  0  0  0  0  0
  -28.3322  -17.6326   20.8150 H   0  0  0  0  0  0
  -27.6628  -23.6364   22.7163 H   0  0  0  0  0  0
  -27.9410  -21.8286   22.6927 H   0  0  0  0  0  0
  -30.2898  -21.7373   20.1862 H   0  0  0  0  0  0
  -28.8463  -21.6496   19.2247 H   0  0  0  0  0  0
  -28.7685  -25.6442   21.8889 H   0  0  0  0  0  0
  -27.1928  -25.2844   21.2158 H   0  0  0  0  0  0
  -29.0401  -15.3300   21.2601 H   0  0  0  0  0  0
  -27.8605  -20.0252   20.6804 H   0  0  0  0  0  0
  1 25  1  0  0  0
  1 30  2  0  0  0
  1 82  1  0  0  0
  2  3  1  0  0  0
  2 25  1  0  0  0
  2 86  1  0  0  0
  2 87  1  0  0  0
  3  4  1  0  0  0
  3 88  1  0  0  0
  3 89  1  0  0  0
  4  5  1  0  0  0
  4 90  1  0  0  0
  4 91  1  0  0  0
  5  6  1  0  0  0
  5 26  1  0  0  0
  5 92  1  0  0  0
  6 25  1  0  0  0
  6 93  1  0  0  0
  6 94  1  0  0  0
  7  8  2  0  0  0
  7 26  1  0  0  0
  7 29  1  0  0  0
  8  9  1  0  0  0
  8 22  1  0  0  0
  9 10  1  0  0  0
  9 27  2  0  0  0
 10 11  2  0  0  0
 10 15  1  0  0  0
 11 12  1  0  0  0
 11 95  1  0  0  0
 12 13  2  0  0  0
 12 96  1  0  0  0
 13 14  1  0  0  0
 13 31  1  0  0  0
 14 15  2  0  0  0
 14 97  1  0  0  0
 15 98  1  0  0  0
 16 17  2  0  0  0
 16 21  1  0  0  0
 16 31  1  0  0  0
 17 18  1  0  0  0
 17 99  1  0  0  0
 18 19  2  0  0  0
 18100  1  0  0  0
 19 20  1  0  0  0
 19 24  1  0  0  0
 20 21  2  0  0  0
 20101  1  0  0  0
 21 23  1  0  0  0
 22 28  1  0  0  0
 22 32  2  0  0  0
 26 27  1  0  0  0
 28102  1  0  0  0
 28103  1  0  0  0
 29104  1  0  0  0
 29105  1  0  0  0
 33 34  1  0  0  0
 33 66  1  0  0  0
 33 70  2  0  0  0
 34 36  1  0  0  0
 34 59  1  0  0  0
 34106  1  0  0  0
 35 44  2  0  0  0
 35 45  1  0  0  0
 35 68  1  0  0  0
 36 56  1  0  0  0
 36107  1  0  0  0
 37 39  1  0  0  0
 37 47  1  0  0  0
 37 66  1  0  0  0
 37108  1  0  0  0
 38 43  2  0  0  0
 38 46  1  0  0  0
 38 47  1  0  0  0
 39 64  1  0  0  0
 39 67  2  0  0  0
 40 52  1  0  0  0
 40 53  2  0  0  0
 40 58  1  0  0  0
 41109  1  0  0  0
 41110  1  0  0  0
 41111  1  0  0  0
 41 48  1  0  0  0
 42 43  1  0  0  0
 42 66  1  0  0  0
 42112  1  0  0  0
 42113  1  0  0  0
 43 44  1  0  0  0
 44114  1  0  0  0
 45 46  2  0  0  0
 45115  1  0  0  0
 46116  1  0  0  0
 47117  1  0  0  0
 47118  1  0  0  0
 48 56  1  0  0  0
 48 65  1  0  0  0
 48119  1  0  0  0
 49 50  1  0  0  0
 49 53  1  0  0  0
 49 64  1  0  0  0
 49120  1  0  0  0
 50 51  1  0  0  0
 50121  1  0  0  0
 50122  1  0  0  0
 51 52  1  0  0  0
 51123  1  0  0  0
 51124  1  0  0  0
 52125  1  0  0  0
 52126  1  0  0  0
 53 54  1  0  0  0
 54 55  2  0  0  0
 54127  1  0  0  0
 55 57  1  0  0  0
 55128  1  0  0  0
 56 69  2  0  0  0
 57 58  2  0  0  0
 57129  1  0  0  0
 58130  1  0  0  0
 59 60  1  0  0  0
 59 61  1  0  0  0
 59 62  1  0  0  0
 60131  1  0  0  0
 60132  1  0  0  0
 60133  1  0  0  0
 61134  1  0  0  0
 61135  1  0  0  0
 61136  1  0  0  0
 62137  1  0  0  0
 62138  1  0  0  0
 62139  1  0  0  0
 63 65  1  0  0  0
 63140  1  0  0  0
 63141  1  0  0  0
 63142  1  0  0  0
 64143  1  0  0  0
 65144  1  0  0  0
 68 79  1  0  0  0
 71 72  2  0  0  0
 71 73  1  0  0  0
 71145  1  0  0  0
 72 80  1  0  0  0
 72 82  1  0  0  0
 73 81  2  0  0  0
 73 83  1  0  0  0
 74 80  2  0  0  0
 74 81  1  0  0  0
 74 85  1  0  0  0
 75 76  2  0  0  0
 75146  1  0  0  0
 75147  1  0  0  0
 76 77  1  0  0  0
 76 78  1  0  0  0
 77 79  1  0  0  0
 77 84  2  0  0  0
 78 83  1  0  0  0
 78148  1  0  0  0
 78149  1  0  0  0
 79150  1  0  0  0
 79151  1  0  0  0
 82152  1  0  0  0
 83153  1  0  0  0
M  ISO  4   1 100  68 101  79 101  82 100
M  END
> <chiral flag>
0

> <version>
0

> <s_m_source_file>
/data/baiqing/PycharmProjects/Reinvent-master-3.2/result/LINK_invent/BTK/process_docking_weight1_custom_product_contain_oxygen_bond_distance_aromatic_linkinvent_7_9_3/rearranged_h_0165.sdf

> <i_m_source_file_index>
59

> <r_mmod_Potential_Energy-OPLS-2005>
-492.888854980469

> <r_mmod_Stretch_Energy-OPLS-2005>
41.8182525634766

> <r_mmod_Bend_Energy-OPLS-2005>
104.97144317627

> <r_mmod_Torsional_Energy-OPLS-2005>
209.166641235352

> <r_mmod_Improper_Torsional_Energy-OPLS-2005>
6.13887119293213

> <r_mmod_Van_der_Waal_Energy-OPLS-2005>
172.461502075195

> <r_mmod_Electrostatic_Energy-OPLS-2005>
-777.047302246094

> <r_mmod_Solvation_Energy-OPLS-2005>
-266.495971679688

> <b_mmod_Minimization_Converged-OPLS-2005>
0

> <r_mmod_RMS_Derivative-OPLS-2005>
1.27495801448822

$$$$
60
                    3D
 Structure written by MMmdl.
154162  0  0  1  0            999 V2000
  -30.7007  -14.3983   20.6662 C   0  0  0  0  0  0
  -30.4272  -12.2949   19.4062 C   0  0  0  0  0  0
  -29.4878  -12.5389   18.2119 C   0  0  0  0  0  0
  -28.0173  -12.3663   18.6284 C   0  0  0  0  0  0
  -27.6704  -13.1926   19.8936 C   0  0  2  0  0  0
  -28.7007  -12.9192   21.0095 C   0  0  0  0  0  0
  -25.2604  -13.8141   20.5564 C   0  0  0  0  0  0
  -24.1873  -13.0422   20.9134 C   0  0  0  0  0  0
  -24.6415  -11.6884   20.8737 C   0  0  0  0  0  0
  -23.9078  -10.4280   21.0412 C   0  0  0  0  0  0
  -24.3652   -9.4172   21.9157 C   0  0  0  0  0  0
  -23.6312   -8.2223   22.0718 C   0  0  0  0  0  0
  -22.4271   -8.0288   21.3547 C   0  0  0  0  0  0
  -21.9933   -9.0258   20.4625 C   0  0  0  0  0  0
  -22.7277  -10.2137   20.3021 C   0  0  0  0  0  0
  -21.6845   -6.0746   22.5261 C   0  0  0  0  0  0
  -21.4032   -6.5646   23.8205 C   0  0  0  0  0  0
  -21.3655   -5.6792   24.9169 C   0  0  0  0  0  0
  -21.6034   -4.3050   24.7206 C   0  0  0  0  0  0
  -21.8833   -3.8145   23.4330 C   0  0  0  0  0  0
  -21.9207   -4.6977   22.3394 C   0  0  0  0  0  0
  -22.7888  -13.5178   21.1849 C   0  0  0  0  0  0
  -22.1661   -4.2167   21.0972 F   0  0  0  0  0  0
  -21.5626   -3.4527   25.7719 F   0  0  0  0  0  0
  -30.0454  -13.2254   20.4779 N   0  0  0  0  0  0
  -26.3064  -12.9294   20.3425 N   0  0  0  0  0  0
  -25.9335  -11.6472   20.5846 N   0  0  0  0  0  0
  -22.0594  -12.8086   22.0424 N   0  0  0  0  0  0
  -25.4311  -15.1863   20.3778 N   0  0  0  0  0  0
  -31.7438  -14.7038   20.0769 O   0  0  0  0  0  0
  -21.6643   -6.8886   21.4221 O   0  0  0  0  0  0
  -22.3533  -14.5474   20.6702 O   0  0  0  0  0  0
  -24.6064  -31.8754   23.2170 C   0  0  0  0  0  0
  -25.8962  -32.4909   23.8490 C   0  0  1  0  0  0
  -27.2266  -27.4536   20.0870 C   0  0  0  0  0  0
  -25.5870  -33.8702   24.2438 N   0  0  0  0  0  0
  -23.3939  -30.5034   21.5540 C   0  0  2  0  0  0
  -24.8334  -28.9641   20.1231 C   0  0  0  0  0  0
  -22.7367  -29.4746   22.5001 C   0  0  0  0  0  0
  -18.0248  -28.1370   22.8520 C   0  0  0  0  0  0
  -24.1465  -36.7358   23.2657 C   0  0  0  0  0  0
  -25.9222  -30.8364   21.3716 C   0  0  0  0  0  0
  -25.9920  -29.4727   20.7208 C   0  0  0  0  0  0
  -27.1839  -28.7195   20.7089 C   0  0  0  0  0  0
  -26.0427  -26.9401   19.5029 C   0  0  0  0  0  0
  -24.8515  -27.6943   19.5158 C   0  0  0  0  0  0
  -23.6017  -29.8386   20.1683 C   0  0  0  0  0  0
  -25.4081  -36.3192   24.0360 C   0  0  1  0  0  0
  -20.5835  -28.3745   23.1325 C   0  0  2  0  0  0
  -20.6756  -26.9471   22.5459 C   0  0  0  0  0  0
  -19.5721  -26.6292   21.5302 C   0  0  0  0  0  0
  -18.1917  -26.7904   22.1761 C   0  0  0  0  0  0
  -19.1493  -28.8873   23.2899 C   0  0  0  0  0  0
  -18.9393  -30.1484   23.8868 C   0  0  0  0  0  0
  -17.6380  -30.6628   24.0445 C   0  0  0  0  0  0
  -25.8993  -34.9541   23.5206 C   0  0  0  0  0  0
  -16.5295  -29.9078   23.6262 C   0  0  0  0  0  0
  -16.7231  -28.6421   23.0407 C   0  0  0  0  0  0
  -26.4395  -31.6686   25.0812 C   0  0  0  0  0  0
  -25.3714  -31.3708   26.1604 C   0  0  0  0  0  0
  -27.0213  -30.3142   24.6168 C   0  0  0  0  0  0
  -27.6037  -32.4381   25.7540 C   0  0  0  0  0  0
  -27.5595  -37.1834   24.8471 C   0  0  0  0  0  0
  -21.4072  -29.3135   22.3773 N   0  0  0  0  0  0
  -26.4295  -37.3834   23.9424 N   0  0  0  0  0  0
  -24.6605  -31.0837   22.1085 N   0  0  0  0  0  0
  -23.4178  -28.8281   23.3020 O   0  0  0  0  0  0
  -28.4386  -26.8050   20.0734 O   0  0  0  0  0  0
  -26.5577  -34.8936   22.4778 O   0  0  0  0  0  0
  -23.5278  -32.1491   23.7587 O   0  0  0  0  0  0
  -28.7000  -19.5553   22.6591 C   0  0  0  0  0  0
  -28.6819  -20.9168   22.2546 C   0  0  0  0  0  0
  -28.7563  -18.8027   21.5082 C   0  0  0  0  0  0
  -28.7209  -20.8747   20.8879 C   0  0  0  0  0  0
  -28.3345  -24.3883   20.4463 C   0  0  0  0  0  0
  -28.8048  -17.3329   21.2683 C   0  0  0  0  0  0
  -29.3236  -23.2151   20.4166 C   0  0  0  0  0  0
  -28.5706  -25.5303   19.4401 C   0  0  0  0  0  0
  -30.1754  -16.6917   21.5772 C   0  0  0  0  0  0
  -28.7143  -21.9482   20.0101 N   0  0  0  0  0  0
  -30.0659  -15.2381   21.4966 N   0  0  0  0  0  0
  -27.3904  -24.4008   21.2373 O   0  0  0  0  0  0
  -28.7657  -19.6084   20.4025 O   0  0  0  0  0  0
  -31.4713  -12.4121   19.0992 H   0  0  0  0  0  0
  -30.3366  -11.2664   19.7580 H   0  0  0  0  0  0
  -29.7348  -11.8707   17.3858 H   0  0  0  0  0  0
  -29.6391  -13.5520   17.8388 H   0  0  0  0  0  0
  -27.8401  -11.3099   18.8190 H   0  0  0  0  0  0
  -27.3600  -12.6414   17.7997 H   0  0  0  0  0  0
  -27.7288  -14.2478   19.6217 H   0  0  0  0  0  0
  -28.6638  -11.8737   21.3181 H   0  0  0  0  0  0
  -28.4360  -13.4803   21.9055 H   0  0  0  0  0  0
  -25.2820   -9.5609   22.4705 H   0  0  0  0  0  0
  -24.0015   -7.4596   22.7397 H   0  0  0  0  0  0
  -21.0869   -8.8796   19.8886 H   0  0  0  0  0  0
  -22.3775  -10.9678   19.6119 H   0  0  0  0  0  0
  -21.2027   -7.6152   23.9727 H   0  0  0  0  0  0
  -21.1458   -6.0510   25.9087 H   0  0  0  0  0  0
  -22.0617   -2.7598   23.2822 H   0  0  0  0  0  0
  -22.4295  -11.9755   22.4717 H   0  0  0  0  0  0
  -21.1242  -13.1045   22.2765 H   0  0  0  0  0  0
  -24.6450  -15.8280   20.3904 H   0  0  0  0  0  0
  -26.2728  -15.5921   19.9846 H   0  0  0  0  0  0
  -26.7036  -32.5596   23.1292 H   0  0  0  0  0  0
  -24.9927  -33.9880   25.0515 H   0  0  0  0  0  0
  -22.6848  -31.3211   21.4157 H   0  0  0  0  0  0
  -23.3754  -35.9689   23.3338 H   0  0  0  0  0  0
  -24.3532  -36.8925   22.2070 H   0  0  0  0  0  0
  -23.7166  -37.6551   23.6610 H   0  0  0  0  0  0
  -26.0358  -31.6018   20.5988 H   0  0  0  0  0  0
  -26.8069  -30.8930   21.9915 H   0  0  0  0  0  0
  -28.0802  -29.1099   21.1679 H   0  0  0  0  0  0
  -26.0047  -25.9694   19.0385 H   0  0  0  0  0  0
  -23.9557  -27.2968   19.0603 H   0  0  0  0  0  0
  -23.7173  -30.6152   19.4088 H   0  0  0  0  0  0
  -22.7229  -29.2657   19.8700 H   0  0  0  0  0  0
  -25.1242  -36.2126   25.0852 H   0  0  0  0  0  0
  -20.9893  -28.3391   24.1464 H   0  0  0  0  0  0
  -20.5735  -26.2399   23.3716 H   0  0  0  0  0  0
  -21.6627  -26.7524   22.1253 H   0  0  0  0  0  0
  -19.6868  -25.6141   21.1605 H   0  0  0  0  0  0
  -19.6633  -27.2892   20.6629 H   0  0  0  0  0  0
  -17.4168  -26.6529   21.4182 H   0  0  0  0  0  0
  -18.0310  -26.0119   22.9256 H   0  0  0  0  0  0
  -19.7840  -30.7323   24.2214 H   0  0  0  0  0  0
  -17.4900  -31.6316   24.4977 H   0  0  0  0  0  0
  -15.5283  -30.2938   23.7491 H   0  0  0  0  0  0
  -15.8655  -28.0704   22.7190 H   0  0  0  0  0  0
  -24.5893  -30.7037   25.7931 H   0  0  0  0  0  0
  -24.8895  -32.2810   26.5190 H   0  0  0  0  0  0
  -25.8128  -30.8796   27.0303 H   0  0  0  0  0  0
  -26.2713  -29.6951   24.1217 H   0  0  0  0  0  0
  -27.3955  -29.7333   25.4617 H   0  0  0  0  0  0
  -27.8591  -30.4467   23.9319 H   0  0  0  0  0  0
  -27.2709  -33.3665   26.2210 H   0  0  0  0  0  0
  -28.3789  -32.6979   25.0313 H   0  0  0  0  0  0
  -28.0801  -31.8464   26.5375 H   0  0  0  0  0  0
  -28.2649  -38.0106   24.7520 H   0  0  0  0  0  0
  -28.1054  -36.2637   24.6299 H   0  0  0  0  0  0
  -27.2320  -37.1504   25.8878 H   0  0  0  0  0  0
  -20.9194  -29.8869   21.7047 H   0  0  0  0  0  0
  -26.0248  -38.2953   24.1390 H   0  0  0  0  0  0
  -28.6738  -19.1814   23.6759 H   0  0  0  0  0  0
  -28.6356  -21.7876   22.8935 H   0  0  0  0  0  0
  -28.5309  -17.1244   20.2293 H   0  0  0  0  0  0
  -28.0382  -16.8692   21.8883 H   0  0  0  0  0  0
  -29.7651  -23.1200   21.4071 H   0  0  0  0  0  0
  -30.1495  -23.4478   19.7451 H   0  0  0  0  0  0
  -27.9375  -25.4101   18.5691 H   0  0  0  0  0  0
  -29.5952  -25.4570   19.0739 H   0  0  0  0  0  0
  -30.4871  -16.9582   22.5865 H   0  0  0  0  0  0
  -30.9290  -17.0786   20.8889 H   0  0  0  0  0  0
  -27.9487  -22.0046   19.3377 H   0  0  0  0  0  0
  -29.2800  -14.8302   21.9860 H   0  0  0  0  0  0
  1 25  1  0  0  0
  1 30  2  0  0  0
  1 81  1  0  0  0
  2  3  1  0  0  0
  2 25  1  0  0  0
  2 84  1  0  0  0
  2 85  1  0  0  0
  3  4  1  0  0  0
  3 86  1  0  0  0
  3 87  1  0  0  0
  4  5  1  0  0  0
  4 88  1  0  0  0
  4 89  1  0  0  0
  5  6  1  0  0  0
  5 26  1  0  0  0
  5 90  1  0  0  0
  6 25  1  0  0  0
  6 91  1  0  0  0
  6 92  1  0  0  0
  7  8  2  0  0  0
  7 26  1  0  0  0
  7 29  1  0  0  0
  8  9  1  0  0  0
  8 22  1  0  0  0
  9 10  1  0  0  0
  9 27  2  0  0  0
 10 11  2  0  0  0
 10 15  1  0  0  0
 11 12  1  0  0  0
 11 93  1  0  0  0
 12 13  2  0  0  0
 12 94  1  0  0  0
 13 14  1  0  0  0
 13 31  1  0  0  0
 14 15  2  0  0  0
 14 95  1  0  0  0
 15 96  1  0  0  0
 16 17  2  0  0  0
 16 21  1  0  0  0
 16 31  1  0  0  0
 17 18  1  0  0  0
 17 97  1  0  0  0
 18 19  2  0  0  0
 18 98  1  0  0  0
 19 20  1  0  0  0
 19 24  1  0  0  0
 20 21  2  0  0  0
 20 99  1  0  0  0
 21 23  1  0  0  0
 22 28  1  0  0  0
 22 32  2  0  0  0
 26 27  1  0  0  0
 28100  1  0  0  0
 28101  1  0  0  0
 29102  1  0  0  0
 29103  1  0  0  0
 33 34  1  0  0  0
 33 66  1  0  0  0
 33 70  2  0  0  0
 34 36  1  0  0  0
 34 59  1  0  0  0
 34104  1  0  0  0
 35 44  2  0  0  0
 35 45  1  0  0  0
 35 68  1  0  0  0
 36 56  1  0  0  0
 36105  1  0  0  0
 37 39  1  0  0  0
 37 47  1  0  0  0
 37 66  1  0  0  0
 37106  1  0  0  0
 38 43  2  0  0  0
 38 46  1  0  0  0
 38 47  1  0  0  0
 39 64  1  0  0  0
 39 67  2  0  0  0
 40 52  1  0  0  0
 40 53  2  0  0  0
 40 58  1  0  0  0
 41107  1  0  0  0
 41108  1  0  0  0
 41109  1  0  0  0
 41 48  1  0  0  0
 42 43  1  0  0  0
 42 66  1  0  0  0
 42110  1  0  0  0
 42111  1  0  0  0
 43 44  1  0  0  0
 44112  1  0  0  0
 45 46  2  0  0  0
 45113  1  0  0  0
 46114  1  0  0  0
 47115  1  0  0  0
 47116  1  0  0  0
 48 56  1  0  0  0
 48 65  1  0  0  0
 48117  1  0  0  0
 49 50  1  0  0  0
 49 53  1  0  0  0
 49 64  1  0  0  0
 49118  1  0  0  0
 50 51  1  0  0  0
 50119  1  0  0  0
 50120  1  0  0  0
 51 52  1  0  0  0
 51121  1  0  0  0
 51122  1  0  0  0
 52123  1  0  0  0
 52124  1  0  0  0
 53 54  1  0  0  0
 54 55  2  0  0  0
 54125  1  0  0  0
 55 57  1  0  0  0
 55126  1  0  0  0
 56 69  2  0  0  0
 57 58  2  0  0  0
 57127  1  0  0  0
 58128  1  0  0  0
 59 60  1  0  0  0
 59 61  1  0  0  0
 59 62  1  0  0  0
 60129  1  0  0  0
 60130  1  0  0  0
 60131  1  0  0  0
 61132  1  0  0  0
 61133  1  0  0  0
 61134  1  0  0  0
 62135  1  0  0  0
 62136  1  0  0  0
 62137  1  0  0  0
 63 65  1  0  0  0
 63138  1  0  0  0
 63139  1  0  0  0
 63140  1  0  0  0
 64141  1  0  0  0
 65142  1  0  0  0
 68 78  1  0  0  0
 71 72  1  0  0  0
 71 73  2  0  0  0
 71143  1  0  0  0
 72 74  2  0  0  0
 72144  1  0  0  0
 73 76  1  0  0  0
 73 83  1  0  0  0
 74 80  1  0  0  0
 74 83  1  0  0  0
 75 77  1  0  0  0
 75 78  1  0  0  0
 75 82  2  0  0  0
 76 79  1  0  0  0
 76145  1  0  0  0
 76146  1  0  0  0
 77 80  1  0  0  0
 77147  1  0  0  0
 77148  1  0  0  0
 78149  1  0  0  0
 78150  1  0  0  0
 79 81  1  0  0  0
 79151  1  0  0  0
 79152  1  0  0  0
 80153  1  0  0  0
 81154  1  0  0  0
M  ISO  4   1 100  68 101  78 101  81 100
M  END
> <chiral flag>
0

> <version>
0

> <s_m_source_file>
/data/baiqing/PycharmProjects/Reinvent-master-3.2/result/LINK_invent/BTK/process_docking_weight1_custom_product_contain_oxygen_bond_distance_aromatic_linkinvent_7_9_3/rearranged_h_0165.sdf

> <i_m_source_file_index>
60

> <r_mmod_Potential_Energy-OPLS-2005>
-101.494148254395

> <r_mmod_Stretch_Energy-OPLS-2005>
31.5824508666992

> <r_mmod_Bend_Energy-OPLS-2005>
103.864440917969

> <r_mmod_Torsional_Energy-OPLS-2005>
219.63053894043

> <r_mmod_Improper_Torsional_Energy-OPLS-2005>
5.47052764892578

> <r_mmod_Van_der_Waal_Energy-OPLS-2005>
131.780670166016

> <r_mmod_Electrostatic_Energy-OPLS-2005>
-353.424835205078

> <r_mmod_Solvation_Energy-OPLS-2005>
-250.010269165039

> <b_mmod_Minimization_Converged-OPLS-2005>
0

> <r_mmod_RMS_Derivative-OPLS-2005>
7.44469165802002

$$$$
61
                    3D
 Structure written by MMmdl.
159168  0  0  1  0            999 V2000
  -30.7412  -14.4219   20.6192 C   0  0  0  0  0  0
  -30.4143  -12.2952   19.4136 C   0  0  0  0  0  0
  -29.4873  -12.5113   18.2016 C   0  0  0  0  0  0
  -28.0101  -12.3725   18.6162 C   0  0  0  0  0  0
  -27.6620  -13.2078   19.8772 C   0  0  2  0  0  0
  -28.7019  -12.9797   20.9971 C   0  0  0  0  0  0
  -25.2590  -13.8172   20.5681 C   0  0  0  0  0  0
  -24.1838  -13.0447   20.9166 C   0  0  0  0  0  0
  -24.6392  -11.6911   20.8731 C   0  0  0  0  0  0
  -23.9061  -10.4296   21.0406 C   0  0  0  0  0  0
  -24.3614   -9.4212   21.9185 C   0  0  0  0  0  0
  -23.6290   -8.2247   22.0757 C   0  0  0  0  0  0
  -22.4275   -8.0284   21.3546 C   0  0  0  0  0  0
  -21.9909   -9.0257   20.4648 C   0  0  0  0  0  0
  -22.7236  -10.2135   20.3057 C   0  0  0  0  0  0
  -21.6853   -6.0739   22.5278 C   0  0  0  0  0  0
  -21.4013   -6.5642   23.8211 C   0  0  0  0  0  0
  -21.3657   -5.6795   24.9173 C   0  0  0  0  0  0
  -21.6047   -4.3058   24.7224 C   0  0  0  0  0  0
  -21.8818   -3.8151   23.4345 C   0  0  0  0  0  0
  -21.9189   -4.6968   22.3401 C   0  0  0  0  0  0
  -22.7860  -13.5246   21.1835 C   0  0  0  0  0  0
  -22.1661   -4.2153   21.0979 F   0  0  0  0  0  0
  -21.5627   -3.4543   25.7737 F   0  0  0  0  0  0
  -30.0367  -13.2723   20.4472 N   0  0  0  0  0  0
  -26.3026  -12.9342   20.3380 N   0  0  0  0  0  0
  -25.9320  -11.6499   20.5771 N   0  0  0  0  0  0
  -22.0503  -12.8232   22.0390 N   0  0  0  0  0  0
  -25.4330  -15.1889   20.4110 N   0  0  0  0  0  0
  -31.8339  -14.6171   20.0783 O   0  0  0  0  0  0
  -21.6640   -6.8882   21.4242 O   0  0  0  0  0  0
  -22.3542  -14.5554   20.6691 O   0  0  0  0  0  0
  -24.6115  -31.8693   23.2119 C   0  0  0  0  0  0
  -25.9021  -32.4827   23.8406 C   0  0  1  0  0  0
  -27.2382  -27.4575   20.0977 C   0  0  0  0  0  0
  -25.5889  -33.8624   24.2342 N   0  0  0  0  0  0
  -23.3983  -30.4916   21.5515 C   0  0  2  0  0  0
  -24.8471  -28.9565   20.1182 C   0  0  0  0  0  0
  -22.7389  -29.4663   22.5013 C   0  0  0  0  0  0
  -18.0259  -28.1376   22.8492 C   0  0  0  0  0  0
  -24.1486  -36.7319   23.2637 C   0  0  0  0  0  0
  -25.9229  -30.8411   21.3615 C   0  0  0  0  0  0
  -26.0024  -29.4736   20.7185 C   0  0  0  0  0  0
  -27.2013  -28.7293   20.7133 C   0  0  0  0  0  0
  -26.0745  -26.9531   19.4862 C   0  0  0  0  0  0
  -24.8755  -27.6917   19.5029 C   0  0  0  0  0  0
  -23.6061  -29.8194   20.1670 C   0  0  0  0  0  0
  -25.4101  -36.3112   24.0346 C   0  0  1  0  0  0
  -20.5849  -28.3653   23.1333 C   0  0  2  0  0  0
  -20.6753  -26.9395   22.5423 C   0  0  0  0  0  0
  -19.5731  -26.6379   21.5217 C   0  0  0  0  0  0
  -18.1907  -26.7922   22.1624 C   0  0  0  0  0  0
  -19.1510  -28.8832   23.2908 C   0  0  0  0  0  0
  -18.9447  -30.1442   23.8916 C   0  0  0  0  0  0
  -17.6453  -30.6588   24.0563 C   0  0  0  0  0  0
  -25.9030  -34.9477   23.5141 C   0  0  0  0  0  0
  -16.5340  -29.9092   23.6328 C   0  0  0  0  0  0
  -16.7252  -28.6507   23.0351 C   0  0  0  0  0  0
  -26.4463  -31.6589   25.0716 C   0  0  0  0  0  0
  -25.3738  -31.3678   26.1472 C   0  0  0  0  0  0
  -27.0293  -30.3043   24.6053 C   0  0  0  0  0  0
  -27.6050  -32.4292   25.7476 C   0  0  0  0  0  0
  -27.5590  -37.1797   24.8456 C   0  0  0  0  0  0
  -21.4120  -29.3028   22.3750 N   0  0  0  0  0  0
  -26.4286  -37.3799   23.9427 N   0  0  0  0  0  0
  -24.6622  -31.0814   22.1007 N   0  0  0  0  0  0
  -23.4169  -28.8210   23.3051 O   0  0  0  0  0  0
  -28.3841  -26.7029   20.0362 O   0  0  0  0  0  0
  -26.5591  -34.8927   22.4701 O   0  0  0  0  0  0
  -23.5315  -32.1435   23.7529 O   0  0  0  0  0  0
  -31.6229  -19.2912   22.1236 C   0  0  0  0  0  0
  -31.9922  -16.8857   22.0008 C   0  0  0  0  0  0
  -30.2739  -19.1217   21.7253 C   0  0  0  0  0  0
  -30.6496  -16.6880   21.6022 C   0  0  0  0  0  0
  -32.4736  -18.1804   22.2595 C   0  0  0  0  0  0
  -29.7911  -17.8093   21.4926 C   0  0  0  0  0  0
  -28.6358  -23.8357   20.7948 C   0  0  0  0  0  0
  -28.7054  -24.8756   21.6322 C   0  0  0  0  0  0
  -29.6308  -21.5243   21.4163 C   0  0  0  0  0  0
  -28.5418  -24.4485   23.0648 C   0  0  0  0  0  0
  -28.1920  -22.9460   22.9669 C   0  0  0  0  0  0
  -28.4430  -22.5043   21.4980 C   0  0  1  0  0  0
  -28.9567  -26.3392   21.2914 C   0  0  0  0  0  0
  -29.3605  -20.2161   21.5981 N   0  0  0  0  0  0
  -30.1368  -15.3810   21.3422 N   0  0  0  0  0  0
  -30.7574  -21.9588   21.1633 O   0  0  0  0  0  0
  -33.7593  -18.3573   22.6462 F   0  0  0  0  0  0
  -28.4935  -17.6253   21.1443 F   0  0  0  0  0  0
  -31.4589  -12.3833   19.1097 H   0  0  0  0  0  0
  -30.3067  -11.2813   19.8025 H   0  0  0  0  0  0
  -29.7224  -11.7940   17.4141 H   0  0  0  0  0  0
  -29.6594  -13.5013   17.7758 H   0  0  0  0  0  0
  -27.8175  -11.3159   18.8060 H   0  0  0  0  0  0
  -27.3594  -12.6549   17.7879 H   0  0  0  0  0  0
  -27.7102  -14.2576   19.5863 H   0  0  0  0  0  0
  -28.6713  -11.9434   21.3367 H   0  0  0  0  0  0
  -28.4604  -13.5771   21.8768 H   0  0  0  0  0  0
  -25.2759   -9.5685   22.4761 H   0  0  0  0  0  0
  -24.0000   -7.4640   22.7474 H   0  0  0  0  0  0
  -21.0843   -8.8772   19.8953 H   0  0  0  0  0  0
  -22.3695  -10.9674   19.6165 H   0  0  0  0  0  0
  -21.2008   -7.6150   23.9715 H   0  0  0  0  0  0
  -21.1482   -6.0527   25.9073 H   0  0  0  0  0  0
  -22.0599   -2.7614   23.2846 H   0  0  0  0  0  0
  -22.4117  -11.9880   22.4758 H   0  0  0  0  0  0
  -21.1130  -13.1267   22.2619 H   0  0  0  0  0  0
  -24.6720  -15.8489   20.5268 H   0  0  0  0  0  0
  -26.2992  -15.6314   20.1291 H   0  0  0  0  0  0
  -26.7099  -32.5563   23.1181 H   0  0  0  0  0  0
  -25.0046  -33.9788   25.0494 H   0  0  0  0  0  0
  -22.6854  -31.3072   21.4112 H   0  0  0  0  0  0
  -23.3752  -35.9645   23.3272 H   0  0  0  0  0  0
  -24.3596  -36.8952   22.2056 H   0  0  0  0  0  0
  -23.7225  -37.6513   23.6665 H   0  0  0  0  0  0
  -26.0253  -31.6022   20.5865 H   0  0  0  0  0  0
  -26.8144  -30.9045   21.9730 H   0  0  0  0  0  0
  -28.0954  -29.1332   21.1673 H   0  0  0  0  0  0
  -26.0988  -25.9853   19.0056 H   0  0  0  0  0  0
  -23.9878  -27.2864   19.0370 H   0  0  0  0  0  0
  -23.7096  -30.5913   19.4036 H   0  0  0  0  0  0
  -22.7318  -29.2343   19.8751 H   0  0  0  0  0  0
  -25.1267  -36.1978   25.0837 H   0  0  0  0  0  0
  -20.9934  -28.3217   24.1456 H   0  0  0  0  0  0
  -20.5663  -26.2260   23.3603 H   0  0  0  0  0  0
  -21.6626  -26.7444   22.1214 H   0  0  0  0  0  0
  -19.6894  -25.6292   21.1240 H   0  0  0  0  0  0
  -19.6680  -27.3196   20.6755 H   0  0  0  0  0  0
  -17.4180  -26.6676   21.4020 H   0  0  0  0  0  0
  -18.0299  -26.0057   22.9011 H   0  0  0  0  0  0
  -19.7928  -30.7246   24.2292 H   0  0  0  0  0  0
  -17.5014  -31.6273   24.5152 H   0  0  0  0  0  0
  -15.5347  -30.3005   23.7647 H   0  0  0  0  0  0
  -15.8644  -28.0841   22.7062 H   0  0  0  0  0  0
  -24.5913  -30.7020   25.7809 H   0  0  0  0  0  0
  -24.8925  -32.2826   26.4942 H   0  0  0  0  0  0
  -25.8094  -30.8835   27.0219 H   0  0  0  0  0  0
  -26.2819  -29.6807   24.1128 H   0  0  0  0  0  0
  -27.4111  -29.7269   25.4484 H   0  0  0  0  0  0
  -27.8630  -30.4388   23.9155 H   0  0  0  0  0  0
  -27.2688  -33.3587   26.2081 H   0  0  0  0  0  0
  -28.3845  -32.6849   25.0288 H   0  0  0  0  0  0
  -28.0725  -31.8388   26.5364 H   0  0  0  0  0  0
  -28.2565  -38.0138   24.7573 H   0  0  0  0  0  0
  -28.1126  -36.2672   24.6183 H   0  0  0  0  0  0
  -27.2321  -37.1332   25.8858 H   0  0  0  0  0  0
  -20.9277  -29.8761   21.6987 H   0  0  0  0  0  0
  -26.0174  -38.2869   24.1464 H   0  0  0  0  0  0
  -32.0288  -20.2650   22.3487 H   0  0  0  0  0  0
  -32.6653  -16.0493   22.1158 H   0  0  0  0  0  0
  -28.7465  -23.8994   19.7216 H   0  0  0  0  0  0
  -27.7538  -25.0188   23.5586 H   0  0  0  0  0  0
  -29.4769  -24.6108   23.6032 H   0  0  0  0  0  0
  -27.1391  -22.7997   23.2109 H   0  0  0  0  0  0
  -28.7616  -22.3655   23.6952 H   0  0  0  0  0  0
  -27.5530  -22.0244   21.0876 H   0  0  0  0  0  0
  -30.0322  -26.5116   21.2567 H   0  0  0  0  0  0
  -28.5769  -26.9520   22.1106 H   0  0  0  0  0  0
  -28.3818  -19.9650   21.6439 H   0  0  0  0  0  0
  -29.1774  -15.2096   21.6015 H   0  0  0  0  0  0
  1 25  1  0  0  0
  1 30  2  0  0  0
  1 85  1  0  0  0
  2  3  1  0  0  0
  2 25  1  0  0  0
  2 89  1  0  0  0
  2 90  1  0  0  0
  3  4  1  0  0  0
  3 91  1  0  0  0
  3 92  1  0  0  0
  4  5  1  0  0  0
  4 93  1  0  0  0
  4 94  1  0  0  0
  5  6  1  0  0  0
  5 26  1  0  0  0
  5 95  1  0  0  0
  6 25  1  0  0  0
  6 96  1  0  0  0
  6 97  1  0  0  0
  7  8  2  0  0  0
  7 26  1  0  0  0
  7 29  1  0  0  0
  8  9  1  0  0  0
  8 22  1  0  0  0
  9 10  1  0  0  0
  9 27  2  0  0  0
 10 11  2  0  0  0
 10 15  1  0  0  0
 11 12  1  0  0  0
 11 98  1  0  0  0
 12 13  2  0  0  0
 12 99  1  0  0  0
 13 14  1  0  0  0
 13 31  1  0  0  0
 14 15  2  0  0  0
 14100  1  0  0  0
 15101  1  0  0  0
 16 17  2  0  0  0
 16 21  1  0  0  0
 16 31  1  0  0  0
 17 18  1  0  0  0
 17102  1  0  0  0
 18 19  2  0  0  0
 18103  1  0  0  0
 19 20  1  0  0  0
 19 24  1  0  0  0
 20 21  2  0  0  0
 20104  1  0  0  0
 21 23  1  0  0  0
 22 28  1  0  0  0
 22 32  2  0  0  0
 26 27  1  0  0  0
 28105  1  0  0  0
 28106  1  0  0  0
 29107  1  0  0  0
 29108  1  0  0  0
 33 34  1  0  0  0
 33 66  1  0  0  0
 33 70  2  0  0  0
 34 36  1  0  0  0
 34 59  1  0  0  0
 34109  1  0  0  0
 35 44  2  0  0  0
 35 45  1  0  0  0
 35 68  1  0  0  0
 36 56  1  0  0  0
 36110  1  0  0  0
 37 39  1  0  0  0
 37 47  1  0  0  0
 37 66  1  0  0  0
 37111  1  0  0  0
 38 43  2  0  0  0
 38 46  1  0  0  0
 38 47  1  0  0  0
 39 64  1  0  0  0
 39 67  2  0  0  0
 40 52  1  0  0  0
 40 53  2  0  0  0
 40 58  1  0  0  0
 41112  1  0  0  0
 41113  1  0  0  0
 41114  1  0  0  0
 41 48  1  0  0  0
 42 43  1  0  0  0
 42 66  1  0  0  0
 42115  1  0  0  0
 42116  1  0  0  0
 43 44  1  0  0  0
 44117  1  0  0  0
 45 46  2  0  0  0
 45118  1  0  0  0
 46119  1  0  0  0
 47120  1  0  0  0
 47121  1  0  0  0
 48 56  1  0  0  0
 48 65  1  0  0  0
 48122  1  0  0  0
 49 50  1  0  0  0
 49 53  1  0  0  0
 49 64  1  0  0  0
 49123  1  0  0  0
 50 51  1  0  0  0
 50124  1  0  0  0
 50125  1  0  0  0
 51 52  1  0  0  0
 51126  1  0  0  0
 51127  1  0  0  0
 52128  1  0  0  0
 52129  1  0  0  0
 53 54  1  0  0  0
 54 55  2  0  0  0
 54130  1  0  0  0
 55 57  1  0  0  0
 55131  1  0  0  0
 56 69  2  0  0  0
 57 58  2  0  0  0
 57132  1  0  0  0
 58133  1  0  0  0
 59 60  1  0  0  0
 59 61  1  0  0  0
 59 62  1  0  0  0
 60134  1  0  0  0
 60135  1  0  0  0
 60136  1  0  0  0
 61137  1  0  0  0
 61138  1  0  0  0
 61139  1  0  0  0
 62140  1  0  0  0
 62141  1  0  0  0
 62142  1  0  0  0
 63 65  1  0  0  0
 63143  1  0  0  0
 63144  1  0  0  0
 63145  1  0  0  0
 64146  1  0  0  0
 65147  1  0  0  0
 68 83  1  0  0  0
 71 73  2  0  0  0
 71 75  1  0  0  0
 71148  1  0  0  0
 72 74  1  0  0  0
 72 75  2  0  0  0
 72149  1  0  0  0
 73 76  1  0  0  0
 73 84  1  0  0  0
 74 76  2  0  0  0
 74 85  1  0  0  0
 75 87  1  0  0  0
 76 88  1  0  0  0
 77 78  2  0  0  0
 77 82  1  0  0  0
 77150  1  0  0  0
 78 80  1  0  0  0
 78 83  1  0  0  0
 79 84  1  0  0  0
 79 86  2  0  0  0
 79 82  1  0  0  0
 80 81  1  0  0  0
 80151  1  0  0  0
 80152  1  0  0  0
 81 82  1  0  0  0
 81153  1  0  0  0
 81154  1  0  0  0
 82155  1  0  0  0
 83156  1  0  0  0
 83157  1  0  0  0
 84158  1  0  0  0
 85159  1  0  0  0
M  ISO  4   1 100  68 101  83 101  85 100
M  END
> <chiral flag>
0

> <version>
0

> <s_m_source_file>
/data/baiqing/PycharmProjects/Reinvent-master-3.2/result/LINK_invent/BTK/process_docking_weight1_custom_product_contain_oxygen_bond_distance_aromatic_linkinvent_7_9_3/rearranged_h_0165.sdf

> <i_m_source_file_index>
61

> <r_mmod_Potential_Energy-OPLS-2005>
-41.2250366210938

> <r_mmod_Stretch_Energy-OPLS-2005>
35.7128067016602

> <r_mmod_Bend_Energy-OPLS-2005>
135.031799316406

> <r_mmod_Torsional_Energy-OPLS-2005>
257.684448242188

> <r_mmod_Improper_Torsional_Energy-OPLS-2005>
2.6290557384491

> <r_mmod_Van_der_Waal_Energy-OPLS-2005>
156.292221069336

> <r_mmod_Electrostatic_Energy-OPLS-2005>
-419.054168701172

> <r_mmod_Solvation_Energy-OPLS-2005>
-217.715072631836

> <b_mmod_Minimization_Converged-OPLS-2005>
0

> <r_mmod_RMS_Derivative-OPLS-2005>
0.849906027317047

$$$$
62
                    3D
 Structure written by MMmdl.
155163  0  0  1  0            999 V2000
  -30.7311  -14.5132   20.5245 C   0  0  0  0  0  0
  -30.3836  -12.3042   19.4728 C   0  0  0  0  0  0
  -29.4941  -12.4986   18.2292 C   0  0  0  0  0  0
  -28.0139  -12.3512   18.6303 C   0  0  0  0  0  0
  -27.6430  -13.2251   19.8592 C   0  0  2  0  0  0
  -28.6803  -13.0948   21.0010 C   0  0  0  0  0  0
  -25.2517  -13.8184   20.5679 C   0  0  0  0  0  0
  -24.1802  -13.0441   20.9209 C   0  0  0  0  0  0
  -24.6373  -11.6909   20.8755 C   0  0  0  0  0  0
  -23.9068  -10.4281   21.0413 C   0  0  0  0  0  0
  -24.3624   -9.4182   21.9191 C   0  0  0  0  0  0
  -23.6294   -8.2228   22.0744 C   0  0  0  0  0  0
  -22.4285   -8.0275   21.3527 C   0  0  0  0  0  0
  -21.9916   -9.0255   20.4632 C   0  0  0  0  0  0
  -22.7239  -10.2129   20.3044 C   0  0  0  0  0  0
  -21.6850   -6.0739   22.5286 C   0  0  0  0  0  0
  -21.4013   -6.5645   23.8213 C   0  0  0  0  0  0
  -21.3677   -5.6794   24.9169 C   0  0  0  0  0  0
  -21.6037   -4.3058   24.7216 C   0  0  0  0  0  0
  -21.8819   -3.8156   23.4335 C   0  0  0  0  0  0
  -21.9180   -4.6972   22.3391 C   0  0  0  0  0  0
  -22.7821  -13.5196   21.1897 C   0  0  0  0  0  0
  -22.1657   -4.2154   21.0967 F   0  0  0  0  0  0
  -21.5629   -3.4543   25.7732 F   0  0  0  0  0  0
  -30.0151  -13.3541   20.4377 N   0  0  0  0  0  0
  -26.2929  -12.9391   20.3277 N   0  0  0  0  0  0
  -25.9291  -11.6551   20.5747 N   0  0  0  0  0  0
  -22.0484  -12.8187   22.0437 N   0  0  0  0  0  0
  -25.4308  -15.1907   20.4144 N   0  0  0  0  0  0
  -31.8998  -14.5931   20.1321 O   0  0  0  0  0  0
  -21.6636   -6.8877   21.4241 O   0  0  0  0  0  0
  -22.3504  -14.5508   20.6706 O   0  0  0  0  0  0
  -24.6164  -31.8717   23.2155 C   0  0  0  0  0  0
  -25.9035  -32.4856   23.8470 C   0  0  1  0  0  0
  -27.2305  -27.3791   20.0755 C   0  0  0  0  0  0
  -25.5855  -33.8682   24.2393 N   0  0  0  0  0  0
  -23.4120  -30.4979   21.5568 C   0  0  2  0  0  0
  -24.8579  -28.9562   20.1229 C   0  0  0  0  0  0
  -22.7448  -29.4668   22.5004 C   0  0  0  0  0  0
  -18.0218  -28.1418   22.8525 C   0  0  0  0  0  0
  -24.1483  -36.7310   23.2642 C   0  0  0  0  0  0
  -25.9530  -30.8044   21.3913 C   0  0  0  0  0  0
  -26.0230  -29.4419   20.7231 C   0  0  0  0  0  0
  -27.2083  -28.6612   20.6919 C   0  0  0  0  0  0
  -26.0295  -26.9048   19.5028 C   0  0  0  0  0  0
  -24.8545  -27.6873   19.5207 C   0  0  0  0  0  0
  -23.6287  -29.8431   20.1689 C   0  0  0  0  0  0
  -25.4110  -36.3203   24.0374 C   0  0  1  0  0  0
  -20.5866  -28.3676   23.1352 C   0  0  2  0  0  0
  -20.6700  -26.9430   22.5359 C   0  0  0  0  0  0
  -19.5674  -26.6460   21.5175 C   0  0  0  0  0  0
  -18.1871  -26.7973   22.1607 C   0  0  0  0  0  0
  -19.1511  -28.8825   23.2966 C   0  0  0  0  0  0
  -18.9488  -30.1389   23.9041 C   0  0  0  0  0  0
  -17.6538  -30.6599   24.0617 C   0  0  0  0  0  0
  -25.9031  -34.9512   23.5212 C   0  0  0  0  0  0
  -16.5371  -29.9177   23.6423 C   0  0  0  0  0  0
  -16.7226  -28.6587   23.0434 C   0  0  0  0  0  0
  -26.4456  -31.6621   25.0786 C   0  0  0  0  0  0
  -25.3646  -31.3703   26.1434 C   0  0  0  0  0  0
  -27.0301  -30.3064   24.6238 C   0  0  0  0  0  0
  -27.6114  -32.4298   25.7424 C   0  0  0  0  0  0
  -27.5608  -37.1824   24.8478 C   0  0  0  0  0  0
  -21.4144  -29.3120   22.3773 N   0  0  0  0  0  0
  -26.4351  -37.3840   23.9388 N   0  0  0  0  0  0
  -24.6774  -31.0745   22.1101 N   0  0  0  0  0  0
  -23.4178  -28.8159   23.3040 O   0  0  0  0  0  0
  -28.4051  -26.6328   20.0822 O   0  0  0  0  0  0
  -26.5608  -34.8931   22.4803 O   0  0  0  0  0  0
  -23.5339  -32.1529   23.7468 O   0  0  0  0  0  0
  -28.8398  -18.5000   21.8886 C   0  0  0  0  0  0
  -29.7198  -18.2152   20.8588 C   0  0  0  0  0  0
  -28.9745  -20.2647   20.6445 C   0  0  0  0  0  0
  -28.4414  -17.8100   23.1056 C   0  0  0  0  0  0
  -28.3745  -24.0960   20.1338 C   0  0  0  0  0  0
  -27.6375  -18.6261   24.1241 C   0  0  0  0  0  0
  -30.6325  -17.0024   20.6536 C   0  0  0  0  0  0
  -29.0486  -22.7802   19.6320 C   0  0  0  0  0  0
  -28.5432  -25.4017   19.3019 C   0  0  0  0  0  0
  -29.7887  -19.3791   20.0533 N   0  0  0  0  0  0
  -28.7028  -21.6240   20.4726 N   0  0  0  0  0  0
  -30.0598  -15.6420   20.8392 N   0  0  0  0  0  0
  -28.7348  -16.6375   23.3394 O   0  0  0  0  0  0
  -27.7104  -24.0871   21.1764 O   0  0  0  0  0  0
  -28.3284  -19.7587   21.7101 O   0  0  0  0  0  0
  -31.4434  -12.3203   19.2176 H   0  0  0  0  0  0
  -30.2024  -11.3244   19.9130 H   0  0  0  0  0  0
  -29.7519  -11.7775   17.4532 H   0  0  0  0  0  0
  -29.6630  -13.4866   17.8020 H   0  0  0  0  0  0
  -27.8323  -11.2980   18.8426 H   0  0  0  0  0  0
  -27.3696  -12.5951   17.7861 H   0  0  0  0  0  0
  -27.6576  -14.2531   19.5020 H   0  0  0  0  0  0
  -28.6509  -12.0917   21.4269 H   0  0  0  0  0  0
  -28.4459  -13.7858   21.8153 H   0  0  0  0  0  0
  -25.2755   -9.5651   22.4767 H   0  0  0  0  0  0
  -24.0011   -7.4587   22.7422 H   0  0  0  0  0  0
  -21.0865   -8.8738   19.8918 H   0  0  0  0  0  0
  -22.3689  -10.9670   19.6154 H   0  0  0  0  0  0
  -21.2027   -7.6154   23.9721 H   0  0  0  0  0  0
  -21.1508   -6.0524   25.9072 H   0  0  0  0  0  0
  -22.0592   -2.7619   23.2822 H   0  0  0  0  0  0
  -22.4157  -11.9861   22.4812 H   0  0  0  0  0  0
  -21.1099  -13.1185   22.2678 H   0  0  0  0  0  0
  -24.6644  -15.8512   20.4789 H   0  0  0  0  0  0
  -26.2871  -15.6172   20.0886 H   0  0  0  0  0  0
  -26.7049  -32.5581   23.1187 H   0  0  0  0  0  0
  -25.0003  -33.9893   25.0510 H   0  0  0  0  0  0
  -22.7035  -31.3180   21.4215 H   0  0  0  0  0  0
  -23.3824  -35.9574   23.3346 H   0  0  0  0  0  0
  -24.3582  -36.8885   22.2062 H   0  0  0  0  0  0
  -23.7124  -37.6492   23.6589 H   0  0  0  0  0  0
  -26.0926  -31.5760   20.6360 H   0  0  0  0  0  0
  -26.8306  -30.8389   22.0209 H   0  0  0  0  0  0
  -28.1164  -29.0294   21.1544 H   0  0  0  0  0  0
  -25.9663  -25.9243   19.0496 H   0  0  0  0  0  0
  -23.9416  -27.2982   19.0892 H   0  0  0  0  0  0
  -23.7674  -30.6328   19.4264 H   0  0  0  0  0  0
  -22.7420  -29.2938   19.8559 H   0  0  0  0  0  0
  -25.1274  -36.2160   25.0878 H   0  0  0  0  0  0
  -21.0011  -28.3173   24.1421 H   0  0  0  0  0  0
  -20.5643  -26.2181   23.3437 H   0  0  0  0  0  0
  -21.6566  -26.7489   22.1156 H   0  0  0  0  0  0
  -19.6770  -25.6456   21.0988 H   0  0  0  0  0  0
  -19.6694  -27.3408   20.6838 H   0  0  0  0  0  0
  -17.4216  -26.6792   21.3923 H   0  0  0  0  0  0
  -18.0188  -26.0035   22.8894 H   0  0  0  0  0  0
  -19.7983  -30.7088   24.2588 H   0  0  0  0  0  0
  -17.5230  -31.6276   24.5196 H   0  0  0  0  0  0
  -15.5406  -30.3194   23.7696 H   0  0  0  0  0  0
  -15.8624  -28.0886   22.7225 H   0  0  0  0  0  0
  -24.5899  -30.7024   25.7625 H   0  0  0  0  0  0
  -24.8705  -32.2835   26.4784 H   0  0  0  0  0  0
  -25.7868  -30.8871   27.0234 H   0  0  0  0  0  0
  -26.2915  -29.6805   24.1234 H   0  0  0  0  0  0
  -27.3972  -29.7339   25.4750 H   0  0  0  0  0  0
  -27.8763  -30.4375   23.9491 H   0  0  0  0  0  0
  -27.2917  -33.3663   26.1959 H   0  0  0  0  0  0
  -28.3837  -32.6739   25.0118 H   0  0  0  0  0  0
  -28.0821  -31.8418   26.5299 H   0  0  0  0  0  0
  -28.2678  -38.0085   24.7551 H   0  0  0  0  0  0
  -28.1078  -36.2640   24.6301 H   0  0  0  0  0  0
  -27.2307  -37.1420   25.8879 H   0  0  0  0  0  0
  -20.9321  -29.8951   21.7024 H   0  0  0  0  0  0
  -26.0310  -38.2963   24.1350 H   0  0  0  0  0  0
  -26.5664  -18.5190   23.9457 H   0  0  0  0  0  0
  -27.8851  -19.6880   24.0509 H   0  0  0  0  0  0
  -27.8447  -18.3131   25.1463 H   0  0  0  0  0  0
  -31.0612  -17.0408   19.6526 H   0  0  0  0  0  0
  -31.4955  -17.0864   21.3186 H   0  0  0  0  0  0
  -28.7302  -22.5990   18.6021 H   0  0  0  0  0  0
  -30.1260  -22.9380   19.6229 H   0  0  0  0  0  0
  -27.8768  -25.3731   18.4462 H   0  0  0  0  0  0
  -29.5452  -25.4019   18.8835 H   0  0  0  0  0  0
  -28.1286  -21.9819   21.2334 H   0  0  0  0  0  0
  -29.1089  -15.5726   21.1692 H   0  0  0  0  0  0
  1 25  1  0  0  0
  1 30  2  0  0  0
  1 82  1  0  0  0
  2  3  1  0  0  0
  2 25  1  0  0  0
  2 86  1  0  0  0
  2 87  1  0  0  0
  3  4  1  0  0  0
  3 88  1  0  0  0
  3 89  1  0  0  0
  4  5  1  0  0  0
  4 90  1  0  0  0
  4 91  1  0  0  0
  5  6  1  0  0  0
  5 26  1  0  0  0
  5 92  1  0  0  0
  6 25  1  0  0  0
  6 93  1  0  0  0
  6 94  1  0  0  0
  7  8  2  0  0  0
  7 26  1  0  0  0
  7 29  1  0  0  0
  8  9  1  0  0  0
  8 22  1  0  0  0
  9 10  1  0  0  0
  9 27  2  0  0  0
 10 11  2  0  0  0
 10 15  1  0  0  0
 11 12  1  0  0  0
 11 95  1  0  0  0
 12 13  2  0  0  0
 12 96  1  0  0  0
 13 14  1  0  0  0
 13 31  1  0  0  0
 14 15  2  0  0  0
 14 97  1  0  0  0
 15 98  1  0  0  0
 16 17  2  0  0  0
 16 21  1  0  0  0
 16 31  1  0  0  0
 17 18  1  0  0  0
 17 99  1  0  0  0
 18 19  2  0  0  0
 18100  1  0  0  0
 19 20  1  0  0  0
 19 24  1  0  0  0
 20 21  2  0  0  0
 20101  1  0  0  0
 21 23  1  0  0  0
 22 28  1  0  0  0
 22 32  2  0  0  0
 26 27  1  0  0  0
 28102  1  0  0  0
 28103  1  0  0  0
 29104  1  0  0  0
 29105  1  0  0  0
 33 34  1  0  0  0
 33 66  1  0  0  0
 33 70  2  0  0  0
 34 36  1  0  0  0
 34 59  1  0  0  0
 34106  1  0  0  0
 35 44  2  0  0  0
 35 45  1  0  0  0
 35 68  1  0  0  0
 36 56  1  0  0  0
 36107  1  0  0  0
 37 39  1  0  0  0
 37 47  1  0  0  0
 37 66  1  0  0  0
 37108  1  0  0  0
 38 43  2  0  0  0
 38 46  1  0  0  0
 38 47  1  0  0  0
 39 64  1  0  0  0
 39 67  2  0  0  0
 40 52  1  0  0  0
 40 53  2  0  0  0
 40 58  1  0  0  0
 41109  1  0  0  0
 41110  1  0  0  0
 41111  1  0  0  0
 41 48  1  0  0  0
 42 43  1  0  0  0
 42 66  1  0  0  0
 42112  1  0  0  0
 42113  1  0  0  0
 43 44  1  0  0  0
 44114  1  0  0  0
 45 46  2  0  0  0
 45115  1  0  0  0
 46116  1  0  0  0
 47117  1  0  0  0
 47118  1  0  0  0
 48 56  1  0  0  0
 48 65  1  0  0  0
 48119  1  0  0  0
 49 50  1  0  0  0
 49 53  1  0  0  0
 49 64  1  0  0  0
 49120  1  0  0  0
 50 51  1  0  0  0
 50121  1  0  0  0
 50122  1  0  0  0
 51 52  1  0  0  0
 51123  1  0  0  0
 51124  1  0  0  0
 52125  1  0  0  0
 52126  1  0  0  0
 53 54  1  0  0  0
 54 55  2  0  0  0
 54127  1  0  0  0
 55 57  1  0  0  0
 55128  1  0  0  0
 56 69  2  0  0  0
 57 58  2  0  0  0
 57129  1  0  0  0
 58130  1  0  0  0
 59 60  1  0  0  0
 59 61  1  0  0  0
 59 62  1  0  0  0
 60131  1  0  0  0
 60132  1  0  0  0
 60133  1  0  0  0
 61134  1  0  0  0
 61135  1  0  0  0
 61136  1  0  0  0
 62137  1  0  0  0
 62138  1  0  0  0
 62139  1  0  0  0
 63 65  1  0  0  0
 63140  1  0  0  0
 63141  1  0  0  0
 63142  1  0  0  0
 64143  1  0  0  0
 65144  1  0  0  0
 68 79  1  0  0  0
 71 72  2  0  0  0
 71 74  1  0  0  0
 71 85  1  0  0  0
 72 77  1  0  0  0
 72 80  1  0  0  0
 73 80  2  0  0  0
 73 81  1  0  0  0
 73 85  1  0  0  0
 74 76  1  0  0  0
 74 83  2  0  0  0
 75 78  1  0  0  0
 75 79  1  0  0  0
 75 84  2  0  0  0
 76145  1  0  0  0
 76146  1  0  0  0
 76147  1  0  0  0
 77 82  1  0  0  0
 77148  1  0  0  0
 77149  1  0  0  0
 78 81  1  0  0  0
 78150  1  0  0  0
 78151  1  0  0  0
 79152  1  0  0  0
 79153  1  0  0  0
 81154  1  0  0  0
 82155  1  0  0  0
M  ISO  4   1 100  68 101  79 101  82 100
M  END
> <chiral flag>
0

> <version>
0

> <s_m_source_file>
/data/baiqing/PycharmProjects/Reinvent-master-3.2/result/LINK_invent/BTK/process_docking_weight1_custom_product_contain_oxygen_bond_distance_aromatic_linkinvent_7_9_3/rearranged_h_0165.sdf

> <i_m_source_file_index>
62

> <r_mmod_Potential_Energy-OPLS-2005>
-312.621948242188

> <r_mmod_Stretch_Energy-OPLS-2005>
48.7675285339355

> <r_mmod_Bend_Energy-OPLS-2005>
133.434768676758

> <r_mmod_Torsional_Energy-OPLS-2005>
189.42692565918

> <r_mmod_Improper_Torsional_Energy-OPLS-2005>
6.09666776657104

> <r_mmod_Van_der_Waal_Energy-OPLS-2005>
124.377639770508

> <r_mmod_Electrostatic_Energy-OPLS-2005>
-596.335693359375

> <r_mmod_Solvation_Energy-OPLS-2005>
-244.568405151367

> <b_mmod_Minimization_Converged-OPLS-2005>
0

> <r_mmod_RMS_Derivative-OPLS-2005>
9.64992713928223

$$$$
63
                    3D
 Structure written by MMmdl.
172181  0  0  1  0            999 V2000
  -30.6622  -14.5312   20.5299 C   0  0  0  0  0  0
  -30.4307  -12.3261   19.4551 C   0  0  0  0  0  0
  -29.5128  -12.4988   18.2245 C   0  0  0  0  0  0
  -28.0246  -12.3816   18.6192 C   0  0  0  0  0  0
  -27.6619  -13.2176   19.8762 C   0  0  2  0  0  0
  -28.6989  -13.0184   21.0041 C   0  0  0  0  0  0
  -25.2586  -13.8198   20.5711 C   0  0  0  0  0  0
  -24.1841  -13.0458   20.9178 C   0  0  0  0  0  0
  -24.6400  -11.6933   20.8717 C   0  0  0  0  0  0
  -23.9074  -10.4319   21.0388 C   0  0  0  0  0  0
  -24.3637   -9.4234   21.9162 C   0  0  0  0  0  0
  -23.6327   -8.2258   22.0739 C   0  0  0  0  0  0
  -22.4299   -8.0288   21.3540 C   0  0  0  0  0  0
  -21.9929   -9.0253   20.4638 C   0  0  0  0  0  0
  -22.7248  -10.2141   20.3043 C   0  0  0  0  0  0
  -21.6856   -6.0759   22.5289 C   0  0  0  0  0  0
  -21.4008   -6.5656   23.8228 C   0  0  0  0  0  0
  -21.3651   -5.6791   24.9174 C   0  0  0  0  0  0
  -21.6051   -4.3060   24.7207 C   0  0  0  0  0  0
  -21.8814   -3.8167   23.4324 C   0  0  0  0  0  0
  -21.9191   -4.6992   22.3391 C   0  0  0  0  0  0
  -22.7851  -13.5237   21.1843 C   0  0  0  0  0  0
  -22.1665   -4.2188   21.0971 F   0  0  0  0  0  0
  -21.5631   -3.4536   25.7716 F   0  0  0  0  0  0
  -30.0282  -13.3259   20.4592 N   0  0  0  0  0  0
  -26.3029  -12.9381   20.3361 N   0  0  0  0  0  0
  -25.9335  -11.6529   20.5745 N   0  0  0  0  0  0
  -22.0496  -12.8217   22.0403 N   0  0  0  0  0  0
  -25.4319  -15.1916   20.4138 N   0  0  0  0  0  0
  -31.8079  -14.7007   20.1040 O   0  0  0  0  0  0
  -21.6645   -6.8900   21.4256 O   0  0  0  0  0  0
  -22.3528  -14.5540   20.6694 O   0  0  0  0  0  0
  -24.6149  -31.8668   23.2096 C   0  0  0  0  0  0
  -25.9034  -32.4829   23.8381 C   0  0  1  0  0  0
  -27.2316  -27.4110   20.1052 C   0  0  0  0  0  0
  -25.5881  -33.8626   24.2318 N   0  0  0  0  0  0
  -23.4068  -30.4883   21.5517 C   0  0  2  0  0  0
  -24.8539  -28.9457   20.1234 C   0  0  0  0  0  0
  -22.7419  -29.4642   22.5006 C   0  0  0  0  0  0
  -18.0270  -28.1378   22.8513 C   0  0  0  0  0  0
  -24.1484  -36.7307   23.2639 C   0  0  0  0  0  0
  -25.9383  -30.8224   21.3683 C   0  0  0  0  0  0
  -26.0156  -29.4512   20.7234 C   0  0  0  0  0  0
  -27.2096  -28.6887   20.7165 C   0  0  0  0  0  0
  -26.0556  -26.9209   19.5058 C   0  0  0  0  0  0
  -24.8682  -27.6777   19.5147 C   0  0  0  0  0  0
  -23.6183  -29.8180   20.1676 C   0  0  0  0  0  0
  -25.4107  -36.3123   24.0341 C   0  0  1  0  0  0
  -20.5868  -28.3651   23.1335 C   0  0  2  0  0  0
  -20.6762  -26.9387   22.5429 C   0  0  0  0  0  0
  -19.5736  -26.6393   21.5225 C   0  0  0  0  0  0
  -18.1917  -26.7935   22.1634 C   0  0  0  0  0  0
  -19.1527  -28.8833   23.2921 C   0  0  0  0  0  0
  -18.9453  -30.1445   23.8914 C   0  0  0  0  0  0
  -17.6458  -30.6589   24.0569 C   0  0  0  0  0  0
  -25.9028  -34.9487   23.5131 C   0  0  0  0  0  0
  -16.5346  -29.9096   23.6329 C   0  0  0  0  0  0
  -16.7264  -28.6511   23.0360 C   0  0  0  0  0  0
  -26.4459  -31.6621   25.0712 C   0  0  0  0  0  0
  -25.3710  -31.3751   26.1452 C   0  0  0  0  0  0
  -27.0286  -30.3057   24.6097 C   0  0  0  0  0  0
  -27.6022  -32.4362   25.7474 C   0  0  0  0  0  0
  -27.5592  -37.1808   24.8454 C   0  0  0  0  0  0
  -21.4144  -29.3013   22.3737 N   0  0  0  0  0  0
  -26.4294  -37.3809   23.9413 N   0  0  0  0  0  0
  -24.6721  -31.0750   22.1002 N   0  0  0  0  0  0
  -23.4185  -28.8168   23.3038 O   0  0  0  0  0  0
  -28.3875  -26.6667   20.0009 O   0  0  0  0  0  0
  -26.5601  -34.8943   22.4697 O   0  0  0  0  0  0
  -23.5339  -32.1436   23.7470 O   0  0  0  0  0  0
  -29.5711  -16.6966   18.7591 C   0  0  0  0  0  0
  -29.6626  -18.0912   20.7402 C   0  0  0  0  0  0
  -29.4649  -19.1461   18.5366 C   0  0  0  0  0  0
  -29.4200  -17.8435   17.9653 C   0  0  0  0  0  0
  -29.7466  -16.7962   20.1508 C   0  0  0  0  0  0
  -29.5127  -19.2872   19.9646 C   0  0  0  0  0  0
  -29.5910  -20.2581   17.5388 C   0  0  0  0  0  0
  -29.1954  -17.6586   16.4704 C   0  0  0  0  0  0
  -28.7110  -20.1688   16.2859 C   0  0  0  0  0  0
  -28.2406  -18.7405   15.9490 C   0  0  0  0  0  0
  -28.4130  -22.9460   22.4535 C   0  0  0  0  0  0
  -30.6855  -23.0407   21.3132 C   0  0  0  0  0  0
  -29.6473  -26.1002   21.8015 C   0  0  0  0  0  0
  -28.7806  -21.7768   20.2567 C   0  0  0  0  0  0
  -28.7344  -24.3609   20.3081 C   0  0  0  0  0  0
  -29.1517  -23.0515   21.1034 C   0  0  0  0  0  0
  -29.9055  -15.5891   20.9211 N   0  0  0  0  0  0
  -29.4301  -20.5128   20.6943 N   0  0  0  0  0  0
  -28.4988  -25.6402   21.0304 N   0  0  0  0  0  0
  -30.4158  -21.1739   17.6168 O   0  0  0  0  0  0
  -31.4791  -12.4274   19.1674 H   0  0  0  0  0  0
  -30.3370  -11.3209   19.8685 H   0  0  0  0  0  0
  -29.7608  -11.7538   17.4674 H   0  0  0  0  0  0
  -29.6953  -13.4690   17.7613 H   0  0  0  0  0  0
  -27.8106  -11.3284   18.8012 H   0  0  0  0  0  0
  -27.3910  -12.6786   17.7832 H   0  0  0  0  0  0
  -27.6982  -14.2653   19.5754 H   0  0  0  0  0  0
  -28.6772  -11.9884   21.3638 H   0  0  0  0  0  0
  -28.4595  -13.6379   21.8693 H   0  0  0  0  0  0
  -25.2780   -9.5725   22.4720 H   0  0  0  0  0  0
  -24.0056   -7.4647   22.7446 H   0  0  0  0  0  0
  -21.0862   -8.8761   19.8938 H   0  0  0  0  0  0
  -22.3704  -10.9669   19.6149 H   0  0  0  0  0  0
  -21.2001   -7.6162   23.9745 H   0  0  0  0  0  0
  -21.1480   -6.0514   25.9087 H   0  0  0  0  0  0
  -22.0604   -2.7637   23.2797 H   0  0  0  0  0  0
  -22.4101  -11.9881   22.4796 H   0  0  0  0  0  0
  -21.1104  -13.1242   22.2594 H   0  0  0  0  0  0
  -24.6683  -15.8510   20.5173 H   0  0  0  0  0  0
  -26.2890  -15.6266   20.0959 H   0  0  0  0  0  0
  -26.7098  -32.5540   23.1134 H   0  0  0  0  0  0
  -25.0020  -33.9772   25.0461 H   0  0  0  0  0  0
  -22.6958  -31.3051   21.4110 H   0  0  0  0  0  0
  -23.3771  -35.9612   23.3289 H   0  0  0  0  0  0
  -24.3588  -36.8933   22.2056 H   0  0  0  0  0  0
  -23.7211  -37.6494   23.6660 H   0  0  0  0  0  0
  -26.0535  -31.5842   20.5964 H   0  0  0  0  0  0
  -26.8252  -30.8775   21.9889 H   0  0  0  0  0  0
  -28.1132  -29.0785   21.1653 H   0  0  0  0  0  0
  -26.0680  -25.9543   19.0238 H   0  0  0  0  0  0
  -23.9751  -27.2849   19.0472 H   0  0  0  0  0  0
  -23.7281  -30.5927   19.4068 H   0  0  0  0  0  0
  -22.7414  -29.2382   19.8735 H   0  0  0  0  0  0
  -25.1295  -36.1979   25.0837 H   0  0  0  0  0  0
  -20.9968  -28.3208   24.1453 H   0  0  0  0  0  0
  -20.5692  -26.2232   23.3604 H   0  0  0  0  0  0
  -21.6626  -26.7451   22.1194 H   0  0  0  0  0  0
  -19.6883  -25.6316   21.1223 H   0  0  0  0  0  0
  -19.6687  -27.3225   20.6775 H   0  0  0  0  0  0
  -17.4197  -26.6713   21.4025 H   0  0  0  0  0  0
  -18.0293  -26.0071   22.9021 H   0  0  0  0  0  0
  -19.7926  -30.7259   24.2294 H   0  0  0  0  0  0
  -17.5009  -31.6270   24.5163 H   0  0  0  0  0  0
  -15.5346  -30.2998   23.7641 H   0  0  0  0  0  0
  -15.8670  -28.0831   22.7068 H   0  0  0  0  0  0
  -24.5845  -30.7144   25.7786 H   0  0  0  0  0  0
  -24.8937  -32.2920   26.4916 H   0  0  0  0  0  0
  -25.8030  -30.8895   27.0202 H   0  0  0  0  0  0
  -26.2830  -29.6841   24.1118 H   0  0  0  0  0  0
  -27.4011  -29.7276   25.4559 H   0  0  0  0  0  0
  -27.8684  -30.4370   23.9272 H   0  0  0  0  0  0
  -27.2610  -33.3644   26.2064 H   0  0  0  0  0  0
  -28.3806  -32.6962   25.0294 H   0  0  0  0  0  0
  -28.0703  -31.8486   26.5376 H   0  0  0  0  0  0
  -28.2594  -38.0128   24.7566 H   0  0  0  0  0  0
  -28.1114  -36.2667   24.6214 H   0  0  0  0  0  0
  -27.2307  -37.1370   25.8853 H   0  0  0  0  0  0
  -20.9296  -29.8737   21.6970 H   0  0  0  0  0  0
  -26.0188  -38.2879   24.1455 H   0  0  0  0  0  0
  -29.5599  -15.7272   18.2806 H   0  0  0  0  0  0
  -29.7299  -18.1629   21.8163 H   0  0  0  0  0  0
  -28.7732  -16.6730   16.2699 H   0  0  0  0  0  0
  -30.1521  -17.6992   15.9470 H   0  0  0  0  0  0
  -29.2951  -20.5579   15.4518 H   0  0  0  0  0  0
  -27.8517  -20.8292   16.4021 H   0  0  0  0  0  0
  -27.2574  -18.5887   16.3958 H   0  0  0  0  0  0
  -28.1026  -18.6368   14.8726 H   0  0  0  0  0  0
  -28.6601  -22.0179   22.9678 H   0  0  0  0  0  0
  -27.3324  -22.9629   22.3104 H   0  0  0  0  0  0
  -28.6636  -23.7557   23.1358 H   0  0  0  0  0  0
  -31.0106  -22.1818   21.8998 H   0  0  0  0  0  0
  -31.0519  -23.9142   21.8438 H   0  0  0  0  0  0
  -31.2096  -22.9965   20.3569 H   0  0  0  0  0  0
  -29.8108  -25.5004   22.6934 H   0  0  0  0  0  0
  -29.4851  -27.1213   22.1469 H   0  0  0  0  0  0
  -30.5605  -26.0901   21.2051 H   0  0  0  0  0  0
  -29.0148  -22.0322   19.2348 H   0  0  0  0  0  0
  -27.6986  -21.6340   20.2692 H   0  0  0  0  0  0
  -27.8015  -24.1434   19.7851 H   0  0  0  0  0  0
  -29.4679  -24.5360   19.5196 H   0  0  0  0  0  0
  -29.1269  -15.3614   21.5210 H   0  0  0  0  0  0
  -29.5519  -20.4402   21.6997 H   0  0  0  0  0  0
  1 25  1  0  0  0
  1 30  2  0  0  0
  1 87  1  0  0  0
  2  3  1  0  0  0
  2 25  1  0  0  0
  2 91  1  0  0  0
  2 92  1  0  0  0
  3  4  1  0  0  0
  3 93  1  0  0  0
  3 94  1  0  0  0
  4  5  1  0  0  0
  4 95  1  0  0  0
  4 96  1  0  0  0
  5  6  1  0  0  0
  5 26  1  0  0  0
  5 97  1  0  0  0
  6 25  1  0  0  0
  6 98  1  0  0  0
  6 99  1  0  0  0
  7  8  2  0  0  0
  7 26  1  0  0  0
  7 29  1  0  0  0
  8  9  1  0  0  0
  8 22  1  0  0  0
  9 10  1  0  0  0
  9 27  2  0  0  0
 10 11  2  0  0  0
 10 15  1  0  0  0
 11 12  1  0  0  0
 11100  1  0  0  0
 12 13  2  0  0  0
 12101  1  0  0  0
 13 14  1  0  0  0
 13 31  1  0  0  0
 14 15  2  0  0  0
 14102  1  0  0  0
 15103  1  0  0  0
 16 17  2  0  0  0
 16 21  1  0  0  0
 16 31  1  0  0  0
 17 18  1  0  0  0
 17104  1  0  0  0
 18 19  2  0  0  0
 18105  1  0  0  0
 19 20  1  0  0  0
 19 24  1  0  0  0
 20 21  2  0  0  0
 20106  1  0  0  0
 21 23  1  0  0  0
 22 28  1  0  0  0
 22 32  2  0  0  0
 26 27  1  0  0  0
 28107  1  0  0  0
 28108  1  0  0  0
 29109  1  0  0  0
 29110  1  0  0  0
 33 34  1  0  0  0
 33 66  1  0  0  0
 33 70  2  0  0  0
 34 36  1  0  0  0
 34 59  1  0  0  0
 34111  1  0  0  0
 35 44  2  0  0  0
 35 45  1  0  0  0
 35 68  1  0  0  0
 36 56  1  0  0  0
 36112  1  0  0  0
 37 39  1  0  0  0
 37 47  1  0  0  0
 37 66  1  0  0  0
 37113  1  0  0  0
 38 43  2  0  0  0
 38 46  1  0  0  0
 38 47  1  0  0  0
 39 64  1  0  0  0
 39 67  2  0  0  0
 40 52  1  0  0  0
 40 53  2  0  0  0
 40 58  1  0  0  0
 41114  1  0  0  0
 41115  1  0  0  0
 41116  1  0  0  0
 41 48  1  0  0  0
 42 43  1  0  0  0
 42 66  1  0  0  0
 42117  1  0  0  0
 42118  1  0  0  0
 43 44  1  0  0  0
 44119  1  0  0  0
 45 46  2  0  0  0
 45120  1  0  0  0
 46121  1  0  0  0
 47122  1  0  0  0
 47123  1  0  0  0
 48 56  1  0  0  0
 48 65  1  0  0  0
 48124  1  0  0  0
 49 50  1  0  0  0
 49 53  1  0  0  0
 49 64  1  0  0  0
 49125  1  0  0  0
 50 51  1  0  0  0
 50126  1  0  0  0
 50127  1  0  0  0
 51 52  1  0  0  0
 51128  1  0  0  0
 51129  1  0  0  0
 52130  1  0  0  0
 52131  1  0  0  0
 53 54  1  0  0  0
 54 55  2  0  0  0
 54132  1  0  0  0
 55 57  1  0  0  0
 55133  1  0  0  0
 56 69  2  0  0  0
 57 58  2  0  0  0
 57134  1  0  0  0
 58135  1  0  0  0
 59 60  1  0  0  0
 59 61  1  0  0  0
 59 62  1  0  0  0
 60136  1  0  0  0
 60137  1  0  0  0
 60138  1  0  0  0
 61139  1  0  0  0
 61140  1  0  0  0
 61141  1  0  0  0
 62142  1  0  0  0
 62143  1  0  0  0
 62144  1  0  0  0
 63 65  1  0  0  0
 63145  1  0  0  0
 63146  1  0  0  0
 63147  1  0  0  0
 64148  1  0  0  0
 65149  1  0  0  0
 68 89  1  0  0  0
 71 74  2  0  0  0
 71 75  1  0  0  0
 71150  1  0  0  0
 72 75  2  0  0  0
 72 76  1  0  0  0
 72151  1  0  0  0
 73 74  1  0  0  0
 73 76  2  0  0  0
 73 77  1  0  0  0
 74 78  1  0  0  0
 75 87  1  0  0  0
 76 88  1  0  0  0
 77 79  1  0  0  0
 77 90  2  0  0  0
 78 80  1  0  0  0
 78152  1  0  0  0
 78153  1  0  0  0
 79 80  1  0  0  0
 79154  1  0  0  0
 79155  1  0  0  0
 80156  1  0  0  0
 80157  1  0  0  0
 81158  1  0  0  0
 81159  1  0  0  0
 81160  1  0  0  0
 81 86  1  0  0  0
 82 86  1  0  0  0
 82161  1  0  0  0
 82162  1  0  0  0
 82163  1  0  0  0
 83 89  1  0  0  0
 83164  1  0  0  0
 83165  1  0  0  0
 83166  1  0  0  0
 84 86  1  0  0  0
 84 88  1  0  0  0
 84167  1  0  0  0
 84168  1  0  0  0
 85 86  1  0  0  0
 85 89  1  0  0  0
 85169  1  0  0  0
 85170  1  0  0  0
 87171  1  0  0  0
 88172  1  0  0  0
M  ISO  4   1 100  68 101  87 100  89 101
M  END
> <chiral flag>
0

> <version>
0

> <s_m_source_file>
/data/baiqing/PycharmProjects/Reinvent-master-3.2/result/LINK_invent/BTK/process_docking_weight1_custom_product_contain_oxygen_bond_distance_aromatic_linkinvent_7_9_3/rearranged_h_0165.sdf

> <i_m_source_file_index>
63

> <r_mmod_Potential_Energy-OPLS-2005>
200.880859375

> <r_mmod_Stretch_Energy-OPLS-2005>
58.0691070556641

> <r_mmod_Bend_Energy-OPLS-2005>
142.423049926758

> <r_mmod_Torsional_Energy-OPLS-2005>
322.379852294922

> <r_mmod_Improper_Torsional_Energy-OPLS-2005>
8.68077659606934

> <r_mmod_Van_der_Waal_Energy-OPLS-2005>
166.492065429688

> <r_mmod_Electrostatic_Energy-OPLS-2005>
-285.701934814453

> <r_mmod_Solvation_Energy-OPLS-2005>
-229.590728759766

> <b_mmod_Minimization_Converged-OPLS-2005>
0

> <r_mmod_RMS_Derivative-OPLS-2005>
2.65379095077515

$$$$
64
                    3D
 Structure written by MMmdl.
150158  0  0  1  0            999 V2000
  -30.5962  -14.7363   20.4126 C   0  0  0  0  0  0
  -30.4247  -12.4379   19.4596 C   0  0  0  0  0  0
  -29.4991  -12.4805   18.2247 C   0  0  0  0  0  0
  -28.0279  -12.3077   18.6473 C   0  0  0  0  0  0
  -27.6360  -13.2217   19.8391 C   0  0  2  0  0  0
  -28.6818  -13.1640   20.9730 C   0  0  0  0  0  0
  -25.2484  -13.8179   20.5667 C   0  0  0  0  0  0
  -24.1779  -13.0428   20.9217 C   0  0  0  0  0  0
  -24.6357  -11.6905   20.8753 C   0  0  0  0  0  0
  -23.9050  -10.4294   21.0434 C   0  0  0  0  0  0
  -24.3614   -9.4199   21.9200 C   0  0  0  0  0  0
  -23.6279   -8.2237   22.0765 C   0  0  0  0  0  0
  -22.4268   -8.0275   21.3541 C   0  0  0  0  0  0
  -21.9903   -9.0256   20.4650 C   0  0  0  0  0  0
  -22.7236  -10.2132   20.3064 C   0  0  0  0  0  0
  -21.6849   -6.0726   22.5276 C   0  0  0  0  0  0
  -21.4019   -6.5638   23.8207 C   0  0  0  0  0  0
  -21.3639   -5.6785   24.9171 C   0  0  0  0  0  0
  -21.6068   -4.3056   24.7228 C   0  0  0  0  0  0
  -21.8808   -3.8138   23.4342 C   0  0  0  0  0  0
  -21.9199   -4.6953   22.3404 C   0  0  0  0  0  0
  -22.7810  -13.5215   21.1859 C   0  0  0  0  0  0
  -22.1663   -4.2138   21.0976 F   0  0  0  0  0  0
  -21.5622   -3.4541   25.7738 F   0  0  0  0  0  0
  -29.9816  -13.5096   20.3808 N   0  0  0  0  0  0
  -26.2906  -12.9370   20.3244 N   0  0  0  0  0  0
  -25.9289  -11.6526   20.5764 N   0  0  0  0  0  0
  -22.0467  -12.8221   22.0421 N   0  0  0  0  0  0
  -25.4184  -15.1903   20.4039 N   0  0  0  0  0  0
  -31.8024  -14.8044   20.1429 O   0  0  0  0  0  0
  -21.6631   -6.8865   21.4232 O   0  0  0  0  0  0
  -22.3522  -14.5533   20.6709 O   0  0  0  0  0  0
  -24.6312  -31.8558   23.2012 C   0  0  0  0  0  0
  -25.9150  -32.4735   23.8330 C   0  0  1  0  0  0
  -27.2038  -27.2658   20.1161 C   0  0  0  0  0  0
  -25.5979  -33.8541   24.2249 N   0  0  0  0  0  0
  -23.4271  -30.4802   21.5412 C   0  0  2  0  0  0
  -24.8730  -28.9307   20.1071 C   0  0  0  0  0  0
  -22.7499  -29.4606   22.4885 C   0  0  0  0  0  0
  -18.0290  -28.1391   22.8466 C   0  0  0  0  0  0
  -24.1506  -36.7269   23.2636 C   0  0  0  0  0  0
  -25.9749  -30.7645   21.3861 C   0  0  0  0  0  0
  -26.0463  -29.3913   20.7221 C   0  0  0  0  0  0
  -27.2201  -28.5690   20.7150 C   0  0  0  0  0  0
  -26.0171  -26.8806   19.4631 C   0  0  0  0  0  0
  -24.8650  -27.6879   19.4602 C   0  0  0  0  0  0
  -23.6480  -29.8234   20.1535 C   0  0  0  0  0  0
  -25.4119  -36.3054   24.0329 C   0  0  1  0  0  0
  -20.5899  -28.3701   23.1242 C   0  0  2  0  0  0
  -20.6782  -26.9413   22.5380 C   0  0  0  0  0  0
  -19.5738  -26.6390   21.5181 C   0  0  0  0  0  0
  -18.1919  -26.7929   22.1613 C   0  0  0  0  0  0
  -19.1548  -28.8864   23.2858 C   0  0  0  0  0  0
  -18.9467  -30.1462   23.8879 C   0  0  0  0  0  0
  -17.6463  -30.6580   24.0566 C   0  0  0  0  0  0
  -25.9064  -34.9422   23.5090 C   0  0  0  0  0  0
  -16.5353  -29.9062   23.6336 C   0  0  0  0  0  0
  -16.7283  -28.6503   23.0345 C   0  0  0  0  0  0
  -26.4524  -31.6569   25.0724 C   0  0  0  0  0  0
  -25.3766  -31.3740   26.1471 C   0  0  0  0  0  0
  -27.0389  -30.2972   24.6255 C   0  0  0  0  0  0
  -27.6079  -32.4315   25.7494 C   0  0  0  0  0  0
  -27.5566  -37.1775   24.8448 C   0  0  0  0  0  0
  -21.4209  -29.3047   22.3626 N   0  0  0  0  0  0
  -26.4282  -37.3754   23.9411 N   0  0  0  0  0  0
  -24.6952  -31.0502   22.0995 N   0  0  0  0  0  0
  -23.4199  -28.8113   23.2941 O   0  0  0  0  0  0
  -28.2728  -26.3472   20.1280 O   0  0  0  0  0  0
  -26.5623  -34.8916   22.4638 O   0  0  0  0  0  0
  -23.5469  -32.1373   23.7316 O   0  0  0  0  0  0
  -29.1467  -18.4054   20.2465 C   0  0  0  0  0  0
  -31.4347  -17.7834   20.6062 C   0  0  0  0  0  0
  -30.1093  -17.3308   20.4346 C   0  0  0  0  0  0
  -29.5328  -19.8061   20.2447 C   0  0  0  0  0  0
  -31.7408  -19.1567   20.5843 C   0  0  0  0  0  0
  -28.5479  -23.6817   19.8116 C   0  0  0  0  0  0
  -28.9461  -22.3412   20.5952 C   0  0  0  0  0  0
  -27.9609  -24.9501   20.5983 C   0  0  0  0  0  0
  -30.8274  -20.1345   20.4092 N   0  0  0  0  0  0
  -29.7913  -15.8708   20.4962 N   0  0  0  0  0  0
  -28.6547  -20.9390   20.0615 N   0  0  0  0  0  0
  -28.6791  -23.7267   18.5854 O   0  0  0  0  0  0
  -33.0248  -19.5323   20.7700 F   0  0  0  0  0  0
  -31.4647  -12.5594   19.1527 H   0  0  0  0  0  0
  -30.3713  -11.4693   19.9529 H   0  0  0  0  0  0
  -29.7787  -11.6944   17.5206 H   0  0  0  0  0  0
  -29.6245  -13.4273   17.6956 H   0  0  0  0  0  0
  -27.8914  -11.2630   18.9277 H   0  0  0  0  0  0
  -27.3657  -12.4838   17.7997 H   0  0  0  0  0  0
  -27.6255  -14.2381   19.4457 H   0  0  0  0  0  0
  -28.7203  -12.1722   21.4200 H   0  0  0  0  0  0
  -28.4233  -13.8562   21.7767 H   0  0  0  0  0  0
  -25.2760   -9.5682   22.4776 H   0  0  0  0  0  0
  -23.9991   -7.4632   22.7487 H   0  0  0  0  0  0
  -21.0833   -8.8775   19.8953 H   0  0  0  0  0  0
  -22.3699  -10.9673   19.6174 H   0  0  0  0  0  0
  -21.2008   -7.6144   23.9705 H   0  0  0  0  0  0
  -21.1474   -6.0522   25.9070 H   0  0  0  0  0  0
  -22.0610   -2.7602   23.2854 H   0  0  0  0  0  0
  -22.4064  -11.9861   22.4780 H   0  0  0  0  0  0
  -21.1090  -13.1237   22.2634 H   0  0  0  0  0  0
  -24.6418  -15.8357   20.4996 H   0  0  0  0  0  0
  -26.2452  -15.6273   20.0178 H   0  0  0  0  0  0
  -26.7210  -32.5383   23.1058 H   0  0  0  0  0  0
  -25.0176  -33.9671   25.0442 H   0  0  0  0  0  0
  -22.7255  -31.3026   21.3999 H   0  0  0  0  0  0
  -23.3768  -35.9604   23.3287 H   0  0  0  0  0  0
  -24.3591  -36.8913   22.2059 H   0  0  0  0  0  0
  -23.7252  -37.6463   23.6669 H   0  0  0  0  0  0
  -26.1244  -31.5306   20.6232 H   0  0  0  0  0  0
  -26.8493  -30.8033   22.0257 H   0  0  0  0  0  0
  -28.1114  -28.9141   21.2197 H   0  0  0  0  0  0
  -25.9658  -25.9302   18.9538 H   0  0  0  0  0  0
  -23.9749  -27.3350   18.9562 H   0  0  0  0  0  0
  -23.7883  -30.6079   19.4045 H   0  0  0  0  0  0
  -22.7644  -29.2657   19.8363 H   0  0  0  0  0  0
  -25.1281  -36.1887   25.0814 H   0  0  0  0  0  0
  -20.9980  -28.3307   24.1369 H   0  0  0  0  0  0
  -20.5677  -26.2301   23.3597 H   0  0  0  0  0  0
  -21.6644  -26.7441   22.1155 H   0  0  0  0  0  0
  -19.6929  -25.6303   21.1214 H   0  0  0  0  0  0
  -19.6706  -27.3224   20.6729 H   0  0  0  0  0  0
  -17.4187  -26.6668   21.4022 H   0  0  0  0  0  0
  -18.0340  -26.0062   22.9022 H   0  0  0  0  0  0
  -19.7974  -30.7245   24.2241 H   0  0  0  0  0  0
  -17.5057  -31.6267   24.5163 H   0  0  0  0  0  0
  -15.5370  -30.2975   23.7684 H   0  0  0  0  0  0
  -15.8684  -28.0829   22.7047 H   0  0  0  0  0  0
  -24.5931  -30.7094   25.7824 H   0  0  0  0  0  0
  -24.8972  -32.2925   26.4883 H   0  0  0  0  0  0
  -25.8100  -30.8939   27.0257 H   0  0  0  0  0  0
  -26.2988  -29.6682   24.1304 H   0  0  0  0  0  0
  -27.4081  -29.7277   25.4794 H   0  0  0  0  0  0
  -27.8866  -30.4217   23.9509 H   0  0  0  0  0  0
  -27.2709  -33.3659   26.2000 H   0  0  0  0  0  0
  -28.3936  -32.6815   25.0349 H   0  0  0  0  0  0
  -28.0706  -31.8491   26.5475 H   0  0  0  0  0  0
  -28.2534  -38.0110   24.7541 H   0  0  0  0  0  0
  -28.1129  -36.2656   24.6230 H   0  0  0  0  0  0
  -27.2307  -37.1334   25.8851 H   0  0  0  0  0  0
  -20.9369  -29.8835   21.6915 H   0  0  0  0  0  0
  -26.0165  -38.2820   24.1484 H   0  0  0  0  0  0
  -28.1007  -18.1516   20.1062 H   0  0  0  0  0  0
  -32.2494  -17.0968   20.7739 H   0  0  0  0  0  0
  -28.4999  -22.4173   21.5864 H   0  0  0  0  0  0
  -30.0197  -22.4347   20.7647 H   0  0  0  0  0  0
  -28.2672  -24.8700   21.6390 H   0  0  0  0  0  0
  -26.8802  -24.8082   20.6082 H   0  0  0  0  0  0
  -28.8079  -15.6596   20.5809 H   0  0  0  0  0  0
  -27.6653  -20.7047   20.0287 H   0  0  0  0  0  0
  1 25  1  0  0  0
  1 30  2  0  0  0
  1 80  1  0  0  0
  2  3  1  0  0  0
  2 25  1  0  0  0
  2 84  1  0  0  0
  2 85  1  0  0  0
  3  4  1  0  0  0
  3 86  1  0  0  0
  3 87  1  0  0  0
  4  5  1  0  0  0
  4 88  1  0  0  0
  4 89  1  0  0  0
  5  6  1  0  0  0
  5 26  1  0  0  0
  5 90  1  0  0  0
  6 25  1  0  0  0
  6 91  1  0  0  0
  6 92  1  0  0  0
  7  8  2  0  0  0
  7 26  1  0  0  0
  7 29  1  0  0  0
  8  9  1  0  0  0
  8 22  1  0  0  0
  9 10  1  0  0  0
  9 27  2  0  0  0
 10 11  2  0  0  0
 10 15  1  0  0  0
 11 12  1  0  0  0
 11 93  1  0  0  0
 12 13  2  0  0  0
 12 94  1  0  0  0
 13 14  1  0  0  0
 13 31  1  0  0  0
 14 15  2  0  0  0
 14 95  1  0  0  0
 15 96  1  0  0  0
 16 17  2  0  0  0
 16 21  1  0  0  0
 16 31  1  0  0  0
 17 18  1  0  0  0
 17 97  1  0  0  0
 18 19  2  0  0  0
 18 98  1  0  0  0
 19 20  1  0  0  0
 19 24  1  0  0  0
 20 21  2  0  0  0
 20 99  1  0  0  0
 21 23  1  0  0  0
 22 28  1  0  0  0
 22 32  2  0  0  0
 26 27  1  0  0  0
 28100  1  0  0  0
 28101  1  0  0  0
 29102  1  0  0  0
 29103  1  0  0  0
 33 34  1  0  0  0
 33 66  1  0  0  0
 33 70  2  0  0  0
 34 36  1  0  0  0
 34 59  1  0  0  0
 34104  1  0  0  0
 35 44  2  0  0  0
 35 45  1  0  0  0
 35 68  1  0  0  0
 36 56  1  0  0  0
 36105  1  0  0  0
 37 39  1  0  0  0
 37 47  1  0  0  0
 37 66  1  0  0  0
 37106  1  0  0  0
 38 43  2  0  0  0
 38 46  1  0  0  0
 38 47  1  0  0  0
 39 64  1  0  0  0
 39 67  2  0  0  0
 40 52  1  0  0  0
 40 53  2  0  0  0
 40 58  1  0  0  0
 41107  1  0  0  0
 41108  1  0  0  0
 41109  1  0  0  0
 41 48  1  0  0  0
 42 43  1  0  0  0
 42 66  1  0  0  0
 42110  1  0  0  0
 42111  1  0  0  0
 43 44  1  0  0  0
 44112  1  0  0  0
 45 46  2  0  0  0
 45113  1  0  0  0
 46114  1  0  0  0
 47115  1  0  0  0
 47116  1  0  0  0
 48 56  1  0  0  0
 48 65  1  0  0  0
 48117  1  0  0  0
 49 50  1  0  0  0
 49 53  1  0  0  0
 49 64  1  0  0  0
 49118  1  0  0  0
 50 51  1  0  0  0
 50119  1  0  0  0
 50120  1  0  0  0
 51 52  1  0  0  0
 51121  1  0  0  0
 51122  1  0  0  0
 52123  1  0  0  0
 52124  1  0  0  0
 53 54  1  0  0  0
 54 55  2  0  0  0
 54125  1  0  0  0
 55 57  1  0  0  0
 55126  1  0  0  0
 56 69  2  0  0  0
 57 58  2  0  0  0
 57127  1  0  0  0
 58128  1  0  0  0
 59 60  1  0  0  0
 59 61  1  0  0  0
 59 62  1  0  0  0
 60129  1  0  0  0
 60130  1  0  0  0
 60131  1  0  0  0
 61132  1  0  0  0
 61133  1  0  0  0
 61134  1  0  0  0
 62135  1  0  0  0
 62136  1  0  0  0
 62137  1  0  0  0
 63 65  1  0  0  0
 63138  1  0  0  0
 63139  1  0  0  0
 63140  1  0  0  0
 64141  1  0  0  0
 65142  1  0  0  0
 68 78  1  0  0  0
 71 73  2  0  0  0
 71 74  1  0  0  0
 71143  1  0  0  0
 72 73  1  0  0  0
 72 75  2  0  0  0
 72144  1  0  0  0
 73 80  1  0  0  0
 74 79  2  0  0  0
 74 81  1  0  0  0
 75 79  1  0  0  0
 75 83  1  0  0  0
 76 77  1  0  0  0
 76 78  1  0  0  0
 76 82  2  0  0  0
 77 81  1  0  0  0
 77145  1  0  0  0
 77146  1  0  0  0
 78147  1  0  0  0
 78148  1  0  0  0
 80149  1  0  0  0
 81150  1  0  0  0
M  ISO  4   1 100  68 101  78 101  80 100
M  END
> <chiral flag>
0

> <version>
0

> <s_m_source_file>
/data/baiqing/PycharmProjects/Reinvent-master-3.2/result/LINK_invent/BTK/process_docking_weight1_custom_product_contain_oxygen_bond_distance_aromatic_linkinvent_7_9_3/rearranged_h_0165.sdf

> <i_m_source_file_index>
64

> <r_mmod_Potential_Energy-OPLS-2005>
-23.2909870147705

> <r_mmod_Stretch_Energy-OPLS-2005>
118.279495239258

> <r_mmod_Bend_Energy-OPLS-2005>
165.226364135742

> <r_mmod_Torsional_Energy-OPLS-2005>
228.041625976562

> <r_mmod_Improper_Torsional_Energy-OPLS-2005>
8.5794734954834

> <r_mmod_Van_der_Waal_Energy-OPLS-2005>
146.871185302734

> <r_mmod_Electrostatic_Energy-OPLS-2005>
-511.723815917969

> <r_mmod_Solvation_Energy-OPLS-2005>
-265.483459472656

> <b_mmod_Minimization_Converged-OPLS-2005>
0

> <r_mmod_RMS_Derivative-OPLS-2005>
7.00719547271729

$$$$
65
                    3D
 Structure written by MMmdl.
158166  0  0  1  0            999 V2000
  -30.5719  -14.5598   20.5387 C   0  0  0  0  0  0
  -30.4477  -12.3532   19.4094 C   0  0  0  0  0  0
  -29.5007  -12.5170   18.1979 C   0  0  0  0  0  0
  -28.0153  -12.3800   18.5981 C   0  0  0  0  0  0
  -27.6578  -13.1881   19.8730 C   0  0  2  0  0  0
  -28.7046  -12.9411   20.9838 C   0  0  0  0  0  0
  -25.2596  -13.8094   20.5636 C   0  0  0  0  0  0
  -24.1849  -13.0419   20.9178 C   0  0  0  0  0  0
  -24.6376  -11.6867   20.8719 C   0  0  0  0  0  0
  -23.9048  -10.4279   21.0407 C   0  0  0  0  0  0
  -24.3602   -9.4218   21.9199 C   0  0  0  0  0  0
  -23.6283   -8.2239   22.0765 C   0  0  0  0  0  0
  -22.4280   -8.0271   21.3531 C   0  0  0  0  0  0
  -21.9907   -9.0243   20.4648 C   0  0  0  0  0  0
  -22.7217  -10.2125   20.3061 C   0  0  0  0  0  0
  -21.6833   -6.0736   22.5282 C   0  0  0  0  0  0
  -21.4015   -6.5652   23.8214 C   0  0  0  0  0  0
  -21.3649   -5.6795   24.9168 C   0  0  0  0  0  0
  -21.6034   -4.3059   24.7213 C   0  0  0  0  0  0
  -21.8824   -3.8160   23.4339 C   0  0  0  0  0  0
  -21.9204   -4.6976   22.3395 C   0  0  0  0  0  0
  -22.7884  -13.5228   21.1870 C   0  0  0  0  0  0
  -22.1663   -4.2176   21.0960 F   0  0  0  0  0  0
  -21.5628   -3.4539   25.7723 F   0  0  0  0  0  0
  -30.0176  -13.3163   20.4328 N   0  0  0  0  0  0
  -26.2989  -12.9205   20.3307 N   0  0  0  0  0  0
  -25.9292  -11.6411   20.5720 N   0  0  0  0  0  0
  -22.0518  -12.8189   22.0369 N   0  0  0  0  0  0
  -25.4356  -15.1811   20.4001 N   0  0  0  0  0  0
  -31.7288  -14.8097   20.1819 O   0  0  0  0  0  0
  -21.6628   -6.8879   21.4242 O   0  0  0  0  0  0
  -22.3579  -14.5549   20.6724 O   0  0  0  0  0  0
  -24.6160  -31.8593   23.2028 C   0  0  0  0  0  0
  -25.9019  -32.4763   23.8339 C   0  0  1  0  0  0
  -27.2548  -27.4093   20.0994 C   0  0  0  0  0  0
  -25.5826  -33.8555   24.2275 N   0  0  0  0  0  0
  -23.4080  -30.4843   21.5392 C   0  0  2  0  0  0
  -24.8611  -28.9372   20.1205 C   0  0  0  0  0  0
  -22.7412  -29.4631   22.4911 C   0  0  0  0  0  0
  -18.0280  -28.1394   22.8452 C   0  0  0  0  0  0
  -24.1515  -36.7350   23.2620 C   0  0  0  0  0  0
  -25.9408  -30.8210   21.3584 C   0  0  0  0  0  0
  -26.0229  -29.4516   20.7102 C   0  0  0  0  0  0
  -27.2179  -28.6938   20.6953 C   0  0  0  0  0  0
  -26.0699  -26.9073   19.5166 C   0  0  0  0  0  0
  -24.8793  -27.6627   19.5289 C   0  0  0  0  0  0
  -23.6243  -29.8065   20.1587 C   0  0  0  0  0  0
  -25.4118  -36.3088   24.0321 C   0  0  1  0  0  0
  -20.5865  -28.3670   23.1288 C   0  0  2  0  0  0
  -20.6785  -26.9393   22.5412 C   0  0  0  0  0  0
  -19.5775  -26.6393   21.5207 C   0  0  0  0  0  0
  -18.1933  -26.7929   22.1599 C   0  0  0  0  0  0
  -19.1525  -28.8835   23.2865 C   0  0  0  0  0  0
  -18.9472  -30.1443   23.8882 C   0  0  0  0  0  0
  -17.6483  -30.6595   24.0564 C   0  0  0  0  0  0
  -25.9040  -34.9444   23.5125 C   0  0  0  0  0  0
  -16.5373  -29.9109   23.6334 C   0  0  0  0  0  0
  -16.7280  -28.6542   23.0317 C   0  0  0  0  0  0
  -26.4440  -31.6502   25.0667 C   0  0  0  0  0  0
  -25.3690  -31.3508   26.1389 C   0  0  0  0  0  0
  -27.0241  -30.2923   24.6032 C   0  0  0  0  0  0
  -27.6062  -32.4141   25.7441 C   0  0  0  0  0  0
  -27.5626  -37.1798   24.8429 C   0  0  0  0  0  0
  -21.4127  -29.3023   22.3673 N   0  0  0  0  0  0
  -26.4305  -37.3791   23.9408 N   0  0  0  0  0  0
  -24.6719  -31.0701   22.0917 N   0  0  0  0  0  0
  -23.4171  -28.8151   23.2942 O   0  0  0  0  0  0
  -28.4535  -26.7139   20.1374 O   0  0  0  0  0  0
  -26.5665  -34.8908   22.4734 O   0  0  0  0  0  0
  -23.5347  -32.1363   23.7420 O   0  0  0  0  0  0
  -29.3045  -18.4510   23.0416 C   0  0  0  0  0  0
  -29.7200  -16.8679   21.2568 C   0  0  0  0  0  0
  -29.4143  -17.1195   22.6065 C   0  0  0  0  0  0
  -29.8226  -17.9869   20.3762 C   0  0  0  0  0  0
  -29.7041  -19.3255   20.9061 C   0  0  0  0  0  0
  -29.8229  -20.6392   20.1249 C   0  0  0  0  0  0
  -30.4418  -20.5586   18.7318 C   0  0  0  0  0  0
  -31.1470  -23.5444   20.3067 C   0  0  0  0  0  0
  -28.6739  -24.1876   20.4314 C   0  0  0  0  0  0
  -28.6493  -25.4381   19.4901 C   0  0  0  0  0  0
  -29.7010  -23.0899   19.9841 C   0  0  2  0  0  0
  -29.4509  -19.5138   22.2300 N   0  0  0  0  0  0
  -29.4542  -21.7828   20.6310 N   0  0  0  0  0  0
  -29.6407  -15.5026   20.8245 N   0  0  0  0  0  0
  -29.1863  -16.0928   23.4619 F   0  0  0  0  0  0
  -29.9605  -17.7452   19.0486 F   0  0  0  0  0  0
  -31.4836  -12.5165   19.1050 H   0  0  0  0  0  0
  -30.4045  -11.3351   19.7982 H   0  0  0  0  0  0
  -29.7463  -11.7867   17.4253 H   0  0  0  0  0  0
  -29.6616  -13.4957   17.7472 H   0  0  0  0  0  0
  -27.7943  -11.3235   18.7435 H   0  0  0  0  0  0
  -27.3841  -12.7064   17.7709 H   0  0  0  0  0  0
  -27.6943  -14.2371   19.5862 H   0  0  0  0  0  0
  -28.7107  -11.8878   21.2711 H   0  0  0  0  0  0
  -28.4644  -13.4873   21.8993 H   0  0  0  0  0  0
  -25.2751   -9.5694   22.4771 H   0  0  0  0  0  0
  -24.0001   -7.4643   22.7485 H   0  0  0  0  0  0
  -21.0845   -8.8764   19.8933 H   0  0  0  0  0  0
  -22.3698  -10.9671   19.6166 H   0  0  0  0  0  0
  -21.1999   -7.6167   23.9723 H   0  0  0  0  0  0
  -21.1453   -6.0520   25.9064 H   0  0  0  0  0  0
  -22.0609   -2.7637   23.2817 H   0  0  0  0  0  0
  -22.4137  -11.9811   22.4690 H   0  0  0  0  0  0
  -21.1149  -13.1205   22.2637 H   0  0  0  0  0  0
  -24.6636  -15.8294   20.5070 H   0  0  0  0  0  0
  -26.2552  -15.6110   19.9915 H   0  0  0  0  0  0
  -26.7095  -32.5473   23.1111 H   0  0  0  0  0  0
  -24.9697  -33.9627   25.0222 H   0  0  0  0  0  0
  -22.7008  -31.3014   21.3859 H   0  0  0  0  0  0
  -23.3747  -35.9706   23.3213 H   0  0  0  0  0  0
  -24.3624  -36.9104   22.2056 H   0  0  0  0  0  0
  -23.7313  -37.6538   23.6725 H   0  0  0  0  0  0
  -26.0521  -31.5845   20.5859 H   0  0  0  0  0  0
  -26.8280  -30.8758   21.9787 H   0  0  0  0  0  0
  -28.1204  -29.0815   21.1494 H   0  0  0  0  0  0
  -26.0381  -25.9250   19.0722 H   0  0  0  0  0  0
  -23.9808  -27.2524   19.0893 H   0  0  0  0  0  0
  -23.7425  -30.5731   19.3941 H   0  0  0  0  0  0
  -22.7514  -29.2252   19.8588 H   0  0  0  0  0  0
  -25.1315  -36.1948   25.0817 H   0  0  0  0  0  0
  -20.9971  -28.3305   24.1409 H   0  0  0  0  0  0
  -20.5746  -26.2251   23.3581 H   0  0  0  0  0  0
  -21.6658  -26.7491   22.1179 H   0  0  0  0  0  0
  -19.6937  -25.6306   21.1211 H   0  0  0  0  0  0
  -19.6768  -27.3212   20.6720 H   0  0  0  0  0  0
  -17.4212  -26.6631   21.3991 H   0  0  0  0  0  0
  -18.0350  -26.0087   22.9009 H   0  0  0  0  0  0
  -19.7961  -30.7217   24.2290 H   0  0  0  0  0  0
  -17.5067  -31.6306   24.5130 H   0  0  0  0  0  0
  -15.5369  -30.3025   23.7708 H   0  0  0  0  0  0
  -15.8653  -28.0943   22.6983 H   0  0  0  0  0  0
  -24.6101  -30.6604   25.7717 H   0  0  0  0  0  0
  -24.8539  -32.2525   26.4692 H   0  0  0  0  0  0
  -25.8050  -30.8866   27.0242 H   0  0  0  0  0  0
  -26.2763  -29.6635   24.1168 H   0  0  0  0  0  0
  -27.4067  -29.7212   25.4493 H   0  0  0  0  0  0
  -27.8599  -30.4200   23.9138 H   0  0  0  0  0  0
  -27.2849  -33.3528   26.1980 H   0  0  0  0  0  0
  -28.3947  -32.6489   25.0274 H   0  0  0  0  0  0
  -28.0600  -31.8173   26.5395 H   0  0  0  0  0  0
  -28.2519  -38.0205   24.7620 H   0  0  0  0  0  0
  -28.1260  -36.2737   24.6114 H   0  0  0  0  0  0
  -27.2325  -37.1306   25.8813 H   0  0  0  0  0  0
  -20.9276  -29.8766   21.6923 H   0  0  0  0  0  0
  -26.0189  -38.2871   24.1424 H   0  0  0  0  0  0
  -29.0695  -18.6751   24.0719 H   0  0  0  0  0  0
  -31.0148  -19.6495   18.5849 H   0  0  0  0  0  0
  -31.1542  -21.3618   18.5563 H   0  0  0  0  0  0
  -29.6606  -20.6181   17.9718 H   0  0  0  0  0  0
  -31.3894  -24.4907   19.8279 H   0  0  0  0  0  0
  -31.8982  -22.8322   19.9658 H   0  0  0  0  0  0
  -31.3142  -23.6852   21.3743 H   0  0  0  0  0  0
  -27.6641  -23.7728   20.4623 H   0  0  0  0  0  0
  -28.8937  -24.4944   21.4580 H   0  0  0  0  0  0
  -27.9880  -25.2670   18.6418 H   0  0  0  0  0  0
  -29.6263  -25.5384   19.0232 H   0  0  0  0  0  0
  -29.5920  -23.0058   18.9011 H   0  0  0  0  0  0
  -28.7590  -15.0762   21.0503 H   0  0  0  0  0  0
  1 25  1  0  0  0
  1 30  2  0  0  0
  1 84  1  0  0  0
  2  3  1  0  0  0
  2 25  1  0  0  0
  2 87  1  0  0  0
  2 88  1  0  0  0
  3  4  1  0  0  0
  3 89  1  0  0  0
  3 90  1  0  0  0
  4  5  1  0  0  0
  4 91  1  0  0  0
  4 92  1  0  0  0
  5  6  1  0  0  0
  5 26  1  0  0  0
  5 93  1  0  0  0
  6 25  1  0  0  0
  6 94  1  0  0  0
  6 95  1  0  0  0
  7  8  2  0  0  0
  7 26  1  0  0  0
  7 29  1  0  0  0
  8  9  1  0  0  0
  8 22  1  0  0  0
  9 10  1  0  0  0
  9 27  2  0  0  0
 10 11  2  0  0  0
 10 15  1  0  0  0
 11 12  1  0  0  0
 11 96  1  0  0  0
 12 13  2  0  0  0
 12 97  1  0  0  0
 13 14  1  0  0  0
 13 31  1  0  0  0
 14 15  2  0  0  0
 14 98  1  0  0  0
 15 99  1  0  0  0
 16 17  2  0  0  0
 16 21  1  0  0  0
 16 31  1  0  0  0
 17 18  1  0  0  0
 17100  1  0  0  0
 18 19  2  0  0  0
 18101  1  0  0  0
 19 20  1  0  0  0
 19 24  1  0  0  0
 20 21  2  0  0  0
 20102  1  0  0  0
 21 23  1  0  0  0
 22 28  1  0  0  0
 22 32  2  0  0  0
 26 27  1  0  0  0
 28103  1  0  0  0
 28104  1  0  0  0
 29105  1  0  0  0
 29106  1  0  0  0
 33 34  1  0  0  0
 33 66  1  0  0  0
 33 70  2  0  0  0
 34 36  1  0  0  0
 34 59  1  0  0  0
 34107  1  0  0  0
 35 44  2  0  0  0
 35 45  1  0  0  0
 35 68  1  0  0  0
 36 56  1  0  0  0
 36108  1  0  0  0
 37 39  1  0  0  0
 37 47  1  0  0  0
 37 66  1  0  0  0
 37109  1  0  0  0
 38 43  2  0  0  0
 38 46  1  0  0  0
 38 47  1  0  0  0
 39 64  1  0  0  0
 39 67  2  0  0  0
 40 52  1  0  0  0
 40 53  2  0  0  0
 40 58  1  0  0  0
 41110  1  0  0  0
 41111  1  0  0  0
 41112  1  0  0  0
 41 48  1  0  0  0
 42 43  1  0  0  0
 42 66  1  0  0  0
 42113  1  0  0  0
 42114  1  0  0  0
 43 44  1  0  0  0
 44115  1  0  0  0
 45 46  2  0  0  0
 45116  1  0  0  0
 46117  1  0  0  0
 47118  1  0  0  0
 47119  1  0  0  0
 48 56  1  0  0  0
 48 65  1  0  0  0
 48120  1  0  0  0
 49 50  1  0  0  0
 49 53  1  0  0  0
 49 64  1  0  0  0
 49121  1  0  0  0
 50 51  1  0  0  0
 50122  1  0  0  0
 50123  1  0  0  0
 51 52  1  0  0  0
 51124  1  0  0  0
 51125  1  0  0  0
 52126  1  0  0  0
 52127  1  0  0  0
 53 54  1  0  0  0
 54 55  2  0  0  0
 54128  1  0  0  0
 55 57  1  0  0  0
 55129  1  0  0  0
 56 69  2  0  0  0
 57 58  2  0  0  0
 57130  1  0  0  0
 58131  1  0  0  0
 59 60  1  0  0  0
 59 61  1  0  0  0
 59 62  1  0  0  0
 60132  1  0  0  0
 60133  1  0  0  0
 60134  1  0  0  0
 61135  1  0  0  0
 61136  1  0  0  0
 61137  1  0  0  0
 62138  1  0  0  0
 62139  1  0  0  0
 62140  1  0  0  0
 63 65  1  0  0  0
 63141  1  0  0  0
 63142  1  0  0  0
 63143  1  0  0  0
 64144  1  0  0  0
 65145  1  0  0  0
 68 80  1  0  0  0
 71 73  2  0  0  0
 71 82  1  0  0  0
 71146  1  0  0  0
 72 73  1  0  0  0
 72 74  2  0  0  0
 72 84  1  0  0  0
 73 85  1  0  0  0
 74 75  1  0  0  0
 74 86  1  0  0  0
 75 76  1  0  0  0
 75 82  2  0  0  0
 76 77  1  0  0  0
 76 83  2  0  0  0
 77147  1  0  0  0
 77148  1  0  0  0
 77149  1  0  0  0
 78150  1  0  0  0
 78151  1  0  0  0
 78152  1  0  0  0
 78 81  1  0  0  0
 79 80  1  0  0  0
 79 81  1  0  0  0
 79153  1  0  0  0
 79154  1  0  0  0
 80155  1  0  0  0
 80156  1  0  0  0
 81 83  1  0  0  0
 81157  1  0  0  0
 84158  1  0  0  0
M  ISO  4   1 100  68 101  80 101  84 100
M  END
> <chiral flag>
0

> <version>
0

> <s_m_source_file>
/data/baiqing/PycharmProjects/Reinvent-master-3.2/result/LINK_invent/BTK/process_docking_weight1_custom_product_contain_oxygen_bond_distance_aromatic_linkinvent_7_9_3/rearranged_h_0165.sdf

> <i_m_source_file_index>
65

> <r_mmod_Potential_Energy-OPLS-2005>
-17.9931449890137

> <r_mmod_Stretch_Energy-OPLS-2005>
58.5027008056641

> <r_mmod_Bend_Energy-OPLS-2005>
142.214141845703

> <r_mmod_Torsional_Energy-OPLS-2005>
244.162048339844

> <r_mmod_Improper_Torsional_Energy-OPLS-2005>
9.55696582794189

> <r_mmod_Van_der_Waal_Energy-OPLS-2005>
168.65771484375

> <r_mmod_Electrostatic_Energy-OPLS-2005>
-444.047973632812

> <r_mmod_Solvation_Energy-OPLS-2005>
-223.337554931641

> <b_mmod_Minimization_Converged-OPLS-2005>
0

> <r_mmod_RMS_Derivative-OPLS-2005>
5.8668909072876

$$$$
66
                    3D
 Structure written by MMmdl.
156164  0  0  1  0            999 V2000
  -30.7693  -14.4427   20.5655 C   0  0  0  0  0  0
  -30.4045  -12.2797   19.4530 C   0  0  0  0  0  0
  -29.5033  -12.4842   18.2199 C   0  0  0  0  0  0
  -28.0193  -12.3648   18.6220 C   0  0  0  0  0  0
  -27.6635  -13.2228   19.8683 C   0  0  2  0  0  0
  -28.6998  -13.0443   21.0053 C   0  0  0  0  0  0
  -25.2574  -13.8209   20.5682 C   0  0  0  0  0  0
  -24.1847  -13.0473   20.9214 C   0  0  0  0  0  0
  -24.6419  -11.6945   20.8747 C   0  0  0  0  0  0
  -23.9110  -10.4308   21.0429 C   0  0  0  0  0  0
  -24.3666   -9.4201   21.9194 C   0  0  0  0  0  0
  -23.6328   -8.2232   22.0748 C   0  0  0  0  0  0
  -22.4290   -8.0293   21.3559 C   0  0  0  0  0  0
  -21.9941   -9.0283   20.4672 C   0  0  0  0  0  0
  -22.7289  -10.2146   20.3073 C   0  0  0  0  0  0
  -21.6845   -6.0750   22.5299 C   0  0  0  0  0  0
  -21.4007   -6.5647   23.8235 C   0  0  0  0  0  0
  -21.3644   -5.6789   24.9195 C   0  0  0  0  0  0
  -21.6016   -4.3048   24.7241 C   0  0  0  0  0  0
  -21.8807   -3.8151   23.4368 C   0  0  0  0  0  0
  -21.9183   -4.6972   22.3422 C   0  0  0  0  0  0
  -22.7862  -13.5275   21.1867 C   0  0  0  0  0  0
  -22.1664   -4.2172   21.0991 F   0  0  0  0  0  0
  -21.5640   -3.4524   25.7747 F   0  0  0  0  0  0
  -30.0411  -13.2987   20.4530 N   0  0  0  0  0  0
  -26.3038  -12.9432   20.3327 N   0  0  0  0  0  0
  -25.9342  -11.6574   20.5761 N   0  0  0  0  0  0
  -22.0477  -12.8294   22.0425 N   0  0  0  0  0  0
  -25.4287  -15.1919   20.4150 N   0  0  0  0  0  0
  -31.8718  -14.5613   20.0255 O   0  0  0  0  0  0
  -21.6636   -6.8899   21.4264 O   0  0  0  0  0  0
  -22.3558  -14.5558   20.6669 O   0  0  0  0  0  0
  -24.6213  -31.8688   23.2105 C   0  0  0  0  0  0
  -25.9093  -32.4834   23.8422 C   0  0  1  0  0  0
  -27.1939  -27.3848   20.1045 C   0  0  0  0  0  0
  -25.5939  -33.8623   24.2340 N   0  0  0  0  0  0
  -23.4062  -30.5005   21.5496 C   0  0  2  0  0  0
  -24.8475  -28.9790   20.1069 C   0  0  0  0  0  0
  -22.7443  -29.4676   22.4929 C   0  0  0  0  0  0
  -18.0287  -28.1383   22.8485 C   0  0  0  0  0  0
  -24.1487  -36.7297   23.2627 C   0  0  0  0  0  0
  -25.9438  -30.8242   21.3675 C   0  0  0  0  0  0
  -26.0155  -29.4580   20.7102 C   0  0  0  0  0  0
  -27.1970  -28.6690   20.7089 C   0  0  0  0  0  0
  -26.0053  -26.9539   19.4680 C   0  0  0  0  0  0
  -24.8383  -27.7279   19.4795 C   0  0  0  0  0  0
  -23.6152  -29.8490   20.1604 C   0  0  0  0  0  0
  -25.4115  -36.3089   24.0318 C   0  0  1  0  0  0
  -20.5880  -28.3676   23.1274 C   0  0  2  0  0  0
  -20.6777  -26.9408   22.5386 C   0  0  0  0  0  0
  -19.5762  -26.6386   21.5182 C   0  0  0  0  0  0
  -18.1933  -26.7932   22.1599 C   0  0  0  0  0  0
  -19.1538  -28.8842   23.2890 C   0  0  0  0  0  0
  -18.9478  -30.1427   23.8934 C   0  0  0  0  0  0
  -17.6488  -30.6594   24.0537 C   0  0  0  0  0  0
  -25.9053  -34.9474   23.5120 C   0  0  0  0  0  0
  -16.5370  -29.9098   23.6303 C   0  0  0  0  0  0
  -16.7276  -28.6492   23.0368 C   0  0  0  0  0  0
  -26.4515  -31.6613   25.0741 C   0  0  0  0  0  0
  -25.3790  -31.3726   26.1491 C   0  0  0  0  0  0
  -27.0304  -30.3051   24.6092 C   0  0  0  0  0  0
  -27.6093  -32.4323   25.7504 C   0  0  0  0  0  0
  -27.5583  -37.1792   24.8470 C   0  0  0  0  0  0
  -21.4166  -29.3042   22.3669 N   0  0  0  0  0  0
  -26.4288  -37.3794   23.9419 N   0  0  0  0  0  0
  -24.6763  -31.0784   22.1001 N   0  0  0  0  0  0
  -23.4205  -28.8174   23.2955 O   0  0  0  0  0  0
  -28.2972  -26.5386   20.1731 O   0  0  0  0  0  0
  -26.5596  -34.8931   22.4666 O   0  0  0  0  0  0
  -23.5381  -32.1415   23.7480 O   0  0  0  0  0  0
  -29.5570  -17.8520   20.8651 C   0  0  0  0  0  0
  -31.2347  -19.5473   20.3175 C   0  0  0  0  0  0
  -31.9211  -17.2748   20.8767 C   0  0  0  0  0  0
  -29.8872  -19.1967   20.5436 C   0  0  0  0  0  0
  -30.5678  -16.8650   20.9854 C   0  0  0  0  0  0
  -32.2478  -18.5968   20.5188 C   0  0  0  0  0  0
  -28.8569  -20.2396   20.4438 C   0  0  0  0  0  0
  -28.9590  -24.0610   20.6436 C   0  0  0  0  0  0
  -28.2459  -22.6852   20.8346 C   0  0  0  0  0  0
  -27.9421  -25.1261   20.1697 C   0  0  0  0  0  0
  -27.6403  -19.9331   19.9984 N   0  0  0  0  0  0
  -30.1978  -15.4896   21.1944 N   0  0  0  0  0  0
  -29.1445  -21.5076   20.8109 N   0  3  0  0  0  0
  -33.5431  -18.9567   20.3613 F   0  0  0  0  0  0
  -31.4598  -12.3110   19.1755 H   0  0  0  0  0  0
  -30.2616  -11.2858   19.8751 H   0  0  0  0  0  0
  -29.7454  -11.7435   17.4556 H   0  0  0  0  0  0
  -29.6923  -13.4621   17.7741 H   0  0  0  0  0  0
  -27.8172  -11.3167   18.8342 H   0  0  0  0  0  0
  -27.3785  -12.6299   17.7806 H   0  0  0  0  0  0
  -27.7023  -14.2645   19.5428 H   0  0  0  0  0  0
  -28.6599  -12.0340   21.4133 H   0  0  0  0  0  0
  -28.4660  -13.7046   21.8406 H   0  0  0  0  0  0
  -25.2821   -9.5668   22.4766 H   0  0  0  0  0  0
  -24.0044   -7.4606   22.7437 H   0  0  0  0  0  0
  -21.0866   -8.8835   19.8989 H   0  0  0  0  0  0
  -22.3785  -10.9691   19.6168 H   0  0  0  0  0  0
  -21.2007   -7.6144   23.9769 H   0  0  0  0  0  0
  -21.1471   -6.0509   25.9106 H   0  0  0  0  0  0
  -22.0600   -2.7631   23.2852 H   0  0  0  0  0  0
  -22.4088  -11.9983   22.4881 H   0  0  0  0  0  0
  -21.1082  -13.1338   22.2568 H   0  0  0  0  0  0
  -24.6725  -15.8539   20.5476 H   0  0  0  0  0  0
  -26.2901  -15.6303   20.1176 H   0  0  0  0  0  0
  -26.7145  -32.5535   23.1169 H   0  0  0  0  0  0
  -25.0117  -33.9802   25.0497 H   0  0  0  0  0  0
  -22.6920  -31.3162   21.4181 H   0  0  0  0  0  0
  -23.3754  -35.9631   23.3304 H   0  0  0  0  0  0
  -24.3582  -36.8920   22.2048 H   0  0  0  0  0  0
  -23.7253  -37.6502   23.6650 H   0  0  0  0  0  0
  -26.0593  -31.5908   20.5994 H   0  0  0  0  0  0
  -26.8309  -30.8764   21.9861 H   0  0  0  0  0  0
  -28.0893  -29.0230   21.2067 H   0  0  0  0  0  0
  -25.9248  -26.0024   18.9652 H   0  0  0  0  0  0
  -23.9417  -27.3530   19.0065 H   0  0  0  0  0  0
  -23.7296  -30.6289   19.4073 H   0  0  0  0  0  0
  -22.7398  -29.2765   19.8552 H   0  0  0  0  0  0
  -25.1288  -36.1942   25.0807 H   0  0  0  0  0  0
  -20.9987  -28.3267   24.1397 H   0  0  0  0  0  0
  -20.5661  -26.2299   23.3586 H   0  0  0  0  0  0
  -21.6657  -26.7437   22.1199 H   0  0  0  0  0  0
  -19.6926  -25.6294   21.1223 H   0  0  0  0  0  0
  -19.6718  -27.3183   20.6706 H   0  0  0  0  0  0
  -17.4195  -26.6653   21.4006 H   0  0  0  0  0  0
  -18.0374  -26.0084   22.9023 H   0  0  0  0  0  0
  -19.7951  -30.7192   24.2376 H   0  0  0  0  0  0
  -17.5051  -31.6297   24.5117 H   0  0  0  0  0  0
  -15.5372  -30.3026   23.7609 H   0  0  0  0  0  0
  -15.8662  -28.0796   22.7139 H   0  0  0  0  0  0
  -24.5952  -30.7081   25.7844 H   0  0  0  0  0  0
  -24.8982  -32.2882   26.4959 H   0  0  0  0  0  0
  -25.8155  -30.8890   27.0240 H   0  0  0  0  0  0
  -26.2792  -29.6855   24.1165 H   0  0  0  0  0  0
  -27.4108  -29.7271   25.4531 H   0  0  0  0  0  0
  -27.8651  -30.4399   23.9198 H   0  0  0  0  0  0
  -27.2732  -33.3644   26.2081 H   0  0  0  0  0  0
  -28.3908  -32.6862   25.0322 H   0  0  0  0  0  0
  -28.0753  -31.8440   26.5431 H   0  0  0  0  0  0
  -28.2575  -38.0100   24.7508 H   0  0  0  0  0  0
  -28.1076  -36.2629   24.6279 H   0  0  0  0  0  0
  -27.2288  -37.1442   25.8862 H   0  0  0  0  0  0
  -20.9318  -29.8824   21.6941 H   0  0  0  0  0  0
  -26.0162  -38.2849   24.1472 H   0  0  0  0  0  0
  -28.5202  -17.5738   20.9946 H   0  0  0  0  0  0
  -31.5167  -20.5454   20.0060 H   0  0  0  0  0  0
  -32.7410  -16.5831   21.0195 H   0  0  0  0  0  0
  -29.7854  -23.9867   19.9377 H   0  0  0  0  0  0
  -29.3846  -24.3663   21.5986 H   0  0  0  0  0  0
  -27.4919  -22.5605   20.0574 H   0  0  0  0  0  0
  -27.7023  -22.6813   21.7815 H   0  0  0  0  0  0
  -27.0613  -24.9846   20.8002 H   0  0  0  0  0  0
  -27.6667  -24.8387   19.1535 H   0  0  0  0  0  0
  -27.4637  -19.0021   19.6480 H   0  0  0  0  0  0
  -26.8658  -20.5787   20.0435 H   0  0  0  0  0  0
  -29.2911  -15.3153   21.6029 H   0  0  0  0  0  0
  -30.0384  -21.6234   21.2726 H   0  0  0  0  0  0
  1 25  1  0  0  0
  1 30  2  0  0  0
  1 82  1  0  0  0
  2  3  1  0  0  0
  2 25  1  0  0  0
  2 85  1  0  0  0
  2 86  1  0  0  0
  3  4  1  0  0  0
  3 87  1  0  0  0
  3 88  1  0  0  0
  4  5  1  0  0  0
  4 89  1  0  0  0
  4 90  1  0  0  0
  5  6  1  0  0  0
  5 26  1  0  0  0
  5 91  1  0  0  0
  6 25  1  0  0  0
  6 92  1  0  0  0
  6 93  1  0  0  0
  7  8  2  0  0  0
  7 26  1  0  0  0
  7 29  1  0  0  0
  8  9  1  0  0  0
  8 22  1  0  0  0
  9 10  1  0  0  0
  9 27  2  0  0  0
 10 11  2  0  0  0
 10 15  1  0  0  0
 11 12  1  0  0  0
 11 94  1  0  0  0
 12 13  2  0  0  0
 12 95  1  0  0  0
 13 14  1  0  0  0
 13 31  1  0  0  0
 14 15  2  0  0  0
 14 96  1  0  0  0
 15 97  1  0  0  0
 16 17  2  0  0  0
 16 21  1  0  0  0
 16 31  1  0  0  0
 17 18  1  0  0  0
 17 98  1  0  0  0
 18 19  2  0  0  0
 18 99  1  0  0  0
 19 20  1  0  0  0
 19 24  1  0  0  0
 20 21  2  0  0  0
 20100  1  0  0  0
 21 23  1  0  0  0
 22 28  1  0  0  0
 22 32  2  0  0  0
 26 27  1  0  0  0
 28101  1  0  0  0
 28102  1  0  0  0
 29103  1  0  0  0
 29104  1  0  0  0
 33 34  1  0  0  0
 33 66  1  0  0  0
 33 70  2  0  0  0
 34 36  1  0  0  0
 34 59  1  0  0  0
 34105  1  0  0  0
 35 44  2  0  0  0
 35 45  1  0  0  0
 35 68  1  0  0  0
 36 56  1  0  0  0
 36106  1  0  0  0
 37 39  1  0  0  0
 37 47  1  0  0  0
 37 66  1  0  0  0
 37107  1  0  0  0
 38 43  2  0  0  0
 38 46  1  0  0  0
 38 47  1  0  0  0
 39 64  1  0  0  0
 39 67  2  0  0  0
 40 52  1  0  0  0
 40 53  2  0  0  0
 40 58  1  0  0  0
 41108  1  0  0  0
 41109  1  0  0  0
 41110  1  0  0  0
 41 48  1  0  0  0
 42 43  1  0  0  0
 42 66  1  0  0  0
 42111  1  0  0  0
 42112  1  0  0  0
 43 44  1  0  0  0
 44113  1  0  0  0
 45 46  2  0  0  0
 45114  1  0  0  0
 46115  1  0  0  0
 47116  1  0  0  0
 47117  1  0  0  0
 48 56  1  0  0  0
 48 65  1  0  0  0
 48118  1  0  0  0
 49 50  1  0  0  0
 49 53  1  0  0  0
 49 64  1  0  0  0
 49119  1  0  0  0
 50 51  1  0  0  0
 50120  1  0  0  0
 50121  1  0  0  0
 51 52  1  0  0  0
 51122  1  0  0  0
 51123  1  0  0  0
 52124  1  0  0  0
 52125  1  0  0  0
 53 54  1  0  0  0
 54 55  2  0  0  0
 54126  1  0  0  0
 55 57  1  0  0  0
 55127  1  0  0  0
 56 69  2  0  0  0
 57 58  2  0  0  0
 57128  1  0  0  0
 58129  1  0  0  0
 59 60  1  0  0  0
 59 61  1  0  0  0
 59 62  1  0  0  0
 60130  1  0  0  0
 60131  1  0  0  0
 60132  1  0  0  0
 61133  1  0  0  0
 61134  1  0  0  0
 61135  1  0  0  0
 62136  1  0  0  0
 62137  1  0  0  0
 62138  1  0  0  0
 63 65  1  0  0  0
 63139  1  0  0  0
 63140  1  0  0  0
 63141  1  0  0  0
 64142  1  0  0  0
 65143  1  0  0  0
 68 80  1  0  0  0
 71 74  2  0  0  0
 71 75  1  0  0  0
 71144  1  0  0  0
 72 74  1  0  0  0
 72 76  2  0  0  0
 72145  1  0  0  0
 73 75  2  0  0  0
 73 76  1  0  0  0
 73146  1  0  0  0
 74 77  1  0  0  0
 75 82  1  0  0  0
 76 84  1  0  0  0
 77 81  1  0  0  0
 77 83  2  0  0  0
 78 79  1  0  0  0
 78 80  1  0  0  0
 78147  1  0  0  0
 78148  1  0  0  0
 79 83  1  0  0  0
 79149  1  0  0  0
 79150  1  0  0  0
 80151  1  0  0  0
 80152  1  0  0  0
 81153  1  0  0  0
 81154  1  0  0  0
 82155  1  0  0  0
 83156  1  0  0  0
M  CHG  1  83   1
M  ISO  4   1 100  68 101  80 101  82 100
M  END
> <chiral flag>
0

> <version>
0

> <s_m_source_file>
/data/baiqing/PycharmProjects/Reinvent-master-3.2/result/LINK_invent/BTK/process_docking_weight1_custom_product_contain_oxygen_bond_distance_aromatic_linkinvent_7_9_3/rearranged_h_0165.sdf

> <i_m_source_file_index>
66

> <r_mmod_Potential_Energy-OPLS-2005>
-282.729675292969

> <r_mmod_Stretch_Energy-OPLS-2005>
43.1133422851562

> <r_mmod_Bend_Energy-OPLS-2005>
103.395599365234

> <r_mmod_Torsional_Energy-OPLS-2005>
219.986892700195

> <r_mmod_Improper_Torsional_Energy-OPLS-2005>
3.82015681266785

> <r_mmod_Van_der_Waal_Energy-OPLS-2005>
175.802505493164

> <r_mmod_Electrostatic_Energy-OPLS-2005>
-413.284027099609

> <r_mmod_Solvation_Energy-OPLS-2005>
-440.430358886719

> <b_mmod_Minimization_Converged-OPLS-2005>
0

> <r_mmod_RMS_Derivative-OPLS-2005>
5.68353509902954

$$$$
67
                    3D
 Structure written by MMmdl.
160168  0  0  1  0            999 V2000
  -30.7280  -14.6136   20.4591 C   0  0  0  0  0  0
  -30.3963  -12.3701   19.4720 C   0  0  0  0  0  0
  -29.5059  -12.4912   18.2185 C   0  0  0  0  0  0
  -28.0262  -12.3450   18.6199 C   0  0  0  0  0  0
  -27.6348  -13.2441   19.8248 C   0  0  2  0  0  0
  -28.6764  -13.2003   20.9620 C   0  0  0  0  0  0
  -25.2492  -13.8209   20.5677 C   0  0  0  0  0  0
  -24.1805  -13.0429   20.9181 C   0  0  0  0  0  0
  -24.6415  -11.6925   20.8713 C   0  0  0  0  0  0
  -23.9080  -10.4291   21.0378 C   0  0  0  0  0  0
  -24.3619   -9.4203   21.9161 C   0  0  0  0  0  0
  -23.6290   -8.2243   22.0749 C   0  0  0  0  0  0
  -22.4286   -8.0264   21.3529 C   0  0  0  0  0  0
  -21.9911   -9.0241   20.4647 C   0  0  0  0  0  0
  -22.7247  -10.2108   20.3048 C   0  0  0  0  0  0
  -21.6848   -6.0711   22.5279 C   0  0  0  0  0  0
  -21.4040   -6.5631   23.8203 C   0  0  0  0  0  0
  -21.3673   -5.6793   24.9163 C   0  0  0  0  0  0
  -21.6051   -4.3049   24.7220 C   0  0  0  0  0  0
  -21.8808   -3.8126   23.4338 C   0  0  0  0  0  0
  -21.9200   -4.6941   22.3395 C   0  0  0  0  0  0
  -22.7828  -13.5208   21.1822 C   0  0  0  0  0  0
  -22.1650   -4.2122   21.0975 F   0  0  0  0  0  0
  -21.5621   -3.4529   25.7739 F   0  0  0  0  0  0
  -29.9993  -13.4558   20.3884 N   0  0  0  0  0  0
  -26.2916  -12.9459   20.3147 N   0  0  0  0  0  0
  -25.9352  -11.6582   20.5680 N   0  0  0  0  0  0
  -22.0467  -12.8240   22.0403 N   0  0  0  0  0  0
  -25.4113  -15.1951   20.4201 N   0  0  0  0  0  0
  -31.9465  -14.5733   20.2937 O   0  0  0  0  0  0
  -21.6657   -6.8862   21.4242 O   0  0  0  0  0  0
  -22.3487  -14.5483   20.6625 O   0  0  0  0  0  0
  -24.6193  -31.8615   23.2084 C   0  0  0  0  0  0
  -25.9052  -32.4797   23.8387 C   0  0  1  0  0  0
  -27.2191  -27.3606   20.1284 C   0  0  0  0  0  0
  -25.5882  -33.8602   24.2312 N   0  0  0  0  0  0
  -23.4139  -30.4864   21.5455 C   0  0  2  0  0  0
  -24.8687  -28.9520   20.1077 C   0  0  0  0  0  0
  -22.7455  -29.4600   22.4912 C   0  0  0  0  0  0
  -18.0279  -28.1381   22.8504 C   0  0  0  0  0  0
  -24.1485  -36.7305   23.2650 C   0  0  0  0  0  0
  -25.9535  -30.8063   21.3797 C   0  0  0  0  0  0
  -26.0313  -29.4407   20.7183 C   0  0  0  0  0  0
  -27.2153  -28.6508   20.7277 C   0  0  0  0  0  0
  -26.0453  -26.9118   19.4945 C   0  0  0  0  0  0
  -24.8728  -27.6908   19.4889 C   0  0  0  0  0  0
  -23.6333  -29.8261   20.1578 C   0  0  0  0  0  0
  -25.4103  -36.3101   24.0347 C   0  0  1  0  0  0
  -20.5887  -28.3664   23.1322 C   0  0  2  0  0  0
  -20.6764  -26.9385   22.5444 C   0  0  0  0  0  0
  -19.5731  -26.6362   21.5251 C   0  0  0  0  0  0
  -18.1912  -26.7924   22.1657 C   0  0  0  0  0  0
  -19.1539  -28.8833   23.2912 C   0  0  0  0  0  0
  -18.9453  -30.1445   23.8908 C   0  0  0  0  0  0
  -17.6455  -30.6582   24.0568 C   0  0  0  0  0  0
  -25.9032  -34.9472   23.5141 C   0  0  0  0  0  0
  -16.5343  -29.9084   23.6336 C   0  0  0  0  0  0
  -16.7270  -28.6511   23.0342 C   0  0  0  0  0  0
  -26.4455  -31.6608   25.0756 C   0  0  0  0  0  0
  -25.3685  -31.3770   26.1484 C   0  0  0  0  0  0
  -27.0312  -30.3026   24.6237 C   0  0  0  0  0  0
  -27.6019  -32.4342   25.7521 C   0  0  0  0  0  0
  -27.5575  -37.1813   24.8461 C   0  0  0  0  0  0
  -21.4170  -29.3023   22.3700 N   0  0  0  0  0  0
  -26.4287  -37.3777   23.9410 N   0  0  0  0  0  0
  -24.6798  -31.0672   22.1016 N   0  0  0  0  0  0
  -23.4217  -28.8116   23.2940 O   0  0  0  0  0  0
  -28.2648  -26.4549   20.2372 O   0  0  0  0  0  0
  -26.5602  -34.8923   22.4713 O   0  0  0  0  0  0
  -23.5364  -32.1382   23.7429 O   0  0  0  0  0  0
  -29.7255  -19.5330   20.5390 C   0  0  0  0  0  0
  -30.8817  -21.2269   19.2191 C   0  0  0  0  0  0
  -30.6331  -18.5123   20.0814 C   0  0  0  0  0  0
  -31.6813  -18.9157   19.1917 C   0  0  0  0  0  0
  -29.8479  -20.9104   20.1242 C   0  0  0  0  0  0
  -31.7742  -20.2588   18.7493 C   0  0  0  0  0  0
  -30.7401  -17.0778   20.5717 C   0  0  0  0  0  0
  -30.0494  -15.9296   20.2831 C   0  0  0  0  0  0
  -28.0618  -25.5135   21.2478 C   0  0  0  0  0  0
  -28.3012  -24.1639   21.3219 C   0  0  0  0  0  0
  -28.9033  -23.3050   20.2792 C   0  0  0  0  0  0
  -32.3370  -17.1132   17.4921 C   0  0  0  0  0  0
  -32.7583  -17.9209   18.7285 C   0  0  0  0  0  0
  -32.7727  -20.6903   17.8721 N   0  0  0  0  0  0
  -29.0323  -21.9896   20.6665 N   0  0  0  0  0  0
  -29.2160  -23.7135   19.1599 O   0  0  0  0  0  0
  -27.9566  -23.5517   22.4702 O   0  0  0  0  0  0
  -31.4524  -12.4112   19.1990 H   0  0  0  0  0  0
  -30.2427  -11.4026   19.9533 H   0  0  0  0  0  0
  -29.7770  -11.7282   17.4855 H   0  0  0  0  0  0
  -29.6695  -13.4549   17.7321 H   0  0  0  0  0  0
  -27.8645  -11.2967   18.8730 H   0  0  0  0  0  0
  -27.3827  -12.5603   17.7672 H   0  0  0  0  0  0
  -27.6153  -14.2620   19.4368 H   0  0  0  0  0  0
  -28.6660  -12.2360   21.4707 H   0  0  0  0  0  0
  -28.4377  -13.9512   21.7193 H   0  0  0  0  0  0
  -25.2750   -9.5688   22.4733 H   0  0  0  0  0  0
  -23.9982   -7.4657   22.7504 H   0  0  0  0  0  0
  -21.0807   -8.8766   19.8988 H   0  0  0  0  0  0
  -22.3685  -10.9635   19.6149 H   0  0  0  0  0  0
  -21.2055   -7.6137   23.9696 H   0  0  0  0  0  0
  -21.1508   -6.0520   25.9064 H   0  0  0  0  0  0
  -22.0580   -2.7595   23.2854 H   0  0  0  0  0  0
  -22.4119  -11.9951   22.4872 H   0  0  0  0  0  0
  -21.1076  -13.1262   22.2564 H   0  0  0  0  0  0
  -24.6348  -15.8375   20.5421 H   0  0  0  0  0  0
  -26.2684  -15.6541   20.1398 H   0  0  0  0  0  0
  -26.7126  -32.5491   23.1145 H   0  0  0  0  0  0
  -24.9978  -33.9729   25.0421 H   0  0  0  0  0  0
  -22.7045  -31.3050   21.4057 H   0  0  0  0  0  0
  -23.3744  -35.9642   23.3323 H   0  0  0  0  0  0
  -24.3569  -36.8900   22.2060 H   0  0  0  0  0  0
  -23.7241  -37.6522   23.6644 H   0  0  0  0  0  0
  -26.0885  -31.5769   20.6191 H   0  0  0  0  0  0
  -26.8319  -30.8493   22.0123 H   0  0  0  0  0  0
  -28.0998  -29.0001   21.2413 H   0  0  0  0  0  0
  -26.0251  -25.9262   19.0506 H   0  0  0  0  0  0
  -23.9765  -27.3079   19.0215 H   0  0  0  0  0  0
  -23.7551  -30.6071   19.4069 H   0  0  0  0  0  0
  -22.7555  -29.2535   19.8504 H   0  0  0  0  0  0
  -25.1289  -36.1969   25.0838 H   0  0  0  0  0  0
  -20.9990  -28.3239   24.1440 H   0  0  0  0  0  0
  -20.5700  -26.2251   23.3632 H   0  0  0  0  0  0
  -21.6626  -26.7415   22.1216 H   0  0  0  0  0  0
  -19.6886  -25.6274   21.1266 H   0  0  0  0  0  0
  -19.6697  -27.3191   20.6798 H   0  0  0  0  0  0
  -17.4195  -26.6694   21.4044 H   0  0  0  0  0  0
  -18.0295  -26.0059   22.9048 H   0  0  0  0  0  0
  -19.7920  -30.7267   24.2277 H   0  0  0  0  0  0
  -17.5001  -31.6265   24.5168 H   0  0  0  0  0  0
  -15.5346  -30.2993   23.7632 H   0  0  0  0  0  0
  -15.8671  -28.0841   22.7030 H   0  0  0  0  0  0
  -24.5803  -30.7195   25.7798 H   0  0  0  0  0  0
  -24.8945  -32.2968   26.4931 H   0  0  0  0  0  0
  -25.7979  -30.8894   27.0244 H   0  0  0  0  0  0
  -26.2931  -29.6790   24.1180 H   0  0  0  0  0  0
  -27.3914  -29.7269   25.4775 H   0  0  0  0  0  0
  -27.8833  -30.4318   23.9557 H   0  0  0  0  0  0
  -27.2622  -33.3623   26.2124 H   0  0  0  0  0  0
  -28.3807  -32.6925   25.0340 H   0  0  0  0  0  0
  -28.0705  -31.8454   26.5409 H   0  0  0  0  0  0
  -28.2604  -38.0096   24.7475 H   0  0  0  0  0  0
  -28.1056  -36.2630   24.6319 H   0  0  0  0  0  0
  -27.2293  -37.1501   25.8861 H   0  0  0  0  0  0
  -20.9306  -29.8770   21.6958 H   0  0  0  0  0  0
  -26.0188  -38.2866   24.1378 H   0  0  0  0  0  0
  -28.9530  -19.2559   21.2421 H   0  0  0  0  0  0
  -31.0428  -22.2401   18.8881 H   0  0  0  0  0  0
  -31.6284  -16.9464   21.1779 H   0  0  0  0  0  0
  -29.0930  -15.9753   19.7869 H   0  0  0  0  0  0
  -27.6189  -26.0056   22.1065 H   0  0  0  0  0  0
  -33.1510  -16.4612   17.1724 H   0  0  0  0  0  0
  -32.0857  -17.7634   16.6534 H   0  0  0  0  0  0
  -31.4699  -16.4866   17.6945 H   0  0  0  0  0  0
  -33.0508  -17.2499   19.5350 H   0  0  0  0  0  0
  -33.6946  -18.4412   18.5110 H   0  0  0  0  0  0
  -32.8106  -21.6552   17.5582 H   0  0  0  0  0  0
  -33.2847  -20.0367   17.2887 H   0  0  0  0  0  0
  -28.5658  -21.8065   21.5465 H   0  0  0  0  0  0
  -27.6164  -24.2106   23.0626 H   0  0  0  0  0  0
  1 25  1  0  0  0
  1 30  2  0  0  0
  1 78  1  0  0  0
  2  3  1  0  0  0
  2 25  1  0  0  0
  2 88  1  0  0  0
  2 89  1  0  0  0
  3  4  1  0  0  0
  3 90  1  0  0  0
  3 91  1  0  0  0
  4  5  1  0  0  0
  4 92  1  0  0  0
  4 93  1  0  0  0
  5  6  1  0  0  0
  5 26  1  0  0  0
  5 94  1  0  0  0
  6 25  1  0  0  0
  6 95  1  0  0  0
  6 96  1  0  0  0
  7  8  2  0  0  0
  7 26  1  0  0  0
  7 29  1  0  0  0
  8  9  1  0  0  0
  8 22  1  0  0  0
  9 10  1  0  0  0
  9 27  2  0  0  0
 10 11  2  0  0  0
 10 15  1  0  0  0
 11 12  1  0  0  0
 11 97  1  0  0  0
 12 13  2  0  0  0
 12 98  1  0  0  0
 13 14  1  0  0  0
 13 31  1  0  0  0
 14 15  2  0  0  0
 14 99  1  0  0  0
 15100  1  0  0  0
 16 17  2  0  0  0
 16 21  1  0  0  0
 16 31  1  0  0  0
 17 18  1  0  0  0
 17101  1  0  0  0
 18 19  2  0  0  0
 18102  1  0  0  0
 19 20  1  0  0  0
 19 24  1  0  0  0
 20 21  2  0  0  0
 20103  1  0  0  0
 21 23  1  0  0  0
 22 28  1  0  0  0
 22 32  2  0  0  0
 26 27  1  0  0  0
 28104  1  0  0  0
 28105  1  0  0  0
 29106  1  0  0  0
 29107  1  0  0  0
 33 34  1  0  0  0
 33 66  1  0  0  0
 33 70  2  0  0  0
 34 36  1  0  0  0
 34 59  1  0  0  0
 34108  1  0  0  0
 35 44  2  0  0  0
 35 45  1  0  0  0
 35 68  1  0  0  0
 36 56  1  0  0  0
 36109  1  0  0  0
 37 39  1  0  0  0
 37 47  1  0  0  0
 37 66  1  0  0  0
 37110  1  0  0  0
 38 43  2  0  0  0
 38 46  1  0  0  0
 38 47  1  0  0  0
 39 64  1  0  0  0
 39 67  2  0  0  0
 40 52  1  0  0  0
 40 53  2  0  0  0
 40 58  1  0  0  0
 41111  1  0  0  0
 41112  1  0  0  0
 41113  1  0  0  0
 41 48  1  0  0  0
 42 43  1  0  0  0
 42 66  1  0  0  0
 42114  1  0  0  0
 42115  1  0  0  0
 43 44  1  0  0  0
 44116  1  0  0  0
 45 46  2  0  0  0
 45117  1  0  0  0
 46118  1  0  0  0
 47119  1  0  0  0
 47120  1  0  0  0
 48 56  1  0  0  0
 48 65  1  0  0  0
 48121  1  0  0  0
 49 50  1  0  0  0
 49 53  1  0  0  0
 49 64  1  0  0  0
 49122  1  0  0  0
 50 51  1  0  0  0
 50123  1  0  0  0
 50124  1  0  0  0
 51 52  1  0  0  0
 51125  1  0  0  0
 51126  1  0  0  0
 52127  1  0  0  0
 52128  1  0  0  0
 53 54  1  0  0  0
 54 55  2  0  0  0
 54129  1  0  0  0
 55 57  1  0  0  0
 55130  1  0  0  0
 56 69  2  0  0  0
 57 58  2  0  0  0
 57131  1  0  0  0
 58132  1  0  0  0
 59 60  1  0  0  0
 59 61  1  0  0  0
 59 62  1  0  0  0
 60133  1  0  0  0
 60134  1  0  0  0
 60135  1  0  0  0
 61136  1  0  0  0
 61137  1  0  0  0
 61138  1  0  0  0
 62139  1  0  0  0
 62140  1  0  0  0
 62141  1  0  0  0
 63 65  1  0  0  0
 63142  1  0  0  0
 63143  1  0  0  0
 63144  1  0  0  0
 64145  1  0  0  0
 65146  1  0  0  0
 68 79  1  0  0  0
 71 73  2  0  0  0
 71 75  1  0  0  0
 71147  1  0  0  0
 72 75  2  0  0  0
 72 76  1  0  0  0
 72148  1  0  0  0
 73 74  1  0  0  0
 73 77  1  0  0  0
 74 76  2  0  0  0
 74 83  1  0  0  0
 75 85  1  0  0  0
 76 84  1  0  0  0
 77 78  2  0  0  0
 77149  1  0  0  0
 78150  1  0  0  0
 79 80  2  0  0  0
 79151  1  0  0  0
 80 81  1  0  0  0
 80 87  1  0  0  0
 81 85  1  0  0  0
 81 86  2  0  0  0
 82 83  1  0  0  0
 82152  1  0  0  0
 82153  1  0  0  0
 82154  1  0  0  0
 83155  1  0  0  0
 83156  1  0  0  0
 84157  1  0  0  0
 84158  1  0  0  0
 85159  1  0  0  0
 87160  1  0  0  0
M  ISO  4   1 100  68 101  78 100  79 101
M  END
> <chiral flag>
0

> <version>
0

> <s_m_source_file>
/data/baiqing/PycharmProjects/Reinvent-master-3.2/result/LINK_invent/BTK/process_docking_weight1_custom_product_contain_oxygen_bond_distance_aromatic_linkinvent_7_9_3/rearranged_h_0165.sdf

> <i_m_source_file_index>
67

> <r_mmod_Potential_Energy-OPLS-2005>
158.34326171875

> <r_mmod_Stretch_Energy-OPLS-2005>
69.9062271118164

> <r_mmod_Bend_Energy-OPLS-2005>
160.889389038086

> <r_mmod_Torsional_Energy-OPLS-2005>
270.928985595703

> <r_mmod_Improper_Torsional_Energy-OPLS-2005>
20.2101402282715

> <r_mmod_Van_der_Waal_Energy-OPLS-2005>
162.445037841797

> <r_mmod_Electrostatic_Energy-OPLS-2005>
-365.191650390625

> <r_mmod_Solvation_Energy-OPLS-2005>
-224.177978515625

> <b_mmod_Minimization_Converged-OPLS-2005>
0

> <r_mmod_RMS_Derivative-OPLS-2005>
4.30389404296875

$$$$
68
                    3D
 Structure written by MMmdl.
161169  0  0  1  0            999 V2000
  -30.7323  -14.4844   20.5664 C   0  0  0  0  0  0
  -30.4160  -12.3170   19.4268 C   0  0  0  0  0  0
  -29.4910  -12.5042   18.2080 C   0  0  0  0  0  0
  -28.0141  -12.3655   18.6225 C   0  0  0  0  0  0
  -27.6585  -13.2160   19.8714 C   0  0  2  0  0  0
  -28.7042  -13.0294   20.9954 C   0  0  0  0  0  0
  -25.2567  -13.8179   20.5695 C   0  0  0  0  0  0
  -24.1830  -13.0443   20.9195 C   0  0  0  0  0  0
  -24.6397  -11.6914   20.8738 C   0  0  0  0  0  0
  -23.9068  -10.4294   21.0402 C   0  0  0  0  0  0
  -24.3617   -9.4207   21.9179 C   0  0  0  0  0  0
  -23.6288   -8.2245   22.0752 C   0  0  0  0  0  0
  -22.4271   -8.0283   21.3543 C   0  0  0  0  0  0
  -21.9910   -9.0258   20.4644 C   0  0  0  0  0  0
  -22.7241  -10.2134   20.3052 C   0  0  0  0  0  0
  -21.6854   -6.0732   22.5276 C   0  0  0  0  0  0
  -21.4016   -6.5635   23.8210 C   0  0  0  0  0  0
  -21.3657   -5.6787   24.9169 C   0  0  0  0  0  0
  -21.6049   -4.3052   24.7219 C   0  0  0  0  0  0
  -21.8819   -3.8143   23.4342 C   0  0  0  0  0  0
  -21.9193   -4.6960   22.3400 C   0  0  0  0  0  0
  -22.7851  -13.5235   21.1848 C   0  0  0  0  0  0
  -22.1662   -4.2148   21.0977 F   0  0  0  0  0  0
  -21.5628   -3.4539   25.7734 F   0  0  0  0  0  0
  -30.0336  -13.3217   20.4347 N   0  0  0  0  0  0
  -26.3017  -12.9374   20.3368 N   0  0  0  0  0  0
  -25.9332  -11.6526   20.5778 N   0  0  0  0  0  0
  -22.0484  -12.8223   22.0396 N   0  0  0  0  0  0
  -25.4268  -15.1896   20.4080 N   0  0  0  0  0  0
  -31.8584  -14.6237   20.0840 O   0  0  0  0  0  0
  -21.6640   -6.8877   21.4239 O   0  0  0  0  0  0
  -22.3535  -14.5539   20.6692 O   0  0  0  0  0  0
  -24.6175  -31.8666   23.2088 C   0  0  0  0  0  0
  -25.9058  -32.4819   23.8392 C   0  0  1  0  0  0
  -27.2249  -27.4126   20.1005 C   0  0  0  0  0  0
  -25.5900  -33.8615   24.2323 N   0  0  0  0  0  0
  -23.4075  -30.4907   21.5499 C   0  0  2  0  0  0
  -24.8542  -28.9617   20.1076 C   0  0  0  0  0  0
  -22.7431  -29.4653   22.4974 C   0  0  0  0  0  0
  -18.0273  -28.1387   22.8488 C   0  0  0  0  0  0
  -24.1479  -36.7308   23.2631 C   0  0  0  0  0  0
  -25.9393  -30.8266   21.3664 C   0  0  0  0  0  0
  -26.0177  -29.4625   20.7078 C   0  0  0  0  0  0
  -27.2105  -28.6956   20.7010 C   0  0  0  0  0  0
  -26.0507  -26.9457   19.4703 C   0  0  0  0  0  0
  -24.8679  -27.7044   19.4825 C   0  0  0  0  0  0
  -23.6159  -29.8274   20.1633 C   0  0  0  0  0  0
  -25.4100  -36.3106   24.0334 C   0  0  1  0  0  0
  -20.5868  -28.3680   23.1309 C   0  0  2  0  0  0
  -20.6763  -26.9414   22.5413 C   0  0  0  0  0  0
  -19.5740  -26.6394   21.5213 C   0  0  0  0  0  0
  -18.1916  -26.7933   22.1620 C   0  0  0  0  0  0
  -19.1524  -28.8848   23.2894 C   0  0  0  0  0  0
  -18.9455  -30.1449   23.8910 C   0  0  0  0  0  0
  -17.6459  -30.6591   24.0568 C   0  0  0  0  0  0
  -25.9041  -34.9475   23.5130 C   0  0  0  0  0  0
  -16.5348  -29.9094   23.6334 C   0  0  0  0  0  0
  -16.7263  -28.6512   23.0352 C   0  0  0  0  0  0
  -26.4480  -31.6599   25.0732 C   0  0  0  0  0  0
  -25.3739  -31.3715   26.1480 C   0  0  0  0  0  0
  -27.0319  -30.3037   24.6128 C   0  0  0  0  0  0
  -27.6059  -32.4323   25.7489 C   0  0  0  0  0  0
  -27.5589  -37.1783   24.8450 C   0  0  0  0  0  0
  -21.4151  -29.3042   22.3713 N   0  0  0  0  0  0
  -26.4275  -37.3803   23.9435 N   0  0  0  0  0  0
  -24.6729  -31.0750   22.0999 N   0  0  0  0  0  0
  -23.4188  -28.8193   23.3025 O   0  0  0  0  0  0
  -28.3288  -26.5836   20.1619 O   0  0  0  0  0  0
  -26.5603  -34.8927   22.4694 O   0  0  0  0  0  0
  -23.5357  -32.1424   23.7463 O   0  0  0  0  0  0
  -31.4634  -19.5344   21.7675 C   0  0  0  0  0  0
  -31.9083  -17.1515   21.5577 C   0  0  0  0  0  0
  -30.0882  -19.3202   21.5357 C   0  0  0  0  0  0
  -29.6258  -17.9871   21.2547 C   0  0  0  0  0  0
  -30.5416  -16.8874   21.2876 C   0  0  0  0  0  0
  -32.3660  -18.4615   21.7740 C   0  0  0  0  0  0
  -29.2082  -20.4960   21.7471 C   0  0  0  0  0  0
  -29.0236  -24.2039   20.7459 C   0  0  0  0  0  0
  -28.1662  -17.7043   20.9021 C   0  0  0  0  0  0
  -29.3742  -23.4176   23.1281 C   0  0  0  0  0  0
  -28.0245  -25.3781   20.9103 C   0  0  0  0  0  0
  -28.8348  -23.0149   21.7357 C   0  0  2  0  0  0
  -30.0717  -15.5314   21.1139 N   0  0  0  0  0  0
  -29.4878  -21.7432   21.2904 N   0  0  0  0  0  0
  -28.1331  -20.3407   22.5203 N   0  3  0  0  0  0
  -29.9059  -24.2157   19.8817 O   0  0  0  0  0  0
  -33.6782  -18.6883   22.0269 F   0  0  0  0  0  0
  -31.4609  -12.3997   19.1211 H   0  0  0  0  0  0
  -30.3095  -11.3124   19.8391 H   0  0  0  0  0  0
  -29.7313  -11.7725   17.4358 H   0  0  0  0  0  0
  -29.6589  -13.4866   17.7628 H   0  0  0  0  0  0
  -27.8265  -11.3104   18.8263 H   0  0  0  0  0  0
  -27.3628  -12.6331   17.7894 H   0  0  0  0  0  0
  -27.6927  -14.2595   19.5582 H   0  0  0  0  0  0
  -28.6828  -12.0048   21.3681 H   0  0  0  0  0  0
  -28.4687  -13.6595   21.8544 H   0  0  0  0  0  0
  -25.2763   -9.5685   22.4750 H   0  0  0  0  0  0
  -23.9998   -7.4640   22.7472 H   0  0  0  0  0  0
  -21.0841   -8.8774   19.8951 H   0  0  0  0  0  0
  -22.3698  -10.9671   19.6155 H   0  0  0  0  0  0
  -21.2007   -7.6147   23.9711 H   0  0  0  0  0  0
  -21.1480   -6.0520   25.9072 H   0  0  0  0  0  0
  -22.0601   -2.7610   23.2843 H   0  0  0  0  0  0
  -22.4089  -11.9878   22.4787 H   0  0  0  0  0  0
  -21.1097  -13.1243   22.2584 H   0  0  0  0  0  0
  -24.6541  -15.8400   20.5032 H   0  0  0  0  0  0
  -26.2638  -15.6220   20.0416 H   0  0  0  0  0  0
  -26.7137  -32.5524   23.1161 H   0  0  0  0  0  0
  -25.0050  -33.9779   25.0467 H   0  0  0  0  0  0
  -22.6974  -31.3081   21.4111 H   0  0  0  0  0  0
  -23.3756  -35.9622   23.3264 H   0  0  0  0  0  0
  -24.3588  -36.8967   22.2055 H   0  0  0  0  0  0
  -23.7208  -37.6490   23.6671 H   0  0  0  0  0  0
  -26.0551  -31.5936   20.5996 H   0  0  0  0  0  0
  -26.8254  -30.8787   21.9870 H   0  0  0  0  0  0
  -28.1037  -29.0667   21.1844 H   0  0  0  0  0  0
  -26.0407  -25.9810   18.9829 H   0  0  0  0  0  0
  -23.9757  -27.3172   19.0099 H   0  0  0  0  0  0
  -23.7188  -30.6042   19.4045 H   0  0  0  0  0  0
  -22.7402  -29.2464   19.8692 H   0  0  0  0  0  0
  -25.1262  -36.1958   25.0822 H   0  0  0  0  0  0
  -20.9960  -28.3252   24.1431 H   0  0  0  0  0  0
  -20.5679  -26.2286   23.3601 H   0  0  0  0  0  0
  -21.6630  -26.7460   22.1195 H   0  0  0  0  0  0
  -19.6908  -25.6312   21.1226 H   0  0  0  0  0  0
  -19.6681  -27.3216   20.6754 H   0  0  0  0  0  0
  -17.4187  -26.6684   21.4023 H   0  0  0  0  0  0
  -18.0316  -26.0074   22.9015 H   0  0  0  0  0  0
  -19.7932  -30.7255   24.2287 H   0  0  0  0  0  0
  -17.5015  -31.6273   24.5164 H   0  0  0  0  0  0
  -15.5347  -30.2999   23.7661 H   0  0  0  0  0  0
  -15.8658  -28.0836   22.7068 H   0  0  0  0  0  0
  -24.5905  -30.7075   25.7815 H   0  0  0  0  0  0
  -24.8934  -32.2871   26.4937 H   0  0  0  0  0  0
  -25.8077  -30.8872   27.0236 H   0  0  0  0  0  0
  -26.2871  -29.6795   24.1179 H   0  0  0  0  0  0
  -27.4083  -29.7286   25.4598 H   0  0  0  0  0  0
  -27.8709  -30.4355   23.9292 H   0  0  0  0  0  0
  -27.2694  -33.3632   26.2066 H   0  0  0  0  0  0
  -28.3865  -32.6875   25.0311 H   0  0  0  0  0  0
  -28.0727  -31.8445   26.5403 H   0  0  0  0  0  0
  -28.2540  -38.0145   24.7601 H   0  0  0  0  0  0
  -28.1149  -36.2686   24.6130 H   0  0  0  0  0  0
  -27.2326  -37.1267   25.8850 H   0  0  0  0  0  0
  -20.9309  -29.8772   21.6945 H   0  0  0  0  0  0
  -26.0159  -38.2866   24.1503 H   0  0  0  0  0  0
  -31.8381  -20.5217   21.9990 H   0  0  0  0  0  0
  -32.6353  -16.3573   21.6195 H   0  0  0  0  0  0
  -27.6522  -18.5805   20.5077 H   0  0  0  0  0  0
  -27.6183  -17.3432   21.7727 H   0  0  0  0  0  0
  -28.0965  -16.9483   20.1195 H   0  0  0  0  0  0
  -29.1840  -24.4624   23.3743 H   0  0  0  0  0  0
  -30.4521  -23.2643   23.1983 H   0  0  0  0  0  0
  -28.9075  -22.8244   23.9150 H   0  0  0  0  0  0
  -27.9597  -25.6438   21.9651 H   0  0  0  0  0  0
  -27.0478  -24.9765   20.6429 H   0  0  0  0  0  0
  -27.7606  -22.8416   21.8144 H   0  0  0  0  0  0
  -29.1106  -15.3510   21.3576 H   0  0  0  0  0  0
  -30.2264  -21.8382   20.6007 H   0  0  0  0  0  0
  -27.9696  -19.4492   22.9613 H   0  0  0  0  0  0
  -27.5240  -21.1107   22.7337 H   0  0  0  0  0  0
  1 25  1  0  0  0
  1 30  2  0  0  0
  1 83  1  0  0  0
  2  3  1  0  0  0
  2 25  1  0  0  0
  2 88  1  0  0  0
  2 89  1  0  0  0
  3  4  1  0  0  0
  3 90  1  0  0  0
  3 91  1  0  0  0
  4  5  1  0  0  0
  4 92  1  0  0  0
  4 93  1  0  0  0
  5  6  1  0  0  0
  5 26  1  0  0  0
  5 94  1  0  0  0
  6 25  1  0  0  0
  6 95  1  0  0  0
  6 96  1  0  0  0
  7  8  2  0  0  0
  7 26  1  0  0  0
  7 29  1  0  0  0
  8  9  1  0  0  0
  8 22  1  0  0  0
  9 10  1  0  0  0
  9 27  2  0  0  0
 10 11  2  0  0  0
 10 15  1  0  0  0
 11 12  1  0  0  0
 11 97  1  0  0  0
 12 13  2  0  0  0
 12 98  1  0  0  0
 13 14  1  0  0  0
 13 31  1  0  0  0
 14 15  2  0  0  0
 14 99  1  0  0  0
 15100  1  0  0  0
 16 17  2  0  0  0
 16 21  1  0  0  0
 16 31  1  0  0  0
 17 18  1  0  0  0
 17101  1  0  0  0
 18 19  2  0  0  0
 18102  1  0  0  0
 19 20  1  0  0  0
 19 24  1  0  0  0
 20 21  2  0  0  0
 20103  1  0  0  0
 21 23  1  0  0  0
 22 28  1  0  0  0
 22 32  2  0  0  0
 26 27  1  0  0  0
 28104  1  0  0  0
 28105  1  0  0  0
 29106  1  0  0  0
 29107  1  0  0  0
 33 34  1  0  0  0
 33 66  1  0  0  0
 33 70  2  0  0  0
 34 36  1  0  0  0
 34 59  1  0  0  0
 34108  1  0  0  0
 35 44  2  0  0  0
 35 45  1  0  0  0
 35 68  1  0  0  0
 36 56  1  0  0  0
 36109  1  0  0  0
 37 39  1  0  0  0
 37 47  1  0  0  0
 37 66  1  0  0  0
 37110  1  0  0  0
 38 43  2  0  0  0
 38 46  1  0  0  0
 38 47  1  0  0  0
 39 64  1  0  0  0
 39 67  2  0  0  0
 40 52  1  0  0  0
 40 53  2  0  0  0
 40 58  1  0  0  0
 41111  1  0  0  0
 41112  1  0  0  0
 41113  1  0  0  0
 41 48  1  0  0  0
 42 43  1  0  0  0
 42 66  1  0  0  0
 42114  1  0  0  0
 42115  1  0  0  0
 43 44  1  0  0  0
 44116  1  0  0  0
 45 46  2  0  0  0
 45117  1  0  0  0
 46118  1  0  0  0
 47119  1  0  0  0
 47120  1  0  0  0
 48 56  1  0  0  0
 48 65  1  0  0  0
 48121  1  0  0  0
 49 50  1  0  0  0
 49 53  1  0  0  0
 49 64  1  0  0  0
 49122  1  0  0  0
 50 51  1  0  0  0
 50123  1  0  0  0
 50124  1  0  0  0
 51 52  1  0  0  0
 51125  1  0  0  0
 51126  1  0  0  0
 52127  1  0  0  0
 52128  1  0  0  0
 53 54  1  0  0  0
 54 55  2  0  0  0
 54129  1  0  0  0
 55 57  1  0  0  0
 55130  1  0  0  0
 56 69  2  0  0  0
 57 58  2  0  0  0
 57131  1  0  0  0
 58132  1  0  0  0
 59 60  1  0  0  0
 59 61  1  0  0  0
 59 62  1  0  0  0
 60133  1  0  0  0
 60134  1  0  0  0
 60135  1  0  0  0
 61136  1  0  0  0
 61137  1  0  0  0
 61138  1  0  0  0
 62139  1  0  0  0
 62140  1  0  0  0
 62141  1  0  0  0
 63 65  1  0  0  0
 63142  1  0  0  0
 63143  1  0  0  0
 63144  1  0  0  0
 64145  1  0  0  0
 65146  1  0  0  0
 68 81  1  0  0  0
 71 73  2  0  0  0
 71 76  1  0  0  0
 71147  1  0  0  0
 72 75  1  0  0  0
 72 76  2  0  0  0
 72148  1  0  0  0
 73 74  1  0  0  0
 73 77  1  0  0  0
 74 75  2  0  0  0
 74 79  1  0  0  0
 75 83  1  0  0  0
 76 87  1  0  0  0
 77 84  1  0  0  0
 77 85  2  0  0  0
 78 81  1  0  0  0
 78 82  1  0  0  0
 78 86  2  0  0  0
 79149  1  0  0  0
 79150  1  0  0  0
 79151  1  0  0  0
 80152  1  0  0  0
 80153  1  0  0  0
 80154  1  0  0  0
 80 82  1  0  0  0
 81155  1  0  0  0
 81156  1  0  0  0
 82 84  1  0  0  0
 82157  1  0  0  0
 83158  1  0  0  0
 84159  1  0  0  0
 85160  1  0  0  0
 85161  1  0  0  0
M  CHG  1  85   1
M  ISO  4   1 100  68 101  81 101  83 100
M  END
> <chiral flag>
0

> <version>
0

> <s_m_source_file>
/data/baiqing/PycharmProjects/Reinvent-master-3.2/result/LINK_invent/BTK/process_docking_weight1_custom_product_contain_oxygen_bond_distance_aromatic_linkinvent_7_9_3/rearranged_h_0165.sdf

> <i_m_source_file_index>
68

> <r_mmod_Potential_Energy-OPLS-2005>
-273.757781982422

> <r_mmod_Stretch_Energy-OPLS-2005>
49.157543182373

> <r_mmod_Bend_Energy-OPLS-2005>
102.787117004395

> <r_mmod_Torsional_Energy-OPLS-2005>
243.614669799805

> <r_mmod_Improper_Torsional_Energy-OPLS-2005>
5.07849168777466

> <r_mmod_Van_der_Waal_Energy-OPLS-2005>
163.520355224609

> <r_mmod_Electrostatic_Energy-OPLS-2005>
-406.059692382812

> <r_mmod_Solvation_Energy-OPLS-2005>
-451.508270263672

> <b_mmod_Minimization_Converged-OPLS-2005>
0

> <r_mmod_RMS_Derivative-OPLS-2005>
1.09720480442047

$$$$
69
                    3D
 Structure written by MMmdl.
163172  0  0  1  0            999 V2000
  -30.3151  -14.8329   19.9016 C   0  0  0  0  0  0
  -30.8723  -12.4921   19.3030 C   0  0  0  0  0  0
  -29.8325  -12.1215   18.2280 C   0  0  0  0  0  0
  -28.5569  -11.7462   18.9911 C   0  0  0  0  0  0
  -28.3061  -12.8895   20.0837 C   0  0  2  0  0  0
  -29.3520  -12.9613   21.1022 C   0  0  0  0  0  0
  -25.1713  -13.9936   20.5860 C   0  0  0  0  0  0
  -23.8918  -13.3905   21.1387 C   0  0  0  0  0  0
  -23.9936  -12.3002   20.4205 C   0  0  0  0  0  0
  -23.7148  -10.7781   20.8450 C   0  0  0  0  0  0
  -24.2391   -9.8236   21.8153 C   0  0  0  0  0  0
  -23.6497   -8.5231   22.0379 C   0  0  0  0  0  0
  -22.4773   -8.1359   21.3371 C   0  0  0  0  0  0
  -21.9825   -9.0429   20.3917 C   0  0  0  0  0  0
  -22.5893  -10.2918   20.1545 C   0  0  0  0  0  0
  -21.7598   -6.1167   22.5288 C   0  0  0  0  0  0
  -21.4547   -6.5965   23.8211 C   0  0  0  0  0  0
  -21.3799   -5.7012   24.9102 C   0  0  0  0  0  0
  -21.6019   -4.3245   24.7138 C   0  0  0  0  0  0
  -21.8770   -3.8380   23.4247 C   0  0  0  0  0  0
  -21.9444   -4.7282   22.3370 C   0  0  0  0  0  0
  -22.4762  -13.8363   21.3069 C   0  0  0  0  0  0
  -22.1789   -4.2405   21.0944 F   0  0  0  0  0  0
  -21.5462   -3.4675   25.7609 F   0  0  0  0  0  0
  -30.3017  -13.5083   20.2138 N   0  0  0  0  0  0
  -26.7565  -13.9019   20.7171 N   0  0  0  0  0  0
  -24.8714  -13.5059   20.5129 N   0  0  0  0  0  0
  -21.7560  -13.0361   22.0870 N   0  0  0  0  0  0
  -26.9494  -14.3429   20.9524 N   0  0  0  0  0  0
  -31.4598  -15.2970   19.9447 O   0  0  0  0  0  0
  -21.7866   -6.9351   21.4224 O   0  0  0  0  0  0
  -22.0569  -14.8122   20.7066 O   0  0  0  0  0  0
  -24.6886  -31.7971   23.1597 C   0  0  0  0  0  0
  -25.9497  -32.4404   23.8079 C   0  0  1  0  0  0
  -26.8282  -26.4962   20.2910 C   0  0  0  0  0  0
  -25.6090  -33.8250   24.1943 N   0  0  0  0  0  0
  -23.4952  -30.4295   21.5181 C   0  0  2  0  0  0
  -24.8834  -28.7720   20.0903 C   0  0  0  0  0  0
  -22.7713  -29.4356   22.4671 C   0  0  0  0  0  0
  -18.0329  -28.1416   22.8454 C   0  0  0  0  0  0
  -24.1498  -36.7104   23.2648 C   0  0  0  0  0  0
  -26.0791  -30.4547   21.4523 C   0  0  0  0  0  0
  -26.0678  -29.0144   20.7941 C   0  0  0  0  0  0
  -27.0576  -27.8931   20.8627 C   0  0  0  0  0  0
  -25.7160  -26.5363   19.4464 C   0  0  0  0  0  0
  -24.7671  -27.5782   19.3727 C   0  0  0  0  0  0
  -23.7331  -29.7776   20.1301 C   0  0  0  0  0  0
  -25.4153  -36.2853   24.0276 C   0  0  1  0  0  0
  -20.5962  -28.3775   23.1129 C   0  0  2  0  0  0
  -20.6799  -26.9435   22.5395 C   0  0  0  0  0  0
  -19.5774  -26.6365   21.5210 C   0  0  0  0  0  0
  -18.1955  -26.7944   22.1615 C   0  0  0  0  0  0
  -19.1596  -28.8917   23.2778 C   0  0  0  0  0  0
  -18.9505  -30.1498   23.8827 C   0  0  0  0  0  0
  -17.6498  -30.6599   24.0551 C   0  0  0  0  0  0
  -25.9167  -34.9252   23.4938 C   0  0  0  0  0  0
  -16.5385  -29.9084   23.6351 C   0  0  0  0  0  0
  -16.7309  -28.6507   23.0366 C   0  0  0  0  0  0
  -26.4635  -31.6486   25.0748 C   0  0  0  0  0  0
  -25.3671  -31.3826   26.1337 C   0  0  0  0  0  0
  -27.0601  -30.2808   24.6776 C   0  0  0  0  0  0
  -27.6059  -32.4384   25.7557 C   0  0  0  0  0  0
  -27.5590  -37.1678   24.8438 C   0  0  0  0  0  0
  -21.4368  -29.3034   22.3439 N   0  0  0  0  0  0
  -26.4245  -37.3653   23.9456 N   0  0  0  0  0  0
  -24.7825  -30.9339   22.0911 N   0  0  0  0  0  0
  -23.4200  -28.7901   23.2946 O   0  0  0  0  0  0
  -27.4378  -25.0639   20.3955 O   0  0  0  0  0  0
  -26.5784  -34.8843   22.4543 O   0  0  0  0  0  0
  -23.5923  -32.1154   23.6534 O   0  0  0  0  0  0
  -26.3042  -11.7799   20.7812 C   0  0  0  0  0  0
  -25.7572  -16.2379   20.6190 C   0  0  0  0  0  0
  -26.2321  -15.0494   18.8357 C   0  0  0  0  0  0
  -25.9067  -13.0372   22.6158 C   0  0  0  0  0  0
  -24.7025  -19.1824   20.3830 C   0  0  0  0  0  0
  -25.0142  -20.8241   20.2935 C   0  0  0  0  0  0
  -26.8910  -19.6922   20.8617 C   0  0  0  0  0  0
  -25.9228  -18.1641   20.4346 C   0  0  1  0  0  0
  -26.5117  -21.4330   20.2967 C   0  0  2  0  0  0
  -24.7380  -12.9287   24.7055 C   0  0  0  0  0  0
  -27.8239  -15.5059   18.4799 C   0  0  0  0  0  0
  -26.6989  -23.4162   20.6863 C   0  0  0  0  0  0
  -26.2550  -12.9096   18.8214 N   0  0  0  0  0  0
  -25.5607  -15.1690   22.4701 N   0  0  0  0  0  0
  -25.8472  -12.4612   23.8891 N   0  0  0  0  0  0
  -29.1222  -15.5731   19.4909 N   0  0  0  0  0  0
  -31.7763  -12.8741   18.8250 H   0  0  0  0  0  0
  -31.1839  -11.6091   19.8634 H   0  0  0  0  0  0
  -30.1835  -11.2736   17.6365 H   0  0  0  0  0  0
  -29.6699  -12.9398   17.5227 H   0  0  0  0  0  0
  -28.7418  -10.8183   19.5349 H   0  0  0  0  0  0
  -27.8365  -11.4356   18.2398 H   0  0  0  0  0  0
  -28.4156  -13.4561   19.2004 H   0  0  0  0  0  0
  -29.6322  -11.9862   21.5012 H   0  0  0  0  0  0
  -29.1532  -13.6331   21.9393 H   0  0  0  0  0  0
  -25.0817  -10.0938   22.4324 H   0  0  0  0  0  0
  -24.0853   -7.8553   22.7687 H   0  0  0  0  0  0
  -21.1060   -8.7751   19.8175 H   0  0  0  0  0  0
  -22.1236  -10.9321   19.4171 H   0  0  0  0  0  0
  -21.2774   -7.6509   23.9785 H   0  0  0  0  0  0
  -21.1542   -6.0733   25.8990 H   0  0  0  0  0  0
  -22.0318   -2.7817   23.2658 H   0  0  0  0  0  0
  -22.1789  -12.2484   22.5545 H   0  0  0  0  0  0
  -20.7801  -13.2376   22.2479 H   0  0  0  0  0  0
  -26.5944  -14.8782   21.7680 H   0  0  0  0  0  0
  -27.4070  -15.0024   20.3409 H   0  0  0  0  0  0
  -26.7540  -32.4752   23.0729 H   0  0  0  0  0  0
  -25.0178  -33.9288   25.0058 H   0  0  0  0  0  0
  -22.8242  -31.2770   21.3601 H   0  0  0  0  0  0
  -23.3831  -35.9354   23.3154 H   0  0  0  0  0  0
  -24.3590  -36.8933   22.2097 H   0  0  0  0  0  0
  -23.7159  -37.6189   23.6834 H   0  0  0  0  0  0
  -26.3315  -31.1684   20.6674 H   0  0  0  0  0  0
  -26.9247  -30.4878   22.1260 H   0  0  0  0  0  0
  -27.9331  -28.0418   21.4779 H   0  0  0  0  0  0
  -25.4794  -25.6342   18.9009 H   0  0  0  0  0  0
  -23.8830  -27.4136   18.7719 H   0  0  0  0  0  0
  -23.9558  -30.5593   19.4030 H   0  0  0  0  0  0
  -22.8164  -29.3025   19.7759 H   0  0  0  0  0  0
  -25.1346  -36.1583   25.0757 H   0  0  0  0  0  0
  -21.0053  -28.3405   24.1250 H   0  0  0  0  0  0
  -20.5662  -26.2398   23.3655 H   0  0  0  0  0  0
  -21.6658  -26.7380   22.1206 H   0  0  0  0  0  0
  -19.6925  -25.6256   21.1285 H   0  0  0  0  0  0
  -19.6713  -27.3137   20.6708 H   0  0  0  0  0  0
  -17.4221  -26.6685   21.4020 H   0  0  0  0  0  0
  -18.0342  -26.0104   22.9028 H   0  0  0  0  0  0
  -19.7979  -30.7330   24.2167 H   0  0  0  0  0  0
  -17.5050  -31.6271   24.5167 H   0  0  0  0  0  0
  -15.5383  -30.2968   23.7715 H   0  0  0  0  0  0
  -15.8707  -28.0805   22.7121 H   0  0  0  0  0  0
  -24.5919  -30.7099   25.7644 H   0  0  0  0  0  0
  -24.8790  -32.3046   26.4506 H   0  0  0  0  0  0
  -25.7835  -30.9177   27.0282 H   0  0  0  0  0  0
  -26.3325  -29.6325   24.1888 H   0  0  0  0  0  0
  -27.4057  -29.7368   25.5579 H   0  0  0  0  0  0
  -27.9300  -30.3891   24.0294 H   0  0  0  0  0  0
  -27.2561  -33.3720   26.1974 H   0  0  0  0  0  0
  -28.3937  -32.6900   25.0445 H   0  0  0  0  0  0
  -28.0670  -31.8653   26.5610 H   0  0  0  0  0  0
  -28.2435  -38.0139   24.7699 H   0  0  0  0  0  0
  -28.1255  -36.2681   24.5985 H   0  0  0  0  0  0
  -27.2350  -37.0963   25.8836 H   0  0  0  0  0  0
  -20.9636  -29.8744   21.6576 H   0  0  0  0  0  0
  -26.0047  -38.2655   24.1617 H   0  0  0  0  0  0
  -26.4843  -10.7149   20.7811 H   0  0  0  0  0  0
  -24.0502  -18.9010   19.5554 H   0  0  0  0  0  0
  -24.1055  -19.0114   21.2796 H   0  0  0  0  0  0
  -24.4977  -21.2781   21.1410 H   0  0  0  0  0  0
  -24.4931  -21.2241   19.4229 H   0  0  0  0  0  0
  -27.9344  -19.4957   20.6141 H   0  0  0  0  0  0
  -26.8898  -19.7340   21.9524 H   0  0  0  0  0  0
  -26.2209  -18.0937   19.3884 H   0  0  0  0  0  0
  -26.8356  -21.4040   19.2555 H   0  0  0  0  0  0
  -24.9906  -12.8671   25.7642 H   0  0  0  0  0  0
  -23.8609  -12.3023   24.5379 H   0  0  0  0  0  0
  -24.4606  -13.9598   24.4857 H   0  0  0  0  0  0
  -27.7320  -16.5197   18.0897 H   0  0  0  0  0  0
  -28.1257  -14.9240   17.6083 H   0  0  0  0  0  0
  -26.7140  -23.4080   21.7765 H   0  0  0  0  0  0
  -25.6726  -23.7089   20.4666 H   0  0  0  0  0  0
  -26.0025  -11.4579   23.8985 H   0  0  0  0  0  0
  -29.3527  -16.5490   19.6081 H   0  0  0  0  0  0
  1 25  1  0  0  0
  1 30  2  0  0  0
  1 86  1  0  0  0
  2  3  1  0  0  0
  2 25  1  0  0  0
  2 87  1  0  0  0
  2 88  1  0  0  0
  3  4  1  0  0  0
  3 89  1  0  0  0
  3 90  1  0  0  0
  4  5  1  0  0  0
  4 91  1  0  0  0
  4 92  1  0  0  0
  5  6  1  0  0  0
  5 26  1  0  0  0
  5 93  1  0  0  0
  6 25  1  0  0  0
  6 94  1  0  0  0
  6 95  1  0  0  0
  7  8  2  0  0  0
  7 26  1  0  0  0
  7 29  1  0  0  0
  8  9  1  0  0  0
  8 22  1  0  0  0
  9 10  1  0  0  0
  9 27  2  0  0  0
 10 11  2  0  0  0
 10 15  1  0  0  0
 11 12  1  0  0  0
 11 96  1  0  0  0
 12 13  2  0  0  0
 12 97  1  0  0  0
 13 14  1  0  0  0
 13 31  1  0  0  0
 14 15  2  0  0  0
 14 98  1  0  0  0
 15 99  1  0  0  0
 16 17  2  0  0  0
 16 21  1  0  0  0
 16 31  1  0  0  0
 17 18  1  0  0  0
 17100  1  0  0  0
 18 19  2  0  0  0
 18101  1  0  0  0
 19 20  1  0  0  0
 19 24  1  0  0  0
 20 21  2  0  0  0
 20102  1  0  0  0
 21 23  1  0  0  0
 22 28  1  0  0  0
 22 32  2  0  0  0
 26 27  1  0  0  0
 28103  1  0  0  0
 28104  1  0  0  0
 29105  1  0  0  0
 29106  1  0  0  0
 33 34  1  0  0  0
 33 66  1  0  0  0
 33 70  2  0  0  0
 34 36  1  0  0  0
 34 59  1  0  0  0
 34107  1  0  0  0
 35 44  2  0  0  0
 35 45  1  0  0  0
 35 68  1  0  0  0
 36 56  1  0  0  0
 36108  1  0  0  0
 37 39  1  0  0  0
 37 47  1  0  0  0
 37 66  1  0  0  0
 37109  1  0  0  0
 38 43  2  0  0  0
 38 46  1  0  0  0
 38 47  1  0  0  0
 39 64  1  0  0  0
 39 67  2  0  0  0
 40 52  1  0  0  0
 40 53  2  0  0  0
 40 58  1  0  0  0
 41110  1  0  0  0
 41111  1  0  0  0
 41112  1  0  0  0
 41 48  1  0  0  0
 42 43  1  0  0  0
 42 66  1  0  0  0
 42113  1  0  0  0
 42114  1  0  0  0
 43 44  1  0  0  0
 44115  1  0  0  0
 45 46  2  0  0  0
 45116  1  0  0  0
 46117  1  0  0  0
 47118  1  0  0  0
 47119  1  0  0  0
 48 56  1  0  0  0
 48 65  1  0  0  0
 48120  1  0  0  0
 49 50  1  0  0  0
 49 53  1  0  0  0
 49 64  1  0  0  0
 49121  1  0  0  0
 50 51  1  0  0  0
 50122  1  0  0  0
 50123  1  0  0  0
 51 52  1  0  0  0
 51124  1  0  0  0
 51125  1  0  0  0
 52126  1  0  0  0
 52127  1  0  0  0
 53 54  1  0  0  0
 54 55  2  0  0  0
 54128  1  0  0  0
 55 57  1  0  0  0
 55129  1  0  0  0
 56 69  2  0  0  0
 57 58  2  0  0  0
 57130  1  0  0  0
 58131  1  0  0  0
 59 60  1  0  0  0
 59 61  1  0  0  0
 59 62  1  0  0  0
 60132  1  0  0  0
 60133  1  0  0  0
 60134  1  0  0  0
 61135  1  0  0  0
 61136  1  0  0  0
 61137  1  0  0  0
 62138  1  0  0  0
 62139  1  0  0  0
 62140  1  0  0  0
 63 65  1  0  0  0
 63141  1  0  0  0
 63142  1  0  0  0
 63143  1  0  0  0
 64144  1  0  0  0
 65145  1  0  0  0
 68 82  1  0  0  0
 71 74  2  0  0  0
 71 83  1  0  0  0
 71146  1  0  0  0
 72 73  1  0  0  0
 72 84  2  0  0  0
 72 78  1  0  0  0
 73 81  1  0  0  0
 73 83  2  0  0  0
 74 84  1  0  0  0
 74 85  1  0  0  0
 75 76  1  0  0  0
 75 78  1  0  0  0
 75147  1  0  0  0
 75148  1  0  0  0
 76 79  1  0  0  0
 76149  1  0  0  0
 76150  1  0  0  0
 77 78  1  0  0  0
 77 79  1  0  0  0
 77151  1  0  0  0
 77152  1  0  0  0
 78153  1  0  0  0
 79 82  1  0  0  0
 79154  1  0  0  0
 80 85  1  0  0  0
 80155  1  0  0  0
 80156  1  0  0  0
 80157  1  0  0  0
 81 86  1  0  0  0
 81158  1  0  0  0
 81159  1  0  0  0
 82160  1  0  0  0
 82161  1  0  0  0
 85162  1  0  0  0
 86163  1  0  0  0
M  ISO  4   1 100  68 101  82 101  86 100
M  END
> <chiral flag>
0

> <version>
0

> <s_m_source_file>
/data/baiqing/PycharmProjects/Reinvent-master-3.2/result/LINK_invent/BTK/process_docking_weight1_custom_product_contain_oxygen_bond_distance_aromatic_linkinvent_7_9_3/rearranged_h_0165.sdf

> <i_m_source_file_index>
69

> <r_mmod_Potential_Energy-OPLS-2005>
21991.8046875

> <r_mmod_Stretch_Energy-OPLS-2005>
11328.4912109375

> <r_mmod_Bend_Energy-OPLS-2005>
3559.28881835938

> <r_mmod_Torsional_Energy-OPLS-2005>
701.670776367188

> <r_mmod_Improper_Torsional_Energy-OPLS-2005>
141.980377197266

> <r_mmod_Van_der_Waal_Energy-OPLS-2005>
4643.7841796875

> <r_mmod_Electrostatic_Energy-OPLS-2005>
-404.600067138672

> <r_mmod_Solvation_Energy-OPLS-2005>
-250.770523071289

> <b_mmod_Minimization_Converged-OPLS-2005>
0

> <r_mmod_RMS_Derivative-OPLS-2005>
2.7707986831665

$$$$
70
                    3D
 Structure written by MMmdl.
162171  0  0  1  0            999 V2000
  -30.6159  -14.5717   20.5112 C   0  0  0  0  0  0
  -30.4488  -12.3513   19.4207 C   0  0  0  0  0  0
  -29.5017  -12.4798   18.2061 C   0  0  0  0  0  0
  -28.0235  -12.3255   18.6269 C   0  0  0  0  0  0
  -27.6549  -13.1918   19.8594 C   0  0  2  0  0  0
  -28.7051  -13.0112   20.9800 C   0  0  0  0  0  0
  -25.2589  -13.8129   20.5659 C   0  0  0  0  0  0
  -24.1836  -13.0436   20.9191 C   0  0  0  0  0  0
  -24.6366  -11.6895   20.8759 C   0  0  0  0  0  0
  -23.9037  -10.4292   21.0433 C   0  0  0  0  0  0
  -24.3592   -9.4207   21.9208 C   0  0  0  0  0  0
  -23.6269   -8.2243   22.0767 C   0  0  0  0  0  0
  -22.4259   -8.0281   21.3549 C   0  0  0  0  0  0
  -21.9892   -9.0261   20.4653 C   0  0  0  0  0  0
  -22.7216  -10.2142   20.3070 C   0  0  0  0  0  0
  -21.6840   -6.0730   22.5276 C   0  0  0  0  0  0
  -21.4007   -6.5634   23.8209 C   0  0  0  0  0  0
  -21.3656   -5.6786   24.9169 C   0  0  0  0  0  0
  -21.6044   -4.3050   24.7218 C   0  0  0  0  0  0
  -21.8823   -3.8144   23.4338 C   0  0  0  0  0  0
  -21.9191   -4.6960   22.3395 C   0  0  0  0  0  0
  -22.7858  -13.5252   21.1842 C   0  0  0  0  0  0
  -22.1660   -4.2151   21.0966 F   0  0  0  0  0  0
  -21.5633   -3.4531   25.7728 F   0  0  0  0  0  0
  -30.0201  -13.3488   20.4118 N   0  0  0  0  0  0
  -26.2990  -12.9246   20.3306 N   0  0  0  0  0  0
  -25.9287  -11.6435   20.5777 N   0  0  0  0  0  0
  -22.0460  -12.8282   22.0386 N   0  0  0  0  0  0
  -25.4354  -15.1844   20.4018 N   0  0  0  0  0  0
  -31.7986  -14.7637   20.2093 O   0  0  0  0  0  0
  -21.6625   -6.8879   21.4239 O   0  0  0  0  0  0
  -22.3583  -14.5573   20.6689 O   0  0  0  0  0  0
  -24.6176  -31.8661   23.2067 C   0  0  0  0  0  0
  -25.9054  -32.4814   23.8384 C   0  0  1  0  0  0
  -27.2371  -27.3862   20.1169 C   0  0  0  0  0  0
  -25.5898  -33.8612   24.2312 N   0  0  0  0  0  0
  -23.4107  -30.4848   21.5483 C   0  0  2  0  0  0
  -24.8603  -28.9361   20.1236 C   0  0  0  0  0  0
  -22.7451  -29.4641   22.4988 C   0  0  0  0  0  0
  -18.0291  -28.1365   22.8480 C   0  0  0  0  0  0
  -24.1496  -36.7296   23.2636 C   0  0  0  0  0  0
  -25.9436  -30.8128   21.3697 C   0  0  0  0  0  0
  -26.0229  -29.4412   20.7215 C   0  0  0  0  0  0
  -27.2179  -28.6771   20.7085 C   0  0  0  0  0  0
  -26.0572  -26.8999   19.5219 C   0  0  0  0  0  0
  -24.8745  -27.6655   19.5209 C   0  0  0  0  0  0
  -23.6246  -29.8099   20.1659 C   0  0  0  0  0  0
  -25.4123  -36.3108   24.0332 C   0  0  1  0  0  0
  -20.5887  -28.3656   23.1299 C   0  0  2  0  0  0
  -20.6792  -26.9382   22.5414 C   0  0  0  0  0  0
  -19.5770  -26.6381   21.5197 C   0  0  0  0  0  0
  -18.1944  -26.7911   22.1602 C   0  0  0  0  0  0
  -19.1539  -28.8827   23.2885 C   0  0  0  0  0  0
  -18.9465  -30.1436   23.8892 C   0  0  0  0  0  0
  -17.6461  -30.6562   24.0554 C   0  0  0  0  0  0
  -25.9045  -34.9468   23.5124 C   0  0  0  0  0  0
  -16.5356  -29.9067   23.6311 C   0  0  0  0  0  0
  -16.7282  -28.6492   23.0325 C   0  0  0  0  0  0
  -26.4464  -31.6612   25.0724 C   0  0  0  0  0  0
  -25.3698  -31.3719   26.1437 C   0  0  0  0  0  0
  -27.0314  -30.3055   24.6123 C   0  0  0  0  0  0
  -27.6043  -32.4344   25.7460 C   0  0  0  0  0  0
  -27.5597  -37.1807   24.8462 C   0  0  0  0  0  0
  -21.4178  -29.3030   22.3718 N   0  0  0  0  0  0
  -26.4320  -37.3794   23.9396 N   0  0  0  0  0  0
  -24.6758  -31.0718   22.0988 N   0  0  0  0  0  0
  -23.4197  -28.8193   23.3053 O   0  0  0  0  0  0
  -28.3907  -26.6258   20.0411 O   0  0  0  0  0  0
  -26.5601  -34.8914   22.4682 O   0  0  0  0  0  0
  -23.5357  -32.1460   23.7416 O   0  0  0  0  0  0
  -29.2568  -17.8559   23.4775 C   0  0  0  0  0  0
  -29.4058  -19.1108   22.8698 C   0  0  0  0  0  0
  -29.4407  -16.7055   22.6989 C   0  0  0  0  0  0
  -29.7374  -19.1888   21.5045 C   0  0  0  0  0  0
  -29.7714  -16.8149   21.3356 C   0  0  0  0  0  0
  -31.4411  -22.0674   19.4264 C   0  0  0  0  0  0
  -30.9360  -20.6313   19.6687 C   0  0  0  0  0  0
  -30.2778  -23.0792   19.3664 C   0  0  0  0  0  0
  -30.0461  -20.6006   20.9259 C   0  0  1  0  0  0
  -29.3333  -22.9889   20.5922 C   0  0  1  0  0  0
  -28.1797  -24.0654   20.4779 C   0  0  0  0  0  0
  -28.5402  -25.5205   20.9661 C   0  0  0  0  0  0
  -29.8853  -18.0518   20.7468 N   0  0  0  0  0  0
  -29.7144  -15.5800   20.6213 N   0  0  0  0  0  0
  -28.8960  -21.5552   20.7836 N   0  3  0  0  0  0
  -31.4848  -12.4997   19.1093 H   0  0  0  0  0  0
  -30.4030  -11.3492   19.8500 H   0  0  0  0  0  0
  -29.7534  -11.7287   17.4563 H   0  0  0  0  0  0
  -29.6465  -13.4501   17.7279 H   0  0  0  0  0  0
  -27.8538  -11.2726   18.8563 H   0  0  0  0  0  0
  -27.3671  -12.5620   17.7889 H   0  0  0  0  0  0
  -27.6776  -14.2268   19.5199 H   0  0  0  0  0  0
  -28.7104  -11.9800   21.3366 H   0  0  0  0  0  0
  -28.4671  -13.6238   21.8514 H   0  0  0  0  0  0
  -25.2734   -9.5681   22.4790 H   0  0  0  0  0  0
  -23.9974   -7.4631   22.7486 H   0  0  0  0  0  0
  -21.0830   -8.8786   19.8953 H   0  0  0  0  0  0
  -22.3686  -10.9687   19.6184 H   0  0  0  0  0  0
  -21.1998   -7.6141   23.9716 H   0  0  0  0  0  0
  -21.1472   -6.0507   25.9072 H   0  0  0  0  0  0
  -22.0609   -2.7607   23.2829 H   0  0  0  0  0  0
  -22.4002  -11.9906   22.4765 H   0  0  0  0  0  0
  -21.1098  -13.1379   22.2584 H   0  0  0  0  0  0
  -24.6701  -15.8402   20.5107 H   0  0  0  0  0  0
  -26.2707  -15.6185   20.0320 H   0  0  0  0  0  0
  -26.7109  -32.5504   23.1131 H   0  0  0  0  0  0
  -25.0044  -33.9773   25.0448 H   0  0  0  0  0  0
  -22.6996  -31.3008   21.4054 H   0  0  0  0  0  0
  -23.3760  -35.9620   23.3322 H   0  0  0  0  0  0
  -24.3582  -36.8906   22.2049 H   0  0  0  0  0  0
  -23.7248  -37.6500   23.6646 H   0  0  0  0  0  0
  -26.0659  -31.5729   20.5983 H   0  0  0  0  0  0
  -26.8285  -30.8685   21.9928 H   0  0  0  0  0  0
  -28.1229  -29.0732   21.1520 H   0  0  0  0  0  0
  -26.0575  -25.9290   19.0488 H   0  0  0  0  0  0
  -23.9828  -27.2697   19.0556 H   0  0  0  0  0  0
  -23.7399  -30.5824   19.4055 H   0  0  0  0  0  0
  -22.7482  -29.2341   19.8652 H   0  0  0  0  0  0
  -25.1310  -36.1982   25.0831 H   0  0  0  0  0  0
  -20.9964  -28.3225   24.1426 H   0  0  0  0  0  0
  -20.5704  -26.2250   23.3612 H   0  0  0  0  0  0
  -21.6665  -26.7459   22.1196 H   0  0  0  0  0  0
  -19.6938  -25.6291   21.1233 H   0  0  0  0  0  0
  -19.6709  -27.3181   20.6711 H   0  0  0  0  0  0
  -17.4227  -26.6649   21.3988 H   0  0  0  0  0  0
  -18.0350  -26.0040   22.8989 H   0  0  0  0  0  0
  -19.7949  -30.7247   24.2270 H   0  0  0  0  0  0
  -17.5024  -31.6241   24.5152 H   0  0  0  0  0  0
  -15.5355  -30.2958   23.7650 H   0  0  0  0  0  0
  -15.8690  -28.0818   22.7017 H   0  0  0  0  0  0
  -24.5856  -30.7094   25.7750 H   0  0  0  0  0  0
  -24.8863  -32.2870   26.4872 H   0  0  0  0  0  0
  -25.8002  -30.8871   27.0211 H   0  0  0  0  0  0
  -26.2880  -29.6796   24.1163 H   0  0  0  0  0  0
  -27.4085  -29.7301   25.4596 H   0  0  0  0  0  0
  -27.8716  -30.4384   23.9297 H   0  0  0  0  0  0
  -27.2688  -33.3657   26.2023 H   0  0  0  0  0  0
  -28.3834  -32.6902   25.0269 H   0  0  0  0  0  0
  -28.0719  -31.8477   26.5379 H   0  0  0  0  0  0
  -28.2619  -38.0106   24.7542 H   0  0  0  0  0  0
  -28.1118  -36.2648   24.6292 H   0  0  0  0  0  0
  -27.2308  -37.1444   25.8864 H   0  0  0  0  0  0
  -20.9359  -29.8720   21.6897 H   0  0  0  0  0  0
  -26.0213  -38.2871   24.1399 H   0  0  0  0  0  0
  -29.0021  -17.7748   24.5252 H   0  0  0  0  0  0
  -29.2977  -20.0034   23.4714 H   0  0  0  0  0  0
  -29.2952  -15.7373   23.1584 H   0  0  0  0  0  0
  -32.0266  -22.1073   18.5074 H   0  0  0  0  0  0
  -32.1244  -22.3498   20.2300 H   0  0  0  0  0  0
  -31.7915  -19.9666   19.8023 H   0  0  0  0  0  0
  -30.3892  -20.2584   18.8013 H   0  0  0  0  0  0
  -29.7081  -22.9149   18.4497 H   0  0  0  0  0  0
  -30.6806  -24.0899   19.2889 H   0  0  0  0  0  0
  -30.6646  -21.0305   21.7164 H   0  0  0  0  0  0
  -29.9068  -23.2374   21.4878 H   0  0  0  0  0  0
  -27.3274  -23.7339   21.0723 H   0  0  0  0  0  0
  -27.8076  -24.1048   19.4539 H   0  0  0  0  0  0
  -29.5897  -25.5375   21.2608 H   0  0  0  0  0  0
  -27.9982  -25.7406   21.8866 H   0  0  0  0  0  0
  -28.7860  -15.1935   20.6128 H   0  0  0  0  0  0
  -28.3431  -21.4844   21.6226 H   0  0  0  0  0  0
  -28.3232  -21.2468   20.0153 H   0  0  0  0  0  0
  1 25  1  0  0  0
  1 30  2  0  0  0
  1 84  1  0  0  0
  2  3  1  0  0  0
  2 25  1  0  0  0
  2 86  1  0  0  0
  2 87  1  0  0  0
  3  4  1  0  0  0
  3 88  1  0  0  0
  3 89  1  0  0  0
  4  5  1  0  0  0
  4 90  1  0  0  0
  4 91  1  0  0  0
  5  6  1  0  0  0
  5 26  1  0  0  0
  5 92  1  0  0  0
  6 25  1  0  0  0
  6 93  1  0  0  0
  6 94  1  0  0  0
  7  8  2  0  0  0
  7 26  1  0  0  0
  7 29  1  0  0  0
  8  9  1  0  0  0
  8 22  1  0  0  0
  9 10  1  0  0  0
  9 27  2  0  0  0
 10 11  2  0  0  0
 10 15  1  0  0  0
 11 12  1  0  0  0
 11 95  1  0  0  0
 12 13  2  0  0  0
 12 96  1  0  0  0
 13 14  1  0  0  0
 13 31  1  0  0  0
 14 15  2  0  0  0
 14 97  1  0  0  0
 15 98  1  0  0  0
 16 17  2  0  0  0
 16 21  1  0  0  0
 16 31  1  0  0  0
 17 18  1  0  0  0
 17 99  1  0  0  0
 18 19  2  0  0  0
 18100  1  0  0  0
 19 20  1  0  0  0
 19 24  1  0  0  0
 20 21  2  0  0  0
 20101  1  0  0  0
 21 23  1  0  0  0
 22 28  1  0  0  0
 22 32  2  0  0  0
 26 27  1  0  0  0
 28102  1  0  0  0
 28103  1  0  0  0
 29104  1  0  0  0
 29105  1  0  0  0
 33 34  1  0  0  0
 33 66  1  0  0  0
 33 70  2  0  0  0
 34 36  1  0  0  0
 34 59  1  0  0  0
 34106  1  0  0  0
 35 44  2  0  0  0
 35 45  1  0  0  0
 35 68  1  0  0  0
 36 56  1  0  0  0
 36107  1  0  0  0
 37 39  1  0  0  0
 37 47  1  0  0  0
 37 66  1  0  0  0
 37108  1  0  0  0
 38 43  2  0  0  0
 38 46  1  0  0  0
 38 47  1  0  0  0
 39 64  1  0  0  0
 39 67  2  0  0  0
 40 52  1  0  0  0
 40 53  2  0  0  0
 40 58  1  0  0  0
 41109  1  0  0  0
 41110  1  0  0  0
 41111  1  0  0  0
 41 48  1  0  0  0
 42 43  1  0  0  0
 42 66  1  0  0  0
 42112  1  0  0  0
 42113  1  0  0  0
 43 44  1  0  0  0
 44114  1  0  0  0
 45 46  2  0  0  0
 45115  1  0  0  0
 46116  1  0  0  0
 47117  1  0  0  0
 47118  1  0  0  0
 48 56  1  0  0  0
 48 65  1  0  0  0
 48119  1  0  0  0
 49 50  1  0  0  0
 49 53  1  0  0  0
 49 64  1  0  0  0
 49120  1  0  0  0
 50 51  1  0  0  0
 50121  1  0  0  0
 50122  1  0  0  0
 51 52  1  0  0  0
 51123  1  0  0  0
 51124  1  0  0  0
 52125  1  0  0  0
 52126  1  0  0  0
 53 54  1  0  0  0
 54 55  2  0  0  0
 54127  1  0  0  0
 55 57  1  0  0  0
 55128  1  0  0  0
 56 69  2  0  0  0
 57 58  2  0  0  0
 57129  1  0  0  0
 58130  1  0  0  0
 59 60  1  0  0  0
 59 61  1  0  0  0
 59 62  1  0  0  0
 60131  1  0  0  0
 60132  1  0  0  0
 60133  1  0  0  0
 61134  1  0  0  0
 61135  1  0  0  0
 61136  1  0  0  0
 62137  1  0  0  0
 62138  1  0  0  0
 62139  1  0  0  0
 63 65  1  0  0  0
 63140  1  0  0  0
 63141  1  0  0  0
 63142  1  0  0  0
 64143  1  0  0  0
 65144  1  0  0  0
 68 82  1  0  0  0
 71 72  2  0  0  0
 71 73  1  0  0  0
 71145  1  0  0  0
 72 74  1  0  0  0
 72146  1  0  0  0
 73 75  2  0  0  0
 73147  1  0  0  0
 74 83  2  0  0  0
 74 79  1  0  0  0
 75 83  1  0  0  0
 75 84  1  0  0  0
 76 77  1  0  0  0
 76 78  1  0  0  0
 76148  1  0  0  0
 76149  1  0  0  0
 77 79  1  0  0  0
 77150  1  0  0  0
 77151  1  0  0  0
 78 80  1  0  0  0
 78152  1  0  0  0
 78153  1  0  0  0
 79 85  1  0  0  0
 79154  1  0  0  0
 80 81  1  0  0  0
 80 85  1  0  0  0
 80155  1  0  0  0
 81 82  1  0  0  0
 81156  1  0  0  0
 81157  1  0  0  0
 82158  1  0  0  0
 82159  1  0  0  0
 84160  1  0  0  0
 85161  1  0  0  0
 85162  1  0  0  0
M  CHG  1  85   1
M  ISO  4   1 100  68 101  82 101  84 100
M  END
> <chiral flag>
0

> <version>
0

> <s_m_source_file>
/data/baiqing/PycharmProjects/Reinvent-master-3.2/result/LINK_invent/BTK/process_docking_weight1_custom_product_contain_oxygen_bond_distance_aromatic_linkinvent_7_9_3/rearranged_h_0165.sdf

> <i_m_source_file_index>
70

> <r_mmod_Potential_Energy-OPLS-2005>
-287.554962158203

> <r_mmod_Stretch_Energy-OPLS-2005>
54.1298370361328

> <r_mmod_Bend_Energy-OPLS-2005>
131.061813354492

> <r_mmod_Torsional_Energy-OPLS-2005>
320.149047851562

> <r_mmod_Improper_Torsional_Energy-OPLS-2005>
13.6319150924683

> <r_mmod_Van_der_Waal_Energy-OPLS-2005>
144.419906616211

> <r_mmod_Electrostatic_Energy-OPLS-2005>
-501.097473144531

> <r_mmod_Solvation_Energy-OPLS-2005>
-478.142242431641

> <b_mmod_Minimization_Converged-OPLS-2005>
0

> <r_mmod_RMS_Derivative-OPLS-2005>
2.26109409332275

$$$$
71
                    3D
 Structure written by MMmdl.
154162  0  0  1  0            999 V2000
  -30.7107  -14.5148   20.5474 C   0  0  0  0  0  0
  -30.4166  -12.3267   19.4385 C   0  0  0  0  0  0
  -29.4953  -12.4999   18.2142 C   0  0  0  0  0  0
  -28.0180  -12.3564   18.6268 C   0  0  0  0  0  0
  -27.6564  -13.2151   19.8687 C   0  0  2  0  0  0
  -28.6996  -13.0436   20.9972 C   0  0  0  0  0  0
  -25.2566  -13.8176   20.5687 C   0  0  0  0  0  0
  -24.1830  -13.0443   20.9191 C   0  0  0  0  0  0
  -24.6393  -11.6912   20.8740 C   0  0  0  0  0  0
  -23.9062  -10.4294   21.0404 C   0  0  0  0  0  0
  -24.3615   -9.4211   21.9181 C   0  0  0  0  0  0
  -23.6292   -8.2245   22.0751 C   0  0  0  0  0  0
  -22.4275   -8.0281   21.3543 C   0  0  0  0  0  0
  -21.9908   -9.0254   20.4647 C   0  0  0  0  0  0
  -22.7234  -10.2135   20.3053 C   0  0  0  0  0  0
  -21.6854   -6.0734   22.5278 C   0  0  0  0  0  0
  -21.4014   -6.5637   23.8212 C   0  0  0  0  0  0
  -21.3659   -5.6790   24.9175 C   0  0  0  0  0  0
  -21.6044   -4.3054   24.7225 C   0  0  0  0  0  0
  -21.8820   -3.8146   23.4348 C   0  0  0  0  0  0
  -21.9195   -4.6961   22.3403 C   0  0  0  0  0  0
  -22.7851  -13.5235   21.1850 C   0  0  0  0  0  0
  -22.1664   -4.2147   21.0981 F   0  0  0  0  0  0
  -21.5629   -3.4538   25.7739 F   0  0  0  0  0  0
  -30.0260  -13.3404   20.4351 N   0  0  0  0  0  0
  -26.3001  -12.9359   20.3347 N   0  0  0  0  0  0
  -25.9323  -11.6513   20.5766 N   0  0  0  0  0  0
  -22.0492  -12.8227   22.0406 N   0  0  0  0  0  0
  -25.4280  -15.1894   20.4083 N   0  0  0  0  0  0
  -31.8493  -14.6376   20.0907 O   0  0  0  0  0  0
  -21.6640   -6.8877   21.4240 O   0  0  0  0  0  0
  -22.3539  -14.5542   20.6698 O   0  0  0  0  0  0
  -24.6179  -31.8664   23.2091 C   0  0  0  0  0  0
  -25.9060  -32.4816   23.8394 C   0  0  1  0  0  0
  -27.2259  -27.4076   20.1012 C   0  0  0  0  0  0
  -25.5906  -33.8614   24.2324 N   0  0  0  0  0  0
  -23.4080  -30.4913   21.5494 C   0  0  2  0  0  0
  -24.8562  -28.9614   20.1073 C   0  0  0  0  0  0
  -22.7434  -29.4651   22.4963 C   0  0  0  0  0  0
  -18.0278  -28.1379   22.8490 C   0  0  0  0  0  0
  -24.1487  -36.7309   23.2638 C   0  0  0  0  0  0
  -25.9412  -30.8247   21.3680 C   0  0  0  0  0  0
  -26.0197  -29.4596   20.7096 C   0  0  0  0  0  0
  -27.2117  -28.6904   20.7042 C   0  0  0  0  0  0
  -26.0497  -26.9425   19.4735 C   0  0  0  0  0  0
  -24.8677  -27.7036   19.4830 C   0  0  0  0  0  0
  -23.6184  -29.8292   20.1621 C   0  0  0  0  0  0
  -25.4108  -36.3108   24.0338 C   0  0  1  0  0  0
  -20.5873  -28.3672   23.1305 C   0  0  2  0  0  0
  -20.6768  -26.9404   22.5417 C   0  0  0  0  0  0
  -19.5747  -26.6387   21.5212 C   0  0  0  0  0  0
  -18.1925  -26.7926   22.1622 C   0  0  0  0  0  0
  -19.1529  -28.8841   23.2895 C   0  0  0  0  0  0
  -18.9455  -30.1446   23.8908 C   0  0  0  0  0  0
  -17.6458  -30.6585   24.0565 C   0  0  0  0  0  0
  -25.9036  -34.9473   23.5127 C   0  0  0  0  0  0
  -16.5348  -29.9087   23.6327 C   0  0  0  0  0  0
  -16.7267  -28.6504   23.0349 C   0  0  0  0  0  0
  -26.4477  -31.6598   25.0728 C   0  0  0  0  0  0
  -25.3737  -31.3713   26.1474 C   0  0  0  0  0  0
  -27.0305  -30.3034   24.6120 C   0  0  0  0  0  0
  -27.6054  -32.4315   25.7488 C   0  0  0  0  0  0
  -27.5582  -37.1808   24.8464 C   0  0  0  0  0  0
  -21.4156  -29.3036   22.3706 N   0  0  0  0  0  0
  -26.4293  -37.3793   23.9411 N   0  0  0  0  0  0
  -24.6739  -31.0747   22.1002 N   0  0  0  0  0  0
  -23.4193  -28.8185   23.3010 O   0  0  0  0  0  0
  -28.3255  -26.5677   20.1575 O   0  0  0  0  0  0
  -26.5598  -34.8924   22.4689 O   0  0  0  0  0  0
  -23.5363  -32.1424   23.7469 O   0  0  0  0  0  0
  -32.1926  -18.6774   21.3303 C   0  0  0  0  0  0
  -31.2274  -19.7009   21.3500 C   0  0  0  0  0  0
  -31.8065  -17.3279   21.2265 C   0  0  0  0  0  0
  -29.4738  -18.0141   21.1293 C   0  0  0  0  0  0
  -29.8545  -19.3870   21.2587 C   0  0  0  0  0  0
  -30.4404  -16.9645   21.1102 C   0  0  0  0  0  0
  -28.0630  -25.3236   20.7190 C   0  0  0  0  0  0
  -28.8539  -20.4780   21.4042 C   0  0  0  0  0  0
  -28.7275  -24.1621   20.4864 C   0  0  0  0  0  0
  -28.2556  -22.9289   21.1430 C   0  0  0  0  0  0
  -30.0185  -15.5821   21.0244 N   0  0  0  0  0  0
  -29.0634  -21.7408   20.9220 N   0  0  0  0  0  0
  -27.7449  -20.1751   22.0897 N   0  3  0  0  0  0
  -27.2415  -22.8638   21.8505 O   0  0  0  0  0  0
  -29.7883  -24.1213   19.6667 O   0  0  0  0  0  0
  -31.4624  -12.4089   19.1376 H   0  0  0  0  0  0
  -30.3092  -11.3262   19.8605 H   0  0  0  0  0  0
  -29.7425  -11.7628   17.4490 H   0  0  0  0  0  0
  -29.6601  -13.4790   17.7613 H   0  0  0  0  0  0
  -27.8377  -11.3023   18.8413 H   0  0  0  0  0  0
  -27.3663  -12.6108   17.7899 H   0  0  0  0  0  0
  -27.6868  -14.2556   19.5450 H   0  0  0  0  0  0
  -28.6831  -12.0224   21.3810 H   0  0  0  0  0  0
  -28.4608  -13.6825   21.8486 H   0  0  0  0  0  0
  -25.2762   -9.5689   22.4752 H   0  0  0  0  0  0
  -24.0006   -7.4637   22.7468 H   0  0  0  0  0  0
  -21.0840   -8.8773   19.8953 H   0  0  0  0  0  0
  -22.3691  -10.9672   19.6161 H   0  0  0  0  0  0
  -21.2004   -7.6144   23.9714 H   0  0  0  0  0  0
  -21.1479   -6.0521   25.9078 H   0  0  0  0  0  0
  -22.0598   -2.7608   23.2850 H   0  0  0  0  0  0
  -22.4102  -11.9885   22.4793 H   0  0  0  0  0  0
  -21.1109  -13.1254   22.2608 H   0  0  0  0  0  0
  -24.6571  -15.8415   20.5047 H   0  0  0  0  0  0
  -26.2703  -15.6236   20.0531 H   0  0  0  0  0  0
  -26.7133  -32.5523   23.1158 H   0  0  0  0  0  0
  -25.0062  -33.9776   25.0474 H   0  0  0  0  0  0
  -22.6976  -31.3092   21.4114 H   0  0  0  0  0  0
  -23.3748  -35.9644   23.3310 H   0  0  0  0  0  0
  -24.3583  -36.8914   22.2051 H   0  0  0  0  0  0
  -23.7239  -37.6518   23.6645 H   0  0  0  0  0  0
  -26.0601  -31.5929   20.6027 H   0  0  0  0  0  0
  -26.8261  -30.8745   21.9906 H   0  0  0  0  0  0
  -28.1049  -29.0602   21.1879 H   0  0  0  0  0  0
  -26.0401  -25.9719   18.9975 H   0  0  0  0  0  0
  -23.9752  -27.3158   19.0113 H   0  0  0  0  0  0
  -23.7273  -30.6073   19.4057 H   0  0  0  0  0  0
  -22.7418  -29.2514   19.8638 H   0  0  0  0  0  0
  -25.1282  -36.1974   25.0830 H   0  0  0  0  0  0
  -20.9965  -28.3242   24.1426 H   0  0  0  0  0  0
  -20.5671  -26.2278   23.3607 H   0  0  0  0  0  0
  -21.6639  -26.7447   22.1210 H   0  0  0  0  0  0
  -19.6910  -25.6301   21.1234 H   0  0  0  0  0  0
  -19.6687  -27.3203   20.6746 H   0  0  0  0  0  0
  -17.4196  -26.6677   21.4022 H   0  0  0  0  0  0
  -18.0324  -26.0065   22.9015 H   0  0  0  0  0  0
  -19.7932  -30.7257   24.2286 H   0  0  0  0  0  0
  -17.5015  -31.6266   24.5165 H   0  0  0  0  0  0
  -15.5349  -30.2994   23.7645 H   0  0  0  0  0  0
  -15.8666  -28.0827   22.7060 H   0  0  0  0  0  0
  -24.5909  -30.7060   25.7812 H   0  0  0  0  0  0
  -24.8930  -32.2872   26.4919 H   0  0  0  0  0  0
  -25.8089  -30.8885   27.0233 H   0  0  0  0  0  0
  -26.2852  -29.6801   24.1165 H   0  0  0  0  0  0
  -27.4052  -29.7267   25.4587 H   0  0  0  0  0  0
  -27.8700  -30.4340   23.9288 H   0  0  0  0  0  0
  -27.2677  -33.3607   26.2090 H   0  0  0  0  0  0
  -28.3849  -32.6889   25.0304 H   0  0  0  0  0  0
  -28.0738  -31.8424   26.5383 H   0  0  0  0  0  0
  -28.2604  -38.0102   24.7516 H   0  0  0  0  0  0
  -28.1071  -36.2635   24.6279 H   0  0  0  0  0  0
  -27.2304  -37.1451   25.8869 H   0  0  0  0  0  0
  -20.9315  -29.8763   21.6933 H   0  0  0  0  0  0
  -26.0182  -38.2872   24.1414 H   0  0  0  0  0  0
  -33.2411  -18.9249   21.4207 H   0  0  0  0  0  0
  -31.5567  -20.7237   21.4753 H   0  0  0  0  0  0
  -32.5902  -16.5869   21.2570 H   0  0  0  0  0  0
  -28.4245  -17.7623   21.0607 H   0  0  0  0  0  0
  -27.2163  -25.3624   21.3956 H   0  0  0  0  0  0
  -29.0594  -15.3888   21.2668 H   0  0  0  0  0  0
  -29.8852  -21.8143   20.3431 H   0  0  0  0  0  0
  -27.6403  -19.2765   22.5326 H   0  0  0  0  0  0
  -27.0759  -20.9120   22.2770 H   0  0  0  0  0  0
  -29.9208  -25.0055   19.3479 H   0  0  0  0  0  0
  1 25  1  0  0  0
  1 30  2  0  0  0
  1 81  1  0  0  0
  2  3  1  0  0  0
  2 25  1  0  0  0
  2 86  1  0  0  0
  2 87  1  0  0  0
  3  4  1  0  0  0
  3 88  1  0  0  0
  3 89  1  0  0  0
  4  5  1  0  0  0
  4 90  1  0  0  0
  4 91  1  0  0  0
  5  6  1  0  0  0
  5 26  1  0  0  0
  5 92  1  0  0  0
  6 25  1  0  0  0
  6 93  1  0  0  0
  6 94  1  0  0  0
  7  8  2  0  0  0
  7 26  1  0  0  0
  7 29  1  0  0  0
  8  9  1  0  0  0
  8 22  1  0  0  0
  9 10  1  0  0  0
  9 27  2  0  0  0
 10 11  2  0  0  0
 10 15  1  0  0  0
 11 12  1  0  0  0
 11 95  1  0  0  0
 12 13  2  0  0  0
 12 96  1  0  0  0
 13 14  1  0  0  0
 13 31  1  0  0  0
 14 15  2  0  0  0
 14 97  1  0  0  0
 15 98  1  0  0  0
 16 17  2  0  0  0
 16 21  1  0  0  0
 16 31  1  0  0  0
 17 18  1  0  0  0
 17 99  1  0  0  0
 18 19  2  0  0  0
 18100  1  0  0  0
 19 20  1  0  0  0
 19 24  1  0  0  0
 20 21  2  0  0  0
 20101  1  0  0  0
 21 23  1  0  0  0
 22 28  1  0  0  0
 22 32  2  0  0  0
 26 27  1  0  0  0
 28102  1  0  0  0
 28103  1  0  0  0
 29104  1  0  0  0
 29105  1  0  0  0
 33 34  1  0  0  0
 33 66  1  0  0  0
 33 70  2  0  0  0
 34 36  1  0  0  0
 34 59  1  0  0  0
 34106  1  0  0  0
 35 44  2  0  0  0
 35 45  1  0  0  0
 35 68  1  0  0  0
 36 56  1  0  0  0
 36107  1  0  0  0
 37 39  1  0  0  0
 37 47  1  0  0  0
 37 66  1  0  0  0
 37108  1  0  0  0
 38 43  2  0  0  0
 38 46  1  0  0  0
 38 47  1  0  0  0
 39 64  1  0  0  0
 39 67  2  0  0  0
 40 52  1  0  0  0
 40 53  2  0  0  0
 40 58  1  0  0  0
 41109  1  0  0  0
 41110  1  0  0  0
 41111  1  0  0  0
 41 48  1  0  0  0
 42 43  1  0  0  0
 42 66  1  0  0  0
 42112  1  0  0  0
 42113  1  0  0  0
 43 44  1  0  0  0
 44114  1  0  0  0
 45 46  2  0  0  0
 45115  1  0  0  0
 46116  1  0  0  0
 47117  1  0  0  0
 47118  1  0  0  0
 48 56  1  0  0  0
 48 65  1  0  0  0
 48119  1  0  0  0
 49 50  1  0  0  0
 49 53  1  0  0  0
 49 64  1  0  0  0
 49120  1  0  0  0
 50 51  1  0  0  0
 50121  1  0  0  0
 50122  1  0  0  0
 51 52  1  0  0  0
 51123  1  0  0  0
 51124  1  0  0  0
 52125  1  0  0  0
 52126  1  0  0  0
 53 54  1  0  0  0
 54 55  2  0  0  0
 54127  1  0  0  0
 55 57  1  0  0  0
 55128  1  0  0  0
 56 69  2  0  0  0
 57 58  2  0  0  0
 57129  1  0  0  0
 58130  1  0  0  0
 59 60  1  0  0  0
 59 61  1  0  0  0
 59 62  1  0  0  0
 60131  1  0  0  0
 60132  1  0  0  0
 60133  1  0  0  0
 61134  1  0  0  0
 61135  1  0  0  0
 61136  1  0  0  0
 62137  1  0  0  0
 62138  1  0  0  0
 62139  1  0  0  0
 63 65  1  0  0  0
 63140  1  0  0  0
 63141  1  0  0  0
 63142  1  0  0  0
 64143  1  0  0  0
 65144  1  0  0  0
 68 77  1  0  0  0
 71 72  2  0  0  0
 71 73  1  0  0  0
 71145  1  0  0  0
 72 75  1  0  0  0
 72146  1  0  0  0
 73 76  2  0  0  0
 73147  1  0  0  0
 74 75  2  0  0  0
 74 76  1  0  0  0
 74148  1  0  0  0
 75 78  1  0  0  0
 76 81  1  0  0  0
 77 79  2  0  0  0
 77149  1  0  0  0
 78 82  1  0  0  0
 78 83  2  0  0  0
 79 80  1  0  0  0
 79 85  1  0  0  0
 80 82  1  0  0  0
 80 84  2  0  0  0
 81150  1  0  0  0
 82151  1  0  0  0
 83152  1  0  0  0
 83153  1  0  0  0
 85154  1  0  0  0
M  CHG  1  83   1
M  ISO  4   1 100  68 101  77 101  81 100
M  END
> <chiral flag>
0

> <version>
0

> <s_m_source_file>
/data/baiqing/PycharmProjects/Reinvent-master-3.2/result/LINK_invent/BTK/process_docking_weight1_custom_product_contain_oxygen_bond_distance_aromatic_linkinvent_7_9_3/rearranged_h_0165.sdf

> <i_m_source_file_index>
71

> <r_mmod_Potential_Energy-OPLS-2005>
-371.102722167969

> <r_mmod_Stretch_Energy-OPLS-2005>
48.6205368041992

> <r_mmod_Bend_Energy-OPLS-2005>
107.962890625

> <r_mmod_Torsional_Energy-OPLS-2005>
203.132385253906

> <r_mmod_Improper_Torsional_Energy-OPLS-2005>
4.75510597229004

> <r_mmod_Van_der_Waal_Energy-OPLS-2005>
177.193298339844

> <r_mmod_Electrostatic_Energy-OPLS-2005>
-507.842681884766

> <r_mmod_Solvation_Energy-OPLS-2005>
-427.595397949219

> <b_mmod_Minimization_Converged-OPLS-2005>
0

> <r_mmod_RMS_Derivative-OPLS-2005>
0.314067423343658

$$$$
72
                    3D
 Structure written by MMmdl.
164173  0  0  1  0            999 V2000
  -30.6542  -14.5894   20.5215 C   0  0  0  0  0  0
  -30.4338  -12.3650   19.4478 C   0  0  0  0  0  0
  -29.5056  -12.5045   18.2213 C   0  0  0  0  0  0
  -28.0271  -12.3509   18.6308 C   0  0  0  0  0  0
  -27.6555  -13.2144   19.8653 C   0  0  2  0  0  0
  -28.6991  -13.0534   20.9947 C   0  0  0  0  0  0
  -25.2566  -13.8161   20.5675 C   0  0  0  0  0  0
  -24.1840  -13.0436   20.9221 C   0  0  0  0  0  0
  -24.6399  -11.6905   20.8757 C   0  0  0  0  0  0
  -23.9065  -10.4290   21.0411 C   0  0  0  0  0  0
  -24.3617   -9.4205   21.9185 C   0  0  0  0  0  0
  -23.6293   -8.2240   22.0751 C   0  0  0  0  0  0
  -22.4275   -8.0279   21.3542 C   0  0  0  0  0  0
  -21.9912   -9.0253   20.4645 C   0  0  0  0  0  0
  -22.7239  -10.2134   20.3058 C   0  0  0  0  0  0
  -21.6853   -6.0735   22.5278 C   0  0  0  0  0  0
  -21.4011   -6.5636   23.8211 C   0  0  0  0  0  0
  -21.3662   -5.6789   24.9173 C   0  0  0  0  0  0
  -21.6045   -4.3053   24.7223 C   0  0  0  0  0  0
  -21.8819   -3.8147   23.4343 C   0  0  0  0  0  0
  -21.9192   -4.6963   22.3400 C   0  0  0  0  0  0
  -22.7860  -13.5236   21.1865 C   0  0  0  0  0  0
  -22.1663   -4.2150   21.0976 F   0  0  0  0  0  0
  -21.5632   -3.4536   25.7736 F   0  0  0  0  0  0
  -30.0212  -13.3795   20.4358 N   0  0  0  0  0  0
  -26.2993  -12.9342   20.3312 N   0  0  0  0  0  0
  -25.9324  -11.6500   20.5755 N   0  0  0  0  0  0
  -22.0492  -12.8231   22.0416 N   0  0  0  0  0  0
  -25.4262  -15.1870   20.3999 N   0  0  0  0  0  0
  -31.8127  -14.7425   20.1231 O   0  0  0  0  0  0
  -21.6637   -6.8878   21.4240 O   0  0  0  0  0  0
  -22.3553  -14.5543   20.6706 O   0  0  0  0  0  0
  -24.6244  -31.8640   23.2084 C   0  0  0  0  0  0
  -25.9108  -32.4800   23.8391 C   0  0  1  0  0  0
  -27.2186  -27.3445   20.1010 C   0  0  0  0  0  0
  -25.5935  -33.8601   24.2312 N   0  0  0  0  0  0
  -23.4149  -30.4923   21.5514 C   0  0  2  0  0  0
  -24.8587  -28.9601   20.1110 C   0  0  0  0  0  0
  -22.7462  -29.4652   22.4958 C   0  0  0  0  0  0
  -18.0281  -28.1389   22.8486 C   0  0  0  0  0  0
  -24.1489  -36.7302   23.2635 C   0  0  0  0  0  0
  -25.9569  -30.8002   21.3794 C   0  0  0  0  0  0
  -26.0288  -29.4320   20.7188 C   0  0  0  0  0  0
  -27.2096  -28.6336   20.7122 C   0  0  0  0  0  0
  -26.0223  -26.9351   19.4568 C   0  0  0  0  0  0
  -24.8561  -27.7143   19.4741 C   0  0  0  0  0  0
  -23.6269  -29.8365   20.1637 C   0  0  0  0  0  0
  -25.4112  -36.3096   24.0330 C   0  0  1  0  0  0
  -20.5881  -28.3690   23.1289 C   0  0  2  0  0  0
  -20.6775  -26.9418   22.5411 C   0  0  0  0  0  0
  -19.5751  -26.6390   21.5215 C   0  0  0  0  0  0
  -18.1928  -26.7935   22.1621 C   0  0  0  0  0  0
  -19.1533  -28.8856   23.2883 C   0  0  0  0  0  0
  -18.9461  -30.1460   23.8899 C   0  0  0  0  0  0
  -17.6461  -30.6592   24.0567 C   0  0  0  0  0  0
  -25.9051  -34.9464   23.5116 C   0  0  0  0  0  0
  -16.5351  -29.9092   23.6333 C   0  0  0  0  0  0
  -16.7268  -28.6511   23.0349 C   0  0  0  0  0  0
  -26.4499  -31.6595   25.0747 C   0  0  0  0  0  0
  -25.3738  -31.3722   26.1475 C   0  0  0  0  0  0
  -27.0339  -30.3020   24.6192 C   0  0  0  0  0  0
  -27.6064  -32.4322   25.7515 C   0  0  0  0  0  0
  -27.5583  -37.1803   24.8460 C   0  0  0  0  0  0
  -21.4179  -29.3050   22.3692 N   0  0  0  0  0  0
  -26.4291  -37.3789   23.9411 N   0  0  0  0  0  0
  -24.6841  -31.0676   22.1030 N   0  0  0  0  0  0
  -23.4201  -28.8179   23.3014 O   0  0  0  0  0  0
  -28.3365  -26.4951   20.1600 O   0  0  0  0  0  0
  -26.5613  -34.8921   22.4678 O   0  0  0  0  0  0
  -23.5415  -32.1434   23.7426 O   0  0  0  0  0  0
  -31.2492  -17.7201   20.4318 C   0  0  0  0  0  0
  -29.0855  -18.1025   20.9028 C   0  0  0  0  0  0
  -30.0856  -17.0741   20.7526 C   0  0  0  0  0  0
  -29.7084  -19.3071   20.6135 C   0  0  0  0  0  0
  -29.4145  -21.3885   19.0985 C   0  0  0  0  0  0
  -29.7308  -21.8023   21.5129 C   0  0  0  0  0  0
  -28.7047  -22.7649   18.9507 C   0  0  0  0  0  0
  -29.0347  -23.2061   21.3814 C   0  0  0  0  0  0
  -29.2022  -20.7597   20.4903 C   0  0  2  0  0  0
  -29.1200  -23.8783   19.9664 C   0  0  2  0  0  0
  -31.1994  -25.0346   20.4804 C   0  0  0  0  0  0
  -28.1299  -25.1048   19.7247 C   0  0  0  0  0  0
  -27.6297  -17.9293   21.2622 C   0  0  0  0  0  0
  -29.8743  -15.6414   20.9058 N   0  0  0  0  0  0
  -31.0333  -19.0744   20.3503 O   0  0  0  0  0  0
  -30.4561  -24.2164   19.5826 O   0  0  0  0  0  0
  -26.8676  -18.1693   20.1958 F   0  0  0  0  0  0
  -27.2903  -18.7633   22.2451 F   0  0  0  0  0  0
  -31.4767  -12.4790   19.1468 H   0  0  0  0  0  0
  -30.3568  -11.3652   19.8783 H   0  0  0  0  0  0
  -29.7632  -11.7600   17.4670 H   0  0  0  0  0  0
  -29.6580  -13.4786   17.7536 H   0  0  0  0  0  0
  -27.8549  -11.2970   18.8530 H   0  0  0  0  0  0
  -27.3753  -12.5935   17.7907 H   0  0  0  0  0  0
  -27.6800  -14.2526   19.5340 H   0  0  0  0  0  0
  -28.6974  -12.0295   21.3717 H   0  0  0  0  0  0
  -28.4504  -13.6832   21.8501 H   0  0  0  0  0  0
  -25.2759   -9.5679   22.4764 H   0  0  0  0  0  0
  -24.0002   -7.4627   22.7466 H   0  0  0  0  0  0
  -21.0847   -8.8769   19.8949 H   0  0  0  0  0  0
  -22.3694  -10.9676   19.6171 H   0  0  0  0  0  0
  -21.2000   -7.6144   23.9716 H   0  0  0  0  0  0
  -21.1489   -6.0518   25.9076 H   0  0  0  0  0  0
  -22.0597   -2.7609   23.2841 H   0  0  0  0  0  0
  -22.4098  -11.9893   22.4811 H   0  0  0  0  0  0
  -21.1106  -13.1255   22.2604 H   0  0  0  0  0  0
  -24.6293  -15.8121   20.4476 H   0  0  0  0  0  0
  -26.2058  -15.5851   19.8943 H   0  0  0  0  0  0
  -26.7174  -32.5475   23.1140 H   0  0  0  0  0  0
  -25.0080  -33.9760   25.0453 H   0  0  0  0  0  0
  -22.7076  -31.3128   21.4147 H   0  0  0  0  0  0
  -23.3757  -35.9628   23.3288 H   0  0  0  0  0  0
  -24.3583  -36.8934   22.2052 H   0  0  0  0  0  0
  -23.7236  -37.6497   23.6663 H   0  0  0  0  0  0
  -26.0886  -31.5660   20.6138 H   0  0  0  0  0  0
  -26.8377  -30.8449   22.0081 H   0  0  0  0  0  0
  -28.1041  -28.9896   21.2038 H   0  0  0  0  0  0
  -25.9368  -25.9970   18.9309 H   0  0  0  0  0  0
  -23.9614  -27.3498   18.9884 H   0  0  0  0  0  0
  -23.7445  -30.6176   19.4117 H   0  0  0  0  0  0
  -22.7466  -29.2671   19.8593 H   0  0  0  0  0  0
  -25.1291  -36.1951   25.0822 H   0  0  0  0  0  0
  -20.9969  -28.3263   24.1412 H   0  0  0  0  0  0
  -20.5686  -26.2300   23.3609 H   0  0  0  0  0  0
  -21.6643  -26.7460   22.1198 H   0  0  0  0  0  0
  -19.6913  -25.6301   21.1245 H   0  0  0  0  0  0
  -19.6690  -27.3203   20.6748 H   0  0  0  0  0  0
  -17.4201  -26.6689   21.4019 H   0  0  0  0  0  0
  -18.0322  -26.0075   22.9015 H   0  0  0  0  0  0
  -19.7936  -30.7279   24.2267 H   0  0  0  0  0  0
  -17.5014  -31.6274   24.5167 H   0  0  0  0  0  0
  -15.5351  -30.2995   23.7662 H   0  0  0  0  0  0
  -15.8666  -28.0837   22.7059 H   0  0  0  0  0  0
  -24.5921  -30.7063   25.7803 H   0  0  0  0  0  0
  -24.8920  -32.2883   26.4902 H   0  0  0  0  0  0
  -25.8069  -30.8902   27.0248 H   0  0  0  0  0  0
  -26.2912  -29.6774   24.1216 H   0  0  0  0  0  0
  -27.4037  -29.7274   25.4695 H   0  0  0  0  0  0
  -27.8784  -30.4307   23.9419 H   0  0  0  0  0  0
  -27.2683  -33.3619   26.2105 H   0  0  0  0  0  0
  -28.3873  -32.6887   25.0342 H   0  0  0  0  0  0
  -28.0737  -31.8438   26.5423 H   0  0  0  0  0  0
  -28.2590  -38.0111   24.7529 H   0  0  0  0  0  0
  -28.1093  -36.2644   24.6259 H   0  0  0  0  0  0
  -27.2306  -37.1422   25.8864 H   0  0  0  0  0  0
  -20.9353  -29.8781   21.6914 H   0  0  0  0  0  0
  -26.0175  -38.2862   24.1424 H   0  0  0  0  0  0
  -32.2616  -17.3988   20.2271 H   0  0  0  0  0  0
  -30.4811  -21.4975   18.8977 H   0  0  0  0  0  0
  -29.0296  -20.7100   18.3364 H   0  0  0  0  0  0
  -29.5724  -21.4234   22.5230 H   0  0  0  0  0  0
  -30.8095  -21.9147   21.3978 H   0  0  0  0  0  0
  -27.6308  -22.5921   19.0404 H   0  0  0  0  0  0
  -28.8534  -23.1249   17.9317 H   0  0  0  0  0  0
  -29.4064  -23.8811   22.1517 H   0  0  0  0  0  0
  -27.9811  -23.0689   21.6280 H   0  0  0  0  0  0
  -28.1230  -20.7095   20.6408 H   0  0  0  0  0  0
  -32.1426  -25.3149   20.0117 H   0  0  0  0  0  0
  -31.4490  -24.5022   21.3981 H   0  0  0  0  0  0
  -30.6798  -25.9547   20.7425 H   0  0  0  0  0  0
  -27.1840  -24.7592   20.1434 H   0  0  0  0  0  0
  -27.9849  -25.1779   18.6454 H   0  0  0  0  0  0
  -27.4158  -16.9180   21.6079 H   0  0  0  0  0  0
  -28.9556  -15.3592   21.2071 H   0  0  0  0  0  0
  1 25  1  0  0  0
  1 30  2  0  0  0
  1 84  1  0  0  0
  2  3  1  0  0  0
  2 25  1  0  0  0
  2 89  1  0  0  0
  2 90  1  0  0  0
  3  4  1  0  0  0
  3 91  1  0  0  0
  3 92  1  0  0  0
  4  5  1  0  0  0
  4 93  1  0  0  0
  4 94  1  0  0  0
  5  6  1  0  0  0
  5 26  1  0  0  0
  5 95  1  0  0  0
  6 25  1  0  0  0
  6 96  1  0  0  0
  6 97  1  0  0  0
  7  8  2  0  0  0
  7 26  1  0  0  0
  7 29  1  0  0  0
  8  9  1  0  0  0
  8 22  1  0  0  0
  9 10  1  0  0  0
  9 27  2  0  0  0
 10 11  2  0  0  0
 10 15  1  0  0  0
 11 12  1  0  0  0
 11 98  1  0  0  0
 12 13  2  0  0  0
 12 99  1  0  0  0
 13 14  1  0  0  0
 13 31  1  0  0  0
 14 15  2  0  0  0
 14100  1  0  0  0
 15101  1  0  0  0
 16 17  2  0  0  0
 16 21  1  0  0  0
 16 31  1  0  0  0
 17 18  1  0  0  0
 17102  1  0  0  0
 18 19  2  0  0  0
 18103  1  0  0  0
 19 20  1  0  0  0
 19 24  1  0  0  0
 20 21  2  0  0  0
 20104  1  0  0  0
 21 23  1  0  0  0
 22 28  1  0  0  0
 22 32  2  0  0  0
 26 27  1  0  0  0
 28105  1  0  0  0
 28106  1  0  0  0
 29107  1  0  0  0
 29108  1  0  0  0
 33 34  1  0  0  0
 33 66  1  0  0  0
 33 70  2  0  0  0
 34 36  1  0  0  0
 34 59  1  0  0  0
 34109  1  0  0  0
 35 44  2  0  0  0
 35 45  1  0  0  0
 35 68  1  0  0  0
 36 56  1  0  0  0
 36110  1  0  0  0
 37 39  1  0  0  0
 37 47  1  0  0  0
 37 66  1  0  0  0
 37111  1  0  0  0
 38 43  2  0  0  0
 38 46  1  0  0  0
 38 47  1  0  0  0
 39 64  1  0  0  0
 39 67  2  0  0  0
 40 52  1  0  0  0
 40 53  2  0  0  0
 40 58  1  0  0  0
 41112  1  0  0  0
 41113  1  0  0  0
 41114  1  0  0  0
 41 48  1  0  0  0
 42 43  1  0  0  0
 42 66  1  0  0  0
 42115  1  0  0  0
 42116  1  0  0  0
 43 44  1  0  0  0
 44117  1  0  0  0
 45 46  2  0  0  0
 45118  1  0  0  0
 46119  1  0  0  0
 47120  1  0  0  0
 47121  1  0  0  0
 48 56  1  0  0  0
 48 65  1  0  0  0
 48122  1  0  0  0
 49 50  1  0  0  0
 49 53  1  0  0  0
 49 64  1  0  0  0
 49123  1  0  0  0
 50 51  1  0  0  0
 50124  1  0  0  0
 50125  1  0  0  0
 51 52  1  0  0  0
 51126  1  0  0  0
 51127  1  0  0  0
 52128  1  0  0  0
 52129  1  0  0  0
 53 54  1  0  0  0
 54 55  2  0  0  0
 54130  1  0  0  0
 55 57  1  0  0  0
 55131  1  0  0  0
 56 69  2  0  0  0
 57 58  2  0  0  0
 57132  1  0  0  0
 58133  1  0  0  0
 59 60  1  0  0  0
 59 61  1  0  0  0
 59 62  1  0  0  0
 60134  1  0  0  0
 60135  1  0  0  0
 60136  1  0  0  0
 61137  1  0  0  0
 61138  1  0  0  0
 61139  1  0  0  0
 62140  1  0  0  0
 62141  1  0  0  0
 62142  1  0  0  0
 63 65  1  0  0  0
 63143  1  0  0  0
 63144  1  0  0  0
 63145  1  0  0  0
 64146  1  0  0  0
 65147  1  0  0  0
 68 82  1  0  0  0
 71 73  2  0  0  0
 71 85  1  0  0  0
 71148  1  0  0  0
 72 73  1  0  0  0
 72 74  2  0  0  0
 72 83  1  0  0  0
 73 84  1  0  0  0
 74 85  1  0  0  0
 74 79  1  0  0  0
 75 77  1  0  0  0
 75 79  1  0  0  0
 75149  1  0  0  0
 75150  1  0  0  0
 76 78  1  0  0  0
 76 79  1  0  0  0
 76151  1  0  0  0
 76152  1  0  0  0
 77 80  1  0  0  0
 77153  1  0  0  0
 77154  1  0  0  0
 78 80  1  0  0  0
 78155  1  0  0  0
 78156  1  0  0  0
 79157  1  0  0  0
 80 82  1  0  0  0
 80 86  1  0  0  0
 81 86  1  0  0  0
 81158  1  0  0  0
 81159  1  0  0  0
 81160  1  0  0  0
 82161  1  0  0  0
 82162  1  0  0  0
 83 87  1  0  0  0
 83 88  1  0  0  0
 83163  1  0  0  0
 84164  1  0  0  0
M  ISO  4   1 100  68 101  82 101  84 100
M  END
> <chiral flag>
0

> <version>
0

> <s_m_source_file>
/data/baiqing/PycharmProjects/Reinvent-master-3.2/result/LINK_invent/BTK/process_docking_weight1_custom_product_contain_oxygen_bond_distance_aromatic_linkinvent_7_9_3/rearranged_h_0165.sdf

> <i_m_source_file_index>
72

> <r_mmod_Potential_Energy-OPLS-2005>
65.6338577270508

> <r_mmod_Stretch_Energy-OPLS-2005>
65.5124664306641

> <r_mmod_Bend_Energy-OPLS-2005>
155.847686767578

> <r_mmod_Torsional_Energy-OPLS-2005>
237.860778808594

> <r_mmod_Improper_Torsional_Energy-OPLS-2005>
5.57462692260742

> <r_mmod_Van_der_Waal_Energy-OPLS-2005>
133.450057983398

> <r_mmod_Electrostatic_Energy-OPLS-2005>
-361.384674072266

> <r_mmod_Solvation_Energy-OPLS-2005>
-208.908294677734

> <b_mmod_Minimization_Converged-OPLS-2005>
0

> <r_mmod_RMS_Derivative-OPLS-2005>
0.53386926651001

$$$$
73
                    3D
 Structure written by MMmdl.
160169  0  0  1  0            999 V2000
  -30.6724  -14.6191   20.4621 C   0  0  0  0  0  0
  -30.4230  -12.3685   19.4720 C   0  0  0  0  0  0
  -29.5078  -12.4919   18.2346 C   0  0  0  0  0  0
  -28.0287  -12.3497   18.6425 C   0  0  0  0  0  0
  -27.6528  -13.2281   19.8657 C   0  0  2  0  0  0
  -28.6976  -13.1171   21.0005 C   0  0  0  0  0  0
  -25.2544  -13.8198   20.5727 C   0  0  0  0  0  0
  -24.1826  -13.0451   20.9211 C   0  0  0  0  0  0
  -24.6403  -11.6931   20.8759 C   0  0  0  0  0  0
  -23.9084  -10.4314   21.0416 C   0  0  0  0  0  0
  -24.3634   -9.4218   21.9184 C   0  0  0  0  0  0
  -23.6315   -8.2252   22.0745 C   0  0  0  0  0  0
  -22.4295   -8.0289   21.3539 C   0  0  0  0  0  0
  -21.9929   -9.0272   20.4645 C   0  0  0  0  0  0
  -22.7256  -10.2150   20.3062 C   0  0  0  0  0  0
  -21.6855   -6.0750   22.5274 C   0  0  0  0  0  0
  -21.4012   -6.5648   23.8212 C   0  0  0  0  0  0
  -21.3668   -5.6789   24.9169 C   0  0  0  0  0  0
  -21.6047   -4.3058   24.7212 C   0  0  0  0  0  0
  -21.8820   -3.8157   23.4325 C   0  0  0  0  0  0
  -21.9192   -4.6981   22.3388 C   0  0  0  0  0  0
  -22.7842  -13.5229   21.1881 C   0  0  0  0  0  0
  -22.1656   -4.2162   21.0974 F   0  0  0  0  0  0
  -21.5640   -3.4539   25.7724 F   0  0  0  0  0  0
  -30.0179  -13.4168   20.4305 N   0  0  0  0  0  0
  -26.2990  -12.9411   20.3362 N   0  0  0  0  0  0
  -25.9340  -11.6555   20.5781 N   0  0  0  0  0  0
  -22.0495  -12.8220   22.0440 N   0  0  0  0  0  0
  -25.4251  -15.1928   20.4174 N   0  0  0  0  0  0
  -31.8496  -14.7101   20.1052 O   0  0  0  0  0  0
  -21.6643   -6.8899   21.4242 O   0  0  0  0  0  0
  -22.3529  -14.5536   20.6729 O   0  0  0  0  0  0
  -24.6246  -31.8625   23.2062 C   0  0  0  0  0  0
  -25.9107  -32.4791   23.8379 C   0  0  1  0  0  0
  -27.2154  -27.3284   20.1095 C   0  0  0  0  0  0
  -25.5946  -33.8598   24.2300 N   0  0  0  0  0  0
  -23.4166  -30.4897   21.5496 C   0  0  2  0  0  0
  -24.8610  -28.9563   20.1087 C   0  0  0  0  0  0
  -22.7473  -29.4637   22.4950 C   0  0  0  0  0  0
  -18.0288  -28.1381   22.8475 C   0  0  0  0  0  0
  -24.1487  -36.7300   23.2627 C   0  0  0  0  0  0
  -25.9606  -30.7950   21.3795 C   0  0  0  0  0  0
  -26.0333  -29.4269   20.7157 C   0  0  0  0  0  0
  -27.2152  -28.6266   20.7060 C   0  0  0  0  0  0
  -26.0184  -26.9246   19.4649 C   0  0  0  0  0  0
  -24.8567  -27.7106   19.4730 C   0  0  0  0  0  0
  -23.6296  -29.8342   20.1623 C   0  0  0  0  0  0
  -25.4107  -36.3093   24.0328 C   0  0  1  0  0  0
  -20.5883  -28.3679   23.1278 C   0  0  2  0  0  0
  -20.6773  -26.9406   22.5402 C   0  0  0  0  0  0
  -19.5767  -26.6379   21.5196 C   0  0  0  0  0  0
  -18.1946  -26.7922   22.1606 C   0  0  0  0  0  0
  -19.1536  -28.8845   23.2877 C   0  0  0  0  0  0
  -18.9462  -30.1448   23.8896 C   0  0  0  0  0  0
  -17.6467  -30.6586   24.0548 C   0  0  0  0  0  0
  -25.9054  -34.9460   23.5110 C   0  0  0  0  0  0
  -16.5354  -29.9081   23.6330 C   0  0  0  0  0  0
  -16.7275  -28.6492   23.0352 C   0  0  0  0  0  0
  -26.4487  -31.6595   25.0745 C   0  0  0  0  0  0
  -25.3727  -31.3764   26.1479 C   0  0  0  0  0  0
  -27.0282  -30.2998   24.6208 C   0  0  0  0  0  0
  -27.6074  -32.4309   25.7492 C   0  0  0  0  0  0
  -27.5591  -37.1791   24.8454 C   0  0  0  0  0  0
  -21.4185  -29.3042   22.3682 N   0  0  0  0  0  0
  -26.4284  -37.3789   23.9421 N   0  0  0  0  0  0
  -24.6861  -31.0647   22.1014 N   0  0  0  0  0  0
  -23.4210  -28.8160   23.3006 O   0  0  0  0  0  0
  -28.3104  -26.4460   20.1837 O   0  0  0  0  0  0
  -26.5615  -34.8917   22.4676 O   0  0  0  0  0  0
  -23.5414  -32.1415   23.7401 O   0  0  0  0  0  0
  -30.2318  -16.7609   18.4841 C   0  0  0  0  0  0
  -29.6782  -19.2851   19.3802 C   0  0  0  0  0  0
  -29.9883  -16.9648   19.8694 C   0  0  0  0  0  0
  -29.9272  -18.9829   18.0086 C   0  0  0  0  0  0
  -30.4241  -21.8589   19.5789 C   0  0  0  0  0  0
  -28.5986  -21.1278   21.0548 C   0  0  0  0  0  0
  -29.8247  -23.2972   19.4095 C   0  0  0  0  0  0
  -27.9758  -22.5690   20.9987 C   0  0  0  0  0  0
  -29.3140  -20.7803   19.7373 C   0  0  2  0  0  0
  -28.8840  -23.7792   20.5568 C   0  0  2  0  0  0
  -27.9522  -25.0093   20.1522 C   0  0  0  0  0  0
  -30.2071  -17.7476   17.5687 N   0  0  0  0  0  0
  -29.7173  -18.2574   20.3105 N   0  0  0  0  0  0
  -29.8816  -19.9253   16.9901 N   0  0  0  0  0  0
  -29.9370  -15.7544   20.6823 N   0  0  0  0  0  0
  -31.4709  -12.4520   19.1755 H   0  0  0  0  0  0
  -30.3238  -11.3808   19.9263 H   0  0  0  0  0  0
  -29.7654  -11.7270   17.5002 H   0  0  0  0  0  0
  -29.6686  -13.4534   17.7457 H   0  0  0  0  0  0
  -27.8549  -11.3003   18.8780 H   0  0  0  0  0  0
  -27.3752  -12.5803   17.8006 H   0  0  0  0  0  0
  -27.6631  -14.2591   19.5129 H   0  0  0  0  0  0
  -28.6958  -12.1173   21.4375 H   0  0  0  0  0  0
  -28.4577  -13.8047   21.8137 H   0  0  0  0  0  0
  -25.2793   -9.5667   22.4753 H   0  0  0  0  0  0
  -24.0014   -7.4634   22.7455 H   0  0  0  0  0  0
  -21.0854   -8.8809   19.8965 H   0  0  0  0  0  0
  -22.3734  -10.9694   19.6165 H   0  0  0  0  0  0
  -21.2002   -7.6152   23.9709 H   0  0  0  0  0  0
  -21.1494   -6.0524   25.9066 H   0  0  0  0  0  0
  -22.0600   -2.7622   23.2810 H   0  0  0  0  0  0
  -22.4121  -11.9867   22.4801 H   0  0  0  0  0  0
  -21.1127  -13.1258   22.2687 H   0  0  0  0  0  0
  -24.6540  -15.8426   20.5247 H   0  0  0  0  0  0
  -26.2775  -15.6383   20.1043 H   0  0  0  0  0  0
  -26.7169  -32.5449   23.1125 H   0  0  0  0  0  0
  -25.0109  -33.9753   25.0450 H   0  0  0  0  0  0
  -22.7102  -31.3110   21.4126 H   0  0  0  0  0  0
  -23.3766  -35.9618   23.3253 H   0  0  0  0  0  0
  -24.3600  -36.8959   22.2054 H   0  0  0  0  0  0
  -23.7207  -37.6480   23.6662 H   0  0  0  0  0  0
  -26.0965  -31.5621   20.6150 H   0  0  0  0  0  0
  -26.8408  -30.8370   22.0101 H   0  0  0  0  0  0
  -28.1095  -28.9815   21.1975 H   0  0  0  0  0  0
  -25.9310  -25.9810   18.9503 H   0  0  0  0  0  0
  -23.9613  -27.3458   18.9880 H   0  0  0  0  0  0
  -23.7494  -30.6156   19.4109 H   0  0  0  0  0  0
  -22.7489  -29.2665   19.8552 H   0  0  0  0  0  0
  -25.1276  -36.1948   25.0818 H   0  0  0  0  0  0
  -20.9972  -28.3239   24.1397 H   0  0  0  0  0  0
  -20.5651  -26.2295   23.3599 H   0  0  0  0  0  0
  -21.6645  -26.7430   22.1209 H   0  0  0  0  0  0
  -19.6928  -25.6284   21.1245 H   0  0  0  0  0  0
  -19.6708  -27.3166   20.6706 H   0  0  0  0  0  0
  -17.4206  -26.6658   21.4015 H   0  0  0  0  0  0
  -18.0360  -26.0070   22.9006 H   0  0  0  0  0  0
  -19.7942  -30.7258   24.2273 H   0  0  0  0  0  0
  -17.5022  -31.6271   24.5147 H   0  0  0  0  0  0
  -15.5353  -30.2987   23.7651 H   0  0  0  0  0  0
  -15.8673  -28.0809   22.7081 H   0  0  0  0  0  0
  -24.5942  -30.7042   25.7848 H   0  0  0  0  0  0
  -24.8860  -32.2932   26.4819 H   0  0  0  0  0  0
  -25.8068  -30.9044   27.0300 H   0  0  0  0  0  0
  -26.2833  -29.6800   24.1201 H   0  0  0  0  0  0
  -27.3903  -29.7217   25.4718 H   0  0  0  0  0  0
  -27.8753  -30.4244   23.9462 H   0  0  0  0  0  0
  -27.2715  -33.3612   26.2085 H   0  0  0  0  0  0
  -28.3870  -32.6866   25.0302 H   0  0  0  0  0  0
  -28.0756  -31.8423   26.5390 H   0  0  0  0  0  0
  -28.2566  -38.0124   24.7558 H   0  0  0  0  0  0
  -28.1127  -36.2668   24.6195 H   0  0  0  0  0  0
  -27.2340  -37.1338   25.8860 H   0  0  0  0  0  0
  -20.9357  -29.8794   21.6920 H   0  0  0  0  0  0
  -26.0172  -38.2860   24.1461 H   0  0  0  0  0  0
  -30.4024  -15.7781   18.0700 H   0  0  0  0  0  0
  -31.1069  -21.8228   20.4290 H   0  0  0  0  0  0
  -31.0360  -21.6408   18.7044 H   0  0  0  0  0  0
  -27.8037  -20.4029   21.2344 H   0  0  0  0  0  0
  -29.2911  -21.0345   21.8928 H   0  0  0  0  0  0
  -29.2733  -23.3160   18.4689 H   0  0  0  0  0  0
  -30.6329  -24.0186   19.2831 H   0  0  0  0  0  0
  -27.5386  -22.7936   21.9726 H   0  0  0  0  0  0
  -27.1299  -22.5203   20.3122 H   0  0  0  0  0  0
  -28.5650  -21.0025   18.9758 H   0  0  0  0  0  0
  -29.4963  -24.0622   21.4149 H   0  0  0  0  0  0
  -27.0822  -24.9252   20.8068 H   0  0  0  0  0  0
  -27.6024  -24.7756   19.1479 H   0  0  0  0  0  0
  -29.5592  -20.8704   17.1610 H   0  0  0  0  0  0
  -29.8975  -19.6374   16.0187 H   0  0  0  0  0  0
  -29.0867  -15.6330   21.2085 H   0  0  0  0  0  0
  1 25  1  0  0  0
  1 30  2  0  0  0
  1 85  1  0  0  0
  2  3  1  0  0  0
  2 25  1  0  0  0
  2 86  1  0  0  0
  2 87  1  0  0  0
  3  4  1  0  0  0
  3 88  1  0  0  0
  3 89  1  0  0  0
  4  5  1  0  0  0
  4 90  1  0  0  0
  4 91  1  0  0  0
  5  6  1  0  0  0
  5 26  1  0  0  0
  5 92  1  0  0  0
  6 25  1  0  0  0
  6 93  1  0  0  0
  6 94  1  0  0  0
  7  8  2  0  0  0
  7 26  1  0  0  0
  7 29  1  0  0  0
  8  9  1  0  0  0
  8 22  1  0  0  0
  9 10  1  0  0  0
  9 27  2  0  0  0
 10 11  2  0  0  0
 10 15  1  0  0  0
 11 12  1  0  0  0
 11 95  1  0  0  0
 12 13  2  0  0  0
 12 96  1  0  0  0
 13 14  1  0  0  0
 13 31  1  0  0  0
 14 15  2  0  0  0
 14 97  1  0  0  0
 15 98  1  0  0  0
 16 17  2  0  0  0
 16 21  1  0  0  0
 16 31  1  0  0  0
 17 18  1  0  0  0
 17 99  1  0  0  0
 18 19  2  0  0  0
 18100  1  0  0  0
 19 20  1  0  0  0
 19 24  1  0  0  0
 20 21  2  0  0  0
 20101  1  0  0  0
 21 23  1  0  0  0
 22 28  1  0  0  0
 22 32  2  0  0  0
 26 27  1  0  0  0
 28102  1  0  0  0
 28103  1  0  0  0
 29104  1  0  0  0
 29105  1  0  0  0
 33 34  1  0  0  0
 33 66  1  0  0  0
 33 70  2  0  0  0
 34 36  1  0  0  0
 34 59  1  0  0  0
 34106  1  0  0  0
 35 44  2  0  0  0
 35 45  1  0  0  0
 35 68  1  0  0  0
 36 56  1  0  0  0
 36107  1  0  0  0
 37 39  1  0  0  0
 37 47  1  0  0  0
 37 66  1  0  0  0
 37108  1  0  0  0
 38 43  2  0  0  0
 38 46  1  0  0  0
 38 47  1  0  0  0
 39 64  1  0  0  0
 39 67  2  0  0  0
 40 52  1  0  0  0
 40 53  2  0  0  0
 40 58  1  0  0  0
 41109  1  0  0  0
 41110  1  0  0  0
 41111  1  0  0  0
 41 48  1  0  0  0
 42 43  1  0  0  0
 42 66  1  0  0  0
 42112  1  0  0  0
 42113  1  0  0  0
 43 44  1  0  0  0
 44114  1  0  0  0
 45 46  2  0  0  0
 45115  1  0  0  0
 46116  1  0  0  0
 47117  1  0  0  0
 47118  1  0  0  0
 48 56  1  0  0  0
 48 65  1  0  0  0
 48119  1  0  0  0
 49 50  1  0  0  0
 49 53  1  0  0  0
 49 64  1  0  0  0
 49120  1  0  0  0
 50 51  1  0  0  0
 50121  1  0  0  0
 50122  1  0  0  0
 51 52  1  0  0  0
 51123  1  0  0  0
 51124  1  0  0  0
 52125  1  0  0  0
 52126  1  0  0  0
 53 54  1  0  0  0
 54 55  2  0  0  0
 54127  1  0  0  0
 55 57  1  0  0  0
 55128  1  0  0  0
 56 69  2  0  0  0
 57 58  2  0  0  0
 57129  1  0  0  0
 58130  1  0  0  0
 59 60  1  0  0  0
 59 61  1  0  0  0
 59 62  1  0  0  0
 60131  1  0  0  0
 60132  1  0  0  0
 60133  1  0  0  0
 61134  1  0  0  0
 61135  1  0  0  0
 61136  1  0  0  0
 62137  1  0  0  0
 62138  1  0  0  0
 62139  1  0  0  0
 63 65  1  0  0  0
 63140  1  0  0  0
 63141  1  0  0  0
 63142  1  0  0  0
 64143  1  0  0  0
 65144  1  0  0  0
 68 81  1  0  0  0
 71 73  2  0  0  0
 71 82  1  0  0  0
 71145  1  0  0  0
 72 74  1  0  0  0
 72 83  2  0  0  0
 72 79  1  0  0  0
 73 83  1  0  0  0
 73 85  1  0  0  0
 74 82  2  0  0  0
 74 84  1  0  0  0
 75 77  1  0  0  0
 75 79  1  0  0  0
 75146  1  0  0  0
 75147  1  0  0  0
 76 78  1  0  0  0
 76 79  1  0  0  0
 76148  1  0  0  0
 76149  1  0  0  0
 77 80  1  0  0  0
 77150  1  0  0  0
 77151  1  0  0  0
 78 80  1  0  0  0
 78152  1  0  0  0
 78153  1  0  0  0
 79154  1  0  0  0
 80 81  1  0  0  0
 80155  1  0  0  0
 81156  1  0  0  0
 81157  1  0  0  0
 84158  1  0  0  0
 84159  1  0  0  0
 85160  1  0  0  0
M  ISO  4   1 100  68 101  81 101  85 100
M  END
> <chiral flag>
0

> <version>
0

> <s_m_source_file>
/data/baiqing/PycharmProjects/Reinvent-master-3.2/result/LINK_invent/BTK/process_docking_weight1_custom_product_contain_oxygen_bond_distance_aromatic_linkinvent_7_9_3/rearranged_h_0165.sdf

> <i_m_source_file_index>
73

> <r_mmod_Potential_Energy-OPLS-2005>
115.55883026123

> <r_mmod_Stretch_Energy-OPLS-2005>
83.8924026489258

> <r_mmod_Bend_Energy-OPLS-2005>
168.791030883789

> <r_mmod_Torsional_Energy-OPLS-2005>
276.974700927734

> <r_mmod_Improper_Torsional_Energy-OPLS-2005>
7.56252527236938

> <r_mmod_Van_der_Waal_Energy-OPLS-2005>
167.746429443359

> <r_mmod_Electrostatic_Energy-OPLS-2005>
-414.943267822266

> <r_mmod_Solvation_Energy-OPLS-2005>
-224.027374267578

> <b_mmod_Minimization_Converged-OPLS-2005>
0

> <r_mmod_RMS_Derivative-OPLS-2005>
2.17570781707764

$$$$
74
                    3D
 Structure written by MMmdl.
154162  0  0  1  0            999 V2000
  -30.6452  -14.6386   20.4827 C   0  0  0  0  0  0
  -30.4337  -12.3846   19.4621 C   0  0  0  0  0  0
  -29.5105  -12.5074   18.2297 C   0  0  0  0  0  0
  -28.0320  -12.3485   18.6368 C   0  0  0  0  0  0
  -27.6541  -13.2151   19.8674 C   0  0  2  0  0  0
  -28.7013  -13.0858   20.9981 C   0  0  0  0  0  0
  -25.2569  -13.8169   20.5692 C   0  0  0  0  0  0
  -24.1833  -13.0435   20.9183 C   0  0  0  0  0  0
  -24.6402  -11.6906   20.8741 C   0  0  0  0  0  0
  -23.9071  -10.4289   21.0401 C   0  0  0  0  0  0
  -24.3620   -9.4206   21.9181 C   0  0  0  0  0  0
  -23.6295   -8.2240   22.0754 C   0  0  0  0  0  0
  -22.4275   -8.0280   21.3544 C   0  0  0  0  0  0
  -21.9913   -9.0253   20.4644 C   0  0  0  0  0  0
  -22.7243  -10.2132   20.3052 C   0  0  0  0  0  0
  -21.6853   -6.0735   22.5281 C   0  0  0  0  0  0
  -21.4013   -6.5639   23.8213 C   0  0  0  0  0  0
  -21.3659   -5.6791   24.9174 C   0  0  0  0  0  0
  -21.6047   -4.3055   24.7224 C   0  0  0  0  0  0
  -21.8820   -3.8146   23.4345 C   0  0  0  0  0  0
  -21.9188   -4.6963   22.3401 C   0  0  0  0  0  0
  -22.7854  -13.5229   21.1838 C   0  0  0  0  0  0
  -22.1656   -4.2149   21.0979 F   0  0  0  0  0  0
  -21.5636   -3.4538   25.7735 F   0  0  0  0  0  0
  -30.0208  -13.4161   20.4362 N   0  0  0  0  0  0
  -26.3001  -12.9342   20.3350 N   0  0  0  0  0  0
  -25.9337  -11.6498   20.5776 N   0  0  0  0  0  0
  -22.0487  -12.8228   22.0391 N   0  0  0  0  0  0
  -25.4272  -15.1894   20.4102 N   0  0  0  0  0  0
  -31.8000  -14.7765   20.0656 O   0  0  0  0  0  0
  -21.6638   -6.8877   21.4241 O   0  0  0  0  0  0
  -22.3542  -14.5535   20.6683 O   0  0  0  0  0  0
  -24.6247  -31.8603   23.2041 C   0  0  0  0  0  0
  -25.9098  -32.4784   23.8365 C   0  0  1  0  0  0
  -27.2324  -27.3469   20.1083 C   0  0  0  0  0  0
  -25.5917  -33.8583   24.2288 N   0  0  0  0  0  0
  -23.4201  -30.4831   21.5450 C   0  0  2  0  0  0
  -24.8735  -28.9477   20.1017 C   0  0  0  0  0  0
  -22.7479  -29.4621   22.4935 C   0  0  0  0  0  0
  -18.0286  -28.1388   22.8491 C   0  0  0  0  0  0
  -24.1489  -36.7299   23.2638 C   0  0  0  0  0  0
  -25.9598  -30.7990   21.3739 C   0  0  0  0  0  0
  -26.0404  -29.4306   20.7111 C   0  0  0  0  0  0
  -27.2269  -28.6389   20.7121 C   0  0  0  0  0  0
  -26.0529  -26.9171   19.4638 C   0  0  0  0  0  0
  -24.8805  -27.6945   19.4685 C   0  0  0  0  0  0
  -23.6358  -29.8192   20.1590 C   0  0  0  0  0  0
  -25.4114  -36.3089   24.0329 C   0  0  1  0  0  0
  -20.5889  -28.3690   23.1286 C   0  0  2  0  0  0
  -20.6776  -26.9412   22.5415 C   0  0  0  0  0  0
  -19.5750  -26.6386   21.5218 C   0  0  0  0  0  0
  -18.1930  -26.7933   22.1629 C   0  0  0  0  0  0
  -19.1537  -28.8853   23.2885 C   0  0  0  0  0  0
  -18.9462  -30.1456   23.8898 C   0  0  0  0  0  0
  -17.6463  -30.6588   24.0565 C   0  0  0  0  0  0
  -25.9046  -34.9454   23.5110 C   0  0  0  0  0  0
  -16.5354  -29.9090   23.6331 C   0  0  0  0  0  0
  -16.7273  -28.6511   23.0346 C   0  0  0  0  0  0
  -26.4491  -31.6585   25.0724 C   0  0  0  0  0  0
  -25.3725  -31.3714   26.1448 C   0  0  0  0  0  0
  -27.0328  -30.3010   24.6156 C   0  0  0  0  0  0
  -27.6049  -32.4313   25.7499 C   0  0  0  0  0  0
  -27.5580  -37.1810   24.8466 C   0  0  0  0  0  0
  -21.4192  -29.3045   22.3682 N   0  0  0  0  0  0
  -26.4295  -37.3779   23.9402 N   0  0  0  0  0  0
  -24.6865  -31.0628   22.0984 N   0  0  0  0  0  0
  -23.4207  -28.8155   23.3008 O   0  0  0  0  0  0
  -28.2685  -26.4131   20.2280 O   0  0  0  0  0  0
  -26.5616  -34.8923   22.4675 O   0  0  0  0  0  0
  -23.5413  -32.1389   23.7374 O   0  0  0  0  0  0
  -28.8989  -16.9856   19.0994 C   0  0  0  0  0  0
  -28.5274  -18.2062   18.5249 C   0  0  0  0  0  0
  -29.7050  -16.9918   20.2479 C   0  0  0  0  0  0
  -29.6987  -19.3654   20.1081 C   0  0  0  0  0  0
  -27.8998  -25.3201   21.0297 C   0  0  0  0  0  0
  -28.2451  -23.9870   21.1186 C   0  0  0  0  0  0
  -29.2595  -23.1959   20.3696 C   0  0  0  0  0  0
  -31.1297  -20.7174   21.7828 C   0  0  0  0  0  0
  -30.2472  -20.7787   20.5224 C   0  0  2  0  0  0
  -28.9205  -19.3839   19.0347 N   0  0  0  0  0  0
  -30.0860  -18.2212   20.7382 N   0  0  0  0  0  0
  -29.8999  -15.7064   20.9052 N   0  0  0  0  0  0
  -29.2336  -21.8665   20.6998 N   0  0  0  0  0  0
  -30.0916  -23.6609   19.5905 O   0  0  0  0  0  0
  -27.5565  -23.2938   22.0460 O   0  0  0  0  0  0
  -31.4783  -12.4892   19.1625 H   0  0  0  0  0  0
  -30.3522  -11.3905   19.9051 H   0  0  0  0  0  0
  -29.7773  -11.7571   17.4840 H   0  0  0  0  0  0
  -29.6591  -13.4782   17.7530 H   0  0  0  0  0  0
  -27.8653  -11.2947   18.8626 H   0  0  0  0  0  0
  -27.3808  -12.5846   17.7939 H   0  0  0  0  0  0
  -27.6634  -14.2473   19.5265 H   0  0  0  0  0  0
  -28.7104  -12.0706   21.3973 H   0  0  0  0  0  0
  -28.4468  -13.7331   21.8383 H   0  0  0  0  0  0
  -25.2765   -9.5688   22.4752 H   0  0  0  0  0  0
  -24.0007   -7.4636   22.7482 H   0  0  0  0  0  0
  -21.0843   -8.8774   19.8952 H   0  0  0  0  0  0
  -22.3703  -10.9670   19.6162 H   0  0  0  0  0  0
  -21.2001   -7.6145   23.9719 H   0  0  0  0  0  0
  -21.1485   -6.0517   25.9078 H   0  0  0  0  0  0
  -22.0597   -2.7608   23.2843 H   0  0  0  0  0  0
  -22.4086  -11.9885   22.4786 H   0  0  0  0  0  0
  -21.1103  -13.1263   22.2575 H   0  0  0  0  0  0
  -24.6585  -15.8415   20.5209 H   0  0  0  0  0  0
  -26.2758  -15.6329   20.0838 H   0  0  0  0  0  0
  -26.7172  -32.5469   23.1123 H   0  0  0  0  0  0
  -25.0060  -33.9731   25.0432 H   0  0  0  0  0  0
  -22.7135  -31.3033   21.4026 H   0  0  0  0  0  0
  -23.3745  -35.9638   23.3312 H   0  0  0  0  0  0
  -24.3585  -36.8905   22.2051 H   0  0  0  0  0  0
  -23.7249  -37.6509   23.6650 H   0  0  0  0  0  0
  -26.0869  -31.5650   20.6079 H   0  0  0  0  0  0
  -26.8414  -30.8483   22.0012 H   0  0  0  0  0  0
  -28.1135  -28.9888   21.2220 H   0  0  0  0  0  0
  -26.0288  -25.9417   18.9975 H   0  0  0  0  0  0
  -23.9871  -27.3162   18.9904 H   0  0  0  0  0  0
  -23.7465  -30.5957   19.4016 H   0  0  0  0  0  0
  -22.7592  -29.2417   19.8602 H   0  0  0  0  0  0
  -25.1298  -36.1945   25.0822 H   0  0  0  0  0  0
  -20.9981  -28.3265   24.1408 H   0  0  0  0  0  0
  -20.5678  -26.2301   23.3619 H   0  0  0  0  0  0
  -21.6645  -26.7446   22.1204 H   0  0  0  0  0  0
  -19.6909  -25.6297   21.1246 H   0  0  0  0  0  0
  -19.6685  -27.3201   20.6752 H   0  0  0  0  0  0
  -17.4203  -26.6679   21.4030 H   0  0  0  0  0  0
  -18.0323  -26.0077   22.9023 H   0  0  0  0  0  0
  -19.7936  -30.7267   24.2272 H   0  0  0  0  0  0
  -17.5019  -31.6269   24.5164 H   0  0  0  0  0  0
  -15.5354  -30.2989   23.7658 H   0  0  0  0  0  0
  -15.8675  -28.0834   22.7050 H   0  0  0  0  0  0
  -24.5905  -30.7058   25.7777 H   0  0  0  0  0  0
  -24.8908  -32.2872   26.4876 H   0  0  0  0  0  0
  -25.8050  -30.8889   27.0219 H   0  0  0  0  0  0
  -26.2894  -29.6772   24.1173 H   0  0  0  0  0  0
  -27.4030  -29.7250   25.4648 H   0  0  0  0  0  0
  -27.8764  -30.4312   23.9374 H   0  0  0  0  0  0
  -27.2660  -33.3611   26.2078 H   0  0  0  0  0  0
  -28.3862  -32.6868   25.0329 H   0  0  0  0  0  0
  -28.0708  -31.8428   26.5414 H   0  0  0  0  0  0
  -28.2603  -38.0100   24.7498 H   0  0  0  0  0  0
  -28.1067  -36.2630   24.6307 H   0  0  0  0  0  0
  -27.2295  -37.1479   25.8868 H   0  0  0  0  0  0
  -20.9365  -29.8779   21.6904 H   0  0  0  0  0  0
  -26.0178  -38.2856   24.1387 H   0  0  0  0  0  0
  -28.5429  -16.0719   18.6488 H   0  0  0  0  0  0
  -27.9016  -18.2397   17.6448 H   0  0  0  0  0  0
  -27.1432  -25.6565   21.7290 H   0  0  0  0  0  0
  -31.9744  -20.0440   21.6345 H   0  0  0  0  0  0
  -30.5643  -20.3564   22.6418 H   0  0  0  0  0  0
  -31.5369  -21.6966   22.0334 H   0  0  0  0  0  0
  -30.8928  -21.0853   19.6978 H   0  0  0  0  0  0
  -29.0766  -15.4002   21.3978 H   0  0  0  0  0  0
  -28.4570  -21.6209   21.2980 H   0  0  0  0  0  0
  -26.9471  -23.8907   22.4590 H   0  0  0  0  0  0
  1 25  1  0  0  0
  1 30  2  0  0  0
  1 82  1  0  0  0
  2  3  1  0  0  0
  2 25  1  0  0  0
  2 86  1  0  0  0
  2 87  1  0  0  0
  3  4  1  0  0  0
  3 88  1  0  0  0
  3 89  1  0  0  0
  4  5  1  0  0  0
  4 90  1  0  0  0
  4 91  1  0  0  0
  5  6  1  0  0  0
  5 26  1  0  0  0
  5 92  1  0  0  0
  6 25  1  0  0  0
  6 93  1  0  0  0
  6 94  1  0  0  0
  7  8  2  0  0  0
  7 26  1  0  0  0
  7 29  1  0  0  0
  8  9  1  0  0  0
  8 22  1  0  0  0
  9 10  1  0  0  0
  9 27  2  0  0  0
 10 11  2  0  0  0
 10 15  1  0  0  0
 11 12  1  0  0  0
 11 95  1  0  0  0
 12 13  2  0  0  0
 12 96  1  0  0  0
 13 14  1  0  0  0
 13 31  1  0  0  0
 14 15  2  0  0  0
 14 97  1  0  0  0
 15 98  1  0  0  0
 16 17  2  0  0  0
 16 21  1  0  0  0
 16 31  1  0  0  0
 17 18  1  0  0  0
 17 99  1  0  0  0
 18 19  2  0  0  0
 18100  1  0  0  0
 19 20  1  0  0  0
 19 24  1  0  0  0
 20 21  2  0  0  0
 20101  1  0  0  0
 21 23  1  0  0  0
 22 28  1  0  0  0
 22 32  2  0  0  0
 26 27  1  0  0  0
 28102  1  0  0  0
 28103  1  0  0  0
 29104  1  0  0  0
 29105  1  0  0  0
 33 34  1  0  0  0
 33 66  1  0  0  0
 33 70  2  0  0  0
 34 36  1  0  0  0
 34 59  1  0  0  0
 34106  1  0  0  0
 35 44  2  0  0  0
 35 45  1  0  0  0
 35 68  1  0  0  0
 36 56  1  0  0  0
 36107  1  0  0  0
 37 39  1  0  0  0
 37 47  1  0  0  0
 37 66  1  0  0  0
 37108  1  0  0  0
 38 43  2  0  0  0
 38 46  1  0  0  0
 38 47  1  0  0  0
 39 64  1  0  0  0
 39 67  2  0  0  0
 40 52  1  0  0  0
 40 53  2  0  0  0
 40 58  1  0  0  0
 41109  1  0  0  0
 41110  1  0  0  0
 41111  1  0  0  0
 41 48  1  0  0  0
 42 43  1  0  0  0
 42 66  1  0  0  0
 42112  1  0  0  0
 42113  1  0  0  0
 43 44  1  0  0  0
 44114  1  0  0  0
 45 46  2  0  0  0
 45115  1  0  0  0
 46116  1  0  0  0
 47117  1  0  0  0
 47118  1  0  0  0
 48 56  1  0  0  0
 48 65  1  0  0  0
 48119  1  0  0  0
 49 50  1  0  0  0
 49 53  1  0  0  0
 49 64  1  0  0  0
 49120  1  0  0  0
 50 51  1  0  0  0
 50121  1  0  0  0
 50122  1  0  0  0
 51 52  1  0  0  0
 51123  1  0  0  0
 51124  1  0  0  0
 52125  1  0  0  0
 52126  1  0  0  0
 53 54  1  0  0  0
 54 55  2  0  0  0
 54127  1  0  0  0
 55 57  1  0  0  0
 55128  1  0  0  0
 56 69  2  0  0  0
 57 58  2  0  0  0
 57129  1  0  0  0
 58130  1  0  0  0
 59 60  1  0  0  0
 59 61  1  0  0  0
 59 62  1  0  0  0
 60131  1  0  0  0
 60132  1  0  0  0
 60133  1  0  0  0
 61134  1  0  0  0
 61135  1  0  0  0
 61136  1  0  0  0
 62137  1  0  0  0
 62138  1  0  0  0
 62139  1  0  0  0
 63 65  1  0  0  0
 63140  1  0  0  0
 63141  1  0  0  0
 63142  1  0  0  0
 64143  1  0  0  0
 65144  1  0  0  0
 68 75  1  0  0  0
 71 72  2  0  0  0
 71 73  1  0  0  0
 71145  1  0  0  0
 72 80  1  0  0  0
 72146  1  0  0  0
 73 81  2  0  0  0
 73 82  1  0  0  0
 74 79  1  0  0  0
 74 80  2  0  0  0
 74 81  1  0  0  0
 75 76  2  0  0  0
 75147  1  0  0  0
 76 77  1  0  0  0
 76 85  1  0  0  0
 77 83  1  0  0  0
 77 84  2  0  0  0
 78148  1  0  0  0
 78149  1  0  0  0
 78150  1  0  0  0
 78 79  1  0  0  0
 79 83  1  0  0  0
 79151  1  0  0  0
 82152  1  0  0  0
 83153  1  0  0  0
 85154  1  0  0  0
M  ISO  4   1 100  68 101  75 101  82 100
M  END
> <chiral flag>
0

> <version>
0

> <s_m_source_file>
/data/baiqing/PycharmProjects/Reinvent-master-3.2/result/LINK_invent/BTK/process_docking_weight1_custom_product_contain_oxygen_bond_distance_aromatic_linkinvent_7_9_3/rearranged_h_0165.sdf

> <i_m_source_file_index>
74

> <r_mmod_Potential_Energy-OPLS-2005>
-488.222778320312

> <r_mmod_Stretch_Energy-OPLS-2005>
71.2888641357422

> <r_mmod_Bend_Energy-OPLS-2005>
167.191513061523

> <r_mmod_Torsional_Energy-OPLS-2005>
255.37109375

> <r_mmod_Improper_Torsional_Energy-OPLS-2005>
7.90424013137817

> <r_mmod_Van_der_Waal_Energy-OPLS-2005>
156.96174621582

> <r_mmod_Electrostatic_Energy-OPLS-2005>
-933.188598632812

> <r_mmod_Solvation_Energy-OPLS-2005>
-266.559387207031

> <b_mmod_Minimization_Converged-OPLS-2005>
0

> <r_mmod_RMS_Derivative-OPLS-2005>
1.01672875881195

$$$$
75
                    3D
 Structure written by MMmdl.
159167  0  0  1  0            999 V2000
  -30.6780  -14.5234   20.5215 C   0  0  0  0  0  0
  -30.4235  -12.3242   19.4367 C   0  0  0  0  0  0
  -29.4994  -12.5054   18.2126 C   0  0  0  0  0  0
  -28.0183  -12.3728   18.6178 C   0  0  0  0  0  0
  -27.6583  -13.2180   19.8684 C   0  0  2  0  0  0
  -28.6983  -13.0248   20.9954 C   0  0  0  0  0  0
  -25.2563  -13.8203   20.5672 C   0  0  0  0  0  0
  -24.1830  -13.0467   20.9182 C   0  0  0  0  0  0
  -24.6386  -11.6929   20.8721 C   0  0  0  0  0  0
  -23.9051  -10.4306   21.0378 C   0  0  0  0  0  0
  -24.3616   -9.4222   21.9153 C   0  0  0  0  0  0
  -23.6300   -8.2252   22.0739 C   0  0  0  0  0  0
  -22.4277   -8.0277   21.3539 C   0  0  0  0  0  0
  -21.9902   -9.0245   20.4639 C   0  0  0  0  0  0
  -22.7220  -10.2132   20.3033 C   0  0  0  0  0  0
  -21.6851   -6.0723   22.5269 C   0  0  0  0  0  0
  -21.4010   -6.5628   23.8200 C   0  0  0  0  0  0
  -21.3672   -5.6788   24.9167 C   0  0  0  0  0  0
  -21.6049   -4.3048   24.7219 C   0  0  0  0  0  0
  -21.8825   -3.8133   23.4341 C   0  0  0  0  0  0
  -21.9197   -4.6951   22.3396 C   0  0  0  0  0  0
  -22.7838  -13.5229   21.1850 C   0  0  0  0  0  0
  -22.1657   -4.2131   21.0977 F   0  0  0  0  0  0
  -21.5646   -3.4537   25.7736 F   0  0  0  0  0  0
  -30.0306  -13.3243   20.4466 N   0  0  0  0  0  0
  -26.3005  -12.9394   20.3325 N   0  0  0  0  0  0
  -25.9324  -11.6541   20.5739 N   0  0  0  0  0  0
  -22.0479  -12.8231   22.0421 N   0  0  0  0  0  0
  -25.4307  -15.1923   20.4088 N   0  0  0  0  0  0
  -31.8241  -14.6758   20.0870 O   0  0  0  0  0  0
  -21.6647   -6.8867   21.4231 O   0  0  0  0  0  0
  -22.3507  -14.5513   20.6665 O   0  0  0  0  0  0
  -24.6192  -31.8681   23.2106 C   0  0  0  0  0  0
  -25.9078  -32.4814   23.8405 C   0  0  1  0  0  0
  -27.2134  -27.3912   20.0888 C   0  0  0  0  0  0
  -25.5929  -33.8612   24.2332 N   0  0  0  0  0  0
  -23.4057  -30.4980   21.5529 C   0  0  2  0  0  0
  -24.8449  -28.9681   20.1109 C   0  0  0  0  0  0
  -22.7399  -29.4695   22.4969 C   0  0  0  0  0  0
  -18.0264  -28.1377   22.8483 C   0  0  0  0  0  0
  -24.1492  -36.7313   23.2638 C   0  0  0  0  0  0
  -25.9427  -30.8190   21.3723 C   0  0  0  0  0  0
  -26.0124  -29.4547   20.7112 C   0  0  0  0  0  0
  -27.1983  -28.6756   20.6952 C   0  0  0  0  0  0
  -26.0169  -26.9403   19.4764 C   0  0  0  0  0  0
  -24.8448  -27.7106   19.4926 C   0  0  0  0  0  0
  -23.6131  -29.8429   20.1638 C   0  0  0  0  0  0
  -25.4109  -36.3106   24.0340 C   0  0  1  0  0  0
  -20.5864  -28.3688   23.1286 C   0  0  2  0  0  0
  -20.6770  -26.9419   22.5404 C   0  0  0  0  0  0
  -19.5756  -26.6389   21.5195 C   0  0  0  0  0  0
  -18.1931  -26.7925   22.1606 C   0  0  0  0  0  0
  -19.1516  -28.8836   23.2894 C   0  0  0  0  0  0
  -18.9451  -30.1433   23.8924 C   0  0  0  0  0  0
  -17.6463  -30.6586   24.0563 C   0  0  0  0  0  0
  -25.9038  -34.9468   23.5122 C   0  0  0  0  0  0
  -16.5346  -29.9095   23.6333 C   0  0  0  0  0  0
  -16.7258  -28.6504   23.0360 C   0  0  0  0  0  0
  -26.4494  -31.6593   25.0738 C   0  0  0  0  0  0
  -25.3763  -31.3719   26.1489 C   0  0  0  0  0  0
  -27.0331  -30.3023   24.6154 C   0  0  0  0  0  0
  -27.6054  -32.4323   25.7513 C   0  0  0  0  0  0
  -27.5585  -37.1802   24.8454 C   0  0  0  0  0  0
  -21.4125  -29.3068   22.3691 N   0  0  0  0  0  0
  -26.4293  -37.3794   23.9412 N   0  0  0  0  0  0
  -24.6749  -31.0764   22.1025 N   0  0  0  0  0  0
  -23.4154  -28.8222   23.3011 O   0  0  0  0  0  0
  -28.3664  -26.6094   20.1209 O   0  0  0  0  0  0
  -26.5598  -34.8922   22.4681 O   0  0  0  0  0  0
  -23.5378  -32.1452   23.7475 O   0  0  0  0  0  0
  -29.7465  -18.2499   18.3507 C   0  0  0  0  0  0
  -29.6267  -19.3917   19.1562 C   0  0  0  0  0  0
  -29.8764  -16.9930   18.9669 C   0  0  0  0  0  0
  -29.6370  -19.2420   20.5526 C   0  0  0  0  0  0
  -29.8968  -16.8871   20.3766 C   0  0  0  0  0  0
  -28.8396  -22.8193   20.9213 C   0  0  0  0  0  0
  -28.4087  -24.9097   18.3625 C   0  0  0  0  0  0
  -31.1625  -22.0470   20.5452 C   0  0  0  0  0  0
  -29.4795  -20.4592   21.4849 C   0  0  0  0  0  0
  -29.2498  -24.3157   20.7017 C   0  0  0  0  0  0
  -28.2466  -25.1783   19.8710 C   0  0  1  0  0  0
  -29.7594  -18.0126   21.1385 N   0  0  0  0  0  0
  -29.9473  -15.5766   20.9635 N   0  0  0  0  0  0
  -29.7682  -21.8187   20.9366 N   0  0  0  0  0  0
  -27.6517  -22.5802   21.1576 O   0  0  0  0  0  0
  -31.4674  -12.4221   19.1334 H   0  0  0  0  0  0
  -30.3284  -11.3149   19.8423 H   0  0  0  0  0  0
  -29.7410  -11.7695   17.4448 H   0  0  0  0  0  0
  -29.6734  -13.4840   17.7611 H   0  0  0  0  0  0
  -27.8242  -11.3187   18.8166 H   0  0  0  0  0  0
  -27.3729  -12.6459   17.7810 H   0  0  0  0  0  0
  -27.6930  -14.2629   19.5583 H   0  0  0  0  0  0
  -28.6754  -11.9970   21.3587 H   0  0  0  0  0  0
  -28.4581  -13.6509   21.8564 H   0  0  0  0  0  0
  -25.2758   -9.5705   22.4728 H   0  0  0  0  0  0
  -24.0010   -7.4643   22.7460 H   0  0  0  0  0  0
  -21.0826   -8.8747   19.8955 H   0  0  0  0  0  0
  -22.3644  -10.9668   19.6146 H   0  0  0  0  0  0
  -21.1982   -7.6131   23.9694 H   0  0  0  0  0  0
  -21.1498   -6.0517   25.9073 H   0  0  0  0  0  0
  -22.0594   -2.7592   23.2843 H   0  0  0  0  0  0
  -22.4086  -11.9914   22.4865 H   0  0  0  0  0  0
  -21.1076  -13.1233   22.2586 H   0  0  0  0  0  0
  -24.6688  -15.8530   20.5150 H   0  0  0  0  0  0
  -26.2858  -15.6263   20.0861 H   0  0  0  0  0  0
  -26.7142  -32.5510   23.1154 H   0  0  0  0  0  0
  -25.0083  -33.9789   25.0480 H   0  0  0  0  0  0
  -22.6978  -31.3191   21.4190 H   0  0  0  0  0  0
  -23.3755  -35.9643   23.3282 H   0  0  0  0  0  0
  -24.3598  -36.8943   22.2058 H   0  0  0  0  0  0
  -23.7235  -37.6505   23.6665 H   0  0  0  0  0  0
  -26.0712  -31.5894   20.6103 H   0  0  0  0  0  0
  -26.8243  -30.8592   22.0002 H   0  0  0  0  0  0
  -28.0956  -29.0470   21.1711 H   0  0  0  0  0  0
  -25.9458  -25.9882   18.9757 H   0  0  0  0  0  0
  -23.9479  -27.3306   19.0246 H   0  0  0  0  0  0
  -23.7259  -30.6248   19.4122 H   0  0  0  0  0  0
  -22.7329  -29.2709   19.8644 H   0  0  0  0  0  0
  -25.1281  -36.1973   25.0838 H   0  0  0  0  0  0
  -20.9959  -28.3266   24.1402 H   0  0  0  0  0  0
  -20.5667  -26.2299   23.3597 H   0  0  0  0  0  0
  -21.6647  -26.7473   22.1201 H   0  0  0  0  0  0
  -19.6933  -25.6299   21.1232 H   0  0  0  0  0  0
  -19.6703  -27.3187   20.6715 H   0  0  0  0  0  0
  -17.4202  -26.6652   21.4012 H   0  0  0  0  0  0
  -18.0348  -26.0062   22.9003 H   0  0  0  0  0  0
  -19.7934  -30.7221   24.2323 H   0  0  0  0  0  0
  -17.5031  -31.6275   24.5143 H   0  0  0  0  0  0
  -15.5354  -30.3013   23.7643 H   0  0  0  0  0  0
  -15.8651  -28.0823   22.7095 H   0  0  0  0  0  0
  -24.5901  -30.7109   25.7819 H   0  0  0  0  0  0
  -24.9012  -32.2891   26.4977 H   0  0  0  0  0  0
  -25.8115  -30.8841   27.0224 H   0  0  0  0  0  0
  -26.2886  -29.6771   24.1211 H   0  0  0  0  0  0
  -27.4066  -29.7279   25.4645 H   0  0  0  0  0  0
  -27.8746  -30.4301   23.9341 H   0  0  0  0  0  0
  -27.2633  -33.3587   26.2149 H   0  0  0  0  0  0
  -28.3841  -32.6955   25.0335 H   0  0  0  0  0  0
  -28.0763  -31.8431   26.5391 H   0  0  0  0  0  0
  -28.2580  -38.0127   24.7528 H   0  0  0  0  0  0
  -28.1109  -36.2653   24.6236 H   0  0  0  0  0  0
  -27.2321  -37.1396   25.8865 H   0  0  0  0  0  0
  -20.9254  -29.8809   21.6947 H   0  0  0  0  0  0
  -26.0177  -38.2873   24.1421 H   0  0  0  0  0  0
  -29.7286  -18.3385   17.2739 H   0  0  0  0  0  0
  -29.5155  -20.3653   18.6983 H   0  0  0  0  0  0
  -29.9465  -16.1178   18.3356 H   0  0  0  0  0  0
  -28.2733  -23.8517   18.1375 H   0  0  0  0  0  0
  -29.4022  -25.1976   18.0164 H   0  0  0  0  0  0
  -27.6859  -25.4594   17.7611 H   0  0  0  0  0  0
  -31.6418  -22.7626   21.2145 H   0  0  0  0  0  0
  -31.2197  -22.4234   19.5220 H   0  0  0  0  0  0
  -31.7514  -21.1310   20.5786 H   0  0  0  0  0  0
  -30.1355  -20.3115   22.3441 H   0  0  0  0  0  0
  -28.4698  -20.4051   21.8936 H   0  0  0  0  0  0
  -30.2447  -24.4148   20.2723 H   0  0  0  0  0  0
  -29.3209  -24.7511   21.6976 H   0  0  0  0  0  0
  -27.2554  -24.8472   20.1822 H   0  0  0  0  0  0
  -29.1608  -15.3464   21.5483 H   0  0  0  0  0  0
  1 25  1  0  0  0
  1 30  2  0  0  0
  1 83  1  0  0  0
  2  3  1  0  0  0
  2 25  1  0  0  0
  2 86  1  0  0  0
  2 87  1  0  0  0
  3  4  1  0  0  0
  3 88  1  0  0  0
  3 89  1  0  0  0
  4  5  1  0  0  0
  4 90  1  0  0  0
  4 91  1  0  0  0
  5  6  1  0  0  0
  5 26  1  0  0  0
  5 92  1  0  0  0
  6 25  1  0  0  0
  6 93  1  0  0  0
  6 94  1  0  0  0
  7  8  2  0  0  0
  7 26  1  0  0  0
  7 29  1  0  0  0
  8  9  1  0  0  0
  8 22  1  0  0  0
  9 10  1  0  0  0
  9 27  2  0  0  0
 10 11  2  0  0  0
 10 15  1  0  0  0
 11 12  1  0  0  0
 11 95  1  0  0  0
 12 13  2  0  0  0
 12 96  1  0  0  0
 13 14  1  0  0  0
 13 31  1  0  0  0
 14 15  2  0  0  0
 14 97  1  0  0  0
 15 98  1  0  0  0
 16 17  2  0  0  0
 16 21  1  0  0  0
 16 31  1  0  0  0
 17 18  1  0  0  0
 17 99  1  0  0  0
 18 19  2  0  0  0
 18100  1  0  0  0
 19 20  1  0  0  0
 19 24  1  0  0  0
 20 21  2  0  0  0
 20101  1  0  0  0
 21 23  1  0  0  0
 22 28  1  0  0  0
 22 32  2  0  0  0
 26 27  1  0  0  0
 28102  1  0  0  0
 28103  1  0  0  0
 29104  1  0  0  0
 29105  1  0  0  0
 33 34  1  0  0  0
 33 66  1  0  0  0
 33 70  2  0  0  0
 34 36  1  0  0  0
 34 59  1  0  0  0
 34106  1  0  0  0
 35 44  2  0  0  0
 35 45  1  0  0  0
 35 68  1  0  0  0
 36 56  1  0  0  0
 36107  1  0  0  0
 37 39  1  0  0  0
 37 47  1  0  0  0
 37 66  1  0  0  0
 37108  1  0  0  0
 38 43  2  0  0  0
 38 46  1  0  0  0
 38 47  1  0  0  0
 39 64  1  0  0  0
 39 67  2  0  0  0
 40 52  1  0  0  0
 40 53  2  0  0  0
 40 58  1  0  0  0
 41109  1  0  0  0
 41110  1  0  0  0
 41111  1  0  0  0
 41 48  1  0  0  0
 42 43  1  0  0  0
 42 66  1  0  0  0
 42112  1  0  0  0
 42113  1  0  0  0
 43 44  1  0  0  0
 44114  1  0  0  0
 45 46  2  0  0  0
 45115  1  0  0  0
 46116  1  0  0  0
 47117  1  0  0  0
 47118  1  0  0  0
 48 56  1  0  0  0
 48 65  1  0  0  0
 48119  1  0  0  0
 49 50  1  0  0  0
 49 53  1  0  0  0
 49 64  1  0  0  0
 49120  1  0  0  0
 50 51  1  0  0  0
 50121  1  0  0  0
 50122  1  0  0  0
 51 52  1  0  0  0
 51123  1  0  0  0
 51124  1  0  0  0
 52125  1  0  0  0
 52126  1  0  0  0
 53 54  1  0  0  0
 54 55  2  0  0  0
 54127  1  0  0  0
 55 57  1  0  0  0
 55128  1  0  0  0
 56 69  2  0  0  0
 57 58  2  0  0  0
 57129  1  0  0  0
 58130  1  0  0  0
 59 60  1  0  0  0
 59 61  1  0  0  0
 59 62  1  0  0  0
 60131  1  0  0  0
 60132  1  0  0  0
 60133  1  0  0  0
 61134  1  0  0  0
 61135  1  0  0  0
 61136  1  0  0  0
 62137  1  0  0  0
 62138  1  0  0  0
 62139  1  0  0  0
 63 65  1  0  0  0
 63140  1  0  0  0
 63141  1  0  0  0
 63142  1  0  0  0
 64143  1  0  0  0
 65144  1  0  0  0
 68 81  1  0  0  0
 71 72  2  0  0  0
 71 73  1  0  0  0
 71145  1  0  0  0
 72 74  1  0  0  0
 72146  1  0  0  0
 73 75  2  0  0  0
 73147  1  0  0  0
 74 79  1  0  0  0
 74 82  2  0  0  0
 75 82  1  0  0  0
 75 83  1  0  0  0
 76 80  1  0  0  0
 76 84  1  0  0  0
 76 85  2  0  0  0
 77148  1  0  0  0
 77149  1  0  0  0
 77150  1  0  0  0
 77 81  1  0  0  0
 78 84  1  0  0  0
 78151  1  0  0  0
 78152  1  0  0  0
 78153  1  0  0  0
 79 84  1  0  0  0
 79154  1  0  0  0
 79155  1  0  0  0
 80 81  1  0  0  0
 80156  1  0  0  0
 80157  1  0  0  0
 81158  1  0  0  0
 83159  1  0  0  0
M  ISO  4   1 100  68 101  81 101  83 100
M  END
> <chiral flag>
0

> <version>
0

> <s_m_source_file>
/data/baiqing/PycharmProjects/Reinvent-master-3.2/result/LINK_invent/BTK/process_docking_weight1_custom_product_contain_oxygen_bond_distance_aromatic_linkinvent_7_9_3/rearranged_h_0165.sdf

> <i_m_source_file_index>
75

> <r_mmod_Potential_Energy-OPLS-2005>
-205.274490356445

> <r_mmod_Stretch_Energy-OPLS-2005>
52.5045585632324

> <r_mmod_Bend_Energy-OPLS-2005>
108.360374450684

> <r_mmod_Torsional_Energy-OPLS-2005>
238.026077270508

> <r_mmod_Improper_Torsional_Energy-OPLS-2005>
5.4383430480957

> <r_mmod_Van_der_Waal_Energy-OPLS-2005>
166.758331298828

> <r_mmod_Electrostatic_Energy-OPLS-2005>
-560.6826171875

> <r_mmod_Solvation_Energy-OPLS-2005>
-237.402389526367

> <b_mmod_Minimization_Converged-OPLS-2005>
0

> <r_mmod_RMS_Derivative-OPLS-2005>
2.14294910430908

$$$$
76
                    3D
 Structure written by MMmdl.
154162  0  0  1  0            999 V2000
  -30.6843  -14.4740   20.5660 C   0  0  0  0  0  0
  -30.4273  -12.3019   19.4223 C   0  0  0  0  0  0
  -29.4982  -12.5052   18.2068 C   0  0  0  0  0  0
  -28.0176  -12.3678   18.6158 C   0  0  0  0  0  0
  -27.6637  -13.2019   19.8757 C   0  0  2  0  0  0
  -28.7040  -12.9691   20.9952 C   0  0  0  0  0  0
  -25.2606  -13.8157   20.5677 C   0  0  0  0  0  0
  -24.1852  -13.0444   20.9176 C   0  0  0  0  0  0
  -24.6390  -11.6908   20.8728 C   0  0  0  0  0  0
  -23.9055  -10.4297   21.0399 C   0  0  0  0  0  0
  -24.3608   -9.4213   21.9176 C   0  0  0  0  0  0
  -23.6286   -8.2250   22.0750 C   0  0  0  0  0  0
  -22.4266   -8.0286   21.3546 C   0  0  0  0  0  0
  -21.9896   -9.0259   20.4648 C   0  0  0  0  0  0
  -22.7226  -10.2137   20.3053 C   0  0  0  0  0  0
  -21.6856   -6.0732   22.5277 C   0  0  0  0  0  0
  -21.4017   -6.5636   23.8211 C   0  0  0  0  0  0
  -21.3661   -5.6785   24.9172 C   0  0  0  0  0  0
  -21.6044   -4.3048   24.7224 C   0  0  0  0  0  0
  -21.8820   -3.8143   23.4345 C   0  0  0  0  0  0
  -21.9195   -4.6960   22.3400 C   0  0  0  0  0  0
  -22.7877  -13.5255   21.1840 C   0  0  0  0  0  0
  -22.1663   -4.2148   21.0979 F   0  0  0  0  0  0
  -21.5628   -3.4534   25.7737 F   0  0  0  0  0  0
  -30.0377  -13.2807   20.4492 N   0  0  0  0  0  0
  -26.3032  -12.9310   20.3352 N   0  0  0  0  0  0
  -25.9313  -11.6477   20.5746 N   0  0  0  0  0  0
  -22.0499  -12.8261   22.0396 N   0  0  0  0  0  0
  -25.4346  -15.1874   20.4091 N   0  0  0  0  0  0
  -31.8155  -14.6572   20.1022 O   0  0  0  0  0  0
  -21.6635   -6.8878   21.4242 O   0  0  0  0  0  0
  -22.3575  -14.5566   20.6687 O   0  0  0  0  0  0
  -24.6130  -31.8685   23.2102 C   0  0  0  0  0  0
  -25.9026  -32.4825   23.8399 C   0  0  1  0  0  0
  -27.2388  -27.4435   20.1042 C   0  0  0  0  0  0
  -25.5886  -33.8623   24.2331 N   0  0  0  0  0  0
  -23.4020  -30.4898   21.5493 C   0  0  2  0  0  0
  -24.8531  -28.9546   20.1165 C   0  0  0  0  0  0
  -22.7405  -29.4653   22.4988 C   0  0  0  0  0  0
  -18.0271  -28.1375   22.8492 C   0  0  0  0  0  0
  -24.1488  -36.7320   23.2640 C   0  0  0  0  0  0
  -25.9295  -30.8361   21.3639 C   0  0  0  0  0  0
  -26.0108  -29.4698   20.7146 C   0  0  0  0  0  0
  -27.2096  -28.7206   20.7075 C   0  0  0  0  0  0
  -26.0694  -26.9375   19.5024 C   0  0  0  0  0  0
  -24.8763  -27.6864   19.5080 C   0  0  0  0  0  0
  -23.6126  -29.8190   20.1649 C   0  0  0  0  0  0
  -25.4105  -36.3111   24.0339 C   0  0  1  0  0  0
  -20.5859  -28.3663   23.1319 C   0  0  2  0  0  0
  -20.6764  -26.9399   22.5421 C   0  0  0  0  0  0
  -19.5744  -26.6380   21.5216 C   0  0  0  0  0  0
  -18.1921  -26.7923   22.1621 C   0  0  0  0  0  0
  -19.1521  -28.8835   23.2902 C   0  0  0  0  0  0
  -18.9449  -30.1443   23.8912 C   0  0  0  0  0  0
  -17.6454  -30.6581   24.0564 C   0  0  0  0  0  0
  -25.9027  -34.9474   23.5131 C   0  0  0  0  0  0
  -16.5345  -29.9087   23.6323 C   0  0  0  0  0  0
  -16.7261  -28.6501   23.0347 C   0  0  0  0  0  0
  -26.4465  -31.6601   25.0723 C   0  0  0  0  0  0
  -25.3741  -31.3720   26.1485 C   0  0  0  0  0  0
  -27.0290  -30.3041   24.6095 C   0  0  0  0  0  0
  -27.6053  -32.4317   25.7470 C   0  0  0  0  0  0
  -27.5577  -37.1813   24.8461 C   0  0  0  0  0  0
  -21.4132  -29.3029   22.3725 N   0  0  0  0  0  0
  -26.4294  -37.3790   23.9399 N   0  0  0  0  0  0
  -24.6658  -31.0789   22.0999 N   0  0  0  0  0  0
  -23.4179  -28.8193   23.3027 O   0  0  0  0  0  0
  -28.3846  -26.6851   20.0880 O   0  0  0  0  0  0
  -26.5591  -34.8923   22.4692 O   0  0  0  0  0  0
  -23.5324  -32.1436   23.7499 O   0  0  0  0  0  0
  -28.8030  -18.9890   21.1264 C   0  0  0  0  0  0
  -28.8393  -17.5833   21.2634 C   0  0  0  0  0  0
  -31.1036  -18.8866   20.4609 C   0  0  0  0  0  0
  -29.9607  -19.6767   20.7108 C   0  0  0  0  0  0
  -30.0215  -16.8676   20.9746 C   0  0  0  0  0  0
  -29.9854  -21.1515   20.5676 C   0  0  0  0  0  0
  -29.0225  -24.3590   20.6518 C   0  0  0  0  0  0
  -29.5474  -23.4083   21.7434 C   0  0  0  0  0  0
  -28.4245  -25.6979   21.1317 C   0  0  0  0  0  0
  -31.1352  -17.5348   20.5851 N   0  0  0  0  0  0
  -29.9380  -15.4519   21.1213 N   0  0  0  0  0  0
  -29.4236  -21.9429   21.5116 N   0  0  0  0  0  0
  -30.5731  -21.7210   19.5052 N   0  3  0  0  0  0
  -29.1152  -24.0749   19.4507 O   0  0  0  0  0  0
  -31.4717  -12.4023   19.1218 H   0  0  0  0  0  0
  -30.3288  -11.2888   19.8155 H   0  0  0  0  0  0
  -29.7363  -11.7812   17.4265 H   0  0  0  0  0  0
  -29.6709  -13.4904   17.7714 H   0  0  0  0  0  0
  -27.8224  -11.3117   18.8043 H   0  0  0  0  0  0
  -27.3716  -12.6515   17.7842 H   0  0  0  0  0  0
  -27.7108  -14.2509   19.5839 H   0  0  0  0  0  0
  -28.6800  -11.9283   21.3210 H   0  0  0  0  0  0
  -28.4611  -13.5514   21.8851 H   0  0  0  0  0  0
  -25.2752   -9.5694   22.4749 H   0  0  0  0  0  0
  -24.0002   -7.4640   22.7465 H   0  0  0  0  0  0
  -21.0827   -8.8780   19.8952 H   0  0  0  0  0  0
  -22.3684  -10.9678   19.6164 H   0  0  0  0  0  0
  -21.2008   -7.6140   23.9717 H   0  0  0  0  0  0
  -21.1479   -6.0511   25.9074 H   0  0  0  0  0  0
  -22.0596   -2.7605   23.2844 H   0  0  0  0  0  0
  -22.4096  -11.9921   22.4795 H   0  0  0  0  0  0
  -21.1121  -13.1309   22.2587 H   0  0  0  0  0  0
  -24.6639  -15.8393   20.5081 H   0  0  0  0  0  0
  -26.2766  -15.6222   20.0547 H   0  0  0  0  0  0
  -26.7101  -32.5550   23.1170 H   0  0  0  0  0  0
  -25.0035  -33.9794   25.0473 H   0  0  0  0  0  0
  -22.6894  -31.3049   21.4080 H   0  0  0  0  0  0
  -23.3737  -35.9668   23.3326 H   0  0  0  0  0  0
  -24.3586  -36.8911   22.2050 H   0  0  0  0  0  0
  -23.7261  -37.6540   23.6642 H   0  0  0  0  0  0
  -26.0404  -31.6008   20.5940 H   0  0  0  0  0  0
  -26.8170  -30.8928   21.9817 H   0  0  0  0  0  0
  -28.1043  -29.1136   21.1702 H   0  0  0  0  0  0
  -26.0833  -25.9634   19.0333 H   0  0  0  0  0  0
  -23.9864  -27.2837   19.0443 H   0  0  0  0  0  0
  -23.7175  -30.5924   19.4033 H   0  0  0  0  0  0
  -22.7384  -29.2352   19.8708 H   0  0  0  0  0  0
  -25.1284  -36.1982   25.0834 H   0  0  0  0  0  0
  -20.9948  -28.3239   24.1439 H   0  0  0  0  0  0
  -20.5667  -26.2272   23.3610 H   0  0  0  0  0  0
  -21.6637  -26.7447   22.1214 H   0  0  0  0  0  0
  -19.6910  -25.6295   21.1236 H   0  0  0  0  0  0
  -19.6682  -27.3198   20.6753 H   0  0  0  0  0  0
  -17.4193  -26.6675   21.4019 H   0  0  0  0  0  0
  -18.0314  -26.0058   22.9009 H   0  0  0  0  0  0
  -19.7930  -30.7252   24.2285 H   0  0  0  0  0  0
  -17.5013  -31.6266   24.5163 H   0  0  0  0  0  0
  -15.5347  -30.2996   23.7633 H   0  0  0  0  0  0
  -15.8659  -28.0821   22.7058 H   0  0  0  0  0  0
  -24.5870  -30.7120   25.7822 H   0  0  0  0  0  0
  -24.8991  -32.2890   26.4982 H   0  0  0  0  0  0
  -25.8093  -30.8835   27.0211 H   0  0  0  0  0  0
  -26.2828  -29.6802   24.1160 H   0  0  0  0  0  0
  -27.4073  -29.7281   25.4552 H   0  0  0  0  0  0
  -27.8662  -30.4362   23.9236 H   0  0  0  0  0  0
  -27.2680  -33.3601   26.2091 H   0  0  0  0  0  0
  -28.3829  -32.6902   25.0269 H   0  0  0  0  0  0
  -28.0758  -31.8416   26.5345 H   0  0  0  0  0  0
  -28.2612  -38.0092   24.7486 H   0  0  0  0  0  0
  -28.1053  -36.2626   24.6307 H   0  0  0  0  0  0
  -27.2297  -37.1494   25.8866 H   0  0  0  0  0  0
  -20.9290  -29.8752   21.6949 H   0  0  0  0  0  0
  -26.0187  -38.2874   24.1385 H   0  0  0  0  0  0
  -27.8913  -19.5287   21.3365 H   0  0  0  0  0  0
  -27.9417  -17.0692   21.5790 H   0  0  0  0  0  0
  -32.0274  -19.3511   20.1489 H   0  0  0  0  0  0
  -29.0252  -23.6439   22.6705 H   0  0  0  0  0  0
  -30.5969  -23.6418   21.9197 H   0  0  0  0  0  0
  -29.0238  -26.0820   21.9577 H   0  0  0  0  0  0
  -27.4268  -25.4999   21.5265 H   0  0  0  0  0  0
  -29.0682  -15.1180   21.5015 H   0  0  0  0  0  0
  -28.9369  -21.4720   22.2611 H   0  0  0  0  0  0
  -30.9656  -21.1721   18.7545 H   0  0  0  0  0  0
  -30.3448  -22.6875   19.2822 H   0  0  0  0  0  0
  1 25  1  0  0  0
  1 30  2  0  0  0
  1 81  1  0  0  0
  2  3  1  0  0  0
  2 25  1  0  0  0
  2 85  1  0  0  0
  2 86  1  0  0  0
  3  4  1  0  0  0
  3 87  1  0  0  0
  3 88  1  0  0  0
  4  5  1  0  0  0
  4 89  1  0  0  0
  4 90  1  0  0  0
  5  6  1  0  0  0
  5 26  1  0  0  0
  5 91  1  0  0  0
  6 25  1  0  0  0
  6 92  1  0  0  0
  6 93  1  0  0  0
  7  8  2  0  0  0
  7 26  1  0  0  0
  7 29  1  0  0  0
  8  9  1  0  0  0
  8 22  1  0  0  0
  9 10  1  0  0  0
  9 27  2  0  0  0
 10 11  2  0  0  0
 10 15  1  0  0  0
 11 12  1  0  0  0
 11 94  1  0  0  0
 12 13  2  0  0  0
 12 95  1  0  0  0
 13 14  1  0  0  0
 13 31  1  0  0  0
 14 15  2  0  0  0
 14 96  1  0  0  0
 15 97  1  0  0  0
 16 17  2  0  0  0
 16 21  1  0  0  0
 16 31  1  0  0  0
 17 18  1  0  0  0
 17 98  1  0  0  0
 18 19  2  0  0  0
 18 99  1  0  0  0
 19 20  1  0  0  0
 19 24  1  0  0  0
 20 21  2  0  0  0
 20100  1  0  0  0
 21 23  1  0  0  0
 22 28  1  0  0  0
 22 32  2  0  0  0
 26 27  1  0  0  0
 28101  1  0  0  0
 28102  1  0  0  0
 29103  1  0  0  0
 29104  1  0  0  0
 33 34  1  0  0  0
 33 66  1  0  0  0
 33 70  2  0  0  0
 34 36  1  0  0  0
 34 59  1  0  0  0
 34105  1  0  0  0
 35 44  2  0  0  0
 35 45  1  0  0  0
 35 68  1  0  0  0
 36 56  1  0  0  0
 36106  1  0  0  0
 37 39  1  0  0  0
 37 47  1  0  0  0
 37 66  1  0  0  0
 37107  1  0  0  0
 38 43  2  0  0  0
 38 46  1  0  0  0
 38 47  1  0  0  0
 39 64  1  0  0  0
 39 67  2  0  0  0
 40 52  1  0  0  0
 40 53  2  0  0  0
 40 58  1  0  0  0
 41108  1  0  0  0
 41109  1  0  0  0
 41110  1  0  0  0
 41 48  1  0  0  0
 42 43  1  0  0  0
 42 66  1  0  0  0
 42111  1  0  0  0
 42112  1  0  0  0
 43 44  1  0  0  0
 44113  1  0  0  0
 45 46  2  0  0  0
 45114  1  0  0  0
 46115  1  0  0  0
 47116  1  0  0  0
 47117  1  0  0  0
 48 56  1  0  0  0
 48 65  1  0  0  0
 48118  1  0  0  0
 49 50  1  0  0  0
 49 53  1  0  0  0
 49 64  1  0  0  0
 49119  1  0  0  0
 50 51  1  0  0  0
 50120  1  0  0  0
 50121  1  0  0  0
 51 52  1  0  0  0
 51122  1  0  0  0
 51123  1  0  0  0
 52124  1  0  0  0
 52125  1  0  0  0
 53 54  1  0  0  0
 54 55  2  0  0  0
 54126  1  0  0  0
 55 57  1  0  0  0
 55127  1  0  0  0
 56 69  2  0  0  0
 57 58  2  0  0  0
 57128  1  0  0  0
 58129  1  0  0  0
 59 60  1  0  0  0
 59 61  1  0  0  0
 59 62  1  0  0  0
 60130  1  0  0  0
 60131  1  0  0  0
 60132  1  0  0  0
 61133  1  0  0  0
 61134  1  0  0  0
 61135  1  0  0  0
 62136  1  0  0  0
 62137  1  0  0  0
 62138  1  0  0  0
 63 65  1  0  0  0
 63139  1  0  0  0
 63140  1  0  0  0
 63141  1  0  0  0
 64142  1  0  0  0
 65143  1  0  0  0
 68 79  1  0  0  0
 71 72  2  0  0  0
 71 74  1  0  0  0
 71144  1  0  0  0
 72 75  1  0  0  0
 72145  1  0  0  0
 73 74  2  0  0  0
 73 80  1  0  0  0
 73146  1  0  0  0
 74 76  1  0  0  0
 75 80  2  0  0  0
 75 81  1  0  0  0
 76 82  1  0  0  0
 76 83  2  0  0  0
 77 78  1  0  0  0
 77 79  1  0  0  0
 77 84  2  0  0  0
 78 82  1  0  0  0
 78147  1  0  0  0
 78148  1  0  0  0
 79149  1  0  0  0
 79150  1  0  0  0
 81151  1  0  0  0
 82152  1  0  0  0
 83153  1  0  0  0
 83154  1  0  0  0
M  CHG  1  83   1
M  ISO  4   1 100  68 101  79 101  81 100
M  END
> <chiral flag>
0

> <version>
0

> <s_m_source_file>
/data/baiqing/PycharmProjects/Reinvent-master-3.2/result/LINK_invent/BTK/process_docking_weight1_custom_product_contain_oxygen_bond_distance_aromatic_linkinvent_7_9_3/rearranged_h_0165.sdf

> <i_m_source_file_index>
76

> <r_mmod_Potential_Energy-OPLS-2005>
-311.925354003906

> <r_mmod_Stretch_Energy-OPLS-2005>
37.8552703857422

> <r_mmod_Bend_Energy-OPLS-2005>
103.275749206543

> <r_mmod_Torsional_Energy-OPLS-2005>
234.425888061523

> <r_mmod_Improper_Torsional_Energy-OPLS-2005>
5.08317899703979

> <r_mmod_Van_der_Waal_Energy-OPLS-2005>
156.317596435547

> <r_mmod_Electrostatic_Energy-OPLS-2005>
-364.305908203125

> <r_mmod_Solvation_Energy-OPLS-2005>
-496.389526367188

> <b_mmod_Minimization_Converged-OPLS-2005>
0

> <r_mmod_RMS_Derivative-OPLS-2005>
0.868173658847809

$$$$
77
                    3D
 Structure written by MMmdl.
156165  0  0  1  0            999 V2000
  -30.6356  -14.6745   20.4408 C   0  0  0  0  0  0
  -30.4222  -12.4012   19.4735 C   0  0  0  0  0  0
  -29.5054  -12.4971   18.2351 C   0  0  0  0  0  0
  -28.0262  -12.3459   18.6421 C   0  0  0  0  0  0
  -27.6448  -13.2306   19.8589 C   0  0  2  0  0  0
  -28.6891  -13.1334   20.9929 C   0  0  0  0  0  0
  -25.2509  -13.8206   20.5697 C   0  0  0  0  0  0
  -24.1796  -13.0444   20.9194 C   0  0  0  0  0  0
  -24.6379  -11.6921   20.8732 C   0  0  0  0  0  0
  -23.9049  -10.4300   21.0395 C   0  0  0  0  0  0
  -24.3605   -9.4220   21.9171 C   0  0  0  0  0  0
  -23.6288   -8.2252   22.0746 C   0  0  0  0  0  0
  -22.4264   -8.0281   21.3539 C   0  0  0  0  0  0
  -21.9889   -9.0257   20.4642 C   0  0  0  0  0  0
  -22.7212  -10.2140   20.3051 C   0  0  0  0  0  0
  -21.6856   -6.0740   22.5275 C   0  0  0  0  0  0
  -21.4012   -6.5642   23.8208 C   0  0  0  0  0  0
  -21.3668   -5.6791   24.9172 C   0  0  0  0  0  0
  -21.6049   -4.3057   24.7215 C   0  0  0  0  0  0
  -21.8815   -3.8150   23.4332 C   0  0  0  0  0  0
  -21.9190   -4.6969   22.3392 C   0  0  0  0  0  0
  -22.7814  -13.5237   21.1840 C   0  0  0  0  0  0
  -22.1654   -4.2156   21.0970 F   0  0  0  0  0  0
  -21.5637   -3.4536   25.7729 F   0  0  0  0  0  0
  -29.9995  -13.4576   20.4197 N   0  0  0  0  0  0
  -26.2941  -12.9405   20.3322 N   0  0  0  0  0  0
  -25.9318  -11.6544   20.5769 N   0  0  0  0  0  0
  -22.0465  -12.8248   22.0419 N   0  0  0  0  0  0
  -25.4214  -15.1929   20.4123 N   0  0  0  0  0  0
  -31.8292  -14.7512   20.1286 O   0  0  0  0  0  0
  -21.6635   -6.8881   21.4234 O   0  0  0  0  0  0
  -22.3508  -14.5539   20.6692 O   0  0  0  0  0  0
  -24.6283  -31.8546   23.1997 C   0  0  0  0  0  0
  -25.9114  -32.4761   23.8329 C   0  0  1  0  0  0
  -27.2292  -27.2888   20.1173 C   0  0  0  0  0  0
  -25.5917  -33.8566   24.2244 N   0  0  0  0  0  0
  -23.4242  -30.4772   21.5415 C   0  0  2  0  0  0
  -24.8713  -28.9265   20.1089 C   0  0  0  0  0  0
  -22.7489  -29.4600   22.4926 C   0  0  0  0  0  0
  -18.0291  -28.1377   22.8498 C   0  0  0  0  0  0
  -24.1487  -36.7288   23.2642 C   0  0  0  0  0  0
  -25.9670  -30.7742   21.3773 C   0  0  0  0  0  0
  -26.0390  -29.3997   20.7188 C   0  0  0  0  0  0
  -27.2154  -28.5891   20.7192 C   0  0  0  0  0  0
  -26.0306  -26.8664   19.4984 C   0  0  0  0  0  0
  -24.8709  -27.6658   19.4918 C   0  0  0  0  0  0
  -23.6392  -29.8072   20.1588 C   0  0  0  0  0  0
  -25.4117  -36.3072   24.0319 C   0  0  1  0  0  0
  -20.5893  -28.3687   23.1280 C   0  0  2  0  0  0
  -20.6773  -26.9405   22.5415 C   0  0  0  0  0  0
  -19.5749  -26.6378   21.5226 C   0  0  0  0  0  0
  -18.1933  -26.7920   22.1631 C   0  0  0  0  0  0
  -19.1539  -28.8856   23.2889 C   0  0  0  0  0  0
  -18.9456  -30.1465   23.8897 C   0  0  0  0  0  0
  -17.6451  -30.6583   24.0572 C   0  0  0  0  0  0
  -25.9058  -34.9446   23.5086 C   0  0  0  0  0  0
  -16.5349  -29.9077   23.6332 C   0  0  0  0  0  0
  -16.7278  -28.6490   23.0367 C   0  0  0  0  0  0
  -26.4484  -31.6591   25.0721 C   0  0  0  0  0  0
  -25.3699  -31.3753   26.1441 C   0  0  0  0  0  0
  -27.0330  -30.2994   24.6234 C   0  0  0  0  0  0
  -27.6050  -32.4330   25.7480 C   0  0  0  0  0  0
  -27.5578  -37.1798   24.8450 C   0  0  0  0  0  0
  -21.4200  -29.3039   22.3670 N   0  0  0  0  0  0
  -26.4285  -37.3769   23.9403 N   0  0  0  0  0  0
  -24.6912  -31.0545   22.0949 N   0  0  0  0  0  0
  -23.4192  -28.8144   23.3025 O   0  0  0  0  0  0
  -28.3487  -26.4369   20.2113 O   0  0  0  0  0  0
  -26.5640  -34.8909   22.4665 O   0  0  0  0  0  0
  -23.5444  -32.1374   23.7306 O   0  0  0  0  0  0
  -29.8829  -19.1414   17.9118 C   0  0  0  0  0  0
  -30.2128  -16.8110   18.4065 C   0  0  0  0  0  0
  -30.2041  -17.8549   17.4836 C   0  0  0  0  0  0
  -29.5648  -19.3971   19.2628 C   0  0  0  0  0  0
  -29.9123  -17.0373   19.7668 C   0  0  0  0  0  0
  -28.6272  -23.7408   19.8886 C   0  0  0  0  0  0
  -30.0407  -23.2117   20.2911 C   0  0  0  0  0  0
  -27.8114  -21.4313   19.9418 C   0  0  0  0  0  0
  -29.2469  -20.9361   19.5789 C   0  0  1  0  0  0
  -28.5334  -25.2461   19.3400 C   0  0  0  0  0  0
  -29.5845  -18.3383   20.1739 N   0  0  0  0  0  0
  -27.6322  -22.9164   19.7876 N   0  0  0  0  0  0
  -29.8757  -15.8200   20.5960 N   0  0  0  0  0  0
  -30.1787  -21.7098   20.4247 N   0  3  0  0  0  0
  -30.4944  -17.6172   16.1827 F   0  0  0  0  0  0
  -31.4671  -12.4994   19.1736 H   0  0  0  0  0  0
  -30.3404  -11.4155   19.9353 H   0  0  0  0  0  0
  -29.7745  -11.7315   17.5066 H   0  0  0  0  0  0
  -29.6560  -13.4560   17.7390 H   0  0  0  0  0  0
  -27.8555  -11.2970   18.8822 H   0  0  0  0  0  0
  -27.3742  -12.5704   17.7967 H   0  0  0  0  0  0
  -27.6481  -14.2582   19.4962 H   0  0  0  0  0  0
  -28.7038  -12.1295   21.4195 H   0  0  0  0  0  0
  -28.4389  -13.8092   21.8113 H   0  0  0  0  0  0
  -25.2745   -9.5712   22.4752 H   0  0  0  0  0  0
  -23.9999   -7.4646   22.7462 H   0  0  0  0  0  0
  -21.0814   -8.8766   19.8962 H   0  0  0  0  0  0
  -22.3645  -10.9676   19.6172 H   0  0  0  0  0  0
  -21.2011   -7.6152   23.9712 H   0  0  0  0  0  0
  -21.1491   -6.0526   25.9079 H   0  0  0  0  0  0
  -22.0592   -2.7613   23.2822 H   0  0  0  0  0  0
  -22.4046  -11.9893   22.4796 H   0  0  0  0  0  0
  -21.1108  -13.1311   22.2644 H   0  0  0  0  0  0
  -24.6518  -15.8458   20.5144 H   0  0  0  0  0  0
  -26.2767  -15.6345   20.1006 H   0  0  0  0  0  0
  -26.7190  -32.5402   23.1080 H   0  0  0  0  0  0
  -25.0032  -33.9700   25.0365 H   0  0  0  0  0  0
  -22.7191  -31.2977   21.3954 H   0  0  0  0  0  0
  -23.3745  -35.9623   23.3303 H   0  0  0  0  0  0
  -24.3585  -36.8919   22.2059 H   0  0  0  0  0  0
  -23.7238  -37.6485   23.6676 H   0  0  0  0  0  0
  -26.1083  -31.5375   20.6106 H   0  0  0  0  0  0
  -26.8429  -30.8204   22.0133 H   0  0  0  0  0  0
  -28.1076  -28.9456   21.2139 H   0  0  0  0  0  0
  -25.9437  -25.8875   19.0517 H   0  0  0  0  0  0
  -23.9718  -27.2891   19.0227 H   0  0  0  0  0  0
  -23.7558  -30.5787   19.3977 H   0  0  0  0  0  0
  -22.7595  -29.2337   19.8620 H   0  0  0  0  0  0
  -25.1308  -36.1915   25.0811 H   0  0  0  0  0  0
  -21.0008  -28.3267   24.1391 H   0  0  0  0  0  0
  -20.5686  -26.2300   23.3623 H   0  0  0  0  0  0
  -21.6636  -26.7435   22.1200 H   0  0  0  0  0  0
  -19.6907  -25.6292   21.1259 H   0  0  0  0  0  0
  -19.6679  -27.3186   20.6757 H   0  0  0  0  0  0
  -17.4202  -26.6692   21.4030 H   0  0  0  0  0  0
  -18.0321  -26.0057   22.9017 H   0  0  0  0  0  0
  -19.7935  -30.7296   24.2247 H   0  0  0  0  0  0
  -17.5002  -31.6263   24.5175 H   0  0  0  0  0  0
  -15.5349  -30.2979   23.7660 H   0  0  0  0  0  0
  -15.8676  -28.0815   22.7078 H   0  0  0  0  0  0
  -24.5858  -30.7130   25.7741 H   0  0  0  0  0  0
  -24.8913  -32.2938   26.4853 H   0  0  0  0  0  0
  -25.7993  -30.8908   27.0221 H   0  0  0  0  0  0
  -26.2917  -29.6743   24.1240 H   0  0  0  0  0  0
  -27.3962  -29.7260   25.4774 H   0  0  0  0  0  0
  -27.8818  -30.4235   23.9505 H   0  0  0  0  0  0
  -27.2655  -33.3602   26.2098 H   0  0  0  0  0  0
  -28.3826  -32.6944   25.0293 H   0  0  0  0  0  0
  -28.0772  -31.8447   26.5356 H   0  0  0  0  0  0
  -28.2595  -38.0096   24.7512 H   0  0  0  0  0  0
  -28.1074  -36.2637   24.6255 H   0  0  0  0  0  0
  -27.2311  -37.1423   25.8853 H   0  0  0  0  0  0
  -20.9377  -29.8756   21.6872 H   0  0  0  0  0  0
  -26.0165  -38.2836   24.1415 H   0  0  0  0  0  0
  -29.8794  -19.9217   17.1637 H   0  0  0  0  0  0
  -30.4443  -15.8269   18.0297 H   0  0  0  0  0  0
  -30.3471  -23.6877   21.2230 H   0  0  0  0  0  0
  -30.7535  -23.5426   19.5348 H   0  0  0  0  0  0
  -27.5430  -21.1104   20.9492 H   0  0  0  0  0  0
  -27.1083  -20.9264   19.2793 H   0  0  0  0  0  0
  -29.4084  -21.3926   18.6019 H   0  0  0  0  0  0
  -27.8447  -25.2521   18.4980 H   0  0  0  0  0  0
  -29.4894  -25.4390   18.8531 H   0  0  0  0  0  0
  -29.0225  -15.7004   21.1190 H   0  0  0  0  0  0
  -29.9948  -21.4465   21.3775 H   0  0  0  0  0  0
  -31.1226  -21.4376   20.2088 H   0  0  0  0  0  0
  1 25  1  0  0  0
  1 30  2  0  0  0
  1 83  1  0  0  0
  2  3  1  0  0  0
  2 25  1  0  0  0
  2 86  1  0  0  0
  2 87  1  0  0  0
  3  4  1  0  0  0
  3 88  1  0  0  0
  3 89  1  0  0  0
  4  5  1  0  0  0
  4 90  1  0  0  0
  4 91  1  0  0  0
  5  6  1  0  0  0
  5 26  1  0  0  0
  5 92  1  0  0  0
  6 25  1  0  0  0
  6 93  1  0  0  0
  6 94  1  0  0  0
  7  8  2  0  0  0
  7 26  1  0  0  0
  7 29  1  0  0  0
  8  9  1  0  0  0
  8 22  1  0  0  0
  9 10  1  0  0  0
  9 27  2  0  0  0
 10 11  2  0  0  0
 10 15  1  0  0  0
 11 12  1  0  0  0
 11 95  1  0  0  0
 12 13  2  0  0  0
 12 96  1  0  0  0
 13 14  1  0  0  0
 13 31  1  0  0  0
 14 15  2  0  0  0
 14 97  1  0  0  0
 15 98  1  0  0  0
 16 17  2  0  0  0
 16 21  1  0  0  0
 16 31  1  0  0  0
 17 18  1  0  0  0
 17 99  1  0  0  0
 18 19  2  0  0  0
 18100  1  0  0  0
 19 20  1  0  0  0
 19 24  1  0  0  0
 20 21  2  0  0  0
 20101  1  0  0  0
 21 23  1  0  0  0
 22 28  1  0  0  0
 22 32  2  0  0  0
 26 27  1  0  0  0
 28102  1  0  0  0
 28103  1  0  0  0
 29104  1  0  0  0
 29105  1  0  0  0
 33 34  1  0  0  0
 33 66  1  0  0  0
 33 70  2  0  0  0
 34 36  1  0  0  0
 34 59  1  0  0  0
 34106  1  0  0  0
 35 44  2  0  0  0
 35 45  1  0  0  0
 35 68  1  0  0  0
 36 56  1  0  0  0
 36107  1  0  0  0
 37 39  1  0  0  0
 37 47  1  0  0  0
 37 66  1  0  0  0
 37108  1  0  0  0
 38 43  2  0  0  0
 38 46  1  0  0  0
 38 47  1  0  0  0
 39 64  1  0  0  0
 39 67  2  0  0  0
 40 52  1  0  0  0
 40 53  2  0  0  0
 40 58  1  0  0  0
 41109  1  0  0  0
 41110  1  0  0  0
 41111  1  0  0  0
 41 48  1  0  0  0
 42 43  1  0  0  0
 42 66  1  0  0  0
 42112  1  0  0  0
 42113  1  0  0  0
 43 44  1  0  0  0
 44114  1  0  0  0
 45 46  2  0  0  0
 45115  1  0  0  0
 46116  1  0  0  0
 47117  1  0  0  0
 47118  1  0  0  0
 48 56  1  0  0  0
 48 65  1  0  0  0
 48119  1  0  0  0
 49 50  1  0  0  0
 49 53  1  0  0  0
 49 64  1  0  0  0
 49120  1  0  0  0
 50 51  1  0  0  0
 50121  1  0  0  0
 50122  1  0  0  0
 51 52  1  0  0  0
 51123  1  0  0  0
 51124  1  0  0  0
 52125  1  0  0  0
 52126  1  0  0  0
 53 54  1  0  0  0
 54 55  2  0  0  0
 54127  1  0  0  0
 55 57  1  0  0  0
 55128  1  0  0  0
 56 69  2  0  0  0
 57 58  2  0  0  0
 57129  1  0  0  0
 58130  1  0  0  0
 59 60  1  0  0  0
 59 61  1  0  0  0
 59 62  1  0  0  0
 60131  1  0  0  0
 60132  1  0  0  0
 60133  1  0  0  0
 61134  1  0  0  0
 61135  1  0  0  0
 61136  1  0  0  0
 62137  1  0  0  0
 62138  1  0  0  0
 62139  1  0  0  0
 63 65  1  0  0  0
 63140  1  0  0  0
 63141  1  0  0  0
 63142  1  0  0  0
 64143  1  0  0  0
 65144  1  0  0  0
 68 80  1  0  0  0
 71 73  2  0  0  0
 71 74  1  0  0  0
 71145  1  0  0  0
 72 73  1  0  0  0
 72 75  2  0  0  0
 72146  1  0  0  0
 73 85  1  0  0  0
 74 81  2  0  0  0
 74 79  1  0  0  0
 75 81  1  0  0  0
 75 83  1  0  0  0
 76 77  1  0  0  0
 76 80  1  0  0  0
 76 82  2  0  0  0
 77 84  1  0  0  0
 77147  1  0  0  0
 77148  1  0  0  0
 78 79  1  0  0  0
 78 82  1  0  0  0
 78149  1  0  0  0
 78150  1  0  0  0
 79 84  1  0  0  0
 79151  1  0  0  0
 80152  1  0  0  0
 80153  1  0  0  0
 83154  1  0  0  0
 84155  1  0  0  0
 84156  1  0  0  0
M  CHG  1  84   1
M  ISO  4   1 100  68 101  80 101  83 100
M  END
> <chiral flag>
0

> <version>
0

> <s_m_source_file>
/data/baiqing/PycharmProjects/Reinvent-master-3.2/result/LINK_invent/BTK/process_docking_weight1_custom_product_contain_oxygen_bond_distance_aromatic_linkinvent_7_9_3/rearranged_h_0165.sdf

> <i_m_source_file_index>
77

> <r_mmod_Potential_Energy-OPLS-2005>
-240.603408813477

> <r_mmod_Stretch_Energy-OPLS-2005>
113.54248046875

> <r_mmod_Bend_Energy-OPLS-2005>
193.889083862305

> <r_mmod_Torsional_Energy-OPLS-2005>
244.157196044922

> <r_mmod_Improper_Torsional_Energy-OPLS-2005>
10.3234777450562

> <r_mmod_Van_der_Waal_Energy-OPLS-2005>
160.488952636719

> <r_mmod_Electrostatic_Energy-OPLS-2005>
-512.919677734375

> <r_mmod_Solvation_Energy-OPLS-2005>
-514.100341796875

> <b_mmod_Minimization_Converged-OPLS-2005>
0

> <r_mmod_RMS_Derivative-OPLS-2005>
2.50137996673584

$$$$
78
                    3D
 Structure written by MMmdl.
162170  0  0  1  0            999 V2000
  -30.7559  -14.3855   20.6387 C   0  0  0  0  0  0
  -30.4097  -12.2822   19.4030 C   0  0  0  0  0  0
  -29.4829  -12.5155   18.1953 C   0  0  0  0  0  0
  -28.0056  -12.3807   18.6099 C   0  0  0  0  0  0
  -27.6629  -13.2058   19.8792 C   0  0  2  0  0  0
  -28.7021  -12.9583   20.9954 C   0  0  0  0  0  0
  -25.2592  -13.8169   20.5678 C   0  0  0  0  0  0
  -24.1838  -13.0446   20.9175 C   0  0  0  0  0  0
  -24.6391  -11.6910   20.8738 C   0  0  0  0  0  0
  -23.9064  -10.4295   21.0408 C   0  0  0  0  0  0
  -24.3612   -9.4208   21.9184 C   0  0  0  0  0  0
  -23.6290   -8.2246   22.0756 C   0  0  0  0  0  0
  -22.4278   -8.0284   21.3544 C   0  0  0  0  0  0
  -21.9907   -9.0260   20.4651 C   0  0  0  0  0  0
  -22.7237  -10.2139   20.3056 C   0  0  0  0  0  0
  -21.6848   -6.0737   22.5283 C   0  0  0  0  0  0
  -21.4009   -6.5640   23.8216 C   0  0  0  0  0  0
  -21.3661   -5.6793   24.9180 C   0  0  0  0  0  0
  -21.6046   -4.3057   24.7231 C   0  0  0  0  0  0
  -21.8819   -3.8150   23.4352 C   0  0  0  0  0  0
  -21.9191   -4.6964   22.3406 C   0  0  0  0  0  0
  -22.7862  -13.5248   21.1850 C   0  0  0  0  0  0
  -22.1661   -4.2147   21.0983 F   0  0  0  0  0  0
  -21.5632   -3.4546   25.7745 F   0  0  0  0  0  0
  -30.0392  -13.2476   20.4482 N   0  0  0  0  0  0
  -26.3024  -12.9334   20.3382 N   0  0  0  0  0  0
  -25.9311  -11.6497   20.5762 N   0  0  0  0  0  0
  -22.0501  -12.8234   22.0394 N   0  0  0  0  0  0
  -25.4339  -15.1887   20.4092 N   0  0  0  0  0  0
  -31.8254  -14.6038   20.0606 O   0  0  0  0  0  0
  -21.6640   -6.8883   21.4246 O   0  0  0  0  0  0
  -22.3546  -14.5558   20.6711 O   0  0  0  0  0  0
  -24.6114  -31.8699   23.2105 C   0  0  0  0  0  0
  -25.9013  -32.4826   23.8391 C   0  0  1  0  0  0
  -27.2403  -27.4462   20.0819 C   0  0  0  0  0  0
  -25.5881  -33.8623   24.2327 N   0  0  0  0  0  0
  -23.3998  -30.4925   21.5515 C   0  0  2  0  0  0
  -24.8454  -28.9561   20.1190 C   0  0  0  0  0  0
  -22.7390  -29.4668   22.5002 C   0  0  0  0  0  0
  -18.0271  -28.1375   22.8511 C   0  0  0  0  0  0
  -24.1490  -36.7309   23.2640 C   0  0  0  0  0  0
  -25.9281  -30.8358   21.3646 C   0  0  0  0  0  0
  -26.0039  -29.4704   20.7121 C   0  0  0  0  0  0
  -27.1996  -28.7202   20.6935 C   0  0  0  0  0  0
  -26.0553  -26.9373   19.4984 C   0  0  0  0  0  0
  -24.8645  -27.6877   19.5148 C   0  0  0  0  0  0
  -23.6074  -29.8213   20.1679 C   0  0  0  0  0  0
  -25.4111  -36.3107   24.0341 C   0  0  1  0  0  0
  -20.5856  -28.3655   23.1336 C   0  0  2  0  0  0
  -20.6760  -26.9395   22.5426 C   0  0  0  0  0  0
  -19.5740  -26.6383   21.5218 C   0  0  0  0  0  0
  -18.1913  -26.7933   22.1625 C   0  0  0  0  0  0
  -19.1520  -28.8828   23.2927 C   0  0  0  0  0  0
  -18.9450  -30.1436   23.8936 C   0  0  0  0  0  0
  -17.6452  -30.6591   24.0570 C   0  0  0  0  0  0
  -25.9033  -34.9475   23.5130 C   0  0  0  0  0  0
  -16.5342  -29.9094   23.6329 C   0  0  0  0  0  0
  -16.7262  -28.6501   23.0371 C   0  0  0  0  0  0
  -26.4454  -31.6601   25.0713 C   0  0  0  0  0  0
  -25.3730  -31.3716   26.1477 C   0  0  0  0  0  0
  -27.0276  -30.3037   24.6088 C   0  0  0  0  0  0
  -27.6040  -32.4313   25.7462 C   0  0  0  0  0  0
  -27.5588  -37.1808   24.8465 C   0  0  0  0  0  0
  -21.4116  -29.3028   22.3736 N   0  0  0  0  0  0
  -26.4300  -37.3789   23.9409 N   0  0  0  0  0  0
  -24.6646  -31.0800   22.1003 N   0  0  0  0  0  0
  -23.4164  -28.8210   23.3041 O   0  0  0  0  0  0
  -28.4456  -26.7721   20.0824 O   0  0  0  0  0  0
  -26.5593  -34.8916   22.4692 O   0  0  0  0  0  0
  -23.5310  -32.1444   23.7505 O   0  0  0  0  0  0
  -30.0185  -17.7206   21.8051 C   0  0  0  0  0  0
  -32.1358  -16.6016   22.2588 C   0  0  0  0  0  0
  -31.9519  -19.0183   22.5734 C   0  0  0  0  0  0
  -30.7905  -16.5376   21.8313 C   0  0  0  0  0  0
  -30.5963  -18.9695   22.1512 C   0  0  0  0  0  0
  -32.7126  -17.8292   22.6211 C   0  0  0  0  0  0
  -28.2106  -24.3932   20.6781 C   0  0  0  0  0  0
  -28.9054  -20.5800   21.2626 C   0  0  0  0  0  0
  -33.0838  -21.1337   21.7362 C   0  0  0  0  0  0
  -32.6187  -20.3337   22.9607 C   0  0  0  0  0  0
  -28.4219  -22.9156   20.3204 C   0  0  0  0  0  0
  -28.5305  -25.4275   19.5850 C   0  0  0  0  0  0
  -28.2775  -21.9522   21.5228 C   0  0  0  0  0  0
  -29.8375  -20.1764   22.1426 N   0  0  0  0  0  0
  -30.2005  -15.2988   21.4526 N   0  0  0  0  0  0
  -27.8081  -24.7338   21.7961 O   0  0  0  0  0  0
  -28.5463  -19.9174   20.2863 O   0  0  0  0  0  0
  -34.0101  -17.8579   23.0130 F   0  0  0  0  0  0
  -31.4547  -12.3673   19.0989 H   0  0  0  0  0  0
  -30.2965  -11.2643   19.7802 H   0  0  0  0  0  0
  -29.7140  -11.8070   17.3987 H   0  0  0  0  0  0
  -29.6601  -13.5096   17.7818 H   0  0  0  0  0  0
  -27.8055  -11.3236   18.7882 H   0  0  0  0  0  0
  -27.3569  -12.6766   17.7847 H   0  0  0  0  0  0
  -27.7182  -14.2586   19.6011 H   0  0  0  0  0  0
  -28.6637  -11.9166   21.3190 H   0  0  0  0  0  0
  -28.4609  -13.5427   21.8838 H   0  0  0  0  0  0
  -25.2760   -9.5682   22.4758 H   0  0  0  0  0  0
  -24.0005   -7.4631   22.7466 H   0  0  0  0  0  0
  -21.0846   -8.8780   19.8948 H   0  0  0  0  0  0
  -22.3705  -10.9678   19.6164 H   0  0  0  0  0  0
  -21.1994   -7.6145   23.9718 H   0  0  0  0  0  0
  -21.1486   -6.0526   25.9082 H   0  0  0  0  0  0
  -22.0594   -2.7610   23.2857 H   0  0  0  0  0  0
  -22.4111  -11.9886   22.4769 H   0  0  0  0  0  0
  -21.1116  -13.1258   22.2609 H   0  0  0  0  0  0
  -24.6732  -15.8508   20.5190 H   0  0  0  0  0  0
  -26.2946  -15.6235   20.0987 H   0  0  0  0  0  0
  -26.7087  -32.5559   23.1157 H   0  0  0  0  0  0
  -25.0020  -33.9782   25.0465 H   0  0  0  0  0  0
  -22.6891  -31.3093   21.4100 H   0  0  0  0  0  0
  -23.3746  -35.9644   23.3291 H   0  0  0  0  0  0
  -24.3579  -36.8934   22.2052 H   0  0  0  0  0  0
  -23.7236  -37.6512   23.6657 H   0  0  0  0  0  0
  -26.0391  -31.6024   20.5972 H   0  0  0  0  0  0
  -26.8172  -30.8885   21.9814 H   0  0  0  0  0  0
  -28.0958  -29.1150   21.1507 H   0  0  0  0  0  0
  -26.0205  -25.9684   19.0243 H   0  0  0  0  0  0
  -23.9706  -27.2827   19.0603 H   0  0  0  0  0  0
  -23.7112  -30.5934   19.4053 H   0  0  0  0  0  0
  -22.7339  -29.2361   19.8765 H   0  0  0  0  0  0
  -25.1285  -36.1972   25.0832 H   0  0  0  0  0  0
  -20.9968  -28.3226   24.1449 H   0  0  0  0  0  0
  -20.5664  -26.2263   23.3605 H   0  0  0  0  0  0
  -21.6630  -26.7442   22.1218 H   0  0  0  0  0  0
  -19.6901  -25.6294   21.1236 H   0  0  0  0  0  0
  -19.6685  -27.3205   20.6751 H   0  0  0  0  0  0
  -17.4188  -26.6697   21.4020 H   0  0  0  0  0  0
  -18.0301  -26.0061   22.9004 H   0  0  0  0  0  0
  -19.7925  -30.7242   24.2328 H   0  0  0  0  0  0
  -17.5013  -31.6285   24.5152 H   0  0  0  0  0  0
  -15.5349  -30.3016   23.7634 H   0  0  0  0  0  0
  -15.8658  -28.0832   22.7087 H   0  0  0  0  0  0
  -24.5899  -30.7061   25.7824 H   0  0  0  0  0  0
  -24.8920  -32.2877   26.4919 H   0  0  0  0  0  0
  -25.8091  -30.8897   27.0236 H   0  0  0  0  0  0
  -26.2820  -29.6807   24.1139 H   0  0  0  0  0  0
  -27.4036  -29.7262   25.4539 H   0  0  0  0  0  0
  -27.8651  -30.4330   23.9229 H   0  0  0  0  0  0
  -27.2671  -33.3613   26.2048 H   0  0  0  0  0  0
  -28.3838  -32.6875   25.0277 H   0  0  0  0  0  0
  -28.0716  -31.8431   26.5367 H   0  0  0  0  0  0
  -28.2612  -38.0101   24.7514 H   0  0  0  0  0  0
  -28.1081  -36.2633   24.6293 H   0  0  0  0  0  0
  -27.2307  -37.1466   25.8870 H   0  0  0  0  0  0
  -20.9253  -29.8747   21.6970 H   0  0  0  0  0  0
  -26.0192  -38.2870   24.1404 H   0  0  0  0  0  0
  -28.9805  -17.6702   21.5072 H   0  0  0  0  0  0
  -32.7440  -15.7097   22.3068 H   0  0  0  0  0  0
  -33.5867  -22.0523   22.0394 H   0  0  0  0  0  0
  -32.2448  -21.4107   21.0974 H   0  0  0  0  0  0
  -33.7852  -20.5560   21.1328 H   0  0  0  0  0  0
  -33.4744  -20.1333   23.6065 H   0  0  0  0  0  0
  -31.9394  -20.9316   23.5683 H   0  0  0  0  0  0
  -29.4200  -22.8181   19.8925 H   0  0  0  0  0  0
  -27.7181  -22.6421   19.5342 H   0  0  0  0  0  0
  -27.9184  -25.2607   18.7004 H   0  0  0  0  0  0
  -29.5599  -25.2590   19.2689 H   0  0  0  0  0  0
  -28.7345  -22.3846   22.4148 H   0  0  0  0  0  0
  -27.2222  -21.8116   21.7586 H   0  0  0  0  0  0
  -30.1045  -20.8684   22.8279 H   0  0  0  0  0  0
  -29.2561  -15.1146   21.7562 H   0  0  0  0  0  0
  1 25  1  0  0  0
  1 30  2  0  0  0
  1 85  1  0  0  0
  2  3  1  0  0  0
  2 25  1  0  0  0
  2 89  1  0  0  0
  2 90  1  0  0  0
  3  4  1  0  0  0
  3 91  1  0  0  0
  3 92  1  0  0  0
  4  5  1  0  0  0
  4 93  1  0  0  0
  4 94  1  0  0  0
  5  6  1  0  0  0
  5 26  1  0  0  0
  5 95  1  0  0  0
  6 25  1  0  0  0
  6 96  1  0  0  0
  6 97  1  0  0  0
  7  8  2  0  0  0
  7 26  1  0  0  0
  7 29  1  0  0  0
  8  9  1  0  0  0
  8 22  1  0  0  0
  9 10  1  0  0  0
  9 27  2  0  0  0
 10 11  2  0  0  0
 10 15  1  0  0  0
 11 12  1  0  0  0
 11 98  1  0  0  0
 12 13  2  0  0  0
 12 99  1  0  0  0
 13 14  1  0  0  0
 13 31  1  0  0  0
 14 15  2  0  0  0
 14100  1  0  0  0
 15101  1  0  0  0
 16 17  2  0  0  0
 16 21  1  0  0  0
 16 31  1  0  0  0
 17 18  1  0  0  0
 17102  1  0  0  0
 18 19  2  0  0  0
 18103  1  0  0  0
 19 20  1  0  0  0
 19 24  1  0  0  0
 20 21  2  0  0  0
 20104  1  0  0  0
 21 23  1  0  0  0
 22 28  1  0  0  0
 22 32  2  0  0  0
 26 27  1  0  0  0
 28105  1  0  0  0
 28106  1  0  0  0
 29107  1  0  0  0
 29108  1  0  0  0
 33 34  1  0  0  0
 33 66  1  0  0  0
 33 70  2  0  0  0
 34 36  1  0  0  0
 34 59  1  0  0  0
 34109  1  0  0  0
 35 44  2  0  0  0
 35 45  1  0  0  0
 35 68  1  0  0  0
 36 56  1  0  0  0
 36110  1  0  0  0
 37 39  1  0  0  0
 37 47  1  0  0  0
 37 66  1  0  0  0
 37111  1  0  0  0
 38 43  2  0  0  0
 38 46  1  0  0  0
 38 47  1  0  0  0
 39 64  1  0  0  0
 39 67  2  0  0  0
 40 52  1  0  0  0
 40 53  2  0  0  0
 40 58  1  0  0  0
 41112  1  0  0  0
 41113  1  0  0  0
 41114  1  0  0  0
 41 48  1  0  0  0
 42 43  1  0  0  0
 42 66  1  0  0  0
 42115  1  0  0  0
 42116  1  0  0  0
 43 44  1  0  0  0
 44117  1  0  0  0
 45 46  2  0  0  0
 45118  1  0  0  0
 46119  1  0  0  0
 47120  1  0  0  0
 47121  1  0  0  0
 48 56  1  0  0  0
 48 65  1  0  0  0
 48122  1  0  0  0
 49 50  1  0  0  0
 49 53  1  0  0  0
 49 64  1  0  0  0
 49123  1  0  0  0
 50 51  1  0  0  0
 50124  1  0  0  0
 50125  1  0  0  0
 51 52  1  0  0  0
 51126  1  0  0  0
 51127  1  0  0  0
 52128  1  0  0  0
 52129  1  0  0  0
 53 54  1  0  0  0
 54 55  2  0  0  0
 54130  1  0  0  0
 55 57  1  0  0  0
 55131  1  0  0  0
 56 69  2  0  0  0
 57 58  2  0  0  0
 57132  1  0  0  0
 58133  1  0  0  0
 59 60  1  0  0  0
 59 61  1  0  0  0
 59 62  1  0  0  0
 60134  1  0  0  0
 60135  1  0  0  0
 60136  1  0  0  0
 61137  1  0  0  0
 61138  1  0  0  0
 61139  1  0  0  0
 62140  1  0  0  0
 62141  1  0  0  0
 62142  1  0  0  0
 63 65  1  0  0  0
 63143  1  0  0  0
 63144  1  0  0  0
 63145  1  0  0  0
 64146  1  0  0  0
 65147  1  0  0  0
 68 82  1  0  0  0
 71 74  2  0  0  0
 71 75  1  0  0  0
 71148  1  0  0  0
 72 74  1  0  0  0
 72 76  2  0  0  0
 72149  1  0  0  0
 73 75  2  0  0  0
 73 76  1  0  0  0
 73 80  1  0  0  0
 74 85  1  0  0  0
 75 84  1  0  0  0
 76 88  1  0  0  0
 77 81  1  0  0  0
 77 82  1  0  0  0
 77 86  2  0  0  0
 78 83  1  0  0  0
 78 84  1  0  0  0
 78 87  2  0  0  0
 79 80  1  0  0  0
 79150  1  0  0  0
 79151  1  0  0  0
 79152  1  0  0  0
 80153  1  0  0  0
 80154  1  0  0  0
 81 83  1  0  0  0
 81155  1  0  0  0
 81156  1  0  0  0
 82157  1  0  0  0
 82158  1  0  0  0
 83159  1  0  0  0
 83160  1  0  0  0
 84161  1  0  0  0
 85162  1  0  0  0
M  ISO  4   1 100  68 101  82 101  85 100
M  END
> <chiral flag>
0

> <version>
0

> <s_m_source_file>
/data/baiqing/PycharmProjects/Reinvent-master-3.2/result/LINK_invent/BTK/process_docking_weight1_custom_product_contain_oxygen_bond_distance_aromatic_linkinvent_7_9_3/rearranged_h_0165.sdf

> <i_m_source_file_index>
78

> <r_mmod_Potential_Energy-OPLS-2005>
-107.803321838379

> <r_mmod_Stretch_Energy-OPLS-2005>
35.7166290283203

> <r_mmod_Bend_Energy-OPLS-2005>
100.894004821777

> <r_mmod_Torsional_Energy-OPLS-2005>
223.909606933594

> <r_mmod_Improper_Torsional_Energy-OPLS-2005>
2.17642664909363

> <r_mmod_Van_der_Waal_Energy-OPLS-2005>
162.456817626953

> <r_mmod_Electrostatic_Energy-OPLS-2005>
-398.9736328125

> <r_mmod_Solvation_Energy-OPLS-2005>
-242.701812744141

> <b_mmod_Minimization_Converged-OPLS-2005>
0

> <r_mmod_RMS_Derivative-OPLS-2005>
1.52253806591034

$$$$
79
                    3D
 Structure written by MMmdl.
173182  0  0  1  0            999 V2000
  -30.6977  -14.4751   20.6209 C   0  0  0  0  0  0
  -30.4413  -12.3220   19.4188 C   0  0  0  0  0  0
  -29.5107  -12.5313   18.2057 C   0  0  0  0  0  0
  -28.0274  -12.3907   18.6093 C   0  0  0  0  0  0
  -27.6729  -13.2084   19.8799 C   0  0  2  0  0  0
  -28.7149  -12.9545   20.9948 C   0  0  0  0  0  0
  -25.2636  -13.8170   20.5657 C   0  0  0  0  0  0
  -24.1880  -13.0440   20.9135 C   0  0  0  0  0  0
  -24.6429  -11.6914   20.8709 C   0  0  0  0  0  0
  -23.9071  -10.4295   21.0390 C   0  0  0  0  0  0
  -24.3620   -9.4213   21.9176 C   0  0  0  0  0  0
  -23.6310   -8.2237   22.0742 C   0  0  0  0  0  0
  -22.4295   -8.0277   21.3523 C   0  0  0  0  0  0
  -21.9916   -9.0241   20.4620 C   0  0  0  0  0  0
  -22.7241  -10.2127   20.3031 C   0  0  0  0  0  0
  -21.6851   -6.0748   22.5276 C   0  0  0  0  0  0
  -21.4002   -6.5646   23.8220 C   0  0  0  0  0  0
  -21.3662   -5.6786   24.9176 C   0  0  0  0  0  0
  -21.6051   -4.3047   24.7212 C   0  0  0  0  0  0
  -21.8825   -3.8151   23.4326 C   0  0  0  0  0  0
  -21.9184   -4.6972   22.3395 C   0  0  0  0  0  0
  -22.7891  -13.5224   21.1824 C   0  0  0  0  0  0
  -22.1662   -4.2165   21.0969 F   0  0  0  0  0  0
  -21.5640   -3.4528   25.7718 F   0  0  0  0  0  0
  -30.0534  -13.2811   20.4646 N   0  0  0  0  0  0
  -26.3088  -12.9341   20.3359 N   0  0  0  0  0  0
  -25.9363  -11.6504   20.5753 N   0  0  0  0  0  0
  -22.0515  -12.8230   22.0378 N   0  0  0  0  0  0
  -25.4353  -15.1901   20.4108 N   0  0  0  0  0  0
  -31.7594  -14.7454   20.0519 O   0  0  0  0  0  0
  -21.6643   -6.8881   21.4240 O   0  0  0  0  0  0
  -22.3578  -14.5522   20.6682 O   0  0  0  0  0  0
  -24.6175  -31.8662   23.2103 C   0  0  0  0  0  0
  -25.9066  -32.4806   23.8394 C   0  0  1  0  0  0
  -27.2277  -27.4161   20.1026 C   0  0  0  0  0  0
  -25.5913  -33.8600   24.2336 N   0  0  0  0  0  0
  -23.4045  -30.4919   21.5507 C   0  0  2  0  0  0
  -24.8546  -28.9609   20.1068 C   0  0  0  0  0  0
  -22.7417  -29.4653   22.4981 C   0  0  0  0  0  0
  -18.0262  -28.1389   22.8516 C   0  0  0  0  0  0
  -24.1475  -36.7304   23.2642 C   0  0  0  0  0  0
  -25.9362  -30.8297   21.3652 C   0  0  0  0  0  0
  -26.0159  -29.4640   20.7077 C   0  0  0  0  0  0
  -27.2110  -28.7001   20.7029 C   0  0  0  0  0  0
  -26.0558  -26.9417   19.4773 C   0  0  0  0  0  0
  -24.8710  -27.7023   19.4829 C   0  0  0  0  0  0
  -23.6123  -29.8267   20.1642 C   0  0  0  0  0  0
  -25.4097  -36.3098   24.0350 C   0  0  1  0  0  0
  -20.5856  -28.3675   23.1334 C   0  0  2  0  0  0
  -20.6769  -26.9413   22.5431 C   0  0  0  0  0  0
  -19.5740  -26.6388   21.5247 C   0  0  0  0  0  0
  -18.1915  -26.7942   22.1643 C   0  0  0  0  0  0
  -19.1510  -28.8846   23.2922 C   0  0  0  0  0  0
  -18.9438  -30.1456   23.8920 C   0  0  0  0  0  0
  -17.6439  -30.6596   24.0561 C   0  0  0  0  0  0
  -25.9037  -34.9465   23.5145 C   0  0  0  0  0  0
  -16.5328  -29.9094   23.6337 C   0  0  0  0  0  0
  -16.7247  -28.6509   23.0363 C   0  0  0  0  0  0
  -26.4482  -31.6579   25.0721 C   0  0  0  0  0  0
  -25.3713  -31.3698   26.1441 C   0  0  0  0  0  0
  -27.0350  -30.3014   24.6147 C   0  0  0  0  0  0
  -27.6055  -32.4294   25.7487 C   0  0  0  0  0  0
  -27.5579  -37.1808   24.8459 C   0  0  0  0  0  0
  -21.4140  -29.3034   22.3730 N   0  0  0  0  0  0
  -26.4278  -37.3787   23.9419 N   0  0  0  0  0  0
  -24.6702  -31.0760   22.1003 N   0  0  0  0  0  0
  -23.4190  -28.8209   23.3034 O   0  0  0  0  0  0
  -28.3218  -26.5731   20.1740 O   0  0  0  0  0  0
  -26.5596  -34.8920   22.4708 O   0  0  0  0  0  0
  -23.5366  -32.1424   23.7494 O   0  0  0  0  0  0
  -30.2011  -19.0460   20.5668 C   0  0  0  0  0  0
  -28.5513  -18.6147   22.2691 C   0  0  0  0  0  0
  -30.5681  -17.6690   20.5806 C   0  0  0  0  0  0
  -28.9090  -17.2531   22.2867 C   0  0  0  0  0  0
  -29.1594  -19.5529   21.3944 C   0  0  0  0  0  0
  -29.8984  -16.7464   21.4265 C   0  0  0  0  0  0
  -29.1120  -21.8154   20.0628 C   0  0  0  0  0  0
  -28.5921  -23.2860   19.9285 C   0  0  0  0  0  0
  -28.5570  -23.3931   22.4343 C   0  0  0  0  0  0
  -28.6169  -21.0305   21.3283 C   0  0  2  0  0  0
  -29.0281  -21.9049   22.5905 C   0  0  0  0  0  0
  -28.9308  -24.1871   21.1420 C   0  0  2  0  0  0
  -27.0726  -20.9183   21.1689 C   0  0  0  0  0  0
  -28.3902  -21.4058   23.9128 C   0  0  0  0  0  0
  -30.5558  -21.8451   22.8423 C   0  0  0  0  0  0
  -30.9067  -25.3920   21.9300 C   0  0  0  0  0  0
  -28.1117  -25.5387   21.1700 C   0  0  0  0  0  0
  -30.0891  -15.3243   21.4722 N   0  0  0  0  0  0
  -30.3464  -24.4024   21.0734 O   0  0  0  0  0  0
  -31.4868  -12.4332   19.1289 H   0  0  0  0  0  0
  -30.3447  -11.3019   19.7935 H   0  0  0  0  0  0
  -29.7585  -11.8197   17.4156 H   0  0  0  0  0  0
  -29.6839  -13.5245   17.7870 H   0  0  0  0  0  0
  -27.8271  -11.3338   18.7857 H   0  0  0  0  0  0
  -27.3814  -12.6846   17.7807 H   0  0  0  0  0  0
  -27.7247  -14.2636   19.6088 H   0  0  0  0  0  0
  -28.6958  -11.9064   21.2945 H   0  0  0  0  0  0
  -28.4599  -13.5050   21.9005 H   0  0  0  0  0  0
  -25.2770   -9.5715   22.4743 H   0  0  0  0  0  0
  -24.0026   -7.4632   22.7474 H   0  0  0  0  0  0
  -21.0827   -8.8734   19.8948 H   0  0  0  0  0  0
  -22.3679  -10.9640   19.6129 H   0  0  0  0  0  0
  -21.1996   -7.6148   23.9730 H   0  0  0  0  0  0
  -21.1492   -6.0507   25.9081 H   0  0  0  0  0  0
  -22.0612   -2.7612   23.2805 H   0  0  0  0  0  0
  -22.4087  -11.9873   22.4771 H   0  0  0  0  0  0
  -21.1119  -13.1276   22.2537 H   0  0  0  0  0  0
  -24.6769  -15.8494   20.5385 H   0  0  0  0  0  0
  -26.3038  -15.6319   20.1353 H   0  0  0  0  0  0
  -26.7131  -32.5532   23.1152 H   0  0  0  0  0  0
  -25.0033  -33.9727   25.0461 H   0  0  0  0  0  0
  -22.6938  -31.3098   21.4159 H   0  0  0  0  0  0
  -23.3742  -35.9631   23.3276 H   0  0  0  0  0  0
  -24.3570  -36.8940   22.2061 H   0  0  0  0  0  0
  -23.7208  -37.6500   23.6661 H   0  0  0  0  0  0
  -26.0504  -31.5982   20.5990 H   0  0  0  0  0  0
  -26.8221  -30.8790   21.9871 H   0  0  0  0  0  0
  -28.1012  -29.0783   21.1866 H   0  0  0  0  0  0
  -26.0532  -25.9654   19.0118 H   0  0  0  0  0  0
  -23.9810  -27.3132   19.0075 H   0  0  0  0  0  0
  -23.7138  -30.6040   19.4059 H   0  0  0  0  0  0
  -22.7365  -29.2435   19.8746 H   0  0  0  0  0  0
  -25.1283  -36.1954   25.0845 H   0  0  0  0  0  0
  -20.9946  -28.3245   24.1456 H   0  0  0  0  0  0
  -20.5705  -26.2287   23.3617 H   0  0  0  0  0  0
  -21.6639  -26.7496   22.1192 H   0  0  0  0  0  0
  -19.6900  -25.6301   21.1266 H   0  0  0  0  0  0
  -19.6687  -27.3207   20.6790 H   0  0  0  0  0  0
  -17.4207  -26.6729   21.4008 H   0  0  0  0  0  0
  -18.0275  -26.0054   22.9001 H   0  0  0  0  0  0
  -19.7902  -30.7274   24.2306 H   0  0  0  0  0  0
  -17.4983  -31.6281   24.5143 H   0  0  0  0  0  0
  -15.5323  -30.2999   23.7640 H   0  0  0  0  0  0
  -15.8650  -28.0822   22.7083 H   0  0  0  0  0  0
  -24.5870  -30.7078   25.7744 H   0  0  0  0  0  0
  -24.8907  -32.2855   26.4894 H   0  0  0  0  0  0
  -25.8000  -30.8826   27.0204 H   0  0  0  0  0  0
  -26.2945  -29.6727   24.1181 H   0  0  0  0  0  0
  -27.4092  -29.7296   25.4654 H   0  0  0  0  0  0
  -27.8778  -30.4330   23.9351 H   0  0  0  0  0  0
  -27.2697  -33.3605   26.2071 H   0  0  0  0  0  0
  -28.3867  -32.6830   25.0302 H   0  0  0  0  0  0
  -28.0724  -31.8400   26.5394 H   0  0  0  0  0  0
  -28.2587  -38.0113   24.7528 H   0  0  0  0  0  0
  -28.1082  -36.2651   24.6252 H   0  0  0  0  0  0
  -27.2301  -37.1411   25.8858 H   0  0  0  0  0  0
  -20.9302  -29.8720   21.6917 H   0  0  0  0  0  0
  -26.0173  -38.2872   24.1397 H   0  0  0  0  0  0
  -30.7202  -19.6991   19.8826 H   0  0  0  0  0  0
  -27.7599  -18.9138   22.9388 H   0  0  0  0  0  0
  -31.3507  -17.3354   19.9132 H   0  0  0  0  0  0
  -28.3804  -16.5867   22.9540 H   0  0  0  0  0  0
  -30.1994  -21.8538   20.0430 H   0  0  0  0  0  0
  -28.8319  -21.2657   19.1635 H   0  0  0  0  0  0
  -27.5150  -23.2899   19.7599 H   0  0  0  0  0  0
  -29.0086  -23.7309   19.0250 H   0  0  0  0  0  0
  -28.8600  -23.9626   23.3124 H   0  0  0  0  0  0
  -27.4678  -23.3932   22.5032 H   0  0  0  0  0  0
  -26.8261  -20.3728   20.2550 H   0  0  0  0  0  0
  -26.5705  -21.8795   21.1078 H   0  0  0  0  0  0
  -26.5814  -20.3939   21.9837 H   0  0  0  0  0  0
  -27.3039  -21.3423   23.8636 H   0  0  0  0  0  0
  -28.6243  -22.0860   24.7336 H   0  0  0  0  0  0
  -28.7706  -20.4333   24.2194 H   0  0  0  0  0  0
  -31.1440  -22.1526   21.9807 H   0  0  0  0  0  0
  -30.8828  -20.8373   23.1032 H   0  0  0  0  0  0
  -30.8449  -22.4933   23.6702 H   0  0  0  0  0  0
  -30.5914  -25.2822   22.9664 H   0  0  0  0  0  0
  -30.6468  -26.3956   21.5925 H   0  0  0  0  0  0
  -31.9936  -25.3139   21.9122 H   0  0  0  0  0  0
  -28.2657  -26.0236   22.1355 H   0  0  0  0  0  0
  -27.0592  -25.2495   21.1856 H   0  0  0  0  0  0
  -29.3951  -14.8474   22.0252 H   0  0  0  0  0  0
  1 25  1  0  0  0
  1 30  2  0  0  0
  1 88  1  0  0  0
  2  3  1  0  0  0
  2 25  1  0  0  0
  2 90  1  0  0  0
  2 91  1  0  0  0
  3  4  1  0  0  0
  3 92  1  0  0  0
  3 93  1  0  0  0
  4  5  1  0  0  0
  4 94  1  0  0  0
  4 95  1  0  0  0
  5  6  1  0  0  0
  5 26  1  0  0  0
  5 96  1  0  0  0
  6 25  1  0  0  0
  6 97  1  0  0  0
  6 98  1  0  0  0
  7  8  2  0  0  0
  7 26  1  0  0  0
  7 29  1  0  0  0
  8  9  1  0  0  0
  8 22  1  0  0  0
  9 10  1  0  0  0
  9 27  2  0  0  0
 10 11  2  0  0  0
 10 15  1  0  0  0
 11 12  1  0  0  0
 11 99  1  0  0  0
 12 13  2  0  0  0
 12100  1  0  0  0
 13 14  1  0  0  0
 13 31  1  0  0  0
 14 15  2  0  0  0
 14101  1  0  0  0
 15102  1  0  0  0
 16 17  2  0  0  0
 16 21  1  0  0  0
 16 31  1  0  0  0
 17 18  1  0  0  0
 17103  1  0  0  0
 18 19  2  0  0  0
 18104  1  0  0  0
 19 20  1  0  0  0
 19 24  1  0  0  0
 20 21  2  0  0  0
 20105  1  0  0  0
 21 23  1  0  0  0
 22 28  1  0  0  0
 22 32  2  0  0  0
 26 27  1  0  0  0
 28106  1  0  0  0
 28107  1  0  0  0
 29108  1  0  0  0
 29109  1  0  0  0
 33 34  1  0  0  0
 33 66  1  0  0  0
 33 70  2  0  0  0
 34 36  1  0  0  0
 34 59  1  0  0  0
 34110  1  0  0  0
 35 44  2  0  0  0
 35 45  1  0  0  0
 35 68  1  0  0  0
 36 56  1  0  0  0
 36111  1  0  0  0
 37 39  1  0  0  0
 37 47  1  0  0  0
 37 66  1  0  0  0
 37112  1  0  0  0
 38 43  2  0  0  0
 38 46  1  0  0  0
 38 47  1  0  0  0
 39 64  1  0  0  0
 39 67  2  0  0  0
 40 52  1  0  0  0
 40 53  2  0  0  0
 40 58  1  0  0  0
 41113  1  0  0  0
 41114  1  0  0  0
 41115  1  0  0  0
 41 48  1  0  0  0
 42 43  1  0  0  0
 42 66  1  0  0  0
 42116  1  0  0  0
 42117  1  0  0  0
 43 44  1  0  0  0
 44118  1  0  0  0
 45 46  2  0  0  0
 45119  1  0  0  0
 46120  1  0  0  0
 47121  1  0  0  0
 47122  1  0  0  0
 48 56  1  0  0  0
 48 65  1  0  0  0
 48123  1  0  0  0
 49 50  1  0  0  0
 49 53  1  0  0  0
 49 64  1  0  0  0
 49124  1  0  0  0
 50 51  1  0  0  0
 50125  1  0  0  0
 50126  1  0  0  0
 51 52  1  0  0  0
 51127  1  0  0  0
 51128  1  0  0  0
 52129  1  0  0  0
 52130  1  0  0  0
 53 54  1  0  0  0
 54 55  2  0  0  0
 54131  1  0  0  0
 55 57  1  0  0  0
 55132  1  0  0  0
 56 69  2  0  0  0
 57 58  2  0  0  0
 57133  1  0  0  0
 58134  1  0  0  0
 59 60  1  0  0  0
 59 61  1  0  0  0
 59 62  1  0  0  0
 60135  1  0  0  0
 60136  1  0  0  0
 60137  1  0  0  0
 61138  1  0  0  0
 61139  1  0  0  0
 61140  1  0  0  0
 62141  1  0  0  0
 62142  1  0  0  0
 62143  1  0  0  0
 63 65  1  0  0  0
 63144  1  0  0  0
 63145  1  0  0  0
 63146  1  0  0  0
 64147  1  0  0  0
 65148  1  0  0  0
 68 87  1  0  0  0
 71 73  2  0  0  0
 71 75  1  0  0  0
 71149  1  0  0  0
 72 74  1  0  0  0
 72 75  2  0  0  0
 72150  1  0  0  0
 73 76  1  0  0  0
 73151  1  0  0  0
 74 76  2  0  0  0
 74152  1  0  0  0
 75 80  1  0  0  0
 76 88  1  0  0  0
 77 78  1  0  0  0
 77 80  1  0  0  0
 77153  1  0  0  0
 77154  1  0  0  0
 78 82  1  0  0  0
 78155  1  0  0  0
 78156  1  0  0  0
 79 81  1  0  0  0
 79 82  1  0  0  0
 79157  1  0  0  0
 79158  1  0  0  0
 80 81  1  0  0  0
 80 83  1  0  0  0
 81 84  1  0  0  0
 81 85  1  0  0  0
 82 87  1  0  0  0
 82 89  1  0  0  0
 83159  1  0  0  0
 83160  1  0  0  0
 83161  1  0  0  0
 84162  1  0  0  0
 84163  1  0  0  0
 84164  1  0  0  0
 85165  1  0  0  0
 85166  1  0  0  0
 85167  1  0  0  0
 86 89  1  0  0  0
 86168  1  0  0  0
 86169  1  0  0  0
 86170  1  0  0  0
 87171  1  0  0  0
 87172  1  0  0  0
 88173  1  0  0  0
M  ISO  4   1 100  68 101  87 101  88 100
M  END
> <chiral flag>
0

> <version>
0

> <s_m_source_file>
/data/baiqing/PycharmProjects/Reinvent-master-3.2/result/LINK_invent/BTK/process_docking_weight1_custom_product_contain_oxygen_bond_distance_aromatic_linkinvent_7_9_3/rearranged_h_0165.sdf

> <i_m_source_file_index>
79

> <r_mmod_Potential_Energy-OPLS-2005>
92.0499038696289

> <r_mmod_Stretch_Energy-OPLS-2005>
62.4312400817871

> <r_mmod_Bend_Energy-OPLS-2005>
154.758224487305

> <r_mmod_Torsional_Energy-OPLS-2005>
288.072692871094

> <r_mmod_Improper_Torsional_Energy-OPLS-2005>
3.8115701675415

> <r_mmod_Van_der_Waal_Energy-OPLS-2005>
170.930358886719

> <r_mmod_Electrostatic_Energy-OPLS-2005>
-409.534912109375

> <r_mmod_Solvation_Energy-OPLS-2005>
-196.240814208984

> <b_mmod_Minimization_Converged-OPLS-2005>
0

> <r_mmod_RMS_Derivative-OPLS-2005>
3.55489706993103

$$$$
80
                    3D
 Structure written by MMmdl.
168176  0  0  1  0            999 V2000
  -30.7440  -14.4260   20.6124 C   0  0  0  0  0  0
  -30.4158  -12.3037   19.4088 C   0  0  0  0  0  0
  -29.4873  -12.5110   18.1985 C   0  0  0  0  0  0
  -28.0084  -12.3827   18.6122 C   0  0  0  0  0  0
  -27.6623  -13.2138   19.8775 C   0  0  2  0  0  0
  -28.7056  -12.9847   20.9921 C   0  0  0  0  0  0
  -25.2599  -13.8172   20.5744 C   0  0  0  0  0  0
  -24.1858  -13.0441   20.9216 C   0  0  0  0  0  0
  -24.6426  -11.6908   20.8791 C   0  0  0  0  0  0
  -23.9078  -10.4296   21.0466 C   0  0  0  0  0  0
  -24.3622   -9.4202   21.9251 C   0  0  0  0  0  0
  -23.6288   -8.2231   22.0778 C   0  0  0  0  0  0
  -22.4270   -8.0292   21.3542 C   0  0  0  0  0  0
  -21.9910   -9.0281   20.4665 C   0  0  0  0  0  0
  -22.7251  -10.2163   20.3104 C   0  0  0  0  0  0
  -21.6837   -6.0752   22.5282 C   0  0  0  0  0  0
  -21.4014   -6.5645   23.8225 C   0  0  0  0  0  0
  -21.3651   -5.6802   24.9177 C   0  0  0  0  0  0
  -21.6036   -4.3065   24.7221 C   0  0  0  0  0  0
  -21.8824   -3.8158   23.4341 C   0  0  0  0  0  0
  -21.9189   -4.6980   22.3404 C   0  0  0  0  0  0
  -22.7873  -13.5243   21.1883 C   0  0  0  0  0  0
  -22.1670   -4.2170   21.0971 F   0  0  0  0  0  0
  -21.5629   -3.4544   25.7739 F   0  0  0  0  0  0
  -30.0347  -13.2837   20.4339 N   0  0  0  0  0  0
  -26.3052  -12.9365   20.3412 N   0  0  0  0  0  0
  -25.9363  -11.6511   20.5805 N   0  0  0  0  0  0
  -22.0479  -12.8260   22.0416 N   0  0  0  0  0  0
  -25.4319  -15.1890   20.4164 N   0  0  0  0  0  0
  -31.8541  -14.6074   20.0977 O   0  0  0  0  0  0
  -21.6622   -6.8900   21.4236 O   0  0  0  0  0  0
  -22.3585  -14.5564   20.6752 O   0  0  0  0  0  0
  -24.6145  -31.8691   23.2084 C   0  0  0  0  0  0
  -25.9048  -32.4819   23.8383 C   0  0  1  0  0  0
  -27.2374  -27.4495   20.0903 C   0  0  0  0  0  0
  -25.5902  -33.8616   24.2325 N   0  0  0  0  0  0
  -23.4022  -30.4921   21.5477 C   0  0  2  0  0  0
  -24.8484  -28.9555   20.1146 C   0  0  0  0  0  0
  -22.7404  -29.4664   22.4969 C   0  0  0  0  0  0
  -18.0272  -28.1388   22.8482 C   0  0  0  0  0  0
  -24.1490  -36.7311   23.2633 C   0  0  0  0  0  0
  -25.9285  -30.8405   21.3569 C   0  0  0  0  0  0
  -26.0079  -29.4735   20.7059 C   0  0  0  0  0  0
  -27.2068  -28.7295   20.6880 C   0  0  0  0  0  0
  -26.0635  -26.9422   19.4943 C   0  0  0  0  0  0
  -24.8695  -27.6894   19.5049 C   0  0  0  0  0  0
  -23.6100  -29.8214   20.1629 C   0  0  0  0  0  0
  -25.4105  -36.3098   24.0336 C   0  0  1  0  0  0
  -20.5864  -28.3670   23.1308 C   0  0  2  0  0  0
  -20.6759  -26.9411   22.5404 C   0  0  0  0  0  0
  -19.5735  -26.6395   21.5203 C   0  0  0  0  0  0
  -18.1919  -26.7935   22.1621 C   0  0  0  0  0  0
  -19.1525  -28.8841   23.2896 C   0  0  0  0  0  0
  -18.9453  -30.1449   23.8910 C   0  0  0  0  0  0
  -17.6449  -30.6585   24.0572 C   0  0  0  0  0  0
  -25.9034  -34.9469   23.5126 C   0  0  0  0  0  0
  -16.5342  -29.9094   23.6320 C   0  0  0  0  0  0
  -16.7262  -28.6514   23.0336 C   0  0  0  0  0  0
  -26.4484  -31.6584   25.0706 C   0  0  0  0  0  0
  -25.3758  -31.3714   26.1461 C   0  0  0  0  0  0
  -27.0292  -30.3019   24.6059 C   0  0  0  0  0  0
  -27.6070  -32.4289   25.7468 C   0  0  0  0  0  0
  -27.5583  -37.1806   24.8464 C   0  0  0  0  0  0
  -21.4128  -29.3056   22.3720 N   0  0  0  0  0  0
  -26.4292  -37.3785   23.9416 N   0  0  0  0  0  0
  -24.6664  -31.0814   22.0966 N   0  0  0  0  0  0
  -23.4186  -28.8198   23.3003 O   0  0  0  0  0  0
  -28.4039  -26.7216   20.0870 O   0  0  0  0  0  0
  -26.5587  -34.8925   22.4684 O   0  0  0  0  0  0
  -23.5339  -32.1430   23.7489 O   0  0  0  0  0  0
  -32.0206  -16.5360   22.3641 C   0  0  0  0  0  0
  -32.0442  -18.9488   22.6394 C   0  0  0  0  0  0
  -30.0955  -17.8548   21.6472 C   0  0  0  0  0  0
  -32.6928  -17.7043   22.7710 C   0  0  0  0  0  0
  -30.7458  -16.6013   21.7604 C   0  0  0  0  0  0
  -30.7448  -19.0337   22.0933 C   0  0  0  0  0  0
  -29.4332  -22.2027   20.6269 C   0  0  0  0  0  0
  -28.4498  -24.3119   19.5595 C   0  0  0  0  0  0
  -35.2725  -17.0217   21.2243 C   0  0  0  0  0  0
  -34.0950  -17.6243   23.3621 C   0  0  0  0  0  0
  -28.2014  -22.8602   19.9901 C   0  0  0  0  0  0
  -29.3805  -20.6819   20.8463 C   0  0  0  0  0  0
  -28.2935  -25.3994   20.6363 C   0  0  0  0  0  0
  -35.0356  -16.6229   22.6570 C   0  0  0  0  0  0
  -34.7331  -16.3030   20.2254 N   0  0  0  0  0  0
  -30.1243  -15.4060   21.2979 N   0  0  0  0  0  0
  -30.1458  -20.2993   22.0340 N   0  0  0  0  0  0
  -36.0260  -18.0999   20.9550 N   0  3  0  0  0  0
  -30.4202  -22.8475   21.0046 O   0  0  0  0  0  0
  -28.7170  -24.5919   18.3834 O   0  0  0  0  0  0
  -31.4616  -12.3898   19.1065 H   0  0  0  0  0  0
  -30.3067  -11.2949   19.8070 H   0  0  0  0  0  0
  -29.7164  -11.7857   17.4160 H   0  0  0  0  0  0
  -29.6640  -13.4947   17.7598 H   0  0  0  0  0  0
  -27.8063  -11.3276   18.7990 H   0  0  0  0  0  0
  -27.3661  -12.6730   17.7804 H   0  0  0  0  0  0
  -27.7105  -14.2665   19.5954 H   0  0  0  0  0  0
  -28.6811  -11.9456   21.3257 H   0  0  0  0  0  0
  -28.4720  -13.5783   21.8771 H   0  0  0  0  0  0
  -25.2766   -9.5653   22.4842 H   0  0  0  0  0  0
  -23.9972   -7.4602   22.7508 H   0  0  0  0  0  0
  -21.0828   -8.8836   19.8975 H   0  0  0  0  0  0
  -22.3745  -10.9722   19.6222 H   0  0  0  0  0  0
  -21.2033   -7.6164   23.9744 H   0  0  0  0  0  0
  -21.1455   -6.0520   25.9084 H   0  0  0  0  0  0
  -22.0617   -2.7616   23.2839 H   0  0  0  0  0  0
  -22.3971  -11.9791   22.4666 H   0  0  0  0  0  0
  -21.1181  -13.1437   22.2780 H   0  0  0  0  0  0
  -24.6644  -15.8432   20.5256 H   0  0  0  0  0  0
  -26.2909  -15.6255   20.1051 H   0  0  0  0  0  0
  -26.7122  -32.5548   23.1154 H   0  0  0  0  0  0
  -25.0109  -33.9778   25.0501 H   0  0  0  0  0  0
  -22.6896  -31.3083   21.4061 H   0  0  0  0  0  0
  -23.3750  -35.9648   23.3286 H   0  0  0  0  0  0
  -24.3597  -36.8933   22.2051 H   0  0  0  0  0  0
  -23.7246  -37.6517   23.6650 H   0  0  0  0  0  0
  -26.0386  -31.6054   20.5867 H   0  0  0  0  0  0
  -26.8167  -30.8955   21.9742 H   0  0  0  0  0  0
  -28.1037  -29.1289   21.1419 H   0  0  0  0  0  0
  -26.0701  -25.9771   19.0104 H   0  0  0  0  0  0
  -23.9808  -27.2875   19.0383 H   0  0  0  0  0  0
  -23.7190  -30.5944   19.4006 H   0  0  0  0  0  0
  -22.7342  -29.2391   19.8680 H   0  0  0  0  0  0
  -25.1280  -36.1961   25.0831 H   0  0  0  0  0  0
  -20.9963  -28.3253   24.1425 H   0  0  0  0  0  0
  -20.5657  -26.2292   23.3600 H   0  0  0  0  0  0
  -21.6634  -26.7453   22.1208 H   0  0  0  0  0  0
  -19.6899  -25.6308   21.1232 H   0  0  0  0  0  0
  -19.6670  -27.3203   20.6733 H   0  0  0  0  0  0
  -17.4184  -26.6668   21.4035 H   0  0  0  0  0  0
  -18.0331  -26.0084   22.9026 H   0  0  0  0  0  0
  -19.7934  -30.7263   24.2295 H   0  0  0  0  0  0
  -17.5014  -31.6274   24.5175 H   0  0  0  0  0  0
  -15.5352  -30.3001   23.7643 H   0  0  0  0  0  0
  -15.8666  -28.0852   22.7027 H   0  0  0  0  0  0
  -24.5887  -30.7110   25.7811 H   0  0  0  0  0  0
  -24.9005  -32.2880   26.4951 H   0  0  0  0  0  0
  -25.8107  -30.8844   27.0189 H   0  0  0  0  0  0
  -26.2814  -29.6788   24.1130 H   0  0  0  0  0  0
  -27.4083  -29.7255   25.4508 H   0  0  0  0  0  0
  -27.8645  -30.4339   23.9180 H   0  0  0  0  0  0
  -27.2703  -33.3587   26.2064 H   0  0  0  0  0  0
  -28.3870  -32.6839   25.0284 H   0  0  0  0  0  0
  -28.0728  -31.8385   26.5362 H   0  0  0  0  0  0
  -28.2595  -38.0111   24.7514 H   0  0  0  0  0  0
  -28.1084  -36.2638   24.6271 H   0  0  0  0  0  0
  -27.2308  -37.1439   25.8871 H   0  0  0  0  0  0
  -20.9282  -29.8806   21.6970 H   0  0  0  0  0  0
  -26.0175  -38.2871   24.1406 H   0  0  0  0  0  0
  -32.4876  -15.5718   22.4994 H   0  0  0  0  0  0
  -32.5552  -19.8469   22.9670 H   0  0  0  0  0  0
  -29.1066  -17.9048   21.2154 H   0  0  0  0  0  0
  -34.0011  -17.3499   24.4146 H   0  0  0  0  0  0
  -34.5517  -18.6136   23.3505 H   0  0  0  0  0  0
  -27.3928  -22.8396   20.7194 H   0  0  0  0  0  0
  -27.8724  -22.2720   19.1341 H   0  0  0  0  0  0
  -29.7804  -20.1886   19.9598 H   0  0  0  0  0  0
  -28.3414  -20.3697   20.9490 H   0  0  0  0  0  0
  -29.0746  -25.2681   21.3849 H   0  0  0  0  0  0
  -27.3425  -25.2614   21.1545 H   0  0  0  0  0  0
  -35.9970  -16.5911   23.1711 H   0  0  0  0  0  0
  -34.6516  -15.6040   22.7116 H   0  0  0  0  0  0
  -34.0916  -15.5394   20.4149 H   0  0  0  0  0  0
  -34.8999  -16.4898   19.2468 H   0  0  0  0  0  0
  -29.1461  -15.2708   21.5055 H   0  0  0  0  0  0
  -30.7191  -21.0721   22.3682 H   0  0  0  0  0  0
  -36.4568  -18.6230   21.7080 H   0  0  0  0  0  0
  -36.2082  -18.4295   20.0183 H   0  0  0  0  0  0
  1 25  1  0  0  0
  1 30  2  0  0  0
  1 86  1  0  0  0
  2  3  1  0  0  0
  2 25  1  0  0  0
  2 91  1  0  0  0
  2 92  1  0  0  0
  3  4  1  0  0  0
  3 93  1  0  0  0
  3 94  1  0  0  0
  4  5  1  0  0  0
  4 95  1  0  0  0
  4 96  1  0  0  0
  5  6  1  0  0  0
  5 26  1  0  0  0
  5 97  1  0  0  0
  6 25  1  0  0  0
  6 98  1  0  0  0
  6 99  1  0  0  0
  7  8  2  0  0  0
  7 26  1  0  0  0
  7 29  1  0  0  0
  8  9  1  0  0  0
  8 22  1  0  0  0
  9 10  1  0  0  0
  9 27  2  0  0  0
 10 11  2  0  0  0
 10 15  1  0  0  0
 11 12  1  0  0  0
 11100  1  0  0  0
 12 13  2  0  0  0
 12101  1  0  0  0
 13 14  1  0  0  0
 13 31  1  0  0  0
 14 15  2  0  0  0
 14102  1  0  0  0
 15103  1  0  0  0
 16 17  2  0  0  0
 16 21  1  0  0  0
 16 31  1  0  0  0
 17 18  1  0  0  0
 17104  1  0  0  0
 18 19  2  0  0  0
 18105  1  0  0  0
 19 20  1  0  0  0
 19 24  1  0  0  0
 20 21  2  0  0  0
 20106  1  0  0  0
 21 23  1  0  0  0
 22 28  1  0  0  0
 22 32  2  0  0  0
 26 27  1  0  0  0
 28107  1  0  0  0
 28108  1  0  0  0
 29109  1  0  0  0
 29110  1  0  0  0
 33 34  1  0  0  0
 33 66  1  0  0  0
 33 70  2  0  0  0
 34 36  1  0  0  0
 34 59  1  0  0  0
 34111  1  0  0  0
 35 44  2  0  0  0
 35 45  1  0  0  0
 35 68  1  0  0  0
 36 56  1  0  0  0
 36112  1  0  0  0
 37 39  1  0  0  0
 37 47  1  0  0  0
 37 66  1  0  0  0
 37113  1  0  0  0
 38 43  2  0  0  0
 38 46  1  0  0  0
 38 47  1  0  0  0
 39 64  1  0  0  0
 39 67  2  0  0  0
 40 52  1  0  0  0
 40 53  2  0  0  0
 40 58  1  0  0  0
 41114  1  0  0  0
 41115  1  0  0  0
 41116  1  0  0  0
 41 48  1  0  0  0
 42 43  1  0  0  0
 42 66  1  0  0  0
 42117  1  0  0  0
 42118  1  0  0  0
 43 44  1  0  0  0
 44119  1  0  0  0
 45 46  2  0  0  0
 45120  1  0  0  0
 46121  1  0  0  0
 47122  1  0  0  0
 47123  1  0  0  0
 48 56  1  0  0  0
 48 65  1  0  0  0
 48124  1  0  0  0
 49 50  1  0  0  0
 49 53  1  0  0  0
 49 64  1  0  0  0
 49125  1  0  0  0
 50 51  1  0  0  0
 50126  1  0  0  0
 50127  1  0  0  0
 51 52  1  0  0  0
 51128  1  0  0  0
 51129  1  0  0  0
 52130  1  0  0  0
 52131  1  0  0  0
 53 54  1  0  0  0
 54 55  2  0  0  0
 54132  1  0  0  0
 55 57  1  0  0  0
 55133  1  0  0  0
 56 69  2  0  0  0
 57 58  2  0  0  0
 57134  1  0  0  0
 58135  1  0  0  0
 59 60  1  0  0  0
 59 61  1  0  0  0
 59 62  1  0  0  0
 60136  1  0  0  0
 60137  1  0  0  0
 60138  1  0  0  0
 61139  1  0  0  0
 61140  1  0  0  0
 61141  1  0  0  0
 62142  1  0  0  0
 62143  1  0  0  0
 62144  1  0  0  0
 63 65  1  0  0  0
 63145  1  0  0  0
 63146  1  0  0  0
 63147  1  0  0  0
 64148  1  0  0  0
 65149  1  0  0  0
 68 83  1  0  0  0
 71 74  2  0  0  0
 71 75  1  0  0  0
 71150  1  0  0  0
 72 74  1  0  0  0
 72 76  2  0  0  0
 72151  1  0  0  0
 73 75  2  0  0  0
 73 76  1  0  0  0
 73152  1  0  0  0
 74 80  1  0  0  0
 75 86  1  0  0  0
 76 87  1  0  0  0
 77 81  1  0  0  0
 77 82  1  0  0  0
 77 89  2  0  0  0
 78 81  1  0  0  0
 78 83  1  0  0  0
 78 90  2  0  0  0
 79 84  1  0  0  0
 79 85  1  0  0  0
 79 88  2  0  0  0
 80 84  1  0  0  0
 80153  1  0  0  0
 80154  1  0  0  0
 81155  1  0  0  0
 81156  1  0  0  0
 82 87  1  0  0  0
 82157  1  0  0  0
 82158  1  0  0  0
 83159  1  0  0  0
 83160  1  0  0  0
 84161  1  0  0  0
 84162  1  0  0  0
 85163  1  0  0  0
 85164  1  0  0  0
 86165  1  0  0  0
 87166  1  0  0  0
 88167  1  0  0  0
 88168  1  0  0  0
M  CHG  1  88   1
M  ISO  4   1 100  68 101  83 101  86 100
M  END
> <chiral flag>
0

> <version>
0

> <s_m_source_file>
/data/baiqing/PycharmProjects/Reinvent-master-3.2/result/LINK_invent/BTK/process_docking_weight1_custom_product_contain_oxygen_bond_distance_aromatic_linkinvent_7_9_3/rearranged_h_0165.sdf

> <i_m_source_file_index>
80

> <r_mmod_Potential_Energy-OPLS-2005>
-224.507904052734

> <r_mmod_Stretch_Energy-OPLS-2005>
36.0323600769043

> <r_mmod_Bend_Energy-OPLS-2005>
97.7802734375

> <r_mmod_Torsional_Energy-OPLS-2005>
244.025161743164

> <r_mmod_Improper_Torsional_Energy-OPLS-2005>
6.5258469581604

> <r_mmod_Van_der_Waal_Energy-OPLS-2005>
155.681381225586

> <r_mmod_Electrostatic_Energy-OPLS-2005>
-298.211761474609

> <r_mmod_Solvation_Energy-OPLS-2005>
-476.489318847656

> <b_mmod_Minimization_Converged-OPLS-2005>
0

> <r_mmod_RMS_Derivative-OPLS-2005>
3.33095622062683

$$$$
81
                    3D
 Structure written by MMmdl.
162170  0  0  1  0            999 V2000
  -30.6946  -14.6739   20.4900 C   0  0  0  0  0  0
  -30.4207  -12.4290   19.4524 C   0  0  0  0  0  0
  -29.5027  -12.5313   18.2176 C   0  0  0  0  0  0
  -28.0303  -12.3524   18.6312 C   0  0  0  0  0  0
  -27.6338  -13.2428   19.8422 C   0  0  2  0  0  0
  -28.6867  -13.1845   20.9722 C   0  0  0  0  0  0
  -25.2441  -13.8146   20.5689 C   0  0  0  0  0  0
  -24.1726  -13.0363   20.9134 C   0  0  0  0  0  0
  -24.6390  -11.6884   20.8695 C   0  0  0  0  0  0
  -23.9057  -10.4270   21.0386 C   0  0  0  0  0  0
  -24.3597   -9.4195   21.9178 C   0  0  0  0  0  0
  -23.6264   -8.2236   22.0738 C   0  0  0  0  0  0
  -22.4273   -8.0234   21.3519 C   0  0  0  0  0  0
  -21.9908   -9.0213   20.4635 C   0  0  0  0  0  0
  -22.7219  -10.2119   20.3042 C   0  0  0  0  0  0
  -21.6874   -6.0705   22.5270 C   0  0  0  0  0  0
  -21.4020   -6.5616   23.8192 C   0  0  0  0  0  0
  -21.3664   -5.6779   24.9162 C   0  0  0  0  0  0
  -21.6044   -4.3033   24.7232 C   0  0  0  0  0  0
  -21.8827   -3.8123   23.4350 C   0  0  0  0  0  0
  -21.9177   -4.6931   22.3401 C   0  0  0  0  0  0
  -22.7759  -13.5116   21.1785 C   0  0  0  0  0  0
  -22.1658   -4.2103   21.0992 F   0  0  0  0  0  0
  -21.5634   -3.4535   25.7768 F   0  0  0  0  0  0
  -29.9961  -13.4947   20.3810 N   0  0  0  0  0  0
  -26.2912  -12.9400   20.3276 N   0  0  0  0  0  0
  -25.9331  -11.6532   20.5736 N   0  0  0  0  0  0
  -22.0424  -12.8096   22.0364 N   0  0  0  0  0  0
  -25.4002  -15.1881   20.4320 N   0  0  0  0  0  0
  -31.9051  -14.7234   20.2496 O   0  0  0  0  0  0
  -21.6638   -6.8830   21.4216 O   0  0  0  0  0  0
  -22.3423  -14.5422   20.6642 O   0  0  0  0  0  0
  -24.6285  -31.8549   23.2051 C   0  0  0  0  0  0
  -25.9120  -32.4759   23.8383 C   0  0  1  0  0  0
  -27.2044  -27.2927   20.0993 C   0  0  0  0  0  0
  -25.5912  -33.8565   24.2284 N   0  0  0  0  0  0
  -23.4237  -30.4882   21.5442 C   0  0  2  0  0  0
  -24.8620  -28.9496   20.1057 C   0  0  0  0  0  0
  -22.7480  -29.4622   22.4856 C   0  0  0  0  0  0
  -18.0350  -28.1299   22.8333 C   0  0  0  0  0  0
  -24.1508  -36.7305   23.2641 C   0  0  0  0  0  0
  -25.9702  -30.7783   21.3856 C   0  0  0  0  0  0
  -26.0362  -29.4101   20.7149 C   0  0  0  0  0  0
  -27.2069  -28.5925   20.7068 C   0  0  0  0  0  0
  -25.9948  -26.8902   19.4875 C   0  0  0  0  0  0
  -24.8438  -27.6967   19.4875 C   0  0  0  0  0  0
  -23.6415  -29.8384   20.1536 C   0  0  0  0  0  0
  -25.4131  -36.3080   24.0330 C   0  0  1  0  0  0
  -20.5923  -28.3689   23.1215 C   0  0  2  0  0  0
  -20.6858  -26.9405   22.5374 C   0  0  0  0  0  0
  -19.5921  -26.6356   21.5117 C   0  0  0  0  0  0
  -18.2076  -26.7843   22.1473 C   0  0  0  0  0  0
  -19.1564  -28.8817   23.2765 C   0  0  0  0  0  0
  -18.9435  -30.1414   23.8754 C   0  0  0  0  0  0
  -17.6421  -30.6454   24.0472 C   0  0  0  0  0  0
  -25.9058  -34.9434   23.5127 C   0  0  0  0  0  0
  -16.5358  -29.8898   23.6214 C   0  0  0  0  0  0
  -16.7342  -28.6361   23.0197 C   0  0  0  0  0  0
  -26.4524  -31.6594   25.0779 C   0  0  0  0  0  0
  -25.3795  -31.3694   26.1540 C   0  0  0  0  0  0
  -27.0385  -30.3024   24.6263 C   0  0  0  0  0  0
  -27.6087  -32.4331   25.7530 C   0  0  0  0  0  0
  -27.5598  -37.1826   24.8458 C   0  0  0  0  0  0
  -21.4207  -29.3019   22.3586 N   0  0  0  0  0  0
  -26.4305  -37.3769   23.9404 N   0  0  0  0  0  0
  -24.6927  -31.0575   22.0999 N   0  0  0  0  0  0
  -23.4199  -28.8121   23.2914 O   0  0  0  0  0  0
  -28.3169  -26.4328   20.1726 O   0  0  0  0  0  0
  -26.5629  -34.8881   22.4692 O   0  0  0  0  0  0
  -23.5457  -32.1354   23.7372 O   0  0  0  0  0  0
  -28.3296  -20.4400   20.5096 C   0  0  0  0  0  0
  -30.5560  -20.7095   19.7087 C   0  0  0  0  0  0
  -28.6285  -19.0725   20.8125 C   0  0  0  0  0  0
  -29.3011  -21.3134   19.9656 C   0  0  0  0  0  0
  -29.9424  -18.5744   20.5693 C   0  0  0  0  0  0
  -27.5557  -18.1982   21.3455 C   0  0  0  0  0  0
  -30.5035  -17.1980   20.9663 C   0  0  0  0  0  0
  -28.6881  -23.8227   20.2172 C   0  0  0  0  0  0
  -26.3021  -18.8761   21.8726 C   0  0  0  0  0  0
  -29.5201  -25.4523   18.3713 C   0  0  0  0  0  0
  -32.2601  -18.2979   22.4662 C   0  0  0  0  0  0
  -28.4176  -25.1657   19.3979 C   0  0  1  0  0  0
  -30.8667  -19.4085   20.0011 N   0  0  0  0  0  0
  -29.0043  -22.6819   19.5228 N   0  0  0  0  0  0
  -29.9783  -15.9643   20.5950 N   0  0  0  0  0  0
  -31.5819  -17.1764   21.7984 N   0  3  0  0  0  0
  -27.6213  -16.9673   21.3572 O   0  0  0  0  0  0
  -28.5806  -23.8071   21.4464 O   0  0  0  0  0  0
  -31.4663  -12.5339   19.1519 H   0  0  0  0  0  0
  -30.3388  -11.4480   19.9276 H   0  0  0  0  0  0
  -29.7866  -11.8037   17.4581 H   0  0  0  0  0  0
  -29.6255  -13.5088   17.7521 H   0  0  0  0  0  0
  -27.8778  -11.2984   18.8706 H   0  0  0  0  0  0
  -27.3808  -12.5729   17.7835 H   0  0  0  0  0  0
  -27.6108  -14.2666   19.4692 H   0  0  0  0  0  0
  -28.6970  -12.1987   21.4398 H   0  0  0  0  0  0
  -28.4308  -13.8970   21.7591 H   0  0  0  0  0  0
  -25.2755   -9.5655   22.4735 H   0  0  0  0  0  0
  -23.9980   -7.4618   22.7443 H   0  0  0  0  0  0
  -21.0859   -8.8695   19.8917 H   0  0  0  0  0  0
  -22.3645  -10.9629   19.6126 H   0  0  0  0  0  0
  -21.2046   -7.6138   23.9680 H   0  0  0  0  0  0
  -21.1473   -6.0527   25.9063 H   0  0  0  0  0  0
  -22.0609   -2.7576   23.2878 H   0  0  0  0  0  0
  -22.4093  -11.9763   22.4734 H   0  0  0  0  0  0
  -21.1040  -13.1064   22.2575 H   0  0  0  0  0  0
  -24.6318  -15.8168   20.6322 H   0  0  0  0  0  0
  -26.2958  -15.6651   20.4201 H   0  0  0  0  0  0
  -26.7190  -32.5437   23.1124 H   0  0  0  0  0  0
  -25.0000  -33.9689   25.0395 H   0  0  0  0  0  0
  -22.7210  -31.3127   21.4033 H   0  0  0  0  0  0
  -23.3749  -35.9660   23.3301 H   0  0  0  0  0  0
  -24.3602  -36.8931   22.2056 H   0  0  0  0  0  0
  -23.7285  -37.6514   23.6677 H   0  0  0  0  0  0
  -26.1247  -31.5490   20.6299 H   0  0  0  0  0  0
  -26.8433  -30.8062   22.0270 H   0  0  0  0  0  0
  -28.1057  -28.9385   21.1972 H   0  0  0  0  0  0
  -25.8585  -25.9258   19.0312 H   0  0  0  0  0  0
  -23.9421  -27.3284   19.0165 H   0  0  0  0  0  0
  -23.7771  -30.6188   19.4041 H   0  0  0  0  0  0
  -22.7606  -29.2770   19.8352 H   0  0  0  0  0  0
  -25.1321  -36.1929   25.0828 H   0  0  0  0  0  0
  -20.9999  -28.3288   24.1332 H   0  0  0  0  0  0
  -20.5623  -26.2294   23.3577 H   0  0  0  0  0  0
  -21.6775  -26.7354   22.1312 H   0  0  0  0  0  0
  -19.7168  -25.6252   21.1201 H   0  0  0  0  0  0
  -19.6898  -27.3116   20.6626 H   0  0  0  0  0  0
  -17.4368  -26.6402   21.3894 H   0  0  0  0  0  0
  -18.0537  -25.9965   22.8855 H   0  0  0  0  0  0
  -19.7900  -30.7302   24.2029 H   0  0  0  0  0  0
  -17.4926  -31.6124   24.5043 H   0  0  0  0  0  0
  -15.5332  -30.2746   23.7518 H   0  0  0  0  0  0
  -15.8795  -28.0658   22.6855 H   0  0  0  0  0  0
  -24.5956  -30.7050   25.7885 H   0  0  0  0  0  0
  -24.9026  -32.2848   26.5055 H   0  0  0  0  0  0
  -25.8168  -30.8835   27.0274 H   0  0  0  0  0  0
  -26.2982  -29.6766   24.1277 H   0  0  0  0  0  0
  -27.4061  -29.7270   25.4760 H   0  0  0  0  0  0
  -27.8864  -30.4294   23.9525 H   0  0  0  0  0  0
  -27.2701  -33.3599   26.2155 H   0  0  0  0  0  0
  -28.3873  -32.6927   25.0353 H   0  0  0  0  0  0
  -28.0808  -31.8455   26.5415 H   0  0  0  0  0  0
  -28.2608  -38.0119   24.7494 H   0  0  0  0  0  0
  -28.1094  -36.2655   24.6306 H   0  0  0  0  0  0
  -27.2317  -37.1512   25.8852 H   0  0  0  0  0  0
  -20.9447  -29.8765   21.6773 H   0  0  0  0  0  0
  -26.0181  -38.2848   24.1380 H   0  0  0  0  0  0
  -27.3340  -20.8316   20.6554 H   0  0  0  0  0  0
  -31.3426  -21.2944   19.2516 H   0  0  0  0  0  0
  -25.7856  -19.3845   21.0609 H   0  0  0  0  0  0
  -26.5790  -19.6116   22.6293 H   0  0  0  0  0  0
  -25.6304  -18.1437   22.3129 H   0  0  0  0  0  0
  -30.4453  -25.7447   18.8677 H   0  0  0  0  0  0
  -29.2195  -26.2770   17.7225 H   0  0  0  0  0  0
  -29.7283  -24.6000   17.7239 H   0  0  0  0  0  0
  -33.0160  -18.7461   21.8225 H   0  0  0  0  0  0
  -32.7644  -17.9143   23.3564 H   0  0  0  0  0  0
  -31.5586  -19.0702   22.7792 H   0  0  0  0  0  0
  -27.5393  -24.9322   18.8109 H   0  0  0  0  0  0
  -29.1125  -22.8394   18.5291 H   0  0  0  0  0  0
  -28.9700  -16.0105   20.5597 H   0  0  0  0  0  0
  -31.9665  -16.2834   22.0683 H   0  0  0  0  0  0
  1 25  1  0  0  0
  1 30  2  0  0  0
  1 85  1  0  0  0
  2  3  1  0  0  0
  2 25  1  0  0  0
  2 89  1  0  0  0
  2 90  1  0  0  0
  3  4  1  0  0  0
  3 91  1  0  0  0
  3 92  1  0  0  0
  4  5  1  0  0  0
  4 93  1  0  0  0
  4 94  1  0  0  0
  5  6  1  0  0  0
  5 26  1  0  0  0
  5 95  1  0  0  0
  6 25  1  0  0  0
  6 96  1  0  0  0
  6 97  1  0  0  0
  7  8  2  0  0  0
  7 26  1  0  0  0
  7 29  1  0  0  0
  8  9  1  0  0  0
  8 22  1  0  0  0
  9 10  1  0  0  0
  9 27  2  0  0  0
 10 11  2  0  0  0
 10 15  1  0  0  0
 11 12  1  0  0  0
 11 98  1  0  0  0
 12 13  2  0  0  0
 12 99  1  0  0  0
 13 14  1  0  0  0
 13 31  1  0  0  0
 14 15  2  0  0  0
 14100  1  0  0  0
 15101  1  0  0  0
 16 17  2  0  0  0
 16 21  1  0  0  0
 16 31  1  0  0  0
 17 18  1  0  0  0
 17102  1  0  0  0
 18 19  2  0  0  0
 18103  1  0  0  0
 19 20  1  0  0  0
 19 24  1  0  0  0
 20 21  2  0  0  0
 20104  1  0  0  0
 21 23  1  0  0  0
 22 28  1  0  0  0
 22 32  2  0  0  0
 26 27  1  0  0  0
 28105  1  0  0  0
 28106  1  0  0  0
 29107  1  0  0  0
 29108  1  0  0  0
 33 34  1  0  0  0
 33 66  1  0  0  0
 33 70  2  0  0  0
 34 36  1  0  0  0
 34 59  1  0  0  0
 34109  1  0  0  0
 35 44  2  0  0  0
 35 45  1  0  0  0
 35 68  1  0  0  0
 36 56  1  0  0  0
 36110  1  0  0  0
 37 39  1  0  0  0
 37 47  1  0  0  0
 37 66  1  0  0  0
 37111  1  0  0  0
 38 43  2  0  0  0
 38 46  1  0  0  0
 38 47  1  0  0  0
 39 64  1  0  0  0
 39 67  2  0  0  0
 40 52  1  0  0  0
 40 53  2  0  0  0
 40 58  1  0  0  0
 41112  1  0  0  0
 41113  1  0  0  0
 41114  1  0  0  0
 41 48  1  0  0  0
 42 43  1  0  0  0
 42 66  1  0  0  0
 42115  1  0  0  0
 42116  1  0  0  0
 43 44  1  0  0  0
 44117  1  0  0  0
 45 46  2  0  0  0
 45118  1  0  0  0
 46119  1  0  0  0
 47120  1  0  0  0
 47121  1  0  0  0
 48 56  1  0  0  0
 48 65  1  0  0  0
 48122  1  0  0  0
 49 50  1  0  0  0
 49 53  1  0  0  0
 49 64  1  0  0  0
 49123  1  0  0  0
 50 51  1  0  0  0
 50124  1  0  0  0
 50125  1  0  0  0
 51 52  1  0  0  0
 51126  1  0  0  0
 51127  1  0  0  0
 52128  1  0  0  0
 52129  1  0  0  0
 53 54  1  0  0  0
 54 55  2  0  0  0
 54130  1  0  0  0
 55 57  1  0  0  0
 55131  1  0  0  0
 56 69  2  0  0  0
 57 58  2  0  0  0
 57132  1  0  0  0
 58133  1  0  0  0
 59 60  1  0  0  0
 59 61  1  0  0  0
 59 62  1  0  0  0
 60134  1  0  0  0
 60135  1  0  0  0
 60136  1  0  0  0
 61137  1  0  0  0
 61138  1  0  0  0
 61139  1  0  0  0
 62140  1  0  0  0
 62141  1  0  0  0
 62142  1  0  0  0
 63 65  1  0  0  0
 63143  1  0  0  0
 63144  1  0  0  0
 63145  1  0  0  0
 64146  1  0  0  0
 65147  1  0  0  0
 68 82  1  0  0  0
 71 73  2  0  0  0
 71 74  1  0  0  0
 71148  1  0  0  0
 72 74  2  0  0  0
 72 83  1  0  0  0
 72149  1  0  0  0
 73 75  1  0  0  0
 73 76  1  0  0  0
 74 84  1  0  0  0
 75 77  1  0  0  0
 75 83  2  0  0  0
 76 79  1  0  0  0
 76 87  2  0  0  0
 77 85  1  0  0  0
 77 86  2  0  0  0
 78 82  1  0  0  0
 78 84  1  0  0  0
 78 88  2  0  0  0
 79150  1  0  0  0
 79151  1  0  0  0
 79152  1  0  0  0
 80153  1  0  0  0
 80154  1  0  0  0
 80155  1  0  0  0
 80 82  1  0  0  0
 81 86  1  0  0  0
 81156  1  0  0  0
 81157  1  0  0  0
 81158  1  0  0  0
 82159  1  0  0  0
 84160  1  0  0  0
 85161  1  0  0  0
 86162  1  0  0  0
M  CHG  1  86   1
M  ISO  4   1 100  68 101  82 101  85 100
M  END
> <chiral flag>
0

> <version>
0

> <s_m_source_file>
/data/baiqing/PycharmProjects/Reinvent-master-3.2/result/LINK_invent/BTK/process_docking_weight1_custom_product_contain_oxygen_bond_distance_aromatic_linkinvent_7_9_3/rearranged_h_0165.sdf

> <i_m_source_file_index>
81

> <r_mmod_Potential_Energy-OPLS-2005>
-292.714385986328

> <r_mmod_Stretch_Energy-OPLS-2005>
93.5630035400391

> <r_mmod_Bend_Energy-OPLS-2005>
165.115859985352

> <r_mmod_Torsional_Energy-OPLS-2005>
307.520202636719

> <r_mmod_Improper_Torsional_Energy-OPLS-2005>
8.9232234954834

> <r_mmod_Van_der_Waal_Energy-OPLS-2005>
158.805160522461

> <r_mmod_Electrostatic_Energy-OPLS-2005>
-655.153442382812

> <r_mmod_Solvation_Energy-OPLS-2005>
-441.509948730469

> <b_mmod_Minimization_Converged-OPLS-2005>
0

> <r_mmod_RMS_Derivative-OPLS-2005>
6.43328714370728

$$$$
82
                    3D
 Structure written by MMmdl.
167176  0  0  1  0            999 V2000
  -30.6994  -14.4496   20.6188 C   0  0  0  0  0  0
  -30.4289  -12.3077   19.4113 C   0  0  0  0  0  0
  -29.4934  -12.5127   18.2013 C   0  0  0  0  0  0
  -28.0146  -12.3699   18.6140 C   0  0  0  0  0  0
  -27.6642  -13.1988   19.8782 C   0  0  2  0  0  0
  -28.7042  -12.9488   20.9934 C   0  0  0  0  0  0
  -25.2605  -13.8143   20.5672 C   0  0  0  0  0  0
  -24.1845  -13.0433   20.9165 C   0  0  0  0  0  0
  -24.6381  -11.6894   20.8725 C   0  0  0  0  0  0
  -23.9044  -10.4288   21.0402 C   0  0  0  0  0  0
  -24.3604   -9.4207   21.9177 C   0  0  0  0  0  0
  -23.6286   -8.2240   22.0750 C   0  0  0  0  0  0
  -22.4268   -8.0277   21.3542 C   0  0  0  0  0  0
  -21.9896   -9.0244   20.4643 C   0  0  0  0  0  0
  -22.7217  -10.2127   20.3050 C   0  0  0  0  0  0
  -21.6854   -6.0730   22.5278 C   0  0  0  0  0  0
  -21.4012   -6.5638   23.8208 C   0  0  0  0  0  0
  -21.3660   -5.6790   24.9171 C   0  0  0  0  0  0
  -21.6046   -4.3053   24.7222 C   0  0  0  0  0  0
  -21.8821   -3.8143   23.4345 C   0  0  0  0  0  0
  -21.9193   -4.6960   22.3400 C   0  0  0  0  0  0
  -22.7870  -13.5242   21.1839 C   0  0  0  0  0  0
  -22.1660   -4.2146   21.0979 F   0  0  0  0  0  0
  -21.5632   -3.4536   25.7735 F   0  0  0  0  0  0
  -30.0379  -13.2709   20.4520 N   0  0  0  0  0  0
  -26.3031  -12.9290   20.3366 N   0  0  0  0  0  0
  -25.9306  -11.6458   20.5756 N   0  0  0  0  0  0
  -22.0514  -12.8234   22.0397 N   0  0  0  0  0  0
  -25.4348  -15.1859   20.4082 N   0  0  0  0  0  0
  -31.8010  -14.6724   20.1071 O   0  0  0  0  0  0
  -21.6641   -6.8871   21.4238 O   0  0  0  0  0  0
  -22.3560  -14.5553   20.6698 O   0  0  0  0  0  0
  -24.6146  -31.8679   23.2111 C   0  0  0  0  0  0
  -25.9035  -32.4827   23.8404 C   0  0  1  0  0  0
  -27.2409  -27.4445   20.1010 C   0  0  0  0  0  0
  -25.5880  -33.8622   24.2330 N   0  0  0  0  0  0
  -23.4034  -30.4910   21.5498 C   0  0  2  0  0  0
  -24.8536  -28.9548   20.1198 C   0  0  0  0  0  0
  -22.7406  -29.4667   22.4987 C   0  0  0  0  0  0
  -18.0269  -28.1387   22.8499 C   0  0  0  0  0  0
  -24.1481  -36.7322   23.2640 C   0  0  0  0  0  0
  -25.9305  -30.8369   21.3633 C   0  0  0  0  0  0
  -26.0115  -29.4683   20.7198 C   0  0  0  0  0  0
  -27.2097  -28.7184   20.7156 C   0  0  0  0  0  0
  -26.0717  -26.9448   19.4955 C   0  0  0  0  0  0
  -24.8765  -27.6887   19.5087 C   0  0  0  0  0  0
  -23.6147  -29.8209   20.1651 C   0  0  0  0  0  0
  -25.4096  -36.3116   24.0345 C   0  0  1  0  0  0
  -20.5861  -28.3669   23.1319 C   0  0  2  0  0  0
  -20.6759  -26.9405   22.5421 C   0  0  0  0  0  0
  -19.5734  -26.6392   21.5221 C   0  0  0  0  0  0
  -18.1914  -26.7935   22.1632 C   0  0  0  0  0  0
  -19.1521  -28.8842   23.2908 C   0  0  0  0  0  0
  -18.9451  -30.1452   23.8914 C   0  0  0  0  0  0
  -17.6456  -30.6590   24.0579 C   0  0  0  0  0  0
  -25.9021  -34.9478   23.5137 C   0  0  0  0  0  0
  -16.5344  -29.9101   23.6332 C   0  0  0  0  0  0
  -16.7261  -28.6521   23.0343 C   0  0  0  0  0  0
  -26.4460  -31.6606   25.0728 C   0  0  0  0  0  0
  -25.3740  -31.3715   26.1493 C   0  0  0  0  0  0
  -27.0288  -30.3058   24.6087 C   0  0  0  0  0  0
  -27.6045  -32.4315   25.7480 C   0  0  0  0  0  0
  -27.5582  -37.1801   24.8457 C   0  0  0  0  0  0
  -21.4131  -29.3045   22.3729 N   0  0  0  0  0  0
  -26.4281  -37.3803   23.9425 N   0  0  0  0  0  0
  -24.6677  -31.0791   22.1007 N   0  0  0  0  0  0
  -23.4176  -28.8205   23.3026 O   0  0  0  0  0  0
  -28.3755  -26.6703   20.0345 O   0  0  0  0  0  0
  -26.5591  -34.8932   22.4702 O   0  0  0  0  0  0
  -23.5342  -32.1412   23.7518 O   0  0  0  0  0  0
  -31.7080  -18.7284   21.7513 C   0  0  0  0  0  0
  -29.3145  -18.9911   22.0176 C   0  0  0  0  0  0
  -31.5400  -17.3532   21.4829 C   0  0  0  0  0  0
  -29.1435  -17.6123   21.7604 C   0  0  0  0  0  0
  -30.6043  -19.5736   22.0237 C   0  0  0  0  0  0
  -30.2499  -16.7753   21.4904 C   0  0  0  0  0  0
  -28.8930  -26.1978   21.2135 C   0  0  0  0  0  0
  -29.3763  -24.9418   21.3582 C   0  0  0  0  0  0
  -29.9664  -24.5818   22.6599 C   0  0  0  0  0  0
  -31.5961  -22.3015   24.6012 C   0  0  0  0  0  0
  -31.4688  -20.9520   23.8854 C   0  0  0  0  0  0
  -30.2586  -23.0401   24.5427 C   0  0  0  0  0  0
  -29.6119  -21.9941   22.4691 C   0  0  0  0  0  0
  -30.8658  -21.0387   22.4580 C   0  0  2  0  0  0
  -31.7315  -21.6305   20.2549 C   0  0  0  0  0  0
  -29.9221  -23.2917   23.1276 N   0  0  0  0  0  0
  -30.0014  -15.3810   21.3008 N   0  0  0  0  0  0
  -30.4584  -25.4701   23.3666 O   0  0  0  0  0  0
  -29.3302  -24.1065   20.3126 O   0  0  0  0  0  0
  -31.8895  -21.6622   21.6727 O   0  0  0  0  0  0
  -31.4709  -12.4233   19.1083 H   0  0  0  0  0  0
  -30.3438  -11.2895   19.7943 H   0  0  0  0  0  0
  -29.7320  -11.7942   17.4159 H   0  0  0  0  0  0
  -29.6589  -13.5014   17.7706 H   0  0  0  0  0  0
  -27.8239  -11.3127   18.8016 H   0  0  0  0  0  0
  -27.3639  -12.6519   17.7852 H   0  0  0  0  0  0
  -27.7172  -14.2505   19.5971 H   0  0  0  0  0  0
  -28.6820  -11.9013   21.2982 H   0  0  0  0  0  0
  -28.4554  -13.5097   21.8949 H   0  0  0  0  0  0
  -25.2753   -9.5691   22.4743 H   0  0  0  0  0  0
  -24.0003   -7.4634   22.7467 H   0  0  0  0  0  0
  -21.0828   -8.8753   19.8949 H   0  0  0  0  0  0
  -22.3670  -10.9662   19.6157 H   0  0  0  0  0  0
  -21.2000   -7.6145   23.9710 H   0  0  0  0  0  0
  -21.1483   -6.0521   25.9074 H   0  0  0  0  0  0
  -22.0600   -2.7606   23.2843 H   0  0  0  0  0  0
  -22.4133  -11.9898   22.4785 H   0  0  0  0  0  0
  -21.1131  -13.1258   22.2598 H   0  0  0  0  0  0
  -24.6693  -15.8431   20.5119 H   0  0  0  0  0  0
  -26.2859  -15.6206   20.0750 H   0  0  0  0  0  0
  -26.7117  -32.5551   23.1187 H   0  0  0  0  0  0
  -25.0031  -33.9772   25.0478 H   0  0  0  0  0  0
  -22.6935  -31.3083   21.4082 H   0  0  0  0  0  0
  -23.3739  -35.9659   23.3302 H   0  0  0  0  0  0
  -24.3590  -36.8935   22.2057 H   0  0  0  0  0  0
  -23.7229  -37.6530   23.6642 H   0  0  0  0  0  0
  -26.0344  -31.5979   20.5887 H   0  0  0  0  0  0
  -26.8219  -30.8999   21.9755 H   0  0  0  0  0  0
  -28.1045  -29.1166   21.1734 H   0  0  0  0  0  0
  -26.0895  -25.9757   19.0166 H   0  0  0  0  0  0
  -23.9870  -27.2865   19.0432 H   0  0  0  0  0  0
  -23.7241  -30.5932   19.4027 H   0  0  0  0  0  0
  -22.7392  -29.2405   19.8685 H   0  0  0  0  0  0
  -25.1274  -36.1980   25.0839 H   0  0  0  0  0  0
  -20.9950  -28.3229   24.1439 H   0  0  0  0  0  0
  -20.5660  -26.2279   23.3610 H   0  0  0  0  0  0
  -21.6630  -26.7439   22.1213 H   0  0  0  0  0  0
  -19.6891  -25.6309   21.1233 H   0  0  0  0  0  0
  -19.6676  -27.3218   20.6765 H   0  0  0  0  0  0
  -17.4184  -26.6689   21.4034 H   0  0  0  0  0  0
  -18.0314  -26.0074   22.9024 H   0  0  0  0  0  0
  -19.7930  -30.7268   24.2277 H   0  0  0  0  0  0
  -17.5017  -31.6271   24.5184 H   0  0  0  0  0  0
  -15.5349  -30.3016   23.7649 H   0  0  0  0  0  0
  -15.8658  -28.0858   22.7028 H   0  0  0  0  0  0
  -24.5882  -30.7096   25.7840 H   0  0  0  0  0  0
  -24.8970  -32.2880   26.4979 H   0  0  0  0  0  0
  -25.8106  -30.8849   27.0225 H   0  0  0  0  0  0
  -26.2826  -29.6831   24.1143 H   0  0  0  0  0  0
  -27.4081  -29.7284   25.4529 H   0  0  0  0  0  0
  -27.8647  -30.4404   23.9218 H   0  0  0  0  0  0
  -27.2665  -33.3600   26.2093 H   0  0  0  0  0  0
  -28.3828  -32.6896   25.0285 H   0  0  0  0  0  0
  -28.0738  -31.8417   26.5366 H   0  0  0  0  0  0
  -28.2575  -38.0122   24.7547 H   0  0  0  0  0  0
  -28.1096  -36.2660   24.6211 H   0  0  0  0  0  0
  -27.2315  -37.1371   25.8860 H   0  0  0  0  0  0
  -20.9281  -29.8787   21.6974 H   0  0  0  0  0  0
  -26.0172  -38.2876   24.1455 H   0  0  0  0  0  0
  -32.7088  -19.1365   21.7772 H   0  0  0  0  0  0
  -28.4362  -19.5766   22.2422 H   0  0  0  0  0  0
  -32.4212  -16.7534   21.3075 H   0  0  0  0  0  0
  -28.1441  -17.2002   21.7892 H   0  0  0  0  0  0
  -28.8831  -26.9399   22.0023 H   0  0  0  0  0  0
  -32.3771  -22.9040   24.1354 H   0  0  0  0  0  0
  -31.8978  -22.1478   25.6380 H   0  0  0  0  0  0
  -30.8257  -20.3163   24.4968 H   0  0  0  0  0  0
  -32.4420  -20.4594   23.8655 H   0  0  0  0  0  0
  -30.3123  -23.9394   25.1582 H   0  0  0  0  0  0
  -29.4759  -22.4440   25.0147 H   0  0  0  0  0  0
  -28.8159  -21.5426   23.0603 H   0  0  0  0  0  0
  -29.1725  -22.0782   21.4825 H   0  0  0  0  0  0
  -32.4555  -22.3034   19.7967 H   0  0  0  0  0  0
  -30.7427  -21.9428   19.9275 H   0  0  0  0  0  0
  -31.9195  -20.6375   19.8483 H   0  0  0  0  0  0
  -29.0970  -15.0557   21.6051 H   0  0  0  0  0  0
  -28.9280  -24.5871   19.6002 H   0  0  0  0  0  0
  1 25  1  0  0  0
  1 30  2  0  0  0
  1 87  1  0  0  0
  2  3  1  0  0  0
  2 25  1  0  0  0
  2 91  1  0  0  0
  2 92  1  0  0  0
  3  4  1  0  0  0
  3 93  1  0  0  0
  3 94  1  0  0  0
  4  5  1  0  0  0
  4 95  1  0  0  0
  4 96  1  0  0  0
  5  6  1  0  0  0
  5 26  1  0  0  0
  5 97  1  0  0  0
  6 25  1  0  0  0
  6 98  1  0  0  0
  6 99  1  0  0  0
  7  8  2  0  0  0
  7 26  1  0  0  0
  7 29  1  0  0  0
  8  9  1  0  0  0
  8 22  1  0  0  0
  9 10  1  0  0  0
  9 27  2  0  0  0
 10 11  2  0  0  0
 10 15  1  0  0  0
 11 12  1  0  0  0
 11100  1  0  0  0
 12 13  2  0  0  0
 12101  1  0  0  0
 13 14  1  0  0  0
 13 31  1  0  0  0
 14 15  2  0  0  0
 14102  1  0  0  0
 15103  1  0  0  0
 16 17  2  0  0  0
 16 21  1  0  0  0
 16 31  1  0  0  0
 17 18  1  0  0  0
 17104  1  0  0  0
 18 19  2  0  0  0
 18105  1  0  0  0
 19 20  1  0  0  0
 19 24  1  0  0  0
 20 21  2  0  0  0
 20106  1  0  0  0
 21 23  1  0  0  0
 22 28  1  0  0  0
 22 32  2  0  0  0
 26 27  1  0  0  0
 28107  1  0  0  0
 28108  1  0  0  0
 29109  1  0  0  0
 29110  1  0  0  0
 33 34  1  0  0  0
 33 66  1  0  0  0
 33 70  2  0  0  0
 34 36  1  0  0  0
 34 59  1  0  0  0
 34111  1  0  0  0
 35 44  2  0  0  0
 35 45  1  0  0  0
 35 68  1  0  0  0
 36 56  1  0  0  0
 36112  1  0  0  0
 37 39  1  0  0  0
 37 47  1  0  0  0
 37 66  1  0  0  0
 37113  1  0  0  0
 38 43  2  0  0  0
 38 46  1  0  0  0
 38 47  1  0  0  0
 39 64  1  0  0  0
 39 67  2  0  0  0
 40 52  1  0  0  0
 40 53  2  0  0  0
 40 58  1  0  0  0
 41114  1  0  0  0
 41115  1  0  0  0
 41116  1  0  0  0
 41 48  1  0  0  0
 42 43  1  0  0  0
 42 66  1  0  0  0
 42117  1  0  0  0
 42118  1  0  0  0
 43 44  1  0  0  0
 44119  1  0  0  0
 45 46  2  0  0  0
 45120  1  0  0  0
 46121  1  0  0  0
 47122  1  0  0  0
 47123  1  0  0  0
 48 56  1  0  0  0
 48 65  1  0  0  0
 48124  1  0  0  0
 49 50  1  0  0  0
 49 53  1  0  0  0
 49 64  1  0  0  0
 49125  1  0  0  0
 50 51  1  0  0  0
 50126  1  0  0  0
 50127  1  0  0  0
 51 52  1  0  0  0
 51128  1  0  0  0
 51129  1  0  0  0
 52130  1  0  0  0
 52131  1  0  0  0
 53 54  1  0  0  0
 54 55  2  0  0  0
 54132  1  0  0  0
 55 57  1  0  0  0
 55133  1  0  0  0
 56 69  2  0  0  0
 57 58  2  0  0  0
 57134  1  0  0  0
 58135  1  0  0  0
 59 60  1  0  0  0
 59 61  1  0  0  0
 59 62  1  0  0  0
 60136  1  0  0  0
 60137  1  0  0  0
 60138  1  0  0  0
 61139  1  0  0  0
 61140  1  0  0  0
 61141  1  0  0  0
 62142  1  0  0  0
 62143  1  0  0  0
 62144  1  0  0  0
 63 65  1  0  0  0
 63145  1  0  0  0
 63146  1  0  0  0
 63147  1  0  0  0
 64148  1  0  0  0
 65149  1  0  0  0
 68 77  1  0  0  0
 71 73  2  0  0  0
 71 75  1  0  0  0
 71150  1  0  0  0
 72 74  1  0  0  0
 72 75  2  0  0  0
 72151  1  0  0  0
 73 76  1  0  0  0
 73152  1  0  0  0
 74 76  2  0  0  0
 74153  1  0  0  0
 75 84  1  0  0  0
 76 87  1  0  0  0
 77 78  2  0  0  0
 77154  1  0  0  0
 78 79  1  0  0  0
 78 89  1  0  0  0
 79 86  1  0  0  0
 79 88  2  0  0  0
 80 81  1  0  0  0
 80 82  1  0  0  0
 80155  1  0  0  0
 80156  1  0  0  0
 81 84  1  0  0  0
 81157  1  0  0  0
 81158  1  0  0  0
 82 86  1  0  0  0
 82159  1  0  0  0
 82160  1  0  0  0
 83 84  1  0  0  0
 83 86  1  0  0  0
 83161  1  0  0  0
 83162  1  0  0  0
 84 90  1  0  0  0
 85 90  1  0  0  0
 85163  1  0  0  0
 85164  1  0  0  0
 85165  1  0  0  0
 87166  1  0  0  0
 89167  1  0  0  0
M  ISO  4   1 100  68 101  77 101  87 100
M  END
> <chiral flag>
0

> <version>
0

> <s_m_source_file>
/data/baiqing/PycharmProjects/Reinvent-master-3.2/result/LINK_invent/BTK/process_docking_weight1_custom_product_contain_oxygen_bond_distance_aromatic_linkinvent_7_9_3/rearranged_h_0165.sdf

> <i_m_source_file_index>
82

> <r_mmod_Potential_Energy-OPLS-2005>
56.5382881164551

> <r_mmod_Stretch_Energy-OPLS-2005>
47.9327659606934

> <r_mmod_Bend_Energy-OPLS-2005>
143.508819580078

> <r_mmod_Torsional_Energy-OPLS-2005>
294.166137695312

> <r_mmod_Improper_Torsional_Energy-OPLS-2005>
3.83588409423828

> <r_mmod_Van_der_Waal_Energy-OPLS-2005>
181.434494018555

> <r_mmod_Electrostatic_Energy-OPLS-2005>
-395.94091796875

> <r_mmod_Solvation_Energy-OPLS-2005>
-228.037536621094

> <b_mmod_Minimization_Converged-OPLS-2005>
0

> <r_mmod_RMS_Derivative-OPLS-2005>
0.965177237987518

$$$$
83
                    3D
 Structure written by MMmdl.
152160  0  0  1  0            999 V2000
  -30.6410  -14.6042   20.3958 C   0  0  0  0  0  0
  -30.4231  -12.3403   19.4535 C   0  0  0  0  0  0
  -29.4980  -12.4550   18.2214 C   0  0  0  0  0  0
  -28.0213  -12.3088   18.6383 C   0  0  0  0  0  0
  -27.6500  -13.2049   19.8501 C   0  0  2  0  0  0
  -28.6986  -13.0907   20.9827 C   0  0  0  0  0  0
  -25.2590  -13.8143   20.5678 C   0  0  0  0  0  0
  -24.1850  -13.0428   20.9162 C   0  0  0  0  0  0
  -24.6400  -11.6887   20.8745 C   0  0  0  0  0  0
  -23.9044  -10.4283   21.0378 C   0  0  0  0  0  0
  -24.3590   -9.4213   21.9156 C   0  0  0  0  0  0
  -23.6291   -8.2244   22.0751 C   0  0  0  0  0  0
  -22.4277   -8.0264   21.3518 C   0  0  0  0  0  0
  -21.9878   -9.0236   20.4615 C   0  0  0  0  0  0
  -22.7204  -10.2126   20.3022 C   0  0  0  0  0  0
  -21.6847   -6.0701   22.5276 C   0  0  0  0  0  0
  -21.4009   -6.5621   23.8205 C   0  0  0  0  0  0
  -21.3665   -5.6783   24.9172 C   0  0  0  0  0  0
  -21.6068   -4.3053   24.7208 C   0  0  0  0  0  0
  -21.8835   -3.8116   23.4343 C   0  0  0  0  0  0
  -21.9206   -4.6929   22.3391 C   0  0  0  0  0  0
  -22.7863  -13.5235   21.1821 C   0  0  0  0  0  0
  -22.1688   -4.2091   21.0973 F   0  0  0  0  0  0
  -21.5623   -3.4539   25.7725 F   0  0  0  0  0  0
  -30.0166  -13.3886   20.4054 N   0  0  0  0  0  0
  -26.2999  -12.9312   20.3274 N   0  0  0  0  0  0
  -25.9315  -11.6490   20.5737 N   0  0  0  0  0  0
  -22.0528  -12.8186   22.0365 N   0  0  0  0  0  0
  -25.4322  -15.1860   20.4094 N   0  0  0  0  0  0
  -31.8293  -14.7140   20.0843 O   0  0  0  0  0  0
  -21.6652   -6.8835   21.4235 O   0  0  0  0  0  0
  -22.3562  -14.5542   20.6705 O   0  0  0  0  0  0
  -24.6270  -31.8645   23.2077 C   0  0  0  0  0  0
  -25.9181  -32.4811   23.8395 C   0  0  1  0  0  0
  -27.2237  -27.3673   20.0662 C   0  0  0  0  0  0
  -25.6065  -33.8611   24.2378 N   0  0  0  0  0  0
  -23.4140  -30.4856   21.5532 C   0  0  2  0  0  0
  -24.8635  -28.9524   20.1042 C   0  0  0  0  0  0
  -22.7457  -29.4659   22.4985 C   0  0  0  0  0  0
  -18.0298  -28.1362   22.8479 C   0  0  0  0  0  0
  -24.1462  -36.7238   23.2610 C   0  0  0  0  0  0
  -25.9551  -30.7998   21.3730 C   0  0  0  0  0  0
  -26.0348  -29.4374   20.7044 C   0  0  0  0  0  0
  -27.2250  -28.6530   20.6829 C   0  0  0  0  0  0
  -26.0352  -26.9261   19.4490 C   0  0  0  0  0  0
  -24.8607  -27.7005   19.4709 C   0  0  0  0  0  0
  -23.6257  -29.8235   20.1682 C   0  0  0  0  0  0
  -25.4078  -36.3044   24.0322 C   0  0  1  0  0  0
  -20.5878  -28.3686   23.1255 C   0  0  2  0  0  0
  -20.6769  -26.9417   22.5391 C   0  0  0  0  0  0
  -19.5767  -26.6379   21.5185 C   0  0  0  0  0  0
  -18.1946  -26.7924   22.1567 C   0  0  0  0  0  0
  -19.1547  -28.8860   23.2856 C   0  0  0  0  0  0
  -18.9464  -30.1467   23.8891 C   0  0  0  0  0  0
  -17.6471  -30.6606   24.0548 C   0  0  0  0  0  0
  -25.9036  -34.9453   23.5093 C   0  0  0  0  0  0
  -16.5359  -29.9094   23.6369 C   0  0  0  0  0  0
  -16.7284  -28.6492   23.0408 C   0  0  0  0  0  0
  -26.4641  -31.6566   25.0699 C   0  0  0  0  0  0
  -25.3957  -31.3781   26.1472 C   0  0  0  0  0  0
  -27.0461  -30.2953   24.6138 C   0  0  0  0  0  0
  -27.6208  -32.4278   25.7529 C   0  0  0  0  0  0
  -27.5563  -37.1734   24.8480 C   0  0  0  0  0  0
  -21.4187  -29.3033   22.3691 N   0  0  0  0  0  0
  -26.4244  -37.3747   23.9501 N   0  0  0  0  0  0
  -24.6845  -31.0648   22.1018 N   0  0  0  0  0  0
  -23.4189  -28.8151   23.3020 O   0  0  0  0  0  0
  -28.2807  -26.4559   20.1246 O   0  0  0  0  0  0
  -26.5561  -34.8913   22.4626 O   0  0  0  0  0  0
  -23.5440  -32.1496   23.7396 O   0  0  0  0  0  0
  -29.7562  -19.4296   18.5345 C   0  0  0  0  0  0
  -29.5043  -18.1523   20.5657 C   0  0  0  0  0  0
  -30.0765  -18.2161   17.8927 C   0  0  0  0  0  0
  -29.4902  -19.4292   19.9194 C   0  0  0  0  0  0
  -29.8595  -16.9555   19.8677 C   0  0  0  0  0  0
  -28.0228  -25.4305   21.0319 C   0  0  0  0  0  0
  -28.1729  -24.0595   21.0303 C   0  0  0  0  0  0
  -28.7974  -23.1578   20.0275 C   0  0  0  0  0  0
  -29.3224  -20.7545   20.7181 C   0  0  0  0  0  0
  -30.1356  -17.0262   18.5406 N   0  0  0  0  0  0
  -29.8429  -15.6953   20.5817 N   0  0  0  0  0  0
  -28.4485  -21.8495   20.2051 N   0  0  0  0  0  0
  -29.6207  -23.4860   19.1753 O   0  0  0  0  0  0
  -27.6972  -23.4567   22.1314 O   0  0  0  0  0  0
  -31.4690  -12.4238   19.1541 H   0  0  0  0  0  0
  -30.3241  -11.3538   19.9119 H   0  0  0  0  0  0
  -29.7503  -11.6878   17.4880 H   0  0  0  0  0  0
  -29.6470  -13.4149   17.7240 H   0  0  0  0  0  0
  -27.8622  -11.2609   18.8944 H   0  0  0  0  0  0
  -27.3637  -12.5129   17.7923 H   0  0  0  0  0  0
  -27.6603  -14.2298   19.4811 H   0  0  0  0  0  0
  -28.6994  -12.0877   21.4171 H   0  0  0  0  0  0
  -28.4649  -13.7724   21.8030 H   0  0  0  0  0  0
  -25.2732   -9.5719   22.4722 H   0  0  0  0  0  0
  -24.0014   -7.4625   22.7463 H   0  0  0  0  0  0
  -21.0808   -8.8713   19.8894 H   0  0  0  0  0  0
  -22.3635  -10.9657   19.6120 H   0  0  0  0  0  0
  -21.2010   -7.6130   23.9687 H   0  0  0  0  0  0
  -21.1480   -6.0511   25.9065 H   0  0  0  0  0  0
  -22.0614   -2.7581   23.2863 H   0  0  0  0  0  0
  -22.4204  -11.9860   22.4736 H   0  0  0  0  0  0
  -21.1139  -13.1170   22.2574 H   0  0  0  0  0  0
  -24.6579  -15.8312   20.5093 H   0  0  0  0  0  0
  -26.2670  -15.6298   20.0500 H   0  0  0  0  0  0
  -26.7188  -32.5491   23.1093 H   0  0  0  0  0  0
  -25.0550  -33.9791   25.0747 H   0  0  0  0  0  0
  -22.7025  -31.3032   21.4122 H   0  0  0  0  0  0
  -23.3757  -35.9540   23.3289 H   0  0  0  0  0  0
  -24.3545  -36.8811   22.2008 H   0  0  0  0  0  0
  -23.7096  -37.6389   23.6642 H   0  0  0  0  0  0
  -26.0673  -31.5608   20.5992 H   0  0  0  0  0  0
  -26.8397  -30.8479   21.9971 H   0  0  0  0  0  0
  -28.1242  -29.0082   21.1665 H   0  0  0  0  0  0
  -26.0096  -25.9533   18.9779 H   0  0  0  0  0  0
  -23.9536  -27.3271   19.0157 H   0  0  0  0  0  0
  -23.7315  -30.6059   19.4165 H   0  0  0  0  0  0
  -22.7470  -29.2518   19.8597 H   0  0  0  0  0  0
  -25.1173  -36.1893   25.0785 H   0  0  0  0  0  0
  -20.9923  -28.3250   24.1394 H   0  0  0  0  0  0
  -20.5681  -26.2304   23.3579 H   0  0  0  0  0  0
  -21.6615  -26.7468   22.1146 H   0  0  0  0  0  0
  -19.6942  -25.6289   21.1209 H   0  0  0  0  0  0
  -19.6683  -27.3202   20.6740 H   0  0  0  0  0  0
  -17.4180  -26.6739   21.3988 H   0  0  0  0  0  0
  -18.0342  -26.0045   22.8941 H   0  0  0  0  0  0
  -19.7967  -30.7285   24.2219 H   0  0  0  0  0  0
  -17.5049  -31.6295   24.5130 H   0  0  0  0  0  0
  -15.5351  -30.3000   23.7727 H   0  0  0  0  0  0
  -15.8665  -28.0810   22.7161 H   0  0  0  0  0  0
  -24.6078  -30.7143   25.7893 H   0  0  0  0  0  0
  -24.9255  -32.3007   26.4863 H   0  0  0  0  0  0
  -25.8328  -30.8996   27.0243 H   0  0  0  0  0  0
  -26.2977  -29.6644   24.1273 H   0  0  0  0  0  0
  -27.4251  -29.7225   25.4633 H   0  0  0  0  0  0
  -27.8854  -30.4226   23.9276 H   0  0  0  0  0  0
  -27.2860  -33.3641   26.2025 H   0  0  0  0  0  0
  -28.4157  -32.6682   25.0456 H   0  0  0  0  0  0
  -28.0742  -31.8410   26.5508 H   0  0  0  0  0  0
  -28.2516  -38.0083   24.7525 H   0  0  0  0  0  0
  -28.1067  -36.2589   24.6263 H   0  0  0  0  0  0
  -27.2328  -37.1284   25.8883 H   0  0  0  0  0  0
  -20.9422  -29.8745   21.6851 H   0  0  0  0  0  0
  -26.0110  -38.2799   24.1608 H   0  0  0  0  0  0
  -29.7623  -20.3513   17.9698 H   0  0  0  0  0  0
  -29.2793  -18.0975   21.6229 H   0  0  0  0  0  0
  -30.3093  -18.2034   16.8317 H   0  0  0  0  0  0
  -27.5817  -25.8697   21.9145 H   0  0  0  0  0  0
  -30.3122  -21.1599   20.9386 H   0  0  0  0  0  0
  -28.9122  -20.4915   21.6974 H   0  0  0  0  0  0
  -28.9898  -15.5031   21.0744 H   0  0  0  0  0  0
  -27.5461  -21.7918   20.6493 H   0  0  0  0  0  0
  -27.3751  -24.1379   22.7103 H   0  0  0  0  0  0
  1 25  1  0  0  0
  1 30  2  0  0  0
  1 81  1  0  0  0
  2  3  1  0  0  0
  2 25  1  0  0  0
  2 85  1  0  0  0
  2 86  1  0  0  0
  3  4  1  0  0  0
  3 87  1  0  0  0
  3 88  1  0  0  0
  4  5  1  0  0  0
  4 89  1  0  0  0
  4 90  1  0  0  0
  5  6  1  0  0  0
  5 26  1  0  0  0
  5 91  1  0  0  0
  6 25  1  0  0  0
  6 92  1  0  0  0
  6 93  1  0  0  0
  7  8  2  0  0  0
  7 26  1  0  0  0
  7 29  1  0  0  0
  8  9  1  0  0  0
  8 22  1  0  0  0
  9 10  1  0  0  0
  9 27  2  0  0  0
 10 11  2  0  0  0
 10 15  1  0  0  0
 11 12  1  0  0  0
 11 94  1  0  0  0
 12 13  2  0  0  0
 12 95  1  0  0  0
 13 14  1  0  0  0
 13 31  1  0  0  0
 14 15  2  0  0  0
 14 96  1  0  0  0
 15 97  1  0  0  0
 16 17  2  0  0  0
 16 21  1  0  0  0
 16 31  1  0  0  0
 17 18  1  0  0  0
 17 98  1  0  0  0
 18 19  2  0  0  0
 18 99  1  0  0  0
 19 20  1  0  0  0
 19 24  1  0  0  0
 20 21  2  0  0  0
 20100  1  0  0  0
 21 23  1  0  0  0
 22 28  1  0  0  0
 22 32  2  0  0  0
 26 27  1  0  0  0
 28101  1  0  0  0
 28102  1  0  0  0
 29103  1  0  0  0
 29104  1  0  0  0
 33 34  1  0  0  0
 33 66  1  0  0  0
 33 70  2  0  0  0
 34 36  1  0  0  0
 34 59  1  0  0  0
 34105  1  0  0  0
 35 44  2  0  0  0
 35 45  1  0  0  0
 35 68  1  0  0  0
 36 56  1  0  0  0
 36106  1  0  0  0
 37 39  1  0  0  0
 37 47  1  0  0  0
 37 66  1  0  0  0
 37107  1  0  0  0
 38 43  2  0  0  0
 38 46  1  0  0  0
 38 47  1  0  0  0
 39 64  1  0  0  0
 39 67  2  0  0  0
 40 52  1  0  0  0
 40 53  2  0  0  0
 40 58  1  0  0  0
 41108  1  0  0  0
 41109  1  0  0  0
 41110  1  0  0  0
 41 48  1  0  0  0
 42 43  1  0  0  0
 42 66  1  0  0  0
 42111  1  0  0  0
 42112  1  0  0  0
 43 44  1  0  0  0
 44113  1  0  0  0
 45 46  2  0  0  0
 45114  1  0  0  0
 46115  1  0  0  0
 47116  1  0  0  0
 47117  1  0  0  0
 48 56  1  0  0  0
 48 65  1  0  0  0
 48118  1  0  0  0
 49 50  1  0  0  0
 49 53  1  0  0  0
 49 64  1  0  0  0
 49119  1  0  0  0
 50 51  1  0  0  0
 50120  1  0  0  0
 50121  1  0  0  0
 51 52  1  0  0  0
 51122  1  0  0  0
 51123  1  0  0  0
 52124  1  0  0  0
 52125  1  0  0  0
 53 54  1  0  0  0
 54 55  2  0  0  0
 54126  1  0  0  0
 55 57  1  0  0  0
 55127  1  0  0  0
 56 69  2  0  0  0
 57 58  2  0  0  0
 57128  1  0  0  0
 58129  1  0  0  0
 59 60  1  0  0  0
 59 61  1  0  0  0
 59 62  1  0  0  0
 60130  1  0  0  0
 60131  1  0  0  0
 60132  1  0  0  0
 61133  1  0  0  0
 61134  1  0  0  0
 61135  1  0  0  0
 62136  1  0  0  0
 62137  1  0  0  0
 62138  1  0  0  0
 63 65  1  0  0  0
 63139  1  0  0  0
 63140  1  0  0  0
 63141  1  0  0  0
 64142  1  0  0  0
 65143  1  0  0  0
 68 76  1  0  0  0
 71 73  2  0  0  0
 71 74  1  0  0  0
 71144  1  0  0  0
 72 74  2  0  0  0
 72 75  1  0  0  0
 72145  1  0  0  0
 73 80  1  0  0  0
 73146  1  0  0  0
 74 79  1  0  0  0
 75 80  2  0  0  0
 75 81  1  0  0  0
 76 77  2  0  0  0
 76147  1  0  0  0
 77 78  1  0  0  0
 77 84  1  0  0  0
 78 82  1  0  0  0
 78 83  2  0  0  0
 79 82  1  0  0  0
 79148  1  0  0  0
 79149  1  0  0  0
 81150  1  0  0  0
 82151  1  0  0  0
 84152  1  0  0  0
M  ISO  4   1 100  68 101  76 101  81 100
M  END
> <chiral flag>
0

> <version>
0

> <s_m_source_file>
/data/baiqing/PycharmProjects/Reinvent-master-3.2/result/LINK_invent/BTK/process_docking_weight1_custom_product_contain_oxygen_bond_distance_aromatic_linkinvent_7_9_3/rearranged_h_0165.sdf

> <i_m_source_file_index>
83

> <r_mmod_Potential_Energy-OPLS-2005>
-177.607147216797

> <r_mmod_Stretch_Energy-OPLS-2005>
61.4378967285156

> <r_mmod_Bend_Energy-OPLS-2005>
156.584213256836

> <r_mmod_Torsional_Energy-OPLS-2005>
287.607482910156

> <r_mmod_Improper_Torsional_Energy-OPLS-2005>
10.7594509124756

> <r_mmod_Van_der_Waal_Energy-OPLS-2005>
145.723159790039

> <r_mmod_Electrostatic_Energy-OPLS-2005>
-617.006713867188

> <r_mmod_Solvation_Energy-OPLS-2005>
-270.016693115234

> <b_mmod_Minimization_Converged-OPLS-2005>
0

> <r_mmod_RMS_Derivative-OPLS-2005>
8.16531562805176

$$$$
84
                    3D
 Structure written by MMmdl.
155164  0  0  1  0            999 V2000
  -30.6082  -14.6431   20.4863 C   0  0  0  0  0  0
  -30.4412  -12.3932   19.4401 C   0  0  0  0  0  0
  -29.5044  -12.5067   18.2160 C   0  0  0  0  0  0
  -28.0257  -12.3533   18.6295 C   0  0  0  0  0  0
  -27.6512  -13.2184   19.8628 C   0  0  2  0  0  0
  -28.6993  -13.0669   20.9876 C   0  0  0  0  0  0
  -25.2546  -13.8189   20.5666 C   0  0  0  0  0  0
  -24.1828  -13.0431   20.9199 C   0  0  0  0  0  0
  -24.6421  -11.6912   20.8759 C   0  0  0  0  0  0
  -23.9103  -10.4289   21.0417 C   0  0  0  0  0  0
  -24.3646   -9.4200   21.9192 C   0  0  0  0  0  0
  -23.6317   -8.2241   22.0755 C   0  0  0  0  0  0
  -22.4289   -8.0305   21.3550 C   0  0  0  0  0  0
  -21.9939   -9.0288   20.4652 C   0  0  0  0  0  0
  -22.7277  -10.2156   20.3061 C   0  0  0  0  0  0
  -21.6868   -6.0762   22.5291 C   0  0  0  0  0  0
  -21.4012   -6.5656   23.8231 C   0  0  0  0  0  0
  -21.3653   -5.6801   24.9184 C   0  0  0  0  0  0
  -21.6044   -4.3065   24.7224 C   0  0  0  0  0  0
  -21.8815   -3.8168   23.4333 C   0  0  0  0  0  0
  -21.9200   -4.6994   22.3401 C   0  0  0  0  0  0
  -22.7852  -13.5215   21.1869 C   0  0  0  0  0  0
  -22.1677   -4.2188   21.0980 F   0  0  0  0  0  0
  -21.5627   -3.4537   25.7733 F   0  0  0  0  0  0
  -30.0101  -13.4131   20.4158 N   0  0  0  0  0  0
  -26.2983  -12.9371   20.3331 N   0  0  0  0  0  0
  -25.9347  -11.6525   20.5787 N   0  0  0  0  0  0
  -22.0497  -12.8201   22.0427 N   0  0  0  0  0  0
  -25.4180  -15.1909   20.4005 N   0  0  0  0  0  0
  -31.7921  -14.8025   20.1713 O   0  0  0  0  0  0
  -21.6649   -6.8913   21.4258 O   0  0  0  0  0  0
  -22.3526  -14.5524   20.6731 O   0  0  0  0  0  0
  -24.6247  -31.8599   23.2028 C   0  0  0  0  0  0
  -25.9099  -32.4773   23.8354 C   0  0  1  0  0  0
  -27.2290  -27.3429   20.1145 C   0  0  0  0  0  0
  -25.5920  -33.8574   24.2280 N   0  0  0  0  0  0
  -23.4189  -30.4814   21.5443 C   0  0  2  0  0  0
  -24.8691  -28.9389   20.1102 C   0  0  0  0  0  0
  -22.7465  -29.4613   22.4940 C   0  0  0  0  0  0
  -18.0285  -28.1381   22.8485 C   0  0  0  0  0  0
  -24.1492  -36.7295   23.2640 C   0  0  0  0  0  0
  -25.9558  -30.7996   21.3692 C   0  0  0  0  0  0
  -26.0363  -29.4275   20.7129 C   0  0  0  0  0  0
  -27.2240  -28.6399   20.7074 C   0  0  0  0  0  0
  -26.0474  -26.8992   19.4871 C   0  0  0  0  0  0
  -24.8747  -27.6782   19.4889 C   0  0  0  0  0  0
  -23.6331  -29.8141   20.1603 C   0  0  0  0  0  0
  -25.4113  -36.3083   24.0337 C   0  0  1  0  0  0
  -20.5884  -28.3684   23.1285 C   0  0  2  0  0  0
  -20.6773  -26.9401   22.5423 C   0  0  0  0  0  0
  -19.5758  -26.6380   21.5212 C   0  0  0  0  0  0
  -18.1931  -26.7933   22.1607 C   0  0  0  0  0  0
  -19.1534  -28.8848   23.2884 C   0  0  0  0  0  0
  -18.9457  -30.1457   23.8895 C   0  0  0  0  0  0
  -17.6458  -30.6589   24.0561 C   0  0  0  0  0  0
  -25.9050  -34.9450   23.5102 C   0  0  0  0  0  0
  -16.5355  -29.9088   23.6328 C   0  0  0  0  0  0
  -16.7272  -28.6504   23.0343 C   0  0  0  0  0  0
  -26.4497  -31.6579   25.0711 C   0  0  0  0  0  0
  -25.3749  -31.3698   26.1445 C   0  0  0  0  0  0
  -27.0347  -30.3012   24.6150 C   0  0  0  0  0  0
  -27.6069  -32.4305   25.7473 C   0  0  0  0  0  0
  -27.5588  -37.1781   24.8451 C   0  0  0  0  0  0
  -21.4179  -29.3038   22.3685 N   0  0  0  0  0  0
  -26.4278  -37.3785   23.9434 N   0  0  0  0  0  0
  -24.6852  -31.0620   22.0969 N   0  0  0  0  0  0
  -23.4190  -28.8170   23.3026 O   0  0  0  0  0  0
  -28.3112  -26.4601   20.1504 O   0  0  0  0  0  0
  -26.5616  -34.8917   22.4665 O   0  0  0  0  0  0
  -23.5413  -32.1367   23.7378 O   0  0  0  0  0  0
  -28.9254  -18.1446   20.4702 C   0  0  0  0  0  0
  -31.1035  -17.8551   20.8608 C   0  0  0  0  0  0
  -29.9504  -17.1466   20.6543 C   0  0  0  0  0  0
  -29.5060  -19.4003   20.5775 C   0  0  0  0  0  0
  -29.2443  -23.3849   19.7659 C   0  0  0  0  0  0
  -28.5777  -23.8870   20.8340 C   0  0  0  0  0  0
  -29.6347  -21.8863   19.5730 C   0  0  0  0  0  0
  -28.1679  -22.9069   21.9400 C   0  0  0  0  0  0
  -28.9079  -21.5333   21.9352 C   0  0  0  0  0  0
  -28.9588  -20.8598   20.5494 C   0  0  2  0  0  0
  -28.1452  -25.3736   21.1259 C   0  0  0  0  0  0
  -29.7522  -15.6975   20.6821 N   0  0  0  0  0  0
  -30.8451  -19.2141   20.8298 O   0  0  0  0  0  0
  -31.4813  -12.5292   19.1373 H   0  0  0  0  0  0
  -30.3832  -11.3959   19.8791 H   0  0  0  0  0  0
  -29.7603  -11.7528   17.4697 H   0  0  0  0  0  0
  -29.6512  -13.4756   17.7363 H   0  0  0  0  0  0
  -27.8540  -11.2990   18.8480 H   0  0  0  0  0  0
  -27.3735  -12.5977   17.7900 H   0  0  0  0  0  0
  -27.6656  -14.2547   19.5263 H   0  0  0  0  0  0
  -28.7113  -12.0439   21.3659 H   0  0  0  0  0  0
  -28.4548  -13.6998   21.8428 H   0  0  0  0  0  0
  -25.2798   -9.5685   22.4755 H   0  0  0  0  0  0
  -24.0049   -7.4628   22.7458 H   0  0  0  0  0  0
  -21.0873   -8.8831   19.8939 H   0  0  0  0  0  0
  -22.3774  -10.9710   19.6173 H   0  0  0  0  0  0
  -21.1990   -7.6166   23.9755 H   0  0  0  0  0  0
  -21.1480   -6.0519   25.9103 H   0  0  0  0  0  0
  -22.0579   -2.7630   23.2831 H   0  0  0  0  0  0
  -22.4126  -11.9864   22.4808 H   0  0  0  0  0  0
  -21.1127  -13.1235   22.2659 H   0  0  0  0  0  0
  -24.6318  -15.8283   20.4798 H   0  0  0  0  0  0
  -26.2449  -15.6322   20.0191 H   0  0  0  0  0  0
  -26.7161  -32.5461   23.1103 H   0  0  0  0  0  0
  -25.0098  -33.9725   25.0446 H   0  0  0  0  0  0
  -22.7142  -31.3023   21.4008 H   0  0  0  0  0  0
  -23.3772  -35.9601   23.3253 H   0  0  0  0  0  0
  -24.3599  -36.8970   22.2065 H   0  0  0  0  0  0
  -23.7204  -37.6466   23.6690 H   0  0  0  0  0  0
  -26.0782  -31.5663   20.6029 H   0  0  0  0  0  0
  -26.8381  -30.8509   21.9950 H   0  0  0  0  0  0
  -28.1195  -29.0079   21.1890 H   0  0  0  0  0  0
  -26.0299  -25.9257   19.0171 H   0  0  0  0  0  0
  -23.9801  -27.2975   19.0158 H   0  0  0  0  0  0
  -23.7474  -30.5889   19.4014 H   0  0  0  0  0  0
  -22.7554  -29.2387   19.8602 H   0  0  0  0  0  0
  -25.1283  -36.1926   25.0824 H   0  0  0  0  0  0
  -20.9957  -28.3258   24.1407 H   0  0  0  0  0  0
  -20.5656  -26.2295   23.3629 H   0  0  0  0  0  0
  -21.6647  -26.7433   22.1236 H   0  0  0  0  0  0
  -19.6930  -25.6292   21.1248 H   0  0  0  0  0  0
  -19.6707  -27.3187   20.6746 H   0  0  0  0  0  0
  -17.4211  -26.6689   21.3997 H   0  0  0  0  0  0
  -18.0315  -26.0068   22.8987 H   0  0  0  0  0  0
  -19.7940  -30.7274   24.2257 H   0  0  0  0  0  0
  -17.5017  -31.6262   24.5172 H   0  0  0  0  0  0
  -15.5353  -30.2984   23.7665 H   0  0  0  0  0  0
  -15.8673  -28.0836   22.7037 H   0  0  0  0  0  0
  -24.5962  -30.6993   25.7781 H   0  0  0  0  0  0
  -24.8898  -32.2852   26.4841 H   0  0  0  0  0  0
  -25.8100  -30.8915   27.0234 H   0  0  0  0  0  0
  -26.2911  -29.6740   24.1215 H   0  0  0  0  0  0
  -27.4104  -29.7278   25.4641 H   0  0  0  0  0  0
  -27.8754  -30.4318   23.9330 H   0  0  0  0  0  0
  -27.2699  -33.3613   26.2047 H   0  0  0  0  0  0
  -28.3876  -32.6844   25.0286 H   0  0  0  0  0  0
  -28.0740  -31.8426   26.5386 H   0  0  0  0  0  0
  -28.2552  -38.0135   24.7581 H   0  0  0  0  0  0
  -28.1139  -36.2666   24.6162 H   0  0  0  0  0  0
  -27.2329  -37.1300   25.8858 H   0  0  0  0  0  0
  -20.9356  -29.8757   21.6898 H   0  0  0  0  0  0
  -26.0160  -38.2846   24.1493 H   0  0  0  0  0  0
  -27.8721  -17.9746   20.2950 H   0  0  0  0  0  0
  -32.1305  -17.5798   21.0624 H   0  0  0  0  0  0
  -29.5593  -24.0599   18.9810 H   0  0  0  0  0  0
  -30.7175  -21.8306   19.6926 H   0  0  0  0  0  0
  -29.4260  -21.5972   18.5430 H   0  0  0  0  0  0
  -27.0934  -22.7427   21.8527 H   0  0  0  0  0  0
  -28.3239  -23.3850   22.9070 H   0  0  0  0  0  0
  -28.4149  -20.8665   22.6439 H   0  0  0  0  0  0
  -29.9249  -21.6621   22.3071 H   0  0  0  0  0  0
  -27.9190  -20.7844   20.2229 H   0  0  0  0  0  0
  -28.6821  -25.6880   22.0219 H   0  0  0  0  0  0
  -27.0990  -25.3164   21.4378 H   0  0  0  0  0  0
  -28.7933  -15.4017   20.7873 H   0  0  0  0  0  0
  1 25  1  0  0  0
  1 30  2  0  0  0
  1 82  1  0  0  0
  2  3  1  0  0  0
  2 25  1  0  0  0
  2 84  1  0  0  0
  2 85  1  0  0  0
  3  4  1  0  0  0
  3 86  1  0  0  0
  3 87  1  0  0  0
  4  5  1  0  0  0
  4 88  1  0  0  0
  4 89  1  0  0  0
  5  6  1  0  0  0
  5 26  1  0  0  0
  5 90  1  0  0  0
  6 25  1  0  0  0
  6 91  1  0  0  0
  6 92  1  0  0  0
  7  8  2  0  0  0
  7 26  1  0  0  0
  7 29  1  0  0  0
  8  9  1  0  0  0
  8 22  1  0  0  0
  9 10  1  0  0  0
  9 27  2  0  0  0
 10 11  2  0  0  0
 10 15  1  0  0  0
 11 12  1  0  0  0
 11 93  1  0  0  0
 12 13  2  0  0  0
 12 94  1  0  0  0
 13 14  1  0  0  0
 13 31  1  0  0  0
 14 15  2  0  0  0
 14 95  1  0  0  0
 15 96  1  0  0  0
 16 17  2  0  0  0
 16 21  1  0  0  0
 16 31  1  0  0  0
 17 18  1  0  0  0
 17 97  1  0  0  0
 18 19  2  0  0  0
 18 98  1  0  0  0
 19 20  1  0  0  0
 19 24  1  0  0  0
 20 21  2  0  0  0
 20 99  1  0  0  0
 21 23  1  0  0  0
 22 28  1  0  0  0
 22 32  2  0  0  0
 26 27  1  0  0  0
 28100  1  0  0  0
 28101  1  0  0  0
 29102  1  0  0  0
 29103  1  0  0  0
 33 34  1  0  0  0
 33 66  1  0  0  0
 33 70  2  0  0  0
 34 36  1  0  0  0
 34 59  1  0  0  0
 34104  1  0  0  0
 35 44  2  0  0  0
 35 45  1  0  0  0
 35 68  1  0  0  0
 36 56  1  0  0  0
 36105  1  0  0  0
 37 39  1  0  0  0
 37 47  1  0  0  0
 37 66  1  0  0  0
 37106  1  0  0  0
 38 43  2  0  0  0
 38 46  1  0  0  0
 38 47  1  0  0  0
 39 64  1  0  0  0
 39 67  2  0  0  0
 40 52  1  0  0  0
 40 53  2  0  0  0
 40 58  1  0  0  0
 41107  1  0  0  0
 41108  1  0  0  0
 41109  1  0  0  0
 41 48  1  0  0  0
 42 43  1  0  0  0
 42 66  1  0  0  0
 42110  1  0  0  0
 42111  1  0  0  0
 43 44  1  0  0  0
 44112  1  0  0  0
 45 46  2  0  0  0
 45113  1  0  0  0
 46114  1  0  0  0
 47115  1  0  0  0
 47116  1  0  0  0
 48 56  1  0  0  0
 48 65  1  0  0  0
 48117  1  0  0  0
 49 50  1  0  0  0
 49 53  1  0  0  0
 49 64  1  0  0  0
 49118  1  0  0  0
 50 51  1  0  0  0
 50119  1  0  0  0
 50120  1  0  0  0
 51 52  1  0  0  0
 51121  1  0  0  0
 51122  1  0  0  0
 52123  1  0  0  0
 52124  1  0  0  0
 53 54  1  0  0  0
 54 55  2  0  0  0
 54125  1  0  0  0
 55 57  1  0  0  0
 55126  1  0  0  0
 56 69  2  0  0  0
 57 58  2  0  0  0
 57127  1  0  0  0
 58128  1  0  0  0
 59 60  1  0  0  0
 59 61  1  0  0  0
 59 62  1  0  0  0
 60129  1  0  0  0
 60130  1  0  0  0
 60131  1  0  0  0
 61132  1  0  0  0
 61133  1  0  0  0
 61134  1  0  0  0
 62135  1  0  0  0
 62136  1  0  0  0
 62137  1  0  0  0
 63 65  1  0  0  0
 63138  1  0  0  0
 63139  1  0  0  0
 63140  1  0  0  0
 64141  1  0  0  0
 65142  1  0  0  0
 68 81  1  0  0  0
 71 73  1  0  0  0
 71 74  2  0  0  0
 71143  1  0  0  0
 72 73  2  0  0  0
 72 83  1  0  0  0
 72144  1  0  0  0
 73 82  1  0  0  0
 74 83  1  0  0  0
 74 80  1  0  0  0
 75 76  2  0  0  0
 75 77  1  0  0  0
 75145  1  0  0  0
 76 78  1  0  0  0
 76 81  1  0  0  0
 77 80  1  0  0  0
 77146  1  0  0  0
 77147  1  0  0  0
 78 79  1  0  0  0
 78148  1  0  0  0
 78149  1  0  0  0
 79 80  1  0  0  0
 79150  1  0  0  0
 79151  1  0  0  0
 80152  1  0  0  0
 81153  1  0  0  0
 81154  1  0  0  0
 82155  1  0  0  0
M  ISO  4   1 100  68 101  81 101  82 100
M  END
> <chiral flag>
0

> <version>
0

> <s_m_source_file>
/data/baiqing/PycharmProjects/Reinvent-master-3.2/result/LINK_invent/BTK/process_docking_weight1_custom_product_contain_oxygen_bond_distance_aromatic_linkinvent_7_9_3/rearranged_h_0165.sdf

> <i_m_source_file_index>
84

> <r_mmod_Potential_Energy-OPLS-2005>
88.9338836669922

> <r_mmod_Stretch_Energy-OPLS-2005>
70.3886642456055

> <r_mmod_Bend_Energy-OPLS-2005>
146.059494018555

> <r_mmod_Torsional_Energy-OPLS-2005>
247.239730834961

> <r_mmod_Improper_Torsional_Energy-OPLS-2005>
6.38330173492432

> <r_mmod_Van_der_Waal_Energy-OPLS-2005>
121.65412902832

> <r_mmod_Electrostatic_Energy-OPLS-2005>
-350.815399169922

> <r_mmod_Solvation_Energy-OPLS-2005>
-200.712112426758

> <b_mmod_Minimization_Converged-OPLS-2005>
0

> <r_mmod_RMS_Derivative-OPLS-2005>
2.30436587333679

$$$$
85
                    3D
 Structure written by MMmdl.
161170  0  0  1  0            999 V2000
  -30.6539  -14.6076   20.4815 C   0  0  0  0  0  0
  -30.4302  -12.3593   19.4725 C   0  0  0  0  0  0
  -29.5087  -12.4826   18.2377 C   0  0  0  0  0  0
  -28.0287  -12.3534   18.6457 C   0  0  0  0  0  0
  -27.6584  -13.2231   19.8767 C   0  0  2  0  0  0
  -28.7002  -13.0800   21.0105 C   0  0  0  0  0  0
  -25.2584  -13.8174   20.5707 C   0  0  0  0  0  0
  -24.1854  -13.0433   20.9201 C   0  0  0  0  0  0
  -24.6455  -11.6912   20.8760 C   0  0  0  0  0  0
  -23.9133  -10.4304   21.0421 C   0  0  0  0  0  0
  -24.3676   -9.4178   21.9153 C   0  0  0  0  0  0
  -23.6329   -8.2234   22.0717 C   0  0  0  0  0  0
  -22.4289   -8.0310   21.3518 C   0  0  0  0  0  0
  -21.9968   -9.0278   20.4601 C   0  0  0  0  0  0
  -22.7336  -10.2138   20.3039 C   0  0  0  0  0  0
  -21.6866   -6.0757   22.5284 C   0  0  0  0  0  0
  -21.4001   -6.5654   23.8222 C   0  0  0  0  0  0
  -21.3648   -5.6803   24.9177 C   0  0  0  0  0  0
  -21.6061   -4.3062   24.7229 C   0  0  0  0  0  0
  -21.8806   -3.8164   23.4350 C   0  0  0  0  0  0
  -21.9167   -4.6981   22.3397 C   0  0  0  0  0  0
  -22.7860  -13.5187   21.1852 C   0  0  0  0  0  0
  -22.1642   -4.2167   21.0970 F   0  0  0  0  0  0
  -21.5664   -3.4562   25.7748 F   0  0  0  0  0  0
  -30.0184  -13.3933   20.4422 N   0  0  0  0  0  0
  -26.3054  -12.9390   20.3437 N   0  0  0  0  0  0
  -25.9404  -11.6539   20.5849 N   0  0  0  0  0  0
  -22.0558  -12.8114   22.0407 N   0  0  0  0  0  0
  -25.4285  -15.1904   20.4051 N   0  0  0  0  0  0
  -31.8153  -14.7331   20.0758 O   0  0  0  0  0  0
  -21.6653   -6.8903   21.4243 O   0  0  0  0  0  0
  -22.3503  -14.5478   20.6687 O   0  0  0  0  0  0
  -24.6262  -31.8605   23.2032 C   0  0  0  0  0  0
  -25.9124  -32.4778   23.8342 C   0  0  1  0  0  0
  -27.2191  -27.3276   20.1069 C   0  0  0  0  0  0
  -25.5943  -33.8582   24.2267 N   0  0  0  0  0  0
  -23.4158  -30.4865   21.5462 C   0  0  2  0  0  0
  -24.8581  -28.9412   20.1083 C   0  0  0  0  0  0
  -22.7432  -29.4657   22.4940 C   0  0  0  0  0  0
  -18.0278  -28.1407   22.8490 C   0  0  0  0  0  0
  -24.1487  -36.7278   23.2626 C   0  0  0  0  0  0
  -25.9570  -30.7944   21.3721 C   0  0  0  0  0  0
  -26.0263  -29.4227   20.7118 C   0  0  0  0  0  0
  -27.2049  -28.6254   20.7022 C   0  0  0  0  0  0
  -26.0217  -26.8847   19.4990 C   0  0  0  0  0  0
  -24.8578  -27.6771   19.4980 C   0  0  0  0  0  0
  -23.6268  -29.8228   20.1606 C   0  0  0  0  0  0
  -25.4115  -36.3092   24.0323 C   0  0  1  0  0  0
  -20.5877  -28.3723   23.1286 C   0  0  2  0  0  0
  -20.6775  -26.9446   22.5413 C   0  0  0  0  0  0
  -19.5756  -26.6410   21.5213 C   0  0  0  0  0  0
  -18.1930  -26.7965   22.1612 C   0  0  0  0  0  0
  -19.1529  -28.8870   23.2892 C   0  0  0  0  0  0
  -18.9454  -30.1475   23.8914 C   0  0  0  0  0  0
  -17.6457  -30.6612   24.0583 C   0  0  0  0  0  0
  -25.9062  -34.9464   23.5092 C   0  0  0  0  0  0
  -16.5351  -29.9116   23.6340 C   0  0  0  0  0  0
  -16.7273  -28.6530   23.0367 C   0  0  0  0  0  0
  -26.4510  -31.6605   25.0718 C   0  0  0  0  0  0
  -25.3727  -31.3741   26.1426 C   0  0  0  0  0  0
  -27.0360  -30.3032   24.6190 C   0  0  0  0  0  0
  -27.6076  -32.4335   25.7480 C   0  0  0  0  0  0
  -27.5612  -37.1757   24.8425 C   0  0  0  0  0  0
  -21.4151  -29.3061   22.3651 N   0  0  0  0  0  0
  -26.4272  -37.3809   23.9452 N   0  0  0  0  0  0
  -24.6855  -31.0620   22.0984 N   0  0  0  0  0  0
  -23.4155  -28.8209   23.3033 O   0  0  0  0  0  0
  -28.3660  -26.5296   20.1852 O   0  0  0  0  0  0
  -26.5628  -34.8935   22.4656 O   0  0  0  0  0  0
  -23.5427  -32.1410   23.7373 O   0  0  0  0  0  0
  -29.6756  -16.8953   18.7088 C   0  0  0  0  0  0
  -29.7668  -16.9322   20.0785 C   0  0  0  0  0  0
  -29.2926  -19.1875   19.6461 C   0  0  0  0  0  0
  -29.4832  -24.1896   21.6433 C   0  0  0  0  0  0
  -28.0073  -21.3411   20.6892 C   0  0  0  0  0  0
  -30.3247  -21.6268   19.7860 C   0  0  0  0  0  0
  -27.6805  -22.8505   20.3352 C   0  0  0  0  0  0
  -29.9833  -23.1009   19.3789 C   0  0  0  0  0  0
  -29.0743  -20.7260   19.7385 C   0  0  1  0  0  0
  -28.9011  -23.8629   20.2395 C   0  0  2  0  0  0
  -30.7360  -25.0632   21.7419 C   0  0  0  0  0  0
  -28.5231  -25.2398   19.4840 C   0  0  0  0  0  0
  -29.5528  -18.2491   20.6042 N   0  0  0  0  0  0
  -29.9134  -15.7010   20.8374 N   0  0  0  0  0  0
  -28.9624  -23.7638   22.6788 O   0  0  0  0  0  0
  -29.3007  -18.4545   18.0339 S   0  0  0  0  0  0
  -31.4778  -12.4492   19.1782 H   0  0  0  0  0  0
  -30.3351  -11.3719   19.9251 H   0  0  0  0  0  0
  -29.7580  -11.7075   17.5106 H   0  0  0  0  0  0
  -29.6780  -13.4371   17.7386 H   0  0  0  0  0  0
  -27.8461  -11.3014   18.8659 H   0  0  0  0  0  0
  -27.3820  -12.6009   17.8038 H   0  0  0  0  0  0
  -27.6817  -14.2613   19.5441 H   0  0  0  0  0  0
  -28.6998  -12.0656   21.4118 H   0  0  0  0  0  0
  -28.4589  -13.7368   21.8495 H   0  0  0  0  0  0
  -25.2798   -9.5637   22.4747 H   0  0  0  0  0  0
  -24.0027   -7.4625   22.7439 H   0  0  0  0  0  0
  -21.0913   -8.8835   19.8887 H   0  0  0  0  0  0
  -22.3827  -10.9706   19.6169 H   0  0  0  0  0  0
  -21.2010   -7.6166   23.9748 H   0  0  0  0  0  0
  -21.1477   -6.0531   25.9087 H   0  0  0  0  0  0
  -22.0591   -2.7625   23.2882 H   0  0  0  0  0  0
  -22.4257  -11.9771   22.4727 H   0  0  0  0  0  0
  -21.1155  -13.1051   22.2681 H   0  0  0  0  0  0
  -24.6526  -15.8376   20.4723 H   0  0  0  0  0  0
  -26.2832  -15.6291   20.0865 H   0  0  0  0  0  0
  -26.7184  -32.5444   23.1079 H   0  0  0  0  0  0
  -25.0106  -33.9734   25.0426 H   0  0  0  0  0  0
  -22.7126  -31.3103   21.4058 H   0  0  0  0  0  0
  -23.3819  -35.9525   23.3152 H   0  0  0  0  0  0
  -24.3606  -36.9045   22.2068 H   0  0  0  0  0  0
  -23.7138  -37.6386   23.6748 H   0  0  0  0  0  0
  -26.0878  -31.5613   20.6072 H   0  0  0  0  0  0
  -26.8377  -30.8386   22.0014 H   0  0  0  0  0  0
  -28.1047  -28.9919   21.1779 H   0  0  0  0  0  0
  -25.9313  -25.9113   19.0468 H   0  0  0  0  0  0
  -23.9560  -27.2971   19.0384 H   0  0  0  0  0  0
  -23.7449  -30.6036   19.4068 H   0  0  0  0  0  0
  -22.7449  -29.2559   19.8577 H   0  0  0  0  0  0
  -25.1291  -36.1906   25.0807 H   0  0  0  0  0  0
  -20.9992  -28.3320   24.1404 H   0  0  0  0  0  0
  -20.5709  -26.2326   23.3614 H   0  0  0  0  0  0
  -21.6647  -26.7491   22.1204 H   0  0  0  0  0  0
  -19.6926  -25.6317   21.1259 H   0  0  0  0  0  0
  -19.6726  -27.3214   20.6752 H   0  0  0  0  0  0
  -17.4212  -26.6746   21.3994 H   0  0  0  0  0  0
  -18.0308  -26.0092   22.8995 H   0  0  0  0  0  0
  -19.7932  -30.7300   24.2305 H   0  0  0  0  0  0
  -17.5010  -31.6294   24.5185 H   0  0  0  0  0  0
  -15.5361  -30.3032   23.7663 H   0  0  0  0  0  0
  -15.8663  -28.0867   22.7093 H   0  0  0  0  0  0
  -24.5903  -30.7100   25.7727 H   0  0  0  0  0  0
  -24.8915  -32.2906   26.4846 H   0  0  0  0  0  0
  -25.8016  -30.8896   27.0204 H   0  0  0  0  0  0
  -26.2942  -29.6757   24.1225 H   0  0  0  0  0  0
  -27.4071  -29.7318   25.4712 H   0  0  0  0  0  0
  -27.8802  -30.4330   23.9411 H   0  0  0  0  0  0
  -27.2716  -33.3632   26.2082 H   0  0  0  0  0  0
  -28.3867  -32.6895   25.0289 H   0  0  0  0  0  0
  -28.0769  -31.8440   26.5367 H   0  0  0  0  0  0
  -28.2496  -38.0192   24.7709 H   0  0  0  0  0  0
  -28.1258  -36.2746   24.5961 H   0  0  0  0  0  0
  -27.2359  -37.1031   25.8820 H   0  0  0  0  0  0
  -20.9322  -29.8745   21.6837 H   0  0  0  0  0  0
  -26.0142  -38.2836   24.1622 H   0  0  0  0  0  0
  -29.7610  -16.0466   18.0425 H   0  0  0  0  0  0
  -27.0874  -20.7601   20.6215 H   0  0  0  0  0  0
  -28.3384  -21.2496   21.7260 H   0  0  0  0  0  0
  -30.7990  -21.5809   20.7686 H   0  0  0  0  0  0
  -31.0618  -21.2472   19.0759 H   0  0  0  0  0  0
  -26.9324  -23.2276   21.0377 H   0  0  0  0  0  0
  -27.1592  -22.8436   19.3768 H   0  0  0  0  0  0
  -29.6376  -23.0783   18.3429 H   0  0  0  0  0  0
  -30.9104  -23.6770   19.3412 H   0  0  0  0  0  0
  -28.6488  -20.9292   18.7552 H   0  0  0  0  0  0
  -30.6838  -25.9042   21.0529 H   0  0  0  0  0  0
  -31.6356  -24.4909   21.5152 H   0  0  0  0  0  0
  -30.8387  -25.4645   22.7514 H   0  0  0  0  0  0
  -27.7352  -25.0411   18.7635 H   0  0  0  0  0  0
  -29.3640  -25.4597   18.8275 H   0  0  0  0  0  0
  -29.1443  -15.5033   21.4592 H   0  0  0  0  0  0
  1 25  1  0  0  0
  1 30  2  0  0  0
  1 84  1  0  0  0
  2  3  1  0  0  0
  2 25  1  0  0  0
  2 87  1  0  0  0
  2 88  1  0  0  0
  3  4  1  0  0  0
  3 89  1  0  0  0
  3 90  1  0  0  0
  4  5  1  0  0  0
  4 91  1  0  0  0
  4 92  1  0  0  0
  5  6  1  0  0  0
  5 26  1  0  0  0
  5 93  1  0  0  0
  6 25  1  0  0  0
  6 94  1  0  0  0
  6 95  1  0  0  0
  7  8  2  0  0  0
  7 26  1  0  0  0
  7 29  1  0  0  0
  8  9  1  0  0  0
  8 22  1  0  0  0
  9 10  1  0  0  0
  9 27  2  0  0  0
 10 11  2  0  0  0
 10 15  1  0  0  0
 11 12  1  0  0  0
 11 96  1  0  0  0
 12 13  2  0  0  0
 12 97  1  0  0  0
 13 14  1  0  0  0
 13 31  1  0  0  0
 14 15  2  0  0  0
 14 98  1  0  0  0
 15 99  1  0  0  0
 16 17  2  0  0  0
 16 21  1  0  0  0
 16 31  1  0  0  0
 17 18  1  0  0  0
 17100  1  0  0  0
 18 19  2  0  0  0
 18101  1  0  0  0
 19 20  1  0  0  0
 19 24  1  0  0  0
 20 21  2  0  0  0
 20102  1  0  0  0
 21 23  1  0  0  0
 22 28  1  0  0  0
 22 32  2  0  0  0
 26 27  1  0  0  0
 28103  1  0  0  0
 28104  1  0  0  0
 29105  1  0  0  0
 29106  1  0  0  0
 33 34  1  0  0  0
 33 66  1  0  0  0
 33 70  2  0  0  0
 34 36  1  0  0  0
 34 59  1  0  0  0
 34107  1  0  0  0
 35 44  2  0  0  0
 35 45  1  0  0  0
 35 68  1  0  0  0
 36 56  1  0  0  0
 36108  1  0  0  0
 37 39  1  0  0  0
 37 47  1  0  0  0
 37 66  1  0  0  0
 37109  1  0  0  0
 38 43  2  0  0  0
 38 46  1  0  0  0
 38 47  1  0  0  0
 39 64  1  0  0  0
 39 67  2  0  0  0
 40 52  1  0  0  0
 40 53  2  0  0  0
 40 58  1  0  0  0
 41110  1  0  0  0
 41111  1  0  0  0
 41112  1  0  0  0
 41 48  1  0  0  0
 42 43  1  0  0  0
 42 66  1  0  0  0
 42113  1  0  0  0
 42114  1  0  0  0
 43 44  1  0  0  0
 44115  1  0  0  0
 45 46  2  0  0  0
 45116  1  0  0  0
 46117  1  0  0  0
 47118  1  0  0  0
 47119  1  0  0  0
 48 56  1  0  0  0
 48 65  1  0  0  0
 48120  1  0  0  0
 49 50  1  0  0  0
 49 53  1  0  0  0
 49 64  1  0  0  0
 49121  1  0  0  0
 50 51  1  0  0  0
 50122  1  0  0  0
 50123  1  0  0  0
 51 52  1  0  0  0
 51124  1  0  0  0
 51125  1  0  0  0
 52126  1  0  0  0
 52127  1  0  0  0
 53 54  1  0  0  0
 54 55  2  0  0  0
 54128  1  0  0  0
 55 57  1  0  0  0
 55129  1  0  0  0
 56 69  2  0  0  0
 57 58  2  0  0  0
 57130  1  0  0  0
 58131  1  0  0  0
 59 60  1  0  0  0
 59 61  1  0  0  0
 59 62  1  0  0  0
 60132  1  0  0  0
 60133  1  0  0  0
 60134  1  0  0  0
 61135  1  0  0  0
 61136  1  0  0  0
 61137  1  0  0  0
 62138  1  0  0  0
 62139  1  0  0  0
 62140  1  0  0  0
 63 65  1  0  0  0
 63141  1  0  0  0
 63142  1  0  0  0
 63143  1  0  0  0
 64144  1  0  0  0
 65145  1  0  0  0
 68 82  1  0  0  0
 71 72  2  0  0  0
 71 86  1  0  0  0
 71146  1  0  0  0
 72 83  1  0  0  0
 72 84  1  0  0  0
 73 83  2  0  0  0
 73 86  1  0  0  0
 73 79  1  0  0  0
 74 81  1  0  0  0
 74 85  2  0  0  0
 74 80  1  0  0  0
 75 77  1  0  0  0
 75 79  1  0  0  0
 75147  1  0  0  0
 75148  1  0  0  0
 76 78  1  0  0  0
 76 79  1  0  0  0
 76149  1  0  0  0
 76150  1  0  0  0
 77 80  1  0  0  0
 77151  1  0  0  0
 77152  1  0  0  0
 78 80  1  0  0  0
 78153  1  0  0  0
 78154  1  0  0  0
 79155  1  0  0  0
 80 82  1  0  0  0
 81156  1  0  0  0
 81157  1  0  0  0
 81158  1  0  0  0
 82159  1  0  0  0
 82160  1  0  0  0
 84161  1  0  0  0
M  ISO  4   1 100  68 101  82 101  84 100
M  END
> <chiral flag>
0

> <version>
0

> <s_m_source_file>
/data/baiqing/PycharmProjects/Reinvent-master-3.2/result/LINK_invent/BTK/process_docking_weight1_custom_product_contain_oxygen_bond_distance_aromatic_linkinvent_7_9_3/rearranged_h_0165.sdf

> <i_m_source_file_index>
85

> <r_mmod_Potential_Energy-OPLS-2005>
89.6464385986328

> <r_mmod_Stretch_Energy-OPLS-2005>
81.3040771484375

> <r_mmod_Bend_Energy-OPLS-2005>
175.106552124023

> <r_mmod_Torsional_Energy-OPLS-2005>
238.620727539062

> <r_mmod_Improper_Torsional_Energy-OPLS-2005>
5.92253065109253

> <r_mmod_Van_der_Waal_Energy-OPLS-2005>
125.376052856445

> <r_mmod_Electrostatic_Energy-OPLS-2005>
-347.712799072266

> <r_mmod_Solvation_Energy-OPLS-2005>
-230.319351196289

> <b_mmod_Minimization_Converged-OPLS-2005>
0

> <r_mmod_RMS_Derivative-OPLS-2005>
4.39893770217896

$$$$
86
                    3D
 Structure written by MMmdl.
164173  0  0  1  0            999 V2000
  -30.7006  -14.5702   20.5358 C   0  0  0  0  0  0
  -30.4176  -12.3633   19.4378 C   0  0  0  0  0  0
  -29.4927  -12.5071   18.2128 C   0  0  0  0  0  0
  -28.0164  -12.3570   18.6292 C   0  0  0  0  0  0
  -27.6520  -13.2228   19.8650 C   0  0  2  0  0  0
  -28.7006  -13.0815   20.9918 C   0  0  0  0  0  0
  -25.2546  -13.8193   20.5715 C   0  0  0  0  0  0
  -24.1824  -13.0450   20.9214 C   0  0  0  0  0  0
  -24.6401  -11.6925   20.8763 C   0  0  0  0  0  0
  -23.9071  -10.4304   21.0418 C   0  0  0  0  0  0
  -24.3618   -9.4218   21.9196 C   0  0  0  0  0  0
  -23.6291   -8.2251   22.0762 C   0  0  0  0  0  0
  -22.4275   -8.0290   21.3546 C   0  0  0  0  0  0
  -21.9918   -9.0265   20.4651 C   0  0  0  0  0  0
  -22.7243  -10.2151   20.3066 C   0  0  0  0  0  0
  -21.6847   -6.0751   22.5279 C   0  0  0  0  0  0
  -21.4008   -6.5650   23.8216 C   0  0  0  0  0  0
  -21.3661   -5.6801   24.9176 C   0  0  0  0  0  0
  -21.6049   -4.3064   24.7222 C   0  0  0  0  0  0
  -21.8817   -3.8159   23.4340 C   0  0  0  0  0  0
  -21.9187   -4.6978   22.3399 C   0  0  0  0  0  0
  -22.7845  -13.5235   21.1869 C   0  0  0  0  0  0
  -22.1659   -4.2165   21.0978 F   0  0  0  0  0  0
  -21.5630   -3.4554   25.7737 F   0  0  0  0  0  0
  -30.0159  -13.3932   20.4162 N   0  0  0  0  0  0
  -26.2990  -12.9396   20.3361 N   0  0  0  0  0  0
  -25.9333  -11.6541   20.5788 N   0  0  0  0  0  0
  -22.0482  -12.8233   22.0415 N   0  0  0  0  0  0
  -25.4234  -15.1921   20.4116 N   0  0  0  0  0  0
  -31.8617  -14.6705   20.1288 O   0  0  0  0  0  0
  -21.6632   -6.8892   21.4238 O   0  0  0  0  0  0
  -22.3542  -14.5546   20.6710 O   0  0  0  0  0  0
  -24.6263  -31.8607   23.2058 C   0  0  0  0  0  0
  -25.9117  -32.4781   23.8379 C   0  0  1  0  0  0
  -27.2212  -27.3290   20.1030 C   0  0  0  0  0  0
  -25.5940  -33.8582   24.2295 N   0  0  0  0  0  0
  -23.4179  -30.4887   21.5496 C   0  0  2  0  0  0
  -24.8631  -28.9514   20.1108 C   0  0  0  0  0  0
  -22.7458  -29.4629   22.4928 C   0  0  0  0  0  0
  -18.0291  -28.1382   22.8496 C   0  0  0  0  0  0
  -24.1482  -36.7283   23.2631 C   0  0  0  0  0  0
  -25.9607  -30.7929   21.3792 C   0  0  0  0  0  0
  -26.0337  -29.4238   20.7174 C   0  0  0  0  0  0
  -27.2143  -28.6226   20.7094 C   0  0  0  0  0  0
  -26.0224  -26.9178   19.4664 C   0  0  0  0  0  0
  -24.8578  -27.7017   19.4809 C   0  0  0  0  0  0
  -23.6311  -29.8299   20.1637 C   0  0  0  0  0  0
  -25.4106  -36.3067   24.0317 C   0  0  1  0  0  0
  -20.5885  -28.3690   23.1277 C   0  0  2  0  0  0
  -20.6772  -26.9409   22.5409 C   0  0  0  0  0  0
  -19.5746  -26.6386   21.5209 C   0  0  0  0  0  0
  -18.1927  -26.7929   22.1620 C   0  0  0  0  0  0
  -19.1541  -28.8851   23.2882 C   0  0  0  0  0  0
  -18.9466  -30.1453   23.8897 C   0  0  0  0  0  0
  -17.6464  -30.6591   24.0567 C   0  0  0  0  0  0
  -25.9055  -34.9441   23.5098 C   0  0  0  0  0  0
  -16.5352  -29.9092   23.6337 C   0  0  0  0  0  0
  -16.7277  -28.6502   23.0373 C   0  0  0  0  0  0
  -26.4516  -31.6592   25.0748 C   0  0  0  0  0  0
  -25.3746  -31.3711   26.1471 C   0  0  0  0  0  0
  -27.0388  -30.3018   24.6215 C   0  0  0  0  0  0
  -27.6074  -32.4336   25.7515 C   0  0  0  0  0  0
  -27.5586  -37.1763   24.8444 C   0  0  0  0  0  0
  -21.4171  -29.3046   22.3666 N   0  0  0  0  0  0
  -26.4266  -37.3786   23.9433 N   0  0  0  0  0  0
  -24.6874  -31.0614   22.1026 N   0  0  0  0  0  0
  -23.4174  -28.8147   23.2998 O   0  0  0  0  0  0
  -28.3380  -26.4736   20.1563 O   0  0  0  0  0  0
  -26.5617  -34.8900   22.4662 O   0  0  0  0  0  0
  -23.5425  -32.1432   23.7372 O   0  0  0  0  0  0
  -32.3034  -18.3780   22.1948 C   0  0  0  0  0  0
  -31.5999  -19.5568   21.8924 C   0  0  0  0  0  0
  -31.7748  -17.1209   21.8604 C   0  0  0  0  0  0
  -29.8072  -18.2205   20.9305 C   0  0  0  0  0  0
  -30.3351  -19.5186   21.2585 C   0  0  0  0  0  0
  -30.5250  -17.0047   21.2100 C   0  0  0  0  0  0
  -29.4180  -21.2570   19.5191 C   0  0  0  0  0  0
  -30.1332  -22.1239   21.7243 C   0  0  0  0  0  0
  -28.5992  -22.5752   19.3081 C   0  0  0  0  0  0
  -29.3099  -23.4370   21.5129 C   0  0  0  0  0  0
  -29.5570  -20.8593   21.0063 C   0  0  2  0  0  0
  -29.1413  -23.8596   20.0234 C   0  0  2  0  0  0
  -31.2426  -25.0908   19.9056 C   0  0  0  0  0  0
  -28.1226  -25.0640   19.7681 C   0  0  0  0  0  0
  -29.9998  -15.6793   20.9182 N   0  0  0  0  0  0
  -30.3869  -24.0936   19.3596 O   0  0  0  0  0  0
  -31.4611  -12.4532   19.1322 H   0  0  0  0  0  0
  -30.3220  -11.3677   19.8767 H   0  0  0  0  0  0
  -29.7449  -11.7622   17.4565 H   0  0  0  0  0  0
  -29.6477  -13.4803   17.7448 H   0  0  0  0  0  0
  -27.8401  -11.3039   18.8477 H   0  0  0  0  0  0
  -27.3617  -12.6056   17.7915 H   0  0  0  0  0  0
  -27.6711  -14.2598   19.5293 H   0  0  0  0  0  0
  -28.7020  -12.0668   21.3929 H   0  0  0  0  0  0
  -28.4631  -13.7356   21.8320 H   0  0  0  0  0  0
  -25.2759   -9.5698   22.4780 H   0  0  0  0  0  0
  -24.0004   -7.4645   22.7480 H   0  0  0  0  0  0
  -21.0855   -8.8785   19.8947 H   0  0  0  0  0  0
  -22.3695  -10.9697   19.6188 H   0  0  0  0  0  0
  -21.2002   -7.6163   23.9719 H   0  0  0  0  0  0
  -21.1488   -6.0537   25.9078 H   0  0  0  0  0  0
  -22.0595   -2.7621   23.2836 H   0  0  0  0  0  0
  -22.4080  -11.9877   22.4792 H   0  0  0  0  0  0
  -21.1101  -13.1274   22.2613 H   0  0  0  0  0  0
  -24.6547  -15.8452   20.5182 H   0  0  0  0  0  0
  -26.2712  -15.6321   20.0779 H   0  0  0  0  0  0
  -26.7182  -32.5445   23.1124 H   0  0  0  0  0  0
  -25.0073  -33.9764   25.0424 H   0  0  0  0  0  0
  -22.7122  -31.3101   21.4110 H   0  0  0  0  0  0
  -23.3768  -35.9590   23.3243 H   0  0  0  0  0  0
  -24.3580  -36.8989   22.2063 H   0  0  0  0  0  0
  -23.7205  -37.6444   23.6713 H   0  0  0  0  0  0
  -26.0936  -31.5584   20.6143 H   0  0  0  0  0  0
  -26.8406  -30.8379   22.0090 H   0  0  0  0  0  0
  -28.1098  -28.9789   21.1990 H   0  0  0  0  0  0
  -25.9391  -25.9716   18.9551 H   0  0  0  0  0  0
  -23.9596  -27.3330   19.0063 H   0  0  0  0  0  0
  -23.7468  -30.6109   19.4115 H   0  0  0  0  0  0
  -22.7514  -29.2601   19.8627 H   0  0  0  0  0  0
  -25.1276  -36.1904   25.0806 H   0  0  0  0  0  0
  -20.9984  -28.3284   24.1397 H   0  0  0  0  0  0
  -20.5685  -26.2301   23.3609 H   0  0  0  0  0  0
  -21.6640  -26.7443   22.1211 H   0  0  0  0  0  0
  -19.6906  -25.6304   21.1244 H   0  0  0  0  0  0
  -19.6682  -27.3186   20.6733 H   0  0  0  0  0  0
  -17.4198  -26.6700   21.4017 H   0  0  0  0  0  0
  -18.0304  -26.0071   22.9012 H   0  0  0  0  0  0
  -19.7945  -30.7274   24.2257 H   0  0  0  0  0  0
  -17.5031  -31.6275   24.5174 H   0  0  0  0  0  0
  -15.5358  -30.2992   23.7669 H   0  0  0  0  0  0
  -15.8676  -28.0813   22.7093 H   0  0  0  0  0  0
  -24.5935  -30.7049   25.7790 H   0  0  0  0  0  0
  -24.8905  -32.2864   26.4884 H   0  0  0  0  0  0
  -25.8075  -30.8900   27.0252 H   0  0  0  0  0  0
  -26.2986  -29.6722   24.1262 H   0  0  0  0  0  0
  -27.4137  -29.7312   25.4726 H   0  0  0  0  0  0
  -27.8824  -30.4325   23.9429 H   0  0  0  0  0  0
  -27.2717  -33.3682   26.2023 H   0  0  0  0  0  0
  -28.3915  -32.6828   25.0351 H   0  0  0  0  0  0
  -28.0706  -31.8502   26.5490 H   0  0  0  0  0  0
  -28.2506  -38.0159   24.7641 H   0  0  0  0  0  0
  -28.1193  -36.2699   24.6094 H   0  0  0  0  0  0
  -27.2324  -37.1189   25.8845 H   0  0  0  0  0  0
  -20.9322  -29.8798   21.6920 H   0  0  0  0  0  0
  -26.0135  -38.2828   24.1569 H   0  0  0  0  0  0
  -33.2573  -18.4384   22.6999 H   0  0  0  0  0  0
  -32.0560  -20.4899   22.1863 H   0  0  0  0  0  0
  -32.3463  -16.2431   22.1254 H   0  0  0  0  0  0
  -28.8371  -18.1609   20.4577 H   0  0  0  0  0  0
  -30.4088  -21.3691   19.0774 H   0  0  0  0  0  0
  -28.9365  -20.4449   18.9730 H   0  0  0  0  0  0
  -30.2125  -21.9297   22.7951 H   0  0  0  0  0  0
  -31.1479  -22.3106   21.3693 H   0  0  0  0  0  0
  -27.5786  -22.3895   19.6483 H   0  0  0  0  0  0
  -28.5145  -22.7613   18.2366 H   0  0  0  0  0  0
  -29.7502  -24.2503   22.0889 H   0  0  0  0  0  0
  -28.3206  -23.2873   21.9472 H   0  0  0  0  0  0
  -28.5558  -20.6905   21.4049 H   0  0  0  0  0  0
  -32.1341  -25.1706   19.2822 H   0  0  0  0  0  0
  -31.5805  -24.8374   20.9093 H   0  0  0  0  0  0
  -30.7736  -26.0722   19.9277 H   0  0  0  0  0  0
  -27.1984  -24.7351   20.2449 H   0  0  0  0  0  0
  -27.9291  -25.0767   18.6948 H   0  0  0  0  0  0
  -29.0041  -15.5537   21.0206 H   0  0  0  0  0  0
  1 25  1  0  0  0
  1 30  2  0  0  0
  1 85  1  0  0  0
  2  3  1  0  0  0
  2 25  1  0  0  0
  2 87  1  0  0  0
  2 88  1  0  0  0
  3  4  1  0  0  0
  3 89  1  0  0  0
  3 90  1  0  0  0
  4  5  1  0  0  0
  4 91  1  0  0  0
  4 92  1  0  0  0
  5  6  1  0  0  0
  5 26  1  0  0  0
  5 93  1  0  0  0
  6 25  1  0  0  0
  6 94  1  0  0  0
  6 95  1  0  0  0
  7  8  2  0  0  0
  7 26  1  0  0  0
  7 29  1  0  0  0
  8  9  1  0  0  0
  8 22  1  0  0  0
  9 10  1  0  0  0
  9 27  2  0  0  0
 10 11  2  0  0  0
 10 15  1  0  0  0
 11 12  1  0  0  0
 11 96  1  0  0  0
 12 13  2  0  0  0
 12 97  1  0  0  0
 13 14  1  0  0  0
 13 31  1  0  0  0
 14 15  2  0  0  0
 14 98  1  0  0  0
 15 99  1  0  0  0
 16 17  2  0  0  0
 16 21  1  0  0  0
 16 31  1  0  0  0
 17 18  1  0  0  0
 17100  1  0  0  0
 18 19  2  0  0  0
 18101  1  0  0  0
 19 20  1  0  0  0
 19 24  1  0  0  0
 20 21  2  0  0  0
 20102  1  0  0  0
 21 23  1  0  0  0
 22 28  1  0  0  0
 22 32  2  0  0  0
 26 27  1  0  0  0
 28103  1  0  0  0
 28104  1  0  0  0
 29105  1  0  0  0
 29106  1  0  0  0
 33 34  1  0  0  0
 33 66  1  0  0  0
 33 70  2  0  0  0
 34 36  1  0  0  0
 34 59  1  0  0  0
 34107  1  0  0  0
 35 44  2  0  0  0
 35 45  1  0  0  0
 35 68  1  0  0  0
 36 56  1  0  0  0
 36108  1  0  0  0
 37 39  1  0  0  0
 37 47  1  0  0  0
 37 66  1  0  0  0
 37109  1  0  0  0
 38 43  2  0  0  0
 38 46  1  0  0  0
 38 47  1  0  0  0
 39 64  1  0  0  0
 39 67  2  0  0  0
 40 52  1  0  0  0
 40 53  2  0  0  0
 40 58  1  0  0  0
 41110  1  0  0  0
 41111  1  0  0  0
 41112  1  0  0  0
 41 48  1  0  0  0
 42 43  1  0  0  0
 42 66  1  0  0  0
 42113  1  0  0  0
 42114  1  0  0  0
 43 44  1  0  0  0
 44115  1  0  0  0
 45 46  2  0  0  0
 45116  1  0  0  0
 46117  1  0  0  0
 47118  1  0  0  0
 47119  1  0  0  0
 48 56  1  0  0  0
 48 65  1  0  0  0
 48120  1  0  0  0
 49 50  1  0  0  0
 49 53  1  0  0  0
 49 64  1  0  0  0
 49121  1  0  0  0
 50 51  1  0  0  0
 50122  1  0  0  0
 50123  1  0  0  0
 51 52  1  0  0  0
 51124  1  0  0  0
 51125  1  0  0  0
 52126  1  0  0  0
 52127  1  0  0  0
 53 54  1  0  0  0
 54 55  2  0  0  0
 54128  1  0  0  0
 55 57  1  0  0  0
 55129  1  0  0  0
 56 69  2  0  0  0
 57 58  2  0  0  0
 57130  1  0  0  0
 58131  1  0  0  0
 59 60  1  0  0  0
 59 61  1  0  0  0
 59 62  1  0  0  0
 60132  1  0  0  0
 60133  1  0  0  0
 60134  1  0  0  0
 61135  1  0  0  0
 61136  1  0  0  0
 61137  1  0  0  0
 62138  1  0  0  0
 62139  1  0  0  0
 62140  1  0  0  0
 63 65  1  0  0  0
 63141  1  0  0  0
 63142  1  0  0  0
 63143  1  0  0  0
 64144  1  0  0  0
 65145  1  0  0  0
 68 84  1  0  0  0
 71 72  2  0  0  0
 71 73  1  0  0  0
 71146  1  0  0  0
 72 75  1  0  0  0
 72147  1  0  0  0
 73 76  2  0  0  0
 73148  1  0  0  0
 74 75  2  0  0  0
 74 76  1  0  0  0
 74149  1  0  0  0
 75 81  1  0  0  0
 76 85  1  0  0  0
 77 79  1  0  0  0
 77 81  1  0  0  0
 77150  1  0  0  0
 77151  1  0  0  0
 78 80  1  0  0  0
 78 81  1  0  0  0
 78152  1  0  0  0
 78153  1  0  0  0
 79 82  1  0  0  0
 79154  1  0  0  0
 79155  1  0  0  0
 80 82  1  0  0  0
 80156  1  0  0  0
 80157  1  0  0  0
 81158  1  0  0  0
 82 84  1  0  0  0
 82 86  1  0  0  0
 83 86  1  0  0  0
 83159  1  0  0  0
 83160  1  0  0  0
 83161  1  0  0  0
 84162  1  0  0  0
 84163  1  0  0  0
 85164  1  0  0  0
M  ISO  4   1 100  68 101  84 101  85 100
M  END
> <chiral flag>
0

> <version>
0

> <s_m_source_file>
/data/baiqing/PycharmProjects/Reinvent-master-3.2/result/LINK_invent/BTK/process_docking_weight1_custom_product_contain_oxygen_bond_distance_aromatic_linkinvent_7_9_3/rearranged_h_0165.sdf

> <i_m_source_file_index>
86

> <r_mmod_Potential_Energy-OPLS-2005>
78.4158172607422

> <r_mmod_Stretch_Energy-OPLS-2005>
74.2648620605469

> <r_mmod_Bend_Energy-OPLS-2005>
144.966415405273

> <r_mmod_Torsional_Energy-OPLS-2005>
237.212219238281

> <r_mmod_Improper_Torsional_Energy-OPLS-2005>
4.63951301574707

> <r_mmod_Van_der_Waal_Energy-OPLS-2005>
163.539916992188

> <r_mmod_Electrostatic_Energy-OPLS-2005>
-376.734710693359

> <r_mmod_Solvation_Energy-OPLS-2005>
-208.397491455078

> <b_mmod_Minimization_Converged-OPLS-2005>
0

> <r_mmod_RMS_Derivative-OPLS-2005>
2.06654739379883

$$$$
87
                    3D
 Structure written by MMmdl.
164172  0  0  1  0            999 V2000
  -30.6399  -14.5994   20.4649 C   0  0  0  0  0  0
  -30.4222  -12.3498   19.4623 C   0  0  0  0  0  0
  -29.4991  -12.4872   18.2313 C   0  0  0  0  0  0
  -28.0164  -12.3521   18.6366 C   0  0  0  0  0  0
  -27.6467  -13.2027   19.8813 C   0  0  2  0  0  0
  -28.6988  -13.0604   21.0055 C   0  0  0  0  0  0
  -25.2531  -13.8136   20.5757 C   0  0  0  0  0  0
  -24.1787  -13.0406   20.9231 C   0  0  0  0  0  0
  -24.6356  -11.6881   20.8784 C   0  0  0  0  0  0
  -23.9048  -10.4276   21.0437 C   0  0  0  0  0  0
  -24.3616   -9.4195   21.9203 C   0  0  0  0  0  0
  -23.6292   -8.2234   22.0760 C   0  0  0  0  0  0
  -22.4274   -8.0274   21.3550 C   0  0  0  0  0  0
  -21.9908   -9.0248   20.4658 C   0  0  0  0  0  0
  -22.7243  -10.2120   20.3071 C   0  0  0  0  0  0
  -21.6847   -6.0746   22.5296 C   0  0  0  0  0  0
  -21.4015   -6.5655   23.8228 C   0  0  0  0  0  0
  -21.3642   -5.6806   24.9189 C   0  0  0  0  0  0
  -21.6025   -4.3063   24.7239 C   0  0  0  0  0  0
  -21.8812   -3.8162   23.4359 C   0  0  0  0  0  0
  -21.9197   -4.6978   22.3417 C   0  0  0  0  0  0
  -22.7822  -13.5205   21.1872 C   0  0  0  0  0  0
  -22.1672   -4.2173   21.0989 F   0  0  0  0  0  0
  -21.5617   -3.4537   25.7743 F   0  0  0  0  0  0
  -30.0167  -13.3808   20.4358 N   0  0  0  0  0  0
  -26.2946  -12.9272   20.3467 N   0  0  0  0  0  0
  -25.9285  -11.6448   20.5874 N   0  0  0  0  0  0
  -22.0471  -12.8193   22.0431 N   0  0  0  0  0  0
  -25.4232  -15.1863   20.4178 N   0  0  0  0  0  0
  -31.8037  -14.7396   20.0750 O   0  0  0  0  0  0
  -21.6630   -6.8884   21.4252 O   0  0  0  0  0  0
  -22.3513  -14.5525   20.6738 O   0  0  0  0  0  0
  -24.6167  -31.8630   23.2011 C   0  0  0  0  0  0
  -25.9038  -32.4795   23.8339 C   0  0  1  0  0  0
  -27.2377  -27.3802   20.1072 C   0  0  0  0  0  0
  -25.5871  -33.8590   24.2280 N   0  0  0  0  0  0
  -23.4077  -30.4823   21.5423 C   0  0  2  0  0  0
  -24.8578  -28.9399   20.1035 C   0  0  0  0  0  0
  -22.7417  -29.4635   22.4949 C   0  0  0  0  0  0
  -18.0269  -28.1391   22.8501 C   0  0  0  0  0  0
  -24.1483  -36.7300   23.2641 C   0  0  0  0  0  0
  -25.9382  -30.8125   21.3607 C   0  0  0  0  0  0
  -26.0163  -29.4421   20.7092 C   0  0  0  0  0  0
  -27.2029  -28.6675   20.7085 C   0  0  0  0  0  0
  -26.0629  -26.9066   19.4829 C   0  0  0  0  0  0
  -24.8803  -27.6768   19.4835 C   0  0  0  0  0  0
  -23.6166  -29.8063   20.1589 C   0  0  0  0  0  0
  -25.4103  -36.3090   24.0335 C   0  0  1  0  0  0
  -20.5855  -28.3690   23.1306 C   0  0  2  0  0  0
  -20.6748  -26.9422   22.5421 C   0  0  0  0  0  0
  -19.5732  -26.6400   21.5208 C   0  0  0  0  0  0
  -18.1911  -26.7937   22.1626 C   0  0  0  0  0  0
  -19.1518  -28.8855   23.2907 C   0  0  0  0  0  0
  -18.9446  -30.1449   23.8940 C   0  0  0  0  0  0
  -17.6451  -30.6603   24.0567 C   0  0  0  0  0  0
  -25.9036  -34.9459   23.5116 C   0  0  0  0  0  0
  -16.5341  -29.9109   23.6332 C   0  0  0  0  0  0
  -16.7261  -28.6516   23.0380 C   0  0  0  0  0  0
  -26.4461  -31.6583   25.0686 C   0  0  0  0  0  0
  -25.3700  -31.3671   26.1409 C   0  0  0  0  0  0
  -27.0305  -30.3023   24.6080 C   0  0  0  0  0  0
  -27.6042  -32.4299   25.7455 C   0  0  0  0  0  0
  -27.5580  -37.1793   24.8467 C   0  0  0  0  0  0
  -21.4137  -29.3039   22.3694 N   0  0  0  0  0  0
  -26.4289  -37.3780   23.9415 N   0  0  0  0  0  0
  -24.6724  -31.0688   22.0931 N   0  0  0  0  0  0
  -23.4168  -28.8204   23.3028 O   0  0  0  0  0  0
  -28.3877  -26.6093   20.2251 O   0  0  0  0  0  0
  -26.5637  -34.8929   22.4700 O   0  0  0  0  0  0
  -23.5351  -32.1419   23.7375 O   0  0  0  0  0  0
  -28.3704  -17.5092   17.9352 C   0  0  0  0  0  0
  -28.9050  -16.5003   18.7408 C   0  0  0  0  0  0
  -28.5194  -18.8620   18.3048 C   0  0  0  0  0  0
  -29.2493  -19.1466   19.4958 C   0  0  0  0  0  0
  -29.5594  -16.8090   19.9474 C   0  0  0  0  0  0
  -28.5836  -25.3887   19.5865 C   0  0  0  0  0  0
  -28.9081  -21.4775   19.9872 C   0  0  0  0  0  0
  -28.6443  -24.1750   20.2128 C   0  0  0  0  0  0
  -29.1173  -22.9320   19.4867 C   0  0  0  0  0  0
  -27.7767  -19.6021   15.0451 C   0  0  0  0  0  0
  -25.1526  -20.7019   17.6092 C   0  0  0  0  0  0
  -27.0715  -19.6736   16.4051 C   0  0  1  0  0  0
  -29.7284  -18.1334   20.2963 N   0  0  0  0  0  0
  -29.6898  -20.4843   19.6987 N   0  0  0  0  0  0
  -28.0388  -19.9040   17.4822 N   0  0  0  0  0  0
  -29.8698  -15.6761   20.7961 N   0  0  0  0  0  0
  -26.0203  -20.7134   16.4130 N   0  3  0  0  0  0
  -29.7204  -23.0624   18.4138 O   0  0  0  0  0  0
  -28.3384  -24.0689   21.5134 O   0  0  0  0  0  0
  -31.4679  -12.4420   19.1644 H   0  0  0  0  0  0
  -30.3231  -11.3573   19.9062 H   0  0  0  0  0  0
  -29.7496  -11.7303   17.4871 H   0  0  0  0  0  0
  -29.6665  -13.4500   17.7491 H   0  0  0  0  0  0
  -27.8275  -11.2987   18.8419 H   0  0  0  0  0  0
  -27.3708  -12.6161   17.7978 H   0  0  0  0  0  0
  -27.6408  -14.2382   19.5652 H   0  0  0  0  0  0
  -28.7014  -12.0440   21.4023 H   0  0  0  0  0  0
  -28.4571  -13.7075   21.8494 H   0  0  0  0  0  0
  -25.2761   -9.5666   22.4777 H   0  0  0  0  0  0
  -24.0006   -7.4624   22.7467 H   0  0  0  0  0  0
  -21.0846   -8.8779   19.8964 H   0  0  0  0  0  0
  -22.3726  -10.9666   19.6182 H   0  0  0  0  0  0
  -21.2017   -7.6166   23.9723 H   0  0  0  0  0  0
  -21.1465   -6.0556   25.9086 H   0  0  0  0  0  0
  -22.0604   -2.7630   23.2868 H   0  0  0  0  0  0
  -22.4106  -11.9838   22.4779 H   0  0  0  0  0  0
  -21.1090  -13.1224   22.2651 H   0  0  0  0  0  0
  -24.6457  -15.8309   20.5084 H   0  0  0  0  0  0
  -26.2706  -15.6337   20.0929 H   0  0  0  0  0  0
  -26.7109  -32.5511   23.1101 H   0  0  0  0  0  0
  -24.9936  -33.9734   25.0368 H   0  0  0  0  0  0
  -22.6983  -31.2993   21.3958 H   0  0  0  0  0  0
  -23.3753  -35.9625   23.3293 H   0  0  0  0  0  0
  -24.3584  -36.8930   22.2061 H   0  0  0  0  0  0
  -23.7228  -37.6490   23.6682 H   0  0  0  0  0  0
  -26.0502  -31.5733   20.5869 H   0  0  0  0  0  0
  -26.8253  -30.8731   21.9789 H   0  0  0  0  0  0
  -28.0917  -29.0404   21.1994 H   0  0  0  0  0  0
  -26.0461  -25.9321   19.0176 H   0  0  0  0  0  0
  -23.9904  -27.2864   19.0078 H   0  0  0  0  0  0
  -23.7129  -30.5752   19.3916 H   0  0  0  0  0  0
  -22.7424  -29.2181   19.8730 H   0  0  0  0  0  0
  -25.1272  -36.1944   25.0830 H   0  0  0  0  0  0
  -20.9957  -28.3271   24.1417 H   0  0  0  0  0  0
  -20.5633  -26.2307   23.3611 H   0  0  0  0  0  0
  -21.6623  -26.7445   22.1226 H   0  0  0  0  0  0
  -19.6901  -25.6318   21.1229 H   0  0  0  0  0  0
  -19.6663  -27.3224   20.6744 H   0  0  0  0  0  0
  -17.4164  -26.6688   21.4039 H   0  0  0  0  0  0
  -18.0334  -26.0071   22.9021 H   0  0  0  0  0  0
  -19.7923  -30.7243   24.2353 H   0  0  0  0  0  0
  -17.5012  -31.6290   24.5156 H   0  0  0  0  0  0
  -15.5352  -30.3028   23.7624 H   0  0  0  0  0  0
  -15.8654  -28.0825   22.7120 H   0  0  0  0  0  0
  -24.5911  -30.6993   25.7710 H   0  0  0  0  0  0
  -24.8847  -32.2810   26.4842 H   0  0  0  0  0  0
  -25.8020  -30.8839   27.0179 H   0  0  0  0  0  0
  -26.2862  -29.6769   24.1140 H   0  0  0  0  0  0
  -27.4077  -29.7268   25.4544 H   0  0  0  0  0  0
  -27.8686  -30.4341   23.9231 H   0  0  0  0  0  0
  -27.2691  -33.3611   26.2031 H   0  0  0  0  0  0
  -28.3849  -32.6828   25.0270 H   0  0  0  0  0  0
  -28.0715  -31.8417   26.5360 H   0  0  0  0  0  0
  -28.2572  -38.0117   24.7535 H   0  0  0  0  0  0
  -28.1097  -36.2640   24.6256 H   0  0  0  0  0  0
  -27.2304  -37.1392   25.8873 H   0  0  0  0  0  0
  -20.9316  -29.8734   21.6876 H   0  0  0  0  0  0
  -26.0169  -38.2850   24.1435 H   0  0  0  0  0  0
  -27.8881  -17.2127   17.0171 H   0  0  0  0  0  0
  -28.7953  -15.4868   18.3953 H   0  0  0  0  0  0
  -28.7704  -25.5232   18.5282 H   0  0  0  0  0  0
  -27.9940  -21.2973   20.5584 H   0  0  0  0  0  0
  -28.5332  -18.8169   15.0336 H   0  0  0  0  0  0
  -28.2722  -20.5407   14.7946 H   0  0  0  0  0  0
  -27.0693  -19.3787   14.2455 H   0  0  0  0  0  0
  -24.3425  -21.4220   17.4999 H   0  0  0  0  0  0
  -25.7138  -20.9611   18.5076 H   0  0  0  0  0  0
  -24.7097  -19.7158   17.7564 H   0  0  0  0  0  0
  -26.5428  -18.7328   16.5582 H   0  0  0  0  0  0
  -28.5999  -20.7511   17.4578 H   0  0  0  0  0  0
  -29.0816  -15.3985   21.3589 H   0  0  0  0  0  0
  -26.4171  -21.6304   16.2896 H   0  0  0  0  0  0
  -25.4225  -20.5493   15.6179 H   0  0  0  0  0  0
  -28.0925  -24.9373   21.8085 H   0  0  0  0  0  0
  1 25  1  0  0  0
  1 30  2  0  0  0
  1 86  1  0  0  0
  2  3  1  0  0  0
  2 25  1  0  0  0
  2 90  1  0  0  0
  2 91  1  0  0  0
  3  4  1  0  0  0
  3 92  1  0  0  0
  3 93  1  0  0  0
  4  5  1  0  0  0
  4 94  1  0  0  0
  4 95  1  0  0  0
  5  6  1  0  0  0
  5 26  1  0  0  0
  5 96  1  0  0  0
  6 25  1  0  0  0
  6 97  1  0  0  0
  6 98  1  0  0  0
  7  8  2  0  0  0
  7 26  1  0  0  0
  7 29  1  0  0  0
  8  9  1  0  0  0
  8 22  1  0  0  0
  9 10  1  0  0  0
  9 27  2  0  0  0
 10 11  2  0  0  0
 10 15  1  0  0  0
 11 12  1  0  0  0
 11 99  1  0  0  0
 12 13  2  0  0  0
 12100  1  0  0  0
 13 14  1  0  0  0
 13 31  1  0  0  0
 14 15  2  0  0  0
 14101  1  0  0  0
 15102  1  0  0  0
 16 17  2  0  0  0
 16 21  1  0  0  0
 16 31  1  0  0  0
 17 18  1  0  0  0
 17103  1  0  0  0
 18 19  2  0  0  0
 18104  1  0  0  0
 19 20  1  0  0  0
 19 24  1  0  0  0
 20 21  2  0  0  0
 20105  1  0  0  0
 21 23  1  0  0  0
 22 28  1  0  0  0
 22 32  2  0  0  0
 26 27  1  0  0  0
 28106  1  0  0  0
 28107  1  0  0  0
 29108  1  0  0  0
 29109  1  0  0  0
 33 34  1  0  0  0
 33 66  1  0  0  0
 33 70  2  0  0  0
 34 36  1  0  0  0
 34 59  1  0  0  0
 34110  1  0  0  0
 35 44  2  0  0  0
 35 45  1  0  0  0
 35 68  1  0  0  0
 36 56  1  0  0  0
 36111  1  0  0  0
 37 39  1  0  0  0
 37 47  1  0  0  0
 37 66  1  0  0  0
 37112  1  0  0  0
 38 43  2  0  0  0
 38 46  1  0  0  0
 38 47  1  0  0  0
 39 64  1  0  0  0
 39 67  2  0  0  0
 40 52  1  0  0  0
 40 53  2  0  0  0
 40 58  1  0  0  0
 41113  1  0  0  0
 41114  1  0  0  0
 41115  1  0  0  0
 41 48  1  0  0  0
 42 43  1  0  0  0
 42 66  1  0  0  0
 42116  1  0  0  0
 42117  1  0  0  0
 43 44  1  0  0  0
 44118  1  0  0  0
 45 46  2  0  0  0
 45119  1  0  0  0
 46120  1  0  0  0
 47121  1  0  0  0
 47122  1  0  0  0
 48 56  1  0  0  0
 48 65  1  0  0  0
 48123  1  0  0  0
 49 50  1  0  0  0
 49 53  1  0  0  0
 49 64  1  0  0  0
 49124  1  0  0  0
 50 51  1  0  0  0
 50125  1  0  0  0
 50126  1  0  0  0
 51 52  1  0  0  0
 51127  1  0  0  0
 51128  1  0  0  0
 52129  1  0  0  0
 52130  1  0  0  0
 53 54  1  0  0  0
 54 55  2  0  0  0
 54131  1  0  0  0
 55 57  1  0  0  0
 55132  1  0  0  0
 56 69  2  0  0  0
 57 58  2  0  0  0
 57133  1  0  0  0
 58134  1  0  0  0
 59 60  1  0  0  0
 59 61  1  0  0  0
 59 62  1  0  0  0
 60135  1  0  0  0
 60136  1  0  0  0
 60137  1  0  0  0
 61138  1  0  0  0
 61139  1  0  0  0
 61140  1  0  0  0
 62141  1  0  0  0
 62142  1  0  0  0
 62143  1  0  0  0
 63 65  1  0  0  0
 63144  1  0  0  0
 63145  1  0  0  0
 63146  1  0  0  0
 64147  1  0  0  0
 65148  1  0  0  0
 68 76  1  0  0  0
 71 72  2  0  0  0
 71 73  1  0  0  0
 71149  1  0  0  0
 72 75  1  0  0  0
 72150  1  0  0  0
 73 74  2  0  0  0
 73 85  1  0  0  0
 74 83  1  0  0  0
 74 84  1  0  0  0
 75 83  2  0  0  0
 75 86  1  0  0  0
 76 78  2  0  0  0
 76151  1  0  0  0
 77 79  1  0  0  0
 77 84  2  0  0  0
 77152  1  0  0  0
 78 79  1  0  0  0
 78 89  1  0  0  0
 79 88  2  0  0  0
 80153  1  0  0  0
 80154  1  0  0  0
 80155  1  0  0  0
 80 82  1  0  0  0
 81 87  1  0  0  0
 81156  1  0  0  0
 81157  1  0  0  0
 81158  1  0  0  0
 82 85  1  0  0  0
 82 87  1  0  0  0
 82159  1  0  0  0
 85160  1  0  0  0
 86161  1  0  0  0
 87162  1  0  0  0
 87163  1  0  0  0
 89164  1  0  0  0
M  CHG  1  87   1
M  ISO  4   1 100  68 101  76 101  86 100
M  END
> <chiral flag>
0

> <version>
0

> <s_m_source_file>
/data/baiqing/PycharmProjects/Reinvent-master-3.2/result/LINK_invent/BTK/process_docking_weight1_custom_product_contain_oxygen_bond_distance_aromatic_linkinvent_7_9_3/rearranged_h_0165.sdf

> <i_m_source_file_index>
87

> <r_mmod_Potential_Energy-OPLS-2005>
-210.880035400391

> <r_mmod_Stretch_Energy-OPLS-2005>
63.6270294189453

> <r_mmod_Bend_Energy-OPLS-2005>
146.230422973633

> <r_mmod_Torsional_Energy-OPLS-2005>
314.318542480469

> <r_mmod_Improper_Torsional_Energy-OPLS-2005>
11.7304315567017

> <r_mmod_Van_der_Waal_Energy-OPLS-2005>
151.332794189453

> <r_mmod_Electrostatic_Energy-OPLS-2005>
-430.081085205078

> <r_mmod_Solvation_Energy-OPLS-2005>
-502.564727783203

> <b_mmod_Minimization_Converged-OPLS-2005>
0

> <r_mmod_RMS_Derivative-OPLS-2005>
1.90549159049988

$$$$
88
                    3D
 Structure written by MMmdl.
156164  0  0  1  0            999 V2000
  -30.6236  -14.7359   20.4620 C   0  0  0  0  0  0
  -30.4246  -12.4482   19.4741 C   0  0  0  0  0  0
  -29.5067  -12.5039   18.2343 C   0  0  0  0  0  0
  -28.0329  -12.3315   18.6484 C   0  0  0  0  0  0
  -27.6394  -13.2325   19.8496 C   0  0  2  0  0  0
  -28.6830  -13.1718   20.9860 C   0  0  0  0  0  0
  -25.2501  -13.8201   20.5698 C   0  0  0  0  0  0
  -24.1799  -13.0439   20.9209 C   0  0  0  0  0  0
  -24.6394  -11.6918   20.8754 C   0  0  0  0  0  0
  -23.9073  -10.4293   21.0414 C   0  0  0  0  0  0
  -24.3621   -9.4205   21.9191 C   0  0  0  0  0  0
  -23.6294   -8.2242   22.0759 C   0  0  0  0  0  0
  -22.4277   -8.0283   21.3546 C   0  0  0  0  0  0
  -21.9917   -9.0259   20.4646 C   0  0  0  0  0  0
  -22.7248  -10.2136   20.3058 C   0  0  0  0  0  0
  -21.6852   -6.0737   22.5278 C   0  0  0  0  0  0
  -21.4016   -6.5642   23.8210 C   0  0  0  0  0  0
  -21.3658   -5.6796   24.9175 C   0  0  0  0  0  0
  -21.6041   -4.3058   24.7227 C   0  0  0  0  0  0
  -21.8820   -3.8149   23.4349 C   0  0  0  0  0  0
  -21.9194   -4.6964   22.3403 C   0  0  0  0  0  0
  -22.7820  -13.5216   21.1866 C   0  0  0  0  0  0
  -22.1660   -4.2150   21.0980 F   0  0  0  0  0  0
  -21.5626   -3.4540   25.7738 F   0  0  0  0  0  0
  -29.9832  -13.5180   20.4004 N   0  0  0  0  0  0
  -26.2922  -12.9410   20.3276 N   0  0  0  0  0  0
  -25.9320  -11.6549   20.5755 N   0  0  0  0  0  0
  -22.0473  -12.8202   22.0425 N   0  0  0  0  0  0
  -25.4185  -15.1929   20.4112 N   0  0  0  0  0  0
  -31.8132  -14.7934   20.1403 O   0  0  0  0  0  0
  -21.6639   -6.8882   21.4242 O   0  0  0  0  0  0
  -22.3505  -14.5522   20.6712 O   0  0  0  0  0  0
  -24.6302  -31.8552   23.1974 C   0  0  0  0  0  0
  -25.9131  -32.4754   23.8321 C   0  0  1  0  0  0
  -27.2220  -27.2643   20.1221 C   0  0  0  0  0  0
  -25.5929  -33.8559   24.2245 N   0  0  0  0  0  0
  -23.4264  -30.4772   21.5409 C   0  0  2  0  0  0
  -24.8726  -28.9219   20.1073 C   0  0  0  0  0  0
  -22.7490  -29.4604   22.4913 C   0  0  0  0  0  0
  -18.0285  -28.1387   22.8497 C   0  0  0  0  0  0
  -24.1482  -36.7275   23.2644 C   0  0  0  0  0  0
  -25.9708  -30.7682   21.3760 C   0  0  0  0  0  0
  -26.0420  -29.3907   20.7173 C   0  0  0  0  0  0
  -27.2147  -28.5720   20.7160 C   0  0  0  0  0  0
  -26.0257  -26.8553   19.4919 C   0  0  0  0  0  0
  -24.8696  -27.6629   19.4856 C   0  0  0  0  0  0
  -23.6427  -29.8086   20.1568 C   0  0  0  0  0  0
  -25.4115  -36.3069   24.0324 C   0  0  1  0  0  0
  -20.5891  -28.3700   23.1276 C   0  0  2  0  0  0
  -20.6776  -26.9417   22.5418 C   0  0  0  0  0  0
  -19.5746  -26.6383   21.5221 C   0  0  0  0  0  0
  -18.1925  -26.7931   22.1627 C   0  0  0  0  0  0
  -19.1542  -28.8860   23.2880 C   0  0  0  0  0  0
  -18.9467  -30.1462   23.8897 C   0  0  0  0  0  0
  -17.6468  -30.6593   24.0566 C   0  0  0  0  0  0
  -25.9057  -34.9443   23.5086 C   0  0  0  0  0  0
  -16.5357  -29.9090   23.6334 C   0  0  0  0  0  0
  -16.7276  -28.6504   23.0364 C   0  0  0  0  0  0
  -26.4499  -31.6593   25.0722 C   0  0  0  0  0  0
  -25.3719  -31.3740   26.1441 C   0  0  0  0  0  0
  -27.0365  -30.3017   24.6217 C   0  0  0  0  0  0
  -27.6044  -32.4350   25.7495 C   0  0  0  0  0  0
  -27.5570  -37.1793   24.8470 C   0  0  0  0  0  0
  -21.4200  -29.3046   22.3659 N   0  0  0  0  0  0
  -26.4286  -37.3771   23.9408 N   0  0  0  0  0  0
  -24.6949  -31.0518   22.0946 N   0  0  0  0  0  0
  -23.4193  -28.8151   23.3015 O   0  0  0  0  0  0
  -28.3393  -26.4044   20.2144 O   0  0  0  0  0  0
  -26.5637  -34.8921   22.4661 O   0  0  0  0  0  0
  -23.5455  -32.1378   23.7275 O   0  0  0  0  0  0
  -31.5952  -17.7113   20.8079 C   0  0  0  0  0  0
  -31.0755  -20.1076   20.6666 C   0  0  0  0  0  0
  -29.3013  -18.4538   20.5383 C   0  0  0  0  0  0
  -32.0170  -19.0630   20.8151 C   0  0  0  0  0  0
  -30.2388  -17.3391   20.6528 C   0  0  0  0  0  0
  -29.6938  -19.8607   20.5359 C   0  0  0  0  0  0
  -33.4553  -19.4216   20.9907 C   0  0  0  0  0  0
  -28.4147  -23.7208   20.4294 C   0  0  0  0  0  0
  -34.4551  -18.2954   21.2303 C   0  0  0  0  0  0
  -29.1244  -22.3790   19.8984 C   0  0  0  0  0  0
  -28.4361  -25.0606   19.5463 C   0  0  0  0  0  0
  -29.8648  -15.8897   20.6614 N   0  0  0  0  0  0
  -28.7914  -20.9977   20.4649 N   0  0  0  0  0  0
  -33.8740  -20.5827   20.9586 O   0  0  0  0  0  0
  -27.8373  -23.7073   21.5217 O   0  0  0  0  0  0
  -31.4672  -12.5586   19.1716 H   0  0  0  0  0  0
  -30.3578  -11.4735   19.9598 H   0  0  0  0  0  0
  -29.7870  -11.7286   17.5200 H   0  0  0  0  0  0
  -29.6378  -13.4573   17.7201 H   0  0  0  0  0  0
  -27.8884  -11.2836   18.9126 H   0  0  0  0  0  0
  -27.3758  -12.5239   17.7994 H   0  0  0  0  0  0
  -27.6325  -14.2531   19.4670 H   0  0  0  0  0  0
  -28.7163  -12.1765   21.4316 H   0  0  0  0  0  0
  -28.4196  -13.8597   21.7914 H   0  0  0  0  0  0
  -25.2768   -9.5677   22.4766 H   0  0  0  0  0  0
  -24.0000   -7.4634   22.7482 H   0  0  0  0  0  0
  -21.0849   -8.8780   19.8951 H   0  0  0  0  0  0
  -22.3711  -10.9677   19.6166 H   0  0  0  0  0  0
  -21.2013   -7.6151   23.9714 H   0  0  0  0  0  0
  -21.1474   -6.0528   25.9077 H   0  0  0  0  0  0
  -22.0601   -2.7612   23.2850 H   0  0  0  0  0  0
  -22.4092  -11.9859   22.4802 H   0  0  0  0  0  0
  -21.1093  -13.1226   22.2638 H   0  0  0  0  0  0
  -24.6481  -15.8439   20.5181 H   0  0  0  0  0  0
  -26.2584  -15.6321   20.0579 H   0  0  0  0  0  0
  -26.7197  -32.5406   23.1061 H   0  0  0  0  0  0
  -25.0070  -33.9698   25.0385 H   0  0  0  0  0  0
  -22.7229  -31.2995   21.3947 H   0  0  0  0  0  0
  -23.3758  -35.9592   23.3305 H   0  0  0  0  0  0
  -24.3555  -36.8912   22.2059 H   0  0  0  0  0  0
  -23.7223  -37.6465   23.6681 H   0  0  0  0  0  0
  -26.1106  -31.5296   20.6070 H   0  0  0  0  0  0
  -26.8479  -30.8164   22.0101 H   0  0  0  0  0  0
  -28.1101  -28.9246   21.2088 H   0  0  0  0  0  0
  -25.9390  -25.8848   19.0300 H   0  0  0  0  0  0
  -23.9699  -27.2956   19.0111 H   0  0  0  0  0  0
  -23.7650  -30.5842   19.4000 H   0  0  0  0  0  0
  -22.7603  -29.2416   19.8540 H   0  0  0  0  0  0
  -25.1297  -36.1913   25.0817 H   0  0  0  0  0  0
  -20.9988  -28.3292   24.1394 H   0  0  0  0  0  0
  -20.5688  -26.2310   23.3623 H   0  0  0  0  0  0
  -21.6641  -26.7443   22.1209 H   0  0  0  0  0  0
  -19.6908  -25.6296   21.1250 H   0  0  0  0  0  0
  -19.6679  -27.3193   20.6754 H   0  0  0  0  0  0
  -17.4197  -26.6702   21.4023 H   0  0  0  0  0  0
  -18.0305  -26.0067   22.9015 H   0  0  0  0  0  0
  -19.7943  -30.7276   24.2265 H   0  0  0  0  0  0
  -17.5023  -31.6274   24.5169 H   0  0  0  0  0  0
  -15.5357  -30.2993   23.7656 H   0  0  0  0  0  0
  -15.8678  -28.0819   22.7088 H   0  0  0  0  0  0
  -24.5890  -30.7098   25.7763 H   0  0  0  0  0  0
  -24.8915  -32.2911   26.4862 H   0  0  0  0  0  0
  -25.8033  -30.8916   27.0222 H   0  0  0  0  0  0
  -26.2961  -29.6745   24.1242 H   0  0  0  0  0  0
  -27.4057  -29.7299   25.4741 H   0  0  0  0  0  0
  -27.8824  -30.4302   23.9460 H   0  0  0  0  0  0
  -27.2651  -33.3671   26.2024 H   0  0  0  0  0  0
  -28.3870  -32.6882   25.0332 H   0  0  0  0  0  0
  -28.0691  -31.8513   26.5450 H   0  0  0  0  0  0
  -28.2600  -38.0081   24.7517 H   0  0  0  0  0  0
  -28.1058  -36.2611   24.6307 H   0  0  0  0  0  0
  -27.2283  -37.1461   25.8874 H   0  0  0  0  0  0
  -20.9381  -29.8766   21.6863 H   0  0  0  0  0  0
  -26.0166  -38.2843   24.1424 H   0  0  0  0  0  0
  -32.3402  -16.9452   20.9430 H   0  0  0  0  0  0
  -31.4386  -21.1234   20.7003 H   0  0  0  0  0  0
  -28.2500  -18.2215   20.4467 H   0  0  0  0  0  0
  -34.1733  -17.7170   22.1098 H   0  0  0  0  0  0
  -35.4525  -18.7010   21.3965 H   0  0  0  0  0  0
  -34.4945  -17.6323   20.3664 H   0  0  0  0  0  0
  -30.1932  -22.5672   19.9737 H   0  0  0  0  0  0
  -28.9214  -22.3363   18.8277 H   0  0  0  0  0  0
  -27.7076  -24.9559   18.7461 H   0  0  0  0  0  0
  -29.3988  -25.0572   19.0348 H   0  0  0  0  0  0
  -28.8824  -15.7035   20.7913 H   0  0  0  0  0  0
  -27.7953  -20.7904   20.4841 H   0  0  0  0  0  0
  1 25  1  0  0  0
  1 30  2  0  0  0
  1 82  1  0  0  0
  2  3  1  0  0  0
  2 25  1  0  0  0
  2 86  1  0  0  0
  2 87  1  0  0  0
  3  4  1  0  0  0
  3 88  1  0  0  0
  3 89  1  0  0  0
  4  5  1  0  0  0
  4 90  1  0  0  0
  4 91  1  0  0  0
  5  6  1  0  0  0
  5 26  1  0  0  0
  5 92  1  0  0  0
  6 25  1  0  0  0
  6 93  1  0  0  0
  6 94  1  0  0  0
  7  8  2  0  0  0
  7 26  1  0  0  0
  7 29  1  0  0  0
  8  9  1  0  0  0
  8 22  1  0  0  0
  9 10  1  0  0  0
  9 27  2  0  0  0
 10 11  2  0  0  0
 10 15  1  0  0  0
 11 12  1  0  0  0
 11 95  1  0  0  0
 12 13  2  0  0  0
 12 96  1  0  0  0
 13 14  1  0  0  0
 13 31  1  0  0  0
 14 15  2  0  0  0
 14 97  1  0  0  0
 15 98  1  0  0  0
 16 17  2  0  0  0
 16 21  1  0  0  0
 16 31  1  0  0  0
 17 18  1  0  0  0
 17 99  1  0  0  0
 18 19  2  0  0  0
 18100  1  0  0  0
 19 20  1  0  0  0
 19 24  1  0  0  0
 20 21  2  0  0  0
 20101  1  0  0  0
 21 23  1  0  0  0
 22 28  1  0  0  0
 22 32  2  0  0  0
 26 27  1  0  0  0
 28102  1  0  0  0
 28103  1  0  0  0
 29104  1  0  0  0
 29105  1  0  0  0
 33 34  1  0  0  0
 33 66  1  0  0  0
 33 70  2  0  0  0
 34 36  1  0  0  0
 34 59  1  0  0  0
 34106  1  0  0  0
 35 44  2  0  0  0
 35 45  1  0  0  0
 35 68  1  0  0  0
 36 56  1  0  0  0
 36107  1  0  0  0
 37 39  1  0  0  0
 37 47  1  0  0  0
 37 66  1  0  0  0
 37108  1  0  0  0
 38 43  2  0  0  0
 38 46  1  0  0  0
 38 47  1  0  0  0
 39 64  1  0  0  0
 39 67  2  0  0  0
 40 52  1  0  0  0
 40 53  2  0  0  0
 40 58  1  0  0  0
 41109  1  0  0  0
 41110  1  0  0  0
 41111  1  0  0  0
 41 48  1  0  0  0
 42 43  1  0  0  0
 42 66  1  0  0  0
 42112  1  0  0  0
 42113  1  0  0  0
 43 44  1  0  0  0
 44114  1  0  0  0
 45 46  2  0  0  0
 45115  1  0  0  0
 46116  1  0  0  0
 47117  1  0  0  0
 47118  1  0  0  0
 48 56  1  0  0  0
 48 65  1  0  0  0
 48119  1  0  0  0
 49 50  1  0  0  0
 49 53  1  0  0  0
 49 64  1  0  0  0
 49120  1  0  0  0
 50 51  1  0  0  0
 50121  1  0  0  0
 50122  1  0  0  0
 51 52  1  0  0  0
 51123  1  0  0  0
 51124  1  0  0  0
 52125  1  0  0  0
 52126  1  0  0  0
 53 54  1  0  0  0
 54 55  2  0  0  0
 54127  1  0  0  0
 55 57  1  0  0  0
 55128  1  0  0  0
 56 69  2  0  0  0
 57 58  2  0  0  0
 57129  1  0  0  0
 58130  1  0  0  0
 59 60  1  0  0  0
 59 61  1  0  0  0
 59 62  1  0  0  0
 60131  1  0  0  0
 60132  1  0  0  0
 60133  1  0  0  0
 61134  1  0  0  0
 61135  1  0  0  0
 61136  1  0  0  0
 62137  1  0  0  0
 62138  1  0  0  0
 62139  1  0  0  0
 63 65  1  0  0  0
 63140  1  0  0  0
 63141  1  0  0  0
 63142  1  0  0  0
 64143  1  0  0  0
 65144  1  0  0  0
 68 81  1  0  0  0
 71 74  2  0  0  0
 71 75  1  0  0  0
 71145  1  0  0  0
 72 74  1  0  0  0
 72 76  2  0  0  0
 72146  1  0  0  0
 73 75  2  0  0  0
 73 76  1  0  0  0
 73147  1  0  0  0
 74 77  1  0  0  0
 75 82  1  0  0  0
 76 83  1  0  0  0
 77 79  1  0  0  0
 77 84  2  0  0  0
 78 80  1  0  0  0
 78 81  1  0  0  0
 78 85  2  0  0  0
 79148  1  0  0  0
 79149  1  0  0  0
 79150  1  0  0  0
 80 83  1  0  0  0
 80151  1  0  0  0
 80152  1  0  0  0
 81153  1  0  0  0
 81154  1  0  0  0
 82155  1  0  0  0
 83156  1  0  0  0
M  ISO  4   1 100  68 101  81 101  82 100
M  END
> <chiral flag>
0

> <version>
0

> <s_m_source_file>
/data/baiqing/PycharmProjects/Reinvent-master-3.2/result/LINK_invent/BTK/process_docking_weight1_custom_product_contain_oxygen_bond_distance_aromatic_linkinvent_7_9_3/rearranged_h_0165.sdf

> <i_m_source_file_index>
88

> <r_mmod_Potential_Energy-OPLS-2005>
160.504028320312

> <r_mmod_Stretch_Energy-OPLS-2005>
128.367919921875

> <r_mmod_Bend_Energy-OPLS-2005>
179.670501708984

> <r_mmod_Torsional_Energy-OPLS-2005>
222.949020385742

> <r_mmod_Improper_Torsional_Energy-OPLS-2005>
6.52040386199951

> <r_mmod_Van_der_Waal_Energy-OPLS-2005>
149.914764404297

> <r_mmod_Electrostatic_Energy-OPLS-2005>
-348.049133300781

> <r_mmod_Solvation_Energy-OPLS-2005>
-259.827667236328

> <b_mmod_Minimization_Converged-OPLS-2005>
0

> <r_mmod_RMS_Derivative-OPLS-2005>
0.641608953475952

$$$$
89
                    3D
 Structure written by MMmdl.
162171  0  0  1  0            999 V2000
  -30.6198  -14.6495   20.4990 C   0  0  0  0  0  0
  -30.4393  -12.3987   19.4562 C   0  0  0  0  0  0
  -29.5100  -12.5070   18.2266 C   0  0  0  0  0  0
  -28.0328  -12.3439   18.6372 C   0  0  0  0  0  0
  -27.6528  -13.2168   19.8626 C   0  0  2  0  0  0
  -28.6968  -13.0795   20.9938 C   0  0  0  0  0  0
  -25.2561  -13.8172   20.5685 C   0  0  0  0  0  0
  -24.1829  -13.0440   20.9198 C   0  0  0  0  0  0
  -24.6395  -11.6909   20.8741 C   0  0  0  0  0  0
  -23.9061  -10.4293   21.0405 C   0  0  0  0  0  0
  -24.3613   -9.4209   21.9185 C   0  0  0  0  0  0
  -23.6286   -8.2244   22.0755 C   0  0  0  0  0  0
  -22.4267   -8.0284   21.3545 C   0  0  0  0  0  0
  -21.9899   -9.0258   20.4649 C   0  0  0  0  0  0
  -22.7232  -10.2134   20.3059 C   0  0  0  0  0  0
  -21.6853   -6.0731   22.5278 C   0  0  0  0  0  0
  -21.4017   -6.5635   23.8211 C   0  0  0  0  0  0
  -21.3659   -5.6790   24.9173 C   0  0  0  0  0  0
  -21.6044   -4.3053   24.7225 C   0  0  0  0  0  0
  -21.8820   -3.8140   23.4347 C   0  0  0  0  0  0
  -21.9194   -4.6959   22.3403 C   0  0  0  0  0  0
  -22.7852  -13.5239   21.1857 C   0  0  0  0  0  0
  -22.1662   -4.2144   21.0980 F   0  0  0  0  0  0
  -21.5625   -3.4538   25.7740 F   0  0  0  0  0  0
  -30.0114  -13.4232   20.4303 N   0  0  0  0  0  0
  -26.2985  -12.9349   20.3306 N   0  0  0  0  0  0
  -25.9322  -11.6508   20.5750 N   0  0  0  0  0  0
  -22.0483  -12.8240   22.0410 N   0  0  0  0  0  0
  -25.4270  -15.1893   20.4090 N   0  0  0  0  0  0
  -31.7840  -14.8065   20.1223 O   0  0  0  0  0  0
  -21.6636   -6.8877   21.4241 O   0  0  0  0  0  0
  -22.3548  -14.5546   20.6697 O   0  0  0  0  0  0
  -24.6268  -31.8598   23.2033 C   0  0  0  0  0  0
  -25.9118  -32.4777   23.8352 C   0  0  1  0  0  0
  -27.2182  -27.3118   20.1179 C   0  0  0  0  0  0
  -25.5936  -33.8577   24.2281 N   0  0  0  0  0  0
  -23.4197  -30.4850   21.5467 C   0  0  2  0  0  0
  -24.8646  -28.9399   20.1140 C   0  0  0  0  0  0
  -22.7474  -29.4627   22.4938 C   0  0  0  0  0  0
  -18.0289  -28.1384   22.8484 C   0  0  0  0  0  0
  -24.1491  -36.7293   23.2635 C   0  0  0  0  0  0
  -25.9624  -30.7881   21.3761 C   0  0  0  0  0  0
  -26.0353  -29.4148   20.7189 C   0  0  0  0  0  0
  -27.2164  -28.6131   20.7104 C   0  0  0  0  0  0
  -26.0260  -26.8974   19.4809 C   0  0  0  0  0  0
  -24.8623  -27.6865   19.4866 C   0  0  0  0  0  0
  -23.6344  -29.8219   20.1616 C   0  0  0  0  0  0
  -25.4113  -36.3081   24.0329 C   0  0  1  0  0  0
  -20.5887  -28.3690   23.1278 C   0  0  2  0  0  0
  -20.6780  -26.9413   22.5407 C   0  0  0  0  0  0
  -19.5754  -26.6383   21.5210 C   0  0  0  0  0  0
  -18.1935  -26.7928   22.1623 C   0  0  0  0  0  0
  -19.1540  -28.8853   23.2878 C   0  0  0  0  0  0
  -18.9464  -30.1455   23.8896 C   0  0  0  0  0  0
  -17.6464  -30.6585   24.0563 C   0  0  0  0  0  0
  -25.9051  -34.9450   23.5102 C   0  0  0  0  0  0
  -16.5355  -29.9083   23.6329 C   0  0  0  0  0  0
  -16.7276  -28.6501   23.0350 C   0  0  0  0  0  0
  -26.4496  -31.6585   25.0722 C   0  0  0  0  0  0
  -25.3729  -31.3733   26.1451 C   0  0  0  0  0  0
  -27.0335  -30.3007   24.6179 C   0  0  0  0  0  0
  -27.6059  -32.4316   25.7489 C   0  0  0  0  0  0
  -27.5579  -37.1802   24.8459 C   0  0  0  0  0  0
  -21.4188  -29.3045   22.3676 N   0  0  0  0  0  0
  -26.4289  -37.3776   23.9404 N   0  0  0  0  0  0
  -24.6885  -31.0609   22.0987 N   0  0  0  0  0  0
  -23.4196  -28.8161   23.3015 O   0  0  0  0  0  0
  -28.3345  -26.4599   20.1421 O   0  0  0  0  0  0
  -26.5615  -34.8917   22.4667 O   0  0  0  0  0  0
  -23.5434  -32.1399   23.7362 O   0  0  0  0  0  0
  -31.1491  -17.8301   20.3312 C   0  0  0  0  0  0
  -31.1474  -19.2403   20.1492 C   0  0  0  0  0  0
  -28.8188  -18.0147   20.7999 C   0  0  0  0  0  0
  -29.9463  -17.1570   20.6512 C   0  0  0  0  0  0
  -29.9597  -20.0097   20.2661 C   0  0  0  0  0  0
  -31.0631  -23.1431   18.5496 C   0  0  0  0  0  0
  -29.9473  -24.1608   18.8241 C   0  0  0  0  0  0
  -30.5372  -21.7036   18.6369 C   0  0  0  0  0  0
  -28.8924  -22.4009   20.3479 C   0  0  0  0  0  0
  -29.3023  -23.9553   20.2131 C   0  0  2  0  0  0
  -30.8231  -25.3911   21.5010 C   0  0  0  0  0  0
  -28.1049  -25.0078   20.3865 C   0  0  0  0  0  0
  -28.8153  -19.3750   20.6158 N   0  0  0  0  0  0
  -29.9574  -21.4172   19.9532 N   0  0  0  0  0  0
  -29.8092  -15.7052   20.8340 N   0  0  0  0  0  0
  -30.2637  -24.1024   21.2683 O   0  0  0  0  0  0
  -31.4808  -12.5243   19.1549 H   0  0  0  0  0  0
  -30.3758  -11.4048   19.9013 H   0  0  0  0  0  0
  -29.7759  -11.7527   17.4851 H   0  0  0  0  0  0
  -29.6528  -13.4746   17.7426 H   0  0  0  0  0  0
  -27.8704  -11.2908   18.8701 H   0  0  0  0  0  0
  -27.3797  -12.5722   17.7939 H   0  0  0  0  0  0
  -27.6683  -14.2505   19.5174 H   0  0  0  0  0  0
  -28.7103  -12.0597   21.3815 H   0  0  0  0  0  0
  -28.4407  -13.7154   21.8425 H   0  0  0  0  0  0
  -25.2755   -9.5684   22.4760 H   0  0  0  0  0  0
  -23.9994   -7.4637   22.7474 H   0  0  0  0  0  0
  -21.0826   -8.8778   19.8960 H   0  0  0  0  0  0
  -22.3688  -10.9673   19.6170 H   0  0  0  0  0  0
  -21.2012   -7.6145   23.9712 H   0  0  0  0  0  0
  -21.1478   -6.0520   25.9074 H   0  0  0  0  0  0
  -22.0599   -2.7603   23.2851 H   0  0  0  0  0  0
  -22.4081  -11.9898   22.4807 H   0  0  0  0  0  0
  -21.1102  -13.1279   22.2607 H   0  0  0  0  0  0
  -24.6533  -15.8380   20.5063 H   0  0  0  0  0  0
  -26.2592  -15.6214   20.0299 H   0  0  0  0  0  0
  -26.7183  -32.5444   23.1096 H   0  0  0  0  0  0
  -25.0085  -33.9717   25.0427 H   0  0  0  0  0  0
  -22.7137  -31.3059   21.4047 H   0  0  0  0  0  0
  -23.3752  -35.9627   23.3296 H   0  0  0  0  0  0
  -24.3586  -36.8915   22.2052 H   0  0  0  0  0  0
  -23.7246  -37.6495   23.6658 H   0  0  0  0  0  0
  -26.0954  -31.5512   20.6079 H   0  0  0  0  0  0
  -26.8422  -30.8355   22.0059 H   0  0  0  0  0  0
  -28.1151  -28.9733   21.1915 H   0  0  0  0  0  0
  -25.9629  -25.9567   18.9577 H   0  0  0  0  0  0
  -23.9678  -27.3209   19.0007 H   0  0  0  0  0  0
  -23.7564  -30.5991   19.4064 H   0  0  0  0  0  0
  -22.7532  -29.2541   19.8576 H   0  0  0  0  0  0
  -25.1295  -36.1930   25.0822 H   0  0  0  0  0  0
  -20.9979  -28.3269   24.1398 H   0  0  0  0  0  0
  -20.5682  -26.2299   23.3607 H   0  0  0  0  0  0
  -21.6649  -26.7444   22.1200 H   0  0  0  0  0  0
  -19.6916  -25.6294   21.1239 H   0  0  0  0  0  0
  -19.6688  -27.3192   20.6740 H   0  0  0  0  0  0
  -17.4202  -26.6671   21.4029 H   0  0  0  0  0  0
  -18.0338  -26.0068   22.9016 H   0  0  0  0  0  0
  -19.7941  -30.7273   24.2261 H   0  0  0  0  0  0
  -17.5019  -31.6264   24.5165 H   0  0  0  0  0  0
  -15.5356  -30.2985   23.7652 H   0  0  0  0  0  0
  -15.8677  -28.0819   22.7063 H   0  0  0  0  0  0
  -24.5897  -30.7087   25.7784 H   0  0  0  0  0  0
  -24.8930  -32.2906   26.4876 H   0  0  0  0  0  0
  -25.8054  -30.8908   27.0225 H   0  0  0  0  0  0
  -26.2910  -29.6761   24.1199 H   0  0  0  0  0  0
  -27.4025  -29.7260   25.4683 H   0  0  0  0  0  0
  -27.8783  -30.4288   23.9409 H   0  0  0  0  0  0
  -27.2676  -33.3618   26.2065 H   0  0  0  0  0  0
  -28.3871  -32.6870   25.0317 H   0  0  0  0  0  0
  -28.0722  -31.8439   26.5406 H   0  0  0  0  0  0
  -28.2594  -38.0102   24.7515 H   0  0  0  0  0  0
  -28.1080  -36.2637   24.6272 H   0  0  0  0  0  0
  -27.2300  -37.1438   25.8863 H   0  0  0  0  0  0
  -20.9364  -29.8772   21.6892 H   0  0  0  0  0  0
  -26.0171  -38.2850   24.1409 H   0  0  0  0  0  0
  -32.0778  -17.2919   20.2177 H   0  0  0  0  0  0
  -32.0856  -19.7191   19.9061 H   0  0  0  0  0  0
  -27.8608  -17.5884   21.0605 H   0  0  0  0  0  0
  -31.8843  -23.2851   19.2537 H   0  0  0  0  0  0
  -31.4777  -23.3168   17.5558 H   0  0  0  0  0  0
  -29.1786  -24.0518   18.0575 H   0  0  0  0  0  0
  -30.3260  -25.1755   18.7081 H   0  0  0  0  0  0
  -31.3498  -21.0260   18.3794 H   0  0  0  0  0  0
  -29.7684  -21.5421   17.8795 H   0  0  0  0  0  0
  -28.0207  -22.2053   19.7224 H   0  0  0  0  0  0
  -28.5778  -22.1903   21.3707 H   0  0  0  0  0  0
  -31.6100  -25.3030   22.2498 H   0  0  0  0  0  0
  -30.0872  -26.0893   21.8990 H   0  0  0  0  0  0
  -31.2762  -25.8216   20.6089 H   0  0  0  0  0  0
  -27.6905  -24.9025   21.3898 H   0  0  0  0  0  0
  -27.3298  -24.6408   19.7195 H   0  0  0  0  0  0
  -28.8923  -15.4044   21.1296 H   0  0  0  0  0  0
  1 25  1  0  0  0
  1 30  2  0  0  0
  1 85  1  0  0  0
  2  3  1  0  0  0
  2 25  1  0  0  0
  2 87  1  0  0  0
  2 88  1  0  0  0
  3  4  1  0  0  0
  3 89  1  0  0  0
  3 90  1  0  0  0
  4  5  1  0  0  0
  4 91  1  0  0  0
  4 92  1  0  0  0
  5  6  1  0  0  0
  5 26  1  0  0  0
  5 93  1  0  0  0
  6 25  1  0  0  0
  6 94  1  0  0  0
  6 95  1  0  0  0
  7  8  2  0  0  0
  7 26  1  0  0  0
  7 29  1  0  0  0
  8  9  1  0  0  0
  8 22  1  0  0  0
  9 10  1  0  0  0
  9 27  2  0  0  0
 10 11  2  0  0  0
 10 15  1  0  0  0
 11 12  1  0  0  0
 11 96  1  0  0  0
 12 13  2  0  0  0
 12 97  1  0  0  0
 13 14  1  0  0  0
 13 31  1  0  0  0
 14 15  2  0  0  0
 14 98  1  0  0  0
 15 99  1  0  0  0
 16 17  2  0  0  0
 16 21  1  0  0  0
 16 31  1  0  0  0
 17 18  1  0  0  0
 17100  1  0  0  0
 18 19  2  0  0  0
 18101  1  0  0  0
 19 20  1  0  0  0
 19 24  1  0  0  0
 20 21  2  0  0  0
 20102  1  0  0  0
 21 23  1  0  0  0
 22 28  1  0  0  0
 22 32  2  0  0  0
 26 27  1  0  0  0
 28103  1  0  0  0
 28104  1  0  0  0
 29105  1  0  0  0
 29106  1  0  0  0
 33 34  1  0  0  0
 33 66  1  0  0  0
 33 70  2  0  0  0
 34 36  1  0  0  0
 34 59  1  0  0  0
 34107  1  0  0  0
 35 44  2  0  0  0
 35 45  1  0  0  0
 35 68  1  0  0  0
 36 56  1  0  0  0
 36108  1  0  0  0
 37 39  1  0  0  0
 37 47  1  0  0  0
 37 66  1  0  0  0
 37109  1  0  0  0
 38 43  2  0  0  0
 38 46  1  0  0  0
 38 47  1  0  0  0
 39 64  1  0  0  0
 39 67  2  0  0  0
 40 52  1  0  0  0
 40 53  2  0  0  0
 40 58  1  0  0  0
 41110  1  0  0  0
 41111  1  0  0  0
 41112  1  0  0  0
 41 48  1  0  0  0
 42 43  1  0  0  0
 42 66  1  0  0  0
 42113  1  0  0  0
 42114  1  0  0  0
 43 44  1  0  0  0
 44115  1  0  0  0
 45 46  2  0  0  0
 45116  1  0  0  0
 46117  1  0  0  0
 47118  1  0  0  0
 47119  1  0  0  0
 48 56  1  0  0  0
 48 65  1  0  0  0
 48120  1  0  0  0
 49 50  1  0  0  0
 49 53  1  0  0  0
 49 64  1  0  0  0
 49121  1  0  0  0
 50 51  1  0  0  0
 50122  1  0  0  0
 50123  1  0  0  0
 51 52  1  0  0  0
 51124  1  0  0  0
 51125  1  0  0  0
 52126  1  0  0  0
 52127  1  0  0  0
 53 54  1  0  0  0
 54 55  2  0  0  0
 54128  1  0  0  0
 55 57  1  0  0  0
 55129  1  0  0  0
 56 69  2  0  0  0
 57 58  2  0  0  0
 57130  1  0  0  0
 58131  1  0  0  0
 59 60  1  0  0  0
 59 61  1  0  0  0
 59 62  1  0  0  0
 60132  1  0  0  0
 60133  1  0  0  0
 60134  1  0  0  0
 61135  1  0  0  0
 61136  1  0  0  0
 61137  1  0  0  0
 62138  1  0  0  0
 62139  1  0  0  0
 62140  1  0  0  0
 63 65  1  0  0  0
 63141  1  0  0  0
 63142  1  0  0  0
 63143  1  0  0  0
 64144  1  0  0  0
 65145  1  0  0  0
 68 82  1  0  0  0
 71 72  2  0  0  0
 71 74  1  0  0  0
 71146  1  0  0  0
 72 75  1  0  0  0
 72147  1  0  0  0
 73 74  2  0  0  0
 73 83  1  0  0  0
 73148  1  0  0  0
 74 85  1  0  0  0
 75 83  2  0  0  0
 75 84  1  0  0  0
 76 77  1  0  0  0
 76 78  1  0  0  0
 76149  1  0  0  0
 76150  1  0  0  0
 77 80  1  0  0  0
 77151  1  0  0  0
 77152  1  0  0  0
 78 84  1  0  0  0
 78153  1  0  0  0
 78154  1  0  0  0
 79 80  1  0  0  0
 79 84  1  0  0  0
 79155  1  0  0  0
 79156  1  0  0  0
 80 82  1  0  0  0
 80 86  1  0  0  0
 81 86  1  0  0  0
 81157  1  0  0  0
 81158  1  0  0  0
 81159  1  0  0  0
 82160  1  0  0  0
 82161  1  0  0  0
 85162  1  0  0  0
M  ISO  4   1 100  68 101  82 101  85 100
M  END
> <chiral flag>
0

> <version>
0

> <s_m_source_file>
/data/baiqing/PycharmProjects/Reinvent-master-3.2/result/LINK_invent/BTK/process_docking_weight1_custom_product_contain_oxygen_bond_distance_aromatic_linkinvent_7_9_3/rearranged_h_0165.sdf

> <i_m_source_file_index>
89

> <r_mmod_Potential_Energy-OPLS-2005>
-117.719459533691

> <r_mmod_Stretch_Energy-OPLS-2005>
87.3435897827148

> <r_mmod_Bend_Energy-OPLS-2005>
154.292724609375

> <r_mmod_Torsional_Energy-OPLS-2005>
260.391784667969

> <r_mmod_Improper_Torsional_Energy-OPLS-2005>
7.33662557601929

> <r_mmod_Van_der_Waal_Energy-OPLS-2005>
159.427459716797

> <r_mmod_Electrostatic_Energy-OPLS-2005>
-602.87744140625

> <r_mmod_Solvation_Energy-OPLS-2005>
-234.720245361328

> <b_mmod_Minimization_Converged-OPLS-2005>
0

> <r_mmod_RMS_Derivative-OPLS-2005>
0.714344024658203

$$$$
90
                    3D
 Structure written by MMmdl.
162170  0  0  1  0            999 V2000
  -30.7188  -14.4953   20.5677 C   0  0  0  0  0  0
  -30.4183  -12.3205   19.4339 C   0  0  0  0  0  0
  -29.4951  -12.4995   18.2121 C   0  0  0  0  0  0
  -28.0177  -12.3565   18.6254 C   0  0  0  0  0  0
  -27.6584  -13.2126   19.8698 C   0  0  2  0  0  0
  -28.7012  -13.0306   20.9965 C   0  0  0  0  0  0
  -25.2575  -13.8174   20.5680 C   0  0  0  0  0  0
  -24.1834  -13.0443   20.9184 C   0  0  0  0  0  0
  -24.6396  -11.6911   20.8739 C   0  0  0  0  0  0
  -23.9064  -10.4292   21.0407 C   0  0  0  0  0  0
  -24.3615   -9.4209   21.9186 C   0  0  0  0  0  0
  -23.6291   -8.2244   22.0756 C   0  0  0  0  0  0
  -22.4274   -8.0281   21.3546 C   0  0  0  0  0  0
  -21.9912   -9.0254   20.4645 C   0  0  0  0  0  0
  -22.7239  -10.2132   20.3054 C   0  0  0  0  0  0
  -21.6854   -6.0735   22.5280 C   0  0  0  0  0  0
  -21.4012   -6.5640   23.8213 C   0  0  0  0  0  0
  -21.3657   -5.6791   24.9176 C   0  0  0  0  0  0
  -21.6047   -4.3053   24.7226 C   0  0  0  0  0  0
  -21.8819   -3.8145   23.4346 C   0  0  0  0  0  0
  -21.9193   -4.6963   22.3403 C   0  0  0  0  0  0
  -22.7856  -13.5238   21.1841 C   0  0  0  0  0  0
  -22.1662   -4.2149   21.0981 F   0  0  0  0  0  0
  -21.5628   -3.4538   25.7739 F   0  0  0  0  0  0
  -30.0296  -13.3273   20.4362 N   0  0  0  0  0  0
  -26.3012  -12.9354   20.3353 N   0  0  0  0  0  0
  -25.9326  -11.6508   20.5775 N   0  0  0  0  0  0
  -22.0493  -12.8229   22.0393 N   0  0  0  0  0  0
  -25.4290  -15.1891   20.4073 N   0  0  0  0  0  0
  -31.8531  -14.6364   20.1022 O   0  0  0  0  0  0
  -21.6640   -6.8876   21.4240 O   0  0  0  0  0  0
  -22.3545  -14.5548   20.6691 O   0  0  0  0  0  0
  -24.6182  -31.8664   23.2106 C   0  0  0  0  0  0
  -25.9067  -32.4815   23.8400 C   0  0  1  0  0  0
  -27.2227  -27.4000   20.0948 C   0  0  0  0  0  0
  -25.5918  -33.8615   24.2325 N   0  0  0  0  0  0
  -23.4072  -30.4936   21.5523 C   0  0  2  0  0  0
  -24.8510  -28.9664   20.1105 C   0  0  0  0  0  0
  -22.7430  -29.4657   22.4976 C   0  0  0  0  0  0
  -18.0274  -28.1385   22.8488 C   0  0  0  0  0  0
  -24.1485  -36.7298   23.2640 C   0  0  0  0  0  0
  -25.9423  -30.8221   21.3709 C   0  0  0  0  0  0
  -26.0165  -29.4575   20.7118 C   0  0  0  0  0  0
  -27.2051  -28.6826   20.7020 C   0  0  0  0  0  0
  -26.0350  -26.9500   19.4652 C   0  0  0  0  0  0
  -24.8575  -27.7141   19.4823 C   0  0  0  0  0  0
  -23.6150  -29.8347   20.1644 C   0  0  0  0  0  0
  -25.4110  -36.3104   24.0338 C   0  0  1  0  0  0
  -20.5868  -28.3668   23.1307 C   0  0  2  0  0  0
  -20.6766  -26.9401   22.5412 C   0  0  0  0  0  0
  -19.5743  -26.6386   21.5212 C   0  0  0  0  0  0
  -18.1920  -26.7932   22.1618 C   0  0  0  0  0  0
  -19.1525  -28.8839   23.2894 C   0  0  0  0  0  0
  -18.9457  -30.1443   23.8904 C   0  0  0  0  0  0
  -17.6461  -30.6589   24.0559 C   0  0  0  0  0  0
  -25.9045  -34.9472   23.5128 C   0  0  0  0  0  0
  -16.5346  -29.9089   23.6338 C   0  0  0  0  0  0
  -16.7261  -28.6507   23.0357 C   0  0  0  0  0  0
  -26.4485  -31.6599   25.0734 C   0  0  0  0  0  0
  -25.3742  -31.3711   26.1469 C   0  0  0  0  0  0
  -27.0323  -30.3040   24.6124 C   0  0  0  0  0  0
  -27.6049  -32.4328   25.7504 C   0  0  0  0  0  0
  -27.5577  -37.1806   24.8470 C   0  0  0  0  0  0
  -21.4154  -29.3035   22.3717 N   0  0  0  0  0  0
  -26.4291  -37.3794   23.9415 N   0  0  0  0  0  0
  -24.6745  -31.0748   22.1021 N   0  0  0  0  0  0
  -23.4189  -28.8185   23.3016 O   0  0  0  0  0  0
  -28.3587  -26.5992   20.1450 O   0  0  0  0  0  0
  -26.5596  -34.8921   22.4684 O   0  0  0  0  0  0
  -23.5365  -32.1426   23.7475 O   0  0  0  0  0  0
  -29.6074  -17.9941   21.0501 C   0  0  0  0  0  0
  -31.3739  -19.5896   21.5792 C   0  0  0  0  0  0
  -31.8282  -17.1895   21.6297 C   0  0  0  0  0  0
  -30.0318  -19.3489   21.2035 C   0  0  0  0  0  0
  -30.4979  -16.9018   21.2409 C   0  0  0  0  0  0
  -32.2597  -18.5188   21.7938 C   0  0  0  0  0  0
  -29.0583  -20.4975   21.0055 C   0  0  0  0  0  0
  -29.1852  -24.2342   20.5588 C   0  0  0  0  0  0
  -29.6553  -23.4123   23.6695 C   0  0  0  0  0  0
  -27.4257  -22.2400   23.4681 C   0  0  0  0  0  0
  -28.1019  -25.1785   19.9858 C   0  0  0  0  0  0
  -28.6624  -22.9746   21.3211 C   0  0  2  0  0  0
  -28.3748  -23.2656   22.8239 C   0  0  0  0  0  0
  -30.0365  -15.5456   21.0846 N   0  0  0  0  0  0
  -29.5058  -21.7622   21.1728 N   0  0  0  0  0  0
  -27.8800  -20.2558   20.7358 O   0  0  0  0  0  0
  -30.3867  -24.4781   20.4033 O   0  0  0  0  0  0
  -33.5373  -18.7696   22.1669 F   0  0  0  0  0  0
  -31.4640  -12.4058   19.1335 H   0  0  0  0  0  0
  -30.3127  -11.3178   19.8510 H   0  0  0  0  0  0
  -29.7403  -11.7644   17.4443 H   0  0  0  0  0  0
  -29.6596  -13.4798   17.7624 H   0  0  0  0  0  0
  -27.8364  -11.3022   18.8369 H   0  0  0  0  0  0
  -27.3656  -12.6132   17.7896 H   0  0  0  0  0  0
  -27.6915  -14.2551   19.5518 H   0  0  0  0  0  0
  -28.6826  -12.0068   21.3718 H   0  0  0  0  0  0
  -28.4624  -13.6621   21.8536 H   0  0  0  0  0  0
  -25.2762   -9.5688   22.4761 H   0  0  0  0  0  0
  -24.0002   -7.4638   22.7478 H   0  0  0  0  0  0
  -21.0846   -8.8767   19.8949 H   0  0  0  0  0  0
  -22.3701  -10.9667   19.6158 H   0  0  0  0  0  0
  -21.2001   -7.6146   23.9718 H   0  0  0  0  0  0
  -21.1481   -6.0520   25.9078 H   0  0  0  0  0  0
  -22.0599   -2.7608   23.2848 H   0  0  0  0  0  0
  -22.4099  -11.9885   22.4774 H   0  0  0  0  0  0
  -21.1110  -13.1257   22.2588 H   0  0  0  0  0  0
  -24.6601  -15.8431   20.5062 H   0  0  0  0  0  0
  -26.2777  -15.6261   20.0709 H   0  0  0  0  0  0
  -26.7127  -32.5509   23.1150 H   0  0  0  0  0  0
  -25.0092  -33.9777   25.0483 H   0  0  0  0  0  0
  -22.6974  -31.3120   21.4154 H   0  0  0  0  0  0
  -23.3752  -35.9627   23.3318 H   0  0  0  0  0  0
  -24.3576  -36.8900   22.2050 H   0  0  0  0  0  0
  -23.7231  -37.6507   23.6641 H   0  0  0  0  0  0
  -26.0636  -31.5910   20.6062 H   0  0  0  0  0  0
  -26.8269  -30.8681   21.9940 H   0  0  0  0  0  0
  -28.0989  -29.0529   21.1830 H   0  0  0  0  0  0
  -25.9822  -26.0003   18.9532 H   0  0  0  0  0  0
  -23.9642  -27.3342   19.0058 H   0  0  0  0  0  0
  -23.7237  -30.6123   19.4076 H   0  0  0  0  0  0
  -22.7382  -29.2575   19.8657 H   0  0  0  0  0  0
  -25.1290  -36.1967   25.0832 H   0  0  0  0  0  0
  -20.9947  -28.3220   24.1431 H   0  0  0  0  0  0
  -20.5677  -26.2266   23.3597 H   0  0  0  0  0  0
  -21.6635  -26.7449   22.1191 H   0  0  0  0  0  0
  -19.6906  -25.6302   21.1225 H   0  0  0  0  0  0
  -19.6688  -27.3205   20.6753 H   0  0  0  0  0  0
  -17.4193  -26.6684   21.4012 H   0  0  0  0  0  0
  -18.0308  -26.0075   22.9010 H   0  0  0  0  0  0
  -19.7937  -30.7256   24.2272 H   0  0  0  0  0  0
  -17.5023  -31.6273   24.5154 H   0  0  0  0  0  0
  -15.5348  -30.2992   23.7682 H   0  0  0  0  0  0
  -15.8657  -28.0828   22.7083 H   0  0  0  0  0  0
  -24.5920  -30.7056   25.7808 H   0  0  0  0  0  0
  -24.8922  -32.2863   26.4908 H   0  0  0  0  0  0
  -25.8084  -30.8886   27.0231 H   0  0  0  0  0  0
  -26.2872  -29.6798   24.1170 H   0  0  0  0  0  0
  -27.4092  -29.7284   25.4591 H   0  0  0  0  0  0
  -27.8713  -30.4375   23.9290 H   0  0  0  0  0  0
  -27.2659  -33.3621   26.2093 H   0  0  0  0  0  0
  -28.3853  -32.6896   25.0329 H   0  0  0  0  0  0
  -28.0718  -31.8441   26.5412 H   0  0  0  0  0  0
  -28.2603  -38.0094   24.7513 H   0  0  0  0  0  0
  -28.1064  -36.2624   24.6303 H   0  0  0  0  0  0
  -27.2289  -37.1467   25.8872 H   0  0  0  0  0  0
  -20.9311  -29.8767   21.6950 H   0  0  0  0  0  0
  -26.0177  -38.2873   24.1417 H   0  0  0  0  0  0
  -28.5811  -17.7949   20.7728 H   0  0  0  0  0  0
  -31.7456  -20.5931   21.7228 H   0  0  0  0  0  0
  -32.5368  -16.3961   21.8146 H   0  0  0  0  0  0
  -29.4161  -23.7039   24.6929 H   0  0  0  0  0  0
  -30.3210  -24.1755   23.2659 H   0  0  0  0  0  0
  -30.2168  -22.4793   23.7218 H   0  0  0  0  0  0
  -27.1459  -22.5482   24.4761 H   0  0  0  0  0  0
  -27.8841  -21.2543   23.5469 H   0  0  0  0  0  0
  -26.5048  -22.1355   22.8937 H   0  0  0  0  0  0
  -27.1690  -24.9173   20.4871 H   0  0  0  0  0  0
  -27.9799  -24.9502   18.9268 H   0  0  0  0  0  0
  -27.6981  -22.7510   20.8605 H   0  0  0  0  0  0
  -27.8548  -24.2247   22.8720 H   0  0  0  0  0  0
  -29.0657  -15.3672   21.2913 H   0  0  0  0  0  0
  -30.4933  -21.8924   21.3320 H   0  0  0  0  0  0
  1 25  1  0  0  0
  1 30  2  0  0  0
  1 84  1  0  0  0
  2  3  1  0  0  0
  2 25  1  0  0  0
  2 89  1  0  0  0
  2 90  1  0  0  0
  3  4  1  0  0  0
  3 91  1  0  0  0
  3 92  1  0  0  0
  4  5  1  0  0  0
  4 93  1  0  0  0
  4 94  1  0  0  0
  5  6  1  0  0  0
  5 26  1  0  0  0
  5 95  1  0  0  0
  6 25  1  0  0  0
  6 96  1  0  0  0
  6 97  1  0  0  0
  7  8  2  0  0  0
  7 26  1  0  0  0
  7 29  1  0  0  0
  8  9  1  0  0  0
  8 22  1  0  0  0
  9 10  1  0  0  0
  9 27  2  0  0  0
 10 11  2  0  0  0
 10 15  1  0  0  0
 11 12  1  0  0  0
 11 98  1  0  0  0
 12 13  2  0  0  0
 12 99  1  0  0  0
 13 14  1  0  0  0
 13 31  1  0  0  0
 14 15  2  0  0  0
 14100  1  0  0  0
 15101  1  0  0  0
 16 17  2  0  0  0
 16 21  1  0  0  0
 16 31  1  0  0  0
 17 18  1  0  0  0
 17102  1  0  0  0
 18 19  2  0  0  0
 18103  1  0  0  0
 19 20  1  0  0  0
 19 24  1  0  0  0
 20 21  2  0  0  0
 20104  1  0  0  0
 21 23  1  0  0  0
 22 28  1  0  0  0
 22 32  2  0  0  0
 26 27  1  0  0  0
 28105  1  0  0  0
 28106  1  0  0  0
 29107  1  0  0  0
 29108  1  0  0  0
 33 34  1  0  0  0
 33 66  1  0  0  0
 33 70  2  0  0  0
 34 36  1  0  0  0
 34 59  1  0  0  0
 34109  1  0  0  0
 35 44  2  0  0  0
 35 45  1  0  0  0
 35 68  1  0  0  0
 36 56  1  0  0  0
 36110  1  0  0  0
 37 39  1  0  0  0
 37 47  1  0  0  0
 37 66  1  0  0  0
 37111  1  0  0  0
 38 43  2  0  0  0
 38 46  1  0  0  0
 38 47  1  0  0  0
 39 64  1  0  0  0
 39 67  2  0  0  0
 40 52  1  0  0  0
 40 53  2  0  0  0
 40 58  1  0  0  0
 41112  1  0  0  0
 41113  1  0  0  0
 41114  1  0  0  0
 41 48  1  0  0  0
 42 43  1  0  0  0
 42 66  1  0  0  0
 42115  1  0  0  0
 42116  1  0  0  0
 43 44  1  0  0  0
 44117  1  0  0  0
 45 46  2  0  0  0
 45118  1  0  0  0
 46119  1  0  0  0
 47120  1  0  0  0
 47121  1  0  0  0
 48 56  1  0  0  0
 48 65  1  0  0  0
 48122  1  0  0  0
 49 50  1  0  0  0
 49 53  1  0  0  0
 49 64  1  0  0  0
 49123  1  0  0  0
 50 51  1  0  0  0
 50124  1  0  0  0
 50125  1  0  0  0
 51 52  1  0  0  0
 51126  1  0  0  0
 51127  1  0  0  0
 52128  1  0  0  0
 52129  1  0  0  0
 53 54  1  0  0  0
 54 55  2  0  0  0
 54130  1  0  0  0
 55 57  1  0  0  0
 55131  1  0  0  0
 56 69  2  0  0  0
 57 58  2  0  0  0
 57132  1  0  0  0
 58133  1  0  0  0
 59 60  1  0  0  0
 59 61  1  0  0  0
 59 62  1  0  0  0
 60134  1  0  0  0
 60135  1  0  0  0
 60136  1  0  0  0
 61137  1  0  0  0
 61138  1  0  0  0
 61139  1  0  0  0
 62140  1  0  0  0
 62141  1  0  0  0
 62142  1  0  0  0
 63 65  1  0  0  0
 63143  1  0  0  0
 63144  1  0  0  0
 63145  1  0  0  0
 64146  1  0  0  0
 65147  1  0  0  0
 68 81  1  0  0  0
 71 74  2  0  0  0
 71 75  1  0  0  0
 71148  1  0  0  0
 72 74  1  0  0  0
 72 76  2  0  0  0
 72149  1  0  0  0
 73 75  2  0  0  0
 73 76  1  0  0  0
 73150  1  0  0  0
 74 77  1  0  0  0
 75 84  1  0  0  0
 76 88  1  0  0  0
 77 85  1  0  0  0
 77 86  2  0  0  0
 78 81  1  0  0  0
 78 82  1  0  0  0
 78 87  2  0  0  0
 79151  1  0  0  0
 79152  1  0  0  0
 79153  1  0  0  0
 79 83  1  0  0  0
 80 83  1  0  0  0
 80154  1  0  0  0
 80155  1  0  0  0
 80156  1  0  0  0
 81157  1  0  0  0
 81158  1  0  0  0
 82 83  1  0  0  0
 82 85  1  0  0  0
 82159  1  0  0  0
 83160  1  0  0  0
 84161  1  0  0  0
 85162  1  0  0  0
M  ISO  4   1 100  68 101  81 101  84 100
M  END
> <chiral flag>
0

> <version>
0

> <s_m_source_file>
/data/baiqing/PycharmProjects/Reinvent-master-3.2/result/LINK_invent/BTK/process_docking_weight1_custom_product_contain_oxygen_bond_distance_aromatic_linkinvent_7_9_3/rearranged_h_0165.sdf

> <i_m_source_file_index>
90

> <r_mmod_Potential_Energy-OPLS-2005>
-111.340087890625

> <r_mmod_Stretch_Energy-OPLS-2005>
48.145450592041

> <r_mmod_Bend_Energy-OPLS-2005>
104.047737121582

> <r_mmod_Torsional_Energy-OPLS-2005>
238.454467773438

> <r_mmod_Improper_Torsional_Energy-OPLS-2005>
4.01439571380615

> <r_mmod_Van_der_Waal_Energy-OPLS-2005>
162.774520874023

> <r_mmod_Electrostatic_Energy-OPLS-2005>
-457.803253173828

> <r_mmod_Solvation_Energy-OPLS-2005>
-230.966049194336

> <b_mmod_Minimization_Converged-OPLS-2005>
0

> <r_mmod_RMS_Derivative-OPLS-2005>
0.995547533035278

$$$$
91
                    3D
 Structure written by MMmdl.
160168  0  0  1  0            999 V2000
  -30.5626  -14.7456   20.4917 C   0  0  0  0  0  0
  -30.4517  -12.4524   19.4741 C   0  0  0  0  0  0
  -29.5120  -12.4991   18.2454 C   0  0  0  0  0  0
  -28.0422  -12.3075   18.6686 C   0  0  0  0  0  0
  -27.6486  -13.2171   19.8609 C   0  0  2  0  0  0
  -28.6919  -13.1105   20.9952 C   0  0  0  0  0  0
  -25.2554  -13.8175   20.5717 C   0  0  0  0  0  0
  -24.1859  -13.0443   20.9219 C   0  0  0  0  0  0
  -24.6436  -11.6895   20.8759 C   0  0  0  0  0  0
  -23.9095  -10.4290   21.0417 C   0  0  0  0  0  0
  -24.3648   -9.4201   21.9190 C   0  0  0  0  0  0
  -23.6317   -8.2250   22.0757 C   0  0  0  0  0  0
  -22.4273   -8.0313   21.3548 C   0  0  0  0  0  0
  -21.9938   -9.0284   20.4640 C   0  0  0  0  0  0
  -22.7287  -10.2156   20.3065 C   0  0  0  0  0  0
  -21.6845   -6.0776   22.5311 C   0  0  0  0  0  0
  -21.4004   -6.5673   23.8232 C   0  0  0  0  0  0
  -21.3639   -5.6818   24.9194 C   0  0  0  0  0  0
  -21.6033   -4.3098   24.7252 C   0  0  0  0  0  0
  -21.8794   -3.8183   23.4358 C   0  0  0  0  0  0
  -21.9189   -4.6993   22.3426 C   0  0  0  0  0  0
  -22.7880  -13.5209   21.1919 C   0  0  0  0  0  0
  -22.1647   -4.2196   21.0997 F   0  0  0  0  0  0
  -21.5611   -3.4563   25.7743 F   0  0  0  0  0  0
  -30.0008  -13.4843   20.4385 N   0  0  0  0  0  0
  -26.2988  -12.9357   20.3336 N   0  0  0  0  0  0
  -25.9373  -11.6489   20.5801 N   0  0  0  0  0  0
  -22.0559  -12.8159   22.0440 N   0  0  0  0  0  0
  -25.4227  -15.1924   20.4147 N   0  0  0  0  0  0
  -31.7487  -14.8822   20.1650 O   0  0  0  0  0  0
  -21.6628   -6.8923   21.4260 O   0  0  0  0  0  0
  -22.3558  -14.5548   20.6820 O   0  0  0  0  0  0
  -24.6293  -31.8580   23.2122 C   0  0  0  0  0  0
  -25.9132  -32.4788   23.8430 C   0  0  1  0  0  0
  -27.2239  -27.3078   20.1328 C   0  0  0  0  0  0
  -25.5958  -33.8596   24.2357 N   0  0  0  0  0  0
  -23.4264  -30.4903   21.5538 C   0  0  2  0  0  0
  -24.8722  -28.9558   20.1183 C   0  0  0  0  0  0
  -22.7512  -29.4625   22.4938 C   0  0  0  0  0  0
  -18.0307  -28.1341   22.8415 C   0  0  0  0  0  0
  -24.1480  -36.7268   23.2633 C   0  0  0  0  0  0
  -25.9704  -30.8009   21.3757 C   0  0  0  0  0  0
  -26.0477  -29.4293   20.7133 C   0  0  0  0  0  0
  -27.2305  -28.6262   20.6966 C   0  0  0  0  0  0
  -26.0130  -26.8960   19.5262 C   0  0  0  0  0  0
  -24.8582  -27.6955   19.5102 C   0  0  0  0  0  0
  -23.6457  -29.8446   20.1649 C   0  0  0  0  0  0
  -25.4100  -36.3091   24.0329 C   0  0  1  0  0  0
  -20.5923  -28.3734   23.1265 C   0  0  2  0  0  0
  -20.6838  -26.9415   22.5485 C   0  0  0  0  0  0
  -19.5829  -26.6215   21.5327 C   0  0  0  0  0  0
  -18.1965  -26.7830   22.1640 C   0  0  0  0  0  0
  -19.1548  -28.8850   23.2811 C   0  0  0  0  0  0
  -18.9428  -30.1450   23.8812 C   0  0  0  0  0  0
  -17.6391  -30.6538   24.0455 C   0  0  0  0  0  0
  -25.9027  -34.9456   23.5115 C   0  0  0  0  0  0
  -16.5322  -29.9013   23.6206 C   0  0  0  0  0  0
  -16.7300  -28.6425   23.0267 C   0  0  0  0  0  0
  -26.4497  -31.6608   25.0810 C   0  0  0  0  0  0
  -25.3724  -31.3786   26.1572 C   0  0  0  0  0  0
  -27.0355  -30.3054   24.6231 C   0  0  0  0  0  0
  -27.6098  -32.4305   25.7560 C   0  0  0  0  0  0
  -27.5550  -37.1796   24.8468 C   0  0  0  0  0  0
  -21.4229  -29.3062   22.3658 N   0  0  0  0  0  0
  -26.4264  -37.3791   23.9419 N   0  0  0  0  0  0
  -24.6957  -31.0637   22.1048 N   0  0  0  0  0  0
  -23.4231  -28.8109   23.2956 O   0  0  0  0  0  0
  -28.3383  -26.4399   20.1791 O   0  0  0  0  0  0
  -26.5588  -34.8881   22.4674 O   0  0  0  0  0  0
  -23.5448  -32.1361   23.7436 O   0  0  0  0  0  0
  -30.1428  -17.4336   21.2854 C   0  0  0  0  0  0
  -28.9867  -22.5415   21.2565 C   0  0  0  0  0  0
  -29.6329  -21.2618   20.4800 C   0  0  0  0  0  0
  -30.1701  -18.7699   20.4318 C   0  0  0  0  0  0
  -30.9802  -18.6969   23.0792 C   0  0  0  0  0  0
  -30.3698  -20.0562   22.6133 C   0  0  1  0  0  0
  -31.4076  -21.1281   23.0457 C   0  0  0  0  0  0
  -27.7755  -24.3957   18.8276 C   0  0  0  0  0  0
  -29.6293  -16.0512   20.6668 C   0  0  0  0  0  0
  -29.3058  -24.0418   20.8244 C   0  0  0  0  0  0
  -28.1324  -24.9550   20.2258 C   0  0  1  0  0  0
  -30.4048  -17.4846   22.5259 N   0  0  0  0  0  0
  -30.0239  -20.1051   21.1638 N   0  0  0  0  0  0
  -28.1977  -22.3624   22.1943 O   0  0  0  0  0  0
  -29.6565  -21.2979   19.2452 O   0  0  0  0  0  0
  -31.4905  -12.5956   19.1679 H   0  0  0  0  0  0
  -30.4142  -11.4661   19.9370 H   0  0  0  0  0  0
  -29.7923  -11.7202   17.5350 H   0  0  0  0  0  0
  -29.6243  -13.4530   17.7246 H   0  0  0  0  0  0
  -27.9215  -11.2623   18.9564 H   0  0  0  0  0  0
  -27.3701  -12.4637   17.8257 H   0  0  0  0  0  0
  -27.6511  -14.2416   19.4889 H   0  0  0  0  0  0
  -28.7292  -12.0927   21.3876 H   0  0  0  0  0  0
  -28.4236  -13.7347   21.8499 H   0  0  0  0  0  0
  -25.2792   -9.5680   22.4774 H   0  0  0  0  0  0
  -24.0009   -7.4638   22.7505 H   0  0  0  0  0  0
  -21.0849   -8.8822   19.8975 H   0  0  0  0  0  0
  -22.3738  -10.9697   19.6194 H   0  0  0  0  0  0
  -21.1976   -7.6181   23.9752 H   0  0  0  0  0  0
  -21.1473   -6.0552   25.9095 H   0  0  0  0  0  0
  -22.0580   -2.7653   23.2850 H   0  0  0  0  0  0
  -22.4162  -11.9743   22.4689 H   0  0  0  0  0  0
  -21.1229  -13.1193   22.2818 H   0  0  0  0  0  0
  -24.6568  -15.8393   20.5689 H   0  0  0  0  0  0
  -26.2659  -15.6462   20.0887 H   0  0  0  0  0  0
  -26.7214  -32.5521   23.1196 H   0  0  0  0  0  0
  -25.0262  -33.9789   25.0611 H   0  0  0  0  0  0
  -22.7198  -31.3143   21.4238 H   0  0  0  0  0  0
  -23.3750  -35.9592   23.3300 H   0  0  0  0  0  0
  -24.3609  -36.8872   22.2049 H   0  0  0  0  0  0
  -23.7179  -37.6442   23.6644 H   0  0  0  0  0  0
  -26.1005  -31.5720   20.6139 H   0  0  0  0  0  0
  -26.8463  -30.8478   22.0087 H   0  0  0  0  0  0
  -28.1344  -29.0032   21.1578 H   0  0  0  0  0  0
  -25.9046  -25.9380   19.0571 H   0  0  0  0  0  0
  -23.9557  -27.3273   19.0440 H   0  0  0  0  0  0
  -23.7819  -30.6390   19.4325 H   0  0  0  0  0  0
  -22.7605  -29.2946   19.8377 H   0  0  0  0  0  0
  -25.1249  -36.1953   25.0804 H   0  0  0  0  0  0
  -20.9974  -28.3403   24.1425 H   0  0  0  0  0  0
  -20.5785  -26.2359   23.3742 H   0  0  0  0  0  0
  -21.6719  -26.7420   22.1308 H   0  0  0  0  0  0
  -19.6980  -25.6044   21.1629 H   0  0  0  0  0  0
  -19.6822  -27.2843   20.6714 H   0  0  0  0  0  0
  -17.4272  -26.6446   21.4050 H   0  0  0  0  0  0
  -18.0423  -26.0026   22.9129 H   0  0  0  0  0  0
  -19.7890  -30.7288   24.2182 H   0  0  0  0  0  0
  -17.4905  -31.6215   24.5036 H   0  0  0  0  0  0
  -15.5286  -30.2851   23.7495 H   0  0  0  0  0  0
  -15.8727  -28.0699   22.7011 H   0  0  0  0  0  0
  -24.5941  -30.7032   25.7985 H   0  0  0  0  0  0
  -24.8863  -32.2962   26.4903 H   0  0  0  0  0  0
  -25.8067  -30.9113   27.0427 H   0  0  0  0  0  0
  -26.2949  -29.6828   24.1180 H   0  0  0  0  0  0
  -27.4025  -29.7279   25.4721 H   0  0  0  0  0  0
  -27.8814  -30.4417   23.9501 H   0  0  0  0  0  0
  -27.2781  -33.3642   26.2129 H   0  0  0  0  0  0
  -28.3919  -32.6767   25.0362 H   0  0  0  0  0  0
  -28.0751  -31.8414   26.5485 H   0  0  0  0  0  0
  -28.2570  -38.0093   24.7513 H   0  0  0  0  0  0
  -28.1019  -36.2601   24.6265 H   0  0  0  0  0  0
  -27.2310  -37.1448   25.8894 H   0  0  0  0  0  0
  -20.9379  -29.8837   21.6952 H   0  0  0  0  0  0
  -26.0126  -38.2829   24.1515 H   0  0  0  0  0  0
  -29.3743  -18.7075   19.6883 H   0  0  0  0  0  0
  -31.1026  -18.7906   19.8639 H   0  0  0  0  0  0
  -30.8822  -18.6522   24.1658 H   0  0  0  0  0  0
  -32.0554  -18.6807   22.8921 H   0  0  0  0  0  0
  -29.4449  -20.2160   23.1678 H   0  0  0  0  0  0
  -32.3856  -20.9445   22.5953 H   0  0  0  0  0  0
  -31.5447  -21.0904   24.1297 H   0  0  0  0  0  0
  -31.1482  -22.1586   22.8137 H   0  0  0  0  0  0
  -28.4330  -23.5834   18.5142 H   0  0  0  0  0  0
  -26.7605  -23.9820   18.8156 H   0  0  0  0  0  0
  -27.8479  -25.1709   18.0591 H   0  0  0  0  0  0
  -29.1915  -16.2721   19.6942 H   0  0  0  0  0  0
  -28.7788  -15.7709   21.2816 H   0  0  0  0  0  0
  -30.1526  -24.0242   20.1390 H   0  0  0  0  0  0
  -29.6719  -24.5449   21.7193 H   0  0  0  0  0  0
  -27.2729  -24.8196   20.8824 H   0  0  0  0  0  0
  1 25  1  0  0  0
  1 30  2  0  0  0
  1 79  1  0  0  0
  2  3  1  0  0  0
  2 25  1  0  0  0
  2 86  1  0  0  0
  2 87  1  0  0  0
  3  4  1  0  0  0
  3 88  1  0  0  0
  3 89  1  0  0  0
  4  5  1  0  0  0
  4 90  1  0  0  0
  4 91  1  0  0  0
  5  6  1  0  0  0
  5 26  1  0  0  0
  5 92  1  0  0  0
  6 25  1  0  0  0
  6 93  1  0  0  0
  6 94  1  0  0  0
  7  8  2  0  0  0
  7 26  1  0  0  0
  7 29  1  0  0  0
  8  9  1  0  0  0
  8 22  1  0  0  0
  9 10  1  0  0  0
  9 27  2  0  0  0
 10 11  2  0  0  0
 10 15  1  0  0  0
 11 12  1  0  0  0
 11 95  1  0  0  0
 12 13  2  0  0  0
 12 96  1  0  0  0
 13 14  1  0  0  0
 13 31  1  0  0  0
 14 15  2  0  0  0
 14 97  1  0  0  0
 15 98  1  0  0  0
 16 17  2  0  0  0
 16 21  1  0  0  0
 16 31  1  0  0  0
 17 18  1  0  0  0
 17 99  1  0  0  0
 18 19  2  0  0  0
 18100  1  0  0  0
 19 20  1  0  0  0
 19 24  1  0  0  0
 20 21  2  0  0  0
 20101  1  0  0  0
 21 23  1  0  0  0
 22 28  1  0  0  0
 22 32  2  0  0  0
 26 27  1  0  0  0
 28102  1  0  0  0
 28103  1  0  0  0
 29104  1  0  0  0
 29105  1  0  0  0
 33 34  1  0  0  0
 33 66  1  0  0  0
 33 70  2  0  0  0
 34 36  1  0  0  0
 34 59  1  0  0  0
 34106  1  0  0  0
 35 44  2  0  0  0
 35 45  1  0  0  0
 35 68  1  0  0  0
 36 56  1  0  0  0
 36107  1  0  0  0
 37 39  1  0  0  0
 37 47  1  0  0  0
 37 66  1  0  0  0
 37108  1  0  0  0
 38 43  2  0  0  0
 38 46  1  0  0  0
 38 47  1  0  0  0
 39 64  1  0  0  0
 39 67  2  0  0  0
 40 52  1  0  0  0
 40 53  2  0  0  0
 40 58  1  0  0  0
 41109  1  0  0  0
 41110  1  0  0  0
 41111  1  0  0  0
 41 48  1  0  0  0
 42 43  1  0  0  0
 42 66  1  0  0  0
 42112  1  0  0  0
 42113  1  0  0  0
 43 44  1  0  0  0
 44114  1  0  0  0
 45 46  2  0  0  0
 45115  1  0  0  0
 46116  1  0  0  0
 47117  1  0  0  0
 47118  1  0  0  0
 48 56  1  0  0  0
 48 65  1  0  0  0
 48119  1  0  0  0
 49 50  1  0  0  0
 49 53  1  0  0  0
 49 64  1  0  0  0
 49120  1  0  0  0
 50 51  1  0  0  0
 50121  1  0  0  0
 50122  1  0  0  0
 51 52  1  0  0  0
 51123  1  0  0  0
 51124  1  0  0  0
 52125  1  0  0  0
 52126  1  0  0  0
 53 54  1  0  0  0
 54 55  2  0  0  0
 54127  1  0  0  0
 55 57  1  0  0  0
 55128  1  0  0  0
 56 69  2  0  0  0
 57 58  2  0  0  0
 57129  1  0  0  0
 58130  1  0  0  0
 59 60  1  0  0  0
 59 61  1  0  0  0
 59 62  1  0  0  0
 60131  1  0  0  0
 60132  1  0  0  0
 60133  1  0  0  0
 61134  1  0  0  0
 61135  1  0  0  0
 61136  1  0  0  0
 62137  1  0  0  0
 62138  1  0  0  0
 62139  1  0  0  0
 63 65  1  0  0  0
 63140  1  0  0  0
 63141  1  0  0  0
 63142  1  0  0  0
 64143  1  0  0  0
 65144  1  0  0  0
 68 81  1  0  0  0
 71 74  1  0  0  0
 71 79  1  0  0  0
 71 82  2  0  0  0
 72 73  1  0  0  0
 72 80  1  0  0  0
 72 84  2  0  0  0
 73 83  1  0  0  0
 73 85  2  0  0  0
 74 83  1  0  0  0
 74145  1  0  0  0
 74146  1  0  0  0
 75 76  1  0  0  0
 75 82  1  0  0  0
 75147  1  0  0  0
 75148  1  0  0  0
 76 77  1  0  0  0
 76 83  1  0  0  0
 76149  1  0  0  0
 77150  1  0  0  0
 77151  1  0  0  0
 77152  1  0  0  0
 78153  1  0  0  0
 78154  1  0  0  0
 78155  1  0  0  0
 78 81  1  0  0  0
 79156  1  0  0  0
 79157  1  0  0  0
 80 81  1  0  0  0
 80158  1  0  0  0
 80159  1  0  0  0
 81160  1  0  0  0
M  ISO  4   1 100  68 101  79 100  81 101
M  END
> <chiral flag>
0

> <version>
0

> <s_m_source_file>
/data/baiqing/PycharmProjects/Reinvent-master-3.2/result/LINK_invent/BTK/process_docking_weight1_custom_product_contain_oxygen_bond_distance_aromatic_linkinvent_7_9_3/rearranged_h_0165.sdf

> <i_m_source_file_index>
91

> <r_mmod_Potential_Energy-OPLS-2005>
252.329360961914

> <r_mmod_Stretch_Energy-OPLS-2005>
129.07194519043

> <r_mmod_Bend_Energy-OPLS-2005>
182.870056152344

> <r_mmod_Torsional_Energy-OPLS-2005>
239.841415405273

> <r_mmod_Improper_Torsional_Energy-OPLS-2005>
9.08177661895752

> <r_mmod_Van_der_Waal_Energy-OPLS-2005>
143.301773071289

> <r_mmod_Electrostatic_Energy-OPLS-2005>
-289.865386962891

> <r_mmod_Solvation_Energy-OPLS-2005>
-235.13996887207

> <b_mmod_Minimization_Converged-OPLS-2005>
0

> <r_mmod_RMS_Derivative-OPLS-2005>
7.02968597412109

$$$$
92
                    3D
 Structure written by MMmdl.
167176  0  0  1  0            999 V2000
  -30.7118  -14.4524   20.5413 C   0  0  0  0  0  0
  -30.4088  -12.2810   19.4304 C   0  0  0  0  0  0
  -29.4936  -12.5032   18.2089 C   0  0  0  0  0  0
  -28.0127  -12.3718   18.6144 C   0  0  0  0  0  0
  -27.6588  -13.2110   19.8716 C   0  0  2  0  0  0
  -28.6992  -12.9985   20.9960 C   0  0  0  0  0  0
  -25.2577  -13.8170   20.5681 C   0  0  0  0  0  0
  -24.1829  -13.0442   20.9160 C   0  0  0  0  0  0
  -24.6387  -11.6910   20.8731 C   0  0  0  0  0  0
  -23.9061  -10.4296   21.0401 C   0  0  0  0  0  0
  -24.3617   -9.4211   21.9177 C   0  0  0  0  0  0
  -23.6293   -8.2251   22.0755 C   0  0  0  0  0  0
  -22.4278   -8.0280   21.3541 C   0  0  0  0  0  0
  -21.9906   -9.0249   20.4646 C   0  0  0  0  0  0
  -22.7236  -10.2124   20.3050 C   0  0  0  0  0  0
  -21.6851   -6.0738   22.5284 C   0  0  0  0  0  0
  -21.4019   -6.5646   23.8216 C   0  0  0  0  0  0
  -21.3657   -5.6794   24.9175 C   0  0  0  0  0  0
  -21.6050   -4.3057   24.7224 C   0  0  0  0  0  0
  -21.8819   -3.8150   23.4344 C   0  0  0  0  0  0
  -21.9194   -4.6969   22.3406 C   0  0  0  0  0  0
  -22.7847  -13.5228   21.1822 C   0  0  0  0  0  0
  -22.1661   -4.2158   21.0979 F   0  0  0  0  0  0
  -21.5622   -3.4541   25.7734 F   0  0  0  0  0  0
  -30.0354  -13.2766   20.4434 N   0  0  0  0  0  0
  -26.3013  -12.9349   20.3356 N   0  0  0  0  0  0
  -25.9315  -11.6506   20.5772 N   0  0  0  0  0  0
  -22.0499  -12.8218   22.0376 N   0  0  0  0  0  0
  -25.4308  -15.1893   20.4089 N   0  0  0  0  0  0
  -31.8417  -14.6104   20.0693 O   0  0  0  0  0  0
  -21.6639   -6.8879   21.4241 O   0  0  0  0  0  0
  -22.3538  -14.5547   20.6691 O   0  0  0  0  0  0
  -24.6154  -31.8667   23.2082 C   0  0  0  0  0  0
  -25.9055  -32.4807   23.8379 C   0  0  1  0  0  0
  -27.2339  -27.4286   20.0908 C   0  0  0  0  0  0
  -25.5903  -33.8609   24.2304 N   0  0  0  0  0  0
  -23.4027  -30.4903   21.5503 C   0  0  2  0  0  0
  -24.8503  -28.9596   20.1092 C   0  0  0  0  0  0
  -22.7416  -29.4660   22.4990 C   0  0  0  0  0  0
  -18.0271  -28.1374   22.8484 C   0  0  0  0  0  0
  -24.1486  -36.7319   23.2643 C   0  0  0  0  0  0
  -25.9334  -30.8299   21.3630 C   0  0  0  0  0  0
  -26.0119  -29.4661   20.7057 C   0  0  0  0  0  0
  -27.2092  -28.7096   20.6902 C   0  0  0  0  0  0
  -26.0582  -26.9451   19.4760 C   0  0  0  0  0  0
  -24.8694  -27.6983   19.4898 C   0  0  0  0  0  0
  -23.6089  -29.8233   20.1648 C   0  0  0  0  0  0
  -25.4109  -36.3101   24.0328 C   0  0  1  0  0  0
  -20.5861  -28.3666   23.1318 C   0  0  2  0  0  0
  -20.6765  -26.9404   22.5417 C   0  0  0  0  0  0
  -19.5750  -26.6383   21.5213 C   0  0  0  0  0  0
  -18.1920  -26.7922   22.1617 C   0  0  0  0  0  0
  -19.1517  -28.8836   23.2889 C   0  0  0  0  0  0
  -18.9452  -30.1450   23.8889 C   0  0  0  0  0  0
  -17.6456  -30.6574   24.0574 C   0  0  0  0  0  0
  -25.9040  -34.9463   23.5110 C   0  0  0  0  0  0
  -16.5345  -29.9082   23.6338 C   0  0  0  0  0  0
  -16.7265  -28.6507   23.0338 C   0  0  0  0  0  0
  -26.4469  -31.6595   25.0722 C   0  0  0  0  0  0
  -25.3733  -31.3717   26.1481 C   0  0  0  0  0  0
  -27.0308  -30.3028   24.6118 C   0  0  0  0  0  0
  -27.6028  -32.4336   25.7485 C   0  0  0  0  0  0
  -27.5578  -37.1804   24.8463 C   0  0  0  0  0  0
  -21.4144  -29.3023   22.3715 N   0  0  0  0  0  0
  -26.4301  -37.3786   23.9396 N   0  0  0  0  0  0
  -24.6688  -31.0763   22.0981 N   0  0  0  0  0  0
  -23.4188  -28.8219   23.3047 O   0  0  0  0  0  0
  -28.3806  -26.6594   20.0924 O   0  0  0  0  0  0
  -26.5615  -34.8928   22.4686 O   0  0  0  0  0  0
  -23.5341  -32.1446   23.7461 O   0  0  0  0  0  0
  -31.0070  -18.8272   20.4234 C   0  0  0  0  0  0
  -30.8949  -17.4769   19.9762 C   0  0  0  0  0  0
  -30.4838  -18.8805   21.6902 C   0  0  0  0  0  0
  -30.3205  -16.7976   21.0157 C   0  0  0  0  0  0
  -29.8383  -22.1010   21.3481 C   0  0  0  0  0  0
  -28.5698  -19.0626   24.3940 C   0  0  0  0  0  0
  -27.6604  -19.3479   23.1775 C   0  0  0  0  0  0
  -30.0817  -19.2941   24.1437 C   0  0  0  0  0  0
  -27.9773  -20.6482   22.3924 C   0  0  0  0  0  0
  -30.4017  -19.9496   22.7702 C   0  0  2  0  0  0
  -29.4356  -21.1744   22.5385 C   0  0  1  0  0  0
  -29.5157  -22.1273   23.7697 C   0  0  0  0  0  0
  -29.1829  -24.2702   20.2324 C   0  0  0  0  0  0
  -28.2421  -25.3856   20.7532 C   0  0  0  0  0  0
  -30.0216  -15.4724   21.0824 N   0  0  0  0  0  0
  -28.9338  -23.0218   20.9707 N   0  0  0  0  0  0
  -30.9738  -22.0727   20.8712 O   0  0  0  0  0  0
  -30.0086  -17.6376   22.0297 O   0  0  0  0  0  0
  -31.4600  -12.3471   19.1446 H   0  0  0  0  0  0
  -30.2735  -11.2759   19.8334 H   0  0  0  0  0  0
  -29.7324  -11.7885   17.4200 H   0  0  0  0  0  0
  -29.6705  -13.4960   17.7899 H   0  0  0  0  0  0
  -27.8127  -11.3156   18.8031 H   0  0  0  0  0  0
  -27.3698  -12.6584   17.7824 H   0  0  0  0  0  0
  -27.7016  -14.2583   19.5690 H   0  0  0  0  0  0
  -28.6621  -11.9715   21.3618 H   0  0  0  0  0  0
  -28.4681  -13.6204   21.8618 H   0  0  0  0  0  0
  -25.2761   -9.5685   22.4745 H   0  0  0  0  0  0
  -24.0007   -7.4639   22.7477 H   0  0  0  0  0  0
  -21.0841   -8.8765   19.8946 H   0  0  0  0  0  0
  -22.3704  -10.9658   19.6157 H   0  0  0  0  0  0
  -21.2017   -7.6155   23.9723 H   0  0  0  0  0  0
  -21.1479   -6.0523   25.9078 H   0  0  0  0  0  0
  -22.0602   -2.7616   23.2842 H   0  0  0  0  0  0
  -22.4124  -11.9878   22.4751 H   0  0  0  0  0  0
  -21.1120  -13.1240   22.2615 H   0  0  0  0  0  0
  -24.6623  -15.8446   20.5043 H   0  0  0  0  0  0
  -26.2907  -15.6278   20.1028 H   0  0  0  0  0  0
  -26.7128  -32.5524   23.1148 H   0  0  0  0  0  0
  -25.0000  -33.9754   25.0413 H   0  0  0  0  0  0
  -22.6916  -31.3064   21.4114 H   0  0  0  0  0  0
  -23.3722  -35.9680   23.3319 H   0  0  0  0  0  0
  -24.3576  -36.8936   22.2057 H   0  0  0  0  0  0
  -23.7261  -37.6540   23.6653 H   0  0  0  0  0  0
  -26.0505  -31.5983   20.5976 H   0  0  0  0  0  0
  -26.8173  -30.8767   21.9870 H   0  0  0  0  0  0
  -28.1079  -29.0965   21.1512 H   0  0  0  0  0  0
  -26.0570  -25.9828   18.9834 H   0  0  0  0  0  0
  -23.9807  -27.3048   19.0166 H   0  0  0  0  0  0
  -23.7104  -30.5965   19.4030 H   0  0  0  0  0  0
  -22.7310  -29.2419   19.8768 H   0  0  0  0  0  0
  -25.1272  -36.1969   25.0819 H   0  0  0  0  0  0
  -20.9941  -28.3241   24.1451 H   0  0  0  0  0  0
  -20.5690  -26.2268   23.3602 H   0  0  0  0  0  0
  -21.6630  -26.7473   22.1193 H   0  0  0  0  0  0
  -19.6928  -25.6301   21.1232 H   0  0  0  0  0  0
  -19.6686  -27.3200   20.6749 H   0  0  0  0  0  0
  -17.4190  -26.6669   21.4018 H   0  0  0  0  0  0
  -18.0322  -26.0064   22.9011 H   0  0  0  0  0  0
  -19.7934  -30.7256   24.2242 H   0  0  0  0  0  0
  -17.5021  -31.6262   24.5164 H   0  0  0  0  0  0
  -15.5342  -30.2977   23.7672 H   0  0  0  0  0  0
  -15.8672  -28.0838   22.7040 H   0  0  0  0  0  0
  -24.5880  -30.7094   25.7823 H   0  0  0  0  0  0
  -24.8964  -32.2883   26.4951 H   0  0  0  0  0  0
  -25.8096  -30.8867   27.0225 H   0  0  0  0  0  0
  -26.2863  -29.6772   24.1185 H   0  0  0  0  0  0
  -27.4077  -29.7289   25.4590 H   0  0  0  0  0  0
  -27.8691  -30.4321   23.9273 H   0  0  0  0  0  0
  -27.2618  -33.3619   26.2084 H   0  0  0  0  0  0
  -28.3826  -32.6937   25.0317 H   0  0  0  0  0  0
  -28.0714  -31.8465   26.5400 H   0  0  0  0  0  0
  -28.2584  -38.0106   24.7490 H   0  0  0  0  0  0
  -28.1070  -36.2625   24.6288 H   0  0  0  0  0  0
  -27.2294  -37.1474   25.8871 H   0  0  0  0  0  0
  -20.9308  -29.8752   21.6937 H   0  0  0  0  0  0
  -26.0179  -38.2868   24.1390 H   0  0  0  0  0  0
  -31.4530  -19.6545   19.8880 H   0  0  0  0  0  0
  -31.2116  -17.0610   19.0282 H   0  0  0  0  0  0
  -28.4139  -18.0330   24.7235 H   0  0  0  0  0  0
  -28.2477  -19.6777   25.2345 H   0  0  0  0  0  0
  -26.6171  -19.3608   23.4938 H   0  0  0  0  0  0
  -27.7231  -18.5019   22.4938 H   0  0  0  0  0  0
  -30.6372  -18.3644   24.2731 H   0  0  0  0  0  0
  -30.4639  -19.9293   24.9422 H   0  0  0  0  0  0
  -27.2799  -21.4269   22.7042 H   0  0  0  0  0  0
  -27.7509  -20.4661   21.3406 H   0  0  0  0  0  0
  -31.4120  -20.3533   22.8556 H   0  0  0  0  0  0
  -29.0313  -23.0891   23.5965 H   0  0  0  0  0  0
  -30.5506  -22.3373   24.0409 H   0  0  0  0  0  0
  -29.0276  -21.7193   24.6515 H   0  0  0  0  0  0
  -30.2218  -24.5839   20.3503 H   0  0  0  0  0  0
  -29.0181  -24.0966   19.1684 H   0  0  0  0  0  0
  -28.4415  -25.5478   21.8134 H   0  0  0  0  0  0
  -27.2203  -25.0078   20.7021 H   0  0  0  0  0  0
  -29.1731  -15.2279   21.5673 H   0  0  0  0  0  0
  -28.0212  -22.9344   21.3943 H   0  0  0  0  0  0
  1 25  1  0  0  0
  1 30  2  0  0  0
  1 85  1  0  0  0
  2  3  1  0  0  0
  2 25  1  0  0  0
  2 89  1  0  0  0
  2 90  1  0  0  0
  3  4  1  0  0  0
  3 91  1  0  0  0
  3 92  1  0  0  0
  4  5  1  0  0  0
  4 93  1  0  0  0
  4 94  1  0  0  0
  5  6  1  0  0  0
  5 26  1  0  0  0
  5 95  1  0  0  0
  6 25  1  0  0  0
  6 96  1  0  0  0
  6 97  1  0  0  0
  7  8  2  0  0  0
  7 26  1  0  0  0
  7 29  1  0  0  0
  8  9  1  0  0  0
  8 22  1  0  0  0
  9 10  1  0  0  0
  9 27  2  0  0  0
 10 11  2  0  0  0
 10 15  1  0  0  0
 11 12  1  0  0  0
 11 98  1  0  0  0
 12 13  2  0  0  0
 12 99  1  0  0  0
 13 14  1  0  0  0
 13 31  1  0  0  0
 14 15  2  0  0  0
 14100  1  0  0  0
 15101  1  0  0  0
 16 17  2  0  0  0
 16 21  1  0  0  0
 16 31  1  0  0  0
 17 18  1  0  0  0
 17102  1  0  0  0
 18 19  2  0  0  0
 18103  1  0  0  0
 19 20  1  0  0  0
 19 24  1  0  0  0
 20 21  2  0  0  0
 20104  1  0  0  0
 21 23  1  0  0  0
 22 28  1  0  0  0
 22 32  2  0  0  0
 26 27  1  0  0  0
 28105  1  0  0  0
 28106  1  0  0  0
 29107  1  0  0  0
 29108  1  0  0  0
 33 34  1  0  0  0
 33 66  1  0  0  0
 33 70  2  0  0  0
 34 36  1  0  0  0
 34 59  1  0  0  0
 34109  1  0  0  0
 35 44  2  0  0  0
 35 45  1  0  0  0
 35 68  1  0  0  0
 36 56  1  0  0  0
 36110  1  0  0  0
 37 39  1  0  0  0
 37 47  1  0  0  0
 37 66  1  0  0  0
 37111  1  0  0  0
 38 43  2  0  0  0
 38 46  1  0  0  0
 38 47  1  0  0  0
 39 64  1  0  0  0
 39 67  2  0  0  0
 40 52  1  0  0  0
 40 53  2  0  0  0
 40 58  1  0  0  0
 41112  1  0  0  0
 41113  1  0  0  0
 41114  1  0  0  0
 41 48  1  0  0  0
 42 43  1  0  0  0
 42 66  1  0  0  0
 42115  1  0  0  0
 42116  1  0  0  0
 43 44  1  0  0  0
 44117  1  0  0  0
 45 46  2  0  0  0
 45118  1  0  0  0
 46119  1  0  0  0
 47120  1  0  0  0
 47121  1  0  0  0
 48 56  1  0  0  0
 48 65  1  0  0  0
 48122  1  0  0  0
 49 50  1  0  0  0
 49 53  1  0  0  0
 49 64  1  0  0  0
 49123  1  0  0  0
 50 51  1  0  0  0
 50124  1  0  0  0
 50125  1  0  0  0
 51 52  1  0  0  0
 51126  1  0  0  0
 51127  1  0  0  0
 52128  1  0  0  0
 52129  1  0  0  0
 53 54  1  0  0  0
 54 55  2  0  0  0
 54130  1  0  0  0
 55 57  1  0  0  0
 55131  1  0  0  0
 56 69  2  0  0  0
 57 58  2  0  0  0
 57132  1  0  0  0
 58133  1  0  0  0
 59 60  1  0  0  0
 59 61  1  0  0  0
 59 62  1  0  0  0
 60134  1  0  0  0
 60135  1  0  0  0
 60136  1  0  0  0
 61137  1  0  0  0
 61138  1  0  0  0
 61139  1  0  0  0
 62140  1  0  0  0
 62141  1  0  0  0
 62142  1  0  0  0
 63 65  1  0  0  0
 63143  1  0  0  0
 63144  1  0  0  0
 63145  1  0  0  0
 64146  1  0  0  0
 65147  1  0  0  0
 68 84  1  0  0  0
 71 72  1  0  0  0
 71 73  2  0  0  0
 71148  1  0  0  0
 72 74  2  0  0  0
 72149  1  0  0  0
 73 88  1  0  0  0
 73 80  1  0  0  0
 74 85  1  0  0  0
 74 88  1  0  0  0
 75 86  1  0  0  0
 75 87  2  0  0  0
 75 81  1  0  0  0
 76 77  1  0  0  0
 76 78  1  0  0  0
 76150  1  0  0  0
 76151  1  0  0  0
 77 79  1  0  0  0
 77152  1  0  0  0
 77153  1  0  0  0
 78 80  1  0  0  0
 78154  1  0  0  0
 78155  1  0  0  0
 79 81  1  0  0  0
 79156  1  0  0  0
 79157  1  0  0  0
 80 81  1  0  0  0
 80158  1  0  0  0
 81 82  1  0  0  0
 82159  1  0  0  0
 82160  1  0  0  0
 82161  1  0  0  0
 83 84  1  0  0  0
 83 86  1  0  0  0
 83162  1  0  0  0
 83163  1  0  0  0
 84164  1  0  0  0
 84165  1  0  0  0
 85166  1  0  0  0
 86167  1  0  0  0
M  ISO  4   1 100  68 101  84 101  85 100
M  END
> <chiral flag>
0

> <version>
0

> <s_m_source_file>
/data/baiqing/PycharmProjects/Reinvent-master-3.2/result/LINK_invent/BTK/process_docking_weight1_custom_product_contain_oxygen_bond_distance_aromatic_linkinvent_7_9_3/rearranged_h_0165.sdf

> <i_m_source_file_index>
92

> <r_mmod_Potential_Energy-OPLS-2005>
2.67372012138367

> <r_mmod_Stretch_Energy-OPLS-2005>
43.5663948059082

> <r_mmod_Bend_Energy-OPLS-2005>
118.555084228516

> <r_mmod_Torsional_Energy-OPLS-2005>
335.797698974609

> <r_mmod_Improper_Torsional_Energy-OPLS-2005>
4.85031032562256

> <r_mmod_Van_der_Waal_Energy-OPLS-2005>
156.778579711914

> <r_mmod_Electrostatic_Energy-OPLS-2005>
-446.098114013672

> <r_mmod_Solvation_Energy-OPLS-2005>
-224.094009399414

> <b_mmod_Minimization_Converged-OPLS-2005>
0

> <r_mmod_RMS_Derivative-OPLS-2005>
2.35454082489014

$$$$
93
                    3D
 Structure written by MMmdl.
157165  0  0  1  0            999 V2000
  -30.6693  -14.4749   20.5220 C   0  0  0  0  0  0
  -30.4210  -12.2802   19.4377 C   0  0  0  0  0  0
  -29.4976  -12.4793   18.2169 C   0  0  0  0  0  0
  -28.0186  -12.3327   18.6268 C   0  0  0  0  0  0
  -27.6578  -13.1902   19.8667 C   0  0  2  0  0  0
  -28.6959  -12.9847   20.9955 C   0  0  0  0  0  0
  -25.2600  -13.8120   20.5620 C   0  0  0  0  0  0
  -24.1847  -13.0425   20.9185 C   0  0  0  0  0  0
  -24.6382  -11.6896   20.8756 C   0  0  0  0  0  0
  -23.9055  -10.4285   21.0421 C   0  0  0  0  0  0
  -24.3613   -9.4197   21.9186 C   0  0  0  0  0  0
  -23.6287   -8.2232   22.0748 C   0  0  0  0  0  0
  -22.4272   -8.0277   21.3539 C   0  0  0  0  0  0
  -21.9910   -9.0253   20.4647 C   0  0  0  0  0  0
  -22.7239  -10.2129   20.3058 C   0  0  0  0  0  0
  -21.6845   -6.0737   22.5284 C   0  0  0  0  0  0
  -21.4017   -6.5642   23.8218 C   0  0  0  0  0  0
  -21.3655   -5.6794   24.9177 C   0  0  0  0  0  0
  -21.6035   -4.3056   24.7226 C   0  0  0  0  0  0
  -21.8818   -3.8152   23.4352 C   0  0  0  0  0  0
  -21.9198   -4.6967   22.3406 C   0  0  0  0  0  0
  -22.7880  -13.5238   21.1831 C   0  0  0  0  0  0
  -22.1666   -4.2153   21.0984 F   0  0  0  0  0  0
  -21.5621   -3.4541   25.7741 F   0  0  0  0  0  0
  -30.0333  -13.2742   20.4460 N   0  0  0  0  0  0
  -26.2995  -12.9251   20.3295 N   0  0  0  0  0  0
  -25.9291  -11.6442   20.5776 N   0  0  0  0  0  0
  -22.0525  -12.8224   22.0394 N   0  0  0  0  0  0
  -25.4330  -15.1819   20.3905 N   0  0  0  0  0  0
  -31.8278  -14.6433   20.1316 O   0  0  0  0  0  0
  -21.6637   -6.8870   21.4240 O   0  0  0  0  0  0
  -22.3583  -14.5546   20.6678 O   0  0  0  0  0  0
  -24.6119  -31.8680   23.2097 C   0  0  0  0  0  0
  -25.9019  -32.4826   23.8380 C   0  0  1  0  0  0
  -27.2406  -27.4502   20.0992 C   0  0  0  0  0  0
  -25.5867  -33.8626   24.2310 N   0  0  0  0  0  0
  -23.4001  -30.4886   21.5496 C   0  0  2  0  0  0
  -24.8480  -28.9489   20.1202 C   0  0  0  0  0  0
  -22.7398  -29.4638   22.5016 C   0  0  0  0  0  0
  -18.0260  -28.1384   22.8474 C   0  0  0  0  0  0
  -24.1482  -36.7321   23.2642 C   0  0  0  0  0  0
  -25.9244  -30.8377   21.3588 C   0  0  0  0  0  0
  -26.0037  -29.4705   20.7148 C   0  0  0  0  0  0
  -27.2046  -28.7290   20.6968 C   0  0  0  0  0  0
  -26.0712  -26.9328   19.5058 C   0  0  0  0  0  0
  -24.8749  -27.6776   19.5160 C   0  0  0  0  0  0
  -23.6080  -29.8146   20.1653 C   0  0  0  0  0  0
  -25.4097  -36.3111   24.0336 C   0  0  1  0  0  0
  -20.5849  -28.3661   23.1331 C   0  0  2  0  0  0
  -20.6755  -26.9402   22.5433 C   0  0  0  0  0  0
  -19.5744  -26.6399   21.5211 C   0  0  0  0  0  0
  -18.1914  -26.7927   22.1610 C   0  0  0  0  0  0
  -19.1514  -28.8837   23.2895 C   0  0  0  0  0  0
  -18.9453  -30.1440   23.8902 C   0  0  0  0  0  0
  -17.6455  -30.6590   24.0565 C   0  0  0  0  0  0
  -25.9032  -34.9479   23.5129 C   0  0  0  0  0  0
  -16.5344  -29.9098   23.6325 C   0  0  0  0  0  0
  -16.7252  -28.6517   23.0330 C   0  0  0  0  0  0
  -26.4438  -31.6614   25.0725 C   0  0  0  0  0  0
  -25.3692  -31.3729   26.1470 C   0  0  0  0  0  0
  -27.0257  -30.3049   24.6081 C   0  0  0  0  0  0
  -27.6019  -32.4340   25.7486 C   0  0  0  0  0  0
  -27.5580  -37.1794   24.8457 C   0  0  0  0  0  0
  -21.4129  -29.3017   22.3744 N   0  0  0  0  0  0
  -26.4278  -37.3803   23.9405 N   0  0  0  0  0  0
  -24.6634  -31.0785   22.0983 N   0  0  0  0  0  0
  -23.4160  -28.8193   23.3078 O   0  0  0  0  0  0
  -28.4309  -26.7705   20.0057 O   0  0  0  0  0  0
  -26.5618  -34.8934   22.4706 O   0  0  0  0  0  0
  -23.5311  -32.1438   23.7498 O   0  0  0  0  0  0
  -28.0715  -19.9265   20.0012 C   0  0  0  0  0  0
  -28.1008  -21.3347   20.1113 C   0  0  0  0  0  0
  -28.7784  -19.1135   20.9207 C   0  0  0  0  0  0
  -28.8488  -21.9427   21.1436 C   0  0  0  0  0  0
  -29.5154  -19.7255   21.9556 C   0  0  0  0  0  0
  -29.5551  -21.1297   22.0558 C   0  0  0  0  0  0
  -29.9772  -16.8084   20.7072 C   0  0  0  0  0  0
  -28.3226  -26.0763   22.4032 C   0  0  0  0  0  0
  -28.6569  -17.5923   20.8376 C   0  0  0  0  0  0
  -28.2621  -24.3364   20.5114 C   0  0  0  0  0  0
  -28.7302  -25.7410   20.9546 C   0  0  1  0  0  0
  -28.9298  -23.3284   21.3313 N   0  0  0  0  0  0
  -29.8298  -15.4788   20.8389 N   0  0  0  0  0  0
  -31.0398  -17.3877   20.4497 O   0  0  0  0  0  0
  -30.1699  -18.9718   22.8719 F   0  0  0  0  0  0
  -30.2697  -21.7072   23.0532 F   0  0  0  0  0  0
  -31.4692  -12.3654   19.1474 H   0  0  0  0  0  0
  -30.3026  -11.2751   19.8472 H   0  0  0  0  0  0
  -29.7449  -11.7544   17.4399 H   0  0  0  0  0  0
  -29.6631  -13.4665   17.7818 H   0  0  0  0  0  0
  -27.8419  -11.2784   18.8460 H   0  0  0  0  0  0
  -27.3642  -12.5784   17.7892 H   0  0  0  0  0  0
  -27.6978  -14.2300   19.5452 H   0  0  0  0  0  0
  -28.6631  -11.9577   21.3629 H   0  0  0  0  0  0
  -28.4563  -13.6075   21.8596 H   0  0  0  0  0  0
  -25.2754   -9.5666   22.4763 H   0  0  0  0  0  0
  -24.0007   -7.4613   22.7451 H   0  0  0  0  0  0
  -21.0846   -8.8765   19.8944 H   0  0  0  0  0  0
  -22.3699  -10.9669   19.6171 H   0  0  0  0  0  0
  -21.2015   -7.6157   23.9716 H   0  0  0  0  0  0
  -21.1469   -6.0529   25.9074 H   0  0  0  0  0  0
  -22.0602   -2.7618   23.2850 H   0  0  0  0  0  0
  -22.4165  -11.9898   22.4788 H   0  0  0  0  0  0
  -21.1140  -13.1229   22.2588 H   0  0  0  0  0  0
  -24.6370  -15.8108   20.4265 H   0  0  0  0  0  0
  -26.2365  -15.5924   19.9341 H   0  0  0  0  0  0
  -26.7107  -32.5551   23.1162 H   0  0  0  0  0  0
  -24.9941  -33.9763   25.0393 H   0  0  0  0  0  0
  -22.6877  -31.3037   21.4088 H   0  0  0  0  0  0
  -23.3740  -35.9666   23.3326 H   0  0  0  0  0  0
  -24.3552  -36.8924   22.2054 H   0  0  0  0  0  0
  -23.7247  -37.6531   23.6652 H   0  0  0  0  0  0
  -26.0252  -31.6015   20.5870 H   0  0  0  0  0  0
  -26.8156  -30.8984   21.9720 H   0  0  0  0  0  0
  -28.1072  -29.1346   21.1311 H   0  0  0  0  0  0
  -26.0941  -25.9681   19.0206 H   0  0  0  0  0  0
  -23.9870  -27.2731   19.0479 H   0  0  0  0  0  0
  -23.7112  -30.5865   19.4019 H   0  0  0  0  0  0
  -22.7339  -29.2304   19.8767 H   0  0  0  0  0  0
  -25.1275  -36.1974   25.0829 H   0  0  0  0  0  0
  -20.9916  -28.3236   24.1451 H   0  0  0  0  0  0
  -20.5668  -26.2262   23.3610 H   0  0  0  0  0  0
  -21.6626  -26.7460   22.1218 H   0  0  0  0  0  0
  -19.6924  -25.6316   21.1222 H   0  0  0  0  0  0
  -19.6701  -27.3235   20.6768 H   0  0  0  0  0  0
  -17.4189  -26.6686   21.4003 H   0  0  0  0  0  0
  -18.0290  -26.0076   22.9007 H   0  0  0  0  0  0
  -19.7941  -30.7240   24.2284 H   0  0  0  0  0  0
  -17.5029  -31.6277   24.5172 H   0  0  0  0  0  0
  -15.5350  -30.3007   23.7661 H   0  0  0  0  0  0
  -15.8643  -28.0866   22.7008 H   0  0  0  0  0  0
  -24.5934  -30.6963   25.7848 H   0  0  0  0  0  0
  -24.8768  -32.2875   26.4800 H   0  0  0  0  0  0
  -25.8051  -30.9041   27.0299 H   0  0  0  0  0  0
  -26.2776  -29.6831   24.1129 H   0  0  0  0  0  0
  -27.4017  -29.7269   25.4537 H   0  0  0  0  0  0
  -27.8629  -30.4367   23.9216 H   0  0  0  0  0  0
  -27.2635  -33.3676   26.1981 H   0  0  0  0  0  0
  -28.3850  -32.6811   25.0314 H   0  0  0  0  0  0
  -28.0617  -31.8490   26.5454 H   0  0  0  0  0  0
  -28.2592  -38.0108   24.7512 H   0  0  0  0  0  0
  -28.1080  -36.2626   24.6258 H   0  0  0  0  0  0
  -27.2289  -37.1420   25.8864 H   0  0  0  0  0  0
  -20.9308  -29.8696   21.6919 H   0  0  0  0  0  0
  -26.0188  -38.2872   24.1456 H   0  0  0  0  0  0
  -27.4809  -19.4726   19.2178 H   0  0  0  0  0  0
  -27.5410  -21.9315   19.4059 H   0  0  0  0  0  0
  -28.6920  -25.3237   23.0997 H   0  0  0  0  0  0
  -27.2402  -26.1200   22.5229 H   0  0  0  0  0  0
  -28.7414  -27.0295   22.7173 H   0  0  0  0  0  0
  -28.0505  -17.3402   19.9669 H   0  0  0  0  0  0
  -28.1094  -17.2386   21.7128 H   0  0  0  0  0  0
  -28.5198  -24.1777   19.4621 H   0  0  0  0  0  0
  -27.1773  -24.2487   20.5956 H   0  0  0  0  0  0
  -29.8207  -25.7126   20.9426 H   0  0  0  0  0  0
  -29.4866  -23.6529   22.1171 H   0  0  0  0  0  0
  -28.9024  -15.1760   21.0832 H   0  0  0  0  0  0
  1 25  1  0  0  0
  1 30  2  0  0  0
  1 83  1  0  0  0
  2  3  1  0  0  0
  2 25  1  0  0  0
  2 87  1  0  0  0
  2 88  1  0  0  0
  3  4  1  0  0  0
  3 89  1  0  0  0
  3 90  1  0  0  0
  4  5  1  0  0  0
  4 91  1  0  0  0
  4 92  1  0  0  0
  5  6  1  0  0  0
  5 26  1  0  0  0
  5 93  1  0  0  0
  6 25  1  0  0  0
  6 94  1  0  0  0
  6 95  1  0  0  0
  7  8  2  0  0  0
  7 26  1  0  0  0
  7 29  1  0  0  0
  8  9  1  0  0  0
  8 22  1  0  0  0
  9 10  1  0  0  0
  9 27  2  0  0  0
 10 11  2  0  0  0
 10 15  1  0  0  0
 11 12  1  0  0  0
 11 96  1  0  0  0
 12 13  2  0  0  0
 12 97  1  0  0  0
 13 14  1  0  0  0
 13 31  1  0  0  0
 14 15  2  0  0  0
 14 98  1  0  0  0
 15 99  1  0  0  0
 16 17  2  0  0  0
 16 21  1  0  0  0
 16 31  1  0  0  0
 17 18  1  0  0  0
 17100  1  0  0  0
 18 19  2  0  0  0
 18101  1  0  0  0
 19 20  1  0  0  0
 19 24  1  0  0  0
 20 21  2  0  0  0
 20102  1  0  0  0
 21 23  1  0  0  0
 22 28  1  0  0  0
 22 32  2  0  0  0
 26 27  1  0  0  0
 28103  1  0  0  0
 28104  1  0  0  0
 29105  1  0  0  0
 29106  1  0  0  0
 33 34  1  0  0  0
 33 66  1  0  0  0
 33 70  2  0  0  0
 34 36  1  0  0  0
 34 59  1  0  0  0
 34107  1  0  0  0
 35 44  2  0  0  0
 35 45  1  0  0  0
 35 68  1  0  0  0
 36 56  1  0  0  0
 36108  1  0  0  0
 37 39  1  0  0  0
 37 47  1  0  0  0
 37 66  1  0  0  0
 37109  1  0  0  0
 38 43  2  0  0  0
 38 46  1  0  0  0
 38 47  1  0  0  0
 39 64  1  0  0  0
 39 67  2  0  0  0
 40 52  1  0  0  0
 40 53  2  0  0  0
 40 58  1  0  0  0
 41110  1  0  0  0
 41111  1  0  0  0
 41112  1  0  0  0
 41 48  1  0  0  0
 42 43  1  0  0  0
 42 66  1  0  0  0
 42113  1  0  0  0
 42114  1  0  0  0
 43 44  1  0  0  0
 44115  1  0  0  0
 45 46  2  0  0  0
 45116  1  0  0  0
 46117  1  0  0  0
 47118  1  0  0  0
 47119  1  0  0  0
 48 56  1  0  0  0
 48 65  1  0  0  0
 48120  1  0  0  0
 49 50  1  0  0  0
 49 53  1  0  0  0
 49 64  1  0  0  0
 49121  1  0  0  0
 50 51  1  0  0  0
 50122  1  0  0  0
 50123  1  0  0  0
 51 52  1  0  0  0
 51124  1  0  0  0
 51125  1  0  0  0
 52126  1  0  0  0
 52127  1  0  0  0
 53 54  1  0  0  0
 54 55  2  0  0  0
 54128  1  0  0  0
 55 57  1  0  0  0
 55129  1  0  0  0
 56 69  2  0  0  0
 57 58  2  0  0  0
 57130  1  0  0  0
 58131  1  0  0  0
 59 60  1  0  0  0
 59 61  1  0  0  0
 59 62  1  0  0  0
 60132  1  0  0  0
 60133  1  0  0  0
 60134  1  0  0  0
 61135  1  0  0  0
 61136  1  0  0  0
 61137  1  0  0  0
 62138  1  0  0  0
 62139  1  0  0  0
 62140  1  0  0  0
 63 65  1  0  0  0
 63141  1  0  0  0
 63142  1  0  0  0
 63143  1  0  0  0
 64144  1  0  0  0
 65145  1  0  0  0
 68 81  1  0  0  0
 71 72  2  0  0  0
 71 73  1  0  0  0
 71146  1  0  0  0
 72 74  1  0  0  0
 72147  1  0  0  0
 73 75  2  0  0  0
 73 79  1  0  0  0
 74 76  2  0  0  0
 74 82  1  0  0  0
 75 76  1  0  0  0
 75 85  1  0  0  0
 76 86  1  0  0  0
 77 79  1  0  0  0
 77 83  1  0  0  0
 77 84  2  0  0  0
 78148  1  0  0  0
 78149  1  0  0  0
 78150  1  0  0  0
 78 81  1  0  0  0
 79151  1  0  0  0
 79152  1  0  0  0
 80 81  1  0  0  0
 80 82  1  0  0  0
 80153  1  0  0  0
 80154  1  0  0  0
 81155  1  0  0  0
 82156  1  0  0  0
 83157  1  0  0  0
M  ISO  4   1 100  68 101  81 101  83 100
M  END
> <chiral flag>
0

> <version>
0

> <s_m_source_file>
/data/baiqing/PycharmProjects/Reinvent-master-3.2/result/LINK_invent/BTK/process_docking_weight1_custom_product_contain_oxygen_bond_distance_aromatic_linkinvent_7_9_3/rearranged_h_0165.sdf

> <i_m_source_file_index>
93

> <r_mmod_Potential_Energy-OPLS-2005>
-66.7165908813477

> <r_mmod_Stretch_Energy-OPLS-2005>
33.7752456665039

> <r_mmod_Bend_Energy-OPLS-2005>
121.944564819336

> <r_mmod_Torsional_Energy-OPLS-2005>
223.821838378906

> <r_mmod_Improper_Torsional_Energy-OPLS-2005>
7.51138257980347

> <r_mmod_Van_der_Waal_Energy-OPLS-2005>
154.449768066406

> <r_mmod_Electrostatic_Energy-OPLS-2005>
-391.253448486328

> <r_mmod_Solvation_Energy-OPLS-2005>
-230.527786254883

> <b_mmod_Minimization_Converged-OPLS-2005>
0

> <r_mmod_RMS_Derivative-OPLS-2005>
3.34773421287537

$$$$
94
                    3D
 Structure written by MMmdl.
154162  0  0  1  0            999 V2000
  -30.5974  -14.7236   20.4752 C   0  0  0  0  0  0
  -30.4329  -12.4471   19.4598 C   0  0  0  0  0  0
  -29.5066  -12.5112   18.2251 C   0  0  0  0  0  0
  -28.0312  -12.3342   18.6380 C   0  0  0  0  0  0
  -27.6391  -13.2261   19.8464 C   0  0  2  0  0  0
  -28.6829  -13.1418   20.9806 C   0  0  0  0  0  0
  -25.2509  -13.8197   20.5669 C   0  0  0  0  0  0
  -24.1807  -13.0444   20.9225 C   0  0  0  0  0  0
  -24.6389  -11.6919   20.8757 C   0  0  0  0  0  0
  -23.9069  -10.4294   21.0420 C   0  0  0  0  0  0
  -24.3620   -9.4202   21.9192 C   0  0  0  0  0  0
  -23.6297   -8.2233   22.0756 C   0  0  0  0  0  0
  -22.4280   -8.0275   21.3549 C   0  0  0  0  0  0
  -21.9918   -9.0244   20.4649 C   0  0  0  0  0  0
  -22.7245  -10.2121   20.3063 C   0  0  0  0  0  0
  -21.6853   -6.0735   22.5280 C   0  0  0  0  0  0
  -21.4009   -6.5642   23.8215 C   0  0  0  0  0  0
  -21.3662   -5.6791   24.9176 C   0  0  0  0  0  0
  -21.6040   -4.3049   24.7221 C   0  0  0  0  0  0
  -21.8821   -3.8146   23.4346 C   0  0  0  0  0  0
  -21.9192   -4.6965   22.3404 C   0  0  0  0  0  0
  -22.7832  -13.5224   21.1897 C   0  0  0  0  0  0
  -22.1666   -4.2154   21.0981 F   0  0  0  0  0  0
  -21.5630   -3.4536   25.7735 F   0  0  0  0  0  0
  -29.9830  -13.4971   20.3992 N   0  0  0  0  0  0
  -26.2918  -12.9385   20.3234 N   0  0  0  0  0  0
  -25.9306  -11.6536   20.5720 N   0  0  0  0  0  0
  -22.0475  -12.8198   22.0440 N   0  0  0  0  0  0
  -25.4164  -15.1927   20.4046 N   0  0  0  0  0  0
  -31.7910  -14.8348   20.1779 O   0  0  0  0  0  0
  -21.6643   -6.8875   21.4245 O   0  0  0  0  0  0
  -22.3515  -14.5533   20.6753 O   0  0  0  0  0  0
  -24.6292  -31.8564   23.1974 C   0  0  0  0  0  0
  -25.9131  -32.4760   23.8320 C   0  0  1  0  0  0
  -27.2208  -27.2795   20.1385 C   0  0  0  0  0  0
  -25.5942  -33.8560   24.2261 N   0  0  0  0  0  0
  -23.4253  -30.4783   21.5408 C   0  0  2  0  0  0
  -24.8739  -28.9227   20.1123 C   0  0  0  0  0  0
  -22.7496  -29.4613   22.4923 C   0  0  0  0  0  0
  -18.0291  -28.1391   22.8498 C   0  0  0  0  0  0
  -24.1490  -36.7271   23.2646 C   0  0  0  0  0  0
  -25.9686  -30.7766   21.3725 C   0  0  0  0  0  0
  -26.0440  -29.3987   20.7193 C   0  0  0  0  0  0
  -27.2247  -28.5912   20.7165 C   0  0  0  0  0  0
  -26.0314  -26.8607   19.5081 C   0  0  0  0  0  0
  -24.8716  -27.6616   19.4938 C   0  0  0  0  0  0
  -23.6418  -29.8068   20.1582 C   0  0  0  0  0  0
  -25.4115  -36.3068   24.0336 C   0  0  1  0  0  0
  -20.5894  -28.3693   23.1283 C   0  0  2  0  0  0
  -20.6781  -26.9414   22.5409 C   0  0  0  0  0  0
  -19.5751  -26.6380   21.5222 C   0  0  0  0  0  0
  -18.1930  -26.7939   22.1621 C   0  0  0  0  0  0
  -19.1546  -28.8858   23.2885 C   0  0  0  0  0  0
  -18.9468  -30.1463   23.8889 C   0  0  0  0  0  0
  -17.6470  -30.6594   24.0560 C   0  0  0  0  0  0
  -25.9055  -34.9446   23.5094 C   0  0  0  0  0  0
  -16.5359  -29.9089   23.6340 C   0  0  0  0  0  0
  -16.7277  -28.6506   23.0360 C   0  0  0  0  0  0
  -26.4502  -31.6580   25.0702 C   0  0  0  0  0  0
  -25.3725  -31.3718   26.1421 C   0  0  0  0  0  0
  -27.0372  -30.3013   24.6166 C   0  0  0  0  0  0
  -27.6050  -32.4323   25.7486 C   0  0  0  0  0  0
  -27.5579  -37.1785   24.8468 C   0  0  0  0  0  0
  -21.4205  -29.3045   22.3677 N   0  0  0  0  0  0
  -26.4286  -37.3769   23.9425 N   0  0  0  0  0  0
  -24.6939  -31.0549   22.0935 N   0  0  0  0  0  0
  -23.4209  -28.8154   23.3015 O   0  0  0  0  0  0
  -28.3115  -26.3910   20.1520 O   0  0  0  0  0  0
  -26.5619  -34.8924   22.4659 O   0  0  0  0  0  0
  -23.5448  -32.1381   23.7282 O   0  0  0  0  0  0
  -31.5988  -18.9381   21.8172 C   0  0  0  0  0  0
  -31.2573  -17.6073   21.5223 C   0  0  0  0  0  0
  -30.8042  -20.0155   21.3871 C   0  0  0  0  0  0
  -29.2678  -18.4211   20.3408 C   0  0  0  0  0  0
  -30.0968  -17.2867   20.7860 C   0  0  0  0  0  0
  -29.6256  -19.8209   20.6344 C   0  0  0  0  0  0
  -28.0098  -18.1714   19.5789 C   0  0  0  0  0  0
  -28.6461  -23.7299   20.0653 C   0  0  0  0  0  0
  -28.8500  -22.3659   20.8881 C   0  0  0  0  0  0
  -28.0943  -25.0494   20.7867 C   0  0  0  0  0  0
  -27.7272  -17.1314   18.9102 N   0  0  0  0  0  0
  -29.7819  -15.8366   20.6313 N   0  0  0  0  0  0
  -28.9225  -21.0154   20.1805 N   0  0  0  0  0  0
  -28.9046  -23.7493   18.8575 O   0  0  0  0  0  0
  -31.4733  -12.5821   19.1587 H   0  0  0  0  0  0
  -30.3815  -11.4648   19.9320 H   0  0  0  0  0  0
  -29.7895  -11.7452   17.5016 H   0  0  0  0  0  0
  -29.6323  -13.4707   17.7188 H   0  0  0  0  0  0
  -27.8824  -11.2834   18.8896 H   0  0  0  0  0  0
  -27.3756  -12.5373   17.7903 H   0  0  0  0  0  0
  -27.6341  -14.2497   19.4727 H   0  0  0  0  0  0
  -28.7166  -12.1378   21.4054 H   0  0  0  0  0  0
  -28.4185  -13.8121   21.8001 H   0  0  0  0  0  0
  -25.2765   -9.5679   22.4767 H   0  0  0  0  0  0
  -24.0011   -7.4619   22.7469 H   0  0  0  0  0  0
  -21.0853   -8.8753   19.8949 H   0  0  0  0  0  0
  -22.3709  -10.9654   19.6165 H   0  0  0  0  0  0
  -21.1999   -7.6151   23.9720 H   0  0  0  0  0  0
  -21.1487   -6.0521   25.9078 H   0  0  0  0  0  0
  -22.0600   -2.7610   23.2835 H   0  0  0  0  0  0
  -22.4079  -11.9827   22.4772 H   0  0  0  0  0  0
  -21.1095  -13.1216   22.2665 H   0  0  0  0  0  0
  -24.6304  -15.8264   20.4974 H   0  0  0  0  0  0
  -26.2172  -15.6350   19.9637 H   0  0  0  0  0  0
  -26.7202  -32.5416   23.1068 H   0  0  0  0  0  0
  -25.0108  -33.9701   25.0420 H   0  0  0  0  0  0
  -22.7209  -31.2998   21.3935 H   0  0  0  0  0  0
  -23.3776  -35.9577   23.3280 H   0  0  0  0  0  0
  -24.3595  -36.8919   22.2067 H   0  0  0  0  0  0
  -23.7214  -37.6452   23.6682 H   0  0  0  0  0  0
  -26.1020  -31.5360   20.6006 H   0  0  0  0  0  0
  -26.8489  -30.8285   22.0022 H   0  0  0  0  0  0
  -28.1248  -28.9531   21.1938 H   0  0  0  0  0  0
  -25.9943  -25.8895   19.0346 H   0  0  0  0  0  0
  -23.9769  -27.2916   19.0119 H   0  0  0  0  0  0
  -23.7617  -30.5803   19.3989 H   0  0  0  0  0  0
  -22.7616  -29.2356   19.8566 H   0  0  0  0  0  0
  -25.1296  -36.1894   25.0826 H   0  0  0  0  0  0
  -20.9985  -28.3256   24.1401 H   0  0  0  0  0  0
  -20.5691  -26.2303   23.3615 H   0  0  0  0  0  0
  -21.6646  -26.7443   22.1186 H   0  0  0  0  0  0
  -19.6907  -25.6286   21.1251 H   0  0  0  0  0  0
  -19.6686  -27.3196   20.6758 H   0  0  0  0  0  0
  -17.4204  -26.6721   21.4014 H   0  0  0  0  0  0
  -18.0299  -26.0079   22.9004 H   0  0  0  0  0  0
  -19.7947  -30.7289   24.2242 H   0  0  0  0  0  0
  -17.5027  -31.6281   24.5154 H   0  0  0  0  0  0
  -15.5357  -30.2983   23.7690 H   0  0  0  0  0  0
  -15.8680  -28.0824   22.7070 H   0  0  0  0  0  0
  -24.5901  -30.7074   25.7733 H   0  0  0  0  0  0
  -24.8916  -32.2888   26.4841 H   0  0  0  0  0  0
  -25.8036  -30.8884   27.0198 H   0  0  0  0  0  0
  -26.2959  -29.6740   24.1203 H   0  0  0  0  0  0
  -27.4114  -29.7279   25.4656 H   0  0  0  0  0  0
  -27.8802  -30.4324   23.9378 H   0  0  0  0  0  0
  -27.2656  -33.3643   26.2023 H   0  0  0  0  0  0
  -28.3894  -32.6850   25.0336 H   0  0  0  0  0  0
  -28.0692  -31.8474   26.5440 H   0  0  0  0  0  0
  -28.2555  -38.0117   24.7551 H   0  0  0  0  0  0
  -28.1111  -36.2649   24.6235 H   0  0  0  0  0  0
  -27.2312  -37.1354   25.8873 H   0  0  0  0  0  0
  -20.9388  -29.8768   21.6888 H   0  0  0  0  0  0
  -26.0155  -38.2835   24.1439 H   0  0  0  0  0  0
  -32.4939  -19.1381   22.3890 H   0  0  0  0  0  0
  -31.8963  -16.8224   21.9034 H   0  0  0  0  0  0
  -31.1504  -21.0078   21.6320 H   0  0  0  0  0  0
  -27.2690  -18.9744   19.6164 H   0  0  0  0  0  0
  -28.0192  -22.3101   21.5930 H   0  0  0  0  0  0
  -29.7322  -22.5155   21.5078 H   0  0  0  0  0  0
  -28.5450  -25.0853   21.7784 H   0  0  0  0  0  0
  -27.0290  -24.8951   20.9601 H   0  0  0  0  0  0
  -28.5035  -16.4808   18.9120 H   0  0  0  0  0  0
  -28.7999  -15.6103   20.6707 H   0  0  0  0  0  0
  -28.1881  -20.8854   19.4901 H   0  0  0  0  0  0
  1 25  1  0  0  0
  1 30  2  0  0  0
  1 82  1  0  0  0
  2  3  1  0  0  0
  2 25  1  0  0  0
  2 85  1  0  0  0
  2 86  1  0  0  0
  3  4  1  0  0  0
  3 87  1  0  0  0
  3 88  1  0  0  0
  4  5  1  0  0  0
  4 89  1  0  0  0
  4 90  1  0  0  0
  5  6  1  0  0  0
  5 26  1  0  0  0
  5 91  1  0  0  0
  6 25  1  0  0  0
  6 92  1  0  0  0
  6 93  1  0  0  0
  7  8  2  0  0  0
  7 26  1  0  0  0
  7 29  1  0  0  0
  8  9  1  0  0  0
  8 22  1  0  0  0
  9 10  1  0  0  0
  9 27  2  0  0  0
 10 11  2  0  0  0
 10 15  1  0  0  0
 11 12  1  0  0  0
 11 94  1  0  0  0
 12 13  2  0  0  0
 12 95  1  0  0  0
 13 14  1  0  0  0
 13 31  1  0  0  0
 14 15  2  0  0  0
 14 96  1  0  0  0
 15 97  1  0  0  0
 16 17  2  0  0  0
 16 21  1  0  0  0
 16 31  1  0  0  0
 17 18  1  0  0  0
 17 98  1  0  0  0
 18 19  2  0  0  0
 18 99  1  0  0  0
 19 20  1  0  0  0
 19 24  1  0  0  0
 20 21  2  0  0  0
 20100  1  0  0  0
 21 23  1  0  0  0
 22 28  1  0  0  0
 22 32  2  0  0  0
 26 27  1  0  0  0
 28101  1  0  0  0
 28102  1  0  0  0
 29103  1  0  0  0
 29104  1  0  0  0
 33 34  1  0  0  0
 33 66  1  0  0  0
 33 70  2  0  0  0
 34 36  1  0  0  0
 34 59  1  0  0  0
 34105  1  0  0  0
 35 44  2  0  0  0
 35 45  1  0  0  0
 35 68  1  0  0  0
 36 56  1  0  0  0
 36106  1  0  0  0
 37 39  1  0  0  0
 37 47  1  0  0  0
 37 66  1  0  0  0
 37107  1  0  0  0
 38 43  2  0  0  0
 38 46  1  0  0  0
 38 47  1  0  0  0
 39 64  1  0  0  0
 39 67  2  0  0  0
 40 52  1  0  0  0
 40 53  2  0  0  0
 40 58  1  0  0  0
 41108  1  0  0  0
 41109  1  0  0  0
 41110  1  0  0  0
 41 48  1  0  0  0
 42 43  1  0  0  0
 42 66  1  0  0  0
 42111  1  0  0  0
 42112  1  0  0  0
 43 44  1  0  0  0
 44113  1  0  0  0
 45 46  2  0  0  0
 45114  1  0  0  0
 46115  1  0  0  0
 47116  1  0  0  0
 47117  1  0  0  0
 48 56  1  0  0  0
 48 65  1  0  0  0
 48118  1  0  0  0
 49 50  1  0  0  0
 49 53  1  0  0  0
 49 64  1  0  0  0
 49119  1  0  0  0
 50 51  1  0  0  0
 50120  1  0  0  0
 50121  1  0  0  0
 51 52  1  0  0  0
 51122  1  0  0  0
 51123  1  0  0  0
 52124  1  0  0  0
 52125  1  0  0  0
 53 54  1  0  0  0
 54 55  2  0  0  0
 54126  1  0  0  0
 55 57  1  0  0  0
 55127  1  0  0  0
 56 69  2  0  0  0
 57 58  2  0  0  0
 57128  1  0  0  0
 58129  1  0  0  0
 59 60  1  0  0  0
 59 61  1  0  0  0
 59 62  1  0  0  0
 60130  1  0  0  0
 60131  1  0  0  0
 60132  1  0  0  0
 61133  1  0  0  0
 61134  1  0  0  0
 61135  1  0  0  0
 62136  1  0  0  0
 62137  1  0  0  0
 62138  1  0  0  0
 63 65  1  0  0  0
 63139  1  0  0  0
 63140  1  0  0  0
 63141  1  0  0  0
 64142  1  0  0  0
 65143  1  0  0  0
 68 80  1  0  0  0
 71 72  2  0  0  0
 71 73  1  0  0  0
 71144  1  0  0  0
 72 75  1  0  0  0
 72145  1  0  0  0
 73 76  2  0  0  0
 73146  1  0  0  0
 74 75  2  0  0  0
 74 76  1  0  0  0
 74 77  1  0  0  0
 75 82  1  0  0  0
 76 83  1  0  0  0
 77 81  2  0  0  0
 77147  1  0  0  0
 78 79  1  0  0  0
 78 80  1  0  0  0
 78 84  2  0  0  0
 79 83  1  0  0  0
 79148  1  0  0  0
 79149  1  0  0  0
 80150  1  0  0  0
 80151  1  0  0  0
 81152  1  0  0  0
 82153  1  0  0  0
 83154  1  0  0  0
M  ISO  4   1 100  68 101  80 101  82 100
M  END
> <chiral flag>
0

> <version>
0

> <s_m_source_file>
/data/baiqing/PycharmProjects/Reinvent-master-3.2/result/LINK_invent/BTK/process_docking_weight1_custom_product_contain_oxygen_bond_distance_aromatic_linkinvent_7_9_3/rearranged_h_0165.sdf

> <i_m_source_file_index>
94

> <r_mmod_Potential_Energy-OPLS-2005>
303.829803466797

> <r_mmod_Stretch_Energy-OPLS-2005>
127.617782592773

> <r_mmod_Bend_Energy-OPLS-2005>
162.085296630859

> <r_mmod_Torsional_Energy-OPLS-2005>
242.329559326172

> <r_mmod_Improper_Torsional_Energy-OPLS-2005>
7.86084461212158

> <r_mmod_Van_der_Waal_Energy-OPLS-2005>
139.151138305664

> <r_mmod_Electrostatic_Energy-OPLS-2005>
-205.071304321289

> <r_mmod_Solvation_Energy-OPLS-2005>
-246.431381225586

> <b_mmod_Minimization_Converged-OPLS-2005>
0

> <r_mmod_RMS_Derivative-OPLS-2005>
1.5749808549881

$$$$
95
                    3D
 Structure written by MMmdl.
154162  0  0  1  0            999 V2000
  -30.7654  -14.3849   20.7264 C   0  0  0  0  0  0
  -30.4284  -12.3187   19.3971 C   0  0  0  0  0  0
  -29.4751  -12.5443   18.2055 C   0  0  0  0  0  0
  -28.0043  -12.3928   18.6297 C   0  0  0  0  0  0
  -27.6672  -13.2065   19.9032 C   0  0  2  0  0  0
  -28.7145  -12.9390   21.0099 C   0  0  0  0  0  0
  -25.2548  -13.8215   20.5821 C   0  0  0  0  0  0
  -24.1784  -13.0457   20.9215 C   0  0  0  0  0  0
  -24.6363  -11.6919   20.8842 C   0  0  0  0  0  0
  -23.9046  -10.4288   21.0494 C   0  0  0  0  0  0
  -24.3599   -9.4159   21.9242 C   0  0  0  0  0  0
  -23.6248   -8.2198   22.0803 C   0  0  0  0  0  0
  -22.4235   -8.0274   21.3567 C   0  0  0  0  0  0
  -21.9895   -9.0265   20.4674 C   0  0  0  0  0  0
  -22.7251  -10.2118   20.3098 C   0  0  0  0  0  0
  -21.6811   -6.0753   22.5282 C   0  0  0  0  0  0
  -21.3985   -6.5653   23.8217 C   0  0  0  0  0  0
  -21.3656   -5.6790   24.9164 C   0  0  0  0  0  0
  -21.6028   -4.3056   24.7221 C   0  0  0  0  0  0
  -21.8800   -3.8159   23.4344 C   0  0  0  0  0  0
  -21.9164   -4.6982   22.3406 C   0  0  0  0  0  0
  -22.7797  -13.5313   21.1820 C   0  0  0  0  0  0
  -22.1658   -4.2181   21.0985 F   0  0  0  0  0  0
  -21.5621   -3.4534   25.7741 F   0  0  0  0  0  0
  -30.0668  -13.2356   20.4937 N   0  0  0  0  0  0
  -26.3032  -12.9375   20.3593 N   0  0  0  0  0  0
  -25.9308  -11.6525   20.5989 N   0  0  0  0  0  0
  -22.0327  -12.8408   22.0369 N   0  0  0  0  0  0
  -25.4122  -15.1978   20.4351 N   0  0  0  0  0  0
  -31.7001  -14.7581   20.0097 O   0  0  0  0  0  0
  -21.6575   -6.8891   21.4247 O   0  0  0  0  0  0
  -22.3571  -14.5626   20.6602 O   0  0  0  0  0  0
  -24.6117  -31.8643   23.1942 C   0  0  0  0  0  0
  -25.9007  -32.4794   23.8286 C   0  0  1  0  0  0
  -27.2993  -27.4333   20.1481 C   0  0  0  0  0  0
  -25.5848  -33.8579   24.2206 N   0  0  0  0  0  0
  -23.4043  -30.4687   21.5288 C   0  0  2  0  0  0
  -24.8716  -28.9104   20.1314 C   0  0  0  0  0  0
  -22.7417  -29.4647   22.5004 C   0  0  0  0  0  0
  -18.0241  -28.1292   22.8520 C   0  0  0  0  0  0
  -24.1482  -36.7313   23.2635 C   0  0  0  0  0  0
  -25.9262  -30.8387   21.3409 C   0  0  0  0  0  0
  -26.0198  -29.4608   20.7118 C   0  0  0  0  0  0
  -27.2260  -28.7282   20.7184 C   0  0  0  0  0  0
  -26.1314  -26.8994   19.5553 C   0  0  0  0  0  0
  -24.9205  -27.6239   19.5587 C   0  0  0  0  0  0
  -23.6237  -29.7590   20.1611 C   0  0  0  0  0  0
  -25.4111  -36.3063   24.0298 C   0  0  1  0  0  0
  -20.5859  -28.3603   23.1340 C   0  0  2  0  0  0
  -20.6693  -26.9348   22.5418 C   0  0  0  0  0  0
  -19.5679  -26.6362   21.5197 C   0  0  0  0  0  0
  -18.1891  -26.7801   22.1641 C   0  0  0  0  0  0
  -19.1486  -28.8760   23.2907 C   0  0  0  0  0  0
  -18.9415  -30.1381   23.8907 C   0  0  0  0  0  0
  -17.6407  -30.6568   24.0452 C   0  0  0  0  0  0
  -25.9067  -34.9446   23.5075 C   0  0  0  0  0  0
  -16.5326  -29.9050   23.6251 C   0  0  0  0  0  0
  -16.7250  -28.6418   23.0347 C   0  0  0  0  0  0
  -26.4416  -31.6611   25.0664 C   0  0  0  0  0  0
  -25.3662  -31.3798   26.1407 C   0  0  0  0  0  0
  -27.0279  -30.3027   24.6102 C   0  0  0  0  0  0
  -27.5941  -32.4380   25.7470 C   0  0  0  0  0  0
  -27.5557  -37.1829   24.8468 C   0  0  0  0  0  0
  -21.4155  -29.2983   22.3766 N   0  0  0  0  0  0
  -26.4283  -37.3755   23.9395 N   0  0  0  0  0  0
  -24.6613  -31.0817   22.0767 N   0  0  0  0  0  0
  -23.4200  -28.8281   23.3121 O   0  0  0  0  0  0
  -28.5057  -26.7612   20.2535 O   0  0  0  0  0  0
  -26.5684  -34.8937   22.4675 O   0  0  0  0  0  0
  -23.5311  -32.1305   23.7407 O   0  0  0  0  0  0
  -30.0175  -17.3673   21.3229 C   0  0  0  0  0  0
  -30.5176  -19.1594   22.9027 C   0  0  0  0  0  0
  -31.0752  -16.8222   23.4415 C   0  0  0  0  0  0
  -29.9462  -18.7492   21.6702 C   0  0  0  0  0  0
  -30.5631  -16.3955   22.1981 C   0  0  0  0  0  0
  -31.0769  -18.1982   23.7765 C   0  0  0  0  0  0
  -28.4325  -21.8204   19.9226 C   0  0  0  0  0  0
  -29.1490  -19.6790   20.7626 C   0  0  0  0  0  0
  -28.9450  -24.2712   20.2875 C   0  0  0  0  0  0
  -28.8434  -25.5958   19.4744 C   0  0  0  0  0  0
  -30.4886  -14.9943   21.8964 N   0  0  0  0  0  0
  -28.3336  -23.1499   19.6422 N   0  0  0  0  0  0
  -29.2359  -21.1253   20.7859 N   0  3  0  0  0  0
  -28.3956  -19.1617   19.9274 O   0  0  0  0  0  0
  -29.5497  -24.1465   21.3614 O   0  0  0  0  0  0
  -31.5841  -18.5880   24.9718 F   0  0  0  0  0  0
  -31.4614  -12.4589   19.0734 H   0  0  0  0  0  0
  -30.3721  -11.2865   19.7466 H   0  0  0  0  0  0
  -29.6974  -11.8389   17.4026 H   0  0  0  0  0  0
  -29.6277  -13.5422   17.7948 H   0  0  0  0  0  0
  -27.8045  -11.3362   18.8026 H   0  0  0  0  0  0
  -27.3392  -12.6859   17.8163 H   0  0  0  0  0  0
  -27.7173  -14.2638   19.6440 H   0  0  0  0  0  0
  -28.6727  -11.8927   21.3131 H   0  0  0  0  0  0
  -28.4625  -13.5114   21.9025 H   0  0  0  0  0  0
  -25.2762   -9.5534   22.4802 H   0  0  0  0  0  0
  -23.9889   -7.4579   22.7549 H   0  0  0  0  0  0
  -21.0796   -8.8817   19.9006 H   0  0  0  0  0  0
  -22.3793  -10.9636   19.6169 H   0  0  0  0  0  0
  -21.1984   -7.6157   23.9766 H   0  0  0  0  0  0
  -21.1492   -6.0497   25.9076 H   0  0  0  0  0  0
  -22.0573   -2.7625   23.2819 H   0  0  0  0  0  0
  -22.3867  -12.0180   22.4993 H   0  0  0  0  0  0
  -21.0876  -13.1426   22.2332 H   0  0  0  0  0  0
  -24.6314  -15.8294   20.5811 H   0  0  0  0  0  0
  -26.2755  -15.6723   20.2031 H   0  0  0  0  0  0
  -26.7123  -32.5548   23.1097 H   0  0  0  0  0  0
  -25.0033  -33.9706   25.0367 H   0  0  0  0  0  0
  -22.6808  -31.2690   21.3572 H   0  0  0  0  0  0
  -23.3696  -35.9692   23.3306 H   0  0  0  0  0  0
  -24.3560  -36.8960   22.2053 H   0  0  0  0  0  0
  -23.7314  -37.6536   23.6688 H   0  0  0  0  0  0
  -26.0461  -31.5918   20.5593 H   0  0  0  0  0  0
  -26.8094  -30.9074   21.9649 H   0  0  0  0  0  0
  -28.1105  -29.1567   21.1706 H   0  0  0  0  0  0
  -26.1476  -25.9034   19.1343 H   0  0  0  0  0  0
  -24.0234  -27.1763   19.1491 H   0  0  0  0  0  0
  -23.7389  -30.5007   19.3731 H   0  0  0  0  0  0
  -22.7628  -29.1507   19.8760 H   0  0  0  0  0  0
  -25.1298  -36.1861   25.0783 H   0  0  0  0  0  0
  -20.9955  -28.3152   24.1471 H   0  0  0  0  0  0
  -20.5379  -26.2289   23.3651 H   0  0  0  0  0  0
  -21.6603  -26.7245   22.1317 H   0  0  0  0  0  0
  -19.6855  -25.6302   21.1108 H   0  0  0  0  0  0
  -19.6507  -27.3224   20.6768 H   0  0  0  0  0  0
  -17.4104  -26.6426   21.4104 H   0  0  0  0  0  0
  -18.0371  -25.9846   22.8979 H   0  0  0  0  0  0
  -19.7827  -30.7182   24.2392 H   0  0  0  0  0  0
  -17.4963  -31.6263   24.4970 H   0  0  0  0  0  0
  -15.5327  -30.2968   23.7588 H   0  0  0  0  0  0
  -15.8632  -28.0740   22.7101 H   0  0  0  0  0  0
  -24.5800  -30.7159   25.7781 H   0  0  0  0  0  0
  -24.8897  -32.3019   26.4748 H   0  0  0  0  0  0
  -25.7994  -30.9059   27.0218 H   0  0  0  0  0  0
  -26.2862  -29.6782   24.1094 H   0  0  0  0  0  0
  -27.3961  -29.7249   25.4599 H   0  0  0  0  0  0
  -27.8709  -30.4288   23.9288 H   0  0  0  0  0  0
  -27.2448  -33.3648   26.1993 H   0  0  0  0  0  0
  -28.3779  -32.7005   25.0370 H   0  0  0  0  0  0
  -28.0538  -31.8571   26.5453 H   0  0  0  0  0  0
  -28.2601  -38.0095   24.7454 H   0  0  0  0  0  0
  -28.1023  -36.2641   24.6336 H   0  0  0  0  0  0
  -27.2306  -37.1534   25.8881 H   0  0  0  0  0  0
  -20.9317  -29.8615   21.6926 H   0  0  0  0  0  0
  -26.0136  -38.2828   24.1338 H   0  0  0  0  0  0
  -29.5900  -17.0308   20.3861 H   0  0  0  0  0  0
  -30.5092  -20.1941   23.2224 H   0  0  0  0  0  0
  -31.4647  -16.1029   24.1487 H   0  0  0  0  0  0
  -27.7477  -21.2500   19.3072 H   0  0  0  0  0  0
  -28.2381  -25.4819   18.5796 H   0  0  0  0  0  0
  -29.8547  -25.7888   19.1158 H   0  0  0  0  0  0
  -30.0541  -14.4077   22.5959 H   0  0  0  0  0  0
  -27.7893  -23.3099   18.8073 H   0  0  0  0  0  0
  -29.8629  -21.6396   21.3861 H   0  0  0  0  0  0
  1 25  1  0  0  0
  1 30  2  0  0  0
  1 81  1  0  0  0
  2  3  1  0  0  0
  2 25  1  0  0  0
  2 87  1  0  0  0
  2 88  1  0  0  0
  3  4  1  0  0  0
  3 89  1  0  0  0
  3 90  1  0  0  0
  4  5  1  0  0  0
  4 91  1  0  0  0
  4 92  1  0  0  0
  5  6  1  0  0  0
  5 26  1  0  0  0
  5 93  1  0  0  0
  6 25  1  0  0  0
  6 94  1  0  0  0
  6 95  1  0  0  0
  7  8  2  0  0  0
  7 26  1  0  0  0
  7 29  1  0  0  0
  8  9  1  0  0  0
  8 22  1  0  0  0
  9 10  1  0  0  0
  9 27  2  0  0  0
 10 11  2  0  0  0
 10 15  1  0  0  0
 11 12  1  0  0  0
 11 96  1  0  0  0
 12 13  2  0  0  0
 12 97  1  0  0  0
 13 14  1  0  0  0
 13 31  1  0  0  0
 14 15  2  0  0  0
 14 98  1  0  0  0
 15 99  1  0  0  0
 16 17  2  0  0  0
 16 21  1  0  0  0
 16 31  1  0  0  0
 17 18  1  0  0  0
 17100  1  0  0  0
 18 19  2  0  0  0
 18101  1  0  0  0
 19 20  1  0  0  0
 19 24  1  0  0  0
 20 21  2  0  0  0
 20102  1  0  0  0
 21 23  1  0  0  0
 22 28  1  0  0  0
 22 32  2  0  0  0
 26 27  1  0  0  0
 28103  1  0  0  0
 28104  1  0  0  0
 29105  1  0  0  0
 29106  1  0  0  0
 33 34  1  0  0  0
 33 66  1  0  0  0
 33 70  2  0  0  0
 34 36  1  0  0  0
 34 59  1  0  0  0
 34107  1  0  0  0
 35 44  2  0  0  0
 35 45  1  0  0  0
 35 68  1  0  0  0
 36 56  1  0  0  0
 36108  1  0  0  0
 37 39  1  0  0  0
 37 47  1  0  0  0
 37 66  1  0  0  0
 37109  1  0  0  0
 38 43  2  0  0  0
 38 46  1  0  0  0
 38 47  1  0  0  0
 39 64  1  0  0  0
 39 67  2  0  0  0
 40 52  1  0  0  0
 40 53  2  0  0  0
 40 58  1  0  0  0
 41110  1  0  0  0
 41111  1  0  0  0
 41112  1  0  0  0
 41 48  1  0  0  0
 42 43  1  0  0  0
 42 66  1  0  0  0
 42113  1  0  0  0
 42114  1  0  0  0
 43 44  1  0  0  0
 44115  1  0  0  0
 45 46  2  0  0  0
 45116  1  0  0  0
 46117  1  0  0  0
 47118  1  0  0  0
 47119  1  0  0  0
 48 56  1  0  0  0
 48 65  1  0  0  0
 48120  1  0  0  0
 49 50  1  0  0  0
 49 53  1  0  0  0
 49 64  1  0  0  0
 49121  1  0  0  0
 50 51  1  0  0  0
 50122  1  0  0  0
 50123  1  0  0  0
 51 52  1  0  0  0
 51124  1  0  0  0
 51125  1  0  0  0
 52126  1  0  0  0
 52127  1  0  0  0
 53 54  1  0  0  0
 54 55  2  0  0  0
 54128  1  0  0  0
 55 57  1  0  0  0
 55129  1  0  0  0
 56 69  2  0  0  0
 57 58  2  0  0  0
 57130  1  0  0  0
 58131  1  0  0  0
 59 60  1  0  0  0
 59 61  1  0  0  0
 59 62  1  0  0  0
 60132  1  0  0  0
 60133  1  0  0  0
 60134  1  0  0  0
 61135  1  0  0  0
 61136  1  0  0  0
 61137  1  0  0  0
 62138  1  0  0  0
 62139  1  0  0  0
 62140  1  0  0  0
 63 65  1  0  0  0
 63141  1  0  0  0
 63142  1  0  0  0
 63143  1  0  0  0
 64144  1  0  0  0
 65145  1  0  0  0
 68 80  1  0  0  0
 71 74  2  0  0  0
 71 75  1  0  0  0
 71146  1  0  0  0
 72 74  1  0  0  0
 72 76  2  0  0  0
 72147  1  0  0  0
 73 75  2  0  0  0
 73 76  1  0  0  0
 73148  1  0  0  0
 74 78  1  0  0  0
 75 81  1  0  0  0
 76 86  1  0  0  0
 77 82  1  0  0  0
 77 83  2  0  0  0
 77149  1  0  0  0
 78 83  1  0  0  0
 78 84  2  0  0  0
 79 80  1  0  0  0
 79 82  1  0  0  0
 79 85  2  0  0  0
 80150  1  0  0  0
 80151  1  0  0  0
 81152  1  0  0  0
 82153  1  0  0  0
 83154  1  0  0  0
M  CHG  1  83   1
M  ISO  4   1 100  68 101  80 101  81 100
M  END
> <chiral flag>
0

> <version>
0

> <s_m_source_file>
/data/baiqing/PycharmProjects/Reinvent-master-3.2/result/LINK_invent/BTK/process_docking_weight1_custom_product_contain_oxygen_bond_distance_aromatic_linkinvent_7_9_3/rearranged_h_0165.sdf

> <i_m_source_file_index>
95

> <r_mmod_Potential_Energy-OPLS-2005>
-341.425506591797

> <r_mmod_Stretch_Energy-OPLS-2005>
48.2388954162598

> <r_mmod_Bend_Energy-OPLS-2005>
155.043655395508

> <r_mmod_Torsional_Energy-OPLS-2005>
241.512359619141

> <r_mmod_Improper_Torsional_Energy-OPLS-2005>
5.37346935272217

> <r_mmod_Van_der_Waal_Energy-OPLS-2005>
149.016479492188

> <r_mmod_Electrostatic_Energy-OPLS-2005>
-430.956481933594

> <r_mmod_Solvation_Energy-OPLS-2005>
-528.965759277344

> <b_mmod_Minimization_Converged-OPLS-2005>
0

> <r_mmod_RMS_Derivative-OPLS-2005>
8.10599422454834

$$$$
96
                    3D
 Structure written by MMmdl.
157165  0  0  1  0            999 V2000
  -30.6088  -14.9373   20.4048 C   0  0  0  0  0  0
  -30.4263  -12.5861   19.4823 C   0  0  0  0  0  0
  -29.5107  -12.5156   18.2419 C   0  0  0  0  0  0
  -28.0439  -12.3178   18.6655 C   0  0  0  0  0  0
  -27.6251  -13.2590   19.8275 C   0  0  2  0  0  0
  -28.6756  -13.3248   20.9559 C   0  0  0  0  0  0
  -25.2469  -13.8254   20.5748 C   0  0  0  0  0  0
  -24.1784  -13.0464   20.9240 C   0  0  0  0  0  0
  -24.6414  -11.6952   20.8756 C   0  0  0  0  0  0
  -23.9103  -10.4309   21.0405 C   0  0  0  0  0  0
  -24.3646   -9.4221   21.9183 C   0  0  0  0  0  0
  -23.6321   -8.2256   22.0748 C   0  0  0  0  0  0
  -22.4295   -8.0294   21.3545 C   0  0  0  0  0  0
  -21.9939   -9.0271   20.4641 C   0  0  0  0  0  0
  -22.7276  -10.2150   20.3056 C   0  0  0  0  0  0
  -21.6861   -6.0740   22.5282 C   0  0  0  0  0  0
  -21.4014   -6.5642   23.8215 C   0  0  0  0  0  0
  -21.3665   -5.6793   24.9181 C   0  0  0  0  0  0
  -21.6048   -4.3055   24.7234 C   0  0  0  0  0  0
  -21.8819   -3.8146   23.4355 C   0  0  0  0  0  0
  -21.9192   -4.6963   22.3406 C   0  0  0  0  0  0
  -22.7799  -13.5222   21.1891 C   0  0  0  0  0  0
  -22.1663   -4.2143   21.0986 F   0  0  0  0  0  0
  -21.5634   -3.4542   25.7750 F   0  0  0  0  0  0
  -29.9407  -13.7166   20.3251 N   0  0  0  0  0  0
  -26.2892  -12.9506   20.3259 N   0  0  0  0  0  0
  -25.9351  -11.6622   20.5749 N   0  0  0  0  0  0
  -22.0462  -12.8183   22.0440 N   0  0  0  0  0  0
  -25.4154  -15.1991   20.4207 N   0  0  0  0  0  0
  -31.8316  -14.8889   20.2317 O   0  0  0  0  0  0
  -21.6652   -6.8896   21.4248 O   0  0  0  0  0  0
  -22.3469  -14.5530   20.6755 O   0  0  0  0  0  0
  -24.6416  -31.8465   23.1890 C   0  0  0  0  0  0
  -25.9195  -32.4718   23.8283 C   0  0  1  0  0  0
  -27.2204  -27.1548   20.1481 C   0  0  0  0  0  0
  -25.5944  -33.8520   24.2210 N   0  0  0  0  0  0
  -23.4466  -30.4666   21.5331 C   0  0  2  0  0  0
  -24.8991  -28.8954   20.1119 C   0  0  0  0  0  0
  -22.7567  -29.4562   22.4838 C   0  0  0  0  0  0
  -18.0316  -28.1405   22.8505 C   0  0  0  0  0  0
  -24.1476  -36.7251   23.2637 C   0  0  0  0  0  0
  -26.0010  -30.7259   21.3880 C   0  0  0  0  0  0
  -26.0779  -29.3380   20.7294 C   0  0  0  0  0  0
  -27.2426  -28.4819   20.7345 C   0  0  0  0  0  0
  -26.0192  -26.8107   19.4956 C   0  0  0  0  0  0
  -24.8805  -27.6420   19.4828 C   0  0  0  0  0  0
  -23.6751  -29.7953   20.1539 C   0  0  0  0  0  0
  -25.4107  -36.3045   24.0326 C   0  0  1  0  0  0
  -20.5926  -28.3739   23.1221 C   0  0  2  0  0  0
  -20.6782  -26.9437   22.5402 C   0  0  0  0  0  0
  -19.5748  -26.6384   21.5217 C   0  0  0  0  0  0
  -18.1941  -26.7953   22.1641 C   0  0  0  0  0  0
  -19.1575  -28.8888   23.2867 C   0  0  0  0  0  0
  -18.9484  -30.1482   23.8896 C   0  0  0  0  0  0
  -17.6475  -30.6595   24.0567 C   0  0  0  0  0  0
  -25.9066  -34.9422   23.5074 C   0  0  0  0  0  0
  -16.5371  -29.9083   23.6341 C   0  0  0  0  0  0
  -16.7301  -28.6500   23.0380 C   0  0  0  0  0  0
  -26.4522  -31.6580   25.0723 C   0  0  0  0  0  0
  -25.3705  -31.3766   26.1418 C   0  0  0  0  0  0
  -27.0395  -30.2975   24.6309 C   0  0  0  0  0  0
  -27.6047  -32.4352   25.7516 C   0  0  0  0  0  0
  -27.5587  -37.1756   24.8458 C   0  0  0  0  0  0
  -21.4261  -29.3060   22.3576 N   0  0  0  0  0  0
  -26.4277  -37.3752   23.9432 N   0  0  0  0  0  0
  -24.7159  -31.0338   22.0918 N   0  0  0  0  0  0
  -23.4221  -28.8111   23.2982 O   0  0  0  0  0  0
  -28.2282  -26.1268   20.1714 O   0  0  0  0  0  0
  -26.5644  -34.8921   22.4652 O   0  0  0  0  0  0
  -23.5530  -32.1349   23.7088 O   0  0  0  0  0  0
  -29.2656  -18.5482   21.2324 C   0  0  0  0  0  0
  -29.5334  -17.1587   21.1665 C   0  0  0  0  0  0
  -29.2962  -19.8409   20.3340 C   0  0  0  0  0  0
  -27.9353  -24.9118   20.9108 C   0  0  0  0  0  0
  -28.1796  -23.5041   20.9653 C   0  0  0  0  0  0
  -28.9173  -22.4038   20.1739 C   0  0  0  0  0  0
  -31.2924  -19.8980   18.7328 C   0  0  0  0  0  0
  -29.4813  -18.0820   18.4051 C   0  0  0  0  0  0
  -30.3499  -16.8623   18.8813 C   0  0  0  0  0  0
  -29.8029  -19.5404   18.9117 C   0  0  1  0  0  0
  -31.7715  -20.1300   17.3056 C   0  0  0  0  0  0
  -28.8899  -21.0553   20.7955 N   0  0  0  0  0  0
  -29.9612  -16.1954   20.1505 N   0  0  0  0  0  0
  -29.4776  -22.6476   19.1083 O   0  0  0  0  0  0
  -32.0846  -19.9945   19.6754 O   0  0  0  0  0  0
  -27.5868  -22.9392   22.0259 O   0  0  0  0  0  0
  -31.4609  -12.7208   19.1610 H   0  0  0  0  0  0
  -30.4044  -11.6478   20.0400 H   0  0  0  0  0  0
  -29.8245  -11.7046   17.5824 H   0  0  0  0  0  0
  -29.6029  -13.4370   17.6640 H   0  0  0  0  0  0
  -27.9286  -11.2771   18.9712 H   0  0  0  0  0  0
  -27.3837  -12.4585   17.8084 H   0  0  0  0  0  0
  -27.5770  -14.2557   19.3869 H   0  0  0  0  0  0
  -28.7667  -12.3704   21.4755 H   0  0  0  0  0  0
  -28.3856  -14.0653   21.7029 H   0  0  0  0  0  0
  -25.2796   -9.5694   22.4756 H   0  0  0  0  0  0
  -24.0029   -7.4644   22.7461 H   0  0  0  0  0  0
  -21.0874   -8.8811   19.8938 H   0  0  0  0  0  0
  -22.3751  -10.9697   19.6162 H   0  0  0  0  0  0
  -21.1999   -7.6150   23.9727 H   0  0  0  0  0  0
  -21.1488   -6.0519   25.9088 H   0  0  0  0  0  0
  -22.0586   -2.7606   23.2864 H   0  0  0  0  0  0
  -22.4087  -11.9853   22.4836 H   0  0  0  0  0  0
  -21.1071  -13.1177   22.2639 H   0  0  0  0  0  0
  -24.6552  -15.8582   20.5473 H   0  0  0  0  0  0
  -26.2770  -15.6412   20.1260 H   0  0  0  0  0  0
  -26.7266  -32.5353   23.1020 H   0  0  0  0  0  0
  -25.0079  -33.9631   25.0350 H   0  0  0  0  0  0
  -22.7497  -31.2922   21.3771 H   0  0  0  0  0  0
  -23.3749  -35.9568   23.3304 H   0  0  0  0  0  0
  -24.3559  -36.8877   22.2049 H   0  0  0  0  0  0
  -23.7217  -37.6447   23.6664 H   0  0  0  0  0  0
  -26.1514  -31.4849   20.6196 H   0  0  0  0  0  0
  -26.8701  -30.7772   22.0321 H   0  0  0  0  0  0
  -28.1412  -28.8140   21.2363 H   0  0  0  0  0  0
  -25.9495  -25.8424   19.0206 H   0  0  0  0  0  0
  -23.9791  -27.2938   18.9987 H   0  0  0  0  0  0
  -23.8101  -30.5698   19.3981 H   0  0  0  0  0  0
  -22.7912  -29.2360   19.8424 H   0  0  0  0  0  0
  -25.1272  -36.1882   25.0812 H   0  0  0  0  0  0
  -21.0045  -28.3348   24.1325 H   0  0  0  0  0  0
  -20.5651  -26.2366   23.3633 H   0  0  0  0  0  0
  -21.6647  -26.7411   22.1204 H   0  0  0  0  0  0
  -19.6897  -25.6283   21.1264 H   0  0  0  0  0  0
  -19.6667  -27.3181   20.6735 H   0  0  0  0  0  0
  -17.4195  -26.6723   21.4057 H   0  0  0  0  0  0
  -18.0340  -26.0086   22.9026 H   0  0  0  0  0  0
  -19.7955  -30.7308   24.2259 H   0  0  0  0  0  0
  -17.5022  -31.6281   24.5158 H   0  0  0  0  0  0
  -15.5373  -30.2968   23.7647 H   0  0  0  0  0  0
  -15.8720  -28.0789   22.7099 H   0  0  0  0  0  0
  -24.5913  -30.7077   25.7737 H   0  0  0  0  0  0
  -24.8866  -32.2948   26.4757 H   0  0  0  0  0  0
  -25.8002  -30.9016   27.0247 H   0  0  0  0  0  0
  -26.3027  -29.6698   24.1284 H   0  0  0  0  0  0
  -27.3967  -29.7281   25.4897 H   0  0  0  0  0  0
  -27.8946  -30.4201   23.9661 H   0  0  0  0  0  0
  -27.2612  -33.3636   26.2091 H   0  0  0  0  0  0
  -28.3862  -32.6945   25.0360 H   0  0  0  0  0  0
  -28.0717  -31.8498   26.5449 H   0  0  0  0  0  0
  -28.2533  -38.0120   24.7573 H   0  0  0  0  0  0
  -28.1155  -36.2649   24.6182 H   0  0  0  0  0  0
  -27.2327  -37.1283   25.8865 H   0  0  0  0  0  0
  -20.9463  -29.8776   21.6760 H   0  0  0  0  0  0
  -26.0159  -38.2812   24.1493 H   0  0  0  0  0  0
  -28.9265  -18.8414   22.2157 H   0  0  0  0  0  0
  -29.3473  -16.6130   22.0818 H   0  0  0  0  0  0
  -27.3123  -25.2487   21.7295 H   0  0  0  0  0  0
  -28.4246  -17.8599   18.5589 H   0  0  0  0  0  0
  -29.5760  -18.1140   17.3190 H   0  0  0  0  0  0
  -31.4043  -17.1384   18.9270 H   0  0  0  0  0  0
  -30.2951  -16.1063   18.0940 H   0  0  0  0  0  0
  -29.2594  -20.2147   18.2503 H   0  0  0  0  0  0
  -31.2632  -19.4589   16.6153 H   0  0  0  0  0  0
  -32.8433  -19.9544   17.2238 H   0  0  0  0  0  0
  -31.5638  -21.1544   16.9984 H   0  0  0  0  0  0
  -27.8382  -22.0187   21.9802 H   0  0  0  0  0  0
  1 25  1  0  0  0
  1 30  2  0  0  0
  1 83  1  0  0  0
  2  3  1  0  0  0
  2 25  1  0  0  0
  2 87  1  0  0  0
  2 88  1  0  0  0
  3  4  1  0  0  0
  3 89  1  0  0  0
  3 90  1  0  0  0
  4  5  1  0  0  0
  4 91  1  0  0  0
  4 92  1  0  0  0
  5  6  1  0  0  0
  5 26  1  0  0  0
  5 93  1  0  0  0
  6 25  1  0  0  0
  6 94  1  0  0  0
  6 95  1  0  0  0
  7  8  2  0  0  0
  7 26  1  0  0  0
  7 29  1  0  0  0
  8  9  1  0  0  0
  8 22  1  0  0  0
  9 10  1  0  0  0
  9 27  2  0  0  0
 10 11  2  0  0  0
 10 15  1  0  0  0
 11 12  1  0  0  0
 11 96  1  0  0  0
 12 13  2  0  0  0
 12 97  1  0  0  0
 13 14  1  0  0  0
 13 31  1  0  0  0
 14 15  2  0  0  0
 14 98  1  0  0  0
 15 99  1  0  0  0
 16 17  2  0  0  0
 16 21  1  0  0  0
 16 31  1  0  0  0
 17 18  1  0  0  0
 17100  1  0  0  0
 18 19  2  0  0  0
 18101  1  0  0  0
 19 20  1  0  0  0
 19 24  1  0  0  0
 20 21  2  0  0  0
 20102  1  0  0  0
 21 23  1  0  0  0
 22 28  1  0  0  0
 22 32  2  0  0  0
 26 27  1  0  0  0
 28103  1  0  0  0
 28104  1  0  0  0
 29105  1  0  0  0
 29106  1  0  0  0
 33 34  1  0  0  0
 33 66  1  0  0  0
 33 70  2  0  0  0
 34 36  1  0  0  0
 34 59  1  0  0  0
 34107  1  0  0  0
 35 44  2  0  0  0
 35 45  1  0  0  0
 35 68  1  0  0  0
 36 56  1  0  0  0
 36108  1  0  0  0
 37 39  1  0  0  0
 37 47  1  0  0  0
 37 66  1  0  0  0
 37109  1  0  0  0
 38 43  2  0  0  0
 38 46  1  0  0  0
 38 47  1  0  0  0
 39 64  1  0  0  0
 39 67  2  0  0  0
 40 52  1  0  0  0
 40 53  2  0  0  0
 40 58  1  0  0  0
 41110  1  0  0  0
 41111  1  0  0  0
 41112  1  0  0  0
 41 48  1  0  0  0
 42 43  1  0  0  0
 42 66  1  0  0  0
 42113  1  0  0  0
 42114  1  0  0  0
 43 44  1  0  0  0
 44115  1  0  0  0
 45 46  2  0  0  0
 45116  1  0  0  0
 46117  1  0  0  0
 47118  1  0  0  0
 47119  1  0  0  0
 48 56  1  0  0  0
 48 65  1  0  0  0
 48120  1  0  0  0
 49 50  1  0  0  0
 49 53  1  0  0  0
 49 64  1  0  0  0
 49121  1  0  0  0
 50 51  1  0  0  0
 50122  1  0  0  0
 50123  1  0  0  0
 51 52  1  0  0  0
 51124  1  0  0  0
 51125  1  0  0  0
 52126  1  0  0  0
 52127  1  0  0  0
 53 54  1  0  0  0
 54 55  2  0  0  0
 54128  1  0  0  0
 55 57  1  0  0  0
 55129  1  0  0  0
 56 69  2  0  0  0
 57 58  2  0  0  0
 57130  1  0  0  0
 58131  1  0  0  0
 59 60  1  0  0  0
 59 61  1  0  0  0
 59 62  1  0  0  0
 60132  1  0  0  0
 60133  1  0  0  0
 60134  1  0  0  0
 61135  1  0  0  0
 61136  1  0  0  0
 61137  1  0  0  0
 62138  1  0  0  0
 62139  1  0  0  0
 62140  1  0  0  0
 63 65  1  0  0  0
 63141  1  0  0  0
 63142  1  0  0  0
 63143  1  0  0  0
 64144  1  0  0  0
 65145  1  0  0  0
 68 74  1  0  0  0
 71 72  2  0  0  0
 71 73  1  0  0  0
 71146  1  0  0  0
 72 83  1  0  0  0
 72147  1  0  0  0
 73 80  1  0  0  0
 73 82  2  0  0  0
 74 75  2  0  0  0
 74148  1  0  0  0
 75 76  1  0  0  0
 75 86  1  0  0  0
 76 82  1  0  0  0
 76 84  2  0  0  0
 77 81  1  0  0  0
 77 85  2  0  0  0
 77 80  1  0  0  0
 78 79  1  0  0  0
 78 80  1  0  0  0
 78149  1  0  0  0
 78150  1  0  0  0
 79 83  1  0  0  0
 79151  1  0  0  0
 79152  1  0  0  0
 80153  1  0  0  0
 81154  1  0  0  0
 81155  1  0  0  0
 81156  1  0  0  0
 86157  1  0  0  0
M  ISO  4   1 100  68 101  74 101  83 100
M  END
> <chiral flag>
0

> <version>
0

> <s_m_source_file>
/data/baiqing/PycharmProjects/Reinvent-master-3.2/result/LINK_invent/BTK/process_docking_weight1_custom_product_contain_oxygen_bond_distance_aromatic_linkinvent_7_9_3/rearranged_h_0165.sdf

> <i_m_source_file_index>
96

> <r_mmod_Potential_Energy-OPLS-2005>
703.785766601562

> <r_mmod_Stretch_Energy-OPLS-2005>
225.929092407227

> <r_mmod_Bend_Energy-OPLS-2005>
388.708618164062

> <r_mmod_Torsional_Energy-OPLS-2005>
292.198516845703

> <r_mmod_Improper_Torsional_Energy-OPLS-2005>
19.6541271209717

> <r_mmod_Van_der_Waal_Energy-OPLS-2005>
133.335891723633

> <r_mmod_Electrostatic_Energy-OPLS-2005>
-329.944488525391

> <r_mmod_Solvation_Energy-OPLS-2005>
-217.012390136719

> <b_mmod_Minimization_Converged-OPLS-2005>
0

> <r_mmod_RMS_Derivative-OPLS-2005>
2.22902297973633

$$$$
