0
                    3D
 Structure written by MMmdl.
164173  0  0  1  0            999 V2000
  -30.6019  -14.7167   20.4450 C   0  0  0  0  0  0
  -30.4312  -12.4335   19.4547 C   0  0  0  0  0  0
  -29.5021  -12.4916   18.2240 C   0  0  0  0  0  0
  -28.0290  -12.3250   18.6451 C   0  0  0  0  0  0
  -27.6428  -13.2208   19.8517 C   0  0  2  0  0  0
  -28.6913  -13.1400   20.9802 C   0  0  0  0  0  0
  -25.2539  -13.8174   20.5696 C   0  0  0  0  0  0
  -24.1825  -13.0439   20.9219 C   0  0  0  0  0  0
  -24.6395  -11.6908   20.8765 C   0  0  0  0  0  0
  -23.9065  -10.4288   21.0419 C   0  0  0  0  0  0
  -24.3617   -9.4201   21.9192 C   0  0  0  0  0  0
  -23.6292   -8.2238   22.0756 C   0  0  0  0  0  0
  -22.4278   -8.0276   21.3538 C   0  0  0  0  0  0
  -21.9916   -9.0253   20.4645 C   0  0  0  0  0  0
  -22.7244  -10.2135   20.3059 C   0  0  0  0  0  0
  -21.6857   -6.0736   22.5280 C   0  0  0  0  0  0
  -21.4012   -6.5638   23.8211 C   0  0  0  0  0  0
  -21.3651   -5.6789   24.9170 C   0  0  0  0  0  0
  -21.6043   -4.3055   24.7229 C   0  0  0  0  0  0
  -21.8823   -3.8151   23.4353 C   0  0  0  0  0  0
  -21.9197   -4.6965   22.3407 C   0  0  0  0  0  0
  -22.7842  -13.5231   21.1874 C   0  0  0  0  0  0
  -22.1669   -4.2144   21.0984 F   0  0  0  0  0  0
  -21.5625   -3.4544   25.7746 F   0  0  0  0  0  0
  -29.9854  -13.4915   20.3870 N   0  0  0  0  0  0
  -26.2945  -12.9356   20.3304 N   0  0  0  0  0  0
  -25.9317  -11.6508   20.5778 N   0  0  0  0  0  0
  -22.0489  -12.8199   22.0410 N   0  0  0  0  0  0
  -25.4234  -15.1900   20.4085 N   0  0  0  0  0  0
  -31.7993  -14.8124   20.1584 O   0  0  0  0  0  0
  -21.6645   -6.8879   21.4237 O   0  0  0  0  0  0
  -22.3514  -14.5543   20.6733 O   0  0  0  0  0  0
  -24.6313  -31.8548   23.1959 C   0  0  0  0  0  0
  -25.9125  -32.4760   23.8313 C   0  0  1  0  0  0
  -27.2172  -27.2683   20.1371 C   0  0  0  0  0  0
  -25.5930  -33.8562   24.2242 N   0  0  0  0  0  0
  -23.4279  -30.4734   21.5417 C   0  0  2  0  0  0
  -24.8718  -28.9142   20.1138 C   0  0  0  0  0  0
  -22.7504  -29.4562   22.4914 C   0  0  0  0  0  0
  -18.0296  -28.1401   22.8453 C   0  0  0  0  0  0
  -24.1499  -36.7285   23.2649 C   0  0  0  0  0  0
  -25.9717  -30.7720   21.3691 C   0  0  0  0  0  0
  -26.0437  -29.3923   20.7151 C   0  0  0  0  0  0
  -27.2208  -28.5837   20.7090 C   0  0  0  0  0  0
  -26.0283  -26.8485   19.5084 C   0  0  0  0  0  0
  -24.8684  -27.6493   19.5015 C   0  0  0  0  0  0
  -23.6427  -29.8035   20.1592 C   0  0  0  0  0  0
  -25.4127  -36.3095   24.0345 C   0  0  1  0  0  0
  -20.5909  -28.3689   23.1282 C   0  0  2  0  0  0
  -20.6794  -26.9404   22.5424 C   0  0  0  0  0  0
  -19.5792  -26.6378   21.5215 C   0  0  0  0  0  0
  -18.1949  -26.7937   22.1595 C   0  0  0  0  0  0
  -19.1558  -28.8852   23.2848 C   0  0  0  0  0  0
  -18.9484  -30.1443   23.8876 C   0  0  0  0  0  0
  -17.6488  -30.6582   24.0556 C   0  0  0  0  0  0
  -25.9073  -34.9446   23.5091 C   0  0  0  0  0  0
  -16.5367  -29.9081   23.6352 C   0  0  0  0  0  0
  -16.7279  -28.6513   23.0338 C   0  0  0  0  0  0
  -26.4480  -31.6595   25.0716 C   0  0  0  0  0  0
  -25.3684  -31.3766   26.1441 C   0  0  0  0  0  0
  -27.0332  -30.3036   24.6175 C   0  0  0  0  0  0
  -27.6035  -32.4345   25.7498 C   0  0  0  0  0  0
  -27.5586  -37.1794   24.8474 C   0  0  0  0  0  0
  -21.4213  -29.3025   22.3664 N   0  0  0  0  0  0
  -26.4297  -37.3785   23.9420 N   0  0  0  0  0  0
  -24.6971  -31.0491   22.0938 N   0  0  0  0  0  0
  -23.4208  -28.8092   23.3010 O   0  0  0  0  0  0
  -28.3319  -26.4087   20.1505 O   0  0  0  0  0  0
  -26.5652  -34.8911   22.4677 O   0  0  0  0  0  0
  -23.5456  -32.1374   23.7240 O   0  0  0  0  0  0
  -29.3273  -18.4055   20.2794 C   0  0  0  0  0  0
  -31.3734  -17.6192   21.3158 C   0  0  0  0  0  0
  -29.7156  -19.8070   20.4235 C   0  0  0  0  0  0
  -30.9843  -20.0381   21.0323 C   0  0  0  0  0  0
  -30.1549  -17.2799   20.6928 C   0  0  0  0  0  0
  -31.7690  -18.9557   21.4921 C   0  0  0  0  0  0
  -28.5240  -23.7577   19.7614 C   0  0  0  0  0  0
  -28.4930  -23.8296   18.4192 C   0  0  0  0  0  0
  -26.8621  -23.2080   21.8983 C   0  0  0  0  0  0
  -27.1836  -24.7144   21.7648 C   0  0  0  0  0  0
  -28.1229  -22.3179   21.8451 C   0  0  0  0  0  0
  -28.2829  -25.0075   20.7070 C   0  0  2  0  0  0
  -31.5745  -21.4345   21.1904 C   0  0  0  0  0  0
  -28.8693  -21.0328   19.8253 C   0  0  0  0  0  0
  -29.7969  -15.8450   20.5642 N   0  0  0  0  0  0
  -28.8243  -22.4060   20.5341 N   0  3  1  0  0  0
  -32.9487  -19.1969   22.1132 F   0  0  0  0  0  0
  -31.4706  -12.5630   19.1446 H   0  0  0  0  0  0
  -30.3785  -11.4547   19.9335 H   0  0  0  0  0  0
  -29.7732  -11.7117   17.5108 H   0  0  0  0  0  0
  -29.6312  -13.4414   17.7022 H   0  0  0  0  0  0
  -27.8798  -11.2768   18.9051 H   0  0  0  0  0  0
  -27.3670  -12.5232   17.8012 H   0  0  0  0  0  0
  -27.6411  -14.2444   19.4782 H   0  0  0  0  0  0
  -28.7254  -12.1377   21.4102 H   0  0  0  0  0  0
  -28.4402  -13.8160   21.7998 H   0  0  0  0  0  0
  -25.2765   -9.5684   22.4761 H   0  0  0  0  0  0
  -24.0013   -7.4631   22.7469 H   0  0  0  0  0  0
  -21.0853   -8.8773   19.8940 H   0  0  0  0  0  0
  -22.3710  -10.9676   19.6170 H   0  0  0  0  0  0
  -21.1999   -7.6148   23.9709 H   0  0  0  0  0  0
  -21.1461   -6.0525   25.9069 H   0  0  0  0  0  0
  -22.0610   -2.7609   23.2860 H   0  0  0  0  0  0
  -22.4121  -11.9857   22.4783 H   0  0  0  0  0  0
  -21.1096  -13.1184   22.2621 H   0  0  0  0  0  0
  -24.6563  -15.8440   20.5236 H   0  0  0  0  0  0
  -26.2587  -15.6241   20.0387 H   0  0  0  0  0  0
  -26.7169  -32.5375   23.1029 H   0  0  0  0  0  0
  -25.0090  -33.9737   25.0406 H   0  0  0  0  0  0
  -22.7246  -31.2945   21.3905 H   0  0  0  0  0  0
  -23.3772  -35.9602   23.3346 H   0  0  0  0  0  0
  -24.3599  -36.8904   22.2060 H   0  0  0  0  0  0
  -23.7230  -37.6486   23.6650 H   0  0  0  0  0  0
  -26.1098  -31.5266   20.5924 H   0  0  0  0  0  0
  -26.8518  -30.8247   21.9978 H   0  0  0  0  0  0
  -28.1230  -28.9449   21.1802 H   0  0  0  0  0  0
  -25.9888  -25.8745   19.0427 H   0  0  0  0  0  0
  -23.9680  -27.2771   19.0311 H   0  0  0  0  0  0
  -23.7794  -30.5802   19.4068 H   0  0  0  0  0  0
  -22.7572  -29.2474   19.8469 H   0  0  0  0  0  0
  -25.1288  -36.1961   25.0828 H   0  0  0  0  0  0
  -20.9974  -28.3263   24.1415 H   0  0  0  0  0  0
  -20.5769  -26.2248   23.3599 H   0  0  0  0  0  0
  -21.6643  -26.7461   22.1166 H   0  0  0  0  0  0
  -19.6998  -25.6298   21.1247 H   0  0  0  0  0  0
  -19.6799  -27.3170   20.6745 H   0  0  0  0  0  0
  -17.4240  -26.6697   21.3973 H   0  0  0  0  0  0
  -18.0302  -26.0081   22.8998 H   0  0  0  0  0  0
  -19.7956  -30.7255   24.2238 H   0  0  0  0  0  0
  -17.5046  -31.6269   24.5137 H   0  0  0  0  0  0
  -15.5367  -30.2982   23.7694 H   0  0  0  0  0  0
  -15.8676  -28.0834   22.7065 H   0  0  0  0  0  0
  -24.5892  -30.7096   25.7779 H   0  0  0  0  0  0
  -24.8828  -32.2928   26.4783 H   0  0  0  0  0  0
  -25.7980  -30.9015   27.0270 H   0  0  0  0  0  0
  -26.2919  -29.6802   24.1181 H   0  0  0  0  0  0
  -27.4067  -29.7298   25.4664 H   0  0  0  0  0  0
  -27.8748  -30.4391   23.9387 H   0  0  0  0  0  0
  -27.2667  -33.3693   26.1975 H   0  0  0  0  0  0
  -28.3855  -32.6841   25.0323 H   0  0  0  0  0  0
  -28.0659  -31.8544   26.5485 H   0  0  0  0  0  0
  -28.2574  -38.0115   24.7505 H   0  0  0  0  0  0
  -28.1104  -36.2636   24.6292 H   0  0  0  0  0  0
  -27.2304  -37.1428   25.8880 H   0  0  0  0  0  0
  -20.9391  -29.8735   21.6863 H   0  0  0  0  0  0
  -26.0207  -38.2878   24.1424 H   0  0  0  0  0  0
  -28.3833  -18.1917   19.7983 H   0  0  0  0  0  0
  -32.0372  -16.8506   21.6811 H   0  0  0  0  0  0
  -28.2937  -24.7748   17.9352 H   0  0  0  0  0  0
  -28.6558  -22.9808   17.7736 H   0  0  0  0  0  0
  -26.1861  -22.9130   21.0936 H   0  0  0  0  0  0
  -26.3168  -23.0294   22.8264 H   0  0  0  0  0  0
  -27.5033  -25.1098   22.7300 H   0  0  0  0  0  0
  -26.2486  -25.2212   21.5385 H   0  0  0  0  0  0
  -27.8569  -21.2846   22.0746 H   0  0  0  0  0  0
  -28.8176  -22.6179   22.6295 H   0  0  0  0  0  0
  -29.2089  -25.0014   21.2832 H   0  0  0  0  0  0
  -31.4127  -22.0512   20.3091 H   0  0  0  0  0  0
  -32.6561  -21.3934   21.3242 H   0  0  0  0  0  0
  -31.1680  -21.9348   22.0687 H   0  0  0  0  0  0
  -27.8397  -20.7067   19.6626 H   0  0  0  0  0  0
  -29.2848  -21.1830   18.8307 H   0  0  0  0  0  0
  -28.8086  -15.6434   20.5686 H   0  0  0  0  0  0
  -29.7931  -22.4787   20.8114 H   0  0  0  0  0  0
  1 25  1  0  0  0
  1 30  2  0  0  0
  1 85  1  0  0  0
  2  3  1  0  0  0
  2 25  1  0  0  0
  2 88  1  0  0  0
  2 89  1  0  0  0
  3  4  1  0  0  0
  3 90  1  0  0  0
  3 91  1  0  0  0
  4  5  1  0  0  0
  4 92  1  0  0  0
  4 93  1  0  0  0
  5  6  1  0  0  0
  5 26  1  0  0  0
  5 94  1  0  0  0
  6 25  1  0  0  0
  6 95  1  0  0  0
  6 96  1  0  0  0
  7  8  2  0  0  0
  7 26  1  0  0  0
  7 29  1  0  0  0
  8  9  1  0  0  0
  8 22  1  0  0  0
  9 10  1  0  0  0
  9 27  2  0  0  0
 10 11  2  0  0  0
 10 15  1  0  0  0
 11 12  1  0  0  0
 11 97  1  0  0  0
 12 13  2  0  0  0
 12 98  1  0  0  0
 13 14  1  0  0  0
 13 31  1  0  0  0
 14 15  2  0  0  0
 14 99  1  0  0  0
 15100  1  0  0  0
 16 17  2  0  0  0
 16 21  1  0  0  0
 16 31  1  0  0  0
 17 18  1  0  0  0
 17101  1  0  0  0
 18 19  2  0  0  0
 18102  1  0  0  0
 19 20  1  0  0  0
 19 24  1  0  0  0
 20 21  2  0  0  0
 20103  1  0  0  0
 21 23  1  0  0  0
 22 28  1  0  0  0
 22 32  2  0  0  0
 26 27  1  0  0  0
 28104  1  0  0  0
 28105  1  0  0  0
 29106  1  0  0  0
 29107  1  0  0  0
 33 34  1  0  0  0
 33 66  1  0  0  0
 33 70  2  0  0  0
 34 36  1  0  0  0
 34 59  1  0  0  0
 34108  1  0  0  0
 35 44  2  0  0  0
 35 45  1  0  0  0
 35 68  1  0  0  0
 36 56  1  0  0  0
 36109  1  0  0  0
 37 39  1  0  0  0
 37 47  1  0  0  0
 37 66  1  0  0  0
 37110  1  0  0  0
 38 43  2  0  0  0
 38 46  1  0  0  0
 38 47  1  0  0  0
 39 64  1  0  0  0
 39 67  2  0  0  0
 40 52  1  0  0  0
 40 53  2  0  0  0
 40 58  1  0  0  0
 41111  1  0  0  0
 41112  1  0  0  0
 41113  1  0  0  0
 41 48  1  0  0  0
 42 43  1  0  0  0
 42 66  1  0  0  0
 42114  1  0  0  0
 42115  1  0  0  0
 43 44  1  0  0  0
 44116  1  0  0  0
 45 46  2  0  0  0
 45117  1  0  0  0
 46118  1  0  0  0
 47119  1  0  0  0
 47120  1  0  0  0
 48 56  1  0  0  0
 48 65  1  0  0  0
 48121  1  0  0  0
 49 50  1  0  0  0
 49 53  1  0  0  0
 49 64  1  0  0  0
 49122  1  0  0  0
 50 51  1  0  0  0
 50123  1  0  0  0
 50124  1  0  0  0
 51 52  1  0  0  0
 51125  1  0  0  0
 51126  1  0  0  0
 52127  1  0  0  0
 52128  1  0  0  0
 53 54  1  0  0  0
 54 55  2  0  0  0
 54129  1  0  0  0
 55 57  1  0  0  0
 55130  1  0  0  0
 56 69  2  0  0  0
 57 58  2  0  0  0
 57131  1  0  0  0
 58132  1  0  0  0
 59 60  1  0  0  0
 59 61  1  0  0  0
 59 62  1  0  0  0
 60133  1  0  0  0
 60134  1  0  0  0
 60135  1  0  0  0
 61136  1  0  0  0
 61137  1  0  0  0
 61138  1  0  0  0
 62139  1  0  0  0
 62140  1  0  0  0
 62141  1  0  0  0
 63 65  1  0  0  0
 63142  1  0  0  0
 63143  1  0  0  0
 63144  1  0  0  0
 64145  1  0  0  0
 65146  1  0  0  0
 68 82  1  0  0  0
 71 73  2  0  0  0
 71 75  1  0  0  0
 71147  1  0  0  0
 72 75  2  0  0  0
 72 76  1  0  0  0
 72148  1  0  0  0
 73 74  1  0  0  0
 73 84  1  0  0  0
 74 76  2  0  0  0
 74 83  1  0  0  0
 75 85  1  0  0  0
 76 87  1  0  0  0
 77 78  2  0  0  0
 77 82  1  0  0  0
 77 86  1  0  0  0
 78149  1  0  0  0
 78150  1  0  0  0
 79 80  1  0  0  0
 79 81  1  0  0  0
 79151  1  0  0  0
 79152  1  0  0  0
 80 82  1  0  0  0
 80153  1  0  0  0
 80154  1  0  0  0
 81 86  1  0  0  0
 81155  1  0  0  0
 81156  1  0  0  0
 82157  1  0  0  0
 83158  1  0  0  0
 83159  1  0  0  0
 83160  1  0  0  0
 84161  1  0  0  0
 84162  1  0  0  0
 84 86  1  0  0  0
 85163  1  0  0  0
 86164  1  0  0  0
M  CHG  1  86   1
M  ISO  4   1 100  68 101  82 101  85 100
M  END
> <chiral flag>
0

> <version>
0

> <s_m_source_file>
/data/baiqing/PycharmProjects/Reinvent-master-3.2/result/LINK_invent/BTK/process_docking_weight1_custom_product_contain_oxygen_bond_distance_aromatic_linkinvent_7_9_3/rearranged_h_0043.sdf

> <i_m_source_file_index>
1

> <r_mmod_Potential_Energy-OPLS-2005>
106.4384765625

> <r_mmod_Stretch_Energy-OPLS-2005>
129.720336914062

> <r_mmod_Bend_Energy-OPLS-2005>
178.958847045898

> <r_mmod_Torsional_Energy-OPLS-2005>
263.76025390625

> <r_mmod_Improper_Torsional_Energy-OPLS-2005>
6.65328741073608

> <r_mmod_Van_der_Waal_Energy-OPLS-2005>
150.452117919922

> <r_mmod_Electrostatic_Energy-OPLS-2005>
-251.051391601562

> <r_mmod_Solvation_Energy-OPLS-2005>
-447.423858642578

> <b_mmod_Minimization_Converged-OPLS-2005>
0

> <r_mmod_RMS_Derivative-OPLS-2005>
3.54772305488586

$$$$
1
                    3D
 Structure written by MMmdl.
171180  0  0  1  0            999 V2000
  -30.7046  -14.6284   20.4750 C   0  0  0  0  0  0
  -30.4015  -12.3820   19.4644 C   0  0  0  0  0  0
  -29.4927  -12.5046   18.2253 C   0  0  0  0  0  0
  -28.0177  -12.3529   18.6375 C   0  0  0  0  0  0
  -27.6437  -13.2377   19.8581 C   0  0  2  0  0  0
  -28.6916  -13.1504   20.9913 C   0  0  0  0  0  0
  -25.2519  -13.8225   20.5732 C   0  0  0  0  0  0
  -24.1806  -13.0450   20.9223 C   0  0  0  0  0  0
  -24.6406  -11.6933   20.8768 C   0  0  0  0  0  0
  -23.9083  -10.4296   21.0415 C   0  0  0  0  0  0
  -24.3630   -9.4208   21.9191 C   0  0  0  0  0  0
  -23.6299   -8.2245   22.0754 C   0  0  0  0  0  0
  -22.4285   -8.0284   21.3540 C   0  0  0  0  0  0
  -21.9930   -9.0259   20.4643 C   0  0  0  0  0  0
  -22.7262  -10.2138   20.3058 C   0  0  0  0  0  0
  -21.6858   -6.0742   22.5283 C   0  0  0  0  0  0
  -21.4015   -6.5649   23.8217 C   0  0  0  0  0  0
  -21.3658   -5.6799   24.9177 C   0  0  0  0  0  0
  -21.6047   -4.3061   24.7228 C   0  0  0  0  0  0
  -21.8818   -3.8152   23.4349 C   0  0  0  0  0  0
  -21.9191   -4.6968   22.3407 C   0  0  0  0  0  0
  -22.7832  -13.5228   21.1871 C   0  0  0  0  0  0
  -22.1666   -4.2159   21.0982 F   0  0  0  0  0  0
  -21.5625   -3.4542   25.7738 F   0  0  0  0  0  0
  -30.0032  -13.4511   20.4068 N   0  0  0  0  0  0
  -26.2955  -12.9447   20.3350 N   0  0  0  0  0  0
  -25.9341  -11.6577   20.5787 N   0  0  0  0  0  0
  -22.0499  -12.8176   22.0418 N   0  0  0  0  0  0
  -25.4191  -15.1939   20.4139 N   0  0  0  0  0  0
  -31.8870  -14.6302   20.1396 O   0  0  0  0  0  0
  -21.6643   -6.8883   21.4242 O   0  0  0  0  0  0
  -22.3516  -14.5536   20.6734 O   0  0  0  0  0  0
  -24.6231  -31.8627   23.2070 C   0  0  0  0  0  0
  -25.9093  -32.4794   23.8383 C   0  0  1  0  0  0
  -27.2140  -27.3192   20.1288 C   0  0  0  0  0  0
  -25.5923  -33.8595   24.2305 N   0  0  0  0  0  0
  -23.4161  -30.4891   21.5470 C   0  0  2  0  0  0
  -24.8626  -28.9463   20.1176 C   0  0  0  0  0  0
  -22.7453  -29.4648   22.4922 C   0  0  0  0  0  0
  -18.0283  -28.1391   22.8492 C   0  0  0  0  0  0
  -24.1488  -36.7296   23.2630 C   0  0  0  0  0  0
  -25.9572  -30.7928   21.3818 C   0  0  0  0  0  0
  -26.0295  -29.4173   20.7325 C   0  0  0  0  0  0
  -27.2075  -28.6122   20.7358 C   0  0  0  0  0  0
  -26.0367  -26.9241   19.4574 C   0  0  0  0  0  0
  -24.8675  -27.7033   19.4715 C   0  0  0  0  0  0
  -23.6327  -29.8276   20.1617 C   0  0  0  0  0  0
  -25.4108  -36.3088   24.0327 C   0  0  1  0  0  0
  -20.5884  -28.3702   23.1283 C   0  0  2  0  0  0
  -20.6764  -26.9420   22.5414 C   0  0  0  0  0  0
  -19.5740  -26.6390   21.5214 C   0  0  0  0  0  0
  -18.1922  -26.7941   22.1626 C   0  0  0  0  0  0
  -19.1536  -28.8855   23.2894 C   0  0  0  0  0  0
  -18.9458  -30.1455   23.8913 C   0  0  0  0  0  0
  -17.6459  -30.6593   24.0571 C   0  0  0  0  0  0
  -25.9048  -34.9458   23.5113 C   0  0  0  0  0  0
  -16.5351  -29.9095   23.6327 C   0  0  0  0  0  0
  -16.7278  -28.6512   23.0357 C   0  0  0  0  0  0
  -26.4494  -31.6586   25.0734 C   0  0  0  0  0  0
  -25.3739  -31.3701   26.1468 C   0  0  0  0  0  0
  -27.0343  -30.3016   24.6165 C   0  0  0  0  0  0
  -27.6054  -32.4316   25.7504 C   0  0  0  0  0  0
  -27.5595  -37.1783   24.8446 C   0  0  0  0  0  0
  -21.4168  -29.3071   22.3677 N   0  0  0  0  0  0
  -26.4277  -37.3793   23.9434 N   0  0  0  0  0  0
  -24.6839  -31.0648   22.1023 N   0  0  0  0  0  0
  -23.4194  -28.8164   23.2973 O   0  0  0  0  0  0
  -28.3472  -26.4934   20.1074 O   0  0  0  0  0  0
  -26.5612  -34.8917   22.4679 O   0  0  0  0  0  0
  -23.5400  -32.1419   23.7404 O   0  0  0  0  0  0
  -32.2739  -18.8363   20.2486 C   0  0  0  0  0  0
  -31.7874  -17.5288   20.2338 C   0  0  0  0  0  0
  -31.4720  -19.9239   20.6272 C   0  0  0  0  0  0
  -30.0788  -19.7482   20.8970 C   0  0  0  0  0  0
  -29.6180  -18.3539   20.9594 C   0  0  0  0  0  0
  -30.4703  -17.2193   20.6389 C   0  0  0  0  0  0
  -27.2868  -22.6068   20.3586 C   0  0  0  0  0  0
  -24.8847  -19.8217   20.8554 C   0  0  0  0  0  0
  -26.1538  -21.8875   20.5264 C   0  0  0  0  0  0
  -26.0204  -20.4470   20.5089 C   0  0  0  0  0  0
  -27.1942  -24.1385   20.0946 C   0  0  0  0  0  0
  -29.6731  -24.3620   20.4317 C   0  0  0  0  0  0
  -29.6263  -23.0127   19.6313 C   0  0  0  0  0  0
  -28.3082  -25.0923   20.6146 C   0  0  1  0  0  0
  -32.2464  -21.2270   20.7924 C   0  0  0  0  0  0
  -28.2117  -17.9990   21.4268 C   0  0  0  0  0  0
  -29.2023  -21.0403   21.2529 C   0  0  0  0  0  0
  -30.0244  -15.8054   20.7243 N   0  0  0  0  0  0
  -28.6761  -21.9806   20.1594 N   0  3  2  0  0  0
  -31.4503  -12.4354   19.1693 H   0  0  0  0  0  0
  -30.2759  -11.4030   19.9303 H   0  0  0  0  0  0
  -29.7512  -11.7486   17.4831 H   0  0  0  0  0  0
  -29.6468  -13.4720   17.7436 H   0  0  0  0  0  0
  -27.8482  -11.3019   18.8745 H   0  0  0  0  0  0
  -27.3640  -12.5814   17.7950 H   0  0  0  0  0  0
  -27.6457  -14.2667   19.4968 H   0  0  0  0  0  0
  -28.6978  -12.1550   21.4383 H   0  0  0  0  0  0
  -28.4495  -13.8440   21.7981 H   0  0  0  0  0  0
  -25.2778   -9.5683   22.4768 H   0  0  0  0  0  0
  -24.0013   -7.4636   22.7474 H   0  0  0  0  0  0
  -21.0867   -8.8771   19.8943 H   0  0  0  0  0  0
  -22.3718  -10.9675   19.6167 H   0  0  0  0  0  0
  -21.2015   -7.6162   23.9720 H   0  0  0  0  0  0
  -21.1484   -6.0531   25.9077 H   0  0  0  0  0  0
  -22.0597   -2.7616   23.2845 H   0  0  0  0  0  0
  -22.4142  -11.9815   22.4745 H   0  0  0  0  0  0
  -21.1122  -13.1174   22.2674 H   0  0  0  0  0  0
  -24.6404  -15.8363   20.5002 H   0  0  0  0  0  0
  -26.2528  -15.6270   20.0410 H   0  0  0  0  0  0
  -26.7153  -32.5484   23.1130 H   0  0  0  0  0  0
  -25.0072  -33.9745   25.0452 H   0  0  0  0  0  0
  -22.7087  -31.3090   21.4054 H   0  0  0  0  0  0
  -23.3773  -35.9601   23.3232 H   0  0  0  0  0  0
  -24.3597  -36.8989   22.2062 H   0  0  0  0  0  0
  -23.7199  -37.6457   23.6699 H   0  0  0  0  0  0
  -26.0820  -31.5515   20.6084 H   0  0  0  0  0  0
  -26.8408  -30.8475   22.0059 H   0  0  0  0  0  0
  -28.1035  -28.9682   21.2259 H   0  0  0  0  0  0
  -25.9979  -26.0163   18.8820 H   0  0  0  0  0  0
  -23.9823  -27.3513   18.9592 H   0  0  0  0  0  0
  -23.7551  -30.6043   19.4058 H   0  0  0  0  0  0
  -22.7534  -29.2581   19.8568 H   0  0  0  0  0  0
  -25.1273  -36.1929   25.0813 H   0  0  0  0  0  0
  -20.9991  -28.3289   24.1400 H   0  0  0  0  0  0
  -20.5654  -26.2315   23.3621 H   0  0  0  0  0  0
  -21.6635  -26.7438   22.1224 H   0  0  0  0  0  0
  -19.6892  -25.6301   21.1244 H   0  0  0  0  0  0
  -19.6672  -27.3194   20.6738 H   0  0  0  0  0  0
  -17.4191  -26.6714   21.4027 H   0  0  0  0  0  0
  -18.0310  -26.0072   22.9010 H   0  0  0  0  0  0
  -19.7933  -30.7264   24.2304 H   0  0  0  0  0  0
  -17.5017  -31.6274   24.5181 H   0  0  0  0  0  0
  -15.5355  -30.3008   23.7629 H   0  0  0  0  0  0
  -15.8685  -28.0833   22.7068 H   0  0  0  0  0  0
  -24.5930  -30.7025   25.7808 H   0  0  0  0  0  0
  -24.8911  -32.2857   26.4891 H   0  0  0  0  0  0
  -25.8090  -30.8895   27.0240 H   0  0  0  0  0  0
  -26.2918  -29.6757   24.1206 H   0  0  0  0  0  0
  -27.4071  -29.7270   25.4653 H   0  0  0  0  0  0
  -27.8770  -30.4310   23.9371 H   0  0  0  0  0  0
  -27.2668  -33.3617   26.2075 H   0  0  0  0  0  0
  -28.3873  -32.6870   25.0342 H   0  0  0  0  0  0
  -28.0707  -31.8442   26.5426 H   0  0  0  0  0  0
  -28.2527  -38.0166   24.7625 H   0  0  0  0  0  0
  -28.1176  -36.2706   24.6100 H   0  0  0  0  0  0
  -27.2334  -37.1221   25.8847 H   0  0  0  0  0  0
  -20.9314  -29.8843   21.6949 H   0  0  0  0  0  0
  -26.0149  -38.2838   24.1543 H   0  0  0  0  0  0
  -33.3146  -18.9961   19.9996 H   0  0  0  0  0  0
  -32.5095  -16.7884   19.9393 H   0  0  0  0  0  0
  -24.8065  -18.7435   20.8246 H   0  0  0  0  0  0
  -24.0108  -20.3718   21.1770 H   0  0  0  0  0  0
  -25.2273  -22.4447   20.5718 H   0  0  0  0  0  0
  -26.8484  -19.8465   20.1770 H   0  0  0  0  0  0
  -26.2414  -24.4760   20.5043 H   0  0  0  0  0  0
  -27.1253  -24.2370   19.0116 H   0  0  0  0  0  0
  -30.3648  -25.0354   19.9251 H   0  0  0  0  0  0
  -30.1180  -24.1809   21.4105 H   0  0  0  0  0  0
  -30.6161  -22.6057   19.4792 H   0  0  0  0  0  0
  -29.3025  -23.2462   18.6166 H   0  0  0  0  0  0
  -28.1550  -25.1915   21.6906 H   0  0  0  0  0  0
  -33.1602  -21.0317   21.3557 H   0  0  0  0  0  0
  -31.7314  -22.0101   21.3409 H   0  0  0  0  0  0
  -32.5636  -21.6106   19.8222 H   0  0  0  0  0  0
  -27.7547  -18.7420   22.0736 H   0  0  0  0  0  0
  -28.2171  -17.0846   22.0195 H   0  0  0  0  0  0
  -27.5681  -17.8204   20.5666 H   0  0  0  0  0  0
  -29.7369  -21.6478   21.9808 H   0  0  0  0  0  0
  -28.3511  -20.7222   21.8421 H   0  0  0  0  0  0
  -29.0544  -15.6735   20.9631 H   0  0  0  0  0  0
  -28.5814  -21.3434   19.3831 H   0  0  0  0  0  0
  1 25  1  0  0  0
  1 30  2  0  0  0
  1 88  1  0  0  0
  2  3  1  0  0  0
  2 25  1  0  0  0
  2 90  1  0  0  0
  2 91  1  0  0  0
  3  4  1  0  0  0
  3 92  1  0  0  0
  3 93  1  0  0  0
  4  5  1  0  0  0
  4 94  1  0  0  0
  4 95  1  0  0  0
  5  6  1  0  0  0
  5 26  1  0  0  0
  5 96  1  0  0  0
  6 25  1  0  0  0
  6 97  1  0  0  0
  6 98  1  0  0  0
  7  8  2  0  0  0
  7 26  1  0  0  0
  7 29  1  0  0  0
  8  9  1  0  0  0
  8 22  1  0  0  0
  9 10  1  0  0  0
  9 27  2  0  0  0
 10 11  2  0  0  0
 10 15  1  0  0  0
 11 12  1  0  0  0
 11 99  1  0  0  0
 12 13  2  0  0  0
 12100  1  0  0  0
 13 14  1  0  0  0
 13 31  1  0  0  0
 14 15  2  0  0  0
 14101  1  0  0  0
 15102  1  0  0  0
 16 17  2  0  0  0
 16 21  1  0  0  0
 16 31  1  0  0  0
 17 18  1  0  0  0
 17103  1  0  0  0
 18 19  2  0  0  0
 18104  1  0  0  0
 19 20  1  0  0  0
 19 24  1  0  0  0
 20 21  2  0  0  0
 20105  1  0  0  0
 21 23  1  0  0  0
 22 28  1  0  0  0
 22 32  2  0  0  0
 26 27  1  0  0  0
 28106  1  0  0  0
 28107  1  0  0  0
 29108  1  0  0  0
 29109  1  0  0  0
 33 34  1  0  0  0
 33 66  1  0  0  0
 33 70  2  0  0  0
 34 36  1  0  0  0
 34 59  1  0  0  0
 34110  1  0  0  0
 35 44  2  0  0  0
 35 45  1  0  0  0
 35 68  1  0  0  0
 36 56  1  0  0  0
 36111  1  0  0  0
 37 39  1  0  0  0
 37 47  1  0  0  0
 37 66  1  0  0  0
 37112  1  0  0  0
 38 43  2  0  0  0
 38 46  1  0  0  0
 38 47  1  0  0  0
 39 64  1  0  0  0
 39 67  2  0  0  0
 40 52  1  0  0  0
 40 53  2  0  0  0
 40 58  1  0  0  0
 41113  1  0  0  0
 41114  1  0  0  0
 41115  1  0  0  0
 41 48  1  0  0  0
 42 43  1  0  0  0
 42 66  1  0  0  0
 42116  1  0  0  0
 42117  1  0  0  0
 43 44  1  0  0  0
 44118  1  0  0  0
 45 46  2  0  0  0
 45119  1  0  0  0
 46120  1  0  0  0
 47121  1  0  0  0
 47122  1  0  0  0
 48 56  1  0  0  0
 48 65  1  0  0  0
 48123  1  0  0  0
 49 50  1  0  0  0
 49 53  1  0  0  0
 49 64  1  0  0  0
 49124  1  0  0  0
 50 51  1  0  0  0
 50125  1  0  0  0
 50126  1  0  0  0
 51 52  1  0  0  0
 51127  1  0  0  0
 51128  1  0  0  0
 52129  1  0  0  0
 52130  1  0  0  0
 53 54  1  0  0  0
 54 55  2  0  0  0
 54131  1  0  0  0
 55 57  1  0  0  0
 55132  1  0  0  0
 56 69  2  0  0  0
 57 58  2  0  0  0
 57133  1  0  0  0
 58134  1  0  0  0
 59 60  1  0  0  0
 59 61  1  0  0  0
 59 62  1  0  0  0
 60135  1  0  0  0
 60136  1  0  0  0
 60137  1  0  0  0
 61138  1  0  0  0
 61139  1  0  0  0
 61140  1  0  0  0
 62141  1  0  0  0
 62142  1  0  0  0
 62143  1  0  0  0
 63 65  1  0  0  0
 63144  1  0  0  0
 63145  1  0  0  0
 63146  1  0  0  0
 64147  1  0  0  0
 65148  1  0  0  0
 68 84  1  0  0  0
 71 72  2  0  0  0
 71 73  1  0  0  0
 71149  1  0  0  0
 72 76  1  0  0  0
 72150  1  0  0  0
 73 74  2  0  0  0
 73 85  1  0  0  0
 74 75  1  0  0  0
 74 87  1  0  0  0
 75 76  2  0  0  0
 75 86  1  0  0  0
 76 88  1  0  0  0
 77 79  2  0  0  0
 77 81  1  0  0  0
 77 89  1  0  0  0
 78 80  2  0  0  0
 78151  1  0  0  0
 78152  1  0  0  0
 79 80  1  0  0  0
 79153  1  0  0  0
 80154  1  0  0  0
 81 84  1  0  0  0
 81155  1  0  0  0
 81156  1  0  0  0
 82 83  1  0  0  0
 82 84  1  0  0  0
 82157  1  0  0  0
 82158  1  0  0  0
 83 89  1  0  0  0
 83159  1  0  0  0
 83160  1  0  0  0
 84161  1  0  0  0
 85162  1  0  0  0
 85163  1  0  0  0
 85164  1  0  0  0
 86165  1  0  0  0
 86166  1  0  0  0
 86167  1  0  0  0
 87168  1  0  0  0
 87169  1  0  0  0
 87 89  1  0  0  0
 88170  1  0  0  0
 89171  1  0  0  0
M  CHG  1  89   1
M  ISO  4   1 100  68 101  84 101  88 100
M  END
> <chiral flag>
0

> <version>
0

> <s_m_source_file>
/data/baiqing/PycharmProjects/Reinvent-master-3.2/result/LINK_invent/BTK/process_docking_weight1_custom_product_contain_oxygen_bond_distance_aromatic_linkinvent_7_9_3/rearranged_h_0043.sdf

> <i_m_source_file_index>
2

> <r_mmod_Potential_Energy-OPLS-2005>
57.1780433654785

> <r_mmod_Stretch_Energy-OPLS-2005>
108.354263305664

> <r_mmod_Bend_Energy-OPLS-2005>
193.868270874023

> <r_mmod_Torsional_Energy-OPLS-2005>
262.994812011719

> <r_mmod_Improper_Torsional_Energy-OPLS-2005>
5.91714477539062

> <r_mmod_Van_der_Waal_Energy-OPLS-2005>
174.038421630859

> <r_mmod_Electrostatic_Energy-OPLS-2005>
-302.358764648438

> <r_mmod_Solvation_Energy-OPLS-2005>
-434.173797607422

> <b_mmod_Minimization_Converged-OPLS-2005>
0

> <r_mmod_RMS_Derivative-OPLS-2005>
1.86172831058502

$$$$
2
                    3D
 Structure written by MMmdl.
163172  0  0  1  0            999 V2000
  -30.6349  -14.6451   20.5090 C   0  0  0  0  0  0
  -30.4413  -12.3730   19.4588 C   0  0  0  0  0  0
  -29.5139  -12.5123   18.2306 C   0  0  0  0  0  0
  -28.0335  -12.3546   18.6349 C   0  0  0  0  0  0
  -27.6542  -13.2207   19.8669 C   0  0  2  0  0  0
  -28.6888  -13.0678   21.0014 C   0  0  0  0  0  0
  -25.2557  -13.8185   20.5673 C   0  0  0  0  0  0
  -24.1820  -13.0447   20.9161 C   0  0  0  0  0  0
  -24.6394  -11.6917   20.8719 C   0  0  0  0  0  0
  -23.9067  -10.4298   21.0393 C   0  0  0  0  0  0
  -24.3620   -9.4218   21.9175 C   0  0  0  0  0  0
  -23.6296   -8.2253   22.0753 C   0  0  0  0  0  0
  -22.4277   -8.0282   21.3544 C   0  0  0  0  0  0
  -21.9912   -9.0250   20.4644 C   0  0  0  0  0  0
  -22.7236  -10.2131   20.3051 C   0  0  0  0  0  0
  -21.6855   -6.0740   22.5281 C   0  0  0  0  0  0
  -21.4010   -6.5641   23.8213 C   0  0  0  0  0  0
  -21.3662   -5.6795   24.9176 C   0  0  0  0  0  0
  -21.6046   -4.3059   24.7227 C   0  0  0  0  0  0
  -21.8820   -3.8151   23.4349 C   0  0  0  0  0  0
  -21.9189   -4.6967   22.3404 C   0  0  0  0  0  0
  -22.7844  -13.5233   21.1841 C   0  0  0  0  0  0
  -22.1658   -4.2151   21.0982 F   0  0  0  0  0  0
  -21.5633   -3.4543   25.7740 F   0  0  0  0  0  0
  -30.0131  -13.3744   20.4497 N   0  0  0  0  0  0
  -26.2987  -12.9373   20.3308 N   0  0  0  0  0  0
  -25.9322  -11.6522   20.5733 N   0  0  0  0  0  0
  -22.0495  -12.8222   22.0400 N   0  0  0  0  0  0
  -25.4301  -15.1906   20.4122 N   0  0  0  0  0  0
  -31.7711  -14.8642   20.0813 O   0  0  0  0  0  0
  -21.6643   -6.8878   21.4241 O   0  0  0  0  0  0
  -22.3525  -14.5537   20.6688 O   0  0  0  0  0  0
  -24.6288  -31.8593   23.2037 C   0  0  0  0  0  0
  -25.9134  -32.4775   23.8361 C   0  0  1  0  0  0
  -27.2156  -27.3036   20.1159 C   0  0  0  0  0  0
  -25.5946  -33.8578   24.2284 N   0  0  0  0  0  0
  -23.4220  -30.4854   21.5476 C   0  0  2  0  0  0
  -24.8674  -28.9485   20.1046 C   0  0  0  0  0  0
  -22.7483  -29.4629   22.4941 C   0  0  0  0  0  0
  -18.0286  -28.1386   22.8496 C   0  0  0  0  0  0
  -24.1488  -36.7288   23.2638 C   0  0  0  0  0  0
  -25.9659  -30.7845   21.3794 C   0  0  0  0  0  0
  -26.0379  -29.4138   20.7167 C   0  0  0  0  0  0
  -27.2151  -28.6032   20.7155 C   0  0  0  0  0  0
  -26.0271  -26.9164   19.4494 C   0  0  0  0  0  0
  -24.8658  -27.7056   19.4603 C   0  0  0  0  0  0
  -23.6343  -29.8262   20.1608 C   0  0  0  0  0  0
  -25.4116  -36.3083   24.0329 C   0  0  1  0  0  0
  -20.5887  -28.3695   23.1280 C   0  0  2  0  0  0
  -20.6780  -26.9416   22.5410 C   0  0  0  0  0  0
  -19.5747  -26.6386   21.5218 C   0  0  0  0  0  0
  -18.1927  -26.7934   22.1628 C   0  0  0  0  0  0
  -19.1538  -28.8859   23.2881 C   0  0  0  0  0  0
  -18.9461  -30.1466   23.8893 C   0  0  0  0  0  0
  -17.6460  -30.6592   24.0565 C   0  0  0  0  0  0
  -25.9059  -34.9452   23.5103 C   0  0  0  0  0  0
  -16.5353  -29.9086   23.6337 C   0  0  0  0  0  0
  -16.7274  -28.6499   23.0366 C   0  0  0  0  0  0
  -26.4505  -31.6590   25.0737 C   0  0  0  0  0  0
  -25.3732  -31.3726   26.1456 C   0  0  0  0  0  0
  -27.0359  -30.3014   24.6212 C   0  0  0  0  0  0
  -27.6066  -32.4325   25.7502 C   0  0  0  0  0  0
  -27.5584  -37.1794   24.8461 C   0  0  0  0  0  0
  -21.4194  -29.3048   22.3676 N   0  0  0  0  0  0
  -26.4290  -37.3784   23.9414 N   0  0  0  0  0  0
  -24.6910  -31.0592   22.1001 N   0  0  0  0  0  0
  -23.4197  -28.8169   23.3029 O   0  0  0  0  0  0
  -28.3024  -26.4075   20.2094 O   0  0  0  0  0  0
  -26.5619  -34.8917   22.4665 O   0  0  0  0  0  0
  -23.5448  -32.1404   23.7354 O   0  0  0  0  0  0
  -29.9000  -19.0949   19.4012 C   0  0  0  0  0  0
  -29.8987  -17.6779   19.5439 C   0  0  0  0  0  0
  -29.9280  -19.9841   20.5091 C   0  0  0  0  0  0
  -29.9440  -19.3615   21.7985 C   0  0  0  0  0  0
  -29.8967  -17.9248   21.9429 C   0  0  0  0  0  0
  -29.9061  -17.0498   20.8142 C   0  0  0  0  0  0
  -29.2275  -23.9304   20.1824 C   0  0  0  0  0  0
  -26.6053  -23.0497   21.0763 C   0  0  0  0  0  0
  -27.0257  -24.5071   21.2994 C   0  0  0  0  0  0
  -27.8081  -22.0913   21.1286 C   0  0  0  0  0  0
  -28.0012  -24.9387   20.1828 C   0  0  1  0  0  0
  -30.0480  -20.2278   23.0490 C   0  0  0  0  0  0
  -30.1104  -21.5415   20.2501 C   0  0  0  0  0  0
  -29.8242  -17.2736   23.3257 C   0  0  0  0  0  0
  -29.0334  -22.5838   20.4739 N   0  0  0  0  0  0
  -30.3348  -24.3592   19.8411 O   0  0  0  0  0  0
  -29.7522  -15.6539   20.9684 O   0  0  0  0  0  0
  -30.8916  -16.5003   23.5286 F   0  0  0  0  0  0
  -28.7199  -16.5332   23.4324 F   0  0  0  0  0  0
  -31.4847  -12.5076   19.1672 H   0  0  0  0  0  0
  -30.3724  -11.3698   19.8834 H   0  0  0  0  0  0
  -29.7760  -11.7729   17.4725 H   0  0  0  0  0  0
  -29.6638  -13.4891   17.7680 H   0  0  0  0  0  0
  -27.8628  -11.3003   18.8568 H   0  0  0  0  0  0
  -27.3856  -12.5954   17.7915 H   0  0  0  0  0  0
  -27.6795  -14.2594   19.5363 H   0  0  0  0  0  0
  -28.6813  -12.0490   21.3921 H   0  0  0  0  0  0
  -28.4432  -13.7145   21.8450 H   0  0  0  0  0  0
  -25.2766   -9.5694   22.4749 H   0  0  0  0  0  0
  -24.0006   -7.4649   22.7475 H   0  0  0  0  0  0
  -21.0844   -8.8763   19.8951 H   0  0  0  0  0  0
  -22.3690  -10.9666   19.6159 H   0  0  0  0  0  0
  -21.2002   -7.6148   23.9715 H   0  0  0  0  0  0
  -21.1485   -6.0527   25.9075 H   0  0  0  0  0  0
  -22.0596   -2.7612   23.2851 H   0  0  0  0  0  0
  -22.4114  -11.9874   22.4768 H   0  0  0  0  0  0
  -21.1116  -13.1240   22.2618 H   0  0  0  0  0  0
  -24.6747  -15.8549   20.5386 H   0  0  0  0  0  0
  -26.3028  -15.6269   20.1416 H   0  0  0  0  0  0
  -26.7204  -32.5429   23.1106 H   0  0  0  0  0  0
  -25.0111  -33.9725   25.0442 H   0  0  0  0  0  0
  -22.7170  -31.3073   21.4077 H   0  0  0  0  0  0
  -23.3764  -35.9603   23.3282 H   0  0  0  0  0  0
  -24.3580  -36.8926   22.2054 H   0  0  0  0  0  0
  -23.7217  -37.6474   23.6672 H   0  0  0  0  0  0
  -26.1033  -31.5501   20.6143 H   0  0  0  0  0  0
  -26.8442  -30.8279   22.0117 H   0  0  0  0  0  0
  -28.1066  -28.9505   21.2183 H   0  0  0  0  0  0
  -25.9447  -25.9742   18.9326 H   0  0  0  0  0  0
  -23.9738  -27.3465   18.9657 H   0  0  0  0  0  0
  -23.7462  -30.6046   19.4051 H   0  0  0  0  0  0
  -22.7546  -29.2533   19.8618 H   0  0  0  0  0  0
  -25.1293  -36.1936   25.0821 H   0  0  0  0  0  0
  -20.9977  -28.3271   24.1400 H   0  0  0  0  0  0
  -20.5688  -26.2306   23.3611 H   0  0  0  0  0  0
  -21.6649  -26.7451   22.1195 H   0  0  0  0  0  0
  -19.6907  -25.6293   21.1253 H   0  0  0  0  0  0
  -19.6684  -27.3198   20.6745 H   0  0  0  0  0  0
  -17.4201  -26.6697   21.4025 H   0  0  0  0  0  0
  -18.0317  -26.0068   22.9011 H   0  0  0  0  0  0
  -19.7936  -30.7290   24.2250 H   0  0  0  0  0  0
  -17.5011  -31.6271   24.5167 H   0  0  0  0  0  0
  -15.5354  -30.2986   23.7662 H   0  0  0  0  0  0
  -15.8674  -28.0814   22.7092 H   0  0  0  0  0  0
  -24.5919  -30.7063   25.7779 H   0  0  0  0  0  0
  -24.8910  -32.2886   26.4875 H   0  0  0  0  0  0
  -25.8050  -30.8906   27.0235 H   0  0  0  0  0  0
  -26.2947  -29.6753   24.1232 H   0  0  0  0  0  0
  -27.4046  -29.7283   25.4728 H   0  0  0  0  0  0
  -27.8816  -30.4302   23.9454 H   0  0  0  0  0  0
  -27.2694  -33.3640   26.2058 H   0  0  0  0  0  0
  -28.3883  -32.6857   25.0329 H   0  0  0  0  0  0
  -28.0726  -31.8460   26.5428 H   0  0  0  0  0  0
  -28.2586  -38.0110   24.7550 H   0  0  0  0  0  0
  -28.1098  -36.2643   24.6241 H   0  0  0  0  0  0
  -27.2303  -37.1386   25.8863 H   0  0  0  0  0  0
  -20.9373  -29.8768   21.6882 H   0  0  0  0  0  0
  -26.0169  -38.2851   24.1439 H   0  0  0  0  0  0
  -29.9054  -19.5027   18.3998 H   0  0  0  0  0  0
  -29.8678  -17.0665   18.6532 H   0  0  0  0  0  0
  -26.1083  -22.9608   20.1085 H   0  0  0  0  0  0
  -25.8663  -22.7507   21.8206 H   0  0  0  0  0  0
  -27.4959  -24.6248   22.2768 H   0  0  0  0  0  0
  -26.1281  -25.1221   21.3224 H   0  0  0  0  0  0
  -27.5141  -21.1302   20.7058 H   0  0  0  0  0  0
  -28.0433  -21.9068   22.1755 H   0  0  0  0  0  0
  -27.5519  -24.7253   19.2147 H   0  0  0  0  0  0
  -30.2111  -21.2822   22.8401 H   0  0  0  0  0  0
  -30.8883  -19.9061   23.6650 H   0  0  0  0  0  0
  -29.1346  -20.1555   23.6396 H   0  0  0  0  0  0
  -30.4125  -21.6478   19.2075 H   0  0  0  0  0  0
  -30.9933  -21.8551   20.8085 H   0  0  0  0  0  0
  -29.7880  -17.9724   24.1586 H   0  0  0  0  0  0
  1 25  1  0  0  0
  1 30  2  0  0  0
  1 87  1  0  0  0
  2  3  1  0  0  0
  2 25  1  0  0  0
  2 90  1  0  0  0
  2 91  1  0  0  0
  3  4  1  0  0  0
  3 92  1  0  0  0
  3 93  1  0  0  0
  4  5  1  0  0  0
  4 94  1  0  0  0
  4 95  1  0  0  0
  5  6  1  0  0  0
  5 26  1  0  0  0
  5 96  1  0  0  0
  6 25  1  0  0  0
  6 97  1  0  0  0
  6 98  1  0  0  0
  7  8  2  0  0  0
  7 26  1  0  0  0
  7 29  1  0  0  0
  8  9  1  0  0  0
  8 22  1  0  0  0
  9 10  1  0  0  0
  9 27  2  0  0  0
 10 11  2  0  0  0
 10 15  1  0  0  0
 11 12  1  0  0  0
 11 99  1  0  0  0
 12 13  2  0  0  0
 12100  1  0  0  0
 13 14  1  0  0  0
 13 31  1  0  0  0
 14 15  2  0  0  0
 14101  1  0  0  0
 15102  1  0  0  0
 16 17  2  0  0  0
 16 21  1  0  0  0
 16 31  1  0  0  0
 17 18  1  0  0  0
 17103  1  0  0  0
 18 19  2  0  0  0
 18104  1  0  0  0
 19 20  1  0  0  0
 19 24  1  0  0  0
 20 21  2  0  0  0
 20105  1  0  0  0
 21 23  1  0  0  0
 22 28  1  0  0  0
 22 32  2  0  0  0
 26 27  1  0  0  0
 28106  1  0  0  0
 28107  1  0  0  0
 29108  1  0  0  0
 29109  1  0  0  0
 33 34  1  0  0  0
 33 66  1  0  0  0
 33 70  2  0  0  0
 34 36  1  0  0  0
 34 59  1  0  0  0
 34110  1  0  0  0
 35 44  2  0  0  0
 35 45  1  0  0  0
 35 68  1  0  0  0
 36 56  1  0  0  0
 36111  1  0  0  0
 37 39  1  0  0  0
 37 47  1  0  0  0
 37 66  1  0  0  0
 37112  1  0  0  0
 38 43  2  0  0  0
 38 46  1  0  0  0
 38 47  1  0  0  0
 39 64  1  0  0  0
 39 67  2  0  0  0
 40 52  1  0  0  0
 40 53  2  0  0  0
 40 58  1  0  0  0
 41113  1  0  0  0
 41114  1  0  0  0
 41115  1  0  0  0
 41 48  1  0  0  0
 42 43  1  0  0  0
 42 66  1  0  0  0
 42116  1  0  0  0
 42117  1  0  0  0
 43 44  1  0  0  0
 44118  1  0  0  0
 45 46  2  0  0  0
 45119  1  0  0  0
 46120  1  0  0  0
 47121  1  0  0  0
 47122  1  0  0  0
 48 56  1  0  0  0
 48 65  1  0  0  0
 48123  1  0  0  0
 49 50  1  0  0  0
 49 53  1  0  0  0
 49 64  1  0  0  0
 49124  1  0  0  0
 50 51  1  0  0  0
 50125  1  0  0  0
 50126  1  0  0  0
 51 52  1  0  0  0
 51127  1  0  0  0
 51128  1  0  0  0
 52129  1  0  0  0
 52130  1  0  0  0
 53 54  1  0  0  0
 54 55  2  0  0  0
 54131  1  0  0  0
 55 57  1  0  0  0
 55132  1  0  0  0
 56 69  2  0  0  0
 57 58  2  0  0  0
 57133  1  0  0  0
 58134  1  0  0  0
 59 60  1  0  0  0
 59 61  1  0  0  0
 59 62  1  0  0  0
 60135  1  0  0  0
 60136  1  0  0  0
 60137  1  0  0  0
 61138  1  0  0  0
 61139  1  0  0  0
 61140  1  0  0  0
 62141  1  0  0  0
 62142  1  0  0  0
 62143  1  0  0  0
 63 65  1  0  0  0
 63144  1  0  0  0
 63145  1  0  0  0
 63146  1  0  0  0
 64147  1  0  0  0
 65148  1  0  0  0
 68 81  1  0  0  0
 71 72  2  0  0  0
 71 73  1  0  0  0
 71149  1  0  0  0
 72 76  1  0  0  0
 72150  1  0  0  0
 73 74  2  0  0  0
 73 83  1  0  0  0
 74 75  1  0  0  0
 74 82  1  0  0  0
 75 76  2  0  0  0
 75 84  1  0  0  0
 76 87  1  0  0  0
 77 81  1  0  0  0
 77 85  1  0  0  0
 77 86  2  0  0  0
 78 79  1  0  0  0
 78 80  1  0  0  0
 78151  1  0  0  0
 78152  1  0  0  0
 79 81  1  0  0  0
 79153  1  0  0  0
 79154  1  0  0  0
 80 85  1  0  0  0
 80155  1  0  0  0
 80156  1  0  0  0
 81157  1  0  0  0
 82158  1  0  0  0
 82159  1  0  0  0
 82160  1  0  0  0
 83 85  1  0  0  0
 83161  1  0  0  0
 83162  1  0  0  0
 84 88  1  0  0  0
 84 89  1  0  0  0
 84163  1  0  0  0
M  ISO  4   1 100  68 101  81 101  87 100
M  END
> <chiral flag>
0

> <version>
0

> <s_m_source_file>
/data/baiqing/PycharmProjects/Reinvent-master-3.2/result/LINK_invent/BTK/process_docking_weight1_custom_product_contain_oxygen_bond_distance_aromatic_linkinvent_7_9_3/rearranged_h_0043.sdf

> <i_m_source_file_index>
3

> <r_mmod_Potential_Energy-OPLS-2005>
199.131256103516

> <r_mmod_Stretch_Energy-OPLS-2005>
99.8413696289062

> <r_mmod_Bend_Energy-OPLS-2005>
147.744705200195

> <r_mmod_Torsional_Energy-OPLS-2005>
203.234848022461

> <r_mmod_Improper_Torsional_Energy-OPLS-2005>
5.36213064193726

> <r_mmod_Van_der_Waal_Energy-OPLS-2005>
157.031188964844

> <r_mmod_Electrostatic_Energy-OPLS-2005>
-251.846160888672

> <r_mmod_Solvation_Energy-OPLS-2005>
-217.762313842773

> <b_mmod_Minimization_Converged-OPLS-2005>
0

> <r_mmod_RMS_Derivative-OPLS-2005>
0.949716210365295

$$$$
3
                    3D
 Structure written by MMmdl.
159167  0  0  1  0            999 V2000
  -30.6494  -14.5780   20.4740 C   0  0  0  0  0  0
  -30.4355  -12.3414   19.4555 C   0  0  0  0  0  0
  -29.5065  -12.4549   18.2268 C   0  0  0  0  0  0
  -28.0207  -12.3552   18.6312 C   0  0  0  0  0  0
  -27.6549  -13.2045   19.8792 C   0  0  2  0  0  0
  -28.7052  -13.0442   21.0006 C   0  0  0  0  0  0
  -25.2574  -13.8137   20.5736 C   0  0  0  0  0  0
  -24.1810  -13.0432   20.9227 C   0  0  0  0  0  0
  -24.6364  -11.6893   20.8770 C   0  0  0  0  0  0
  -23.9030  -10.4279   21.0425 C   0  0  0  0  0  0
  -24.3583   -9.4202   21.9198 C   0  0  0  0  0  0
  -23.6272   -8.2232   22.0767 C   0  0  0  0  0  0
  -22.4247   -8.0276   21.3556 C   0  0  0  0  0  0
  -21.9889   -9.0245   20.4659 C   0  0  0  0  0  0
  -22.7213  -10.2124   20.3060 C   0  0  0  0  0  0
  -21.6847   -6.0727   22.5272 C   0  0  0  0  0  0
  -21.4006   -6.5625   23.8207 C   0  0  0  0  0  0
  -21.3667   -5.6780   24.9172 C   0  0  0  0  0  0
  -21.6049   -4.3037   24.7223 C   0  0  0  0  0  0
  -21.8819   -3.8139   23.4338 C   0  0  0  0  0  0
  -21.9191   -4.6956   22.3395 C   0  0  0  0  0  0
  -22.7834  -13.5241   21.1861 C   0  0  0  0  0  0
  -22.1659   -4.2156   21.0973 F   0  0  0  0  0  0
  -21.5642   -3.4516   25.7732 F   0  0  0  0  0  0
  -30.0236  -13.3651   20.4303 N   0  0  0  0  0  0
  -26.2994  -12.9284   20.3421 N   0  0  0  0  0  0
  -25.9290  -11.6456   20.5822 N   0  0  0  0  0  0
  -22.0402  -12.8268   22.0397 N   0  0  0  0  0  0
  -25.4341  -15.1862   20.4132 N   0  0  0  0  0  0
  -31.8122  -14.7324   20.0860 O   0  0  0  0  0  0
  -21.6624   -6.8864   21.4236 O   0  0  0  0  0  0
  -22.3537  -14.5556   20.6704 O   0  0  0  0  0  0
  -24.6190  -31.8646   23.2099 C   0  0  0  0  0  0
  -25.9069  -32.4800   23.8409 C   0  0  1  0  0  0
  -27.2314  -27.3768   20.1296 C   0  0  0  0  0  0
  -25.5913  -33.8602   24.2321 N   0  0  0  0  0  0
  -23.4101  -30.4895   21.5469 C   0  0  2  0  0  0
  -24.8605  -28.9554   20.1097 C   0  0  0  0  0  0
  -22.7427  -29.4645   22.4940 C   0  0  0  0  0  0
  -18.0268  -28.1362   22.8471 C   0  0  0  0  0  0
  -24.1469  -36.7289   23.2646 C   0  0  0  0  0  0
  -25.9468  -30.8107   21.3819 C   0  0  0  0  0  0
  -26.0197  -29.4452   20.7229 C   0  0  0  0  0  0
  -27.2029  -28.6629   20.7311 C   0  0  0  0  0  0
  -26.0588  -26.9377   19.4682 C   0  0  0  0  0  0
  -24.8799  -27.7041   19.4754 C   0  0  0  0  0  0
  -23.6263  -29.8284   20.1587 C   0  0  0  0  0  0
  -25.4097  -36.3095   24.0340 C   0  0  1  0  0  0
  -20.5860  -28.3663   23.1284 C   0  0  2  0  0  0
  -20.6753  -26.9392   22.5407 C   0  0  0  0  0  0
  -19.5739  -26.6370   21.5191 C   0  0  0  0  0  0
  -18.1913  -26.7913   22.1601 C   0  0  0  0  0  0
  -19.1521  -28.8830   23.2878 C   0  0  0  0  0  0
  -18.9455  -30.1427   23.8894 C   0  0  0  0  0  0
  -17.6471  -30.6577   24.0545 C   0  0  0  0  0  0
  -25.9028  -34.9467   23.5121 C   0  0  0  0  0  0
  -16.5353  -29.9078   23.6332 C   0  0  0  0  0  0
  -16.7263  -28.6490   23.0359 C   0  0  0  0  0  0
  -26.4472  -31.6614   25.0775 C   0  0  0  0  0  0
  -25.3739  -31.3745   26.1532 C   0  0  0  0  0  0
  -27.0342  -30.3044   24.6248 C   0  0  0  0  0  0
  -27.6012  -32.4374   25.7559 C   0  0  0  0  0  0
  -27.5562  -37.1814   24.8460 C   0  0  0  0  0  0
  -21.4153  -29.3038   22.3689 N   0  0  0  0  0  0
  -26.4271  -37.3794   23.9408 N   0  0  0  0  0  0
  -24.6750  -31.0719   22.1018 N   0  0  0  0  0  0
  -23.4187  -28.8173   23.2988 O   0  0  0  0  0  0
  -28.3849  -26.6004   20.2203 O   0  0  0  0  0  0
  -26.5585  -34.8923   22.4676 O   0  0  0  0  0  0
  -23.5370  -32.1424   23.7453 O   0  0  0  0  0  0
  -29.7532  -19.6435   19.2300 C   0  0  0  0  0  0
  -29.5454  -18.5418   18.3870 C   0  0  0  0  0  0
  -30.0796  -18.1170   21.1021 C   0  0  0  0  0  0
  -30.0441  -19.4552   20.5916 C   0  0  0  0  0  0
  -29.6263  -17.2195   18.8741 C   0  0  0  0  0  0
  -29.8915  -16.9784   20.2542 C   0  0  0  0  0  0
  -29.4278  -16.1092   17.8571 C   0  0  0  0  0  0
  -30.4575  -20.6859   21.4315 C   0  0  0  0  0  0
  -28.9910  -24.2414   21.0583 C   0  0  0  0  0  0
  -29.1329  -22.7408   20.6070 C   0  0  0  0  0  0
  -28.3340  -25.1627   19.9767 C   0  0  0  0  0  0
  -29.8687  -15.6393   20.8093 N   0  0  0  0  0  0
  -29.4418  -21.7565   21.6942 N   0  3  0  0  0  0
  -31.4785  -12.4491   19.1540 H   0  0  0  0  0  0
  -30.3607  -11.3507   19.9052 H   0  0  0  0  0  0
  -29.7470  -11.6706   17.5082 H   0  0  0  0  0  0
  -29.6866  -13.3909   17.7058 H   0  0  0  0  0  0
  -27.8130  -11.3026   18.8283 H   0  0  0  0  0  0
  -27.3858  -12.6394   17.7913 H   0  0  0  0  0  0
  -27.6698  -14.2458   19.5792 H   0  0  0  0  0  0
  -28.6974  -12.0213   21.3813 H   0  0  0  0  0  0
  -28.4688  -13.6783   21.8557 H   0  0  0  0  0  0
  -25.2715   -9.5704   22.4788 H   0  0  0  0  0  0
  -23.9995   -7.4620   22.7463 H   0  0  0  0  0  0
  -21.0842   -8.8770   19.8935 H   0  0  0  0  0  0
  -22.3692  -10.9671   19.6164 H   0  0  0  0  0  0
  -21.1980   -7.6128   23.9723 H   0  0  0  0  0  0
  -21.1502   -6.0495   25.9081 H   0  0  0  0  0  0
  -22.0597   -2.7605   23.2825 H   0  0  0  0  0  0
  -22.3912  -11.9913   22.4854 H   0  0  0  0  0  0
  -21.1005  -13.1344   22.2492 H   0  0  0  0  0  0
  -24.6855  -15.8556   20.5540 H   0  0  0  0  0  0
  -26.2922  -15.6173   20.0950 H   0  0  0  0  0  0
  -26.7146  -32.5482   23.1172 H   0  0  0  0  0  0
  -25.0090  -33.9758   25.0487 H   0  0  0  0  0  0
  -22.7010  -31.3079   21.4061 H   0  0  0  0  0  0
  -23.3740  -35.9609   23.3320 H   0  0  0  0  0  0
  -24.3566  -36.8895   22.2056 H   0  0  0  0  0  0
  -23.7217  -37.6495   23.6659 H   0  0  0  0  0  0
  -26.0903  -31.5817   20.6233 H   0  0  0  0  0  0
  -26.8220  -30.8443   22.0200 H   0  0  0  0  0  0
  -28.0888  -29.0308   21.2300 H   0  0  0  0  0  0
  -26.0170  -26.0043   18.9299 H   0  0  0  0  0  0
  -23.9964  -27.3272   18.9789 H   0  0  0  0  0  0
  -23.7463  -30.6075   19.4048 H   0  0  0  0  0  0
  -22.7492  -29.2559   19.8522 H   0  0  0  0  0  0
  -25.1276  -36.1945   25.0838 H   0  0  0  0  0  0
  -20.9948  -28.3239   24.1407 H   0  0  0  0  0  0
  -20.5616  -26.2279   23.3603 H   0  0  0  0  0  0
  -21.6635  -26.7404   22.1234 H   0  0  0  0  0  0
  -19.6898  -25.6274   21.1239 H   0  0  0  0  0  0
  -19.6682  -27.3164   20.6704 H   0  0  0  0  0  0
  -17.4181  -26.6647   21.4007 H   0  0  0  0  0  0
  -18.0321  -26.0057   22.9001 H   0  0  0  0  0  0
  -19.7947  -30.7221   24.2289 H   0  0  0  0  0  0
  -17.5038  -31.6269   24.5128 H   0  0  0  0  0  0
  -15.5355  -30.2978   23.7669 H   0  0  0  0  0  0
  -15.8663  -28.0806   22.7101 H   0  0  0  0  0  0
  -24.5863  -30.7141   25.7891 H   0  0  0  0  0  0
  -24.8997  -32.2916   26.5036 H   0  0  0  0  0  0
  -25.8096  -30.8877   27.0265 H   0  0  0  0  0  0
  -26.2948  -29.6808   24.1213 H   0  0  0  0  0  0
  -27.3973  -29.7286   25.4770 H   0  0  0  0  0  0
  -27.8837  -30.4343   23.9542 H   0  0  0  0  0  0
  -27.2579  -33.3648   26.2160 H   0  0  0  0  0  0
  -28.3813  -32.6993   25.0402 H   0  0  0  0  0  0
  -28.0700  -31.8517   26.5475 H   0  0  0  0  0  0
  -28.2577  -38.0110   24.7507 H   0  0  0  0  0  0
  -28.1051  -36.2643   24.6266 H   0  0  0  0  0  0
  -27.2288  -37.1455   25.8866 H   0  0  0  0  0  0
  -20.9302  -29.8795   21.6947 H   0  0  0  0  0  0
  -26.0144  -38.2866   24.1412 H   0  0  0  0  0  0
  -29.7247  -20.6366   18.8030 H   0  0  0  0  0  0
  -29.3380  -18.7240   17.3432 H   0  0  0  0  0  0
  -30.2942  -17.9596   22.1499 H   0  0  0  0  0  0
  -29.1613  -16.5094   16.8784 H   0  0  0  0  0  0
  -28.6261  -15.4370   18.1434 H   0  0  0  0  0  0
  -30.3505  -15.5438   17.7311 H   0  0  0  0  0  0
  -31.3277  -21.1412   20.9572 H   0  0  0  0  0  0
  -30.8184  -20.3288   22.3962 H   0  0  0  0  0  0
  -29.9759  -24.6289   21.3234 H   0  0  0  0  0  0
  -28.3884  -24.2989   21.9662 H   0  0  0  0  0  0
  -29.8968  -22.6921   19.8324 H   0  0  0  0  0  0
  -28.2053  -22.4106   20.1382 H   0  0  0  0  0  0
  -27.3221  -24.7789   19.8846 H   0  0  0  0  0  0
  -28.8157  -24.9876   19.0143 H   0  0  0  0  0  0
  -29.0057  -15.3790   21.2602 H   0  0  0  0  0  0
  -29.8068  -22.2853   22.4695 H   0  0  0  0  0  0
  -28.5917  -21.3264   22.0181 H   0  0  0  0  0  0
  1 25  1  0  0  0
  1 30  2  0  0  0
  1 82  1  0  0  0
  2  3  1  0  0  0
  2 25  1  0  0  0
  2 84  1  0  0  0
  2 85  1  0  0  0
  3  4  1  0  0  0
  3 86  1  0  0  0
  3 87  1  0  0  0
  4  5  1  0  0  0
  4 88  1  0  0  0
  4 89  1  0  0  0
  5  6  1  0  0  0
  5 26  1  0  0  0
  5 90  1  0  0  0
  6 25  1  0  0  0
  6 91  1  0  0  0
  6 92  1  0  0  0
  7  8  2  0  0  0
  7 26  1  0  0  0
  7 29  1  0  0  0
  8  9  1  0  0  0
  8 22  1  0  0  0
  9 10  1  0  0  0
  9 27  2  0  0  0
 10 11  2  0  0  0
 10 15  1  0  0  0
 11 12  1  0  0  0
 11 93  1  0  0  0
 12 13  2  0  0  0
 12 94  1  0  0  0
 13 14  1  0  0  0
 13 31  1  0  0  0
 14 15  2  0  0  0
 14 95  1  0  0  0
 15 96  1  0  0  0
 16 17  2  0  0  0
 16 21  1  0  0  0
 16 31  1  0  0  0
 17 18  1  0  0  0
 17 97  1  0  0  0
 18 19  2  0  0  0
 18 98  1  0  0  0
 19 20  1  0  0  0
 19 24  1  0  0  0
 20 21  2  0  0  0
 20 99  1  0  0  0
 21 23  1  0  0  0
 22 28  1  0  0  0
 22 32  2  0  0  0
 26 27  1  0  0  0
 28100  1  0  0  0
 28101  1  0  0  0
 29102  1  0  0  0
 29103  1  0  0  0
 33 34  1  0  0  0
 33 66  1  0  0  0
 33 70  2  0  0  0
 34 36  1  0  0  0
 34 59  1  0  0  0
 34104  1  0  0  0
 35 44  2  0  0  0
 35 45  1  0  0  0
 35 68  1  0  0  0
 36 56  1  0  0  0
 36105  1  0  0  0
 37 39  1  0  0  0
 37 47  1  0  0  0
 37 66  1  0  0  0
 37106  1  0  0  0
 38 43  2  0  0  0
 38 46  1  0  0  0
 38 47  1  0  0  0
 39 64  1  0  0  0
 39 67  2  0  0  0
 40 52  1  0  0  0
 40 53  2  0  0  0
 40 58  1  0  0  0
 41107  1  0  0  0
 41108  1  0  0  0
 41109  1  0  0  0
 41 48  1  0  0  0
 42 43  1  0  0  0
 42 66  1  0  0  0
 42110  1  0  0  0
 42111  1  0  0  0
 43 44  1  0  0  0
 44112  1  0  0  0
 45 46  2  0  0  0
 45113  1  0  0  0
 46114  1  0  0  0
 47115  1  0  0  0
 47116  1  0  0  0
 48 56  1  0  0  0
 48 65  1  0  0  0
 48117  1  0  0  0
 49 50  1  0  0  0
 49 53  1  0  0  0
 49 64  1  0  0  0
 49118  1  0  0  0
 50 51  1  0  0  0
 50119  1  0  0  0
 50120  1  0  0  0
 51 52  1  0  0  0
 51121  1  0  0  0
 51122  1  0  0  0
 52123  1  0  0  0
 52124  1  0  0  0
 53 54  1  0  0  0
 54 55  2  0  0  0
 54125  1  0  0  0
 55 57  1  0  0  0
 55126  1  0  0  0
 56 69  2  0  0  0
 57 58  2  0  0  0
 57127  1  0  0  0
 58128  1  0  0  0
 59 60  1  0  0  0
 59 61  1  0  0  0
 59 62  1  0  0  0
 60129  1  0  0  0
 60130  1  0  0  0
 60131  1  0  0  0
 61132  1  0  0  0
 61133  1  0  0  0
 61134  1  0  0  0
 62135  1  0  0  0
 62136  1  0  0  0
 62137  1  0  0  0
 63 65  1  0  0  0
 63138  1  0  0  0
 63139  1  0  0  0
 63140  1  0  0  0
 64141  1  0  0  0
 65142  1  0  0  0
 68 81  1  0  0  0
 71 72  2  0  0  0
 71 74  1  0  0  0
 71143  1  0  0  0
 72 75  1  0  0  0
 72144  1  0  0  0
 73 74  2  0  0  0
 73 76  1  0  0  0
 73145  1  0  0  0
 74 78  1  0  0  0
 75 76  2  0  0  0
 75 77  1  0  0  0
 76 82  1  0  0  0
 77146  1  0  0  0
 77147  1  0  0  0
 77148  1  0  0  0
 78 83  1  0  0  0
 78149  1  0  0  0
 78150  1  0  0  0
 79 80  1  0  0  0
 79 81  1  0  0  0
 79151  1  0  0  0
 79152  1  0  0  0
 80 83  1  0  0  0
 80153  1  0  0  0
 80154  1  0  0  0
 81155  1  0  0  0
 81156  1  0  0  0
 82157  1  0  0  0
 83158  1  0  0  0
 83159  1  0  0  0
M  CHG  1  83   1
M  ISO  4   1 100  68 101  81 101  82 100
M  END
> <chiral flag>
0

> <version>
0

> <s_m_source_file>
/data/baiqing/PycharmProjects/Reinvent-master-3.2/result/LINK_invent/BTK/process_docking_weight1_custom_product_contain_oxygen_bond_distance_aromatic_linkinvent_7_9_3/rearranged_h_0043.sdf

> <i_m_source_file_index>
4

> <r_mmod_Potential_Energy-OPLS-2005>
-195.242248535156

> <r_mmod_Stretch_Energy-OPLS-2005>
54.0150680541992

> <r_mmod_Bend_Energy-OPLS-2005>
122.050567626953

> <r_mmod_Torsional_Energy-OPLS-2005>
249.226974487305

> <r_mmod_Improper_Torsional_Energy-OPLS-2005>
5.53120994567871

> <r_mmod_Van_der_Waal_Energy-OPLS-2005>
147.071975708008

> <r_mmod_Electrostatic_Energy-OPLS-2005>
-320.497589111328

> <r_mmod_Solvation_Energy-OPLS-2005>
-485.327697753906

> <b_mmod_Minimization_Converged-OPLS-2005>
0

> <r_mmod_RMS_Derivative-OPLS-2005>
2.98291420936584

$$$$
4
                    3D
 Structure written by MMmdl.
157165  0  0  1  0            999 V2000
  -30.6264  -14.7525   20.4105 C   0  0  0  0  0  0
  -30.4251  -12.4503   19.4725 C   0  0  0  0  0  0
  -29.5051  -12.4999   18.2345 C   0  0  0  0  0  0
  -28.0328  -12.3292   18.6529 C   0  0  0  0  0  0
  -27.6379  -13.2395   19.8469 C   0  0  2  0  0  0
  -28.6866  -13.1977   20.9797 C   0  0  0  0  0  0
  -25.2430  -13.8162   20.5632 C   0  0  0  0  0  0
  -24.1753  -13.0405   20.9183 C   0  0  0  0  0  0
  -24.6391  -11.6899   20.8753 C   0  0  0  0  0  0
  -23.9077  -10.4275   21.0401 C   0  0  0  0  0  0
  -24.3617   -9.4190   21.9187 C   0  0  0  0  0  0
  -23.6291   -8.2228   22.0756 C   0  0  0  0  0  0
  -22.4280   -8.0262   21.3535 C   0  0  0  0  0  0
  -21.9909   -9.0239   20.4639 C   0  0  0  0  0  0
  -22.7243  -10.2119   20.3052 C   0  0  0  0  0  0
  -21.6850   -6.0726   22.5280 C   0  0  0  0  0  0
  -21.4014   -6.5635   23.8208 C   0  0  0  0  0  0
  -21.3666   -5.6787   24.9172 C   0  0  0  0  0  0
  -21.6042   -4.3051   24.7224 C   0  0  0  0  0  0
  -21.8822   -3.8139   23.4347 C   0  0  0  0  0  0
  -21.9194   -4.6956   22.3399 C   0  0  0  0  0  0
  -22.7777  -13.5178   21.1867 C   0  0  0  0  0  0
  -22.1660   -4.2137   21.0981 F   0  0  0  0  0  0
  -21.5632   -3.4538   25.7740 F   0  0  0  0  0  0
  -29.9885  -13.5308   20.3874 N   0  0  0  0  0  0
  -26.2922  -12.9429   20.3295 N   0  0  0  0  0  0
  -25.9339  -11.6562   20.5788 N   0  0  0  0  0  0
  -22.0446  -12.8168   22.0434 N   0  0  0  0  0  0
  -25.3956  -15.1871   20.3981 N   0  0  0  0  0  0
  -31.8295  -14.7973   20.1421 O   0  0  0  0  0  0
  -21.6638   -6.8868   21.4238 O   0  0  0  0  0  0
  -22.3454  -14.5487   20.6726 O   0  0  0  0  0  0
  -24.6292  -31.8537   23.1968 C   0  0  0  0  0  0
  -25.9131  -32.4731   23.8297 C   0  0  1  0  0  0
  -27.2265  -27.2739   20.1023 C   0  0  0  0  0  0
  -25.5953  -33.8536   24.2226 N   0  0  0  0  0  0
  -23.4254  -30.4736   21.5396 C   0  0  2  0  0  0
  -24.8741  -28.9234   20.1028 C   0  0  0  0  0  0
  -22.7488  -29.4566   22.4893 C   0  0  0  0  0  0
  -18.0281  -28.1380   22.8472 C   0  0  0  0  0  0
  -24.1505  -36.7288   23.2636 C   0  0  0  0  0  0
  -25.9685  -30.7681   21.3758 C   0  0  0  0  0  0
  -26.0420  -29.3910   20.7151 C   0  0  0  0  0  0
  -27.2162  -28.5751   20.7095 C   0  0  0  0  0  0
  -26.0305  -26.8648   19.4703 C   0  0  0  0  0  0
  -24.8720  -27.6686   19.4729 C   0  0  0  0  0  0
  -23.6464  -29.8124   20.1523 C   0  0  0  0  0  0
  -25.4128  -36.3039   24.0309 C   0  0  1  0  0  0
  -20.5879  -28.3681   23.1283 C   0  0  2  0  0  0
  -20.6772  -26.9398   22.5420 C   0  0  0  0  0  0
  -19.5760  -26.6379   21.5212 C   0  0  0  0  0  0
  -18.1931  -26.7926   22.1605 C   0  0  0  0  0  0
  -19.1533  -28.8849   23.2872 C   0  0  0  0  0  0
  -18.9461  -30.1443   23.8897 C   0  0  0  0  0  0
  -17.6463  -30.6593   24.0555 C   0  0  0  0  0  0
  -25.9065  -34.9417   23.5067 C   0  0  0  0  0  0
  -16.5349  -29.9096   23.6322 C   0  0  0  0  0  0
  -16.7268  -28.6511   23.0347 C   0  0  0  0  0  0
  -26.4520  -31.6554   25.0674 C   0  0  0  0  0  0
  -25.3757  -31.3715   26.1404 C   0  0  0  0  0  0
  -27.0366  -30.2971   24.6142 C   0  0  0  0  0  0
  -27.6078  -32.4287   25.7456 C   0  0  0  0  0  0
  -27.5587  -37.1781   24.8447 C   0  0  0  0  0  0
  -21.4192  -29.3036   22.3676 N   0  0  0  0  0  0
  -26.4284  -37.3755   23.9414 N   0  0  0  0  0  0
  -24.6930  -31.0493   22.0944 N   0  0  0  0  0  0
  -23.4194  -28.8102   23.2980 O   0  0  0  0  0  0
  -28.3513  -26.4240   20.1757 O   0  0  0  0  0  0
  -26.5636  -34.8890   22.4627 O   0  0  0  0  0  0
  -23.5447  -32.1377   23.7262 O   0  0  0  0  0  0
  -31.6102  -19.0542   19.2493 C   0  0  0  0  0  0
  -30.7369  -20.1082   19.5636 C   0  0  0  0  0  0
  -31.3007  -17.7200   19.5710 C   0  0  0  0  0  0
  -29.5011  -19.8721   20.1966 C   0  0  0  0  0  0
  -29.1829  -18.4713   20.5333 C   0  0  0  0  0  0
  -30.1050  -17.3576   20.2396 C   0  0  0  0  0  0
  -28.2702  -23.7489   20.3120 C   0  0  0  0  0  0
  -27.7233  -18.5681   22.6693 C   0  0  0  0  0  0
  -28.5900  -21.1569   20.4999 C   0  0  0  0  0  0
  -28.4740  -25.1008   19.4754 C   0  0  0  0  0  0
  -27.8199  -18.1689   21.1901 C   0  0  0  0  0  0
  -29.8571  -15.9085   20.5447 N   0  0  0  0  0  0
  -28.8851  -22.5566   19.9563 N   0  0  0  0  0  0
  -27.4954  -23.7728   21.2704 O   0  0  0  0  0  0
  -27.5274  -16.8722   21.1526 F   0  0  0  0  0  0
  -26.8468  -18.7791   20.5170 F   0  0  0  0  0  0
  -31.4679  -12.5563   19.1682 H   0  0  0  0  0  0
  -30.3548  -11.4800   19.9658 H   0  0  0  0  0  0
  -29.7811  -11.7212   17.5222 H   0  0  0  0  0  0
  -29.6327  -13.4511   17.7158 H   0  0  0  0  0  0
  -27.8925  -11.2824   18.9252 H   0  0  0  0  0  0
  -27.3720  -12.5094   17.8041 H   0  0  0  0  0  0
  -27.6214  -14.2560   19.4529 H   0  0  0  0  0  0
  -28.7207  -12.2131   21.4470 H   0  0  0  0  0  0
  -28.4302  -13.9072   21.7685 H   0  0  0  0  0  0
  -25.2758   -9.5675   22.4768 H   0  0  0  0  0  0
  -23.9993   -7.4624   22.7485 H   0  0  0  0  0  0
  -21.0836   -8.8760   19.8947 H   0  0  0  0  0  0
  -22.3693  -10.9657   19.6161 H   0  0  0  0  0  0
  -21.2007   -7.6138   23.9707 H   0  0  0  0  0  0
  -21.1486   -6.0518   25.9073 H   0  0  0  0  0  0
  -22.0597   -2.7598   23.2851 H   0  0  0  0  0  0
  -22.4077  -11.9821   22.4791 H   0  0  0  0  0  0
  -21.1077  -13.1185   22.2691 H   0  0  0  0  0  0
  -24.6215  -15.8284   20.5232 H   0  0  0  0  0  0
  -26.2610  -15.6554   20.1625 H   0  0  0  0  0  0
  -26.7173  -32.5383   23.1016 H   0  0  0  0  0  0
  -25.0096  -33.9677   25.0365 H   0  0  0  0  0  0
  -22.7226  -31.2956   21.3934 H   0  0  0  0  0  0
  -23.3751  -35.9628   23.3255 H   0  0  0  0  0  0
  -24.3616  -36.8971   22.2060 H   0  0  0  0  0  0
  -23.7255  -37.6471   23.6707 H   0  0  0  0  0  0
  -26.1004  -31.5304   20.6078 H   0  0  0  0  0  0
  -26.8480  -30.8201   22.0060 H   0  0  0  0  0  0
  -28.1115  -28.9265   21.2058 H   0  0  0  0  0  0
  -25.9506  -25.9017   18.9917 H   0  0  0  0  0  0
  -23.9747  -27.3068   18.9892 H   0  0  0  0  0  0
  -23.7792  -30.5947   19.4034 H   0  0  0  0  0  0
  -22.7645  -29.2529   19.8369 H   0  0  0  0  0  0
  -25.1300  -36.1875   25.0797 H   0  0  0  0  0  0
  -20.9941  -28.3256   24.1417 H   0  0  0  0  0  0
  -20.5692  -26.2276   23.3620 H   0  0  0  0  0  0
  -21.6645  -26.7462   22.1208 H   0  0  0  0  0  0
  -19.6939  -25.6296   21.1251 H   0  0  0  0  0  0
  -19.6720  -27.3183   20.6737 H   0  0  0  0  0  0
  -17.4212  -26.6663   21.3998 H   0  0  0  0  0  0
  -18.0319  -26.0070   22.9003 H   0  0  0  0  0  0
  -19.7943  -30.7231   24.2296 H   0  0  0  0  0  0
  -17.5038  -31.6284   24.5142 H   0  0  0  0  0  0
  -15.5359  -30.3005   23.7670 H   0  0  0  0  0  0
  -15.8655  -28.0846   22.7064 H   0  0  0  0  0  0
  -24.5911  -30.7086   25.7742 H   0  0  0  0  0  0
  -24.8973  -32.2896   26.4831 H   0  0  0  0  0  0
  -25.8073  -30.8888   27.0182 H   0  0  0  0  0  0
  -26.2927  -29.6691   24.1221 H   0  0  0  0  0  0
  -27.4131  -29.7249   25.4635 H   0  0  0  0  0  0
  -27.8775  -30.4244   23.9311 H   0  0  0  0  0  0
  -27.2700  -33.3612   26.1994 H   0  0  0  0  0  0
  -28.3926  -32.6806   25.0309 H   0  0  0  0  0  0
  -28.0701  -31.8425   26.5415 H   0  0  0  0  0  0
  -28.2533  -38.0142   24.7553 H   0  0  0  0  0  0
  -28.1148  -36.2671   24.6195 H   0  0  0  0  0  0
  -27.2321  -37.1333   25.8849 H   0  0  0  0  0  0
  -20.9369  -29.8817   21.6944 H   0  0  0  0  0  0
  -26.0148  -38.2808   24.1480 H   0  0  0  0  0  0
  -32.5438  -19.2761   18.7498 H   0  0  0  0  0  0
  -31.0352  -21.1147   19.3039 H   0  0  0  0  0  0
  -32.0232  -16.9775   19.2705 H   0  0  0  0  0  0
  -28.4533  -18.0345   23.2763 H   0  0  0  0  0  0
  -26.7346  -18.3245   23.0601 H   0  0  0  0  0  0
  -27.8705  -19.6323   22.8292 H   0  0  0  0  0  0
  -28.5383  -21.2635   21.5816 H   0  0  0  0  0  0
  -27.5761  -20.9401   20.1688 H   0  0  0  0  0  0
  -27.8522  -25.0673   18.5820 H   0  0  0  0  0  0
  -29.4916  -25.0657   19.0868 H   0  0  0  0  0  0
  -28.9069  -15.7128   20.8222 H   0  0  0  0  0  0
  -29.5381  -22.6096   19.1862 H   0  0  0  0  0  0
  1 25  1  0  0  0
  1 30  2  0  0  0
  1 82  1  0  0  0
  2  3  1  0  0  0
  2 25  1  0  0  0
  2 87  1  0  0  0
  2 88  1  0  0  0
  3  4  1  0  0  0
  3 89  1  0  0  0
  3 90  1  0  0  0
  4  5  1  0  0  0
  4 91  1  0  0  0
  4 92  1  0  0  0
  5  6  1  0  0  0
  5 26  1  0  0  0
  5 93  1  0  0  0
  6 25  1  0  0  0
  6 94  1  0  0  0
  6 95  1  0  0  0
  7  8  2  0  0  0
  7 26  1  0  0  0
  7 29  1  0  0  0
  8  9  1  0  0  0
  8 22  1  0  0  0
  9 10  1  0  0  0
  9 27  2  0  0  0
 10 11  2  0  0  0
 10 15  1  0  0  0
 11 12  1  0  0  0
 11 96  1  0  0  0
 12 13  2  0  0  0
 12 97  1  0  0  0
 13 14  1  0  0  0
 13 31  1  0  0  0
 14 15  2  0  0  0
 14 98  1  0  0  0
 15 99  1  0  0  0
 16 17  2  0  0  0
 16 21  1  0  0  0
 16 31  1  0  0  0
 17 18  1  0  0  0
 17100  1  0  0  0
 18 19  2  0  0  0
 18101  1  0  0  0
 19 20  1  0  0  0
 19 24  1  0  0  0
 20 21  2  0  0  0
 20102  1  0  0  0
 21 23  1  0  0  0
 22 28  1  0  0  0
 22 32  2  0  0  0
 26 27  1  0  0  0
 28103  1  0  0  0
 28104  1  0  0  0
 29105  1  0  0  0
 29106  1  0  0  0
 33 34  1  0  0  0
 33 66  1  0  0  0
 33 70  2  0  0  0
 34 36  1  0  0  0
 34 59  1  0  0  0
 34107  1  0  0  0
 35 44  2  0  0  0
 35 45  1  0  0  0
 35 68  1  0  0  0
 36 56  1  0  0  0
 36108  1  0  0  0
 37 39  1  0  0  0
 37 47  1  0  0  0
 37 66  1  0  0  0
 37109  1  0  0  0
 38 43  2  0  0  0
 38 46  1  0  0  0
 38 47  1  0  0  0
 39 64  1  0  0  0
 39 67  2  0  0  0
 40 52  1  0  0  0
 40 53  2  0  0  0
 40 58  1  0  0  0
 41110  1  0  0  0
 41111  1  0  0  0
 41112  1  0  0  0
 41 48  1  0  0  0
 42 43  1  0  0  0
 42 66  1  0  0  0
 42113  1  0  0  0
 42114  1  0  0  0
 43 44  1  0  0  0
 44115  1  0  0  0
 45 46  2  0  0  0
 45116  1  0  0  0
 46117  1  0  0  0
 47118  1  0  0  0
 47119  1  0  0  0
 48 56  1  0  0  0
 48 65  1  0  0  0
 48120  1  0  0  0
 49 50  1  0  0  0
 49 53  1  0  0  0
 49 64  1  0  0  0
 49121  1  0  0  0
 50 51  1  0  0  0
 50122  1  0  0  0
 50123  1  0  0  0
 51 52  1  0  0  0
 51124  1  0  0  0
 51125  1  0  0  0
 52126  1  0  0  0
 52127  1  0  0  0
 53 54  1  0  0  0
 54 55  2  0  0  0
 54128  1  0  0  0
 55 57  1  0  0  0
 55129  1  0  0  0
 56 69  2  0  0  0
 57 58  2  0  0  0
 57130  1  0  0  0
 58131  1  0  0  0
 59 60  1  0  0  0
 59 61  1  0  0  0
 59 62  1  0  0  0
 60132  1  0  0  0
 60133  1  0  0  0
 60134  1  0  0  0
 61135  1  0  0  0
 61136  1  0  0  0
 61137  1  0  0  0
 62138  1  0  0  0
 62139  1  0  0  0
 62140  1  0  0  0
 63 65  1  0  0  0
 63141  1  0  0  0
 63142  1  0  0  0
 63143  1  0  0  0
 64144  1  0  0  0
 65145  1  0  0  0
 68 80  1  0  0  0
 71 72  2  0  0  0
 71 73  1  0  0  0
 71146  1  0  0  0
 72 74  1  0  0  0
 72147  1  0  0  0
 73 76  2  0  0  0
 73148  1  0  0  0
 74 75  2  0  0  0
 74 79  1  0  0  0
 75 76  1  0  0  0
 75 81  1  0  0  0
 76 82  1  0  0  0
 77 80  1  0  0  0
 77 83  1  0  0  0
 77 84  2  0  0  0
 78149  1  0  0  0
 78150  1  0  0  0
 78151  1  0  0  0
 78 81  1  0  0  0
 79 83  1  0  0  0
 79152  1  0  0  0
 79153  1  0  0  0
 80154  1  0  0  0
 80155  1  0  0  0
 81 85  1  0  0  0
 81 86  1  0  0  0
 82156  1  0  0  0
 83157  1  0  0  0
M  ISO  4   1 100  68 101  80 101  82 100
M  END
> <chiral flag>
0

> <version>
0

> <s_m_source_file>
/data/baiqing/PycharmProjects/Reinvent-master-3.2/result/LINK_invent/BTK/process_docking_weight1_custom_product_contain_oxygen_bond_distance_aromatic_linkinvent_7_9_3/rearranged_h_0043.sdf

> <i_m_source_file_index>
5

> <r_mmod_Potential_Energy-OPLS-2005>
102.521636962891

> <r_mmod_Stretch_Energy-OPLS-2005>
135.098220825195

> <r_mmod_Bend_Energy-OPLS-2005>
175.605422973633

> <r_mmod_Torsional_Energy-OPLS-2005>
207.267044067383

> <r_mmod_Improper_Torsional_Energy-OPLS-2005>
4.59356641769409

> <r_mmod_Van_der_Waal_Energy-OPLS-2005>
149.969161987305

> <r_mmod_Electrostatic_Energy-OPLS-2005>
-417.464019775391

> <r_mmod_Solvation_Energy-OPLS-2005>
-236.492950439453

> <b_mmod_Minimization_Converged-OPLS-2005>
0

> <r_mmod_RMS_Derivative-OPLS-2005>
2.45648956298828

$$$$
5
                    3D
 Structure written by MMmdl.
176185  0  0  1  0            999 V2000
  -30.7623  -14.4436   20.5167 C   0  0  0  0  0  0
  -30.3947  -12.2872   19.4050 C   0  0  0  0  0  0
  -29.4776  -12.4889   18.1847 C   0  0  0  0  0  0
  -28.0039  -12.3593   18.6047 C   0  0  0  0  0  0
  -27.6538  -13.2116   19.8551 C   0  0  2  0  0  0
  -28.7006  -13.0498   20.9805 C   0  0  0  0  0  0
  -25.2602  -13.8127   20.5719 C   0  0  0  0  0  0
  -24.1855  -13.0406   20.9202 C   0  0  0  0  0  0
  -24.6423  -11.6891   20.8796 C   0  0  0  0  0  0
  -23.9086  -10.4307   21.0505 C   0  0  0  0  0  0
  -24.3643   -9.4206   21.9263 C   0  0  0  0  0  0
  -23.6295   -8.2265   22.0830 C   0  0  0  0  0  0
  -22.4298   -8.0314   21.3596 C   0  0  0  0  0  0
  -21.9920   -9.0291   20.4711 C   0  0  0  0  0  0
  -22.7259  -10.2161   20.3126 C   0  0  0  0  0  0
  -21.6880   -6.0762   22.5289 C   0  0  0  0  0  0
  -21.4023   -6.5670   23.8191 C   0  0  0  0  0  0
  -21.3660   -5.6836   24.9157 C   0  0  0  0  0  0
  -21.6055   -4.3092   24.7241 C   0  0  0  0  0  0
  -21.8799   -3.8169   23.4357 C   0  0  0  0  0  0
  -21.9169   -4.6984   22.3402 C   0  0  0  0  0  0
  -22.7895  -13.5257   21.1850 C   0  0  0  0  0  0
  -22.1670   -4.2163   21.0990 F   0  0  0  0  0  0
  -21.5617   -3.4568   25.7751 F   0  0  0  0  0  0
  -30.0300  -13.3032   20.4075 N   0  0  0  0  0  0
  -26.3003  -12.9299   20.3280 N   0  0  0  0  0  0
  -25.9338  -11.6467   20.5781 N   0  0  0  0  0  0
  -22.0466  -12.8302   22.0388 N   0  0  0  0  0  0
  -25.4406  -15.1853   20.4252 N   0  0  0  0  0  0
  -31.9003  -14.5143   20.0524 O   0  0  0  0  0  0
  -21.6648   -6.8927   21.4273 O   0  0  0  0  0  0
  -22.3665  -14.5596   20.6697 O   0  0  0  0  0  0
  -24.6174  -31.8638   23.2072 C   0  0  0  0  0  0
  -25.9020  -32.4811   23.8424 C   0  0  1  0  0  0
  -27.2034  -27.4052   20.1811 C   0  0  0  0  0  0
  -25.5931  -33.8601   24.2403 N   0  0  0  0  0  0
  -23.4057  -30.4914   21.5420 C   0  0  2  0  0  0
  -24.8625  -28.9828   20.0742 C   0  0  0  0  0  0
  -22.7489  -29.4625   22.4881 C   0  0  0  0  0  0
  -18.0300  -28.1322   22.8499 C   0  0  0  0  0  0
  -24.1526  -36.7281   23.2634 C   0  0  0  0  0  0
  -25.9322  -30.8462   21.3501 C   0  0  0  0  0  0
  -26.0179  -29.4854   20.6892 C   0  0  0  0  0  0
  -27.1976  -28.7150   20.7283 C   0  0  0  0  0  0
  -26.0700  -26.9554   19.4715 C   0  0  0  0  0  0
  -24.8930  -27.7278   19.4369 C   0  0  0  0  0  0
  -23.6150  -29.8382   20.1428 C   0  0  0  0  0  0
  -25.4114  -36.3074   24.0374 C   0  0  1  0  0  0
  -20.5907  -28.3588   23.1224 C   0  0  2  0  0  0
  -20.6767  -26.9387   22.5174 C   0  0  0  0  0  0
  -19.5652  -26.6379   21.5074 C   0  0  0  0  0  0
  -18.1901  -26.7911   22.1513 C   0  0  0  0  0  0
  -19.1562  -28.8751   23.2936 C   0  0  0  0  0  0
  -18.9495  -30.1312   23.9068 C   0  0  0  0  0  0
  -17.6477  -30.6431   24.0674 C   0  0  0  0  0  0
  -25.9049  -34.9452   23.5157 C   0  0  0  0  0  0
  -16.5346  -29.8977   23.6345 C   0  0  0  0  0  0
  -16.7278  -28.6417   23.0350 C   0  0  0  0  0  0
  -26.4467  -31.6595   25.0725 C   0  0  0  0  0  0
  -25.3762  -31.3692   26.1516 C   0  0  0  0  0  0
  -27.0244  -30.3070   24.5987 C   0  0  0  0  0  0
  -27.6121  -32.4254   25.7432 C   0  0  0  0  0  0
  -27.5591  -37.1793   24.8448 C   0  0  0  0  0  0
  -21.4200  -29.2982   22.3639 N   0  0  0  0  0  0
  -26.4292  -37.3757   23.9404 N   0  0  0  0  0  0
  -24.6719  -31.0778   22.0949 N   0  0  0  0  0  0
  -23.4275  -28.8236   23.2943 O   0  0  0  0  0  0
  -28.1537  -26.4653   20.5376 O   0  0  0  0  0  0
  -26.5549  -34.8893   22.4701 O   0  0  0  0  0  0
  -23.5354  -32.1406   23.7440 O   0  0  0  0  0  0
  -32.0439  -17.1311   21.0945 C   0  0  0  0  0  0
  -32.5455  -18.4328   20.9954 C   0  0  0  0  0  0
  -30.2883  -19.3364   21.2161 C   0  0  0  0  0  0
  -29.7647  -18.0125   21.0563 C   0  0  0  0  0  0
  -30.6465  -16.8864   21.0309 C   0  0  0  0  0  0
  -31.6818  -19.5265   21.0185 C   0  0  0  0  0  0
  -29.4631  -20.4243   21.8346 C   0  0  0  0  0  0
  -29.9576  -21.5792   22.3433 C   0  0  0  0  0  0
  -25.6989  -25.0508   22.1027 C   0  0  0  0  0  0
  -26.6427  -26.1355   22.6265 C   0  0  0  0  0  0
  -25.7050  -23.7479   22.8963 C   0  0  0  0  0  0
  -28.8835  -24.8711   22.5188 C   0  0  0  0  0  0
  -28.0546  -26.0961   21.9732 C   0  0  1  0  0  0
  -27.0288  -23.3351   23.5648 C   0  0  2  0  0  0
  -28.2623  -17.8179   20.8584 C   0  0  0  0  0  0
  -26.8573  -22.6421   26.0650 C   0  0  0  0  0  0
  -29.2767  -22.5439   23.2931 C   0  0  0  0  0  0
  -27.1836  -23.7696   25.0610 C   0  0  0  0  0  0
  -30.1305  -15.5418   20.9894 N   0  0  0  0  0  0
  -28.2694  -23.4891   22.7177 N   0  3  2  0  0  0
  -32.2334  -20.7569   20.8940 F   0  0  0  0  0  0
  -31.4430  -12.3394   19.1022 H   0  0  0  0  0  0
  -30.2534  -11.2880   19.8117 H   0  0  0  0  0  0
  -29.7052  -11.7536   17.4138 H   0  0  0  0  0  0
  -29.6523  -13.4675   17.7314 H   0  0  0  0  0  0
  -27.7993  -11.3023   18.7878 H   0  0  0  0  0  0
  -27.3638  -12.6494   17.7718 H   0  0  0  0  0  0
  -27.6729  -14.2518   19.5277 H   0  0  0  0  0  0
  -28.6697  -12.0420   21.3896 H   0  0  0  0  0  0
  -28.4731  -13.7211   21.8092 H   0  0  0  0  0  0
  -25.2844   -9.5658   22.4736 H   0  0  0  0  0  0
  -23.9972   -7.4708   22.7590 H   0  0  0  0  0  0
  -21.0810   -8.8837   19.9096 H   0  0  0  0  0  0
  -22.3769  -10.9675   19.6182 H   0  0  0  0  0  0
  -21.2058   -7.6185   23.9690 H   0  0  0  0  0  0
  -21.1509   -6.0592   25.9051 H   0  0  0  0  0  0
  -22.0576   -2.7625   23.2851 H   0  0  0  0  0  0
  -22.3969  -11.9948   22.4872 H   0  0  0  0  0  0
  -21.1078  -13.1411   22.2499 H   0  0  0  0  0  0
  -24.7137  -15.8616   20.6199 H   0  0  0  0  0  0
  -26.3015  -15.6109   20.1154 H   0  0  0  0  0  0
  -26.7093  -32.5516   23.1188 H   0  0  0  0  0  0
  -25.0223  -33.9799   25.0630 H   0  0  0  0  0  0
  -22.6894  -31.3061   21.4109 H   0  0  0  0  0  0
  -23.3784  -35.9615   23.3256 H   0  0  0  0  0  0
  -24.3700  -36.8898   22.2057 H   0  0  0  0  0  0
  -23.7294  -37.6493   23.6646 H   0  0  0  0  0  0
  -26.0444  -31.6198   20.5893 H   0  0  0  0  0  0
  -26.8245  -30.9017   21.9631 H   0  0  0  0  0  0
  -28.0516  -29.0806   21.2794 H   0  0  0  0  0  0
  -26.0488  -25.9579   19.0512 H   0  0  0  0  0  0
  -24.0079  -27.3332   18.9600 H   0  0  0  0  0  0
  -23.7142  -30.6265   19.3933 H   0  0  0  0  0  0
  -22.7451  -29.2544   19.8342 H   0  0  0  0  0  0
  -25.1270  -36.1949   25.0876 H   0  0  0  0  0  0
  -21.0106  -28.3031   24.1278 H   0  0  0  0  0  0
  -20.5985  -26.2098   23.3269 H   0  0  0  0  0  0
  -21.6521  -26.7693   22.0581 H   0  0  0  0  0  0
  -19.6654  -25.6310   21.1041 H   0  0  0  0  0  0
  -19.6597  -27.3159   20.6597 H   0  0  0  0  0  0
  -17.4162  -26.6702   21.3924 H   0  0  0  0  0  0
  -18.0313  -26.0015   22.8867 H   0  0  0  0  0  0
  -19.7994  -30.6992   24.2675 H   0  0  0  0  0  0
  -17.4983  -31.6064   24.5370 H   0  0  0  0  0  0
  -15.5336  -30.2859   23.7643 H   0  0  0  0  0  0
  -15.8720  -28.0758   22.6939 H   0  0  0  0  0  0
  -24.5944  -30.7017   25.7872 H   0  0  0  0  0  0
  -24.8936  -32.2842   26.4964 H   0  0  0  0  0  0
  -25.8176  -30.8877   27.0255 H   0  0  0  0  0  0
  -26.2736  -29.6912   24.1033 H   0  0  0  0  0  0
  -27.4093  -29.7231   25.4348 H   0  0  0  0  0  0
  -27.8556  -30.4484   23.9076 H   0  0  0  0  0  0
  -27.2842  -33.3567   26.2067 H   0  0  0  0  0  0
  -28.3875  -32.6818   25.0182 H   0  0  0  0  0  0
  -28.0854  -31.8328   26.5254 H   0  0  0  0  0  0
  -28.2581  -38.0124   24.7507 H   0  0  0  0  0  0
  -28.1153  -36.2657   24.6251 H   0  0  0  0  0  0
  -27.2331  -37.1370   25.8865 H   0  0  0  0  0  0
  -20.9425  -29.8709   21.6846 H   0  0  0  0  0  0
  -26.0182  -38.2857   24.1367 H   0  0  0  0  0  0
  -32.7831  -16.3444   21.1546 H   0  0  0  0  0  0
  -33.6112  -18.5930   20.9469 H   0  0  0  0  0  0
  -28.4076  -20.2253   21.9609 H   0  0  0  0  0  0
  -30.9816  -21.8665   22.2151 H   0  0  0  0  0  0
  -25.9426  -24.8288   21.0660 H   0  0  0  0  0  0
  -24.6798  -25.4389   22.0831 H   0  0  0  0  0  0
  -26.7386  -26.0760   23.7084 H   0  0  0  0  0  0
  -26.1688  -27.1049   22.5065 H   0  0  0  0  0  0
  -25.3955  -22.9515   22.2114 H   0  0  0  0  0  0
  -24.9231  -23.7786   23.6549 H   0  0  0  0  0  0
  -29.2482  -25.1860   23.4983 H   0  0  0  0  0  0
  -29.7871  -24.7772   21.9157 H   0  0  0  0  0  0
  -28.5695  -26.9420   22.4282 H   0  0  0  0  0  0
  -26.8629  -22.2550   23.6145 H   0  0  0  0  0  0
  -28.0178  -16.8438   20.4349 H   0  0  0  0  0  0
  -27.8873  -18.5499   20.1405 H   0  0  0  0  0  0
  -27.6978  -17.9307   21.7802 H   0  0  0  0  0  0
  -26.9697  -22.9944   27.0939 H   0  0  0  0  0  0
  -27.5208  -21.7830   25.9510 H   0  0  0  0  0  0
  -25.8316  -22.2855   25.9495 H   0  0  0  0  0  0
  -30.0550  -23.0972   23.8248 H   0  0  0  0  0  0
  -28.8720  -21.9007   24.0762 H   0  0  0  0  0  0
  -26.5226  -24.6062   25.2821 H   0  0  0  0  0  0
  -28.1874  -24.1337   25.2843 H   0  0  0  0  0  0
  -29.1524  -15.4173   21.2084 H   0  0  0  0  0  0
  -28.0291  -23.1304   21.8026 H   0  0  0  0  0  0
  1 25  1  0  0  0
  1 30  2  0  0  0
  1 89  1  0  0  0
  2  3  1  0  0  0
  2 25  1  0  0  0
  2 92  1  0  0  0
  2 93  1  0  0  0
  3  4  1  0  0  0
  3 94  1  0  0  0
  3 95  1  0  0  0
  4  5  1  0  0  0
  4 96  1  0  0  0
  4 97  1  0  0  0
  5  6  1  0  0  0
  5 26  1  0  0  0
  5 98  1  0  0  0
  6 25  1  0  0  0
  6 99  1  0  0  0
  6100  1  0  0  0
  7  8  2  0  0  0
  7 26  1  0  0  0
  7 29  1  0  0  0
  8  9  1  0  0  0
  8 22  1  0  0  0
  9 10  1  0  0  0
  9 27  2  0  0  0
 10 11  2  0  0  0
 10 15  1  0  0  0
 11 12  1  0  0  0
 11101  1  0  0  0
 12 13  2  0  0  0
 12102  1  0  0  0
 13 14  1  0  0  0
 13 31  1  0  0  0
 14 15  2  0  0  0
 14103  1  0  0  0
 15104  1  0  0  0
 16 17  2  0  0  0
 16 21  1  0  0  0
 16 31  1  0  0  0
 17 18  1  0  0  0
 17105  1  0  0  0
 18 19  2  0  0  0
 18106  1  0  0  0
 19 20  1  0  0  0
 19 24  1  0  0  0
 20 21  2  0  0  0
 20107  1  0  0  0
 21 23  1  0  0  0
 22 28  1  0  0  0
 22 32  2  0  0  0
 26 27  1  0  0  0
 28108  1  0  0  0
 28109  1  0  0  0
 29110  1  0  0  0
 29111  1  0  0  0
 33 34  1  0  0  0
 33 66  1  0  0  0
 33 70  2  0  0  0
 34 36  1  0  0  0
 34 59  1  0  0  0
 34112  1  0  0  0
 35 44  2  0  0  0
 35 45  1  0  0  0
 35 68  1  0  0  0
 36 56  1  0  0  0
 36113  1  0  0  0
 37 39  1  0  0  0
 37 47  1  0  0  0
 37 66  1  0  0  0
 37114  1  0  0  0
 38 43  2  0  0  0
 38 46  1  0  0  0
 38 47  1  0  0  0
 39 64  1  0  0  0
 39 67  2  0  0  0
 40 52  1  0  0  0
 40 53  2  0  0  0
 40 58  1  0  0  0
 41115  1  0  0  0
 41116  1  0  0  0
 41117  1  0  0  0
 41 48  1  0  0  0
 42 43  1  0  0  0
 42 66  1  0  0  0
 42118  1  0  0  0
 42119  1  0  0  0
 43 44  1  0  0  0
 44120  1  0  0  0
 45 46  2  0  0  0
 45121  1  0  0  0
 46122  1  0  0  0
 47123  1  0  0  0
 47124  1  0  0  0
 48 56  1  0  0  0
 48 65  1  0  0  0
 48125  1  0  0  0
 49 50  1  0  0  0
 49 53  1  0  0  0
 49 64  1  0  0  0
 49126  1  0  0  0
 50 51  1  0  0  0
 50127  1  0  0  0
 50128  1  0  0  0
 51 52  1  0  0  0
 51129  1  0  0  0
 51130  1  0  0  0
 52131  1  0  0  0
 52132  1  0  0  0
 53 54  1  0  0  0
 54 55  2  0  0  0
 54133  1  0  0  0
 55 57  1  0  0  0
 55134  1  0  0  0
 56 69  2  0  0  0
 57 58  2  0  0  0
 57135  1  0  0  0
 58136  1  0  0  0
 59 60  1  0  0  0
 59 61  1  0  0  0
 59 62  1  0  0  0
 60137  1  0  0  0
 60138  1  0  0  0
 60139  1  0  0  0
 61140  1  0  0  0
 61141  1  0  0  0
 61142  1  0  0  0
 62143  1  0  0  0
 62144  1  0  0  0
 62145  1  0  0  0
 63 65  1  0  0  0
 63146  1  0  0  0
 63147  1  0  0  0
 63148  1  0  0  0
 64149  1  0  0  0
 65150  1  0  0  0
 68 83  1  0  0  0
 71 72  2  0  0  0
 71 75  1  0  0  0
 71151  1  0  0  0
 72 76  1  0  0  0
 72152  1  0  0  0
 73 74  1  0  0  0
 73 76  2  0  0  0
 73 77  1  0  0  0
 74 75  2  0  0  0
 74 85  1  0  0  0
 75 89  1  0  0  0
 76 91  1  0  0  0
 77 78  2  0  0  0
 77153  1  0  0  0
 78 87  1  0  0  0
 78154  1  0  0  0
 79 80  1  0  0  0
 79 81  1  0  0  0
 79155  1  0  0  0
 79156  1  0  0  0
 80 83  1  0  0  0
 80157  1  0  0  0
 80158  1  0  0  0
 81 84  1  0  0  0
 81159  1  0  0  0
 81160  1  0  0  0
 82 83  1  0  0  0
 82 90  1  0  0  0
 82161  1  0  0  0
 82162  1  0  0  0
 83163  1  0  0  0
 84 88  1  0  0  0
 84 90  1  0  0  0
 84164  1  0  0  0
 85165  1  0  0  0
 85166  1  0  0  0
 85167  1  0  0  0
 86 88  1  0  0  0
 86168  1  0  0  0
 86169  1  0  0  0
 86170  1  0  0  0
 87171  1  0  0  0
 87172  1  0  0  0
 87 90  1  0  0  0
 88173  1  0  0  0
 88174  1  0  0  0
 89175  1  0  0  0
 90176  1  0  0  0
M  CHG  1  90   1
M  ISO  4   1 100  68 101  83 101  89 100
M  END
> <chiral flag>
0

> <version>
0

> <s_m_source_file>
/data/baiqing/PycharmProjects/Reinvent-master-3.2/result/LINK_invent/BTK/process_docking_weight1_custom_product_contain_oxygen_bond_distance_aromatic_linkinvent_7_9_3/rearranged_h_0043.sdf

> <i_m_source_file_index>
6

> <r_mmod_Potential_Energy-OPLS-2005>
229.866134643555

> <r_mmod_Stretch_Energy-OPLS-2005>
62.3267440795898

> <r_mmod_Bend_Energy-OPLS-2005>
170.344314575195

> <r_mmod_Torsional_Energy-OPLS-2005>
384.636352539062

> <r_mmod_Improper_Torsional_Energy-OPLS-2005>
10.8466854095459

> <r_mmod_Van_der_Waal_Energy-OPLS-2005>
187.974899291992

> <r_mmod_Electrostatic_Energy-OPLS-2005>
-254.096664428711

> <r_mmod_Solvation_Energy-OPLS-2005>
-392.078308105469

> <b_mmod_Minimization_Converged-OPLS-2005>
0

> <r_mmod_RMS_Derivative-OPLS-2005>
7.614661693573

$$$$
6
                    3D
 Structure written by MMmdl.
166174  0  0  1  0            999 V2000
  -30.7424  -14.4032   20.6254 C   0  0  0  0  0  0
  -30.4153  -12.2855   19.4098 C   0  0  0  0  0  0
  -29.4862  -12.5102   18.2012 C   0  0  0  0  0  0
  -28.0106  -12.3681   18.6173 C   0  0  0  0  0  0
  -27.6651  -13.2008   19.8794 C   0  0  2  0  0  0
  -28.7035  -12.9581   20.9984 C   0  0  0  0  0  0
  -25.2603  -13.8153   20.5673 C   0  0  0  0  0  0
  -24.1851  -13.0440   20.9156 C   0  0  0  0  0  0
  -24.6394  -11.6897   20.8736 C   0  0  0  0  0  0
  -23.9061  -10.4289   21.0411 C   0  0  0  0  0  0
  -24.3618   -9.4209   21.9192 C   0  0  0  0  0  0
  -23.6292   -8.2248   22.0767 C   0  0  0  0  0  0
  -22.4282   -8.0284   21.3546 C   0  0  0  0  0  0
  -21.9917   -9.0257   20.4646 C   0  0  0  0  0  0
  -22.7239  -10.2135   20.3057 C   0  0  0  0  0  0
  -21.6852   -6.0742   22.5282 C   0  0  0  0  0  0
  -21.4008   -6.5647   23.8213 C   0  0  0  0  0  0
  -21.3654   -5.6799   24.9176 C   0  0  0  0  0  0
  -21.6047   -4.3062   24.7224 C   0  0  0  0  0  0
  -21.8821   -3.8152   23.4345 C   0  0  0  0  0  0
  -21.9194   -4.6969   22.3403 C   0  0  0  0  0  0
  -22.7875  -13.5237   21.1819 C   0  0  0  0  0  0
  -22.1665   -4.2160   21.0979 F   0  0  0  0  0  0
  -21.5631   -3.4539   25.7731 F   0  0  0  0  0  0
  -30.0422  -13.2507   20.4545 N   0  0  0  0  0  0
  -26.3038  -12.9312   20.3378 N   0  0  0  0  0  0
  -25.9315  -11.6473   20.5764 N   0  0  0  0  0  0
  -22.0522  -12.8238   22.0384 N   0  0  0  0  0  0
  -25.4353  -15.1872   20.4088 N   0  0  0  0  0  0
  -31.8256  -14.6085   20.0702 O   0  0  0  0  0  0
  -21.6646   -6.8884   21.4241 O   0  0  0  0  0  0
  -22.3562  -14.5542   20.6658 O   0  0  0  0  0  0
  -24.6136  -31.8697   23.2130 C   0  0  0  0  0  0
  -25.9034  -32.4841   23.8419 C   0  0  1  0  0  0
  -27.2349  -27.4509   20.0794 C   0  0  0  0  0  0
  -25.5882  -33.8635   24.2348 N   0  0  0  0  0  0
  -23.3994  -30.4957   21.5554 C   0  0  2  0  0  0
  -24.8421  -28.9633   20.1180 C   0  0  0  0  0  0
  -22.7386  -29.4685   22.5024 C   0  0  0  0  0  0
  -18.0260  -28.1375   22.8499 C   0  0  0  0  0  0
  -24.1482  -36.7324   23.2641 C   0  0  0  0  0  0
  -25.9281  -30.8387   21.3652 C   0  0  0  0  0  0
  -26.0032  -29.4748   20.7106 C   0  0  0  0  0  0
  -27.2005  -28.7247   20.6899 C   0  0  0  0  0  0
  -26.0497  -26.9538   19.4822 C   0  0  0  0  0  0
  -24.8593  -27.7000   19.5046 C   0  0  0  0  0  0
  -23.6049  -29.8282   20.1703 C   0  0  0  0  0  0
  -25.4110  -36.3132   24.0341 C   0  0  1  0  0  0
  -20.5846  -28.3668   23.1324 C   0  0  2  0  0  0
  -20.6753  -26.9411   22.5423 C   0  0  0  0  0  0
  -19.5742  -26.6384   21.5214 C   0  0  0  0  0  0
  -18.1912  -26.7919   22.1624 C   0  0  0  0  0  0
  -19.1512  -28.8836   23.2901 C   0  0  0  0  0  0
  -18.9440  -30.1434   23.8923 C   0  0  0  0  0  0
  -17.6442  -30.6579   24.0563 C   0  0  0  0  0  0
  -25.9024  -34.9488   23.5146 C   0  0  0  0  0  0
  -16.5333  -29.9087   23.6324 C   0  0  0  0  0  0
  -16.7247  -28.6495   23.0369 C   0  0  0  0  0  0
  -26.4463  -31.6607   25.0737 C   0  0  0  0  0  0
  -25.3716  -31.3656   26.1461 C   0  0  0  0  0  0
  -27.0317  -30.3059   24.6095 C   0  0  0  0  0  0
  -27.6035  -32.4308   25.7512 C   0  0  0  0  0  0
  -27.5590  -37.1813   24.8468 C   0  0  0  0  0  0
  -21.4115  -29.3041   22.3746 N   0  0  0  0  0  0
  -26.4310  -37.3803   23.9404 N   0  0  0  0  0  0
  -24.6659  -31.0803   22.1036 N   0  0  0  0  0  0
  -23.4167  -28.8228   23.3062 O   0  0  0  0  0  0
  -28.4206  -26.7425   20.0917 O   0  0  0  0  0  0
  -26.5581  -34.8933   22.4706 O   0  0  0  0  0  0
  -23.5331  -32.1439   23.7537 O   0  0  0  0  0  0
  -31.2930  -17.4309   20.7196 C   0  0  0  0  0  0
  -30.1366  -17.2939   22.8446 C   0  0  0  0  0  0
  -31.6673  -18.7641   20.9882 C   0  0  0  0  0  0
  -31.2667  -19.3828   22.2053 C   0  0  0  0  0  0
  -30.5487  -16.6712   21.6508 C   0  0  0  0  0  0
  -30.4885  -18.6302   23.1250 C   0  0  0  0  0  0
  -31.1857  -22.5286   16.3317 C   0  0  0  0  0  0
  -30.9632  -21.7758   17.4236 C   0  0  0  0  0  0
  -29.6595  -23.5676   20.9541 C   0  0  0  0  0  0
  -29.6328  -24.6247   20.1184 C   0  0  0  0  0  0
  -32.0404  -21.0183   18.0323 C   0  0  0  0  0  0
  -30.8918  -22.8675   21.2694 C   0  0  0  0  0  0
  -32.4731  -19.4900   19.9198 C   0  0  0  0  0  0
  -31.6446  -20.8344   22.5239 C   0  0  0  0  0  0
  -28.3613  -25.3596   19.7444 C   0  0  0  0  0  0
  -30.1563  -15.3191   21.4164 N   0  0  0  0  0  0
  -31.6161  -20.3098   19.0804 N   0  0  0  0  0  0
  -30.6558  -21.7887   22.0258 N   0  0  0  0  0  0
  -33.2150  -21.0108   17.6562 O   0  0  0  0  0  0
  -32.0196  -23.1918   20.8922 O   0  0  0  0  0  0
  -29.9310  -19.3149   24.6128 Cl  0  0  0  0  0  0
  -31.4581  -12.3776   19.1023 H   0  0  0  0  0  0
  -30.3095  -11.2681   19.7904 H   0  0  0  0  0  0
  -29.7189  -11.7966   17.4099 H   0  0  0  0  0  0
  -29.6578  -13.5022   17.7797 H   0  0  0  0  0  0
  -27.8221  -11.3106   18.8083 H   0  0  0  0  0  0
  -27.3557  -12.6474   17.7907 H   0  0  0  0  0  0
  -27.7192  -14.2526   19.5951 H   0  0  0  0  0  0
  -28.6693  -11.9183   21.3267 H   0  0  0  0  0  0
  -28.4557  -13.5440   21.8838 H   0  0  0  0  0  0
  -25.2764   -9.5678   22.4774 H   0  0  0  0  0  0
  -23.9991   -7.4641   22.7497 H   0  0  0  0  0  0
  -21.0853   -8.8770   19.8952 H   0  0  0  0  0  0
  -22.3699  -10.9677   19.6169 H   0  0  0  0  0  0
  -21.1999   -7.6158   23.9707 H   0  0  0  0  0  0
  -21.1477   -6.0540   25.9079 H   0  0  0  0  0  0
  -22.0612   -2.7618   23.2843 H   0  0  0  0  0  0
  -22.4146  -11.9884   22.4742 H   0  0  0  0  0  0
  -21.1142  -13.1268   22.2598 H   0  0  0  0  0  0
  -24.6743  -15.8470   20.5245 H   0  0  0  0  0  0
  -26.2959  -15.6239   20.1034 H   0  0  0  0  0  0
  -26.7106  -32.5558   23.1184 H   0  0  0  0  0  0
  -25.0035  -33.9800   25.0497 H   0  0  0  0  0  0
  -22.6887  -31.3132   21.4184 H   0  0  0  0  0  0
  -23.3756  -35.9642   23.3307 H   0  0  0  0  0  0
  -24.3573  -36.8944   22.2054 H   0  0  0  0  0  0
  -23.7217  -37.6524   23.6657 H   0  0  0  0  0  0
  -26.0363  -31.6042   20.5970 H   0  0  0  0  0  0
  -26.8180  -30.8924   21.9799 H   0  0  0  0  0  0
  -28.0978  -29.1166   21.1495 H   0  0  0  0  0  0
  -26.0164  -25.9957   18.9853 H   0  0  0  0  0  0
  -23.9666  -27.2985   19.0436 H   0  0  0  0  0  0
  -23.7107  -30.6012   19.4092 H   0  0  0  0  0  0
  -22.7285  -29.2476   19.8803 H   0  0  0  0  0  0
  -25.1289  -36.2015   25.0837 H   0  0  0  0  0  0
  -20.9928  -28.3234   24.1452 H   0  0  0  0  0  0
  -20.5665  -26.2269   23.3605 H   0  0  0  0  0  0
  -21.6629  -26.7476   22.1223 H   0  0  0  0  0  0
  -19.6919  -25.6310   21.1217 H   0  0  0  0  0  0
  -19.6680  -27.3193   20.6747 H   0  0  0  0  0  0
  -17.4195  -26.6692   21.4010 H   0  0  0  0  0  0
  -18.0291  -26.0050   22.9008 H   0  0  0  0  0  0
  -19.7925  -30.7226   24.2328 H   0  0  0  0  0  0
  -17.5020  -31.6266   24.5165 H   0  0  0  0  0  0
  -15.5343  -30.3013   23.7641 H   0  0  0  0  0  0
  -15.8635  -28.0809   22.7112 H   0  0  0  0  0  0
  -24.5959  -30.6932   25.7785 H   0  0  0  0  0  0
  -24.8798  -32.2768   26.4873 H   0  0  0  0  0  0
  -25.8073  -30.8881   27.0236 H   0  0  0  0  0  0
  -26.2866  -29.6798   24.1172 H   0  0  0  0  0  0
  -27.4138  -29.7330   25.4548 H   0  0  0  0  0  0
  -27.8669  -30.4418   23.9219 H   0  0  0  0  0  0
  -27.2673  -33.3607   26.2105 H   0  0  0  0  0  0
  -28.3843  -32.6844   25.0335 H   0  0  0  0  0  0
  -28.0691  -31.8403   26.5415 H   0  0  0  0  0  0
  -28.2602  -38.0113   24.7546 H   0  0  0  0  0  0
  -28.1094  -36.2648   24.6288 H   0  0  0  0  0  0
  -27.2288  -37.1447   25.8862 H   0  0  0  0  0  0
  -20.9269  -29.8770   21.6978 H   0  0  0  0  0  0
  -26.0217  -38.2884   24.1425 H   0  0  0  0  0  0
  -31.5852  -17.0026   19.7711 H   0  0  0  0  0  0
  -29.5445  -16.7467   23.5629 H   0  0  0  0  0  0
  -30.3875  -23.0971   15.8774 H   0  0  0  0  0  0
  -32.1631  -22.5933   15.8726 H   0  0  0  0  0  0
  -29.9681  -21.7456   17.8450 H   0  0  0  0  0  0
  -28.7307  -23.2334   21.3956 H   0  0  0  0  0  0
  -30.5423  -24.9876   19.6590 H   0  0  0  0  0  0
  -32.9858  -18.7577   19.2926 H   0  0  0  0  0  0
  -33.2681  -20.0927   20.3578 H   0  0  0  0  0  0
  -32.6446  -21.0620   22.1580 H   0  0  0  0  0  0
  -31.7345  -20.9709   23.6010 H   0  0  0  0  0  0
  -27.5313  -24.8769   20.2631 H   0  0  0  0  0  0
  -28.1968  -25.2476   18.6718 H   0  0  0  0  0  0
  -29.3298  -14.9975   21.8965 H   0  0  0  0  0  0
  -30.6394  -20.3583   19.3316 H   0  0  0  0  0  0
  -29.6985  -21.6190   22.2983 H   0  0  0  0  0  0
  1 25  1  0  0  0
  1 30  2  0  0  0
  1 86  1  0  0  0
  2  3  1  0  0  0
  2 25  1  0  0  0
  2 92  1  0  0  0
  2 93  1  0  0  0
  3  4  1  0  0  0
  3 94  1  0  0  0
  3 95  1  0  0  0
  4  5  1  0  0  0
  4 96  1  0  0  0
  4 97  1  0  0  0
  5  6  1  0  0  0
  5 26  1  0  0  0
  5 98  1  0  0  0
  6 25  1  0  0  0
  6 99  1  0  0  0
  6100  1  0  0  0
  7  8  2  0  0  0
  7 26  1  0  0  0
  7 29  1  0  0  0
  8  9  1  0  0  0
  8 22  1  0  0  0
  9 10  1  0  0  0
  9 27  2  0  0  0
 10 11  2  0  0  0
 10 15  1  0  0  0
 11 12  1  0  0  0
 11101  1  0  0  0
 12 13  2  0  0  0
 12102  1  0  0  0
 13 14  1  0  0  0
 13 31  1  0  0  0
 14 15  2  0  0  0
 14103  1  0  0  0
 15104  1  0  0  0
 16 17  2  0  0  0
 16 21  1  0  0  0
 16 31  1  0  0  0
 17 18  1  0  0  0
 17105  1  0  0  0
 18 19  2  0  0  0
 18106  1  0  0  0
 19 20  1  0  0  0
 19 24  1  0  0  0
 20 21  2  0  0  0
 20107  1  0  0  0
 21 23  1  0  0  0
 22 28  1  0  0  0
 22 32  2  0  0  0
 26 27  1  0  0  0
 28108  1  0  0  0
 28109  1  0  0  0
 29110  1  0  0  0
 29111  1  0  0  0
 33 34  1  0  0  0
 33 66  1  0  0  0
 33 70  2  0  0  0
 34 36  1  0  0  0
 34 59  1  0  0  0
 34112  1  0  0  0
 35 44  2  0  0  0
 35 45  1  0  0  0
 35 68  1  0  0  0
 36 56  1  0  0  0
 36113  1  0  0  0
 37 39  1  0  0  0
 37 47  1  0  0  0
 37 66  1  0  0  0
 37114  1  0  0  0
 38 43  2  0  0  0
 38 46  1  0  0  0
 38 47  1  0  0  0
 39 64  1  0  0  0
 39 67  2  0  0  0
 40 52  1  0  0  0
 40 53  2  0  0  0
 40 58  1  0  0  0
 41115  1  0  0  0
 41116  1  0  0  0
 41117  1  0  0  0
 41 48  1  0  0  0
 42 43  1  0  0  0
 42 66  1  0  0  0
 42118  1  0  0  0
 42119  1  0  0  0
 43 44  1  0  0  0
 44120  1  0  0  0
 45 46  2  0  0  0
 45121  1  0  0  0
 46122  1  0  0  0
 47123  1  0  0  0
 47124  1  0  0  0
 48 56  1  0  0  0
 48 65  1  0  0  0
 48125  1  0  0  0
 49 50  1  0  0  0
 49 53  1  0  0  0
 49 64  1  0  0  0
 49126  1  0  0  0
 50 51  1  0  0  0
 50127  1  0  0  0
 50128  1  0  0  0
 51 52  1  0  0  0
 51129  1  0  0  0
 51130  1  0  0  0
 52131  1  0  0  0
 52132  1  0  0  0
 53 54  1  0  0  0
 54 55  2  0  0  0
 54133  1  0  0  0
 55 57  1  0  0  0
 55134  1  0  0  0
 56 69  2  0  0  0
 57 58  2  0  0  0
 57135  1  0  0  0
 58136  1  0  0  0
 59 60  1  0  0  0
 59 61  1  0  0  0
 59 62  1  0  0  0
 60137  1  0  0  0
 60138  1  0  0  0
 60139  1  0  0  0
 61140  1  0  0  0
 61141  1  0  0  0
 61142  1  0  0  0
 62143  1  0  0  0
 62144  1  0  0  0
 62145  1  0  0  0
 63 65  1  0  0  0
 63146  1  0  0  0
 63147  1  0  0  0
 63148  1  0  0  0
 64149  1  0  0  0
 65150  1  0  0  0
 68 85  1  0  0  0
 71 73  2  0  0  0
 71 75  1  0  0  0
 71151  1  0  0  0
 72 75  2  0  0  0
 72 76  1  0  0  0
 72152  1  0  0  0
 73 74  1  0  0  0
 73 83  1  0  0  0
 74 76  2  0  0  0
 74 84  1  0  0  0
 75 86  1  0  0  0
 76 91  1  0  0  0
 77 78  2  0  0  0
 77153  1  0  0  0
 77154  1  0  0  0
 78 81  1  0  0  0
 78155  1  0  0  0
 79 80  2  0  0  0
 79 82  1  0  0  0
 79156  1  0  0  0
 80 85  1  0  0  0
 80157  1  0  0  0
 81 87  1  0  0  0
 81 89  2  0  0  0
 82 88  1  0  0  0
 82 90  2  0  0  0
 83 87  1  0  0  0
 83158  1  0  0  0
 83159  1  0  0  0
 84 88  1  0  0  0
 84160  1  0  0  0
 84161  1  0  0  0
 85162  1  0  0  0
 85163  1  0  0  0
 86164  1  0  0  0
 87165  1  0  0  0
 88166  1  0  0  0
M  ISO  4   1 100  68 101  85 101  86 100
M  END
> <chiral flag>
0

> <version>
0

> <s_m_source_file>
/data/baiqing/PycharmProjects/Reinvent-master-3.2/result/LINK_invent/BTK/process_docking_weight1_custom_product_contain_oxygen_bond_distance_aromatic_linkinvent_7_9_3/rearranged_h_0043.sdf

> <i_m_source_file_index>
7

> <r_mmod_Potential_Energy-OPLS-2005>
-300.292175292969

> <r_mmod_Stretch_Energy-OPLS-2005>
35.11279296875

> <r_mmod_Bend_Energy-OPLS-2005>
97.1763076782227

> <r_mmod_Torsional_Energy-OPLS-2005>
206.01741027832

> <r_mmod_Improper_Torsional_Energy-OPLS-2005>
1.94913196563721

> <r_mmod_Van_der_Waal_Energy-OPLS-2005>
162.760223388672

> <r_mmod_Electrostatic_Energy-OPLS-2005>
-546.304260253906

> <r_mmod_Solvation_Energy-OPLS-2005>
-265.820892333984

> <b_mmod_Minimization_Converged-OPLS-2005>
0

> <r_mmod_RMS_Derivative-OPLS-2005>
1.86266565322876

$$$$
7
                    3D
 Structure written by MMmdl.
168176  0  0  1  0            999 V2000
  -30.6938  -14.4842   20.4869 C   0  0  0  0  0  0
  -30.4117  -12.2855   19.4438 C   0  0  0  0  0  0
  -29.4927  -12.4762   18.2168 C   0  0  0  0  0  0
  -28.0122  -12.3516   18.6264 C   0  0  0  0  0  0
  -27.6539  -13.2086   19.8723 C   0  0  2  0  0  0
  -28.6978  -13.0303   21.0001 C   0  0  0  0  0  0
  -25.2544  -13.8150   20.5721 C   0  0  0  0  0  0
  -24.1798  -13.0420   20.9208 C   0  0  0  0  0  0
  -24.6366  -11.6887   20.8759 C   0  0  0  0  0  0
  -23.9027  -10.4281   21.0415 C   0  0  0  0  0  0
  -24.3589   -9.4201   21.9197 C   0  0  0  0  0  0
  -23.6274   -8.2237   22.0755 C   0  0  0  0  0  0
  -22.4258   -8.0281   21.3554 C   0  0  0  0  0  0
  -21.9890   -9.0240   20.4646 C   0  0  0  0  0  0
  -22.7202  -10.2124   20.3063 C   0  0  0  0  0  0
  -21.6845   -6.0731   22.5293 C   0  0  0  0  0  0
  -21.4006   -6.5636   23.8220 C   0  0  0  0  0  0
  -21.3659   -5.6791   24.9189 C   0  0  0  0  0  0
  -21.6048   -4.3054   24.7250 C   0  0  0  0  0  0
  -21.8808   -3.8149   23.4366 C   0  0  0  0  0  0
  -21.9185   -4.6958   22.3416 C   0  0  0  0  0  0
  -22.7826  -13.5213   21.1874 C   0  0  0  0  0  0
  -22.1658   -4.2139   21.1001 F   0  0  0  0  0  0
  -21.5632   -3.4541   25.7765 F   0  0  0  0  0  0
  -30.0297  -13.2994   20.4391 N   0  0  0  0  0  0
  -26.2975  -12.9327   20.3375 N   0  0  0  0  0  0
  -25.9286  -11.6482   20.5774 N   0  0  0  0  0  0
  -22.0469  -12.8214   22.0435 N   0  0  0  0  0  0
  -25.4221  -15.1880   20.4125 N   0  0  0  0  0  0
  -31.8720  -14.6012   20.1440 O   0  0  0  0  0  0
  -21.6631   -6.8872   21.4251 O   0  0  0  0  0  0
  -22.3518  -14.5527   20.6718 O   0  0  0  0  0  0
  -24.6125  -31.8683   23.2097 C   0  0  0  0  0  0
  -25.9020  -32.4828   23.8389 C   0  0  1  0  0  0
  -27.2397  -27.4427   20.0927 C   0  0  0  0  0  0
  -25.5872  -33.8624   24.2323 N   0  0  0  0  0  0
  -23.4011  -30.4922   21.5483 C   0  0  2  0  0  0
  -24.8474  -28.9571   20.1142 C   0  0  0  0  0  0
  -22.7403  -29.4660   22.4971 C   0  0  0  0  0  0
  -18.0274  -28.1366   22.8503 C   0  0  0  0  0  0
  -24.1486  -36.7319   23.2643 C   0  0  0  0  0  0
  -25.9281  -30.8367   21.3614 C   0  0  0  0  0  0
  -26.0054  -29.4720   20.7074 C   0  0  0  0  0  0
  -27.2024  -28.7231   20.6904 C   0  0  0  0  0  0
  -26.0595  -26.9377   19.4967 C   0  0  0  0  0  0
  -24.8685  -27.6898   19.5064 C   0  0  0  0  0  0
  -23.6101  -29.8243   20.1625 C   0  0  0  0  0  0
  -25.4106  -36.3117   24.0342 C   0  0  1  0  0  0
  -20.5863  -28.3647   23.1317 C   0  0  2  0  0  0
  -20.6749  -26.9382   22.5413 C   0  0  0  0  0  0
  -19.5737  -26.6385   21.5200 C   0  0  0  0  0  0
  -18.1920  -26.7917   22.1620 C   0  0  0  0  0  0
  -19.1521  -28.8823   23.2916 C   0  0  0  0  0  0
  -18.9450  -30.1423   23.8934 C   0  0  0  0  0  0
  -17.6453  -30.6574   24.0566 C   0  0  0  0  0  0
  -25.9028  -34.9483   23.5136 C   0  0  0  0  0  0
  -16.5343  -29.9080   23.6315 C   0  0  0  0  0  0
  -16.7264  -28.6488   23.0355 C   0  0  0  0  0  0
  -26.4466  -31.6599   25.0705 C   0  0  0  0  0  0
  -25.3732  -31.3678   26.1447 C   0  0  0  0  0  0
  -27.0288  -30.3050   24.6050 C   0  0  0  0  0  0
  -27.6059  -32.4311   25.7451 C   0  0  0  0  0  0
  -27.5587  -37.1807   24.8465 C   0  0  0  0  0  0
  -21.4129  -29.3029   22.3730 N   0  0  0  0  0  0
  -26.4296  -37.3797   23.9416 N   0  0  0  0  0  0
  -24.6654  -31.0799   22.0985 N   0  0  0  0  0  0
  -23.4182  -28.8201   23.3010 O   0  0  0  0  0  0
  -28.4296  -26.7436   20.1131 O   0  0  0  0  0  0
  -26.5605  -34.8933   22.4705 O   0  0  0  0  0  0
  -23.5320  -32.1430   23.7495 O   0  0  0  0  0  0
  -30.6576  -20.3421   20.9174 C   0  0  0  0  0  0
  -30.8963  -18.9795   20.6368 C   0  0  0  0  0  0
  -28.5244  -18.6555   20.2043 C   0  0  0  0  0  0
  -29.3555  -20.8814   20.8333 C   0  0  0  0  0  0
  -29.8362  -18.1331   20.2511 C   0  0  0  0  0  0
  -28.2746  -20.0223   20.4860 C   0  0  0  0  0  0
  -29.1781  -22.3213   21.0892 C   0  0  0  0  0  0
  -26.8521  -20.5451   20.3334 C   0  0  0  0  0  0
  -30.8936  -24.7740   17.9687 C   0  0  0  0  0  0
  -32.3047  -24.8197   20.0667 C   0  0  0  0  0  0
  -30.1366  -16.7386   19.7077 C   0  0  0  0  0  0
  -28.4036  -25.3305   19.8783 C   0  0  0  0  0  0
  -30.9530  -25.2118   19.4469 C   0  0  0  0  0  0
  -29.7605  -24.6988   20.2954 C   0  0  2  0  0  0
  -28.4553  -22.7231   22.1319 N   0  0  0  0  0  0
  -29.9069  -15.5718   20.5799 N   0  0  0  0  0  0
  -29.7478  -23.2171   20.2645 N   0  3  0  0  0  0
  -31.4592  -12.3582   19.1469 H   0  0  0  0  0  0
  -30.2942  -11.2834   19.8579 H   0  0  0  0  0  0
  -29.7276  -11.7357   17.4514 H   0  0  0  0  0  0
  -29.6712  -13.4529   17.7604 H   0  0  0  0  0  0
  -27.8207  -11.2972   18.8270 H   0  0  0  0  0  0
  -27.3657  -12.6204   17.7906 H   0  0  0  0  0  0
  -27.6811  -14.2477   19.5457 H   0  0  0  0  0  0
  -28.6683  -12.0133   21.3959 H   0  0  0  0  0  0
  -28.4786  -13.6862   21.8468 H   0  0  0  0  0  0
  -25.2733   -9.5680   22.4775 H   0  0  0  0  0  0
  -23.9983   -7.4611   22.7451 H   0  0  0  0  0  0
  -21.0833   -8.8730   19.8941 H   0  0  0  0  0  0
  -22.3646  -10.9655   19.6173 H   0  0  0  0  0  0
  -21.1996   -7.6146   23.9720 H   0  0  0  0  0  0
  -21.1491   -6.0541   25.9082 H   0  0  0  0  0  0
  -22.0588   -2.7612   23.2876 H   0  0  0  0  0  0
  -22.4073  -11.9874   22.4838 H   0  0  0  0  0  0
  -21.1087  -13.1242   22.2615 H   0  0  0  0  0  0
  -24.6485  -15.8355   20.5208 H   0  0  0  0  0  0
  -26.2614  -15.6336   20.0686 H   0  0  0  0  0  0
  -26.7084  -32.5549   23.1147 H   0  0  0  0  0  0
  -24.9982  -33.9789   25.0440 H   0  0  0  0  0  0
  -22.6892  -31.3078   21.4086 H   0  0  0  0  0  0
  -23.3746  -35.9653   23.3305 H   0  0  0  0  0  0
  -24.3584  -36.8931   22.2058 H   0  0  0  0  0  0
  -23.7234  -37.6522   23.6654 H   0  0  0  0  0  0
  -26.0415  -31.6058   20.5967 H   0  0  0  0  0  0
  -26.8161  -30.8881   21.9796 H   0  0  0  0  0  0
  -28.0988  -29.1220   21.1436 H   0  0  0  0  0  0
  -26.0427  -25.9705   19.0144 H   0  0  0  0  0  0
  -23.9760  -27.2921   19.0436 H   0  0  0  0  0  0
  -23.7201  -30.6000   19.4037 H   0  0  0  0  0  0
  -22.7345  -29.2440   19.8657 H   0  0  0  0  0  0
  -25.1284  -36.1986   25.0833 H   0  0  0  0  0  0
  -20.9964  -28.3201   24.1433 H   0  0  0  0  0  0
  -20.5612  -26.2262   23.3599 H   0  0  0  0  0  0
  -21.6624  -26.7400   22.1230 H   0  0  0  0  0  0
  -19.6891  -25.6302   21.1219 H   0  0  0  0  0  0
  -19.6677  -27.3203   20.6738 H   0  0  0  0  0  0
  -17.4183  -26.6668   21.4027 H   0  0  0  0  0  0
  -18.0327  -26.0044   22.9004 H   0  0  0  0  0  0
  -19.7920  -30.7229   24.2331 H   0  0  0  0  0  0
  -17.5002  -31.6260   24.5152 H   0  0  0  0  0  0
  -15.5345  -30.2995   23.7607 H   0  0  0  0  0  0
  -15.8663  -28.0810   22.7063 H   0  0  0  0  0  0
  -24.5906  -30.7041   25.7754 H   0  0  0  0  0  0
  -24.8921  -32.2818   26.4936 H   0  0  0  0  0  0
  -25.8080  -30.8799   27.0177 H   0  0  0  0  0  0
  -26.2803  -29.6807   24.1153 H   0  0  0  0  0  0
  -27.4126  -29.7297   25.4485 H   0  0  0  0  0  0
  -27.8617  -30.4390   23.9142 H   0  0  0  0  0  0
  -27.2699  -33.3602   26.2064 H   0  0  0  0  0  0
  -28.3834  -32.6877   25.0245 H   0  0  0  0  0  0
  -28.0756  -31.8403   26.5322 H   0  0  0  0  0  0
  -28.2602  -38.0111   24.7528 H   0  0  0  0  0  0
  -28.1091  -36.2644   24.6271 H   0  0  0  0  0  0
  -27.2311  -37.1427   25.8870 H   0  0  0  0  0  0
  -20.9271  -29.8778   21.6986 H   0  0  0  0  0  0
  -26.0191  -38.2881   24.1411 H   0  0  0  0  0  0
  -31.4887  -20.9813   21.1880 H   0  0  0  0  0  0
  -31.9099  -18.6004   20.6616 H   0  0  0  0  0  0
  -27.7140  -18.0162   19.8819 H   0  0  0  0  0  0
  -26.2161  -19.8198   19.8230 H   0  0  0  0  0  0
  -26.8280  -21.4611   19.7426 H   0  0  0  0  0  0
  -26.4084  -20.7517   21.3074 H   0  0  0  0  0  0
  -31.7512  -25.1604   17.4152 H   0  0  0  0  0  0
  -30.0036  -25.1516   17.4644 H   0  0  0  0  0  0
  -30.9068  -23.6897   17.8580 H   0  0  0  0  0  0
  -33.1314  -25.2728   19.5176 H   0  0  0  0  0  0
  -32.4581  -23.7398   20.0585 H   0  0  0  0  0  0
  -32.3793  -25.1579   21.1006 H   0  0  0  0  0  0
  -31.1571  -16.7598   19.3194 H   0  0  0  0  0  0
  -29.5163  -16.5980   18.8219 H   0  0  0  0  0  0
  -27.6003  -24.8774   20.4608 H   0  0  0  0  0  0
  -28.1888  -25.1316   18.8293 H   0  0  0  0  0  0
  -30.9132  -26.3029   19.4548 H   0  0  0  0  0  0
  -29.9433  -24.9978   21.3294 H   0  0  0  0  0  0
  -28.0958  -22.0212   22.7619 H   0  0  0  0  0  0
  -28.3289  -23.6892   22.3795 H   0  0  0  0  0  0
  -28.9593  -15.4174   20.8871 H   0  0  0  0  0  0
  -30.1730  -22.8181   19.4385 H   0  0  0  0  0  0
  1 25  1  0  0  0
  1 30  2  0  0  0
  1 86  1  0  0  0
  2  3  1  0  0  0
  2 25  1  0  0  0
  2 88  1  0  0  0
  2 89  1  0  0  0
  3  4  1  0  0  0
  3 90  1  0  0  0
  3 91  1  0  0  0
  4  5  1  0  0  0
  4 92  1  0  0  0
  4 93  1  0  0  0
  5  6  1  0  0  0
  5 26  1  0  0  0
  5 94  1  0  0  0
  6 25  1  0  0  0
  6 95  1  0  0  0
  6 96  1  0  0  0
  7  8  2  0  0  0
  7 26  1  0  0  0
  7 29  1  0  0  0
  8  9  1  0  0  0
  8 22  1  0  0  0
  9 10  1  0  0  0
  9 27  2  0  0  0
 10 11  2  0  0  0
 10 15  1  0  0  0
 11 12  1  0  0  0
 11 97  1  0  0  0
 12 13  2  0  0  0
 12 98  1  0  0  0
 13 14  1  0  0  0
 13 31  1  0  0  0
 14 15  2  0  0  0
 14 99  1  0  0  0
 15100  1  0  0  0
 16 17  2  0  0  0
 16 21  1  0  0  0
 16 31  1  0  0  0
 17 18  1  0  0  0
 17101  1  0  0  0
 18 19  2  0  0  0
 18102  1  0  0  0
 19 20  1  0  0  0
 19 24  1  0  0  0
 20 21  2  0  0  0
 20103  1  0  0  0
 21 23  1  0  0  0
 22 28  1  0  0  0
 22 32  2  0  0  0
 26 27  1  0  0  0
 28104  1  0  0  0
 28105  1  0  0  0
 29106  1  0  0  0
 29107  1  0  0  0
 33 34  1  0  0  0
 33 66  1  0  0  0
 33 70  2  0  0  0
 34 36  1  0  0  0
 34 59  1  0  0  0
 34108  1  0  0  0
 35 44  2  0  0  0
 35 45  1  0  0  0
 35 68  1  0  0  0
 36 56  1  0  0  0
 36109  1  0  0  0
 37 39  1  0  0  0
 37 47  1  0  0  0
 37 66  1  0  0  0
 37110  1  0  0  0
 38 43  2  0  0  0
 38 46  1  0  0  0
 38 47  1  0  0  0
 39 64  1  0  0  0
 39 67  2  0  0  0
 40 52  1  0  0  0
 40 53  2  0  0  0
 40 58  1  0  0  0
 41111  1  0  0  0
 41112  1  0  0  0
 41113  1  0  0  0
 41 48  1  0  0  0
 42 43  1  0  0  0
 42 66  1  0  0  0
 42114  1  0  0  0
 42115  1  0  0  0
 43 44  1  0  0  0
 44116  1  0  0  0
 45 46  2  0  0  0
 45117  1  0  0  0
 46118  1  0  0  0
 47119  1  0  0  0
 47120  1  0  0  0
 48 56  1  0  0  0
 48 65  1  0  0  0
 48121  1  0  0  0
 49 50  1  0  0  0
 49 53  1  0  0  0
 49 64  1  0  0  0
 49122  1  0  0  0
 50 51  1  0  0  0
 50123  1  0  0  0
 50124  1  0  0  0
 51 52  1  0  0  0
 51125  1  0  0  0
 51126  1  0  0  0
 52127  1  0  0  0
 52128  1  0  0  0
 53 54  1  0  0  0
 54 55  2  0  0  0
 54129  1  0  0  0
 55 57  1  0  0  0
 55130  1  0  0  0
 56 69  2  0  0  0
 57 58  2  0  0  0
 57131  1  0  0  0
 58132  1  0  0  0
 59 60  1  0  0  0
 59 61  1  0  0  0
 59 62  1  0  0  0
 60133  1  0  0  0
 60134  1  0  0  0
 60135  1  0  0  0
 61136  1  0  0  0
 61137  1  0  0  0
 61138  1  0  0  0
 62139  1  0  0  0
 62140  1  0  0  0
 62141  1  0  0  0
 63 65  1  0  0  0
 63142  1  0  0  0
 63143  1  0  0  0
 63144  1  0  0  0
 64145  1  0  0  0
 65146  1  0  0  0
 68 82  1  0  0  0
 71 72  2  0  0  0
 71 74  1  0  0  0
 71147  1  0  0  0
 72 75  1  0  0  0
 72148  1  0  0  0
 73 75  2  0  0  0
 73 76  1  0  0  0
 73149  1  0  0  0
 74 76  2  0  0  0
 74 77  1  0  0  0
 75 81  1  0  0  0
 76 78  1  0  0  0
 77 85  1  0  0  0
 77 87  2  0  0  0
 78150  1  0  0  0
 78151  1  0  0  0
 78152  1  0  0  0
 79153  1  0  0  0
 79154  1  0  0  0
 79155  1  0  0  0
 79 83  1  0  0  0
 80 83  1  0  0  0
 80156  1  0  0  0
 80157  1  0  0  0
 80158  1  0  0  0
 81 86  1  0  0  0
 81159  1  0  0  0
 81160  1  0  0  0
 82161  1  0  0  0
 82162  1  0  0  0
 82 84  1  0  0  0
 83 84  1  0  0  0
 83163  1  0  0  0
 84 87  1  0  0  0
 84164  1  0  0  0
 85165  1  0  0  0
 85166  1  0  0  0
 86167  1  0  0  0
 87168  1  0  0  0
M  CHG  1  87   1
M  ISO  4   1 100  68 101  82 101  86 100
M  END
> <chiral flag>
0

> <version>
0

> <s_m_source_file>
/data/baiqing/PycharmProjects/Reinvent-master-3.2/result/LINK_invent/BTK/process_docking_weight1_custom_product_contain_oxygen_bond_distance_aromatic_linkinvent_7_9_3/rearranged_h_0043.sdf

> <i_m_source_file_index>
8

> <r_mmod_Potential_Energy-OPLS-2005>
-253.01025390625

> <r_mmod_Stretch_Energy-OPLS-2005>
37.5614128112793

> <r_mmod_Bend_Energy-OPLS-2005>
105.96524810791

> <r_mmod_Torsional_Energy-OPLS-2005>
252.941482543945

> <r_mmod_Improper_Torsional_Energy-OPLS-2005>
12.6281976699829

> <r_mmod_Van_der_Waal_Energy-OPLS-2005>
153.68000793457

> <r_mmod_Electrostatic_Energy-OPLS-2005>
-439.207702636719

> <r_mmod_Solvation_Energy-OPLS-2005>
-394.253295898438

> <b_mmod_Minimization_Converged-OPLS-2005>
0

> <r_mmod_RMS_Derivative-OPLS-2005>
2.58407998085022

$$$$
8
                    3D
 Structure written by MMmdl.
170179  0  0  1  0            999 V2000
  -30.1198  -15.5870   20.4288 C   0  0  0  0  0  0
  -30.4027  -13.0472   19.6080 C   0  0  0  0  0  0
  -29.5521  -12.6626   18.3593 C   0  0  0  0  0  0
  -28.1198  -12.2911   18.7704 C   0  0  0  0  0  0
  -27.5830  -13.2821   19.8285 C   0  0  2  0  0  0
  -28.5614  -13.5290   20.9922 C   0  0  0  0  0  0
  -25.2231  -13.8205   20.5742 C   0  0  0  0  0  0
  -24.1619  -13.0389   20.9277 C   0  0  0  0  0  0
  -24.6292  -11.6890   20.8770 C   0  0  0  0  0  0
  -23.9025  -10.4251   21.0404 C   0  0  0  0  0  0
  -24.3591   -9.4182   21.9190 C   0  0  0  0  0  0
  -23.6273   -8.2220   22.0756 C   0  0  0  0  0  0
  -22.4266   -8.0255   21.3541 C   0  0  0  0  0  0
  -21.9882   -9.0217   20.4649 C   0  0  0  0  0  0
  -22.7196  -10.2097   20.3053 C   0  0  0  0  0  0
  -21.6842   -6.0724   22.5286 C   0  0  0  0  0  0
  -21.4004   -6.5629   23.8216 C   0  0  0  0  0  0
  -21.3661   -5.6784   24.9184 C   0  0  0  0  0  0
  -21.6043   -4.3045   24.7233 C   0  0  0  0  0  0
  -21.8821   -3.8137   23.4353 C   0  0  0  0  0  0
  -21.9186   -4.6955   22.3409 C   0  0  0  0  0  0
  -22.7662  -13.5170   21.1940 C   0  0  0  0  0  0
  -22.1658   -4.2133   21.0987 F   0  0  0  0  0  0
  -21.5632   -3.4538   25.7749 F   0  0  0  0  0  0
  -29.7382  -14.1797   20.4068 N   0  0  0  0  0  0
  -26.2600  -12.9476   20.3129 N   0  0  0  0  0  0
  -25.9204  -11.6578   20.5649 N   0  0  0  0  0  0
  -22.0318  -12.8162   22.0494 N   0  0  0  0  0  0
  -25.3884  -15.1934   20.4209 N   0  0  0  0  0  0
  -31.3205  -15.6487   20.0800 O   0  0  0  0  0  0
  -21.6629   -6.8860   21.4246 O   0  0  0  0  0  0
  -22.3363  -14.5471   20.6762 O   0  0  0  0  0  0
  -24.6631  -31.7866   23.1821 C   0  0  0  0  0  0
  -25.9327  -32.4387   23.8123 C   0  0  1  0  0  0
  -27.7499  -27.0348   19.7738 C   0  0  0  0  0  0
  -25.5884  -33.8247   24.1863 N   0  0  0  0  0  0
  -23.4842  -30.3450   21.5516 C   0  0  2  0  0  0
  -24.8147  -28.3859   20.3593 C   0  0  0  0  0  0
  -22.7467  -29.4225   22.5329 C   0  0  0  0  0  0
  -18.0281  -28.1409   22.8460 C   0  0  0  0  0  0
  -24.1512  -36.7115   23.2628 C   0  0  0  0  0  0
  -26.0206  -30.3753   21.5715 C   0  0  0  0  0  0
  -26.0709  -28.8546   21.1428 C   0  0  0  0  0  0
  -27.5016  -28.1810   20.9389 C   0  0  0  0  0  0
  -26.2363  -26.5209   18.7937 C   0  0  0  0  0  0
  -24.8341  -27.2405   19.2539 C   0  0  0  0  0  0
  -23.7334  -29.5037   20.2625 C   0  0  0  0  0  0
  -25.4180  -36.2879   24.0224 C   0  0  1  0  0  0
  -20.5843  -28.3679   23.1320 C   0  0  2  0  0  0
  -20.6689  -26.9413   22.5396 C   0  0  0  0  0  0
  -19.5711  -26.6532   21.5090 C   0  0  0  0  0  0
  -18.1929  -26.7966   22.1574 C   0  0  0  0  0  0
  -19.1504  -28.8867   23.2892 C   0  0  0  0  0  0
  -18.9469  -30.1453   23.8930 C   0  0  0  0  0  0
  -17.6456  -30.6601   24.0631 C   0  0  0  0  0  0
  -25.9176  -34.9259   23.4935 C   0  0  0  0  0  0
  -16.5332  -29.9112   23.6298 C   0  0  0  0  0  0
  -16.7295  -28.6509   23.0347 C   0  0  0  0  0  0
  -26.4651  -31.6629   25.0860 C   0  0  0  0  0  0
  -25.3636  -31.3835   26.1389 C   0  0  0  0  0  0
  -27.0927  -30.2959   24.7253 C   0  0  0  0  0  0
  -27.5923  -32.4887   25.7577 C   0  0  0  0  0  0
  -27.5566  -37.1685   24.8461 C   0  0  0  0  0  0
  -21.4210  -29.3000   22.3773 N   0  0  0  0  0  0
  -26.4328  -37.3615   23.9336 N   0  0  0  0  0  0
  -24.7419  -30.8848   22.1464 N   0  0  0  0  0  0
  -23.3824  -28.7903   23.3759 O   0  0  0  0  0  0
  -28.9389  -26.4965   19.6878 O   0  0  0  0  0  0
  -26.5944  -34.8819   22.4634 O   0  0  0  0  0  0
  -23.5709  -32.1338   23.6585 O   0  0  0  0  0  0
  -26.4338  -19.2798   19.5880 C   0  0  0  0  0  0
  -27.4107  -18.2569   19.7498 C   0  0  0  0  0  0
  -26.4965  -20.6276   20.0597 C   0  0  0  0  0  0
  -27.6377  -21.2008   20.7017 C   0  0  0  0  0  0
  -28.6294  -19.9343   20.9640 C   0  0  0  0  0  0
  -28.6000  -18.3837   20.4959 C   0  0  0  0  0  0
  -27.7773  -24.4578   19.0672 C   0  0  0  0  0  0
  -27.5722  -23.4687   18.1789 C   0  0  0  0  0  0
  -27.7608  -28.2971   17.5562 C   0  0  0  0  0  0
  -26.6385  -28.7073   18.8082 C   0  0  0  0  0  0
  -28.4611  -26.7538   17.3586 C   0  0  0  0  0  0
  -26.1118  -26.2033   21.0032 C   0  0  0  0  0  0
  -28.7441  -25.6746   18.6181 C   0  0  2  0  0  0
  -25.1920  -21.4097   19.9629 C   0  0  0  0  0  0
  -29.7593  -20.2199   21.9202 C   0  0  0  0  0  0
  -27.4595  -23.0146   21.1884 C   0  0  0  0  0  0
  -29.2603  -16.8271   20.8462 N   0  0  0  0  0  0
  -26.8954  -24.5320   20.4635 N   0  3  1  0  0  0
  -31.4017  -13.3346   19.2798 H   0  0  0  0  0  0
  -30.5628  -12.1733   20.2429 H   0  0  0  0  0  0
  -30.0157  -11.8404   17.8129 H   0  0  0  0  0  0
  -29.5228  -13.5113   17.6737 H   0  0  0  0  0  0
  -28.1412  -11.2895   19.1967 H   0  0  0  0  0  0
  -27.4620  -12.2470   17.9010 H   0  0  0  0  0  0
  -27.4748  -14.2252   19.2909 H   0  0  0  0  0  0
  -28.8076  -12.6045   21.5165 H   0  0  0  0  0  0
  -28.1155  -14.1934   21.7332 H   0  0  0  0  0  0
  -25.2730   -9.5682   22.4768 H   0  0  0  0  0  0
  -23.9984   -7.4616   22.7472 H   0  0  0  0  0  0
  -21.0813   -8.8727   19.8955 H   0  0  0  0  0  0
  -22.3643  -10.9640   19.6165 H   0  0  0  0  0  0
  -21.1990   -7.6136   23.9716 H   0  0  0  0  0  0
  -21.1485   -6.0518   25.9084 H   0  0  0  0  0  0
  -22.0598   -2.7597   23.2862 H   0  0  0  0  0  0
  -22.3927  -11.9820   22.4884 H   0  0  0  0  0  0
  -21.0934  -13.1184   22.2705 H   0  0  0  0  0  0
  -24.6181  -15.8434   20.5366 H   0  0  0  0  0  0
  -26.2212  -15.6250   20.0474 H   0  0  0  0  0  0
  -26.7407  -32.4834   23.0811 H   0  0  0  0  0  0
  -24.9458  -33.9243   24.9595 H   0  0  0  0  0  0
  -22.8460  -31.1884   21.2845 H   0  0  0  0  0  0
  -23.3805  -35.9421   23.3315 H   0  0  0  0  0  0
  -24.3520  -36.8782   22.2040 H   0  0  0  0  0  0
  -23.7292  -37.6285   23.6730 H   0  0  0  0  0  0
  -26.2052  -30.9712   20.6820 H   0  0  0  0  0  0
  -26.8969  -30.5733   22.1772 H   0  0  0  0  0  0
  -28.3706  -28.5793   21.4450 H   0  0  0  0  0  0
  -26.1608  -25.8329   17.9571 H   0  0  0  0  0  0
  -23.9460  -27.0539   18.6654 H   0  0  0  0  0  0
  -24.0654  -30.1929   19.4862 H   0  0  0  0  0  0
  -22.7992  -29.0823   19.8998 H   0  0  0  0  0  0
  -25.1431  -36.1648   25.0718 H   0  0  0  0  0  0
  -20.9857  -28.3271   24.1475 H   0  0  0  0  0  0
  -20.5420  -26.2317   23.3585 H   0  0  0  0  0  0
  -21.6595  -26.7424   22.1303 H   0  0  0  0  0  0
  -19.6874  -25.6472   21.0993 H   0  0  0  0  0  0
  -19.6605  -27.3403   20.6708 H   0  0  0  0  0  0
  -17.4129  -26.6648   21.4086 H   0  0  0  0  0  0
  -18.0460  -26.0155   22.8989 H   0  0  0  0  0  0
  -19.7949  -30.7250   24.2332 H   0  0  0  0  0  0
  -17.5031  -31.6271   24.5280 H   0  0  0  0  0  0
  -15.5352  -30.3023   23.7583 H   0  0  0  0  0  0
  -15.8701  -28.0841   22.7026 H   0  0  0  0  0  0
  -24.6070  -30.6952   25.7607 H   0  0  0  0  0  0
  -24.8534  -32.2986   26.4428 H   0  0  0  0  0  0
  -25.7735  -30.9280   27.0429 H   0  0  0  0  0  0
  -26.3897  -29.6054   24.2598 H   0  0  0  0  0  0
  -27.4419  -29.8023   25.6362 H   0  0  0  0  0  0
  -27.9763  -30.3996   24.0918 H   0  0  0  0  0  0
  -27.2271  -33.4403   26.1477 H   0  0  0  0  0  0
  -28.3876  -32.7214   25.0470 H   0  0  0  0  0  0
  -28.0497  -31.9661   26.6003 H   0  0  0  0  0  0
  -28.2645  -37.9933   24.7512 H   0  0  0  0  0  0
  -28.1033  -36.2473   24.6401 H   0  0  0  0  0  0
  -27.2197  -37.1409   25.8835 H   0  0  0  0  0  0
  -20.9634  -29.8422   21.6597 H   0  0  0  0  0  0
  -26.0191  -38.2691   24.1238 H   0  0  0  0  0  0
  -25.5150  -18.9685   19.1042 H   0  0  0  0  0  0
  -27.1545  -17.2780   19.3697 H   0  0  0  0  0  0
  -28.1095  -23.4798   17.2378 H   0  0  0  0  0  0
  -26.8874  -22.6548   18.3239 H   0  0  0  0  0  0
  -28.6095  -28.9659   17.6842 H   0  0  0  0  0  0
  -27.3432  -28.5986   16.5947 H   0  0  0  0  0  0
  -25.7914  -29.1098   18.2359 H   0  0  0  0  0  0
  -27.0533  -29.6709   19.1327 H   0  0  0  0  0  0
  -29.4482  -26.9401   16.9234 H   0  0  0  0  0  0
  -27.9421  -26.2149   16.5608 H   0  0  0  0  0  0
  -25.0678  -25.9683   21.2460 H   0  0  0  0  0  0
  -26.4701  -26.3606   22.0261 H   0  0  0  0  0  0
  -29.6883  -25.1803   18.3931 H   0  0  0  0  0  0
  -24.3500  -20.7323   20.1171 H   0  0  0  0  0  0
  -25.0448  -21.8657   18.9849 H   0  0  0  0  0  0
  -25.0998  -22.1769   20.7304 H   0  0  0  0  0  0
  -29.4994  -21.0250   22.6086 H   0  0  0  0  0  0
  -30.6648  -20.4808   21.3770 H   0  0  0  0  0  0
  -29.9691  -19.3309   22.5150 H   0  0  0  0  0  0
  -28.4807  -23.2707   21.4722 H   0  0  0  0  0  0
  -26.9502  -22.9764   22.1539 H   0  0  0  0  0  0
  -28.5378  -16.3580   21.3739 H   0  0  0  0  0  0
  -25.9989  -24.1730   20.1805 H   0  0  0  0  0  0
  1 25  1  0  0  0
  1 30  2  0  0  0
  1 87  1  0  0  0
  2  3  1  0  0  0
  2 25  1  0  0  0
  2 89  1  0  0  0
  2 90  1  0  0  0
  3  4  1  0  0  0
  3 91  1  0  0  0
  3 92  1  0  0  0
  4  5  1  0  0  0
  4 93  1  0  0  0
  4 94  1  0  0  0
  5  6  1  0  0  0
  5 26  1  0  0  0
  5 95  1  0  0  0
  6 25  1  0  0  0
  6 96  1  0  0  0
  6 97  1  0  0  0
  7  8  2  0  0  0
  7 26  1  0  0  0
  7 29  1  0  0  0
  8  9  1  0  0  0
  8 22  1  0  0  0
  9 10  1  0  0  0
  9 27  2  0  0  0
 10 11  2  0  0  0
 10 15  1  0  0  0
 11 12  1  0  0  0
 11 98  1  0  0  0
 12 13  2  0  0  0
 12 99  1  0  0  0
 13 14  1  0  0  0
 13 31  1  0  0  0
 14 15  2  0  0  0
 14100  1  0  0  0
 15101  1  0  0  0
 16 17  2  0  0  0
 16 21  1  0  0  0
 16 31  1  0  0  0
 17 18  1  0  0  0
 17102  1  0  0  0
 18 19  2  0  0  0
 18103  1  0  0  0
 19 20  1  0  0  0
 19 24  1  0  0  0
 20 21  2  0  0  0
 20104  1  0  0  0
 21 23  1  0  0  0
 22 28  1  0  0  0
 22 32  2  0  0  0
 26 27  1  0  0  0
 28105  1  0  0  0
 28106  1  0  0  0
 29107  1  0  0  0
 29108  1  0  0  0
 33 34  1  0  0  0
 33 66  1  0  0  0
 33 70  2  0  0  0
 34 36  1  0  0  0
 34 59  1  0  0  0
 34109  1  0  0  0
 35 44  2  0  0  0
 35 45  1  0  0  0
 35 68  1  0  0  0
 36 56  1  0  0  0
 36110  1  0  0  0
 37 39  1  0  0  0
 37 47  1  0  0  0
 37 66  1  0  0  0
 37111  1  0  0  0
 38 43  2  0  0  0
 38 46  1  0  0  0
 38 47  1  0  0  0
 39 64  1  0  0  0
 39 67  2  0  0  0
 40 52  1  0  0  0
 40 53  2  0  0  0
 40 58  1  0  0  0
 41112  1  0  0  0
 41113  1  0  0  0
 41114  1  0  0  0
 41 48  1  0  0  0
 42 43  1  0  0  0
 42 66  1  0  0  0
 42115  1  0  0  0
 42116  1  0  0  0
 43 44  1  0  0  0
 44117  1  0  0  0
 45 46  2  0  0  0
 45118  1  0  0  0
 46119  1  0  0  0
 47120  1  0  0  0
 47121  1  0  0  0
 48 56  1  0  0  0
 48 65  1  0  0  0
 48122  1  0  0  0
 49 50  1  0  0  0
 49 53  1  0  0  0
 49 64  1  0  0  0
 49123  1  0  0  0
 50 51  1  0  0  0
 50124  1  0  0  0
 50125  1  0  0  0
 51 52  1  0  0  0
 51126  1  0  0  0
 51127  1  0  0  0
 52128  1  0  0  0
 52129  1  0  0  0
 53 54  1  0  0  0
 54 55  2  0  0  0
 54130  1  0  0  0
 55 57  1  0  0  0
 55131  1  0  0  0
 56 69  2  0  0  0
 57 58  2  0  0  0
 57132  1  0  0  0
 58133  1  0  0  0
 59 60  1  0  0  0
 59 61  1  0  0  0
 59 62  1  0  0  0
 60134  1  0  0  0
 60135  1  0  0  0
 60136  1  0  0  0
 61137  1  0  0  0
 61138  1  0  0  0
 61139  1  0  0  0
 62140  1  0  0  0
 62141  1  0  0  0
 62142  1  0  0  0
 63 65  1  0  0  0
 63143  1  0  0  0
 63144  1  0  0  0
 63145  1  0  0  0
 64146  1  0  0  0
 65147  1  0  0  0
 68 83  1  0  0  0
 71 72  2  0  0  0
 71 73  1  0  0  0
 71148  1  0  0  0
 72 76  1  0  0  0
 72149  1  0  0  0
 73 74  2  0  0  0
 73 84  1  0  0  0
 74 75  1  0  0  0
 74 86  1  0  0  0
 75 76  2  0  0  0
 75 85  1  0  0  0
 76 87  1  0  0  0
 77 78  2  0  0  0
 77 83  1  0  0  0
 77 88  1  0  0  0
 78150  1  0  0  0
 78151  1  0  0  0
 79 80  1  0  0  0
 79 81  1  0  0  0
 79152  1  0  0  0
 79153  1  0  0  0
 80 82  1  0  0  0
 80154  1  0  0  0
 80155  1  0  0  0
 81 83  1  0  0  0
 81156  1  0  0  0
 81157  1  0  0  0
 82 88  1  0  0  0
 82158  1  0  0  0
 82159  1  0  0  0
 83160  1  0  0  0
 84161  1  0  0  0
 84162  1  0  0  0
 84163  1  0  0  0
 85164  1  0  0  0
 85165  1  0  0  0
 85166  1  0  0  0
 86167  1  0  0  0
 86168  1  0  0  0
 86 88  1  0  0  0
 87169  1  0  0  0
 88170  1  0  0  0
M  CHG  1  88   1
M  ISO  4   1 100  68 101  83 101  87 100
M  END
> <chiral flag>
0

> <version>
0

> <s_m_source_file>
/data/baiqing/PycharmProjects/Reinvent-master-3.2/result/LINK_invent/BTK/process_docking_weight1_custom_product_contain_oxygen_bond_distance_aromatic_linkinvent_7_9_3/rearranged_h_0043.sdf

> <i_m_source_file_index>
9

> <r_mmod_Potential_Energy-OPLS-2005>
9614.6044921875

> <r_mmod_Stretch_Energy-OPLS-2005>
6044.533203125

> <r_mmod_Bend_Energy-OPLS-2005>
767.465270996094

> <r_mmod_Torsional_Energy-OPLS-2005>
361.228576660156

> <r_mmod_Improper_Torsional_Energy-OPLS-2005>
25.7759742736816

> <r_mmod_Van_der_Waal_Energy-OPLS-2005>
2181.734375

> <r_mmod_Electrostatic_Energy-OPLS-2005>
-320.697296142578

> <r_mmod_Solvation_Energy-OPLS-2005>
-401.646728515625

> <b_mmod_Minimization_Converged-OPLS-2005>
0

> <r_mmod_RMS_Derivative-OPLS-2005>
11.7764177322388

$$$$
9
                    3D
 Structure written by MMmdl.
161169  0  0  1  0            999 V2000
  -30.7132  -14.4376   20.5754 C   0  0  0  0  0  0
  -30.4282  -12.2922   19.4179 C   0  0  0  0  0  0
  -29.4979  -12.5051   18.2058 C   0  0  0  0  0  0
  -28.0163  -12.3759   18.6131 C   0  0  0  0  0  0
  -27.6667  -13.2040   19.8797 C   0  0  2  0  0  0
  -28.7088  -12.9693   20.9968 C   0  0  0  0  0  0
  -25.2635  -13.8167   20.5760 C   0  0  0  0  0  0
  -24.1858  -13.0463   20.9183 C   0  0  0  0  0  0
  -24.6397  -11.6925   20.8722 C   0  0  0  0  0  0
  -23.9062  -10.4312   21.0399 C   0  0  0  0  0  0
  -24.3600   -9.4223   21.9177 C   0  0  0  0  0  0
  -23.6286   -8.2265   22.0752 C   0  0  0  0  0  0
  -22.4275   -8.0304   21.3540 C   0  0  0  0  0  0
  -21.9896   -9.0283   20.4647 C   0  0  0  0  0  0
  -22.7231  -10.2160   20.3058 C   0  0  0  0  0  0
  -21.6852   -6.0733   22.5279 C   0  0  0  0  0  0
  -21.4012   -6.5639   23.8202 C   0  0  0  0  0  0
  -21.3652   -5.6799   24.9172 C   0  0  0  0  0  0
  -21.6037   -4.3053   24.7224 C   0  0  0  0  0  0
  -21.8821   -3.8144   23.4345 C   0  0  0  0  0  0
  -21.9188   -4.6963   22.3400 C   0  0  0  0  0  0
  -22.7884  -13.5281   21.1818 C   0  0  0  0  0  0
  -22.1657   -4.2137   21.0980 F   0  0  0  0  0  0
  -21.5623   -3.4546   25.7728 F   0  0  0  0  0  0
  -30.0439  -13.2634   20.4498 N   0  0  0  0  0  0
  -26.3061  -12.9322   20.3392 N   0  0  0  0  0  0
  -25.9321  -11.6498   20.5760 N   0  0  0  0  0  0
  -22.0492  -12.8288   22.0368 N   0  0  0  0  0  0
  -25.4385  -15.1892   20.4235 N   0  0  0  0  0  0
  -31.8271  -14.6428   20.0823 O   0  0  0  0  0  0
  -21.6656   -6.8875   21.4243 O   0  0  0  0  0  0
  -22.3555  -14.5574   20.6623 O   0  0  0  0  0  0
  -24.6104  -31.8717   23.2127 C   0  0  0  0  0  0
  -25.9032  -32.4826   23.8406 C   0  0  1  0  0  0
  -27.2321  -27.4615   20.0747 C   0  0  0  0  0  0
  -25.5906  -33.8630   24.2335 N   0  0  0  0  0  0
  -23.3937  -30.4967   21.5544 C   0  0  2  0  0  0
  -24.8339  -28.9645   20.1152 C   0  0  0  0  0  0
  -22.7380  -29.4698   22.5039 C   0  0  0  0  0  0
  -18.0274  -28.1375   22.8504 C   0  0  0  0  0  0
  -24.1472  -36.7297   23.2637 C   0  0  0  0  0  0
  -25.9205  -30.8420   21.3601 C   0  0  0  0  0  0
  -25.9920  -29.4776   20.7085 C   0  0  0  0  0  0
  -27.1901  -28.7325   20.6876 C   0  0  0  0  0  0
  -26.0458  -26.9491   19.4944 C   0  0  0  0  0  0
  -24.8550  -27.6974   19.5094 C   0  0  0  0  0  0
  -23.5936  -29.8267   20.1684 C   0  0  0  0  0  0
  -25.4098  -36.3111   24.0341 C   0  0  1  0  0  0
  -20.5858  -28.3664   23.1334 C   0  0  2  0  0  0
  -20.6741  -26.9403   22.5419 C   0  0  0  0  0  0
  -19.5720  -26.6396   21.5209 C   0  0  0  0  0  0
  -18.1910  -26.7926   22.1635 C   0  0  0  0  0  0
  -19.1521  -28.8848   23.2910 C   0  0  0  0  0  0
  -18.9446  -30.1458   23.8916 C   0  0  0  0  0  0
  -17.6443  -30.6583   24.0577 C   0  0  0  0  0  0
  -25.9037  -34.9479   23.5135 C   0  0  0  0  0  0
  -16.5338  -29.9088   23.6313 C   0  0  0  0  0  0
  -16.7267  -28.6497   23.0352 C   0  0  0  0  0  0
  -26.4473  -31.6600   25.0728 C   0  0  0  0  0  0
  -25.3721  -31.3703   26.1464 C   0  0  0  0  0  0
  -27.0292  -30.3036   24.6081 C   0  0  0  0  0  0
  -27.6061  -32.4311   25.7477 C   0  0  0  0  0  0
  -27.5573  -37.1800   24.8472 C   0  0  0  0  0  0
  -21.4120  -29.3034   22.3752 N   0  0  0  0  0  0
  -26.4276  -37.3793   23.9419 N   0  0  0  0  0  0
  -24.6607  -31.0847   22.1003 N   0  0  0  0  0  0
  -23.4176  -28.8259   23.3086 O   0  0  0  0  0  0
  -28.4412  -26.7963   20.0615 O   0  0  0  0  0  0
  -26.5584  -34.8941   22.4688 O   0  0  0  0  0  0
  -23.5316  -32.1508   23.7533 O   0  0  0  0  0  0
  -28.1871  -17.4637   22.1432 C   0  0  0  0  0  0
  -27.3569  -18.4029   22.7733 C   0  0  0  0  0  0
  -29.4040  -17.8693   21.5578 C   0  0  0  0  0  0
  -29.7638  -19.2477   21.5684 C   0  0  0  0  0  0
  -28.9321  -20.1993   22.2287 C   0  0  0  0  0  0
  -27.7291  -19.7549   22.8379 C   0  0  0  0  0  0
  -28.7207  -23.5585   21.0102 C   0  0  0  0  0  0
  -31.0461  -19.6894   20.8587 C   0  0  0  0  0  0
  -28.3472  -23.4690   23.4943 C   0  0  0  0  0  0
  -30.3472  -16.8410   20.9260 C   0  0  0  0  0  0
  -28.5085  -25.4343   19.6437 C   0  0  0  0  0  0
  -28.3889  -22.6514   22.1873 C   0  0  2  0  0  0
  -28.0140  -24.5638   20.6922 N   0  0  0  0  0  0
  -29.3451  -21.5475   22.3041 N   0  0  0  0  0  0
  -30.0045  -15.4350   21.1167 N   0  0  0  0  0  0
  -26.9225  -20.6112   23.5098 F   0  0  0  0  0  0
  -31.4720  -12.4009   19.1169 H   0  0  0  0  0  0
  -30.3361  -11.2798   19.8123 H   0  0  0  0  0  0
  -29.7294  -11.7860   17.4196 H   0  0  0  0  0  0
  -29.6714  -13.4925   17.7701 H   0  0  0  0  0  0
  -27.8096  -11.3207   18.7939 H   0  0  0  0  0  0
  -27.3723  -12.6713   17.7814 H   0  0  0  0  0  0
  -27.7133  -14.2528   19.5895 H   0  0  0  0  0  0
  -28.6778  -11.9293   21.3247 H   0  0  0  0  0  0
  -28.4782  -13.5607   21.8843 H   0  0  0  0  0  0
  -25.2727   -9.5696   22.4787 H   0  0  0  0  0  0
  -23.9976   -7.4642   22.7483 H   0  0  0  0  0  0
  -21.0799   -8.8786   19.8985 H   0  0  0  0  0  0
  -22.3645  -10.9695   19.6189 H   0  0  0  0  0  0
  -21.2020   -7.6147   23.9685 H   0  0  0  0  0  0
  -21.1463   -6.0541   25.9059 H   0  0  0  0  0  0
  -22.0605   -2.7615   23.2854 H   0  0  0  0  0  0
  -22.4089  -11.9966   22.4808 H   0  0  0  0  0  0
  -21.1105  -13.1321   22.2514 H   0  0  0  0  0  0
  -24.6781  -15.8463   20.5530 H   0  0  0  0  0  0
  -26.2869  -15.6292   20.0914 H   0  0  0  0  0  0
  -26.7103  -32.5554   23.1175 H   0  0  0  0  0  0
  -25.0057  -33.9780   25.0487 H   0  0  0  0  0  0
  -22.6811  -31.3124   21.4169 H   0  0  0  0  0  0
  -23.3722  -35.9635   23.3321 H   0  0  0  0  0  0
  -24.3564  -36.8889   22.2043 H   0  0  0  0  0  0
  -23.7230  -37.6514   23.6636 H   0  0  0  0  0  0
  -26.0290  -31.6089   20.5903 H   0  0  0  0  0  0
  -26.8093  -30.8981   21.9759 H   0  0  0  0  0  0
  -28.0886  -29.1278   21.1395 H   0  0  0  0  0  0
  -26.0122  -25.9798   19.0220 H   0  0  0  0  0  0
  -23.9621  -27.2952   19.0499 H   0  0  0  0  0  0
  -23.6942  -30.5982   19.4057 H   0  0  0  0  0  0
  -22.7186  -29.2396   19.8813 H   0  0  0  0  0  0
  -25.1262  -36.1973   25.0824 H   0  0  0  0  0  0
  -20.9954  -28.3214   24.1459 H   0  0  0  0  0  0
  -20.5626  -26.2274   23.3603 H   0  0  0  0  0  0
  -21.6614  -26.7439   22.1227 H   0  0  0  0  0  0
  -19.6878  -25.6315   21.1229 H   0  0  0  0  0  0
  -19.6651  -27.3204   20.6733 H   0  0  0  0  0  0
  -17.4171  -26.6693   21.4041 H   0  0  0  0  0  0
  -18.0322  -26.0060   22.9028 H   0  0  0  0  0  0
  -19.7927  -30.7271   24.2280 H   0  0  0  0  0  0
  -17.5006  -31.6268   24.5173 H   0  0  0  0  0  0
  -15.5341  -30.2998   23.7635 H   0  0  0  0  0  0
  -15.8666  -28.0828   22.7053 H   0  0  0  0  0  0
  -24.5897  -30.7045   25.7793 H   0  0  0  0  0  0
  -24.8898  -32.2849   26.4912 H   0  0  0  0  0  0
  -25.8065  -30.8879   27.0222 H   0  0  0  0  0  0
  -26.2838  -29.6807   24.1101 H   0  0  0  0  0  0
  -27.4033  -29.7265   25.4550 H   0  0  0  0  0  0
  -27.8689  -30.4341   23.9241 H   0  0  0  0  0  0
  -27.2688  -33.3603   26.2068 H   0  0  0  0  0  0
  -28.3844  -32.6871   25.0280 H   0  0  0  0  0  0
  -28.0731  -31.8413   26.5366 H   0  0  0  0  0  0
  -28.2598  -38.0091   24.7515 H   0  0  0  0  0  0
  -28.1071  -36.2630   24.6296 H   0  0  0  0  0  0
  -27.2304  -37.1439   25.8880 H   0  0  0  0  0  0
  -20.9287  -29.8752   21.6966 H   0  0  0  0  0  0
  -26.0175  -38.2869   24.1428 H   0  0  0  0  0  0
  -27.8683  -16.4333   22.1276 H   0  0  0  0  0  0
  -26.4324  -18.0795   23.2330 H   0  0  0  0  0  0
  -29.6391  -23.2923   20.4740 H   0  0  0  0  0  0
  -31.9233  -19.5128   21.4829 H   0  0  0  0  0  0
  -31.0366  -20.7415   20.5761 H   0  0  0  0  0  0
  -31.1919  -19.1400   19.9272 H   0  0  0  0  0  0
  -27.5197  -24.1826   23.4845 H   0  0  0  0  0  0
  -29.2703  -24.0354   23.6343 H   0  0  0  0  0  0
  -28.2177  -22.8359   24.3714 H   0  0  0  0  0  0
  -31.3474  -16.9955   21.3322 H   0  0  0  0  0  0
  -30.3937  -17.0333   19.8521 H   0  0  0  0  0  0
  -27.9789  -25.2621   18.7066 H   0  0  0  0  0  0
  -29.5593  -25.2421   19.4089 H   0  0  0  0  0  0
  -27.3878  -22.2644   21.9989 H   0  0  0  0  0  0
  -30.2868  -21.7497   21.9886 H   0  0  0  0  0  0
  -29.1044  -15.2086   21.5033 H   0  0  0  0  0  0
  1 25  1  0  0  0
  1 30  2  0  0  0
  1 85  1  0  0  0
  2  3  1  0  0  0
  2 25  1  0  0  0
  2 87  1  0  0  0
  2 88  1  0  0  0
  3  4  1  0  0  0
  3 89  1  0  0  0
  3 90  1  0  0  0
  4  5  1  0  0  0
  4 91  1  0  0  0
  4 92  1  0  0  0
  5  6  1  0  0  0
  5 26  1  0  0  0
  5 93  1  0  0  0
  6 25  1  0  0  0
  6 94  1  0  0  0
  6 95  1  0  0  0
  7  8  2  0  0  0
  7 26  1  0  0  0
  7 29  1  0  0  0
  8  9  1  0  0  0
  8 22  1  0  0  0
  9 10  1  0  0  0
  9 27  2  0  0  0
 10 11  2  0  0  0
 10 15  1  0  0  0
 11 12  1  0  0  0
 11 96  1  0  0  0
 12 13  2  0  0  0
 12 97  1  0  0  0
 13 14  1  0  0  0
 13 31  1  0  0  0
 14 15  2  0  0  0
 14 98  1  0  0  0
 15 99  1  0  0  0
 16 17  2  0  0  0
 16 21  1  0  0  0
 16 31  1  0  0  0
 17 18  1  0  0  0
 17100  1  0  0  0
 18 19  2  0  0  0
 18101  1  0  0  0
 19 20  1  0  0  0
 19 24  1  0  0  0
 20 21  2  0  0  0
 20102  1  0  0  0
 21 23  1  0  0  0
 22 28  1  0  0  0
 22 32  2  0  0  0
 26 27  1  0  0  0
 28103  1  0  0  0
 28104  1  0  0  0
 29105  1  0  0  0
 29106  1  0  0  0
 33 34  1  0  0  0
 33 66  1  0  0  0
 33 70  2  0  0  0
 34 36  1  0  0  0
 34 59  1  0  0  0
 34107  1  0  0  0
 35 44  2  0  0  0
 35 45  1  0  0  0
 35 68  1  0  0  0
 36 56  1  0  0  0
 36108  1  0  0  0
 37 39  1  0  0  0
 37 47  1  0  0  0
 37 66  1  0  0  0
 37109  1  0  0  0
 38 43  2  0  0  0
 38 46  1  0  0  0
 38 47  1  0  0  0
 39 64  1  0  0  0
 39 67  2  0  0  0
 40 52  1  0  0  0
 40 53  2  0  0  0
 40 58  1  0  0  0
 41110  1  0  0  0
 41111  1  0  0  0
 41112  1  0  0  0
 41 48  1  0  0  0
 42 43  1  0  0  0
 42 66  1  0  0  0
 42113  1  0  0  0
 42114  1  0  0  0
 43 44  1  0  0  0
 44115  1  0  0  0
 45 46  2  0  0  0
 45116  1  0  0  0
 46117  1  0  0  0
 47118  1  0  0  0
 47119  1  0  0  0
 48 56  1  0  0  0
 48 65  1  0  0  0
 48120  1  0  0  0
 49 50  1  0  0  0
 49 53  1  0  0  0
 49 64  1  0  0  0
 49121  1  0  0  0
 50 51  1  0  0  0
 50122  1  0  0  0
 50123  1  0  0  0
 51 52  1  0  0  0
 51124  1  0  0  0
 51125  1  0  0  0
 52126  1  0  0  0
 52127  1  0  0  0
 53 54  1  0  0  0
 54 55  2  0  0  0
 54128  1  0  0  0
 55 57  1  0  0  0
 55129  1  0  0  0
 56 69  2  0  0  0
 57 58  2  0  0  0
 57130  1  0  0  0
 58131  1  0  0  0
 59 60  1  0  0  0
 59 61  1  0  0  0
 59 62  1  0  0  0
 60132  1  0  0  0
 60133  1  0  0  0
 60134  1  0  0  0
 61135  1  0  0  0
 61136  1  0  0  0
 61137  1  0  0  0
 62138  1  0  0  0
 62139  1  0  0  0
 62140  1  0  0  0
 63 65  1  0  0  0
 63141  1  0  0  0
 63142  1  0  0  0
 63143  1  0  0  0
 64144  1  0  0  0
 65145  1  0  0  0
 68 81  1  0  0  0
 71 72  2  0  0  0
 71 73  1  0  0  0
 71146  1  0  0  0
 72 76  1  0  0  0
 72147  1  0  0  0
 73 74  2  0  0  0
 73 80  1  0  0  0
 74 75  1  0  0  0
 74 78  1  0  0  0
 75 76  2  0  0  0
 75 84  1  0  0  0
 76 86  1  0  0  0
 77 82  1  0  0  0
 77 83  2  0  0  0
 77148  1  0  0  0
 78149  1  0  0  0
 78150  1  0  0  0
 78151  1  0  0  0
 79152  1  0  0  0
 79153  1  0  0  0
 79154  1  0  0  0
 79 82  1  0  0  0
 80 85  1  0  0  0
 80155  1  0  0  0
 80156  1  0  0  0
 81 83  1  0  0  0
 81157  1  0  0  0
 81158  1  0  0  0
 82 84  1  0  0  0
 82159  1  0  0  0
 84160  1  0  0  0
 85161  1  0  0  0
M  ISO  4   1 100  68 101  81 101  85 100
M  END
> <chiral flag>
0

> <version>
0

> <s_m_source_file>
/data/baiqing/PycharmProjects/Reinvent-master-3.2/result/LINK_invent/BTK/process_docking_weight1_custom_product_contain_oxygen_bond_distance_aromatic_linkinvent_7_9_3/rearranged_h_0043.sdf

> <i_m_source_file_index>
10

> <r_mmod_Potential_Energy-OPLS-2005>
-119.16951751709

> <r_mmod_Stretch_Energy-OPLS-2005>
36.5048980712891

> <r_mmod_Bend_Energy-OPLS-2005>
105.453712463379

> <r_mmod_Torsional_Energy-OPLS-2005>
187.978164672852

> <r_mmod_Improper_Torsional_Energy-OPLS-2005>
6.53586721420288

> <r_mmod_Van_der_Waal_Energy-OPLS-2005>
172.229568481445

> <r_mmod_Electrostatic_Energy-OPLS-2005>
-417.064453125

> <r_mmod_Solvation_Energy-OPLS-2005>
-221.083618164062

> <b_mmod_Minimization_Converged-OPLS-2005>
0

> <r_mmod_RMS_Derivative-OPLS-2005>
4.76827955245972

$$$$
10
                    3D
 Structure written by MMmdl.
158167  0  0  1  0            999 V2000
  -30.6162  -14.7663   20.4295 C   0  0  0  0  0  0
  -30.4300  -12.4743   19.4515 C   0  0  0  0  0  0
  -29.5002  -12.5002   18.2201 C   0  0  0  0  0  0
  -28.0281  -12.3301   18.6424 C   0  0  0  0  0  0
  -27.6347  -13.2378   19.8390 C   0  0  2  0  0  0
  -28.6878  -13.1962   20.9649 C   0  0  0  0  0  0
  -25.2488  -13.8220   20.5710 C   0  0  0  0  0  0
  -24.1788  -13.0447   20.9215 C   0  0  0  0  0  0
  -24.6394  -11.6925   20.8748 C   0  0  0  0  0  0
  -23.9070  -10.4296   21.0405 C   0  0  0  0  0  0
  -24.3617   -9.4212   21.9182 C   0  0  0  0  0  0
  -23.6296   -8.2246   22.0751 C   0  0  0  0  0  0
  -22.4276   -8.0281   21.3547 C   0  0  0  0  0  0
  -21.9915   -9.0253   20.4644 C   0  0  0  0  0  0
  -22.7242  -10.2136   20.3055 C   0  0  0  0  0  0
  -21.6852   -6.0730   22.5276 C   0  0  0  0  0  0
  -21.4018   -6.5636   23.8210 C   0  0  0  0  0  0
  -21.3666   -5.6788   24.9173 C   0  0  0  0  0  0
  -21.6040   -4.3048   24.7219 C   0  0  0  0  0  0
  -21.8824   -3.8143   23.4340 C   0  0  0  0  0  0
  -21.9194   -4.6959   22.3397 C   0  0  0  0  0  0
  -22.7801  -13.5218   21.1870 C   0  0  0  0  0  0
  -22.1659   -4.2147   21.0971 F   0  0  0  0  0  0
  -21.5631   -3.4532   25.7732 F   0  0  0  0  0  0
  -29.9723  -13.5520   20.3554 N   0  0  0  0  0  0
  -26.2914  -12.9437   20.3270 N   0  0  0  0  0  0
  -25.9326  -11.6569   20.5748 N   0  0  0  0  0  0
  -22.0447  -12.8203   22.0420 N   0  0  0  0  0  0
  -25.4161  -15.1947   20.4155 N   0  0  0  0  0  0
  -31.8373  -14.8054   20.2723 O   0  0  0  0  0  0
  -21.6639   -6.8876   21.4241 O   0  0  0  0  0  0
  -22.3476  -14.5509   20.6699 O   0  0  0  0  0  0
  -24.6360  -31.8555   23.1993 C   0  0  0  0  0  0
  -25.9179  -32.4758   23.8338 C   0  0  1  0  0  0
  -27.2020  -27.2326   20.1137 C   0  0  0  0  0  0
  -25.5969  -33.8562   24.2259 N   0  0  0  0  0  0
  -23.4305  -30.4847   21.5454 C   0  0  2  0  0  0
  -24.8701  -28.9354   20.1122 C   0  0  0  0  0  0
  -22.7518  -29.4620   22.4894 C   0  0  0  0  0  0
  -18.0303  -28.1391   22.8473 C   0  0  0  0  0  0
  -24.1493  -36.7284   23.2639 C   0  0  0  0  0  0
  -25.9831  -30.7600   21.3825 C   0  0  0  0  0  0
  -26.0515  -29.3836   20.7177 C   0  0  0  0  0  0
  -27.2210  -28.5483   20.7034 C   0  0  0  0  0  0
  -25.9802  -26.8635   19.4991 C   0  0  0  0  0  0
  -24.8417  -27.6834   19.4936 C   0  0  0  0  0  0
  -23.6480  -29.8302   20.1596 C   0  0  0  0  0  0
  -25.4121  -36.3068   24.0322 C   0  0  1  0  0  0
  -20.5903  -28.3710   23.1243 C   0  0  2  0  0  0
  -20.6799  -26.9420   22.5387 C   0  0  0  0  0  0
  -19.5761  -26.6371   21.5206 C   0  0  0  0  0  0
  -18.1947  -26.7932   22.1618 C   0  0  0  0  0  0
  -19.1553  -28.8863   23.2852 C   0  0  0  0  0  0
  -18.9477  -30.1460   23.8875 C   0  0  0  0  0  0
  -17.6475  -30.6585   24.0553 C   0  0  0  0  0  0
  -25.9066  -34.9441   23.5083 C   0  0  0  0  0  0
  -16.5365  -29.9080   23.6326 C   0  0  0  0  0  0
  -16.7288  -28.6503   23.0342 C   0  0  0  0  0  0
  -26.4525  -31.6583   25.0738 C   0  0  0  0  0  0
  -25.3729  -31.3736   26.1439 C   0  0  0  0  0  0
  -27.0375  -30.2990   24.6258 C   0  0  0  0  0  0
  -27.6063  -32.4326   25.7530 C   0  0  0  0  0  0
  -27.5569  -37.1807   24.8473 C   0  0  0  0  0  0
  -21.4220  -29.3064   22.3637 N   0  0  0  0  0  0
  -26.4299  -37.3764   23.9400 N   0  0  0  0  0  0
  -24.7033  -31.0509   22.0985 N   0  0  0  0  0  0
  -23.4202  -28.8133   23.2984 O   0  0  0  0  0  0
  -28.2821  -26.3024   20.1586 O   0  0  0  0  0  0
  -26.5619  -34.8919   22.4643 O   0  0  0  0  0  0
  -23.5505  -32.1396   23.7277 O   0  0  0  0  0  0
  -28.0922  -18.2881   22.3214 C   0  0  0  0  0  0
  -28.4181  -19.5649   21.8099 C   0  0  0  0  0  0
  -28.6299  -17.1026   21.7738 C   0  0  0  0  0  0
  -29.3085  -19.7134   20.7272 C   0  0  0  0  0  0
  -29.5109  -17.1478   20.6729 C   0  0  0  0  0  0
  -29.8316  -18.4745   20.1586 C   0  0  0  0  0  0
  -28.9275  -23.6746   20.4674 C   0  0  0  0  0  0
  -27.4073  -23.2070   18.0341 C   0  0  0  0  0  0
  -28.0077  -24.5941   18.3048 C   0  0  0  0  0  0
  -28.2279  -22.0646   18.6734 C   0  0  0  0  0  0
  -28.0215  -24.8397   19.8247 C   0  0  1  0  0  0
  -29.8010  -21.1914   20.3597 C   0  0  0  0  0  0
  -28.8881  -22.3636   19.9610 N   0  0  0  0  0  0
  -29.9137  -15.8861   20.0127 N   0  0  0  0  0  0
  -29.6454  -23.9649   21.4296 O   0  0  0  0  0  0
  -30.6658  -18.5558   19.0953 F   0  0  0  0  0  0
  -31.4655  -12.6126   19.1346 H   0  0  0  0  0  0
  -30.3911  -11.5066   19.9538 H   0  0  0  0  0  0
  -29.7817  -11.7163   17.5159 H   0  0  0  0  0  0
  -29.6200  -13.4453   17.6875 H   0  0  0  0  0  0
  -27.8849  -11.2824   18.9093 H   0  0  0  0  0  0
  -27.3679  -12.5196   17.7947 H   0  0  0  0  0  0
  -27.6182  -14.2560   19.4492 H   0  0  0  0  0  0
  -28.7354  -12.2076   21.4235 H   0  0  0  0  0  0
  -28.4320  -13.8980   21.7588 H   0  0  0  0  0  0
  -25.2766   -9.5684   22.4754 H   0  0  0  0  0  0
  -24.0003   -7.4634   22.7472 H   0  0  0  0  0  0
  -21.0848   -8.8770   19.8944 H   0  0  0  0  0  0
  -22.3703  -10.9669   19.6158 H   0  0  0  0  0  0
  -21.2013   -7.6144   23.9715 H   0  0  0  0  0  0
  -21.1484   -6.0514   25.9075 H   0  0  0  0  0  0
  -22.0600   -2.7604   23.2837 H   0  0  0  0  0  0
  -22.4069  -11.9878   22.4831 H   0  0  0  0  0  0
  -21.1053  -13.1208   22.2603 H   0  0  0  0  0  0
  -24.6507  -15.8485   20.5359 H   0  0  0  0  0  0
  -26.2764  -15.6399   20.1203 H   0  0  0  0  0  0
  -26.7242  -32.5384   23.1068 H   0  0  0  0  0  0
  -25.0150  -33.9708   25.0428 H   0  0  0  0  0  0
  -22.7284  -31.3089   21.4049 H   0  0  0  0  0  0
  -23.3759  -35.9616   23.3314 H   0  0  0  0  0  0
  -24.3567  -36.8902   22.2048 H   0  0  0  0  0  0
  -23.7257  -37.6491   23.6666 H   0  0  0  0  0  0
  -26.1293  -31.5225   20.6170 H   0  0  0  0  0  0
  -26.8574  -30.8013   22.0202 H   0  0  0  0  0  0
  -28.1250  -28.8892   21.1885 H   0  0  0  0  0  0
  -25.8359  -25.9057   19.0296 H   0  0  0  0  0  0
  -23.9339  -27.3285   19.0243 H   0  0  0  0  0  0
  -23.7854  -30.6136   19.4128 H   0  0  0  0  0  0
  -22.7604  -29.2786   19.8427 H   0  0  0  0  0  0
  -25.1311  -36.1906   25.0818 H   0  0  0  0  0  0
  -20.9981  -28.3299   24.1369 H   0  0  0  0  0  0
  -21.6658  -26.7439   22.1162 H   0  0  0  0  0  0
  -20.5716  -26.2312   23.3593 H   0  0  0  0  0  0
  -19.6916  -25.6282   21.1244 H   0  0  0  0  0  0
  -19.6696  -27.3171   20.6728 H   0  0  0  0  0  0
  -17.4222  -26.6678   21.4012 H   0  0  0  0  0  0
  -18.0323  -26.0072   22.9016 H   0  0  0  0  0  0
  -19.7954  -30.7272   24.2246 H   0  0  0  0  0  0
  -17.5032  -31.6268   24.5161 H   0  0  0  0  0  0
  -15.5366  -30.2977   23.7667 H   0  0  0  0  0  0
  -15.8688  -28.0817   22.7065 H   0  0  0  0  0  0
  -24.5924  -30.7067   25.7762 H   0  0  0  0  0  0
  -24.8897  -32.2903   26.4827 H   0  0  0  0  0  0
  -25.8030  -30.8936   27.0238 H   0  0  0  0  0  0
  -26.2965  -29.6713   24.1300 H   0  0  0  0  0  0
  -27.4057  -29.7283   25.4793 H   0  0  0  0  0  0
  -27.8847  -30.4250   23.9515 H   0  0  0  0  0  0
  -27.2680  -33.3660   26.2045 H   0  0  0  0  0  0
  -28.3926  -32.6825   25.0395 H   0  0  0  0  0  0
  -28.0676  -31.8481   26.5502 H   0  0  0  0  0  0
  -28.2613  -38.0075   24.7471 H   0  0  0  0  0  0
  -28.1039  -36.2600   24.6373 H   0  0  0  0  0  0
  -27.2273  -37.1543   25.8875 H   0  0  0  0  0  0
  -20.9407  -29.8819   21.6864 H   0  0  0  0  0  0
  -26.0173  -38.2847   24.1366 H   0  0  0  0  0  0
  -27.4135  -18.2153   23.1606 H   0  0  0  0  0  0
  -28.0093  -20.4445   22.2872 H   0  0  0  0  0  0
  -28.3229  -16.1532   22.1881 H   0  0  0  0  0  0
  -27.3194  -23.0373   16.9596 H   0  0  0  0  0  0
  -26.3876  -23.1756   18.4212 H   0  0  0  0  0  0
  -27.4439  -25.3533   17.7674 H   0  0  0  0  0  0
  -29.0211  -24.6522   17.9060 H   0  0  0  0  0  0
  -29.0078  -21.7826   17.9632 H   0  0  0  0  0  0
  -27.5979  -21.1814   18.7855 H   0  0  0  0  0  0
  -27.0411  -24.6015   20.2375 H   0  0  0  0  0  0
  -30.5493  -21.0912   19.5733 H   0  0  0  0  0  0
  -30.3789  -21.5144   21.2262 H   0  0  0  0  0  0
  -30.2900  -16.1240   19.1062 H   0  0  0  0  0  0
  1 25  1  0  0  0
  1 30  2  0  0  0
  1 84  1  0  0  0
  2  3  1  0  0  0
  2 25  1  0  0  0
  2 87  1  0  0  0
  2 88  1  0  0  0
  3  4  1  0  0  0
  3 89  1  0  0  0
  3 90  1  0  0  0
  4  5  1  0  0  0
  4 91  1  0  0  0
  4 92  1  0  0  0
  5  6  1  0  0  0
  5 26  1  0  0  0
  5 93  1  0  0  0
  6 25  1  0  0  0
  6 94  1  0  0  0
  6 95  1  0  0  0
  7  8  2  0  0  0
  7 26  1  0  0  0
  7 29  1  0  0  0
  8  9  1  0  0  0
  8 22  1  0  0  0
  9 10  1  0  0  0
  9 27  2  0  0  0
 10 11  2  0  0  0
 10 15  1  0  0  0
 11 12  1  0  0  0
 11 96  1  0  0  0
 12 13  2  0  0  0
 12 97  1  0  0  0
 13 14  1  0  0  0
 13 31  1  0  0  0
 14 15  2  0  0  0
 14 98  1  0  0  0
 15 99  1  0  0  0
 16 17  2  0  0  0
 16 21  1  0  0  0
 16 31  1  0  0  0
 17 18  1  0  0  0
 17100  1  0  0  0
 18 19  2  0  0  0
 18101  1  0  0  0
 19 20  1  0  0  0
 19 24  1  0  0  0
 20 21  2  0  0  0
 20102  1  0  0  0
 21 23  1  0  0  0
 22 28  1  0  0  0
 22 32  2  0  0  0
 26 27  1  0  0  0
 28103  1  0  0  0
 28104  1  0  0  0
 29105  1  0  0  0
 29106  1  0  0  0
 33 34  1  0  0  0
 33 66  1  0  0  0
 33 70  2  0  0  0
 34 36  1  0  0  0
 34 59  1  0  0  0
 34107  1  0  0  0
 35 44  2  0  0  0
 35 45  1  0  0  0
 35 68  1  0  0  0
 36 56  1  0  0  0
 36108  1  0  0  0
 37 39  1  0  0  0
 37 47  1  0  0  0
 37 66  1  0  0  0
 37109  1  0  0  0
 38 43  2  0  0  0
 38 46  1  0  0  0
 38 47  1  0  0  0
 39 64  1  0  0  0
 39 67  2  0  0  0
 40 52  1  0  0  0
 40 53  2  0  0  0
 40 58  1  0  0  0
 41110  1  0  0  0
 41111  1  0  0  0
 41112  1  0  0  0
 41 48  1  0  0  0
 42 43  1  0  0  0
 42 66  1  0  0  0
 42113  1  0  0  0
 42114  1  0  0  0
 43 44  1  0  0  0
 44115  1  0  0  0
 45 46  2  0  0  0
 45116  1  0  0  0
 46117  1  0  0  0
 47118  1  0  0  0
 47119  1  0  0  0
 48 56  1  0  0  0
 48 65  1  0  0  0
 48120  1  0  0  0
 49 50  1  0  0  0
 49 53  1  0  0  0
 49 64  1  0  0  0
 49121  1  0  0  0
 50 51  1  0  0  0
 50122  1  0  0  0
 50123  1  0  0  0
 51 52  1  0  0  0
 51124  1  0  0  0
 51125  1  0  0  0
 52126  1  0  0  0
 52127  1  0  0  0
 53 54  1  0  0  0
 54 55  2  0  0  0
 54128  1  0  0  0
 55 57  1  0  0  0
 55129  1  0  0  0
 56 69  2  0  0  0
 57 58  2  0  0  0
 57130  1  0  0  0
 58131  1  0  0  0
 59 60  1  0  0  0
 59 61  1  0  0  0
 59 62  1  0  0  0
 60132  1  0  0  0
 60133  1  0  0  0
 60134  1  0  0  0
 61135  1  0  0  0
 61136  1  0  0  0
 61137  1  0  0  0
 62138  1  0  0  0
 62139  1  0  0  0
 62140  1  0  0  0
 63 65  1  0  0  0
 63141  1  0  0  0
 63142  1  0  0  0
 63143  1  0  0  0
 64144  1  0  0  0
 65145  1  0  0  0
 68 81  1  0  0  0
 71 72  2  0  0  0
 71 73  1  0  0  0
 71146  1  0  0  0
 72 74  1  0  0  0
 72147  1  0  0  0
 73 75  2  0  0  0
 73148  1  0  0  0
 74 76  2  0  0  0
 74 82  1  0  0  0
 75 76  1  0  0  0
 75 84  1  0  0  0
 76 86  1  0  0  0
 77 81  1  0  0  0
 77 83  1  0  0  0
 77 85  2  0  0  0
 78 79  1  0  0  0
 78 80  1  0  0  0
 78149  1  0  0  0
 78150  1  0  0  0
 79 81  1  0  0  0
 79151  1  0  0  0
 79152  1  0  0  0
 80 83  1  0  0  0
 80153  1  0  0  0
 80154  1  0  0  0
 81155  1  0  0  0
 82 83  1  0  0  0
 82156  1  0  0  0
 82157  1  0  0  0
 84158  1  0  0  0
M  ISO  4   1 100  68 101  81 101  84 100
M  END
> <chiral flag>
0

> <version>
0

> <s_m_source_file>
/data/baiqing/PycharmProjects/Reinvent-master-3.2/result/LINK_invent/BTK/process_docking_weight1_custom_product_contain_oxygen_bond_distance_aromatic_linkinvent_7_9_3/rearranged_h_0043.sdf

> <i_m_source_file_index>
11

> <r_mmod_Potential_Energy-OPLS-2005>
322.068450927734

> <r_mmod_Stretch_Energy-OPLS-2005>
136.757339477539

> <r_mmod_Bend_Energy-OPLS-2005>
196.321273803711

> <r_mmod_Torsional_Energy-OPLS-2005>
298.096038818359

> <r_mmod_Improper_Torsional_Energy-OPLS-2005>
30.997314453125

> <r_mmod_Van_der_Waal_Energy-OPLS-2005>
143.34033203125

> <r_mmod_Electrostatic_Energy-OPLS-2005>
-366.177459716797

> <r_mmod_Solvation_Energy-OPLS-2005>
-223.200805664062

> <b_mmod_Minimization_Converged-OPLS-2005>
0

> <r_mmod_RMS_Derivative-OPLS-2005>
1.77522754669189

$$$$
11
                    3D
 Structure written by MMmdl.
158167  0  0  1  0            999 V2000
  -30.6042  -14.7803   20.4938 C   0  0  0  0  0  0
  -30.4414  -12.4795   19.5092 C   0  0  0  0  0  0
  -29.5246  -12.4544   18.2641 C   0  0  0  0  0  0
  -28.0532  -12.2640   18.6857 C   0  0  0  0  0  0
  -27.6289  -13.2231   19.8285 C   0  0  2  0  0  0
  -28.6634  -13.2093   20.9675 C   0  0  0  0  0  0
  -25.2442  -13.8210   20.5738 C   0  0  0  0  0  0
  -24.1717  -13.0401   20.9229 C   0  0  0  0  0  0
  -24.6292  -11.6936   20.8756 C   0  0  0  0  0  0
  -23.8942  -10.4332   21.0431 C   0  0  0  0  0  0
  -24.3563   -9.4237   21.9168 C   0  0  0  0  0  0
  -23.6288   -8.2249   22.0714 C   0  0  0  0  0  0
  -22.4251   -8.0287   21.3530 C   0  0  0  0  0  0
  -21.9882   -9.0220   20.4616 C   0  0  0  0  0  0
  -22.7143  -10.2133   20.3031 C   0  0  0  0  0  0
  -21.6836   -6.0731   22.5297 C   0  0  0  0  0  0
  -21.4026   -6.5651   23.8229 C   0  0  0  0  0  0
  -21.3651   -5.6793   24.9192 C   0  0  0  0  0  0
  -21.5998   -4.3045   24.7217 C   0  0  0  0  0  0
  -21.8821   -3.8135   23.4349 C   0  0  0  0  0  0
  -21.9222   -4.6981   22.3414 C   0  0  0  0  0  0
  -22.7767  -13.5219   21.1929 C   0  0  0  0  0  0
  -22.1664   -4.2152   21.0987 F   0  0  0  0  0  0
  -21.5644   -3.4546   25.7747 F   0  0  0  0  0  0
  -29.9563  -13.5717   20.3896 N   0  0  0  0  0  0
  -26.2828  -12.9357   20.3193 N   0  0  0  0  0  0
  -25.9218  -11.6490   20.5744 N   0  0  0  0  0  0
  -22.0384  -12.8185   22.0477 N   0  0  0  0  0  0
  -25.4096  -15.1892   20.4324 N   0  0  0  0  0  0
  -31.8191  -14.8168   20.2882 O   0  0  0  0  0  0
  -21.6598   -6.8875   21.4245 O   0  0  0  0  0  0
  -22.3450  -14.5471   20.6763 O   0  0  0  0  0  0
  -24.6360  -31.8522   23.1920 C   0  0  0  0  0  0
  -25.9164  -32.4721   23.8286 C   0  0  1  0  0  0
  -27.2223  -27.2153   20.1871 C   0  0  0  0  0  0
  -25.5951  -33.8527   24.2213 N   0  0  0  0  0  0
  -23.4391  -30.4736   21.5235 C   0  0  2  0  0  0
  -24.8873  -28.9130   20.1133 C   0  0  0  0  0  0
  -22.7520  -29.4764   22.4816 C   0  0  0  0  0  0
  -18.0410  -28.1258   22.8493 C   0  0  0  0  0  0
  -24.1481  -36.7280   23.2634 C   0  0  0  0  0  0
  -25.9826  -30.7589   21.3792 C   0  0  0  0  0  0
  -26.0544  -29.3723   20.7369 C   0  0  0  0  0  0
  -27.2200  -28.5346   20.7707 C   0  0  0  0  0  0
  -26.0357  -26.8466   19.5032 C   0  0  0  0  0  0
  -24.8877  -27.6609   19.4832 C   0  0  0  0  0  0
  -23.6577  -29.8005   20.1440 C   0  0  0  0  0  0
  -25.4104  -36.3037   24.0313 C   0  0  1  0  0  0
  -20.5970  -28.3906   23.1237 C   0  0  2  0  0  0
  -20.7001  -26.9850   22.4878 C   0  0  0  0  0  0
  -19.5969  -26.7497   21.4480 C   0  0  0  0  0  0
  -18.2326  -26.7998   22.1360 C   0  0  0  0  0  0
  -19.1526  -28.8941   23.2946 C   0  0  0  0  0  0
  -18.9103  -30.1464   23.9164 C   0  0  0  0  0  0
  -17.5921  -30.6269   24.0661 C   0  0  0  0  0  0
  -25.9067  -34.9423   23.5065 C   0  0  0  0  0  0
  -16.5060  -29.8679   23.5996 C   0  0  0  0  0  0
  -16.7334  -28.6202   23.0011 C   0  0  0  0  0  0
  -26.4518  -31.6568   25.0698 C   0  0  0  0  0  0
  -25.3761  -31.3750   26.1433 C   0  0  0  0  0  0
  -27.0416  -30.2998   24.6244 C   0  0  0  0  0  0
  -27.6079  -32.4326   25.7454 C   0  0  0  0  0  0
  -27.5585  -37.1788   24.8463 C   0  0  0  0  0  0
  -21.4211  -29.3277   22.3599 N   0  0  0  0  0  0
  -26.4291  -37.3742   23.9405 N   0  0  0  0  0  0
  -24.7040  -31.0516   22.0874 N   0  0  0  0  0  0
  -23.4213  -28.8428   23.3012 O   0  0  0  0  0  0
  -28.2914  -26.2803   20.3238 O   0  0  0  0  0  0
  -26.5642  -34.8939   22.4648 O   0  0  0  0  0  0
  -23.5492  -32.1372   23.7165 O   0  0  0  0  0  0
  -27.4443  -18.0659   22.1007 C   0  0  0  0  0  0
  -27.8987  -19.3844   21.8900 C   0  0  0  0  0  0
  -28.1604  -16.9432   21.6230 C   0  0  0  0  0  0
  -29.8060  -18.4751   20.7035 C   0  0  0  0  0  0
  -29.1074  -19.6495   21.2171 C   0  0  0  0  0  0
  -29.3520  -17.1026   20.8845 C   0  0  0  0  0  0
  -28.8763  -23.6949   20.9792 C   0  0  0  0  0  0
  -27.9029  -22.9844   18.3116 C   0  0  0  0  0  0
  -28.3169  -24.4285   18.6468 C   0  0  0  0  0  0
  -28.2010  -21.9011   19.3725 C   0  0  0  0  0  0
  -28.0565  -24.7855   20.1139 C   0  0  1  0  0  0
  -29.6497  -21.1592   21.1902 C   0  0  0  0  0  0
  -28.8676  -22.3397   20.5998 N   0  0  0  0  0  0
  -29.9021  -15.9339   20.1592 N   0  0  0  0  0  0
  -29.4911  -24.0808   21.9800 O   0  0  0  0  0  0
  -31.4807  -12.6170   19.2063 H   0  0  0  0  0  0
  -30.4136  -11.5260   20.0403 H   0  0  0  0  0  0
  -29.8320  -11.6466   17.5941 H   0  0  0  0  0  0
  -29.6348  -13.3774   17.6947 H   0  0  0  0  0  0
  -27.9524  -11.2304   19.0333 H   0  0  0  0  0  0
  -27.3923  -12.3517   17.8247 H   0  0  0  0  0  0
  -27.6073  -14.2219   19.3926 H   0  0  0  0  0  0
  -28.7104  -12.2205   21.4189 H   0  0  0  0  0  0
  -28.3918  -13.9103   21.7573 H   0  0  0  0  0  0
  -25.2696   -9.5781   22.4730 H   0  0  0  0  0  0
  -23.9995   -7.4657   22.7463 H   0  0  0  0  0  0
  -21.0782   -8.8665   19.8980 H   0  0  0  0  0  0
  -22.3497  -10.9640   19.6143 H   0  0  0  0  0  0
  -21.1963   -7.6150   23.9734 H   0  0  0  0  0  0
  -21.1477   -6.0514   25.9089 H   0  0  0  0  0  0
  -22.0592   -2.7601   23.2830 H   0  0  0  0  0  0
  -22.3948  -11.9848   22.4970 H   0  0  0  0  0  0
  -21.1014  -13.1329   22.2645 H   0  0  0  0  0  0
  -24.6419  -15.8339   20.5914 H   0  0  0  0  0  0
  -26.2640  -15.6586   20.1507 H   0  0  0  0  0  0
  -26.7268  -32.5376   23.1046 H   0  0  0  0  0  0
  -25.0013  -33.9640   25.0295 H   0  0  0  0  0  0
  -22.7481  -31.2995   21.3743 H   0  0  0  0  0  0
  -23.3739  -35.9627   23.3261 H   0  0  0  0  0  0
  -24.3572  -36.8940   22.2072 H   0  0  0  0  0  0
  -23.7292  -37.6493   23.6678 H   0  0  0  0  0  0
  -26.1411  -31.5154   20.6058 H   0  0  0  0  0  0
  -26.8514  -30.8001   22.0241 H   0  0  0  0  0  0
  -28.0951  -28.8748   21.3072 H   0  0  0  0  0  0
  -25.9523  -25.8957   19.0002 H   0  0  0  0  0  0
  -24.0007  -27.3085   18.9788 H   0  0  0  0  0  0
  -23.7903  -30.5741   19.3882 H   0  0  0  0  0  0
  -22.7742  -29.2358   19.8348 H   0  0  0  0  0  0
  -25.1294  -36.1850   25.0815 H   0  0  0  0  0  0
  -21.0063  -28.3368   24.1343 H   0  0  0  0  0  0
  -21.6850  -26.8440   22.0375 H   0  0  0  0  0  0
  -20.6323  -26.2107   23.2531 H   0  0  0  0  0  0
  -19.6399  -27.5501   20.7071 H   0  0  0  0  0  0
  -19.7483  -25.8095   20.9211 H   0  0  0  0  0  0
  -18.1271  -25.9765   22.8434 H   0  0  0  0  0  0
  -17.4468  -26.6950   21.3862 H   0  0  0  0  0  0
  -19.7277  -30.7427   24.2931 H   0  0  0  0  0  0
  -17.4068  -31.5844   24.5392 H   0  0  0  0  0  0
  -15.4909  -30.2403   23.6754 H   0  0  0  0  0  0
  -15.9085  -28.0405   22.6019 H   0  0  0  0  0  0
  -24.5895  -30.7117   25.7784 H   0  0  0  0  0  0
  -24.9003  -32.2943   26.4867 H   0  0  0  0  0  0
  -25.8098  -30.8952   27.0206 H   0  0  0  0  0  0
  -26.3049  -29.6689   24.1260 H   0  0  0  0  0  0
  -27.4083  -29.7311   25.4790 H   0  0  0  0  0  0
  -27.8893  -30.4262   23.9506 H   0  0  0  0  0  0
  -27.2656  -33.3595   26.2040 H   0  0  0  0  0  0
  -28.3843  -32.6930   25.0252 H   0  0  0  0  0  0
  -28.0765  -31.8464   26.5359 H   0  0  0  0  0  0
  -28.2563  -38.0111   24.7486 H   0  0  0  0  0  0
  -28.1101  -36.2651   24.6255 H   0  0  0  0  0  0
  -27.2291  -37.1374   25.8856 H   0  0  0  0  0  0
  -20.9553  -29.8419   21.6225 H   0  0  0  0  0  0
  -26.0140  -38.2797   24.1439 H   0  0  0  0  0  0
  -26.5195  -17.9101   22.6437 H   0  0  0  0  0  0
  -27.2969  -20.1901   22.2883 H   0  0  0  0  0  0
  -27.7354  -15.9679   21.7868 H   0  0  0  0  0  0
  -30.7229  -18.6415   20.1478 H   0  0  0  0  0  0
  -28.4067  -22.6941   17.3900 H   0  0  0  0  0  0
  -26.8301  -22.9645   18.0993 H   0  0  0  0  0  0
  -27.7867  -25.1094   17.9759 H   0  0  0  0  0  0
  -29.3797  -24.5689   18.4401 H   0  0  0  0  0  0
  -28.8372  -21.1451   18.9006 H   0  0  0  0  0  0
  -27.2905  -21.3674   19.6560 H   0  0  0  0  0  0
  -27.0207  -24.5579   20.3595 H   0  0  0  0  0  0
  -30.6165  -21.1385   20.6813 H   0  0  0  0  0  0
  -29.8649  -21.4056   22.2299 H   0  0  0  0  0  0
  -30.4290  -16.3072   19.3861 H   0  0  0  0  0  0
  1 25  1  0  0  0
  1 30  2  0  0  0
  1 84  1  0  0  0
  2  3  1  0  0  0
  2 25  1  0  0  0
  2 86  1  0  0  0
  2 87  1  0  0  0
  3  4  1  0  0  0
  3 88  1  0  0  0
  3 89  1  0  0  0
  4  5  1  0  0  0
  4 90  1  0  0  0
  4 91  1  0  0  0
  5  6  1  0  0  0
  5 26  1  0  0  0
  5 92  1  0  0  0
  6 25  1  0  0  0
  6 93  1  0  0  0
  6 94  1  0  0  0
  7  8  2  0  0  0
  7 26  1  0  0  0
  7 29  1  0  0  0
  8  9  1  0  0  0
  8 22  1  0  0  0
  9 10  1  0  0  0
  9 27  2  0  0  0
 10 11  2  0  0  0
 10 15  1  0  0  0
 11 12  1  0  0  0
 11 95  1  0  0  0
 12 13  2  0  0  0
 12 96  1  0  0  0
 13 14  1  0  0  0
 13 31  1  0  0  0
 14 15  2  0  0  0
 14 97  1  0  0  0
 15 98  1  0  0  0
 16 17  2  0  0  0
 16 21  1  0  0  0
 16 31  1  0  0  0
 17 18  1  0  0  0
 17 99  1  0  0  0
 18 19  2  0  0  0
 18100  1  0  0  0
 19 20  1  0  0  0
 19 24  1  0  0  0
 20 21  2  0  0  0
 20101  1  0  0  0
 21 23  1  0  0  0
 22 28  1  0  0  0
 22 32  2  0  0  0
 26 27  1  0  0  0
 28102  1  0  0  0
 28103  1  0  0  0
 29104  1  0  0  0
 29105  1  0  0  0
 33 34  1  0  0  0
 33 66  1  0  0  0
 33 70  2  0  0  0
 34 36  1  0  0  0
 34 59  1  0  0  0
 34106  1  0  0  0
 35 44  2  0  0  0
 35 45  1  0  0  0
 35 68  1  0  0  0
 36 56  1  0  0  0
 36107  1  0  0  0
 37 39  1  0  0  0
 37 47  1  0  0  0
 37 66  1  0  0  0
 37108  1  0  0  0
 38 43  2  0  0  0
 38 46  1  0  0  0
 38 47  1  0  0  0
 39 64  1  0  0  0
 39 67  2  0  0  0
 40 52  1  0  0  0
 40 53  2  0  0  0
 40 58  1  0  0  0
 41109  1  0  0  0
 41110  1  0  0  0
 41111  1  0  0  0
 41 48  1  0  0  0
 42 43  1  0  0  0
 42 66  1  0  0  0
 42112  1  0  0  0
 42113  1  0  0  0
 43 44  1  0  0  0
 44114  1  0  0  0
 45 46  2  0  0  0
 45115  1  0  0  0
 46116  1  0  0  0
 47117  1  0  0  0
 47118  1  0  0  0
 48 56  1  0  0  0
 48 65  1  0  0  0
 48119  1  0  0  0
 49 50  1  0  0  0
 49 53  1  0  0  0
 49 64  1  0  0  0
 49120  1  0  0  0
 50 51  1  0  0  0
 50121  1  0  0  0
 50122  1  0  0  0
 51 52  1  0  0  0
 51123  1  0  0  0
 51124  1  0  0  0
 52125  1  0  0  0
 52126  1  0  0  0
 53 54  1  0  0  0
 54 55  2  0  0  0
 54127  1  0  0  0
 55 57  1  0  0  0
 55128  1  0  0  0
 56 69  2  0  0  0
 57 58  2  0  0  0
 57129  1  0  0  0
 58130  1  0  0  0
 59 60  1  0  0  0
 59 61  1  0  0  0
 59 62  1  0  0  0
 60131  1  0  0  0
 60132  1  0  0  0
 60133  1  0  0  0
 61134  1  0  0  0
 61135  1  0  0  0
 61136  1  0  0  0
 62137  1  0  0  0
 62138  1  0  0  0
 62139  1  0  0  0
 63 65  1  0  0  0
 63140  1  0  0  0
 63141  1  0  0  0
 63142  1  0  0  0
 64143  1  0  0  0
 65144  1  0  0  0
 68 81  1  0  0  0
 71 72  2  0  0  0
 71 73  1  0  0  0
 71145  1  0  0  0
 72 75  1  0  0  0
 72146  1  0  0  0
 73 76  2  0  0  0
 73147  1  0  0  0
 74 75  2  0  0  0
 74 76  1  0  0  0
 74148  1  0  0  0
 75 82  1  0  0  0
 76 84  1  0  0  0
 77 81  1  0  0  0
 77 83  1  0  0  0
 77 85  2  0  0  0
 78 79  1  0  0  0
 78 80  1  0  0  0
 78149  1  0  0  0
 78150  1  0  0  0
 79 81  1  0  0  0
 79151  1  0  0  0
 79152  1  0  0  0
 80 83  1  0  0  0
 80153  1  0  0  0
 80154  1  0  0  0
 81155  1  0  0  0
 82 83  1  0  0  0
 82156  1  0  0  0
 82157  1  0  0  0
 84158  1  0  0  0
M  ISO  4   1 100  68 101  81 101  84 100
M  END
> <chiral flag>
0

> <version>
0

> <s_m_source_file>
/data/baiqing/PycharmProjects/Reinvent-master-3.2/result/LINK_invent/BTK/process_docking_weight1_custom_product_contain_oxygen_bond_distance_aromatic_linkinvent_7_9_3/rearranged_h_0043.sdf

> <i_m_source_file_index>
12

> <r_mmod_Potential_Energy-OPLS-2005>
390.760406494141

> <r_mmod_Stretch_Energy-OPLS-2005>
141.500473022461

> <r_mmod_Bend_Energy-OPLS-2005>
210.102935791016

> <r_mmod_Torsional_Energy-OPLS-2005>
308.340240478516

> <r_mmod_Improper_Torsional_Energy-OPLS-2005>
31.4140930175781

> <r_mmod_Van_der_Waal_Energy-OPLS-2005>
140.430740356445

> <r_mmod_Electrostatic_Energy-OPLS-2005>
-344.031311035156

> <r_mmod_Solvation_Energy-OPLS-2005>
-224.844024658203

> <b_mmod_Minimization_Converged-OPLS-2005>
0

> <r_mmod_RMS_Derivative-OPLS-2005>
11.9895992279053

$$$$
12
                    3D
 Structure written by MMmdl.
159167  0  0  1  0            999 V2000
  -30.6989  -14.4859   20.5922 C   0  0  0  0  0  0
  -30.4237  -12.3246   19.4191 C   0  0  0  0  0  0
  -29.4934  -12.5111   18.2036 C   0  0  0  0  0  0
  -28.0155  -12.3685   18.6204 C   0  0  0  0  0  0
  -27.6593  -13.2080   19.8759 C   0  0  2  0  0  0
  -28.7032  -12.9952   20.9954 C   0  0  0  0  0  0
  -25.2584  -13.8157   20.5670 C   0  0  0  0  0  0
  -24.1841  -13.0439   20.9193 C   0  0  0  0  0  0
  -24.6384  -11.6905   20.8736 C   0  0  0  0  0  0
  -23.9042  -10.4295   21.0405 C   0  0  0  0  0  0
  -24.3606   -9.4215   21.9178 C   0  0  0  0  0  0
  -23.6295   -8.2242   22.0749 C   0  0  0  0  0  0
  -22.4273   -8.0275   21.3543 C   0  0  0  0  0  0
  -21.9898   -9.0238   20.4641 C   0  0  0  0  0  0
  -22.7217  -10.2123   20.3057 C   0  0  0  0  0  0
  -21.6847   -6.0732   22.5280 C   0  0  0  0  0  0
  -21.4011   -6.5645   23.8213 C   0  0  0  0  0  0
  -21.3665   -5.6803   24.9176 C   0  0  0  0  0  0
  -21.6046   -4.3063   24.7235 C   0  0  0  0  0  0
  -21.8822   -3.8151   23.4360 C   0  0  0  0  0  0
  -21.9198   -4.6956   22.3413 C   0  0  0  0  0  0
  -22.7861  -13.5219   21.1875 C   0  0  0  0  0  0
  -22.1667   -4.2139   21.0986 F   0  0  0  0  0  0
  -21.5626   -3.4549   25.7750 F   0  0  0  0  0  0
  -30.0283  -13.3112   20.4362 N   0  0  0  0  0  0
  -26.3012  -12.9326   20.3374 N   0  0  0  0  0  0
  -25.9308  -11.6482   20.5764 N   0  0  0  0  0  0
  -22.0510  -12.8186   22.0421 N   0  0  0  0  0  0
  -25.4313  -15.1864   20.4029 N   0  0  0  0  0  0
  -31.8359  -14.6686   20.1462 O   0  0  0  0  0  0
  -21.6644   -6.8866   21.4242 O   0  0  0  0  0  0
  -22.3546  -14.5530   20.6743 O   0  0  0  0  0  0
  -24.6166  -31.8658   23.2106 C   0  0  0  0  0  0
  -25.9046  -32.4817   23.8414 C   0  0  1  0  0  0
  -27.2286  -27.3995   20.0918 C   0  0  0  0  0  0
  -25.5907  -33.8621   24.2320 N   0  0  0  0  0  0
  -23.4071  -30.4923   21.5512 C   0  0  2  0  0  0
  -24.8543  -28.9669   20.1089 C   0  0  0  0  0  0
  -22.7418  -29.4641   22.4964 C   0  0  0  0  0  0
  -18.0267  -28.1364   22.8502 C   0  0  0  0  0  0
  -24.1484  -36.7325   23.2638 C   0  0  0  0  0  0
  -25.9438  -30.8193   21.3760 C   0  0  0  0  0  0
  -26.0187  -29.4567   20.7122 C   0  0  0  0  0  0
  -27.2073  -28.6811   20.7017 C   0  0  0  0  0  0
  -26.0446  -26.9570   19.4493 C   0  0  0  0  0  0
  -24.8657  -27.7180   19.4718 C   0  0  0  0  0  0
  -23.6173  -29.8335   20.1633 C   0  0  0  0  0  0
  -25.4111  -36.3112   24.0324 C   0  0  1  0  0  0
  -20.5858  -28.3660   23.1306 C   0  0  2  0  0  0
  -20.6754  -26.9392   22.5411 C   0  0  0  0  0  0
  -19.5739  -26.6373   21.5200 C   0  0  0  0  0  0
  -18.1912  -26.7915   22.1611 C   0  0  0  0  0  0
  -19.1516  -28.8834   23.2903 C   0  0  0  0  0  0
  -18.9445  -30.1440   23.8917 C   0  0  0  0  0  0
  -17.6449  -30.6577   24.0560 C   0  0  0  0  0  0
  -25.9045  -34.9470   23.5119 C   0  0  0  0  0  0
  -16.5341  -29.9070   23.6330 C   0  0  0  0  0  0
  -16.7257  -28.6479   23.0363 C   0  0  0  0  0  0
  -26.4473  -31.6623   25.0770 C   0  0  0  0  0  0
  -25.3743  -31.3722   26.1530 C   0  0  0  0  0  0
  -27.0323  -30.3053   24.6211 C   0  0  0  0  0  0
  -27.6034  -32.4372   25.7530 C   0  0  0  0  0  0
  -27.5579  -37.1807   24.8456 C   0  0  0  0  0  0
  -21.4141  -29.3024   22.3708 N   0  0  0  0  0  0
  -26.4291  -37.3796   23.9405 N   0  0  0  0  0  0
  -24.6744  -31.0734   22.1029 N   0  0  0  0  0  0
  -23.4194  -28.8152   23.2974 O   0  0  0  0  0  0
  -28.3712  -26.6069   20.1502 O   0  0  0  0  0  0
  -26.5589  -34.8917   22.4672 O   0  0  0  0  0  0
  -23.5343  -32.1422   23.7473 O   0  0  0  0  0  0
  -31.8793  -18.3283   22.6734 C   0  0  0  0  0  0
  -31.4328  -17.0267   22.3835 C   0  0  0  0  0  0
  -30.4072  -19.2662   20.9440 C   0  0  0  0  0  0
  -31.3880  -19.4490   21.9657 C   0  0  0  0  0  0
  -30.4632  -16.8196   21.3855 C   0  0  0  0  0  0
  -29.9378  -17.9382   20.6883 C   0  0  0  0  0  0
  -29.9174  -20.4019   20.1101 C   0  0  0  0  0  0
  -31.9700  -20.8122   22.3285 C   0  0  0  0  0  0
  -29.2088  -24.1817   20.4469 C   0  0  0  0  0  0
  -28.9234  -22.7489   19.8992 C   0  0  0  0  0  0
  -28.2137  -25.2020   19.8259 C   0  0  0  0  0  0
  -29.8510  -20.2531   18.7856 N   0  0  0  0  0  0
  -29.9850  -15.4979   21.1226 N   0  0  0  0  0  0
  -29.5641  -21.6099   20.6227 N   0  3  0  0  0  0
  -28.9866  -17.7139   19.7475 F   0  0  0  0  0  0
  -31.4674  -12.4308   19.1165 H   0  0  0  0  0  0
  -30.3284  -11.3136   19.8181 H   0  0  0  0  0  0
  -29.7345  -11.7811   17.4282 H   0  0  0  0  0  0
  -29.6594  -13.4938   17.7587 H   0  0  0  0  0  0
  -27.8270  -11.3117   18.8172 H   0  0  0  0  0  0
  -27.3640  -12.6423   17.7900 H   0  0  0  0  0  0
  -27.6999  -14.2562   19.5786 H   0  0  0  0  0  0
  -28.6869  -11.9597   21.3372 H   0  0  0  0  0  0
  -28.4624  -13.5910   21.8769 H   0  0  0  0  0  0
  -25.2748   -9.5690   22.4750 H   0  0  0  0  0  0
  -24.0019   -7.4628   22.7457 H   0  0  0  0  0  0
  -21.0840   -8.8741   19.8938 H   0  0  0  0  0  0
  -22.3675  -10.9656   19.6167 H   0  0  0  0  0  0
  -21.2002   -7.6152   23.9707 H   0  0  0  0  0  0
  -21.1477   -6.0536   25.9074 H   0  0  0  0  0  0
  -22.0598   -2.7613   23.2867 H   0  0  0  0  0  0
  -22.4154  -11.9848   22.4777 H   0  0  0  0  0  0
  -21.1124  -13.1176   22.2641 H   0  0  0  0  0  0
  -24.6607  -15.8401   20.4893 H   0  0  0  0  0  0
  -26.2745  -15.6153   20.0441 H   0  0  0  0  0  0
  -26.7114  -32.5508   23.1164 H   0  0  0  0  0  0
  -25.0077  -33.9811   25.0478 H   0  0  0  0  0  0
  -22.6985  -31.3105   21.4114 H   0  0  0  0  0  0
  -23.3738  -35.9661   23.3314 H   0  0  0  0  0  0
  -24.3564  -36.8951   22.2053 H   0  0  0  0  0  0
  -23.7245  -37.6532   23.6660 H   0  0  0  0  0  0
  -26.0728  -31.5904   20.6150 H   0  0  0  0  0  0
  -26.8250  -30.8604   22.0056 H   0  0  0  0  0  0
  -28.1038  -29.0536   21.1793 H   0  0  0  0  0  0
  -25.9939  -26.0204   18.9153 H   0  0  0  0  0  0
  -23.9766  -27.3410   18.9832 H   0  0  0  0  0  0
  -23.7273  -30.6124   19.4083 H   0  0  0  0  0  0
  -22.7415  -29.2565   19.8625 H   0  0  0  0  0  0
  -25.1274  -36.1979   25.0809 H   0  0  0  0  0  0
  -20.9968  -28.3214   24.1418 H   0  0  0  0  0  0
  -20.5635  -26.2262   23.3593 H   0  0  0  0  0  0
  -21.6620  -26.7404   22.1207 H   0  0  0  0  0  0
  -19.6901  -25.6280   21.1228 H   0  0  0  0  0  0
  -19.6683  -27.3185   20.6730 H   0  0  0  0  0  0
  -17.4175  -26.6674   21.4014 H   0  0  0  0  0  0
  -18.0316  -26.0037   22.8997 H   0  0  0  0  0  0
  -19.7920  -30.7245   24.2296 H   0  0  0  0  0  0
  -17.4999  -31.6260   24.5153 H   0  0  0  0  0  0
  -15.5338  -30.2975   23.7656 H   0  0  0  0  0  0
  -15.8656  -28.0804   22.7090 H   0  0  0  0  0  0
  -24.5893  -30.7098   25.7871 H   0  0  0  0  0  0
  -24.8966  -32.2879   26.5026 H   0  0  0  0  0  0
  -25.8117  -30.8854   27.0262 H   0  0  0  0  0  0
  -26.2896  -29.6804   24.1247 H   0  0  0  0  0  0
  -27.4041  -29.7315   25.4714 H   0  0  0  0  0  0
  -27.8753  -30.4347   23.9418 H   0  0  0  0  0  0
  -27.2620  -33.3641   26.2146 H   0  0  0  0  0  0
  -28.3815  -32.7004   25.0352 H   0  0  0  0  0  0
  -28.0744  -31.8502   26.5424 H   0  0  0  0  0  0
  -28.2580  -38.0117   24.7498 H   0  0  0  0  0  0
  -28.1088  -36.2643   24.6278 H   0  0  0  0  0  0
  -27.2299  -37.1464   25.8860 H   0  0  0  0  0  0
  -20.9301  -29.8820   21.6997 H   0  0  0  0  0  0
  -26.0184  -38.2870   24.1413 H   0  0  0  0  0  0
  -32.6260  -18.4570   23.4445 H   0  0  0  0  0  0
  -31.8329  -16.1917   22.9393 H   0  0  0  0  0  0
  -32.8607  -20.7086   22.9479 H   0  0  0  0  0  0
  -31.2504  -21.3970   22.9022 H   0  0  0  0  0  0
  -32.2637  -21.3785   21.4436 H   0  0  0  0  0  0
  -30.2309  -24.4753   20.2053 H   0  0  0  0  0  0
  -29.1225  -24.1989   21.5335 H   0  0  0  0  0  0
  -29.2011  -22.7305   18.8448 H   0  0  0  0  0  0
  -27.8474  -22.5681   19.9209 H   0  0  0  0  0  0
  -27.2405  -24.8459   20.1621 H   0  0  0  0  0  0
  -28.2381  -25.1058   18.7393 H   0  0  0  0  0  0
  -30.0871  -19.3563   18.3834 H   0  0  0  0  0  0
  -29.5951  -20.9990   18.1626 H   0  0  0  0  0  0
  -29.0025  -15.3269   21.2780 H   0  0  0  0  0  0
  -29.5516  -21.6639   21.6344 H   0  0  0  0  0  0
  1 25  1  0  0  0
  1 30  2  0  0  0
  1 83  1  0  0  0
  2  3  1  0  0  0
  2 25  1  0  0  0
  2 86  1  0  0  0
  2 87  1  0  0  0
  3  4  1  0  0  0
  3 88  1  0  0  0
  3 89  1  0  0  0
  4  5  1  0  0  0
  4 90  1  0  0  0
  4 91  1  0  0  0
  5  6  1  0  0  0
  5 26  1  0  0  0
  5 92  1  0  0  0
  6 25  1  0  0  0
  6 93  1  0  0  0
  6 94  1  0  0  0
  7  8  2  0  0  0
  7 26  1  0  0  0
  7 29  1  0  0  0
  8  9  1  0  0  0
  8 22  1  0  0  0
  9 10  1  0  0  0
  9 27  2  0  0  0
 10 11  2  0  0  0
 10 15  1  0  0  0
 11 12  1  0  0  0
 11 95  1  0  0  0
 12 13  2  0  0  0
 12 96  1  0  0  0
 13 14  1  0  0  0
 13 31  1  0  0  0
 14 15  2  0  0  0
 14 97  1  0  0  0
 15 98  1  0  0  0
 16 17  2  0  0  0
 16 21  1  0  0  0
 16 31  1  0  0  0
 17 18  1  0  0  0
 17 99  1  0  0  0
 18 19  2  0  0  0
 18100  1  0  0  0
 19 20  1  0  0  0
 19 24  1  0  0  0
 20 21  2  0  0  0
 20101  1  0  0  0
 21 23  1  0  0  0
 22 28  1  0  0  0
 22 32  2  0  0  0
 26 27  1  0  0  0
 28102  1  0  0  0
 28103  1  0  0  0
 29104  1  0  0  0
 29105  1  0  0  0
 33 34  1  0  0  0
 33 66  1  0  0  0
 33 70  2  0  0  0
 34 36  1  0  0  0
 34 59  1  0  0  0
 34106  1  0  0  0
 35 44  2  0  0  0
 35 45  1  0  0  0
 35 68  1  0  0  0
 36 56  1  0  0  0
 36107  1  0  0  0
 37 39  1  0  0  0
 37 47  1  0  0  0
 37 66  1  0  0  0
 37108  1  0  0  0
 38 43  2  0  0  0
 38 46  1  0  0  0
 38 47  1  0  0  0
 39 64  1  0  0  0
 39 67  2  0  0  0
 40 52  1  0  0  0
 40 53  2  0  0  0
 40 58  1  0  0  0
 41109  1  0  0  0
 41110  1  0  0  0
 41111  1  0  0  0
 41 48  1  0  0  0
 42 43  1  0  0  0
 42 66  1  0  0  0
 42112  1  0  0  0
 42113  1  0  0  0
 43 44  1  0  0  0
 44114  1  0  0  0
 45 46  2  0  0  0
 45115  1  0  0  0
 46116  1  0  0  0
 47117  1  0  0  0
 47118  1  0  0  0
 48 56  1  0  0  0
 48 65  1  0  0  0
 48119  1  0  0  0
 49 50  1  0  0  0
 49 53  1  0  0  0
 49 64  1  0  0  0
 49120  1  0  0  0
 50 51  1  0  0  0
 50121  1  0  0  0
 50122  1  0  0  0
 51 52  1  0  0  0
 51123  1  0  0  0
 51124  1  0  0  0
 52125  1  0  0  0
 52126  1  0  0  0
 53 54  1  0  0  0
 54 55  2  0  0  0
 54127  1  0  0  0
 55 57  1  0  0  0
 55128  1  0  0  0
 56 69  2  0  0  0
 57 58  2  0  0  0
 57129  1  0  0  0
 58130  1  0  0  0
 59 60  1  0  0  0
 59 61  1  0  0  0
 59 62  1  0  0  0
 60131  1  0  0  0
 60132  1  0  0  0
 60133  1  0  0  0
 61134  1  0  0  0
 61135  1  0  0  0
 61136  1  0  0  0
 62137  1  0  0  0
 62138  1  0  0  0
 62139  1  0  0  0
 63 65  1  0  0  0
 63140  1  0  0  0
 63141  1  0  0  0
 63142  1  0  0  0
 64143  1  0  0  0
 65144  1  0  0  0
 68 81  1  0  0  0
 71 72  2  0  0  0
 71 74  1  0  0  0
 71145  1  0  0  0
 72 75  1  0  0  0
 72146  1  0  0  0
 73 74  2  0  0  0
 73 76  1  0  0  0
 73 77  1  0  0  0
 74 78  1  0  0  0
 75 76  2  0  0  0
 75 83  1  0  0  0
 76 85  1  0  0  0
 77 82  1  0  0  0
 77 84  2  0  0  0
 78147  1  0  0  0
 78148  1  0  0  0
 78149  1  0  0  0
 79 80  1  0  0  0
 79 81  1  0  0  0
 79150  1  0  0  0
 79151  1  0  0  0
 80 84  1  0  0  0
 80152  1  0  0  0
 80153  1  0  0  0
 81154  1  0  0  0
 81155  1  0  0  0
 82156  1  0  0  0
 82157  1  0  0  0
 83158  1  0  0  0
 84159  1  0  0  0
M  CHG  1  84   1
M  ISO  4   1 100  68 101  81 101  83 100
M  END
> <chiral flag>
0

> <version>
0

> <s_m_source_file>
/data/baiqing/PycharmProjects/Reinvent-master-3.2/result/LINK_invent/BTK/process_docking_weight1_custom_product_contain_oxygen_bond_distance_aromatic_linkinvent_7_9_3/rearranged_h_0043.sdf

> <i_m_source_file_index>
13

> <r_mmod_Potential_Energy-OPLS-2005>
-191.43962097168

> <r_mmod_Stretch_Energy-OPLS-2005>
46.6816444396973

> <r_mmod_Bend_Energy-OPLS-2005>
104.776351928711

> <r_mmod_Torsional_Energy-OPLS-2005>
227.636047363281

> <r_mmod_Improper_Torsional_Energy-OPLS-2005>
4.21916389465332

> <r_mmod_Van_der_Waal_Energy-OPLS-2005>
167.121353149414

> <r_mmod_Electrostatic_Energy-OPLS-2005>
-353.34326171875

> <r_mmod_Solvation_Energy-OPLS-2005>
-407.489837646484

> <b_mmod_Minimization_Converged-OPLS-2005>
0

> <r_mmod_RMS_Derivative-OPLS-2005>
2.46800351142883

$$$$
13
                    3D
 Structure written by MMmdl.
167176  0  0  1  0            999 V2000
  -29.6538  -15.4363   20.7188 C   0  0  0  0  0  0
  -30.3405  -13.0539   19.6342 C   0  0  0  0  0  0
  -29.5263  -12.6638   18.3597 C   0  0  0  0  0  0
  -28.0764  -12.2717   18.7123 C   0  0  0  0  0  0
  -27.5238  -13.2031   19.8119 C   0  0  2  0  0  0
  -28.4419  -13.2710   21.0236 C   0  0  0  0  0  0
  -25.1945  -13.7992   20.5430 C   0  0  0  0  0  0
  -24.1400  -13.0302   20.9294 C   0  0  0  0  0  0
  -24.5992  -11.6777   20.8794 C   0  0  0  0  0  0
  -23.8797  -10.4199   21.0497 C   0  0  0  0  0  0
  -24.3470   -9.4151   21.9236 C   0  0  0  0  0  0
  -23.6210   -8.2163   22.0769 C   0  0  0  0  0  0
  -22.4200   -8.0196   21.3551 C   0  0  0  0  0  0
  -21.9777   -9.0139   20.4657 C   0  0  0  0  0  0
  -22.7030  -10.2041   20.3091 C   0  0  0  0  0  0
  -21.6822   -6.0680   22.5289 C   0  0  0  0  0  0
  -21.3988   -6.5608   23.8213 C   0  0  0  0  0  0
  -21.3652   -5.6776   24.9183 C   0  0  0  0  0  0
  -21.6043   -4.3039   24.7245 C   0  0  0  0  0  0
  -21.8823   -3.8116   23.4373 C   0  0  0  0  0  0
  -21.9182   -4.6917   22.3419 C   0  0  0  0  0  0
  -22.7516  -13.5181   21.2018 C   0  0  0  0  0  0
  -22.1661   -4.2107   21.0997 F   0  0  0  0  0  0
  -21.5631   -3.4530   25.7762 F   0  0  0  0  0  0
  -29.5384  -14.0270   20.5013 N   0  0  0  0  0  0
  -26.2037  -12.9030   20.2622 N   0  0  0  0  0  0
  -25.8768  -11.6264   20.5453 N   0  0  0  0  0  0
  -22.0160  -12.8207   22.0580 N   0  0  0  0  0  0
  -25.3688  -15.1694   20.3643 N   0  0  0  0  0  0
  -30.8742  -15.7138   20.5464 O   0  0  0  0  0  0
  -21.6597   -6.8790   21.4237 O   0  0  0  0  0  0
  -22.3304  -14.5535   20.6871 O   0  0  0  0  0  0
  -24.6667  -31.9559   23.2362 C   0  0  0  0  0  0
  -25.9601  -32.5129   23.8717 C   0  0  1  0  0  0
  -26.5788  -27.2296   20.1553 C   0  0  0  0  0  0
  -25.6494  -33.8884   24.2668 N   0  0  0  0  0  0
  -23.4519  -30.6596   21.5777 C   0  0  2  0  0  0
  -24.8387  -29.2621   19.9102 C   0  0  0  0  0  0
  -22.9888  -29.5910   22.6009 C   0  0  0  0  0  0
  -18.5382  -27.5545   22.6032 C   0  0  0  0  0  0
  -24.1523  -36.7352   23.2583 C   0  0  0  0  0  0
  -25.9994  -30.8094   21.4599 C   0  0  0  0  0  0
  -25.9408  -29.4801   20.7320 C   0  0  0  0  0  0
  -26.8747  -28.4319   20.8682 C   0  0  0  0  0  0
  -25.9498  -27.3240   18.9464 C   0  0  0  0  0  0
  -24.8874  -28.2299   18.9490 C   0  0  0  0  0  0
  -23.6732  -30.2181   20.0959 C   0  0  0  0  0  0
  -25.4140  -36.3231   24.0334 C   0  0  1  0  0  0
  -21.2080  -28.1766   23.5144 C   0  0  2  0  0  0
  -22.2463  -26.8404   22.8022 C   0  0  0  0  0  0
  -20.6100  -25.3155   20.9364 C   0  0  0  0  0  0
  -18.8367  -26.1021   21.5864 C   0  0  0  0  0  0
  -19.5424  -28.3861   23.3704 C   0  0  0  0  0  0
  -19.1162  -29.6591   23.9410 C   0  0  0  0  0  0
  -17.8021  -30.1775   23.9329 C   0  0  0  0  0  0
  -25.9179  -34.9633   23.5179 C   0  0  0  0  0  0
  -16.8193  -29.3773   23.3451 C   0  0  0  0  0  0
  -17.1885  -28.1360   22.7150 C   0  0  0  0  0  0
  -26.4629  -31.6682   25.1027 C   0  0  0  0  0  0
  -25.3698  -31.3823   26.1581 C   0  0  0  0  0  0
  -27.0420  -30.3056   24.6556 C   0  0  0  0  0  0
  -27.6178  -32.4274   25.7929 C   0  0  0  0  0  0
  -27.5624  -37.1872   24.8446 C   0  0  0  0  0  0
  -21.7087  -29.4190   22.8768 N   0  0  0  0  0  0
  -26.4290  -37.3938   23.9460 N   0  0  0  0  0  0
  -24.7231  -31.2028   22.1094 N   0  0  0  0  0  0
  -23.8180  -28.9770   23.2670 O   0  0  0  0  0  0
  -25.7473  -26.2327   20.6713 O   0  0  0  0  0  0
  -26.5496  -34.9013   22.4593 O   0  0  0  0  0  0
  -23.5850  -32.2369   23.7761 O   0  0  0  0  0  0
  -27.5046  -20.3538   21.9484 C   0  0  0  0  0  0
  -25.8568  -22.2490   22.4477 C   0  0  0  0  0  0
  -25.1241  -20.0267   21.9653 C   0  0  0  0  0  0
  -27.1758  -21.7051   22.2951 C   0  0  0  0  0  0
  -26.5713  -19.3087   21.7654 C   0  0  0  0  0  0
  -24.6323  -21.5461   22.2795 C   0  0  0  0  0  0
  -20.7286  -25.3203   23.1006 C   0  0  0  0  0  0
  -19.9372  -25.0311   24.1535 C   0  0  0  0  0  0
  -20.8623  -27.4153   21.2401 C   0  0  0  0  0  0
  -22.5143  -27.1128   20.3591 C   0  0  0  0  0  0
  -23.4572  -24.7551   21.4376 C   0  0  0  0  0  0
  -24.0484  -26.2676   20.9256 C   0  0  1  0  0  0
  -28.3407  -22.6360   22.5965 C   0  0  0  0  0  0
  -27.3793  -17.6034   21.7239 C   0  0  0  0  0  0
  -23.0274  -22.5322   22.5936 C   0  0  0  0  0  0
  -28.4136  -16.4072   20.8561 N   0  0  0  0  0  0
  -22.4666  -24.2379   22.6292 N   0  3  2  0  0  0
  -31.2844  -13.5086   19.3323 H   0  0  0  0  0  0
  -30.6151  -12.1663   20.2077 H   0  0  0  0  0  0
  -30.0235  -11.8641   17.8101 H   0  0  0  0  0  0
  -29.5003  -13.5250   17.6907 H   0  0  0  0  0  0
  -28.0748  -11.2408   19.0719 H   0  0  0  0  0  0
  -27.4438  -12.2966   17.8239 H   0  0  0  0  0  0
  -27.4573  -14.1810   19.3331 H   0  0  0  0  0  0
  -28.7183  -12.2821   21.3958 H   0  0  0  0  0  0
  -27.9705  -13.8017   21.8545 H   0  0  0  0  0  0
  -25.2607   -9.5684   22.4807 H   0  0  0  0  0  0
  -23.9944   -7.4553   22.7471 H   0  0  0  0  0  0
  -21.0716   -8.8618   19.8962 H   0  0  0  0  0  0
  -22.3470  -10.9589   19.6220 H   0  0  0  0  0  0
  -21.1975   -7.6117   23.9704 H   0  0  0  0  0  0
  -21.1474   -6.0512   25.9085 H   0  0  0  0  0  0
  -22.0610   -2.7578   23.2885 H   0  0  0  0  0  0
  -22.3733  -11.9836   22.4950 H   0  0  0  0  0  0
  -21.0799  -13.1291   22.2810 H   0  0  0  0  0  0
  -24.5133  -15.7088   20.4451 H   0  0  0  0  0  0
  -25.8799  -15.4497   19.5377 H   0  0  0  0  0  0
  -26.7702  -32.5629   23.1473 H   0  0  0  0  0  0
  -25.0861  -34.0077   25.0953 H   0  0  0  0  0  0
  -22.6976  -31.4494   21.5577 H   0  0  0  0  0  0
  -23.3842  -35.9620   23.3186 H   0  0  0  0  0  0
  -24.3652  -36.9018   22.2012 H   0  0  0  0  0  0
  -23.7180  -37.6509   23.6596 H   0  0  0  0  0  0
  -26.2668  -31.5843   20.7407 H   0  0  0  0  0  0
  -26.8417  -30.7360   22.1335 H   0  0  0  0  0  0
  -27.6116  -28.4588   21.6577 H   0  0  0  0  0  0
  -25.8558  -26.4663   18.2946 H   0  0  0  0  0  0
  -24.1098  -28.1381   18.2023 H   0  0  0  0  0  0
  -23.9732  -31.1168   19.5525 H   0  0  0  0  0  0
  -22.7472  -29.9751   19.5784 H   0  0  0  0  0  0
  -25.1264  -36.2096   25.0813 H   0  0  0  0  0  0
  -21.4357  -28.2441   24.5813 H   0  0  0  0  0  0
  -22.4118  -26.4723   23.8344 H   0  0  0  0  0  0
  -23.2824  -26.7678   23.0336 H   0  0  0  0  0  0
  -20.5924  -24.2183   20.9893 H   0  0  0  0  0  0
  -20.7307  -25.4446   19.8572 H   0  0  0  0  0  0
  -18.2521  -26.2816   20.6846 H   0  0  0  0  0  0
  -18.2713  -25.2948   22.0536 H   0  0  0  0  0  0
  -19.8535  -30.2622   24.4495 H   0  0  0  0  0  0
  -17.5629  -31.1232   24.3977 H   0  0  0  0  0  0
  -15.7882  -29.7038   23.3363 H   0  0  0  0  0  0
  -16.3898  -27.5916   22.2258 H   0  0  0  0  0  0
  -24.5884  -30.7240   25.7760 H   0  0  0  0  0  0
  -24.8884  -32.2992   26.4993 H   0  0  0  0  0  0
  -25.7863  -30.8927   27.0391 H   0  0  0  0  0  0
  -26.3059  -29.6909   24.1373 H   0  0  0  0  0  0
  -27.3779  -29.7232   25.5146 H   0  0  0  0  0  0
  -27.9116  -30.4262   24.0093 H   0  0  0  0  0  0
  -27.2821  -33.3556   26.2568 H   0  0  0  0  0  0
  -28.4058  -32.6851   25.0838 H   0  0  0  0  0  0
  -28.0742  -31.8308   26.5842 H   0  0  0  0  0  0
  -28.2524  -38.0294   24.7719 H   0  0  0  0  0  0
  -28.1258  -36.2853   24.5986 H   0  0  0  0  0  0
  -27.2386  -37.1160   25.8848 H   0  0  0  0  0  0
  -21.0243  -30.0063   22.4190 H   0  0  0  0  0  0
  -26.0170  -38.2983   24.1579 H   0  0  0  0  0  0
  -28.5494  -20.0738   21.9168 H   0  0  0  0  0  0
  -25.8122  -23.2807   22.7627 H   0  0  0  0  0  0
  -24.3033  -19.3255   21.9163 H   0  0  0  0  0  0
  -19.0874  -25.6403   24.4175 H   0  0  0  0  0  0
  -20.1345  -24.1612   24.7622 H   0  0  0  0  0  0
  -20.5376  -28.4470   21.2581 H   0  0  0  0  0  0
  -20.2190  -27.4418   20.3432 H   0  0  0  0  0  0
  -22.7247  -28.0940   20.0899 H   0  0  0  0  0  0
  -22.3114  -26.6929   19.3733 H   0  0  0  0  0  0
  -24.3896  -24.2339   21.5922 H   0  0  0  0  0  0
  -23.0744  -24.2865   20.5305 H   0  0  0  0  0  0
  -24.4337  -26.9709   21.6473 H   0  0  0  0  0  0
  -29.3002  -22.1795   22.3528 H   0  0  0  0  0  0
  -28.3596  -22.8874   23.6581 H   0  0  0  0  0  0
  -28.2604  -23.5643   22.0308 H   0  0  0  0  0  0
  -26.4829  -17.0000   21.8558 H   0  0  0  0  0  0
  -27.8360  -17.5666   22.7128 H   0  0  0  0  0  0
  -22.6887  -22.1494   23.5551 H   0  0  0  0  0  0
  -22.3390  -22.0803   21.8799 H   0  0  0  0  0  0
  -27.6933  -15.8182   20.4622 H   0  0  0  0  0  0
  -23.0277  -24.4899   23.4300 H   0  0  0  0  0  0
  1 25  1  0  0  0
  1 30  2  0  0  0
  1 86  1  0  0  0
  2  3  1  0  0  0
  2 25  1  0  0  0
  2 88  1  0  0  0
  2 89  1  0  0  0
  3  4  1  0  0  0
  3 90  1  0  0  0
  3 91  1  0  0  0
  4  5  1  0  0  0
  4 92  1  0  0  0
  4 93  1  0  0  0
  5  6  1  0  0  0
  5 26  1  0  0  0
  5 94  1  0  0  0
  6 25  1  0  0  0
  6 95  1  0  0  0
  6 96  1  0  0  0
  7  8  2  0  0  0
  7 26  1  0  0  0
  7 29  1  0  0  0
  8  9  1  0  0  0
  8 22  1  0  0  0
  9 10  1  0  0  0
  9 27  2  0  0  0
 10 11  2  0  0  0
 10 15  1  0  0  0
 11 12  1  0  0  0
 11 97  1  0  0  0
 12 13  2  0  0  0
 12 98  1  0  0  0
 13 14  1  0  0  0
 13 31  1  0  0  0
 14 15  2  0  0  0
 14 99  1  0  0  0
 15100  1  0  0  0
 16 17  2  0  0  0
 16 21  1  0  0  0
 16 31  1  0  0  0
 17 18  1  0  0  0
 17101  1  0  0  0
 18 19  2  0  0  0
 18102  1  0  0  0
 19 20  1  0  0  0
 19 24  1  0  0  0
 20 21  2  0  0  0
 20103  1  0  0  0
 21 23  1  0  0  0
 22 28  1  0  0  0
 22 32  2  0  0  0
 26 27  1  0  0  0
 28104  1  0  0  0
 28105  1  0  0  0
 29106  1  0  0  0
 29107  1  0  0  0
 33 34  1  0  0  0
 33 66  1  0  0  0
 33 70  2  0  0  0
 34 36  1  0  0  0
 34 59  1  0  0  0
 34108  1  0  0  0
 35 44  2  0  0  0
 35 45  1  0  0  0
 35 68  1  0  0  0
 36 56  1  0  0  0
 36109  1  0  0  0
 37 39  1  0  0  0
 37 47  1  0  0  0
 37 66  1  0  0  0
 37110  1  0  0  0
 38 43  2  0  0  0
 38 46  1  0  0  0
 38 47  1  0  0  0
 39 64  1  0  0  0
 39 67  2  0  0  0
 40 52  1  0  0  0
 40 53  2  0  0  0
 40 58  1  0  0  0
 41111  1  0  0  0
 41112  1  0  0  0
 41113  1  0  0  0
 41 48  1  0  0  0
 42 43  1  0  0  0
 42 66  1  0  0  0
 42114  1  0  0  0
 42115  1  0  0  0
 43 44  1  0  0  0
 44116  1  0  0  0
 45 46  2  0  0  0
 45117  1  0  0  0
 46118  1  0  0  0
 47119  1  0  0  0
 47120  1  0  0  0
 48 56  1  0  0  0
 48 65  1  0  0  0
 48121  1  0  0  0
 49 50  1  0  0  0
 49 53  1  0  0  0
 49 64  1  0  0  0
 49122  1  0  0  0
 50 51  1  0  0  0
 50123  1  0  0  0
 50124  1  0  0  0
 51 52  1  0  0  0
 51125  1  0  0  0
 51126  1  0  0  0
 52127  1  0  0  0
 52128  1  0  0  0
 53 54  1  0  0  0
 54 55  2  0  0  0
 54129  1  0  0  0
 55 57  1  0  0  0
 55130  1  0  0  0
 56 69  2  0  0  0
 57 58  2  0  0  0
 57131  1  0  0  0
 58132  1  0  0  0
 59 60  1  0  0  0
 59 61  1  0  0  0
 59 62  1  0  0  0
 60133  1  0  0  0
 60134  1  0  0  0
 60135  1  0  0  0
 61136  1  0  0  0
 61137  1  0  0  0
 61138  1  0  0  0
 62139  1  0  0  0
 62140  1  0  0  0
 62141  1  0  0  0
 63 65  1  0  0  0
 63142  1  0  0  0
 63143  1  0  0  0
 63144  1  0  0  0
 64145  1  0  0  0
 65146  1  0  0  0
 68 82  1  0  0  0
 71 74  2  0  0  0
 71 75  1  0  0  0
 71147  1  0  0  0
 72 74  1  0  0  0
 72 76  2  0  0  0
 72148  1  0  0  0
 73 75  2  0  0  0
 73 76  1  0  0  0
 73149  1  0  0  0
 74 83  1  0  0  0
 75 84  1  0  0  0
 76 85  1  0  0  0
 77 78  2  0  0  0
 77 79  1  0  0  0
 77 87  1  0  0  0
 78150  1  0  0  0
 78151  1  0  0  0
 79 80  1  0  0  0
 79152  1  0  0  0
 79153  1  0  0  0
 80 82  1  0  0  0
 80154  1  0  0  0
 80155  1  0  0  0
 81 82  1  0  0  0
 81 87  1  0  0  0
 81156  1  0  0  0
 81157  1  0  0  0
 82158  1  0  0  0
 83159  1  0  0  0
 83160  1  0  0  0
 83161  1  0  0  0
 84 86  1  0  0  0
 84162  1  0  0  0
 84163  1  0  0  0
 85164  1  0  0  0
 85165  1  0  0  0
 85 87  1  0  0  0
 86166  1  0  0  0
 87167  1  0  0  0
M  CHG  1  87   1
M  ISO  4   1 100  68 101  82 101  86 100
M  END
> <chiral flag>
0

> <version>
0

> <s_m_source_file>
/data/baiqing/PycharmProjects/Reinvent-master-3.2/result/LINK_invent/BTK/process_docking_weight1_custom_product_contain_oxygen_bond_distance_aromatic_linkinvent_7_9_3/rearranged_h_0043.sdf

> <i_m_source_file_index>
14

> <r_mmod_Potential_Energy-OPLS-2005>
13356.0615234375

> <r_mmod_Stretch_Energy-OPLS-2005>
7035.56787109375

> <r_mmod_Bend_Energy-OPLS-2005>
1448.8671875

> <r_mmod_Torsional_Energy-OPLS-2005>
505.624145507812

> <r_mmod_Improper_Torsional_Energy-OPLS-2005>
45.6030120849609

> <r_mmod_Van_der_Waal_Energy-OPLS-2005>
2331.35717773438

> <r_mmod_Electrostatic_Energy-OPLS-2005>
-353.164520263672

> <r_mmod_Solvation_Energy-OPLS-2005>
-402.762420654297

> <b_mmod_Minimization_Converged-OPLS-2005>
0

> <r_mmod_RMS_Derivative-OPLS-2005>
5.79929733276367

$$$$
14
                    3D
 Structure written by MMmdl.
161170  0  0  1  0            999 V2000
  -30.6037  -14.7522   20.4475 C   0  0  0  0  0  0
  -30.4289  -12.4568   19.4713 C   0  0  0  0  0  0
  -29.5049  -12.5016   18.2347 C   0  0  0  0  0  0
  -28.0341  -12.3194   18.6552 C   0  0  0  0  0  0
  -27.6378  -13.2284   19.8493 C   0  0  2  0  0  0
  -28.6828  -13.1724   20.9848 C   0  0  0  0  0  0
  -25.2485  -13.8173   20.5676 C   0  0  0  0  0  0
  -24.1788  -13.0427   20.9224 C   0  0  0  0  0  0
  -24.6381  -11.6908   20.8780 C   0  0  0  0  0  0
  -23.9068  -10.4282   21.0427 C   0  0  0  0  0  0
  -24.3620   -9.4197   21.9202 C   0  0  0  0  0  0
  -23.6292   -8.2235   22.0768 C   0  0  0  0  0  0
  -22.4277   -8.0279   21.3554 C   0  0  0  0  0  0
  -21.9910   -9.0253   20.4652 C   0  0  0  0  0  0
  -22.7245  -10.2129   20.3066 C   0  0  0  0  0  0
  -21.6847   -6.0732   22.5278 C   0  0  0  0  0  0
  -21.4010   -6.5640   23.8211 C   0  0  0  0  0  0
  -21.3658   -5.6798   24.9177 C   0  0  0  0  0  0
  -21.6041   -4.3056   24.7225 C   0  0  0  0  0  0
  -21.8825   -3.8144   23.4346 C   0  0  0  0  0  0
  -21.9191   -4.6960   22.3397 C   0  0  0  0  0  0
  -22.7815  -13.5220   21.1874 C   0  0  0  0  0  0
  -22.1662   -4.2146   21.0975 F   0  0  0  0  0  0
  -21.5625   -3.4539   25.7735 F   0  0  0  0  0  0
  -29.9817  -13.5237   20.3977 N   0  0  0  0  0  0
  -26.2913  -12.9379   20.3281 N   0  0  0  0  0  0
  -25.9311  -11.6525   20.5782 N   0  0  0  0  0  0
  -22.0455  -12.8211   22.0423 N   0  0  0  0  0  0
  -25.4139  -15.1884   20.4010 N   0  0  0  0  0  0
  -31.7976  -14.8302   20.1412 O   0  0  0  0  0  0
  -21.6642   -6.8876   21.4244 O   0  0  0  0  0  0
  -22.3508  -14.5530   20.6721 O   0  0  0  0  0  0
  -24.6310  -31.8535   23.1940 C   0  0  0  0  0  0
  -25.9140  -32.4733   23.8290 C   0  0  1  0  0  0
  -27.2211  -27.2565   20.1238 C   0  0  0  0  0  0
  -25.5925  -33.8545   24.2221 N   0  0  0  0  0  0
  -23.4279  -30.4734   21.5376 C   0  0  2  0  0  0
  -24.8726  -28.9171   20.1056 C   0  0  0  0  0  0
  -22.7499  -29.4590   22.4913 C   0  0  0  0  0  0
  -18.0290  -28.1392   22.8500 C   0  0  0  0  0  0
  -24.1495  -36.7266   23.2642 C   0  0  0  0  0  0
  -25.9737  -30.7631   21.3735 C   0  0  0  0  0  0
  -26.0417  -29.3858   20.7142 C   0  0  0  0  0  0
  -27.2148  -28.5666   20.7137 C   0  0  0  0  0  0
  -26.0241  -26.8462   19.4961 C   0  0  0  0  0  0
  -24.8680  -27.6549   19.4883 C   0  0  0  0  0  0
  -23.6434  -29.8038   20.1532 C   0  0  0  0  0  0
  -25.4128  -36.3058   24.0322 C   0  0  1  0  0  0
  -20.5892  -28.3693   23.1273 C   0  0  2  0  0  0
  -20.6792  -26.9411   22.5410 C   0  0  0  0  0  0
  -19.5766  -26.6387   21.5215 C   0  0  0  0  0  0
  -18.1942  -26.7939   22.1621 C   0  0  0  0  0  0
  -19.1547  -28.8864   23.2879 C   0  0  0  0  0  0
  -18.9468  -30.1474   23.8878 C   0  0  0  0  0  0
  -17.6471  -30.6589   24.0577 C   0  0  0  0  0  0
  -25.9061  -34.9431   23.5079 C   0  0  0  0  0  0
  -16.5357  -29.9095   23.6336 C   0  0  0  0  0  0
  -16.7275  -28.6516   23.0353 C   0  0  0  0  0  0
  -26.4503  -31.6578   25.0698 C   0  0  0  0  0  0
  -25.3711  -31.3735   26.1404 C   0  0  0  0  0  0
  -27.0368  -30.3008   24.6199 C   0  0  0  0  0  0
  -27.6049  -32.4334   25.7466 C   0  0  0  0  0  0
  -27.5582  -37.1797   24.8476 C   0  0  0  0  0  0
  -21.4213  -29.3044   22.3676 N   0  0  0  0  0  0
  -26.4298  -37.3767   23.9407 N   0  0  0  0  0  0
  -24.6966  -31.0506   22.0900 N   0  0  0  0  0  0
  -23.4203  -28.8154   23.3024 O   0  0  0  0  0  0
  -28.3409  -26.3991   20.2272 O   0  0  0  0  0  0
  -26.5662  -34.8912   22.4660 O   0  0  0  0  0  0
  -23.5460  -32.1346   23.7242 O   0  0  0  0  0  0
  -31.7982  -19.1432   20.9037 C   0  0  0  0  0  0
  -30.8387  -20.1592   20.7280 C   0  0  0  0  0  0
  -31.4530  -17.7773   20.8491 C   0  0  0  0  0  0
  -29.4898  -19.8531   20.4626 C   0  0  0  0  0  0
  -29.1519  -18.4269   20.3972 C   0  0  0  0  0  0
  -30.1276  -17.3513   20.5989 C   0  0  0  0  0  0
  -28.3005  -23.7052   20.3776 C   0  0  0  0  0  0
  -30.6080  -23.7518   18.6963 C   0  0  0  0  0  0
  -29.9196  -25.1179   18.9125 C   0  0  0  0  0  0
  -29.6169  -22.5723   18.6624 C   0  0  0  0  0  0
  -28.5038  -25.0688   19.5402 C   0  0  2  0  0  0
  -27.7115  -18.0551   20.0862 C   0  0  0  0  0  0
  -28.4502  -21.0695   20.3316 C   0  0  0  0  0  0
  -28.8258  -22.5005   19.8980 N   0  0  0  0  0  0
  -29.8117  -15.8887   20.6092 N   0  0  0  0  0  0
  -27.6229  -23.7468   21.4087 O   0  0  0  0  0  0
  -31.4691  -12.5798   19.1654 H   0  0  0  0  0  0
  -30.3747  -11.4829   19.9598 H   0  0  0  0  0  0
  -29.7893  -11.7262   17.5226 H   0  0  0  0  0  0
  -29.6241  -13.4543   17.7162 H   0  0  0  0  0  0
  -27.9016  -11.2719   18.9318 H   0  0  0  0  0  0
  -27.3704  -12.4934   17.8070 H   0  0  0  0  0  0
  -27.6291  -14.2463   19.4605 H   0  0  0  0  0  0
  -28.7206  -12.1791   21.4323 H   0  0  0  0  0  0
  -28.4158  -13.8594   21.7895 H   0  0  0  0  0  0
  -25.2758   -9.5667   22.4783 H   0  0  0  0  0  0
  -23.9991   -7.4620   22.7483 H   0  0  0  0  0  0
  -21.0842   -8.8775   19.8945 H   0  0  0  0  0  0
  -22.3715  -10.9673   19.6170 H   0  0  0  0  0  0
  -21.2010   -7.6152   23.9714 H   0  0  0  0  0  0
  -21.1473   -6.0525   25.9078 H   0  0  0  0  0  0
  -22.0604   -2.7605   23.2843 H   0  0  0  0  0  0
  -22.4056  -11.9851   22.4779 H   0  0  0  0  0  0
  -21.1088  -13.1252   22.2657 H   0  0  0  0  0  0
  -24.6355  -15.8324   20.4853 H   0  0  0  0  0  0
  -26.2348  -15.6103   19.9908 H   0  0  0  0  0  0
  -26.7210  -32.5366   23.1027 H   0  0  0  0  0  0
  -25.0090  -33.9697   25.0373 H   0  0  0  0  0  0
  -22.7264  -31.2972   21.3900 H   0  0  0  0  0  0
  -23.3765  -35.9583   23.3298 H   0  0  0  0  0  0
  -24.3588  -36.8897   22.2056 H   0  0  0  0  0  0
  -23.7235  -37.6462   23.6676 H   0  0  0  0  0  0
  -26.1217  -31.5254   20.6066 H   0  0  0  0  0  0
  -26.8485  -30.8062   22.0115 H   0  0  0  0  0  0
  -28.1091  -28.9200   21.2062 H   0  0  0  0  0  0
  -25.9371  -25.8705   19.0455 H   0  0  0  0  0  0
  -23.9653  -27.2885   19.0182 H   0  0  0  0  0  0
  -23.7691  -30.5777   19.3938 H   0  0  0  0  0  0
  -22.7600  -29.2380   19.8501 H   0  0  0  0  0  0
  -25.1315  -36.1890   25.0817 H   0  0  0  0  0  0
  -20.9989  -28.3247   24.1385 H   0  0  0  0  0  0
  -20.5715  -26.2293   23.3611 H   0  0  0  0  0  0
  -21.6658  -26.7462   22.1183 H   0  0  0  0  0  0
  -19.6929  -25.6296   21.1245 H   0  0  0  0  0  0
  -19.6690  -27.3216   20.6755 H   0  0  0  0  0  0
  -17.4224  -26.6697   21.4016 H   0  0  0  0  0  0
  -18.0321  -26.0082   22.9006 H   0  0  0  0  0  0
  -19.7948  -30.7321   24.2207 H   0  0  0  0  0  0
  -17.5016  -31.6256   24.5209 H   0  0  0  0  0  0
  -15.5358  -30.2999   23.7679 H   0  0  0  0  0  0
  -15.8671  -28.0843   22.7052 H   0  0  0  0  0  0
  -24.5885  -30.7095   25.7729 H   0  0  0  0  0  0
  -24.8889  -32.2907   26.4806 H   0  0  0  0  0  0
  -25.7990  -30.8921   27.0199 H   0  0  0  0  0  0
  -26.2959  -29.6747   24.1231 H   0  0  0  0  0  0
  -27.4092  -29.7289   25.4703 H   0  0  0  0  0  0
  -27.8803  -30.4322   23.9416 H   0  0  0  0  0  0
  -27.2664  -33.3673   26.1978 H   0  0  0  0  0  0
  -28.3877  -32.6852   25.0291 H   0  0  0  0  0  0
  -28.0704  -31.8506   26.5429 H   0  0  0  0  0  0
  -28.2612  -38.0093   24.7532 H   0  0  0  0  0  0
  -28.1073  -36.2626   24.6286 H   0  0  0  0  0  0
  -27.2306  -37.1419   25.8886 H   0  0  0  0  0  0
  -20.9406  -29.8725   21.6843 H   0  0  0  0  0  0
  -26.0162  -38.2835   24.1403 H   0  0  0  0  0  0
  -32.8237  -19.4185   21.1025 H   0  0  0  0  0  0
  -31.1529  -21.1904   20.8117 H   0  0  0  0  0  0
  -32.2402  -17.0602   21.0269 H   0  0  0  0  0  0
  -31.3234  -23.5840   19.5039 H   0  0  0  0  0  0
  -31.1996  -23.7740   17.7798 H   0  0  0  0  0  0
  -29.8435  -25.6354   17.9560 H   0  0  0  0  0  0
  -30.5759  -25.7408   19.5217 H   0  0  0  0  0  0
  -30.1626  -21.6436   18.4981 H   0  0  0  0  0  0
  -28.9424  -22.6766   17.8107 H   0  0  0  0  0  0
  -27.8103  -24.9948   18.7042 H   0  0  0  0  0  0
  -27.0378  -18.4714   20.8347 H   0  0  0  0  0  0
  -27.5527  -16.9801   20.0576 H   0  0  0  0  0  0
  -27.4258  -18.4448   19.1082 H   0  0  0  0  0  0
  -27.9309  -21.1312   21.2889 H   0  0  0  0  0  0
  -27.6820  -20.7577   19.6243 H   0  0  0  0  0  0
  -28.8356  -15.6712   20.7319 H   0  0  0  0  0  0
  1 25  1  0  0  0
  1 30  2  0  0  0
  1 85  1  0  0  0
  2  3  1  0  0  0
  2 25  1  0  0  0
  2 87  1  0  0  0
  2 88  1  0  0  0
  3  4  1  0  0  0
  3 89  1  0  0  0
  3 90  1  0  0  0
  4  5  1  0  0  0
  4 91  1  0  0  0
  4 92  1  0  0  0
  5  6  1  0  0  0
  5 26  1  0  0  0
  5 93  1  0  0  0
  6 25  1  0  0  0
  6 94  1  0  0  0
  6 95  1  0  0  0
  7  8  2  0  0  0
  7 26  1  0  0  0
  7 29  1  0  0  0
  8  9  1  0  0  0
  8 22  1  0  0  0
  9 10  1  0  0  0
  9 27  2  0  0  0
 10 11  2  0  0  0
 10 15  1  0  0  0
 11 12  1  0  0  0
 11 96  1  0  0  0
 12 13  2  0  0  0
 12 97  1  0  0  0
 13 14  1  0  0  0
 13 31  1  0  0  0
 14 15  2  0  0  0
 14 98  1  0  0  0
 15 99  1  0  0  0
 16 17  2  0  0  0
 16 21  1  0  0  0
 16 31  1  0  0  0
 17 18  1  0  0  0
 17100  1  0  0  0
 18 19  2  0  0  0
 18101  1  0  0  0
 19 20  1  0  0  0
 19 24  1  0  0  0
 20 21  2  0  0  0
 20102  1  0  0  0
 21 23  1  0  0  0
 22 28  1  0  0  0
 22 32  2  0  0  0
 26 27  1  0  0  0
 28103  1  0  0  0
 28104  1  0  0  0
 29105  1  0  0  0
 29106  1  0  0  0
 33 34  1  0  0  0
 33 66  1  0  0  0
 33 70  2  0  0  0
 34 36  1  0  0  0
 34 59  1  0  0  0
 34107  1  0  0  0
 35 44  2  0  0  0
 35 45  1  0  0  0
 35 68  1  0  0  0
 36 56  1  0  0  0
 36108  1  0  0  0
 37 39  1  0  0  0
 37 47  1  0  0  0
 37 66  1  0  0  0
 37109  1  0  0  0
 38 43  2  0  0  0
 38 46  1  0  0  0
 38 47  1  0  0  0
 39 64  1  0  0  0
 39 67  2  0  0  0
 40 52  1  0  0  0
 40 53  2  0  0  0
 40 58  1  0  0  0
 41110  1  0  0  0
 41111  1  0  0  0
 41112  1  0  0  0
 41 48  1  0  0  0
 42 43  1  0  0  0
 42 66  1  0  0  0
 42113  1  0  0  0
 42114  1  0  0  0
 43 44  1  0  0  0
 44115  1  0  0  0
 45 46  2  0  0  0
 45116  1  0  0  0
 46117  1  0  0  0
 47118  1  0  0  0
 47119  1  0  0  0
 48 56  1  0  0  0
 48 65  1  0  0  0
 48120  1  0  0  0
 49 50  1  0  0  0
 49 53  1  0  0  0
 49 64  1  0  0  0
 49121  1  0  0  0
 50 51  1  0  0  0
 50122  1  0  0  0
 50123  1  0  0  0
 51 52  1  0  0  0
 51124  1  0  0  0
 51125  1  0  0  0
 52126  1  0  0  0
 52127  1  0  0  0
 53 54  1  0  0  0
 54 55  2  0  0  0
 54128  1  0  0  0
 55 57  1  0  0  0
 55129  1  0  0  0
 56 69  2  0  0  0
 57 58  2  0  0  0
 57130  1  0  0  0
 58131  1  0  0  0
 59 60  1  0  0  0
 59 61  1  0  0  0
 59 62  1  0  0  0
 60132  1  0  0  0
 60133  1  0  0  0
 60134  1  0  0  0
 61135  1  0  0  0
 61136  1  0  0  0
 61137  1  0  0  0
 62138  1  0  0  0
 62139  1  0  0  0
 62140  1  0  0  0
 63 65  1  0  0  0
 63141  1  0  0  0
 63142  1  0  0  0
 63143  1  0  0  0
 64144  1  0  0  0
 65145  1  0  0  0
 68 81  1  0  0  0
 71 72  2  0  0  0
 71 73  1  0  0  0
 71146  1  0  0  0
 72 74  1  0  0  0
 72147  1  0  0  0
 73 76  2  0  0  0
 73148  1  0  0  0
 74 75  2  0  0  0
 74 83  1  0  0  0
 75 76  1  0  0  0
 75 82  1  0  0  0
 76 85  1  0  0  0
 77 81  1  0  0  0
 77 84  1  0  0  0
 77 86  2  0  0  0
 78 79  1  0  0  0
 78 80  1  0  0  0
 78149  1  0  0  0
 78150  1  0  0  0
 79 81  1  0  0  0
 79151  1  0  0  0
 79152  1  0  0  0
 80 84  1  0  0  0
 80153  1  0  0  0
 80154  1  0  0  0
 81155  1  0  0  0
 82156  1  0  0  0
 82157  1  0  0  0
 82158  1  0  0  0
 83 84  1  0  0  0
 83159  1  0  0  0
 83160  1  0  0  0
 85161  1  0  0  0
M  ISO  4   1 100  68 101  81 101  85 100
M  END
> <chiral flag>
0

> <version>
0

> <s_m_source_file>
/data/baiqing/PycharmProjects/Reinvent-master-3.2/result/LINK_invent/BTK/process_docking_weight1_custom_product_contain_oxygen_bond_distance_aromatic_linkinvent_7_9_3/rearranged_h_0043.sdf

> <i_m_source_file_index>
15

> <r_mmod_Potential_Energy-OPLS-2005>
220.310195922852

> <r_mmod_Stretch_Energy-OPLS-2005>
139.211883544922

> <r_mmod_Bend_Energy-OPLS-2005>
176.576812744141

> <r_mmod_Torsional_Energy-OPLS-2005>
242.835494995117

> <r_mmod_Improper_Torsional_Energy-OPLS-2005>
6.75346612930298

> <r_mmod_Van_der_Waal_Energy-OPLS-2005>
147.470001220703

> <r_mmod_Electrostatic_Energy-OPLS-2005>
-345.661926269531

> <r_mmod_Solvation_Energy-OPLS-2005>
-234.506744384766

> <b_mmod_Minimization_Converged-OPLS-2005>
0

> <r_mmod_RMS_Derivative-OPLS-2005>
2.37469029426575

$$$$
15
                    3D
 Structure written by MMmdl.
161170  0  0  1  0            999 V2000
  -30.5464  -14.6779   20.5035 C   0  0  0  0  0  0
  -30.4495  -12.4227   19.4409 C   0  0  0  0  0  0
  -29.4994  -12.5074   18.2220 C   0  0  0  0  0  0
  -28.0241  -12.3305   18.6365 C   0  0  0  0  0  0
  -27.6487  -13.1999   19.8625 C   0  0  2  0  0  0
  -28.6932  -13.0373   20.9898 C   0  0  0  0  0  0
  -25.2572  -13.8118   20.5712 C   0  0  0  0  0  0
  -24.1811  -13.0429   20.9210 C   0  0  0  0  0  0
  -24.6324  -11.6880   20.8752 C   0  0  0  0  0  0
  -23.8974  -10.4291   21.0428 C   0  0  0  0  0  0
  -24.3538   -9.4219   21.9214 C   0  0  0  0  0  0
  -23.6236   -8.2237   22.0771 C   0  0  0  0  0  0
  -22.4238   -8.0252   21.3532 C   0  0  0  0  0  0
  -21.9850   -9.0229   20.4645 C   0  0  0  0  0  0
  -22.7148  -10.2135   20.3068 C   0  0  0  0  0  0
  -21.6856   -6.0713   22.5275 C   0  0  0  0  0  0
  -21.4005   -6.5628   23.8207 C   0  0  0  0  0  0
  -21.3652   -5.6778   24.9163 C   0  0  0  0  0  0
  -21.6046   -4.3036   24.7217 C   0  0  0  0  0  0
  -21.8827   -3.8123   23.4345 C   0  0  0  0  0  0
  -21.9194   -4.6939   22.3403 C   0  0  0  0  0  0
  -22.7849  -13.5286   21.1819 C   0  0  0  0  0  0
  -22.1671   -4.2127   21.0980 F   0  0  0  0  0  0
  -21.5620   -3.4510   25.7732 F   0  0  0  0  0  0
  -30.0020  -13.4219   20.4332 N   0  0  0  0  0  0
  -26.2947  -12.9258   20.3300 N   0  0  0  0  0  0
  -25.9249  -11.6427   20.5760 N   0  0  0  0  0  0
  -22.0393  -12.8341   22.0337 N   0  0  0  0  0  0
  -25.4333  -15.1829   20.4163 N   0  0  0  0  0  0
  -31.7042  -14.9005   20.1264 O   0  0  0  0  0  0
  -21.6617   -6.8842   21.4233 O   0  0  0  0  0  0
  -22.3595  -14.5591   20.6629 O   0  0  0  0  0  0
  -24.6258  -31.8607   23.2033 C   0  0  0  0  0  0
  -25.9113  -32.4788   23.8339 C   0  0  1  0  0  0
  -27.2186  -27.3276   20.0981 C   0  0  0  0  0  0
  -25.5938  -33.8581   24.2286 N   0  0  0  0  0  0
  -23.4136  -30.4850   21.5530 C   0  0  2  0  0  0
  -24.8489  -28.9300   20.1279 C   0  0  0  0  0  0
  -22.7441  -29.4641   22.5027 C   0  0  0  0  0  0
  -18.0276  -28.1402   22.8511 C   0  0  0  0  0  0
  -24.1437  -36.7243   23.2647 C   0  0  0  0  0  0
  -25.9502  -30.8015   21.3534 C   0  0  0  0  0  0
  -26.0240  -29.4248   20.7030 C   0  0  0  0  0  0
  -27.2112  -28.6367   20.6732 C   0  0  0  0  0  0
  -25.9904  -26.8510   19.5878 C   0  0  0  0  0  0
  -24.8289  -27.6438   19.5710 C   0  0  0  0  0  0
  -23.6210  -29.8135   20.1707 C   0  0  0  0  0  0
  -25.4070  -36.3079   24.0354 C   0  0  1  0  0  0
  -20.5874  -28.3675   23.1339 C   0  0  2  0  0  0
  -20.6773  -26.9420   22.5430 C   0  0  0  0  0  0
  -19.5742  -26.6399   21.5245 C   0  0  0  0  0  0
  -18.1913  -26.7956   22.1631 C   0  0  0  0  0  0
  -19.1528  -28.8858   23.2904 C   0  0  0  0  0  0
  -18.9462  -30.1479   23.8887 C   0  0  0  0  0  0
  -17.6470  -30.6621   24.0574 C   0  0  0  0  0  0
  -25.9027  -34.9461   23.5100 C   0  0  0  0  0  0
  -16.5356  -29.9124   23.6358 C   0  0  0  0  0  0
  -16.7265  -28.6539   23.0378 C   0  0  0  0  0  0
  -26.4505  -31.6615   25.0692 C   0  0  0  0  0  0
  -25.3778  -31.3812   26.1465 C   0  0  0  0  0  0
  -27.0344  -30.3069   24.6082 C   0  0  0  0  0  0
  -27.6045  -32.4363   25.7486 C   0  0  0  0  0  0
  -27.5543  -37.1774   24.8479 C   0  0  0  0  0  0
  -21.4157  -29.3039   22.3759 N   0  0  0  0  0  0
  -26.4235  -37.3789   23.9456 N   0  0  0  0  0  0
  -24.6843  -31.0631   22.0967 N   0  0  0  0  0  0
  -23.4166  -28.8195   23.3112 O   0  0  0  0  0  0
  -28.3908  -26.5554   20.0781 O   0  0  0  0  0  0
  -26.5546  -34.8941   22.4636 O   0  0  0  0  0  0
  -23.5439  -32.1387   23.7404 O   0  0  0  0  0  0
  -30.3343  -19.4638   20.4176 C   0  0  0  0  0  0
  -30.5701  -18.0470   20.4244 C   0  0  0  0  0  0
  -28.2635  -17.6994   20.9774 C   0  0  0  0  0  0
  -29.0612  -20.0403   20.7043 C   0  0  0  0  0  0
  -29.5375  -17.1189   20.7340 C   0  0  0  0  0  0
  -28.0199  -19.1035   20.9586 C   0  0  0  0  0  0
  -28.2759  -23.9385   20.2128 C   0  0  0  0  0  0
  -27.9408  -23.9500   17.1944 C   0  0  0  0  0  0
  -29.2056  -23.1017   17.3363 C   0  0  0  0  0  0
  -28.1340  -25.3103   17.8671 C   0  0  0  0  0  0
  -29.2435  -22.1793   18.5715 C   0  0  0  0  0  0
  -28.5620  -25.2589   19.3637 C   0  0  1  0  0  0
  -28.8643  -21.5965   20.9624 C   0  0  0  0  0  0
  -28.7490  -22.6635   19.8840 N   0  0  0  0  0  0
  -29.6522  -15.6592   20.8651 N   0  0  0  0  0  0
  -27.6922  -24.1143   21.2884 O   0  0  0  0  0  0
  -26.4142  -19.6428   21.3108 Cl  0  0  0  0  0  0
  -31.4768  -12.6048   19.1219 H   0  0  0  0  0  0
  -30.4389  -11.4226   19.8759 H   0  0  0  0  0  0
  -29.7716  -11.7549   17.4822 H   0  0  0  0  0  0
  -29.6160  -13.4742   17.7289 H   0  0  0  0  0  0
  -27.8682  -11.2758   18.8726 H   0  0  0  0  0  0
  -27.3614  -12.5542   17.7987 H   0  0  0  0  0  0
  -27.6695  -14.2354   19.5217 H   0  0  0  0  0  0
  -28.7195  -12.0037   21.3376 H   0  0  0  0  0  0
  -28.4240  -13.6330   21.8630 H   0  0  0  0  0  0
  -25.2669   -9.5731   22.4794 H   0  0  0  0  0  0
  -23.9928   -7.4641   22.7517 H   0  0  0  0  0  0
  -21.0756   -8.8734   19.8979 H   0  0  0  0  0  0
  -22.3568  -10.9659   19.6172 H   0  0  0  0  0  0
  -21.1997   -7.6146   23.9700 H   0  0  0  0  0  0
  -21.1470   -6.0506   25.9073 H   0  0  0  0  0  0
  -22.0618   -2.7582   23.2833 H   0  0  0  0  0  0
  -22.3912  -12.0011   22.4803 H   0  0  0  0  0  0
  -21.1029  -13.1492   22.2452 H   0  0  0  0  0  0
  -24.6677  -15.8355   20.5494 H   0  0  0  0  0  0
  -26.2498  -15.6044   19.9960 H   0  0  0  0  0  0
  -26.7171  -32.5463   23.1086 H   0  0  0  0  0  0
  -25.0242  -33.9725   25.0545 H   0  0  0  0  0  0
  -22.7101  -31.3076   21.4115 H   0  0  0  0  0  0
  -23.3740  -35.9532   23.3311 H   0  0  0  0  0  0
  -24.3549  -36.8839   22.2063 H   0  0  0  0  0  0
  -23.7120  -37.6425   23.6641 H   0  0  0  0  0  0
  -26.0505  -31.5612   20.5768 H   0  0  0  0  0  0
  -26.8435  -30.8692   21.9627 H   0  0  0  0  0  0
  -28.1232  -29.0266   21.1022 H   0  0  0  0  0  0
  -25.8878  -25.8395   19.2294 H   0  0  0  0  0  0
  -23.9119  -27.2369   19.1665 H   0  0  0  0  0  0
  -23.7485  -30.5845   19.4109 H   0  0  0  0  0  0
  -22.7374  -29.2462   19.8710 H   0  0  0  0  0  0
  -25.1252  -36.1917   25.0851 H   0  0  0  0  0  0
  -20.9939  -28.3222   24.1477 H   0  0  0  0  0  0
  -20.5725  -26.2276   23.3608 H   0  0  0  0  0  0
  -21.6637  -26.7518   22.1192 H   0  0  0  0  0  0
  -19.6898  -25.6314   21.1267 H   0  0  0  0  0  0
  -19.6682  -27.3214   20.6787 H   0  0  0  0  0  0
  -17.4207  -26.6747   21.4010 H   0  0  0  0  0  0
  -18.0266  -26.0093   22.9012 H   0  0  0  0  0  0
  -19.7946  -30.7309   24.2196 H   0  0  0  0  0  0
  -17.5049  -31.6297   24.5177 H   0  0  0  0  0  0
  -15.5354  -30.3035   23.7713 H   0  0  0  0  0  0
  -15.8657  -28.0878   22.7086 H   0  0  0  0  0  0
  -24.5879  -30.7215   25.7875 H   0  0  0  0  0  0
  -24.9052  -32.3010   26.4921 H   0  0  0  0  0  0
  -25.8138  -30.9001   27.0225 H   0  0  0  0  0  0
  -26.2893  -29.6825   24.1121 H   0  0  0  0  0  0
  -27.4135  -29.7331   25.4547 H   0  0  0  0  0  0
  -27.8717  -30.4439   23.9230 H   0  0  0  0  0  0
  -27.2635  -33.3698   26.1991 H   0  0  0  0  0  0
  -28.3913  -32.6861   25.0358 H   0  0  0  0  0  0
  -28.0613  -31.8510   26.5478 H   0  0  0  0  0  0
  -28.2588  -38.0051   24.7547 H   0  0  0  0  0  0
  -28.1002  -36.2589   24.6270 H   0  0  0  0  0  0
  -27.2272  -37.1394   25.8883 H   0  0  0  0  0  0
  -20.9324  -29.8776   21.6996 H   0  0  0  0  0  0
  -26.0107  -38.2848   24.1524 H   0  0  0  0  0  0
  -31.1742  -20.1223   20.2421 H   0  0  0  0  0  0
  -31.5671  -17.6849   20.2269 H   0  0  0  0  0  0
  -27.4281  -17.0583   21.2177 H   0  0  0  0  0  0
  -27.0623  -23.4332   17.5849 H   0  0  0  0  0  0
  -27.7277  -24.1137   16.1382 H   0  0  0  0  0  0
  -30.0919  -23.7387   17.3122 H   0  0  0  0  0  0
  -29.3032  -22.4781   16.4425 H   0  0  0  0  0  0
  -27.2523  -25.9097   17.6706 H   0  0  0  0  0  0
  -28.9087  -25.8605   17.3292 H   0  0  0  0  0  0
  -30.2726  -21.8378   18.6922 H   0  0  0  0  0  0
  -28.6665  -21.2898   18.3084 H   0  0  0  0  0  0
  -29.6487  -25.2035   19.3026 H   0  0  0  0  0  0
  -29.7181  -21.8940   21.5729 H   0  0  0  0  0  0
  -28.0268  -21.7014   21.6522 H   0  0  0  0  0  0
  -28.7929  -15.2321   21.1765 H   0  0  0  0  0  0
  1 25  1  0  0  0
  1 30  2  0  0  0
  1 85  1  0  0  0
  2  3  1  0  0  0
  2 25  1  0  0  0
  2 88  1  0  0  0
  2 89  1  0  0  0
  3  4  1  0  0  0
  3 90  1  0  0  0
  3 91  1  0  0  0
  4  5  1  0  0  0
  4 92  1  0  0  0
  4 93  1  0  0  0
  5  6  1  0  0  0
  5 26  1  0  0  0
  5 94  1  0  0  0
  6 25  1  0  0  0
  6 95  1  0  0  0
  6 96  1  0  0  0
  7  8  2  0  0  0
  7 26  1  0  0  0
  7 29  1  0  0  0
  8  9  1  0  0  0
  8 22  1  0  0  0
  9 10  1  0  0  0
  9 27  2  0  0  0
 10 11  2  0  0  0
 10 15  1  0  0  0
 11 12  1  0  0  0
 11 97  1  0  0  0
 12 13  2  0  0  0
 12 98  1  0  0  0
 13 14  1  0  0  0
 13 31  1  0  0  0
 14 15  2  0  0  0
 14 99  1  0  0  0
 15100  1  0  0  0
 16 17  2  0  0  0
 16 21  1  0  0  0
 16 31  1  0  0  0
 17 18  1  0  0  0
 17101  1  0  0  0
 18 19  2  0  0  0
 18102  1  0  0  0
 19 20  1  0  0  0
 19 24  1  0  0  0
 20 21  2  0  0  0
 20103  1  0  0  0
 21 23  1  0  0  0
 22 28  1  0  0  0
 22 32  2  0  0  0
 26 27  1  0  0  0
 28104  1  0  0  0
 28105  1  0  0  0
 29106  1  0  0  0
 29107  1  0  0  0
 33 34  1  0  0  0
 33 66  1  0  0  0
 33 70  2  0  0  0
 34 36  1  0  0  0
 34 59  1  0  0  0
 34108  1  0  0  0
 35 44  2  0  0  0
 35 45  1  0  0  0
 35 68  1  0  0  0
 36 56  1  0  0  0
 36109  1  0  0  0
 37 39  1  0  0  0
 37 47  1  0  0  0
 37 66  1  0  0  0
 37110  1  0  0  0
 38 43  2  0  0  0
 38 46  1  0  0  0
 38 47  1  0  0  0
 39 64  1  0  0  0
 39 67  2  0  0  0
 40 52  1  0  0  0
 40 53  2  0  0  0
 40 58  1  0  0  0
 41111  1  0  0  0
 41112  1  0  0  0
 41113  1  0  0  0
 41 48  1  0  0  0
 42 43  1  0  0  0
 42 66  1  0  0  0
 42114  1  0  0  0
 42115  1  0  0  0
 43 44  1  0  0  0
 44116  1  0  0  0
 45 46  2  0  0  0
 45117  1  0  0  0
 46118  1  0  0  0
 47119  1  0  0  0
 47120  1  0  0  0
 48 56  1  0  0  0
 48 65  1  0  0  0
 48121  1  0  0  0
 49 50  1  0  0  0
 49 53  1  0  0  0
 49 64  1  0  0  0
 49122  1  0  0  0
 50 51  1  0  0  0
 50123  1  0  0  0
 50124  1  0  0  0
 51 52  1  0  0  0
 51125  1  0  0  0
 51126  1  0  0  0
 52127  1  0  0  0
 52128  1  0  0  0
 53 54  1  0  0  0
 54 55  2  0  0  0
 54129  1  0  0  0
 55 57  1  0  0  0
 55130  1  0  0  0
 56 69  2  0  0  0
 57 58  2  0  0  0
 57131  1  0  0  0
 58132  1  0  0  0
 59 60  1  0  0  0
 59 61  1  0  0  0
 59 62  1  0  0  0
 60133  1  0  0  0
 60134  1  0  0  0
 60135  1  0  0  0
 61136  1  0  0  0
 61137  1  0  0  0
 61138  1  0  0  0
 62139  1  0  0  0
 62140  1  0  0  0
 62141  1  0  0  0
 63 65  1  0  0  0
 63142  1  0  0  0
 63143  1  0  0  0
 63144  1  0  0  0
 64145  1  0  0  0
 65146  1  0  0  0
 68 82  1  0  0  0
 71 72  2  0  0  0
 71 74  1  0  0  0
 71147  1  0  0  0
 72 75  1  0  0  0
 72148  1  0  0  0
 73 75  2  0  0  0
 73 76  1  0  0  0
 73149  1  0  0  0
 74 76  2  0  0  0
 74 83  1  0  0  0
 75 85  1  0  0  0
 76 87  1  0  0  0
 77 82  1  0  0  0
 77 84  1  0  0  0
 77 86  2  0  0  0
 78 79  1  0  0  0
 78 80  1  0  0  0
 78150  1  0  0  0
 78151  1  0  0  0
 79 81  1  0  0  0
 79152  1  0  0  0
 79153  1  0  0  0
 80 82  1  0  0  0
 80154  1  0  0  0
 80155  1  0  0  0
 81 84  1  0  0  0
 81156  1  0  0  0
 81157  1  0  0  0
 82158  1  0  0  0
 83 84  1  0  0  0
 83159  1  0  0  0
 83160  1  0  0  0
 85161  1  0  0  0
M  ISO  4   1 100  68 101  82 101  85 100
M  END
> <chiral flag>
0

> <version>
0

> <s_m_source_file>
/data/baiqing/PycharmProjects/Reinvent-master-3.2/result/LINK_invent/BTK/process_docking_weight1_custom_product_contain_oxygen_bond_distance_aromatic_linkinvent_7_9_3/rearranged_h_0043.sdf

> <i_m_source_file_index>
16

> <r_mmod_Potential_Energy-OPLS-2005>
243.503570556641

> <r_mmod_Stretch_Energy-OPLS-2005>
98.3858871459961

> <r_mmod_Bend_Energy-OPLS-2005>
215.539688110352

> <r_mmod_Torsional_Energy-OPLS-2005>
248.726593017578

> <r_mmod_Improper_Torsional_Energy-OPLS-2005>
6.9037299156189

> <r_mmod_Van_der_Waal_Energy-OPLS-2005>
152.571548461914

> <r_mmod_Electrostatic_Energy-OPLS-2005>
-303.390380859375

> <r_mmod_Solvation_Energy-OPLS-2005>
-229.662078857422

> <b_mmod_Minimization_Converged-OPLS-2005>
0

> <r_mmod_RMS_Derivative-OPLS-2005>
3.94574403762817

$$$$
16
                    3D
 Structure written by MMmdl.
164173  0  0  1  0            999 V2000
  -30.6343  -14.7116   20.4578 C   0  0  0  0  0  0
  -30.4261  -12.4317   19.4805 C   0  0  0  0  0  0
  -29.5120  -12.5127   18.2386 C   0  0  0  0  0  0
  -28.0380  -12.3407   18.6495 C   0  0  0  0  0  0
  -27.6463  -13.2337   19.8585 C   0  0  2  0  0  0
  -28.6870  -13.1593   20.9980 C   0  0  0  0  0  0
  -25.2531  -13.8204   20.5696 C   0  0  0  0  0  0
  -24.1814  -13.0451   20.9213 C   0  0  0  0  0  0
  -24.6394  -11.6930   20.8733 C   0  0  0  0  0  0
  -23.9056  -10.4315   21.0385 C   0  0  0  0  0  0
  -24.3611   -9.4235   21.9164 C   0  0  0  0  0  0
  -23.6303   -8.2259   22.0725 C   0  0  0  0  0  0
  -22.4285   -8.0280   21.3526 C   0  0  0  0  0  0
  -21.9913   -9.0241   20.4623 C   0  0  0  0  0  0
  -22.7221  -10.2136   20.3036 C   0  0  0  0  0  0
  -21.6863   -6.0728   22.5272 C   0  0  0  0  0  0
  -21.4021   -6.5628   23.8202 C   0  0  0  0  0  0
  -21.3666   -5.6777   24.9159 C   0  0  0  0  0  0
  -21.6051   -4.3037   24.7219 C   0  0  0  0  0  0
  -21.8825   -3.8132   23.4338 C   0  0  0  0  0  0
  -21.9202   -4.6955   22.3397 C   0  0  0  0  0  0
  -22.7830  -13.5221   21.1879 C   0  0  0  0  0  0
  -22.1664   -4.2138   21.0979 F   0  0  0  0  0  0
  -21.5635   -3.4522   25.7732 F   0  0  0  0  0  0
  -29.9981  -13.4916   20.4247 N   0  0  0  0  0  0
  -26.2957  -12.9406   20.3291 N   0  0  0  0  0  0
  -25.9338  -11.6547   20.5763 N   0  0  0  0  0  0
  -22.0480  -12.8205   22.0427 N   0  0  0  0  0  0
  -25.4241  -15.1928   20.4106 N   0  0  0  0  0  0
  -31.8174  -14.7912   20.1130 O   0  0  0  0  0  0
  -21.6656   -6.8869   21.4229 O   0  0  0  0  0  0
  -22.3507  -14.5519   20.6705 O   0  0  0  0  0  0
  -24.6326  -31.8577   23.1986 C   0  0  0  0  0  0
  -25.9150  -32.4764   23.8333 C   0  0  1  0  0  0
  -27.2207  -27.2698   20.1351 C   0  0  0  0  0  0
  -25.5942  -33.8564   24.2276 N   0  0  0  0  0  0
  -23.4296  -30.4806   21.5416 C   0  0  2  0  0  0
  -24.8786  -28.9353   20.1054 C   0  0  0  0  0  0
  -22.7526  -29.4612   22.4901 C   0  0  0  0  0  0
  -18.0318  -28.1407   22.8510 C   0  0  0  0  0  0
  -24.1496  -36.7290   23.2641 C   0  0  0  0  0  0
  -25.9759  -30.7734   21.3802 C   0  0  0  0  0  0
  -26.0483  -29.3978   20.7218 C   0  0  0  0  0  0
  -27.2223  -28.5777   20.7279 C   0  0  0  0  0  0
  -26.0369  -26.8931   19.4576 C   0  0  0  0  0  0
  -24.8793  -27.6915   19.4586 C   0  0  0  0  0  0
  -23.6478  -29.8184   20.1566 C   0  0  0  0  0  0
  -25.4122  -36.3077   24.0338 C   0  0  1  0  0  0
  -20.5922  -28.3710   23.1278 C   0  0  2  0  0  0
  -20.6819  -26.9424   22.5412 C   0  0  0  0  0  0
  -19.5771  -26.6413   21.5237 C   0  0  0  0  0  0
  -18.1955  -26.7959   22.1636 C   0  0  0  0  0  0
  -19.1570  -28.8875   23.2900 C   0  0  0  0  0  0
  -18.9493  -30.1482   23.8907 C   0  0  0  0  0  0
  -17.6489  -30.6600   24.0583 C   0  0  0  0  0  0
  -25.9060  -34.9446   23.5105 C   0  0  0  0  0  0
  -16.5380  -29.9104   23.6344 C   0  0  0  0  0  0
  -16.7303  -28.6527   23.0358 C   0  0  0  0  0  0
  -26.4515  -31.6572   25.0714 C   0  0  0  0  0  0
  -25.3707  -31.3728   26.1403 C   0  0  0  0  0  0
  -27.0370  -30.2978   24.6218 C   0  0  0  0  0  0
  -27.6081  -32.4304   25.7474 C   0  0  0  0  0  0
  -27.5588  -37.1801   24.8464 C   0  0  0  0  0  0
  -21.4229  -29.3050   22.3647 N   0  0  0  0  0  0
  -26.4298  -37.3774   23.9406 N   0  0  0  0  0  0
  -24.6981  -31.0552   22.0960 N   0  0  0  0  0  0
  -23.4228  -28.8144   23.2994 O   0  0  0  0  0  0
  -28.2993  -26.3554   20.2375 O   0  0  0  0  0  0
  -26.5623  -34.8914   22.4672 O   0  0  0  0  0  0
  -23.5473  -32.1385   23.7287 O   0  0  0  0  0  0
  -30.7866  -18.5724   18.2182 C   0  0  0  0  0  0
  -30.4317  -19.7734   18.8604 C   0  0  0  0  0  0
  -30.6312  -17.3309   18.8585 C   0  0  0  0  0  0
  -29.8781  -19.7852   20.1570 C   0  0  0  0  0  0
  -29.6534  -18.4787   20.7793 C   0  0  0  0  0  0
  -30.0718  -17.2235   20.1528 C   0  0  0  0  0  0
  -27.3768  -22.0689   20.8000 C   0  0  0  0  0  0
  -26.6130  -21.0630   20.3420 C   0  0  0  0  0  0
  -26.9776  -23.0810   21.8681 C   0  0  0  0  0  0
  -26.9701  -24.5416   21.3592 C   0  0  0  0  0  0
  -29.2011  -23.7793   20.4178 C   0  0  0  0  0  0
  -28.0217  -24.8670   20.2618 C   0  0  2  0  0  0
  -28.9702  -18.4046   22.1336 C   0  0  0  0  0  0
  -29.7422  -21.2314   20.8325 C   0  0  0  0  0  0
  -29.8966  -15.8590   20.7159 N   0  0  0  0  0  0
  -28.7714  -22.2972   20.3024 N   0  3  2  0  0  0
  -31.4695  -12.5376   19.1801 H   0  0  0  0  0  0
  -30.3464  -11.4487   19.9465 H   0  0  0  0  0  0
  -29.7890  -11.7479   17.5110 H   0  0  0  0  0  0
  -29.6462  -13.4723   17.7374 H   0  0  0  0  0  0
  -27.8914  -11.2900   18.9023 H   0  0  0  0  0  0
  -27.3805  -12.5401   17.8031 H   0  0  0  0  0  0
  -27.6465  -14.2602   19.4918 H   0  0  0  0  0  0
  -28.7071  -12.1622   21.4400 H   0  0  0  0  0  0
  -28.4257  -13.8441   21.8062 H   0  0  0  0  0  0
  -25.2754   -9.5725   22.4736 H   0  0  0  0  0  0
  -24.0021   -7.4655   22.7441 H   0  0  0  0  0  0
  -21.0836   -8.8730   19.8946 H   0  0  0  0  0  0
  -22.3639  -10.9656   19.6148 H   0  0  0  0  0  0
  -21.2002   -7.6132   23.9698 H   0  0  0  0  0  0
  -21.1487   -6.0507   25.9062 H   0  0  0  0  0  0
  -22.0610   -2.7597   23.2840 H   0  0  0  0  0  0
  -22.4098  -11.9880   22.4841 H   0  0  0  0  0  0
  -21.1076  -13.1192   22.2587 H   0  0  0  0  0  0
  -24.6545  -15.8463   20.5082 H   0  0  0  0  0  0
  -26.2721  -15.6310   20.0731 H   0  0  0  0  0  0
  -26.7222  -32.5406   23.1079 H   0  0  0  0  0  0
  -25.0058  -33.9717   25.0397 H   0  0  0  0  0  0
  -22.7254  -31.3028   21.3966 H   0  0  0  0  0  0
  -23.3764  -35.9612   23.3294 H   0  0  0  0  0  0
  -24.3584  -36.8916   22.2054 H   0  0  0  0  0  0
  -23.7242  -37.6494   23.6655 H   0  0  0  0  0  0
  -26.1170  -31.5352   20.6126 H   0  0  0  0  0  0
  -26.8547  -30.8194   22.0128 H   0  0  0  0  0  0
  -28.1097  -28.9243   21.2396 H   0  0  0  0  0  0
  -25.9670  -25.9500   18.9385 H   0  0  0  0  0  0
  -23.9882  -27.3418   18.9545 H   0  0  0  0  0  0
  -23.7666  -30.5956   19.4010 H   0  0  0  0  0  0
  -22.7675  -29.2506   19.8524 H   0  0  0  0  0  0
  -25.1308  -36.1934   25.0834 H   0  0  0  0  0  0
  -21.0046  -28.3289   24.1387 H   0  0  0  0  0  0
  -20.5758  -26.2311   23.3630 H   0  0  0  0  0  0
  -21.6675  -26.7474   22.1170 H   0  0  0  0  0  0
  -19.6918  -25.6334   21.1246 H   0  0  0  0  0  0
  -19.6701  -27.3242   20.6779 H   0  0  0  0  0  0
  -17.4238  -26.6755   21.4025 H   0  0  0  0  0  0
  -18.0310  -26.0101   22.9026 H   0  0  0  0  0  0
  -19.7967  -30.7317   24.2261 H   0  0  0  0  0  0
  -17.5038  -31.6265   24.5211 H   0  0  0  0  0  0
  -15.5381  -30.2998   23.7686 H   0  0  0  0  0  0
  -15.8713  -28.0857   22.7043 H   0  0  0  0  0  0
  -24.5884  -30.7096   25.7688 H   0  0  0  0  0  0
  -24.8892  -32.2901   26.4791 H   0  0  0  0  0  0
  -25.7979  -30.8888   27.0191 H   0  0  0  0  0  0
  -26.2961  -29.6702   24.1247 H   0  0  0  0  0  0
  -27.4045  -29.7267   25.4759 H   0  0  0  0  0  0
  -27.8839  -30.4255   23.9474 H   0  0  0  0  0  0
  -27.2714  -33.3615   26.2040 H   0  0  0  0  0  0
  -28.3880  -32.6848   25.0283 H   0  0  0  0  0  0
  -28.0754  -31.8422   26.5380 H   0  0  0  0  0  0
  -28.2614  -38.0096   24.7518 H   0  0  0  0  0  0
  -28.1089  -36.2628   24.6292 H   0  0  0  0  0  0
  -27.2296  -37.1449   25.8866 H   0  0  0  0  0  0
  -20.9408  -29.8754   21.6836 H   0  0  0  0  0  0
  -26.0186  -38.2860   24.1373 H   0  0  0  0  0  0
  -31.2114  -18.6017   17.2248 H   0  0  0  0  0  0
  -30.6287  -20.7033   18.3454 H   0  0  0  0  0  0
  -30.9388  -16.4493   18.3153 H   0  0  0  0  0  0
  -25.6153  -20.9078   20.7250 H   0  0  0  0  0  0
  -26.9633  -20.3711   19.5897 H   0  0  0  0  0  0
  -27.6669  -22.9854   22.7077 H   0  0  0  0  0  0
  -25.9944  -22.8249   22.2667 H   0  0  0  0  0  0
  -27.1041  -25.2063   22.2143 H   0  0  0  0  0  0
  -25.9740  -24.7492   20.9734 H   0  0  0  0  0  0
  -29.6806  -23.9270   21.3859 H   0  0  0  0  0  0
  -29.9752  -23.9698   19.6747 H   0  0  0  0  0  0
  -27.5908  -24.6277   19.2905 H   0  0  0  0  0  0
  -28.4210  -19.3154   22.3675 H   0  0  0  0  0  0
  -29.6988  -18.2249   22.9234 H   0  0  0  0  0  0
  -28.2390  -17.5957   22.1419 H   0  0  0  0  0  0
  -30.7393  -21.6663   20.7515 H   0  0  0  0  0  0
  -29.5981  -21.1317   21.9075 H   0  0  0  0  0  0
  -29.0251  -15.7014   21.1991 H   0  0  0  0  0  0
  -28.7522  -22.1416   19.3054 H   0  0  0  0  0  0
  1 25  1  0  0  0
  1 30  2  0  0  0
  1 85  1  0  0  0
  2  3  1  0  0  0
  2 25  1  0  0  0
  2 87  1  0  0  0
  2 88  1  0  0  0
  3  4  1  0  0  0
  3 89  1  0  0  0
  3 90  1  0  0  0
  4  5  1  0  0  0
  4 91  1  0  0  0
  4 92  1  0  0  0
  5  6  1  0  0  0
  5 26  1  0  0  0
  5 93  1  0  0  0
  6 25  1  0  0  0
  6 94  1  0  0  0
  6 95  1  0  0  0
  7  8  2  0  0  0
  7 26  1  0  0  0
  7 29  1  0  0  0
  8  9  1  0  0  0
  8 22  1  0  0  0
  9 10  1  0  0  0
  9 27  2  0  0  0
 10 11  2  0  0  0
 10 15  1  0  0  0
 11 12  1  0  0  0
 11 96  1  0  0  0
 12 13  2  0  0  0
 12 97  1  0  0  0
 13 14  1  0  0  0
 13 31  1  0  0  0
 14 15  2  0  0  0
 14 98  1  0  0  0
 15 99  1  0  0  0
 16 17  2  0  0  0
 16 21  1  0  0  0
 16 31  1  0  0  0
 17 18  1  0  0  0
 17100  1  0  0  0
 18 19  2  0  0  0
 18101  1  0  0  0
 19 20  1  0  0  0
 19 24  1  0  0  0
 20 21  2  0  0  0
 20102  1  0  0  0
 21 23  1  0  0  0
 22 28  1  0  0  0
 22 32  2  0  0  0
 26 27  1  0  0  0
 28103  1  0  0  0
 28104  1  0  0  0
 29105  1  0  0  0
 29106  1  0  0  0
 33 34  1  0  0  0
 33 66  1  0  0  0
 33 70  2  0  0  0
 34 36  1  0  0  0
 34 59  1  0  0  0
 34107  1  0  0  0
 35 44  2  0  0  0
 35 45  1  0  0  0
 35 68  1  0  0  0
 36 56  1  0  0  0
 36108  1  0  0  0
 37 39  1  0  0  0
 37 47  1  0  0  0
 37 66  1  0  0  0
 37109  1  0  0  0
 38 43  2  0  0  0
 38 46  1  0  0  0
 38 47  1  0  0  0
 39 64  1  0  0  0
 39 67  2  0  0  0
 40 52  1  0  0  0
 40 53  2  0  0  0
 40 58  1  0  0  0
 41110  1  0  0  0
 41111  1  0  0  0
 41112  1  0  0  0
 41 48  1  0  0  0
 42 43  1  0  0  0
 42 66  1  0  0  0
 42113  1  0  0  0
 42114  1  0  0  0
 43 44  1  0  0  0
 44115  1  0  0  0
 45 46  2  0  0  0
 45116  1  0  0  0
 46117  1  0  0  0
 47118  1  0  0  0
 47119  1  0  0  0
 48 56  1  0  0  0
 48 65  1  0  0  0
 48120  1  0  0  0
 49 50  1  0  0  0
 49 53  1  0  0  0
 49 64  1  0  0  0
 49121  1  0  0  0
 50 51  1  0  0  0
 50122  1  0  0  0
 50123  1  0  0  0
 51 52  1  0  0  0
 51124  1  0  0  0
 51125  1  0  0  0
 52126  1  0  0  0
 52127  1  0  0  0
 53 54  1  0  0  0
 54 55  2  0  0  0
 54128  1  0  0  0
 55 57  1  0  0  0
 55129  1  0  0  0
 56 69  2  0  0  0
 57 58  2  0  0  0
 57130  1  0  0  0
 58131  1  0  0  0
 59 60  1  0  0  0
 59 61  1  0  0  0
 59 62  1  0  0  0
 60132  1  0  0  0
 60133  1  0  0  0
 60134  1  0  0  0
 61135  1  0  0  0
 61136  1  0  0  0
 61137  1  0  0  0
 62138  1  0  0  0
 62139  1  0  0  0
 62140  1  0  0  0
 63 65  1  0  0  0
 63141  1  0  0  0
 63142  1  0  0  0
 63143  1  0  0  0
 64144  1  0  0  0
 65145  1  0  0  0
 68 82  1  0  0  0
 71 72  2  0  0  0
 71 73  1  0  0  0
 71146  1  0  0  0
 72 74  1  0  0  0
 72147  1  0  0  0
 73 76  2  0  0  0
 73148  1  0  0  0
 74 75  2  0  0  0
 74 84  1  0  0  0
 75 76  1  0  0  0
 75 83  1  0  0  0
 76 85  1  0  0  0
 77 78  2  0  0  0
 77 79  1  0  0  0
 77 86  1  0  0  0
 78149  1  0  0  0
 78150  1  0  0  0
 79 80  1  0  0  0
 79151  1  0  0  0
 79152  1  0  0  0
 80 82  1  0  0  0
 80153  1  0  0  0
 80154  1  0  0  0
 81 82  1  0  0  0
 81 86  1  0  0  0
 81155  1  0  0  0
 81156  1  0  0  0
 82157  1  0  0  0
 83158  1  0  0  0
 83159  1  0  0  0
 83160  1  0  0  0
 84161  1  0  0  0
 84162  1  0  0  0
 84 86  1  0  0  0
 85163  1  0  0  0
 86164  1  0  0  0
M  CHG  1  86   1
M  ISO  4   1 100  68 101  82 101  85 100
M  END
> <chiral flag>
0

> <version>
0

> <s_m_source_file>
/data/baiqing/PycharmProjects/Reinvent-master-3.2/result/LINK_invent/BTK/process_docking_weight1_custom_product_contain_oxygen_bond_distance_aromatic_linkinvent_7_9_3/rearranged_h_0043.sdf

> <i_m_source_file_index>
17

> <r_mmod_Potential_Energy-OPLS-2005>
75.5865478515625

> <r_mmod_Stretch_Energy-OPLS-2005>
127.415626525879

> <r_mmod_Bend_Energy-OPLS-2005>
165.624404907227

> <r_mmod_Torsional_Energy-OPLS-2005>
260.691040039062

> <r_mmod_Improper_Torsional_Energy-OPLS-2005>
5.05037546157837

> <r_mmod_Van_der_Waal_Energy-OPLS-2005>
148.369598388672

> <r_mmod_Electrostatic_Energy-OPLS-2005>
-281.76611328125

> <r_mmod_Solvation_Energy-OPLS-2005>
-429.530700683594

> <b_mmod_Minimization_Converged-OPLS-2005>
0

> <r_mmod_RMS_Derivative-OPLS-2005>
2.42083787918091

$$$$
17
                    3D
 Structure written by MMmdl.
164173  0  0  1  0            999 V2000
  -30.5533  -14.7867   20.4680 C   0  0  0  0  0  0
  -30.4499  -12.4815   19.4768 C   0  0  0  0  0  0
  -29.5192  -12.5236   18.2416 C   0  0  0  0  0  0
  -28.0450  -12.3354   18.6524 C   0  0  0  0  0  0
  -27.6476  -13.2262   19.8586 C   0  0  2  0  0  0
  -28.6918  -13.1370   20.9940 C   0  0  0  0  0  0
  -25.2542  -13.8183   20.5696 C   0  0  0  0  0  0
  -24.1820  -13.0438   20.9201 C   0  0  0  0  0  0
  -24.6401  -11.6912   20.8742 C   0  0  0  0  0  0
  -23.9073  -10.4292   21.0403 C   0  0  0  0  0  0
  -24.3623   -9.4208   21.9183 C   0  0  0  0  0  0
  -23.6295   -8.2245   22.0754 C   0  0  0  0  0  0
  -22.4277   -8.0281   21.3544 C   0  0  0  0  0  0
  -21.9914   -9.0255   20.4647 C   0  0  0  0  0  0
  -22.7243  -10.2134   20.3055 C   0  0  0  0  0  0
  -21.6854   -6.0736   22.5278 C   0  0  0  0  0  0
  -21.4013   -6.5639   23.8211 C   0  0  0  0  0  0
  -21.3661   -5.6792   24.9173 C   0  0  0  0  0  0
  -21.6044   -4.3055   24.7224 C   0  0  0  0  0  0
  -21.8819   -3.8147   23.4345 C   0  0  0  0  0  0
  -21.9193   -4.6964   22.3402 C   0  0  0  0  0  0
  -22.7841  -13.5227   21.1857 C   0  0  0  0  0  0
  -22.1661   -4.2150   21.0980 F   0  0  0  0  0  0
  -21.5632   -3.4540   25.7739 F   0  0  0  0  0  0
  -29.9925  -13.5246   20.4262 N   0  0  0  0  0  0
  -26.2966  -12.9374   20.3299 N   0  0  0  0  0  0
  -25.9333  -11.6522   20.5750 N   0  0  0  0  0  0
  -22.0481  -12.8221   22.0413 N   0  0  0  0  0  0
  -25.4249  -15.1908   20.4122 N   0  0  0  0  0  0
  -31.7165  -14.9541   20.0854 O   0  0  0  0  0  0
  -21.6639   -6.8879   21.4241 O   0  0  0  0  0  0
  -22.3527  -14.5531   20.6700 O   0  0  0  0  0  0
  -24.6341  -31.8517   23.1953 C   0  0  0  0  0  0
  -25.9155  -32.4734   23.8310 C   0  0  1  0  0  0
  -27.2224  -27.2276   20.1395 C   0  0  0  0  0  0
  -25.5941  -33.8538   24.2233 N   0  0  0  0  0  0
  -23.4326  -30.4724   21.5393 C   0  0  2  0  0  0
  -24.8811  -28.9119   20.1110 C   0  0  0  0  0  0
  -22.7515  -29.4581   22.4902 C   0  0  0  0  0  0
  -18.0293  -28.1388   22.8482 C   0  0  0  0  0  0
  -24.1491  -36.7273   23.2641 C   0  0  0  0  0  0
  -25.9805  -30.7535   21.3808 C   0  0  0  0  0  0
  -26.0527  -29.3724   20.7243 C   0  0  0  0  0  0
  -27.2244  -28.5440   20.7246 C   0  0  0  0  0  0
  -26.0310  -26.8492   19.4812 C   0  0  0  0  0  0
  -24.8777  -27.6602   19.4765 C   0  0  0  0  0  0
  -23.6530  -29.8029   20.1567 C   0  0  0  0  0  0
  -25.4121  -36.3057   24.0321 C   0  0  1  0  0  0
  -20.5899  -28.3701   23.1261 C   0  0  2  0  0  0
  -20.6780  -26.9416   22.5407 C   0  0  0  0  0  0
  -19.5756  -26.6382   21.5212 C   0  0  0  0  0  0
  -18.1935  -26.7929   22.1624 C   0  0  0  0  0  0
  -19.1548  -28.8863   23.2864 C   0  0  0  0  0  0
  -18.9468  -30.1463   23.8884 C   0  0  0  0  0  0
  -17.6466  -30.6588   24.0560 C   0  0  0  0  0  0
  -25.9064  -34.9428   23.5082 C   0  0  0  0  0  0
  -16.5357  -29.9083   23.6334 C   0  0  0  0  0  0
  -16.7279  -28.6501   23.0355 C   0  0  0  0  0  0
  -26.4511  -31.6573   25.0716 C   0  0  0  0  0  0
  -25.3725  -31.3734   26.1430 C   0  0  0  0  0  0
  -27.0367  -30.2983   24.6236 C   0  0  0  0  0  0
  -27.6055  -32.4324   25.7495 C   0  0  0  0  0  0
  -27.5578  -37.1793   24.8466 C   0  0  0  0  0  0
  -21.4219  -29.3041   22.3645 N   0  0  0  0  0  0
  -26.4292  -37.3761   23.9407 N   0  0  0  0  0  0
  -24.7015  -31.0451   22.0944 N   0  0  0  0  0  0
  -23.4197  -28.8132   23.3023 O   0  0  0  0  0  0
  -28.3233  -26.3283   20.1959 O   0  0  0  0  0  0
  -26.5640  -34.8909   22.4654 O   0  0  0  0  0  0
  -23.5484  -32.1356   23.7230 O   0  0  0  0  0  0
  -28.6831  -18.0572   21.4246 C   0  0  0  0  0  0
  -30.4375  -18.1652   19.8253 C   0  0  0  0  0  0
  -28.4583  -19.4753   21.3141 C   0  0  0  0  0  0
  -29.2056  -20.3125   20.4241 C   0  0  0  0  0  0
  -29.6646  -17.3287   20.6882 C   0  0  0  0  0  0
  -30.2161  -19.5910   19.6956 C   0  0  0  0  0  0
  -28.5299  -22.4346   19.0715 C   0  0  0  0  0  0
  -27.0745  -19.9968   16.6609 C   0  0  0  0  0  0
  -27.9409  -21.8618   17.9945 C   0  0  0  0  0  0
  -27.5024  -20.4857   17.8350 C   0  0  0  0  0  0
  -28.7630  -23.9932   19.0284 C   0  0  0  0  0  0
  -28.6407  -24.0547   21.5038 C   0  0  0  0  0  0
  -29.3789  -22.6447   21.3491 C   0  0  0  0  0  0
  -28.1519  -24.8115   20.2150 C   0  0  1  0  0  0
  -27.3338  -20.0781   22.1414 C   0  0  0  0  0  0
  -28.9181  -21.7490   20.2592 N   0  0  0  0  0  0
  -29.7127  -15.8354   20.8340 N   0  0  0  0  0  0
  -31.0023  -20.2762   18.8287 F   0  0  0  0  0  0
  -31.4864  -12.6352   19.1720 H   0  0  0  0  0  0
  -30.4212  -11.4985   19.9494 H   0  0  0  0  0  0
  -29.8089  -11.7551   17.5237 H   0  0  0  0  0  0
  -29.6355  -13.4800   17.7290 H   0  0  0  0  0  0
  -27.9063  -11.2846   18.9098 H   0  0  0  0  0  0
  -27.3872  -12.5294   17.8042 H   0  0  0  0  0  0
  -27.6471  -14.2517   19.4887 H   0  0  0  0  0  0
  -28.7376  -12.1245   21.3977 H   0  0  0  0  0  0
  -28.4128  -13.7788   21.8310 H   0  0  0  0  0  0
  -25.2767   -9.5685   22.4760 H   0  0  0  0  0  0
  -24.0004   -7.4637   22.7476 H   0  0  0  0  0  0
  -21.0844   -8.8771   19.8954 H   0  0  0  0  0  0
  -22.3698  -10.9673   19.6166 H   0  0  0  0  0  0
  -21.2001   -7.6146   23.9716 H   0  0  0  0  0  0
  -21.1485   -6.0522   25.9077 H   0  0  0  0  0  0
  -22.0598   -2.7610   23.2845 H   0  0  0  0  0  0
  -22.4094  -11.9885   22.4806 H   0  0  0  0  0  0
  -21.1098  -13.1248   22.2613 H   0  0  0  0  0  0
  -24.6551  -15.8424   20.5188 H   0  0  0  0  0  0
  -26.2670  -15.6296   20.0629 H   0  0  0  0  0  0
  -26.7219  -32.5370   23.1044 H   0  0  0  0  0  0
  -25.0081  -33.9670   25.0375 H   0  0  0  0  0  0
  -22.7307  -31.2955   21.3901 H   0  0  0  0  0  0
  -23.3757  -35.9601   23.3299 H   0  0  0  0  0  0
  -24.3579  -36.8904   22.2057 H   0  0  0  0  0  0
  -23.7240  -37.6467   23.6674 H   0  0  0  0  0  0
  -26.1249  -31.5121   20.6104 H   0  0  0  0  0  0
  -26.8554  -30.8024   22.0173 H   0  0  0  0  0  0
  -28.1203  -28.8925   21.2189 H   0  0  0  0  0  0
  -25.9678  -25.9036   18.9638 H   0  0  0  0  0  0
  -23.9848  -27.3066   18.9794 H   0  0  0  0  0  0
  -23.7801  -30.5775   19.3996 H   0  0  0  0  0  0
  -22.7706  -29.2377   19.8514 H   0  0  0  0  0  0
  -25.1307  -36.1897   25.0814 H   0  0  0  0  0  0
  -20.9989  -28.3283   24.1383 H   0  0  0  0  0  0
  -20.5678  -26.2314   23.3615 H   0  0  0  0  0  0
  -21.6647  -26.7436   22.1202 H   0  0  0  0  0  0
  -19.6917  -25.6289   21.1249 H   0  0  0  0  0  0
  -19.6693  -27.3186   20.6737 H   0  0  0  0  0  0
  -17.4205  -26.6674   21.4026 H   0  0  0  0  0  0
  -18.0336  -26.0072   22.9021 H   0  0  0  0  0  0
  -19.7944  -30.7283   24.2245 H   0  0  0  0  0  0
  -17.5020  -31.6268   24.5163 H   0  0  0  0  0  0
  -15.5358  -30.2981   23.7666 H   0  0  0  0  0  0
  -15.8679  -28.0816   22.7080 H   0  0  0  0  0  0
  -24.5901  -30.7083   25.7753 H   0  0  0  0  0  0
  -24.8918  -32.2908   26.4836 H   0  0  0  0  0  0
  -25.8034  -30.8919   27.0218 H   0  0  0  0  0  0
  -26.2963  -29.6713   24.1255 H   0  0  0  0  0  0
  -27.4024  -29.7265   25.4776 H   0  0  0  0  0  0
  -27.8851  -30.4241   23.9505 H   0  0  0  0  0  0
  -27.2656  -33.3633   26.2044 H   0  0  0  0  0  0
  -28.3882  -32.6869   25.0336 H   0  0  0  0  0  0
  -28.0705  -31.8468   26.5435 H   0  0  0  0  0  0
  -28.2593  -38.0092   24.7514 H   0  0  0  0  0  0
  -28.1077  -36.2622   24.6296 H   0  0  0  0  0  0
  -27.2293  -37.1443   25.8868 H   0  0  0  0  0  0
  -20.9414  -29.8756   21.6836 H   0  0  0  0  0  0
  -26.0165  -38.2832   24.1410 H   0  0  0  0  0  0
  -28.0488  -17.5003   22.1003 H   0  0  0  0  0  0
  -31.2071  -17.7148   19.2164 H   0  0  0  0  0  0
  -26.7429  -18.9714   16.5749 H   0  0  0  0  0  0
  -27.0470  -20.6049   15.7675 H   0  0  0  0  0  0
  -27.7048  -22.5177   17.1674 H   0  0  0  0  0  0
  -27.4847  -19.8145   18.6780 H   0  0  0  0  0  0
  -28.3636  -24.4023   18.0996 H   0  0  0  0  0  0
  -29.8378  -24.1724   18.9786 H   0  0  0  0  0  0
  -29.3060  -24.7138   22.0616 H   0  0  0  0  0  0
  -27.7776  -23.9174   22.1562 H   0  0  0  0  0  0
  -29.3554  -22.1199   22.3042 H   0  0  0  0  0  0
  -30.4350  -22.8386   21.1573 H   0  0  0  0  0  0
  -27.0861  -24.5944   20.1829 H   0  0  0  0  0  0
  -26.6483  -19.3116   22.5035 H   0  0  0  0  0  0
  -26.7492  -20.7839   21.5502 H   0  0  0  0  0  0
  -27.7356  -20.6040   23.0071 H   0  0  0  0  0  0
  -28.8708  -15.4616   21.2450 H   0  0  0  0  0  0
  1 25  1  0  0  0
  1 30  2  0  0  0
  1 87  1  0  0  0
  2  3  1  0  0  0
  2 25  1  0  0  0
  2 89  1  0  0  0
  2 90  1  0  0  0
  3  4  1  0  0  0
  3 91  1  0  0  0
  3 92  1  0  0  0
  4  5  1  0  0  0
  4 93  1  0  0  0
  4 94  1  0  0  0
  5  6  1  0  0  0
  5 26  1  0  0  0
  5 95  1  0  0  0
  6 25  1  0  0  0
  6 96  1  0  0  0
  6 97  1  0  0  0
  7  8  2  0  0  0
  7 26  1  0  0  0
  7 29  1  0  0  0
  8  9  1  0  0  0
  8 22  1  0  0  0
  9 10  1  0  0  0
  9 27  2  0  0  0
 10 11  2  0  0  0
 10 15  1  0  0  0
 11 12  1  0  0  0
 11 98  1  0  0  0
 12 13  2  0  0  0
 12 99  1  0  0  0
 13 14  1  0  0  0
 13 31  1  0  0  0
 14 15  2  0  0  0
 14100  1  0  0  0
 15101  1  0  0  0
 16 17  2  0  0  0
 16 21  1  0  0  0
 16 31  1  0  0  0
 17 18  1  0  0  0
 17102  1  0  0  0
 18 19  2  0  0  0
 18103  1  0  0  0
 19 20  1  0  0  0
 19 24  1  0  0  0
 20 21  2  0  0  0
 20104  1  0  0  0
 21 23  1  0  0  0
 22 28  1  0  0  0
 22 32  2  0  0  0
 26 27  1  0  0  0
 28105  1  0  0  0
 28106  1  0  0  0
 29107  1  0  0  0
 29108  1  0  0  0
 33 34  1  0  0  0
 33 66  1  0  0  0
 33 70  2  0  0  0
 34 36  1  0  0  0
 34 59  1  0  0  0
 34109  1  0  0  0
 35 44  2  0  0  0
 35 45  1  0  0  0
 35 68  1  0  0  0
 36 56  1  0  0  0
 36110  1  0  0  0
 37 39  1  0  0  0
 37 47  1  0  0  0
 37 66  1  0  0  0
 37111  1  0  0  0
 38 43  2  0  0  0
 38 46  1  0  0  0
 38 47  1  0  0  0
 39 64  1  0  0  0
 39 67  2  0  0  0
 40 52  1  0  0  0
 40 53  2  0  0  0
 40 58  1  0  0  0
 41112  1  0  0  0
 41113  1  0  0  0
 41114  1  0  0  0
 41 48  1  0  0  0
 42 43  1  0  0  0
 42 66  1  0  0  0
 42115  1  0  0  0
 42116  1  0  0  0
 43 44  1  0  0  0
 44117  1  0  0  0
 45 46  2  0  0  0
 45118  1  0  0  0
 46119  1  0  0  0
 47120  1  0  0  0
 47121  1  0  0  0
 48 56  1  0  0  0
 48 65  1  0  0  0
 48122  1  0  0  0
 49 50  1  0  0  0
 49 53  1  0  0  0
 49 64  1  0  0  0
 49123  1  0  0  0
 50 51  1  0  0  0
 50124  1  0  0  0
 50125  1  0  0  0
 51 52  1  0  0  0
 51126  1  0  0  0
 51127  1  0  0  0
 52128  1  0  0  0
 52129  1  0  0  0
 53 54  1  0  0  0
 54 55  2  0  0  0
 54130  1  0  0  0
 55 57  1  0  0  0
 55131  1  0  0  0
 56 69  2  0  0  0
 57 58  2  0  0  0
 57132  1  0  0  0
 58133  1  0  0  0
 59 60  1  0  0  0
 59 61  1  0  0  0
 59 62  1  0  0  0
 60134  1  0  0  0
 60135  1  0  0  0
 60136  1  0  0  0
 61137  1  0  0  0
 61138  1  0  0  0
 61139  1  0  0  0
 62140  1  0  0  0
 62141  1  0  0  0
 62142  1  0  0  0
 63 65  1  0  0  0
 63143  1  0  0  0
 63144  1  0  0  0
 63145  1  0  0  0
 64146  1  0  0  0
 65147  1  0  0  0
 68 84  1  0  0  0
 71 73  2  0  0  0
 71 75  1  0  0  0
 71148  1  0  0  0
 72 75  2  0  0  0
 72 76  1  0  0  0
 72149  1  0  0  0
 73 74  1  0  0  0
 73 85  1  0  0  0
 74 76  2  0  0  0
 74 86  1  0  0  0
 75 87  1  0  0  0
 76 88  1  0  0  0
 77 79  2  0  0  0
 77 81  1  0  0  0
 77 86  1  0  0  0
 78 80  2  0  0  0
 78150  1  0  0  0
 78151  1  0  0  0
 79 80  1  0  0  0
 79152  1  0  0  0
 80153  1  0  0  0
 81 84  1  0  0  0
 81154  1  0  0  0
 81155  1  0  0  0
 82 83  1  0  0  0
 82 84  1  0  0  0
 82156  1  0  0  0
 82157  1  0  0  0
 83 86  1  0  0  0
 83158  1  0  0  0
 83159  1  0  0  0
 84160  1  0  0  0
 85161  1  0  0  0
 85162  1  0  0  0
 85163  1  0  0  0
 87164  1  0  0  0
M  ISO  4   1 100  68 101  84 101  87 100
M  END
> <chiral flag>
0

> <version>
0

> <s_m_source_file>
/data/baiqing/PycharmProjects/Reinvent-master-3.2/result/LINK_invent/BTK/process_docking_weight1_custom_product_contain_oxygen_bond_distance_aromatic_linkinvent_7_9_3/rearranged_h_0043.sdf

> <i_m_source_file_index>
18

> <r_mmod_Potential_Energy-OPLS-2005>
301.456726074219

> <r_mmod_Stretch_Energy-OPLS-2005>
137.570938110352

> <r_mmod_Bend_Energy-OPLS-2005>
199.123153686523

> <r_mmod_Torsional_Energy-OPLS-2005>
272.933044433594

> <r_mmod_Improper_Torsional_Energy-OPLS-2005>
4.1426830291748

> <r_mmod_Van_der_Waal_Energy-OPLS-2005>
144.769622802734

> <r_mmod_Electrostatic_Energy-OPLS-2005>
-355.350677490234

> <r_mmod_Solvation_Energy-OPLS-2005>
-205.580963134766

> <b_mmod_Minimization_Converged-OPLS-2005>
0

> <r_mmod_RMS_Derivative-OPLS-2005>
0.292260855436325

$$$$
18
                    3D
 Structure written by MMmdl.
160168  0  0  1  0            999 V2000
  -30.5806  -14.7658   20.4741 C   0  0  0  0  0  0
  -30.4310  -12.4658   19.4954 C   0  0  0  0  0  0
  -29.5170  -12.5424   18.2502 C   0  0  0  0  0  0
  -28.0377  -12.3633   18.6458 C   0  0  0  0  0  0
  -27.6453  -13.2345   19.8695 C   0  0  2  0  0  0
  -28.6835  -13.1465   21.0090 C   0  0  0  0  0  0
  -25.2503  -13.8193   20.5710 C   0  0  0  0  0  0
  -24.1788  -13.0430   20.9170 C   0  0  0  0  0  0
  -24.6384  -11.6905   20.8720 C   0  0  0  0  0  0
  -23.9056  -10.4282   21.0396 C   0  0  0  0  0  0
  -24.3612   -9.4196   21.9173 C   0  0  0  0  0  0
  -23.6290   -8.2234   22.0749 C   0  0  0  0  0  0
  -22.4260   -8.0287   21.3550 C   0  0  0  0  0  0
  -21.9891   -9.0257   20.4643 C   0  0  0  0  0  0
  -22.7228  -10.2132   20.3040 C   0  0  0  0  0  0
  -21.6846   -6.0740   22.5279 C   0  0  0  0  0  0
  -21.4016   -6.5638   23.8215 C   0  0  0  0  0  0
  -21.3665   -5.6790   24.9176 C   0  0  0  0  0  0
  -21.6044   -4.3050   24.7227 C   0  0  0  0  0  0
  -21.8825   -3.8147   23.4348 C   0  0  0  0  0  0
  -21.9188   -4.6963   22.3398 C   0  0  0  0  0  0
  -22.7812  -13.5211   21.1859 C   0  0  0  0  0  0
  -22.1655   -4.2149   21.0978 F   0  0  0  0  0  0
  -21.5616   -3.4519   25.7730 F   0  0  0  0  0  0
  -29.9904  -13.5166   20.4470 N   0  0  0  0  0  0
  -26.2940  -12.9407   20.3349 N   0  0  0  0  0  0
  -25.9321  -11.6542   20.5754 N   0  0  0  0  0  0
  -22.0491  -12.8201   22.0443 N   0  0  0  0  0  0
  -25.4211  -15.1921   20.4165 N   0  0  0  0  0  0
  -31.7283  -14.9055   20.0365 O   0  0  0  0  0  0
  -21.6640   -6.8883   21.4244 O   0  0  0  0  0  0
  -22.3485  -14.5528   20.6732 O   0  0  0  0  0  0
  -24.6334  -31.8532   23.1926 C   0  0  0  0  0  0
  -25.9152  -32.4749   23.8289 C   0  0  1  0  0  0
  -27.2419  -27.2556   20.1225 C   0  0  0  0  0  0
  -25.5940  -33.8538   24.2243 N   0  0  0  0  0  0
  -23.4300  -30.4710   21.5356 C   0  0  2  0  0  0
  -24.8835  -28.9089   20.1064 C   0  0  0  0  0  0
  -22.7489  -29.4606   22.4894 C   0  0  0  0  0  0
  -18.0292  -28.1398   22.8496 C   0  0  0  0  0  0
  -24.1479  -36.7253   23.2642 C   0  0  0  0  0  0
  -25.9723  -30.7612   21.3705 C   0  0  0  0  0  0
  -26.0492  -29.3810   20.7181 C   0  0  0  0  0  0
  -27.2236  -28.5624   20.7209 C   0  0  0  0  0  0
  -26.0488  -26.8461   19.4828 C   0  0  0  0  0  0
  -24.8900  -27.6523   19.4780 C   0  0  0  0  0  0
  -23.6492  -29.7908   20.1554 C   0  0  0  0  0  0
  -25.4112  -36.3067   24.0340 C   0  0  1  0  0  0
  -20.5894  -28.3725   23.1257 C   0  0  2  0  0  0
  -20.6785  -26.9432   22.5410 C   0  0  0  0  0  0
  -19.5759  -26.6391   21.5217 C   0  0  0  0  0  0
  -18.1943  -26.7944   22.1633 C   0  0  0  0  0  0
  -19.1552  -28.8876   23.2881 C   0  0  0  0  0  0
  -18.9475  -30.1473   23.8904 C   0  0  0  0  0  0
  -17.6477  -30.6598   24.0573 C   0  0  0  0  0  0
  -25.9051  -34.9436   23.5091 C   0  0  0  0  0  0
  -16.5360  -29.9091   23.6331 C   0  0  0  0  0  0
  -16.7286  -28.6504   23.0359 C   0  0  0  0  0  0
  -26.4524  -31.6565   25.0669 C   0  0  0  0  0  0
  -25.3740  -31.3674   26.1379 C   0  0  0  0  0  0
  -27.0371  -30.3001   24.6125 C   0  0  0  0  0  0
  -27.6092  -32.4279   25.7450 C   0  0  0  0  0  0
  -27.5570  -37.1798   24.8476 C   0  0  0  0  0  0
  -21.4199  -29.3073   22.3631 N   0  0  0  0  0  0
  -26.4282  -37.3782   23.9411 N   0  0  0  0  0  0
  -24.6982  -31.0471   22.0908 N   0  0  0  0  0  0
  -23.4179  -28.8163   23.3017 O   0  0  0  0  0  0
  -28.3681  -26.4025   20.2246 O   0  0  0  0  0  0
  -26.5606  -34.8937   22.4654 O   0  0  0  0  0  0
  -23.5484  -32.1349   23.7225 O   0  0  0  0  0  0
  -29.5966  -18.4957   20.8022 C   0  0  0  0  0  0
  -28.7971  -17.0486   19.0395 C   0  0  0  0  0  0
  -28.9991  -19.6864   20.1918 C   0  0  0  0  0  0
  -28.1401  -18.1501   18.4416 C   0  0  0  0  0  0
  -28.1999  -19.4495   19.0351 C   0  0  0  0  0  0
  -29.4983  -17.1469   20.2533 C   0  0  0  0  0  0
  -28.4700  -23.7055   20.4431 C   0  0  0  0  0  0
  -27.3294  -20.5713   18.4699 C   0  0  0  0  0  0
  -30.0212  -22.5074   18.9338 C   0  0  0  0  0  0
  -29.0854  -21.1606   20.8462 C   0  0  0  0  0  0
  -28.5282  -25.0587   19.5584 C   0  0  0  0  0  0
  -27.3094  -17.8810   17.1798 C   0  0  0  0  0  0
  -29.8490  -15.8610   20.9255 N   0  0  0  0  0  0
  -29.0856  -22.4980   20.0634 N   0  0  0  0  0  0
  -27.8172  -23.7572   21.4896 O   0  0  0  0  0  0
  -27.5532  -16.6711   16.6731 F   0  0  0  0  0  0
  -26.0071  -17.9355   17.4658 F   0  0  0  0  0  0
  -27.5871  -18.7684   16.2248 F   0  0  0  0  0  0
  -31.4775  -12.5821   19.2114 H   0  0  0  0  0  0
  -30.3596  -11.4810   19.9601 H   0  0  0  0  0  0
  -29.8056  -11.7868   17.5188 H   0  0  0  0  0  0
  -29.6494  -13.5098   17.7617 H   0  0  0  0  0  0
  -27.8767  -11.3077   18.8698 H   0  0  0  0  0  0
  -27.3892  -12.5941   17.7990 H   0  0  0  0  0  0
  -27.6429  -14.2646   19.5137 H   0  0  0  0  0  0
  -28.7154  -12.1375   21.4221 H   0  0  0  0  0  0
  -28.4095  -13.8005   21.8370 H   0  0  0  0  0  0
  -25.2763   -9.5656   22.4731 H   0  0  0  0  0  0
  -24.0002   -7.4613   22.7454 H   0  0  0  0  0  0
  -21.0831   -8.8795   19.8938 H   0  0  0  0  0  0
  -22.3723  -10.9675   19.6137 H   0  0  0  0  0  0
  -21.2034   -7.6145   23.9722 H   0  0  0  0  0  0
  -21.1471   -6.0516   25.9085 H   0  0  0  0  0  0
  -22.0600   -2.7613   23.2852 H   0  0  0  0  0  0
  -22.4116  -11.9842   22.4786 H   0  0  0  0  0  0
  -21.1123  -13.1221   22.2718 H   0  0  0  0  0  0
  -24.6443  -15.8375   20.4999 H   0  0  0  0  0  0
  -26.2803  -15.6399   20.1317 H   0  0  0  0  0  0
  -26.7216  -32.5434   23.1028 H   0  0  0  0  0  0
  -25.0162  -33.9666   25.0447 H   0  0  0  0  0  0
  -22.7315  -31.2963   21.3827 H   0  0  0  0  0  0
  -23.3767  -35.9559   23.3296 H   0  0  0  0  0  0
  -24.3557  -36.8863   22.2055 H   0  0  0  0  0  0
  -23.7221  -37.6450   23.6658 H   0  0  0  0  0  0
  -26.0983  -31.5158   20.5929 H   0  0  0  0  0  0
  -26.8549  -30.8261   21.9941 H   0  0  0  0  0  0
  -28.1118  -28.9175   21.2239 H   0  0  0  0  0  0
  -25.9756  -25.8767   19.0114 H   0  0  0  0  0  0
  -23.9945  -27.2838   18.9944 H   0  0  0  0  0  0
  -23.7598  -30.5576   19.3874 H   0  0  0  0  0  0
  -22.7724  -29.2098   19.8631 H   0  0  0  0  0  0
  -25.1305  -36.1911   25.0839 H   0  0  0  0  0  0
  -21.0022  -28.3320   24.1369 H   0  0  0  0  0  0
  -20.5690  -26.2331   23.3624 H   0  0  0  0  0  0
  -21.6654  -26.7451   22.1220 H   0  0  0  0  0  0
  -19.6908  -25.6297   21.1258 H   0  0  0  0  0  0
  -19.6703  -27.3189   20.6740 H   0  0  0  0  0  0
  -17.4222  -26.6710   21.4024 H   0  0  0  0  0  0
  -18.0342  -26.0075   22.9023 H   0  0  0  0  0  0
  -19.7949  -30.7294   24.2273 H   0  0  0  0  0  0
  -17.5028  -31.6292   24.5166 H   0  0  0  0  0  0
  -15.5363  -30.3011   23.7650 H   0  0  0  0  0  0
  -15.8688  -28.0833   22.7070 H   0  0  0  0  0  0
  -24.5972  -30.6966   25.7669 H   0  0  0  0  0  0
  -24.8871  -32.2815   26.4790 H   0  0  0  0  0  0
  -25.8066  -30.8871   27.0165 H   0  0  0  0  0  0
  -26.2937  -29.6754   24.1160 H   0  0  0  0  0  0
  -27.4083  -29.7268   25.4631 H   0  0  0  0  0  0
  -27.8804  -30.4276   23.9325 H   0  0  0  0  0  0
  -27.2734  -33.3607   26.1989 H   0  0  0  0  0  0
  -28.3933  -32.6776   25.0276 H   0  0  0  0  0  0
  -28.0726  -31.8413   26.5400 H   0  0  0  0  0  0
  -28.2618  -38.0072   24.7533 H   0  0  0  0  0  0
  -28.1048  -36.2619   24.6308 H   0  0  0  0  0  0
  -27.2279  -37.1427   25.8876 H   0  0  0  0  0  0
  -20.9379  -29.8728   21.6788 H   0  0  0  0  0  0
  -26.0160  -38.2853   24.1422 H   0  0  0  0  0  0
  -30.1095  -18.6162   21.7468 H   0  0  0  0  0  0
  -28.6822  -16.0756   18.5870 H   0  0  0  0  0  0
  -26.9561  -21.2254   19.2557 H   0  0  0  0  0  0
  -26.4322  -20.2022   17.9792 H   0  0  0  0  0  0
  -27.8739  -21.1668   17.7387 H   0  0  0  0  0  0
  -30.9094  -23.0868   19.1884 H   0  0  0  0  0  0
  -29.5761  -22.9396   18.0355 H   0  0  0  0  0  0
  -30.3612  -21.5074   18.6669 H   0  0  0  0  0  0
  -29.9877  -21.1704   21.4596 H   0  0  0  0  0  0
  -28.2690  -21.2051   21.5672 H   0  0  0  0  0  0
  -27.8765  -24.9525   18.6931 H   0  0  0  0  0  0
  -29.5286  -25.1082   19.1297 H   0  0  0  0  0  0
  -29.1238  -15.5654   21.5640 H   0  0  0  0  0  0
  1 25  1  0  0  0
  1 30  2  0  0  0
  1 83  1  0  0  0
  2  3  1  0  0  0
  2 25  1  0  0  0
  2 89  1  0  0  0
  2 90  1  0  0  0
  3  4  1  0  0  0
  3 91  1  0  0  0
  3 92  1  0  0  0
  4  5  1  0  0  0
  4 93  1  0  0  0
  4 94  1  0  0  0
  5  6  1  0  0  0
  5 26  1  0  0  0
  5 95  1  0  0  0
  6 25  1  0  0  0
  6 96  1  0  0  0
  6 97  1  0  0  0
  7  8  2  0  0  0
  7 26  1  0  0  0
  7 29  1  0  0  0
  8  9  1  0  0  0
  8 22  1  0  0  0
  9 10  1  0  0  0
  9 27  2  0  0  0
 10 11  2  0  0  0
 10 15  1  0  0  0
 11 12  1  0  0  0
 11 98  1  0  0  0
 12 13  2  0  0  0
 12 99  1  0  0  0
 13 14  1  0  0  0
 13 31  1  0  0  0
 14 15  2  0  0  0
 14100  1  0  0  0
 15101  1  0  0  0
 16 17  2  0  0  0
 16 21  1  0  0  0
 16 31  1  0  0  0
 17 18  1  0  0  0
 17102  1  0  0  0
 18 19  2  0  0  0
 18103  1  0  0  0
 19 20  1  0  0  0
 19 24  1  0  0  0
 20 21  2  0  0  0
 20104  1  0  0  0
 21 23  1  0  0  0
 22 28  1  0  0  0
 22 32  2  0  0  0
 26 27  1  0  0  0
 28105  1  0  0  0
 28106  1  0  0  0
 29107  1  0  0  0
 29108  1  0  0  0
 33 34  1  0  0  0
 33 66  1  0  0  0
 33 70  2  0  0  0
 34 36  1  0  0  0
 34 59  1  0  0  0
 34109  1  0  0  0
 35 44  2  0  0  0
 35 45  1  0  0  0
 35 68  1  0  0  0
 36 56  1  0  0  0
 36110  1  0  0  0
 37 39  1  0  0  0
 37 47  1  0  0  0
 37 66  1  0  0  0
 37111  1  0  0  0
 38 43  2  0  0  0
 38 46  1  0  0  0
 38 47  1  0  0  0
 39 64  1  0  0  0
 39 67  2  0  0  0
 40 52  1  0  0  0
 40 53  2  0  0  0
 40 58  1  0  0  0
 41112  1  0  0  0
 41113  1  0  0  0
 41114  1  0  0  0
 41 48  1  0  0  0
 42 43  1  0  0  0
 42 66  1  0  0  0
 42115  1  0  0  0
 42116  1  0  0  0
 43 44  1  0  0  0
 44117  1  0  0  0
 45 46  2  0  0  0
 45118  1  0  0  0
 46119  1  0  0  0
 47120  1  0  0  0
 47121  1  0  0  0
 48 56  1  0  0  0
 48 65  1  0  0  0
 48122  1  0  0  0
 49 50  1  0  0  0
 49 53  1  0  0  0
 49 64  1  0  0  0
 49123  1  0  0  0
 50 51  1  0  0  0
 50124  1  0  0  0
 50125  1  0  0  0
 51 52  1  0  0  0
 51126  1  0  0  0
 51127  1  0  0  0
 52128  1  0  0  0
 52129  1  0  0  0
 53 54  1  0  0  0
 54 55  2  0  0  0
 54130  1  0  0  0
 55 57  1  0  0  0
 55131  1  0  0  0
 56 69  2  0  0  0
 57 58  2  0  0  0
 57132  1  0  0  0
 58133  1  0  0  0
 59 60  1  0  0  0
 59 61  1  0  0  0
 59 62  1  0  0  0
 60134  1  0  0  0
 60135  1  0  0  0
 60136  1  0  0  0
 61137  1  0  0  0
 61138  1  0  0  0
 61139  1  0  0  0
 62140  1  0  0  0
 62141  1  0  0  0
 62142  1  0  0  0
 63 65  1  0  0  0
 63143  1  0  0  0
 63144  1  0  0  0
 63145  1  0  0  0
 64146  1  0  0  0
 65147  1  0  0  0
 68 81  1  0  0  0
 71 73  2  0  0  0
 71 76  1  0  0  0
 71148  1  0  0  0
 72 74  1  0  0  0
 72 76  2  0  0  0
 72149  1  0  0  0
 73 75  1  0  0  0
 73 80  1  0  0  0
 74 75  2  0  0  0
 74 82  1  0  0  0
 75 78  1  0  0  0
 76 83  1  0  0  0
 77 81  1  0  0  0
 77 84  1  0  0  0
 77 85  2  0  0  0
 78150  1  0  0  0
 78151  1  0  0  0
 78152  1  0  0  0
 79 84  1  0  0  0
 79153  1  0  0  0
 79154  1  0  0  0
 79155  1  0  0  0
 80 84  1  0  0  0
 80156  1  0  0  0
 80157  1  0  0  0
 81158  1  0  0  0
 81159  1  0  0  0
 82 86  1  0  0  0
 82 87  1  0  0  0
 82 88  1  0  0  0
 83160  1  0  0  0
M  ISO  4   1 100  68 101  81 101  83 100
M  END
> <chiral flag>
0

> <version>
0

> <s_m_source_file>
/data/baiqing/PycharmProjects/Reinvent-master-3.2/result/LINK_invent/BTK/process_docking_weight1_custom_product_contain_oxygen_bond_distance_aromatic_linkinvent_7_9_3/rearranged_h_0043.sdf

> <i_m_source_file_index>
19

> <r_mmod_Potential_Energy-OPLS-2005>
299.532836914062

> <r_mmod_Stretch_Energy-OPLS-2005>
149.33821105957

> <r_mmod_Bend_Energy-OPLS-2005>
191.74479675293

> <r_mmod_Torsional_Energy-OPLS-2005>
263.639404296875

> <r_mmod_Improper_Torsional_Energy-OPLS-2005>
7.20778894424438

> <r_mmod_Van_der_Waal_Energy-OPLS-2005>
141.216506958008

> <r_mmod_Electrostatic_Energy-OPLS-2005>
-308.022613525391

> <r_mmod_Solvation_Energy-OPLS-2005>
-234.739715576172

> <b_mmod_Minimization_Converged-OPLS-2005>
0

> <r_mmod_RMS_Derivative-OPLS-2005>
3.12110114097595

$$$$
19
                    3D
 Structure written by MMmdl.
164173  0  0  1  0            999 V2000
  -30.5958  -14.7554   20.5102 C   0  0  0  0  0  0
  -30.4304  -12.4692   19.4826 C   0  0  0  0  0  0
  -29.5140  -12.5305   18.2408 C   0  0  0  0  0  0
  -28.0340  -12.3572   18.6372 C   0  0  0  0  0  0
  -27.6377  -13.2376   19.8530 C   0  0  2  0  0  0
  -28.6775  -13.1590   20.9910 C   0  0  0  0  0  0
  -25.2459  -13.8221   20.5694 C   0  0  0  0  0  0
  -24.1769  -13.0422   20.9217 C   0  0  0  0  0  0
  -24.6395  -11.6914   20.8736 C   0  0  0  0  0  0
  -23.9076  -10.4294   21.0388 C   0  0  0  0  0  0
  -24.3629   -9.4212   21.9168 C   0  0  0  0  0  0
  -23.6298   -8.2245   22.0747 C   0  0  0  0  0  0
  -22.4283   -8.0280   21.3531 C   0  0  0  0  0  0
  -21.9899   -9.0260   20.4655 C   0  0  0  0  0  0
  -22.7228  -10.2135   20.3054 C   0  0  0  0  0  0
  -21.6851   -6.0740   22.5286 C   0  0  0  0  0  0
  -21.4026   -6.5645   23.8225 C   0  0  0  0  0  0
  -21.3667   -5.6790   24.9182 C   0  0  0  0  0  0
  -21.6040   -4.3056   24.7220 C   0  0  0  0  0  0
  -21.8811   -3.8149   23.4343 C   0  0  0  0  0  0
  -21.9190   -4.6969   22.3403 C   0  0  0  0  0  0
  -22.7796  -13.5209   21.1865 C   0  0  0  0  0  0
  -22.1654   -4.2157   21.0976 F   0  0  0  0  0  0
  -21.5625   -3.4540   25.7732 F   0  0  0  0  0  0
  -29.9769  -13.5270   20.4158 N   0  0  0  0  0  0
  -26.2906  -12.9432   20.3271 N   0  0  0  0  0  0
  -25.9327  -11.6565   20.5741 N   0  0  0  0  0  0
  -22.0459  -12.8197   22.0457 N   0  0  0  0  0  0
  -25.4079  -15.1947   20.4131 N   0  0  0  0  0  0
  -31.7763  -14.8629   20.1628 O   0  0  0  0  0  0
  -21.6633   -6.8879   21.4243 O   0  0  0  0  0  0
  -22.3461  -14.5503   20.6712 O   0  0  0  0  0  0
  -24.6267  -31.8569   23.2032 C   0  0  0  0  0  0
  -25.9107  -32.4765   23.8366 C   0  0  1  0  0  0
  -27.2012  -27.2468   20.1756 C   0  0  0  0  0  0
  -25.5858  -33.8568   24.2240 N   0  0  0  0  0  0
  -23.4264  -30.4797   21.5423 C   0  0  2  0  0  0
  -24.8759  -28.9249   20.1105 C   0  0  0  0  0  0
  -22.7478  -29.4604   22.4906 C   0  0  0  0  0  0
  -18.0283  -28.1400   22.8486 C   0  0  0  0  0  0
  -24.1476  -36.7308   23.2654 C   0  0  0  0  0  0
  -25.9722  -30.7639   21.3907 C   0  0  0  0  0  0
  -26.0432  -29.3860   20.7344 C   0  0  0  0  0  0
  -27.2126  -28.5594   20.7531 C   0  0  0  0  0  0
  -26.0290  -26.8660   19.4898 C   0  0  0  0  0  0
  -24.8739  -27.6744   19.4737 C   0  0  0  0  0  0
  -23.6479  -29.8170   20.1553 C   0  0  0  0  0  0
  -25.4113  -36.3088   24.0315 C   0  0  1  0  0  0
  -20.5890  -28.3685   23.1272 C   0  0  2  0  0  0
  -20.6774  -26.9411   22.5408 C   0  0  0  0  0  0
  -19.5744  -26.6383   21.5212 C   0  0  0  0  0  0
  -18.1916  -26.7951   22.1622 C   0  0  0  0  0  0
  -19.1542  -28.8856   23.2880 C   0  0  0  0  0  0
  -18.9474  -30.1458   23.8889 C   0  0  0  0  0  0
  -17.6469  -30.6591   24.0570 C   0  0  0  0  0  0
  -25.9034  -34.9442   23.5099 C   0  0  0  0  0  0
  -16.5356  -29.9086   23.6344 C   0  0  0  0  0  0
  -16.7268  -28.6517   23.0350 C   0  0  0  0  0  0
  -26.4518  -31.6650   25.0777 C   0  0  0  0  0  0
  -25.3771  -31.3802   26.1528 C   0  0  0  0  0  0
  -27.0458  -30.3093   24.6325 C   0  0  0  0  0  0
  -27.6011  -32.4511   25.7507 C   0  0  0  0  0  0
  -27.5583  -37.1820   24.8440 C   0  0  0  0  0  0
  -21.4180  -29.3026   22.3642 N   0  0  0  0  0  0
  -26.4292  -37.3789   23.9391 N   0  0  0  0  0  0
  -24.6936  -31.0530   22.1006 N   0  0  0  0  0  0
  -23.4197  -28.8130   23.2987 O   0  0  0  0  0  0
  -28.2795  -26.3376   20.2174 O   0  0  0  0  0  0
  -26.5664  -34.8928   22.4693 O   0  0  0  0  0  0
  -23.5418  -32.1391   23.7311 O   0  0  0  0  0  0
  -31.4081  -18.9366   22.4302 C   0  0  0  0  0  0
  -29.4208  -18.4578   20.5838 C   0  0  0  0  0  0
  -30.7293  -20.0459   21.8825 C   0  0  0  0  0  0
  -31.1263  -17.5955   22.0843 C   0  0  0  0  0  0
  -29.6775  -19.8499   20.9490 C   0  0  0  0  0  0
  -30.1397  -17.2983   21.1062 C   0  0  0  0  0  0
  -28.6969  -23.6887   20.2161 C   0  0  0  0  0  0
  -26.7907  -23.3109   22.3784 C   0  0  0  0  0  0
  -26.8232  -24.6810   21.6449 C   0  0  0  0  0  0
  -28.0893  -22.4773   22.2435 C   0  0  0  0  0  0
  -28.1741  -25.0128   20.9520 C   0  0  2  0  0  0
  -31.2088  -21.4195   22.3275 C   0  0  0  0  0  0
  -31.8924  -16.5107   22.8293 C   0  0  0  0  0  0
  -28.9208  -21.0840   20.2537 C   0  0  0  0  0  0
  -28.6441  -22.4642   20.8795 N   0  0  0  0  0  0
  -29.8116  -15.8790   20.7681 N   0  0  0  0  0  0
  -29.1180  -23.7778   19.0577 O   0  0  0  0  0  0
  -31.4748  -12.5987   19.1917 H   0  0  0  0  0  0
  -30.3718  -11.4905   19.9614 H   0  0  0  0  0  0
  -29.8035  -11.7667   17.5190 H   0  0  0  0  0  0
  -29.6468  -13.4928   17.7415 H   0  0  0  0  0  0
  -27.8725  -11.3062   18.8728 H   0  0  0  0  0  0
  -27.3919  -12.5864   17.7868 H   0  0  0  0  0  0
  -27.6319  -14.2643   19.4866 H   0  0  0  0  0  0
  -28.7171  -12.1557   21.4172 H   0  0  0  0  0  0
  -28.4073  -13.8286   21.8093 H   0  0  0  0  0  0
  -25.2777   -9.5686   22.4733 H   0  0  0  0  0  0
  -24.0019   -7.4632   22.7455 H   0  0  0  0  0  0
  -21.0826   -8.8779   19.8971 H   0  0  0  0  0  0
  -22.3684  -10.9670   19.6173 H   0  0  0  0  0  0
  -21.2030   -7.6155   23.9730 H   0  0  0  0  0  0
  -21.1496   -6.0524   25.9084 H   0  0  0  0  0  0
  -22.0581   -2.7610   23.2837 H   0  0  0  0  0  0
  -22.4083  -11.9866   22.4853 H   0  0  0  0  0  0
  -21.1094  -13.1238   22.2702 H   0  0  0  0  0  0
  -24.6264  -15.8330   20.5189 H   0  0  0  0  0  0
  -26.2481  -15.6507   20.0821 H   0  0  0  0  0  0
  -26.7152  -32.5421   23.1095 H   0  0  0  0  0  0
  -24.9911  -33.9736   25.0311 H   0  0  0  0  0  0
  -22.7201  -31.3011   21.3974 H   0  0  0  0  0  0
  -23.3744  -35.9639   23.3328 H   0  0  0  0  0  0
  -24.3531  -36.8944   22.2065 H   0  0  0  0  0  0
  -23.7230  -37.6493   23.6702 H   0  0  0  0  0  0
  -26.1299  -31.5313   20.6334 H   0  0  0  0  0  0
  -26.8403  -30.8004   22.0357 H   0  0  0  0  0  0
  -28.1046  -28.9041   21.2591 H   0  0  0  0  0  0
  -25.9933  -25.9077   18.9904 H   0  0  0  0  0  0
  -23.9839  -27.3224   18.9704 H   0  0  0  0  0  0
  -23.7770  -30.5974   19.4033 H   0  0  0  0  0  0
  -22.7660  -29.2533   19.8454 H   0  0  0  0  0  0
  -25.1319  -36.1943   25.0809 H   0  0  0  0  0  0
  -20.9998  -28.3283   24.1390 H   0  0  0  0  0  0
  -20.5659  -26.2310   23.3611 H   0  0  0  0  0  0
  -21.6643  -26.7424   22.1211 H   0  0  0  0  0  0
  -19.6904  -25.6282   21.1245 H   0  0  0  0  0  0
  -19.6699  -27.3189   20.6734 H   0  0  0  0  0  0
  -17.4202  -26.6695   21.4009 H   0  0  0  0  0  0
  -18.0320  -26.0087   22.9011 H   0  0  0  0  0  0
  -19.7945  -30.7284   24.2258 H   0  0  0  0  0  0
  -17.5020  -31.6271   24.5186 H   0  0  0  0  0  0
  -15.5355  -30.2989   23.7678 H   0  0  0  0  0  0
  -15.8672  -28.0829   22.7071 H   0  0  0  0  0  0
  -24.5684  -30.7522   25.7786 H   0  0  0  0  0  0
  -24.9371  -32.3020   26.5324 H   0  0  0  0  0  0
  -25.8035  -30.8559   27.0089 H   0  0  0  0  0  0
  -26.3126  -29.6726   24.1369 H   0  0  0  0  0  0
  -27.4182  -29.7467   25.4899 H   0  0  0  0  0  0
  -27.8958  -30.4410   23.9623 H   0  0  0  0  0  0
  -27.2533  -33.3768   26.2094 H   0  0  0  0  0  0
  -28.0799  -31.8721   26.5411 H   0  0  0  0  0  0
  -28.3739  -32.7214   25.0304 H   0  0  0  0  0  0
  -28.2590  -38.0128   24.7489 H   0  0  0  0  0  0
  -28.1092  -36.2653   24.6270 H   0  0  0  0  0  0
  -27.2299  -37.1473   25.8842 H   0  0  0  0  0  0
  -20.9367  -29.8754   21.6846 H   0  0  0  0  0  0
  -26.0174  -38.2864   24.1383 H   0  0  0  0  0  0
  -32.1908  -19.1220   23.1551 H   0  0  0  0  0  0
  -28.6444  -18.2793   19.8538 H   0  0  0  0  0  0
  -25.9513  -22.7195   22.0114 H   0  0  0  0  0  0
  -26.5717  -23.4657   23.4375 H   0  0  0  0  0  0
  -26.5688  -25.4746   22.3470 H   0  0  0  0  0  0
  -26.0215  -24.6585   20.9082 H   0  0  0  0  0  0
  -27.9287  -21.4616   22.6101 H   0  0  0  0  0  0
  -28.8243  -22.9329   22.9053 H   0  0  0  0  0  0
  -28.8925  -25.1404   21.7669 H   0  0  0  0  0  0
  -32.2261  -21.3697   22.7171 H   0  0  0  0  0  0
  -30.5998  -21.7980   23.1449 H   0  0  0  0  0  0
  -31.2217  -22.1439   21.5136 H   0  0  0  0  0  0
  -32.3288  -16.9012   23.7474 H   0  0  0  0  0  0
  -32.7047  -16.1169   22.2179 H   0  0  0  0  0  0
  -31.2368  -15.6895   23.1207 H   0  0  0  0  0  0
  -29.4842  -21.2667   19.3377 H   0  0  0  0  0  0
  -27.9559  -20.7101   19.9170 H   0  0  0  0  0  0
  -28.8256  -15.6750   20.7559 H   0  0  0  0  0  0
  1 25  1  0  0  0
  1 30  2  0  0  0
  1 86  1  0  0  0
  2  3  1  0  0  0
  2 25  1  0  0  0
  2 88  1  0  0  0
  2 89  1  0  0  0
  3  4  1  0  0  0
  3 90  1  0  0  0
  3 91  1  0  0  0
  4  5  1  0  0  0
  4 92  1  0  0  0
  4 93  1  0  0  0
  5  6  1  0  0  0
  5 26  1  0  0  0
  5 94  1  0  0  0
  6 25  1  0  0  0
  6 95  1  0  0  0
  6 96  1  0  0  0
  7  8  2  0  0  0
  7 26  1  0  0  0
  7 29  1  0  0  0
  8  9  1  0  0  0
  8 22  1  0  0  0
  9 10  1  0  0  0
  9 27  2  0  0  0
 10 11  2  0  0  0
 10 15  1  0  0  0
 11 12  1  0  0  0
 11 97  1  0  0  0
 12 13  2  0  0  0
 12 98  1  0  0  0
 13 14  1  0  0  0
 13 31  1  0  0  0
 14 15  2  0  0  0
 14 99  1  0  0  0
 15100  1  0  0  0
 16 17  2  0  0  0
 16 21  1  0  0  0
 16 31  1  0  0  0
 17 18  1  0  0  0
 17101  1  0  0  0
 18 19  2  0  0  0
 18102  1  0  0  0
 19 20  1  0  0  0
 19 24  1  0  0  0
 20 21  2  0  0  0
 20103  1  0  0  0
 21 23  1  0  0  0
 22 28  1  0  0  0
 22 32  2  0  0  0
 26 27  1  0  0  0
 28104  1  0  0  0
 28105  1  0  0  0
 29106  1  0  0  0
 29107  1  0  0  0
 33 34  1  0  0  0
 33 66  1  0  0  0
 33 70  2  0  0  0
 34 36  1  0  0  0
 34 59  1  0  0  0
 34108  1  0  0  0
 35 44  2  0  0  0
 35 45  1  0  0  0
 35 68  1  0  0  0
 36 56  1  0  0  0
 36109  1  0  0  0
 37 39  1  0  0  0
 37 47  1  0  0  0
 37 66  1  0  0  0
 37110  1  0  0  0
 38 43  2  0  0  0
 38 46  1  0  0  0
 38 47  1  0  0  0
 39 64  1  0  0  0
 39 67  2  0  0  0
 40 52  1  0  0  0
 40 53  2  0  0  0
 40 58  1  0  0  0
 41111  1  0  0  0
 41112  1  0  0  0
 41113  1  0  0  0
 41 48  1  0  0  0
 42 43  1  0  0  0
 42 66  1  0  0  0
 42114  1  0  0  0
 42115  1  0  0  0
 43 44  1  0  0  0
 44116  1  0  0  0
 45 46  2  0  0  0
 45117  1  0  0  0
 46118  1  0  0  0
 47119  1  0  0  0
 47120  1  0  0  0
 48 56  1  0  0  0
 48 65  1  0  0  0
 48121  1  0  0  0
 49 50  1  0  0  0
 49 53  1  0  0  0
 49 64  1  0  0  0
 49122  1  0  0  0
 50 51  1  0  0  0
 50123  1  0  0  0
 50124  1  0  0  0
 51 52  1  0  0  0
 51125  1  0  0  0
 51126  1  0  0  0
 52127  1  0  0  0
 52128  1  0  0  0
 53 54  1  0  0  0
 54 55  2  0  0  0
 54129  1  0  0  0
 55 57  1  0  0  0
 55130  1  0  0  0
 56 69  2  0  0  0
 57 58  2  0  0  0
 57131  1  0  0  0
 58132  1  0  0  0
 59 60  1  0  0  0
 59 61  1  0  0  0
 59 62  1  0  0  0
 60133  1  0  0  0
 60134  1  0  0  0
 60135  1  0  0  0
 61136  1  0  0  0
 61137  1  0  0  0
 61138  1  0  0  0
 62139  1  0  0  0
 62140  1  0  0  0
 62141  1  0  0  0
 63 65  1  0  0  0
 63142  1  0  0  0
 63143  1  0  0  0
 63144  1  0  0  0
 64145  1  0  0  0
 65146  1  0  0  0
 68 81  1  0  0  0
 71 73  2  0  0  0
 71 74  1  0  0  0
 71147  1  0  0  0
 72 75  2  0  0  0
 72 76  1  0  0  0
 72148  1  0  0  0
 73 75  1  0  0  0
 73 82  1  0  0  0
 74 76  2  0  0  0
 74 83  1  0  0  0
 75 84  1  0  0  0
 76 86  1  0  0  0
 77 81  1  0  0  0
 77 85  1  0  0  0
 77 87  2  0  0  0
 78 79  1  0  0  0
 78 80  1  0  0  0
 78149  1  0  0  0
 78150  1  0  0  0
 79 81  1  0  0  0
 79151  1  0  0  0
 79152  1  0  0  0
 80 85  1  0  0  0
 80153  1  0  0  0
 80154  1  0  0  0
 81155  1  0  0  0
 82156  1  0  0  0
 82157  1  0  0  0
 82158  1  0  0  0
 83159  1  0  0  0
 83160  1  0  0  0
 83161  1  0  0  0
 84 85  1  0  0  0
 84162  1  0  0  0
 84163  1  0  0  0
 86164  1  0  0  0
M  ISO  4   1 100  68 101  81 101  86 100
M  END
> <chiral flag>
0

> <version>
0

> <s_m_source_file>
/data/baiqing/PycharmProjects/Reinvent-master-3.2/result/LINK_invent/BTK/process_docking_weight1_custom_product_contain_oxygen_bond_distance_aromatic_linkinvent_7_9_3/rearranged_h_0043.sdf

> <i_m_source_file_index>
20

> <r_mmod_Potential_Energy-OPLS-2005>
270.909027099609

> <r_mmod_Stretch_Energy-OPLS-2005>
137.38801574707

> <r_mmod_Bend_Energy-OPLS-2005>
182.159088134766

> <r_mmod_Torsional_Energy-OPLS-2005>
281.950317382812

> <r_mmod_Improper_Torsional_Energy-OPLS-2005>
6.17591619491577

> <r_mmod_Van_der_Waal_Energy-OPLS-2005>
152.862869262695

> <r_mmod_Electrostatic_Energy-OPLS-2005>
-357.100219726562

> <r_mmod_Solvation_Energy-OPLS-2005>
-225.615692138672

> <b_mmod_Minimization_Converged-OPLS-2005>
0

> <r_mmod_RMS_Derivative-OPLS-2005>
5.01516056060791

$$$$
20
                    3D
 Structure written by MMmdl.
163172  0  0  1  0            999 V2000
  -30.5059  -15.0410   20.3963 C   0  0  0  0  0  0
  -30.4362  -12.6358   19.5292 C   0  0  0  0  0  0
  -29.5371  -12.5405   18.2723 C   0  0  0  0  0  0
  -28.0570  -12.3444   18.6544 C   0  0  0  0  0  0
  -27.6210  -13.2685   19.8207 C   0  0  2  0  0  0
  -28.6538  -13.3275   20.9659 C   0  0  0  0  0  0
  -25.2433  -13.8281   20.5675 C   0  0  0  0  0  0
  -24.1790  -13.0475   20.9239 C   0  0  0  0  0  0
  -24.6429  -11.6968   20.8707 C   0  0  0  0  0  0
  -23.9116  -10.4328   21.0363 C   0  0  0  0  0  0
  -24.3653   -9.4247   21.9141 C   0  0  0  0  0  0
  -23.6341   -8.2275   22.0712 C   0  0  0  0  0  0
  -22.4299   -8.0324   21.3510 C   0  0  0  0  0  0
  -21.9958   -9.0294   20.4593 C   0  0  0  0  0  0
  -22.7300  -10.2170   20.2987 C   0  0  0  0  0  0
  -21.6845   -6.0808   22.5298 C   0  0  0  0  0  0
  -21.4039   -6.5674   23.8255 C   0  0  0  0  0  0
  -21.3639   -5.6779   24.9188 C   0  0  0  0  0  0
  -21.6033   -4.3038   24.7199 C   0  0  0  0  0  0
  -21.8838   -3.8192   23.4303 C   0  0  0  0  0  0
  -21.9213   -4.7047   22.3397 C   0  0  0  0  0  0
  -22.7815  -13.5199   21.1956 C   0  0  0  0  0  0
  -22.1677   -4.2263   21.0972 F   0  0  0  0  0  0
  -21.5574   -3.4485   25.7687 F   0  0  0  0  0  0
  -29.9351  -13.7548   20.3921 N   0  0  0  0  0  0
  -26.2842  -12.9536   20.3091 N   0  0  0  0  0  0
  -25.9348  -11.6635   20.5594 N   0  0  0  0  0  0
  -22.0462  -12.8132   22.0457 N   0  0  0  0  0  0
  -25.4074  -15.2012   20.4113 N   0  0  0  0  0  0
  -31.6956  -15.0948   20.0661 O   0  0  0  0  0  0
  -21.6634   -6.8947   21.4250 O   0  0  0  0  0  0
  -22.3475  -14.5492   20.6817 O   0  0  0  0  0  0
  -24.6518  -31.8344   23.1746 C   0  0  0  0  0  0
  -25.9237  -32.4653   23.8190 C   0  0  1  0  0  0
  -27.2390  -27.0489   20.1695 C   0  0  0  0  0  0
  -25.5934  -33.8454   24.2105 N   0  0  0  0  0  0
  -23.4625  -30.4414   21.5221 C   0  0  2  0  0  0
  -24.9177  -28.8450   20.1074 C   0  0  0  0  0  0
  -22.7625  -29.4470   22.4835 C   0  0  0  0  0  0
  -18.0313  -28.1385   22.8490 C   0  0  0  0  0  0
  -24.1487  -36.7232   23.2649 C   0  0  0  0  0  0
  -26.0209  -30.6780   21.3844 C   0  0  0  0  0  0
  -26.0925  -29.2777   20.7326 C   0  0  0  0  0  0
  -27.2447  -28.3962   20.7457 C   0  0  0  0  0  0
  -26.0369  -26.7316   19.5014 C   0  0  0  0  0  0
  -24.9071  -27.5884   19.4737 C   0  0  0  0  0  0
  -23.6927  -29.7537   20.1468 C   0  0  0  0  0  0
  -25.4131  -36.2997   24.0305 C   0  0  1  0  0  0
  -20.5941  -28.3711   23.1232 C   0  0  2  0  0  0
  -20.6779  -26.9401   22.5430 C   0  0  0  0  0  0
  -19.5751  -26.6361   21.5224 C   0  0  0  0  0  0
  -18.1934  -26.7931   22.1635 C   0  0  0  0  0  0
  -19.1573  -28.8869   23.2852 C   0  0  0  0  0  0
  -18.9483  -30.1469   23.8871 C   0  0  0  0  0  0
  -17.6473  -30.6586   24.0546 C   0  0  0  0  0  0
  -25.9092  -34.9383   23.5043 C   0  0  0  0  0  0
  -16.5365  -29.9078   23.6334 C   0  0  0  0  0  0
  -16.7297  -28.6496   23.0367 C   0  0  0  0  0  0
  -26.4505  -31.6568   25.0694 C   0  0  0  0  0  0
  -25.3645  -31.3811   26.1367 C   0  0  0  0  0  0
  -27.0398  -30.2958   24.6345 C   0  0  0  0  0  0
  -27.6018  -32.4378   25.7496 C   0  0  0  0  0  0
  -27.5576  -37.1766   24.8461 C   0  0  0  0  0  0
  -21.4298  -29.3036   22.3594 N   0  0  0  0  0  0
  -26.4277  -37.3732   23.9412 N   0  0  0  0  0  0
  -24.7310  -31.0105   22.0819 N   0  0  0  0  0  0
  -23.4230  -28.8035   23.3029 O   0  0  0  0  0  0
  -28.2970  -26.0517   20.3224 O   0  0  0  0  0  0
  -26.5716  -34.8902   22.4643 O   0  0  0  0  0  0
  -23.5615  -32.1252   23.6904 O   0  0  0  0  0  0
  -28.7220  -18.9124   18.0417 C   0  0  0  0  0  0
  -28.7520  -20.1777   18.6584 C   0  0  0  0  0  0
  -29.1117  -17.7021   18.6654 C   0  0  0  0  0  0
  -29.5693  -19.0457   20.6495 C   0  0  0  0  0  0
  -29.2081  -20.3651   19.9750 C   0  0  0  0  0  0
  -29.5611  -17.6627   20.0187 C   0  0  0  0  0  0
  -30.7037  -22.3450   20.4438 C   0  0  0  0  0  0
  -31.8125  -21.5880   20.5662 C   0  0  0  0  0  0
  -30.8780  -23.8676   20.3050 C   0  0  0  0  0  0
  -29.9324  -24.5343   19.2818 C   0  0  0  0  0  0
  -28.2943  -22.9790   20.4202 C   0  0  0  0  0  0
  -28.4753  -24.5650   19.7618 C   0  0  1  0  0  0
  -28.9316  -16.4565   17.8057 C   0  0  0  0  0  0
  -29.9286  -19.0996   22.1235 C   0  0  0  0  0  0
  -29.3933  -21.8255   20.3517 N   0  0  0  0  0  0
  -29.7379  -16.2379   20.6567 N   0  0  0  0  0  0
  -31.4737  -12.7886   19.2259 H   0  0  0  0  0  0
  -30.4207  -11.6885   20.0753 H   0  0  0  0  0  0
  -29.8731  -11.7294   17.6272 H   0  0  0  0  0  0
  -29.6440  -13.4516   17.6844 H   0  0  0  0  0  0
  -27.9246  -11.3000   18.9313 H   0  0  0  0  0  0
  -27.4137  -12.5058   17.7863 H   0  0  0  0  0  0
  -27.5660  -14.2650   19.3817 H   0  0  0  0  0  0
  -28.7433  -12.3630   21.4666 H   0  0  0  0  0  0
  -28.3301  -14.0417   21.7228 H   0  0  0  0  0  0
  -25.2804   -9.5750   22.4724 H   0  0  0  0  0  0
  -24.0068   -7.4632   22.7397 H   0  0  0  0  0  0
  -21.0899   -8.8831   19.8872 H   0  0  0  0  0  0
  -22.3768  -10.9706   19.6085 H   0  0  0  0  0  0
  -21.2051   -7.6177   23.9828 H   0  0  0  0  0  0
  -21.1391   -6.0449   25.9095 H   0  0  0  0  0  0
  -22.0625   -2.7662   23.2738 H   0  0  0  0  0  0
  -22.4050  -11.9758   22.4795 H   0  0  0  0  0  0
  -21.1051  -13.1129   22.2604 H   0  0  0  0  0  0
  -24.6314  -15.8457   20.5253 H   0  0  0  0  0  0
  -26.2352  -15.6393   20.0300 H   0  0  0  0  0  0
  -26.7312  -32.5218   23.0907 H   0  0  0  0  0  0
  -24.9968  -33.9548   25.0169 H   0  0  0  0  0  0
  -22.7714  -31.2701   21.3569 H   0  0  0  0  0  0
  -23.3767  -35.9551   23.3285 H   0  0  0  0  0  0
  -24.3560  -36.8904   22.2074 H   0  0  0  0  0  0
  -23.7225  -37.6402   23.6722 H   0  0  0  0  0  0
  -26.1877  -31.4248   20.6060 H   0  0  0  0  0  0
  -26.8880  -30.7349   22.0320 H   0  0  0  0  0  0
  -28.1363  -28.7217   21.2617 H   0  0  0  0  0  0
  -25.9387  -25.7607   19.0383 H   0  0  0  0  0  0
  -24.0079  -27.2505   18.9780 H   0  0  0  0  0  0
  -23.8292  -30.5208   19.3844 H   0  0  0  0  0  0
  -22.8082  -29.1916   19.8426 H   0  0  0  0  0  0
  -25.1323  -36.1796   25.0799 H   0  0  0  0  0  0
  -21.0036  -28.3293   24.1344 H   0  0  0  0  0  0
  -20.5639  -26.2322   23.3660 H   0  0  0  0  0  0
  -21.6641  -26.7364   22.1228 H   0  0  0  0  0  0
  -19.6896  -25.6261   21.1277 H   0  0  0  0  0  0
  -19.6680  -27.3153   20.6744 H   0  0  0  0  0  0
  -17.4207  -26.6692   21.4037 H   0  0  0  0  0  0
  -18.0302  -26.0069   22.9026 H   0  0  0  0  0  0
  -19.7950  -30.7299   24.2220 H   0  0  0  0  0  0
  -17.5019  -31.6255   24.5154 H   0  0  0  0  0  0
  -15.5365  -30.2963   23.7663 H   0  0  0  0  0  0
  -15.8698  -28.0795   22.7103 H   0  0  0  0  0  0
  -24.5761  -30.7250   25.7632 H   0  0  0  0  0  0
  -24.8898  -32.3031   26.4757 H   0  0  0  0  0  0
  -25.7850  -30.8940   27.0173 H   0  0  0  0  0  0
  -26.3036  -29.6666   24.1327 H   0  0  0  0  0  0
  -27.3953  -29.7287   25.4956 H   0  0  0  0  0  0
  -27.8962  -30.4191   23.9712 H   0  0  0  0  0  0
  -27.2553  -33.3660   26.2062 H   0  0  0  0  0  0
  -28.3814  -32.6997   25.0327 H   0  0  0  0  0  0
  -28.0709  -31.8534   26.5419 H   0  0  0  0  0  0
  -28.2569  -38.0085   24.7528 H   0  0  0  0  0  0
  -28.1089  -36.2619   24.6248 H   0  0  0  0  0  0
  -27.2307  -37.1365   25.8865 H   0  0  0  0  0  0
  -20.9535  -29.8732   21.6749 H   0  0  0  0  0  0
  -26.0133  -38.2787   24.1441 H   0  0  0  0  0  0
  -28.3773  -18.8722   17.0186 H   0  0  0  0  0  0
  -28.4676  -21.0355   18.0652 H   0  0  0  0  0  0
  -32.7919  -22.0425   20.6182 H   0  0  0  0  0  0
  -31.7974  -20.5124   20.6155 H   0  0  0  0  0  0
  -31.8970  -24.0677   19.9719 H   0  0  0  0  0  0
  -30.7906  -24.3450   21.2818 H   0  0  0  0  0  0
  -29.9909  -23.9836   18.3409 H   0  0  0  0  0  0
  -30.2737  -25.5458   19.0559 H   0  0  0  0  0  0
  -27.3619  -22.5640   20.0375 H   0  0  0  0  0  0
  -28.1079  -23.1161   21.4838 H   0  0  0  0  0  0
  -27.8645  -24.5646   18.8580 H   0  0  0  0  0  0
  -29.5747  -15.6364   18.0857 H   0  0  0  0  0  0
  -29.1693  -16.6638   16.7633 H   0  0  0  0  0  0
  -27.8976  -16.1097   17.8376 H   0  0  0  0  0  0
  -30.5757  -19.9431   22.3645 H   0  0  0  0  0  0
  -30.4392  -18.1929   22.4445 H   0  0  0  0  0  0
  -29.0170  -19.2042   22.7107 H   0  0  0  0  0  0
  -28.9123  -15.9809   21.1790 H   0  0  0  0  0  0
  1 25  1  0  0  0
  1 30  2  0  0  0
  1 86  1  0  0  0
  2  3  1  0  0  0
  2 25  1  0  0  0
  2 87  1  0  0  0
  2 88  1  0  0  0
  3  4  1  0  0  0
  3 89  1  0  0  0
  3 90  1  0  0  0
  4  5  1  0  0  0
  4 91  1  0  0  0
  4 92  1  0  0  0
  5  6  1  0  0  0
  5 26  1  0  0  0
  5 93  1  0  0  0
  6 25  1  0  0  0
  6 94  1  0  0  0
  6 95  1  0  0  0
  7  8  2  0  0  0
  7 26  1  0  0  0
  7 29  1  0  0  0
  8  9  1  0  0  0
  8 22  1  0  0  0
  9 10  1  0  0  0
  9 27  2  0  0  0
 10 11  2  0  0  0
 10 15  1  0  0  0
 11 12  1  0  0  0
 11 96  1  0  0  0
 12 13  2  0  0  0
 12 97  1  0  0  0
 13 14  1  0  0  0
 13 31  1  0  0  0
 14 15  2  0  0  0
 14 98  1  0  0  0
 15 99  1  0  0  0
 16 17  2  0  0  0
 16 21  1  0  0  0
 16 31  1  0  0  0
 17 18  1  0  0  0
 17100  1  0  0  0
 18 19  2  0  0  0
 18101  1  0  0  0
 19 20  1  0  0  0
 19 24  1  0  0  0
 20 21  2  0  0  0
 20102  1  0  0  0
 21 23  1  0  0  0
 22 28  1  0  0  0
 22 32  2  0  0  0
 26 27  1  0  0  0
 28103  1  0  0  0
 28104  1  0  0  0
 29105  1  0  0  0
 29106  1  0  0  0
 33 34  1  0  0  0
 33 66  1  0  0  0
 33 70  2  0  0  0
 34 36  1  0  0  0
 34 59  1  0  0  0
 34107  1  0  0  0
 35 44  2  0  0  0
 35 45  1  0  0  0
 35 68  1  0  0  0
 36 56  1  0  0  0
 36108  1  0  0  0
 37 39  1  0  0  0
 37 47  1  0  0  0
 37 66  1  0  0  0
 37109  1  0  0  0
 38 43  2  0  0  0
 38 46  1  0  0  0
 38 47  1  0  0  0
 39 64  1  0  0  0
 39 67  2  0  0  0
 40 52  1  0  0  0
 40 53  2  0  0  0
 40 58  1  0  0  0
 41110  1  0  0  0
 41111  1  0  0  0
 41112  1  0  0  0
 41 48  1  0  0  0
 42 43  1  0  0  0
 42 66  1  0  0  0
 42113  1  0  0  0
 42114  1  0  0  0
 43 44  1  0  0  0
 44115  1  0  0  0
 45 46  2  0  0  0
 45116  1  0  0  0
 46117  1  0  0  0
 47118  1  0  0  0
 47119  1  0  0  0
 48 56  1  0  0  0
 48 65  1  0  0  0
 48120  1  0  0  0
 49 50  1  0  0  0
 49 53  1  0  0  0
 49 64  1  0  0  0
 49121  1  0  0  0
 50 51  1  0  0  0
 50122  1  0  0  0
 50123  1  0  0  0
 51 52  1  0  0  0
 51124  1  0  0  0
 51125  1  0  0  0
 52126  1  0  0  0
 52127  1  0  0  0
 53 54  1  0  0  0
 54 55  2  0  0  0
 54128  1  0  0  0
 55 57  1  0  0  0
 55129  1  0  0  0
 56 69  2  0  0  0
 57 58  2  0  0  0
 57130  1  0  0  0
 58131  1  0  0  0
 59 60  1  0  0  0
 59 61  1  0  0  0
 59 62  1  0  0  0
 60132  1  0  0  0
 60133  1  0  0  0
 60134  1  0  0  0
 61135  1  0  0  0
 61136  1  0  0  0
 61137  1  0  0  0
 62138  1  0  0  0
 62139  1  0  0  0
 62140  1  0  0  0
 63 65  1  0  0  0
 63141  1  0  0  0
 63142  1  0  0  0
 63143  1  0  0  0
 64144  1  0  0  0
 65145  1  0  0  0
 68 82  1  0  0  0
 71 72  2  0  0  0
 71 73  1  0  0  0
 71146  1  0  0  0
 72 75  1  0  0  0
 72147  1  0  0  0
 73 76  2  0  0  0
 73 83  1  0  0  0
 74 75  2  0  0  0
 74 76  1  0  0  0
 74 84  1  0  0  0
 75 85  1  0  0  0
 76 86  1  0  0  0
 77 78  2  0  0  0
 77 79  1  0  0  0
 77 85  1  0  0  0
 78148  1  0  0  0
 78149  1  0  0  0
 79 80  1  0  0  0
 79150  1  0  0  0
 79151  1  0  0  0
 80 82  1  0  0  0
 80152  1  0  0  0
 80153  1  0  0  0
 81 82  1  0  0  0
 81 85  1  0  0  0
 81154  1  0  0  0
 81155  1  0  0  0
 82156  1  0  0  0
 83157  1  0  0  0
 83158  1  0  0  0
 83159  1  0  0  0
 84160  1  0  0  0
 84161  1  0  0  0
 84162  1  0  0  0
 86163  1  0  0  0
M  ISO  4   1 100  68 101  82 101  86 100
M  END
> <chiral flag>
0

> <version>
0

> <s_m_source_file>
/data/baiqing/PycharmProjects/Reinvent-master-3.2/result/LINK_invent/BTK/process_docking_weight1_custom_product_contain_oxygen_bond_distance_aromatic_linkinvent_7_9_3/rearranged_h_0043.sdf

> <i_m_source_file_index>
21

> <r_mmod_Potential_Energy-OPLS-2005>
824.314208984375

> <r_mmod_Stretch_Energy-OPLS-2005>
370.210021972656

> <r_mmod_Bend_Energy-OPLS-2005>
360.495941162109

> <r_mmod_Torsional_Energy-OPLS-2005>
312.187347412109

> <r_mmod_Improper_Torsional_Energy-OPLS-2005>
6.97278213500977

> <r_mmod_Van_der_Waal_Energy-OPLS-2005>
137.484512329102

> <r_mmod_Electrostatic_Energy-OPLS-2005>
-422.385681152344

> <r_mmod_Solvation_Energy-OPLS-2005>
-209.946090698242

> <b_mmod_Minimization_Converged-OPLS-2005>
0

> <r_mmod_RMS_Derivative-OPLS-2005>
4.93001270294189

$$$$
21
                    3D
 Structure written by MMmdl.
165174  0  0  1  0            999 V2000
  -30.5720  -14.6060   20.4536 C   0  0  0  0  0  0
  -30.4409  -12.3667   19.4148 C   0  0  0  0  0  0
  -29.4930  -12.4897   18.1993 C   0  0  0  0  0  0
  -28.0155  -12.3416   18.6206 C   0  0  0  0  0  0
  -27.6580  -13.1937   19.8678 C   0  0  2  0  0  0
  -28.7086  -12.9997   20.9844 C   0  0  0  0  0  0
  -25.2618  -13.8123   20.5663 C   0  0  0  0  0  0
  -24.1874  -13.0425   20.9159 C   0  0  0  0  0  0
  -24.6396  -11.6858   20.8785 C   0  0  0  0  0  0
  -23.9052  -10.4260   21.0455 C   0  0  0  0  0  0
  -24.3624   -9.4162   21.9211 C   0  0  0  0  0  0
  -23.6287   -8.2208   22.0779 C   0  0  0  0  0  0
  -22.4272   -8.0269   21.3549 C   0  0  0  0  0  0
  -21.9900   -9.0248   20.4657 C   0  0  0  0  0  0
  -22.7242  -10.2115   20.3070 C   0  0  0  0  0  0
  -21.6859   -6.0730   22.5262 C   0  0  0  0  0  0
  -21.4015   -6.5634   23.8195 C   0  0  0  0  0  0
  -21.3652   -5.6795   24.9167 C   0  0  0  0  0  0
  -21.6027   -4.3046   24.7226 C   0  0  0  0  0  0
  -21.8834   -3.8141   23.4345 C   0  0  0  0  0  0
  -21.9184   -4.6955   22.3405 C   0  0  0  0  0  0
  -22.7883  -13.5229   21.1841 C   0  0  0  0  0  0
  -22.1656   -4.2141   21.0985 F   0  0  0  0  0  0
  -21.5629   -3.4530   25.7742 F   0  0  0  0  0  0
  -30.0166  -13.3597   20.4165 N   0  0  0  0  0  0
  -26.3020  -12.9255   20.3328 N   0  0  0  0  0  0
  -25.9314  -11.6419   20.5781 N   0  0  0  0  0  0
  -22.0529  -12.8225   22.0397 N   0  0  0  0  0  0
  -25.4330  -15.1865   20.4141 N   0  0  0  0  0  0
  -31.7308  -14.8238   20.0800 O   0  0  0  0  0  0
  -21.6617   -6.8871   21.4233 O   0  0  0  0  0  0
  -22.3549  -14.5532   20.6666 O   0  0  0  0  0  0
  -24.6278  -31.8558   23.2126 C   0  0  0  0  0  0
  -25.9117  -32.4790   23.8428 C   0  0  1  0  0  0
  -27.2151  -27.3207   20.0870 C   0  0  0  0  0  0
  -25.5945  -33.8612   24.2326 N   0  0  0  0  0  0
  -23.4240  -30.4773   21.5479 C   0  0  2  0  0  0
  -24.8743  -28.9405   20.1101 C   0  0  0  0  0  0
  -22.7431  -29.4544   22.4892 C   0  0  0  0  0  0
  -18.0290  -28.1357   22.8445 C   0  0  0  0  0  0
  -24.1424  -36.7261   23.2615 C   0  0  0  0  0  0
  -25.9632  -30.7900   21.3766 C   0  0  0  0  0  0
  -26.0421  -29.4141   20.7192 C   0  0  0  0  0  0
  -27.2234  -28.6121   20.7043 C   0  0  0  0  0  0
  -26.0269  -26.9141   19.4446 C   0  0  0  0  0  0
  -24.8666  -27.6946   19.4676 C   0  0  0  0  0  0
  -23.6433  -29.8163   20.1614 C   0  0  0  0  0  0
  -25.4059  -36.3104   24.0295 C   0  0  1  0  0  0
  -20.5896  -28.3615   23.1309 C   0  0  2  0  0  0
  -20.6768  -26.9299   22.5478 C   0  0  0  0  0  0
  -19.5806  -26.6349   21.5165 C   0  0  0  0  0  0
  -18.1932  -26.7918   22.1528 C   0  0  0  0  0  0
  -19.1547  -28.8779   23.2877 C   0  0  0  0  0  0
  -18.9472  -30.1406   23.8909 C   0  0  0  0  0  0
  -17.6504  -30.6554   24.0563 C   0  0  0  0  0  0
  -25.8981  -34.9479   23.5095 C   0  0  0  0  0  0
  -16.5408  -29.9086   23.6297 C   0  0  0  0  0  0
  -16.7294  -28.6481   23.0320 C   0  0  0  0  0  0
  -26.4518  -31.6647   25.0841 C   0  0  0  0  0  0
  -25.3713  -31.3689   26.1524 C   0  0  0  0  0  0
  -27.0455  -30.3089   24.6396 C   0  0  0  0  0  0
  -27.6016  -32.4471   25.7613 C   0  0  0  0  0  0
  -27.5524  -37.1761   24.8470 C   0  0  0  0  0  0
  -21.4139  -29.2953   22.3644 N   0  0  0  0  0  0
  -26.4244  -37.3791   23.9385 N   0  0  0  0  0  0
  -24.6912  -31.0543   22.1055 N   0  0  0  0  0  0
  -23.4081  -28.8106   23.3028 O   0  0  0  0  0  0
  -28.3040  -26.4441   20.0662 O   0  0  0  0  0  0
  -26.5537  -34.8941   22.4647 O   0  0  0  0  0  0
  -23.5436  -32.1352   23.7443 O   0  0  0  0  0  0
  -29.8089  -19.3939   21.0966 C   0  0  0  0  0  0
  -29.8986  -18.0092   21.3961 C   0  0  0  0  0  0
  -29.2533  -17.4837   19.1333 C   0  0  0  0  0  0
  -29.4214  -19.8800   19.8245 C   0  0  0  0  0  0
  -29.6721  -17.0161   20.4114 C   0  0  0  0  0  0
  -29.1180  -18.8787   18.8470 C   0  0  0  0  0  0
  -28.5139  -22.4370   21.6225 C   0  0  0  0  0  0
  -27.5004  -22.3641   24.9850 C   0  0  0  0  0  0
  -27.7355  -21.6303   22.3810 C   0  0  0  0  0  0
  -27.6603  -21.6638   23.8378 C   0  0  0  0  0  0
  -29.3765  -23.5877   22.1243 C   0  0  0  0  0  0
  -28.6162  -24.9021   21.8983 C   0  0  0  0  0  0
  -28.5457  -23.8284   19.5199 C   0  0  0  0  0  0
  -28.0558  -25.0303   20.4642 C   0  0  2  0  0  0
  -29.4991  -21.4272   19.5121 C   0  0  0  0  0  0
  -29.6941  -15.6052   20.7692 N   0  0  0  0  0  0
  -28.5045  -22.4120   20.1211 N   0  3  1  0  0  0
  -28.5998  -19.3188   17.2591 Cl  0  0  0  0  0  0
  -31.4787  -12.5103   19.1070 H   0  0  0  0  0  0
  -30.3888  -11.3599   19.8307 H   0  0  0  0  0  0
  -29.7427  -11.7308   17.4560 H   0  0  0  0  0  0
  -29.6333  -13.4528   17.7084 H   0  0  0  0  0  0
  -27.8439  -11.2850   18.8293 H   0  0  0  0  0  0
  -27.3569  -12.5925   17.7907 H   0  0  0  0  0  0
  -27.6869  -14.2348   19.5518 H   0  0  0  0  0  0
  -28.7224  -11.9626   21.3234 H   0  0  0  0  0  0
  -28.4709  -13.5972   21.8650 H   0  0  0  0  0  0
  -25.2785   -9.5621   22.4767 H   0  0  0  0  0  0
  -23.9989   -7.4604   22.7506 H   0  0  0  0  0  0
  -21.0822   -8.8775   19.8974 H   0  0  0  0  0  0
  -22.3726  -10.9665   19.6173 H   0  0  0  0  0  0
  -21.2017   -7.6144   23.9703 H   0  0  0  0  0  0
  -21.1462   -6.0521   25.9066 H   0  0  0  0  0  0
  -22.0630   -2.7600   23.2847 H   0  0  0  0  0  0
  -22.4173  -11.9850   22.4706 H   0  0  0  0  0  0
  -21.1160  -13.1262   22.2703 H   0  0  0  0  0  0
  -24.6636  -15.8336   20.5452 H   0  0  0  0  0  0
  -26.2738  -15.6336   20.0758 H   0  0  0  0  0  0
  -26.7187  -32.5477   23.1197 H   0  0  0  0  0  0
  -25.0168  -33.9850   25.0548 H   0  0  0  0  0  0
  -22.7186  -31.2947   21.4006 H   0  0  0  0  0  0
  -23.3716  -35.9561   23.3343 H   0  0  0  0  0  0
  -24.3525  -36.8881   22.2021 H   0  0  0  0  0  0
  -23.7152  -37.6469   23.6613 H   0  0  0  0  0  0
  -26.0634  -31.5496   20.6015 H   0  0  0  0  0  0
  -26.8512  -30.8796   21.9906 H   0  0  0  0  0  0
  -28.1181  -28.9699   21.1947 H   0  0  0  0  0  0
  -25.9879  -25.9727   18.9153 H   0  0  0  0  0  0
  -23.9761  -27.3354   18.9671 H   0  0  0  0  0  0
  -23.7473  -30.5904   19.3982 H   0  0  0  0  0  0
  -22.7666  -29.2384   19.8643 H   0  0  0  0  0  0
  -25.1301  -36.1954   25.0782 H   0  0  0  0  0  0
  -21.0027  -28.3234   24.1387 H   0  0  0  0  0  0
  -20.5511  -26.2305   23.3732 H   0  0  0  0  0  0
  -21.6624  -26.7181   22.1374 H   0  0  0  0  0  0
  -19.6959  -25.6291   21.1123 H   0  0  0  0  0  0
  -19.6794  -27.3213   20.6762 H   0  0  0  0  0  0
  -17.4246  -26.6765   21.3889 H   0  0  0  0  0  0
  -18.0238  -26.0033   22.8893 H   0  0  0  0  0  0
  -19.7948  -30.7194   24.2256 H   0  0  0  0  0  0
  -17.5054  -31.6247   24.5143 H   0  0  0  0  0  0
  -15.5414  -30.3011   23.7617 H   0  0  0  0  0  0
  -15.8712  -28.0788   22.7070 H   0  0  0  0  0  0
  -25.8065  -30.9692   27.0707 H   0  0  0  0  0  0
  -24.6490  -30.6330   25.7993 H   0  0  0  0  0  0
  -24.8191  -32.2682   26.4231 H   0  0  0  0  0  0
  -26.3010  -29.6655   24.1725 H   0  0  0  0  0  0
  -27.4440  -29.7588   25.4945 H   0  0  0  0  0  0
  -27.8812  -30.4300   23.9526 H   0  0  0  0  0  0
  -27.2575  -33.3703   26.2307 H   0  0  0  0  0  0
  -28.3762  -32.7217   25.0451 H   0  0  0  0  0  0
  -28.0774  -31.8602   26.5443 H   0  0  0  0  0  0
  -28.2584  -38.0047   24.7506 H   0  0  0  0  0  0
  -28.1027  -36.2581   24.6336 H   0  0  0  0  0  0
  -27.2249  -37.1421   25.8889 H   0  0  0  0  0  0
  -20.9186  -29.8741   21.7004 H   0  0  0  0  0  0
  -26.0164  -38.2877   24.1424 H   0  0  0  0  0  0
  -30.0620  -20.1028   21.8727 H   0  0  0  0  0  0
  -30.1426  -17.7143   22.4093 H   0  0  0  0  0  0
  -29.0133  -16.7676   18.3592 H   0  0  0  0  0  0
  -27.1651  -23.3964   25.0946 H   0  0  0  0  0  0
  -27.7408  -21.8761   25.9167 H   0  0  0  0  0  0
  -27.1066  -20.8997   21.8900 H   0  0  0  0  0  0
  -27.1011  -22.5216   23.4902 H   0  0  0  0  0  0
  -30.3262  -23.6044   21.5890 H   0  0  0  0  0  0
  -29.6303  -23.4616   23.1749 H   0  0  0  0  0  0
  -29.2370  -25.7613   22.1536 H   0  0  0  0  0  0
  -27.7803  -24.9356   22.6005 H   0  0  0  0  0  0
  -27.9330  -23.8243   18.6183 H   0  0  0  0  0  0
  -29.5591  -24.0359   19.1896 H   0  0  0  0  0  0
  -26.9824  -24.8571   20.5549 H   0  0  0  0  0  0
  -29.5385  -21.5773   18.4314 H   0  0  0  0  0  0
  -30.4939  -21.7382   19.8365 H   0  0  0  0  0  0
  -28.8226  -15.2451   21.1324 H   0  0  0  0  0  0
  -27.6096  -22.0384   19.8433 H   0  0  0  0  0  0
  1 25  1  0  0  0
  1 30  2  0  0  0
  1 86  1  0  0  0
  2  3  1  0  0  0
  2 25  1  0  0  0
  2 89  1  0  0  0
  2 90  1  0  0  0
  3  4  1  0  0  0
  3 91  1  0  0  0
  3 92  1  0  0  0
  4  5  1  0  0  0
  4 93  1  0  0  0
  4 94  1  0  0  0
  5  6  1  0  0  0
  5 26  1  0  0  0
  5 95  1  0  0  0
  6 25  1  0  0  0
  6 96  1  0  0  0
  6 97  1  0  0  0
  7  8  2  0  0  0
  7 26  1  0  0  0
  7 29  1  0  0  0
  8  9  1  0  0  0
  8 22  1  0  0  0
  9 10  1  0  0  0
  9 27  2  0  0  0
 10 11  2  0  0  0
 10 15  1  0  0  0
 11 12  1  0  0  0
 11 98  1  0  0  0
 12 13  2  0  0  0
 12 99  1  0  0  0
 13 14  1  0  0  0
 13 31  1  0  0  0
 14 15  2  0  0  0
 14100  1  0  0  0
 15101  1  0  0  0
 16 17  2  0  0  0
 16 21  1  0  0  0
 16 31  1  0  0  0
 17 18  1  0  0  0
 17102  1  0  0  0
 18 19  2  0  0  0
 18103  1  0  0  0
 19 20  1  0  0  0
 19 24  1  0  0  0
 20 21  2  0  0  0
 20104  1  0  0  0
 21 23  1  0  0  0
 22 28  1  0  0  0
 22 32  2  0  0  0
 26 27  1  0  0  0
 28105  1  0  0  0
 28106  1  0  0  0
 29107  1  0  0  0
 29108  1  0  0  0
 33 34  1  0  0  0
 33 66  1  0  0  0
 33 70  2  0  0  0
 34 36  1  0  0  0
 34 59  1  0  0  0
 34109  1  0  0  0
 35 44  2  0  0  0
 35 45  1  0  0  0
 35 68  1  0  0  0
 36 56  1  0  0  0
 36110  1  0  0  0
 37 39  1  0  0  0
 37 47  1  0  0  0
 37 66  1  0  0  0
 37111  1  0  0  0
 38 43  2  0  0  0
 38 46  1  0  0  0
 38 47  1  0  0  0
 39 64  1  0  0  0
 39 67  2  0  0  0
 40 52  1  0  0  0
 40 53  2  0  0  0
 40 58  1  0  0  0
 41112  1  0  0  0
 41113  1  0  0  0
 41114  1  0  0  0
 41 48  1  0  0  0
 42 43  1  0  0  0
 42 66  1  0  0  0
 42115  1  0  0  0
 42116  1  0  0  0
 43 44  1  0  0  0
 44117  1  0  0  0
 45 46  2  0  0  0
 45118  1  0  0  0
 46119  1  0  0  0
 47120  1  0  0  0
 47121  1  0  0  0
 48 56  1  0  0  0
 48 65  1  0  0  0
 48122  1  0  0  0
 49 50  1  0  0  0
 49 53  1  0  0  0
 49 64  1  0  0  0
 49123  1  0  0  0
 50 51  1  0  0  0
 50124  1  0  0  0
 50125  1  0  0  0
 51 52  1  0  0  0
 51126  1  0  0  0
 51127  1  0  0  0
 52128  1  0  0  0
 52129  1  0  0  0
 53 54  1  0  0  0
 54 55  2  0  0  0
 54130  1  0  0  0
 55 57  1  0  0  0
 55131  1  0  0  0
 56 69  2  0  0  0
 57 58  2  0  0  0
 57132  1  0  0  0
 58133  1  0  0  0
 59 60  1  0  0  0
 59 61  1  0  0  0
 59 62  1  0  0  0
 60134  1  0  0  0
 60135  1  0  0  0
 60136  1  0  0  0
 61137  1  0  0  0
 61138  1  0  0  0
 61139  1  0  0  0
 62140  1  0  0  0
 62141  1  0  0  0
 62142  1  0  0  0
 63 65  1  0  0  0
 63143  1  0  0  0
 63144  1  0  0  0
 63145  1  0  0  0
 64146  1  0  0  0
 65147  1  0  0  0
 68 84  1  0  0  0
 71 72  2  0  0  0
 71 74  1  0  0  0
 71148  1  0  0  0
 72 75  1  0  0  0
 72149  1  0  0  0
 73 75  2  0  0  0
 73 76  1  0  0  0
 73150  1  0  0  0
 74 76  2  0  0  0
 74 85  1  0  0  0
 75 86  1  0  0  0
 76 88  1  0  0  0
 77 79  2  0  0  0
 77 81  1  0  0  0
 77 87  1  0  0  0
 78 80  2  0  0  0
 78151  1  0  0  0
 78152  1  0  0  0
 79 80  1  0  0  0
 79153  1  0  0  0
 80154  1  0  0  0
 81 82  1  0  0  0
 81155  1  0  0  0
 81156  1  0  0  0
 82 84  1  0  0  0
 82157  1  0  0  0
 82158  1  0  0  0
 83 84  1  0  0  0
 83 87  1  0  0  0
 83159  1  0  0  0
 83160  1  0  0  0
 84161  1  0  0  0
 85162  1  0  0  0
 85163  1  0  0  0
 85 87  1  0  0  0
 86164  1  0  0  0
 87165  1  0  0  0
M  CHG  1  87   1
M  ISO  4   1 100  68 101  84 101  86 100
M  END
> <chiral flag>
0

> <version>
0

> <s_m_source_file>
/data/baiqing/PycharmProjects/Reinvent-master-3.2/result/LINK_invent/BTK/process_docking_weight1_custom_product_contain_oxygen_bond_distance_aromatic_linkinvent_7_9_3/rearranged_h_0043.sdf

> <i_m_source_file_index>
22

> <r_mmod_Potential_Energy-OPLS-2005>
304.440490722656

> <r_mmod_Stretch_Energy-OPLS-2005>
86.2680892944336

> <r_mmod_Bend_Energy-OPLS-2005>
380.377685546875

> <r_mmod_Torsional_Energy-OPLS-2005>
318.472900390625

> <r_mmod_Improper_Torsional_Energy-OPLS-2005>
12.1071548461914

> <r_mmod_Van_der_Waal_Energy-OPLS-2005>
155.107025146484

> <r_mmod_Electrostatic_Energy-OPLS-2005>
-259.352020263672

> <r_mmod_Solvation_Energy-OPLS-2005>
-436.728942871094

> <b_mmod_Minimization_Converged-OPLS-2005>
0

> <r_mmod_RMS_Derivative-OPLS-2005>
8.46129894256592

$$$$
22
                    3D
 Structure written by MMmdl.
151159  0  0  1  0            999 V2000
  -30.6084  -14.6551   20.5124 C   0  0  0  0  0  0
  -30.4381  -12.4059   19.4552 C   0  0  0  0  0  0
  -29.5130  -12.5297   18.2233 C   0  0  0  0  0  0
  -28.0343  -12.3554   18.6287 C   0  0  0  0  0  0
  -27.6527  -13.2157   19.8622 C   0  0  2  0  0  0
  -28.6938  -13.0704   20.9947 C   0  0  0  0  0  0
  -25.2575  -13.8162   20.5668 C   0  0  0  0  0  0
  -24.1836  -13.0433   20.9185 C   0  0  0  0  0  0
  -24.6398  -11.6888   20.8719 C   0  0  0  0  0  0
  -23.9067  -10.4277   21.0386 C   0  0  0  0  0  0
  -24.3624   -9.4201   21.9169 C   0  0  0  0  0  0
  -23.6296   -8.2250   22.0754 C   0  0  0  0  0  0
  -22.4291   -8.0282   21.3533 C   0  0  0  0  0  0
  -21.9909   -9.0259   20.4638 C   0  0  0  0  0  0
  -22.7243  -10.2130   20.3029 C   0  0  0  0  0  0
  -21.6865   -6.0736   22.5276 C   0  0  0  0  0  0
  -21.4021   -6.5636   23.8215 C   0  0  0  0  0  0
  -21.3672   -5.6778   24.9173 C   0  0  0  0  0  0
  -21.6053   -4.3046   24.7221 C   0  0  0  0  0  0
  -21.8831   -3.8138   23.4344 C   0  0  0  0  0  0
  -21.9197   -4.6959   22.3393 C   0  0  0  0  0  0
  -22.7859  -13.5238   21.1846 C   0  0  0  0  0  0
  -22.1664   -4.2138   21.0975 F   0  0  0  0  0  0
  -21.5633   -3.4538   25.7738 F   0  0  0  0  0  0
  -30.0079  -13.4241   20.4358 N   0  0  0  0  0  0
  -26.2991  -12.9329   20.3283 N   0  0  0  0  0  0
  -25.9322  -11.6483   20.5695 N   0  0  0  0  0  0
  -22.0510  -12.8211   22.0389 N   0  0  0  0  0  0
  -25.4303  -15.1893   20.4092 N   0  0  0  0  0  0
  -31.7733  -14.8155   20.1370 O   0  0  0  0  0  0
  -21.6656   -6.8877   21.4238 O   0  0  0  0  0  0
  -22.3530  -14.5548   20.6691 O   0  0  0  0  0  0
  -24.6264  -31.8606   23.2054 C   0  0  0  0  0  0
  -25.9111  -32.4778   23.8372 C   0  0  1  0  0  0
  -27.2181  -27.3157   20.1303 C   0  0  0  0  0  0
  -25.5934  -33.8577   24.2301 N   0  0  0  0  0  0
  -23.4190  -30.4872   21.5478 C   0  0  2  0  0  0
  -24.8643  -28.9437   20.1110 C   0  0  0  0  0  0
  -22.7472  -29.4634   22.4935 C   0  0  0  0  0  0
  -18.0289  -28.1386   22.8493 C   0  0  0  0  0  0
  -24.1492  -36.7296   23.2639 C   0  0  0  0  0  0
  -25.9610  -30.7906   21.3779 C   0  0  0  0  0  0
  -26.0332  -29.4182   20.7205 C   0  0  0  0  0  0
  -27.2140  -28.6167   20.7202 C   0  0  0  0  0  0
  -26.0319  -26.9040   19.4816 C   0  0  0  0  0  0
  -24.8669  -27.6917   19.4796 C   0  0  0  0  0  0
  -23.6330  -29.8252   20.1610 C   0  0  0  0  0  0
  -25.4118  -36.3085   24.0334 C   0  0  1  0  0  0
  -20.5888  -28.3687   23.1281 C   0  0  2  0  0  0
  -20.6778  -26.9414   22.5403 C   0  0  0  0  0  0
  -19.5754  -26.6385   21.5210 C   0  0  0  0  0  0
  -18.1932  -26.7930   22.1619 C   0  0  0  0  0  0
  -19.1540  -28.8858   23.2880 C   0  0  0  0  0  0
  -18.9463  -30.1456   23.8894 C   0  0  0  0  0  0
  -17.6462  -30.6588   24.0568 C   0  0  0  0  0  0
  -25.9058  -34.9449   23.5116 C   0  0  0  0  0  0
  -16.5351  -29.9076   23.6332 C   0  0  0  0  0  0
  -16.7279  -28.6493   23.0357 C   0  0  0  0  0  0
  -26.4498  -31.6569   25.0731 C   0  0  0  0  0  0
  -25.3736  -31.3703   26.1460 C   0  0  0  0  0  0
  -27.0330  -30.2987   24.6187 C   0  0  0  0  0  0
  -27.6067  -32.4290   25.7497 C   0  0  0  0  0  0
  -27.5588  -37.1805   24.8466 C   0  0  0  0  0  0
  -21.4187  -29.3051   22.3669 N   0  0  0  0  0  0
  -26.4298  -37.3778   23.9408 N   0  0  0  0  0  0
  -24.6869  -31.0636   22.0997 N   0  0  0  0  0  0
  -23.4185  -28.8180   23.3021 O   0  0  0  0  0  0
  -28.3216  -26.4501   20.1840 O   0  0  0  0  0  0
  -26.5613  -34.8913   22.4677 O   0  0  0  0  0  0
  -23.5428  -32.1402   23.7384 O   0  0  0  0  0  0
  -28.8029  -19.4159   20.9558 C   0  0  0  0  0  0
  -31.1491  -19.2837   20.4615 C   0  0  0  0  0  0
  -28.7574  -17.9844   21.0011 C   0  0  0  0  0  0
  -31.1029  -17.8604   20.4995 C   0  0  0  0  0  0
  -30.0104  -20.1086   20.6831 C   0  0  0  0  0  0
  -29.9019  -17.1611   20.7731 C   0  0  0  0  0  0
  -29.2568  -24.0291   20.4332 C   0  0  0  0  0  0
  -30.2057  -21.6742   20.6531 C   0  0  0  0  0  0
  -28.0307  -25.0194   20.4774 C   0  0  0  0  0  0
  -29.7788  -15.6994   20.8483 N   0  0  0  0  0  0
  -29.0878  -22.6762   20.6170 N   0  0  0  0  0  0
  -30.3813  -24.4984   20.2346 O   0  0  0  0  0  0
  -31.4811  -12.5359   19.1599 H   0  0  0  0  0  0
  -30.3697  -11.4064   19.8862 H   0  0  0  0  0  0
  -29.7842  -11.7944   17.4662 H   0  0  0  0  0  0
  -29.6542  -13.5087   17.7600 H   0  0  0  0  0  0
  -27.8717  -11.2983   18.8418 H   0  0  0  0  0  0
  -27.3848  -12.5965   17.7861 H   0  0  0  0  0  0
  -27.6682  -14.2536   19.5267 H   0  0  0  0  0  0
  -28.7090  -12.0470   21.3741 H   0  0  0  0  0  0
  -28.4291  -13.6974   21.8482 H   0  0  0  0  0  0
  -25.2772   -9.5698   22.4733 H   0  0  0  0  0  0
  -24.0023   -7.4645   22.7463 H   0  0  0  0  0  0
  -21.0863   -8.8765   19.8933 H   0  0  0  0  0  0
  -22.3701  -10.9670   19.6138 H   0  0  0  0  0  0
  -21.2005   -7.6144   23.9711 H   0  0  0  0  0  0
  -21.1489   -6.0514   25.9080 H   0  0  0  0  0  0
  -22.0591   -2.7593   23.2853 H   0  0  0  0  0  0
  -22.4134  -11.9892   22.4803 H   0  0  0  0  0  0
  -21.1123  -13.1206   22.2571 H   0  0  0  0  0  0
  -24.6598  -15.8416   20.5084 H   0  0  0  0  0  0
  -26.2706  -15.6270   20.0538 H   0  0  0  0  0  0
  -26.7185  -32.5448   23.1122 H   0  0  0  0  0  0
  -25.0105  -33.9722   25.0456 H   0  0  0  0  0  0
  -22.7136  -31.3084   21.4075 H   0  0  0  0  0  0
  -23.3749  -35.9631   23.3306 H   0  0  0  0  0  0
  -24.3588  -36.8905   22.2051 H   0  0  0  0  0  0
  -23.7244  -37.6503   23.6651 H   0  0  0  0  0  0
  -26.0963  -31.5539   20.6098 H   0  0  0  0  0  0
  -26.8393  -30.8363   22.0094 H   0  0  0  0  0  0
  -28.1073  -28.9749   21.2114 H   0  0  0  0  0  0
  -25.9751  -25.9603   18.9630 H   0  0  0  0  0  0
  -23.9764  -27.3278   18.9853 H   0  0  0  0  0  0
  -23.7520  -30.6050   19.4079 H   0  0  0  0  0  0
  -22.7513  -29.2581   19.8570 H   0  0  0  0  0  0
  -25.1300  -36.1950   25.0827 H   0  0  0  0  0  0
  -20.9991  -28.3267   24.1393 H   0  0  0  0  0  0
  -20.5695  -26.2301   23.3606 H   0  0  0  0  0  0
  -21.6647  -26.7452   22.1186 H   0  0  0  0  0  0
  -19.6916  -25.6293   21.1245 H   0  0  0  0  0  0
  -19.6691  -27.3196   20.6744 H   0  0  0  0  0  0
  -17.4203  -26.6685   21.4020 H   0  0  0  0  0  0
  -18.0331  -26.0066   22.9017 H   0  0  0  0  0  0
  -19.7934  -30.7283   24.2259 H   0  0  0  0  0  0
  -17.5007  -31.6269   24.5162 H   0  0  0  0  0  0
  -15.5347  -30.2978   23.7666 H   0  0  0  0  0  0
  -15.8677  -28.0818   22.7071 H   0  0  0  0  0  0
  -24.5902  -30.7066   25.7783 H   0  0  0  0  0  0
  -24.8931  -32.2864   26.4919 H   0  0  0  0  0  0
  -25.8053  -30.8848   27.0221 H   0  0  0  0  0  0
  -26.2888  -29.6742   24.1228 H   0  0  0  0  0  0
  -27.4034  -29.7254   25.4700 H   0  0  0  0  0  0
  -27.8771  -30.4276   23.9402 H   0  0  0  0  0  0
  -27.2706  -33.3593   26.2091 H   0  0  0  0  0  0
  -28.3872  -32.6840   25.0316 H   0  0  0  0  0  0
  -28.0744  -31.8398   26.5396 H   0  0  0  0  0  0
  -28.2604  -38.0107   24.7514 H   0  0  0  0  0  0
  -28.1083  -36.2630   24.6288 H   0  0  0  0  0  0
  -27.2302  -37.1459   25.8870 H   0  0  0  0  0  0
  -20.9360  -29.8749   21.6861 H   0  0  0  0  0  0
  -26.0183  -38.2858   24.1387 H   0  0  0  0  0  0
  -27.8995  -19.9747   21.1522 H   0  0  0  0  0  0
  -32.1007  -19.7563   20.2633 H   0  0  0  0  0  0
  -27.8059  -17.5194   21.2190 H   0  0  0  0  0  0
  -32.0166  -17.3128   20.3192 H   0  0  0  0  0  0
  -30.8422  -21.8794   19.7905 H   0  0  0  0  0  0
  -30.8194  -21.9233   21.5215 H   0  0  0  0  0  0
  -27.6035  -24.9659   21.4799 H   0  0  0  0  0  0
  -27.2893  -24.5971   19.8032 H   0  0  0  0  0  0
  -28.8583  -15.3756   21.1041 H   0  0  0  0  0  0
  -28.1516  -22.3333   20.7904 H   0  0  0  0  0  0
  1 25  1  0  0  0
  1 30  2  0  0  0
  1 80  1  0  0  0
  2  3  1  0  0  0
  2 25  1  0  0  0
  2 83  1  0  0  0
  2 84  1  0  0  0
  3  4  1  0  0  0
  3 85  1  0  0  0
  3 86  1  0  0  0
  4  5  1  0  0  0
  4 87  1  0  0  0
  4 88  1  0  0  0
  5  6  1  0  0  0
  5 26  1  0  0  0
  5 89  1  0  0  0
  6 25  1  0  0  0
  6 90  1  0  0  0
  6 91  1  0  0  0
  7  8  2  0  0  0
  7 26  1  0  0  0
  7 29  1  0  0  0
  8  9  1  0  0  0
  8 22  1  0  0  0
  9 10  1  0  0  0
  9 27  2  0  0  0
 10 11  2  0  0  0
 10 15  1  0  0  0
 11 12  1  0  0  0
 11 92  1  0  0  0
 12 13  2  0  0  0
 12 93  1  0  0  0
 13 14  1  0  0  0
 13 31  1  0  0  0
 14 15  2  0  0  0
 14 94  1  0  0  0
 15 95  1  0  0  0
 16 17  2  0  0  0
 16 21  1  0  0  0
 16 31  1  0  0  0
 17 18  1  0  0  0
 17 96  1  0  0  0
 18 19  2  0  0  0
 18 97  1  0  0  0
 19 20  1  0  0  0
 19 24  1  0  0  0
 20 21  2  0  0  0
 20 98  1  0  0  0
 21 23  1  0  0  0
 22 28  1  0  0  0
 22 32  2  0  0  0
 26 27  1  0  0  0
 28 99  1  0  0  0
 28100  1  0  0  0
 29101  1  0  0  0
 29102  1  0  0  0
 33 34  1  0  0  0
 33 66  1  0  0  0
 33 70  2  0  0  0
 34 36  1  0  0  0
 34 59  1  0  0  0
 34103  1  0  0  0
 35 44  2  0  0  0
 35 45  1  0  0  0
 35 68  1  0  0  0
 36 56  1  0  0  0
 36104  1  0  0  0
 37 39  1  0  0  0
 37 47  1  0  0  0
 37 66  1  0  0  0
 37105  1  0  0  0
 38 43  2  0  0  0
 38 46  1  0  0  0
 38 47  1  0  0  0
 39 64  1  0  0  0
 39 67  2  0  0  0
 40 52  1  0  0  0
 40 53  2  0  0  0
 40 58  1  0  0  0
 41106  1  0  0  0
 41107  1  0  0  0
 41108  1  0  0  0
 41 48  1  0  0  0
 42 43  1  0  0  0
 42 66  1  0  0  0
 42109  1  0  0  0
 42110  1  0  0  0
 43 44  1  0  0  0
 44111  1  0  0  0
 45 46  2  0  0  0
 45112  1  0  0  0
 46113  1  0  0  0
 47114  1  0  0  0
 47115  1  0  0  0
 48 56  1  0  0  0
 48 65  1  0  0  0
 48116  1  0  0  0
 49 50  1  0  0  0
 49 53  1  0  0  0
 49 64  1  0  0  0
 49117  1  0  0  0
 50 51  1  0  0  0
 50118  1  0  0  0
 50119  1  0  0  0
 51 52  1  0  0  0
 51120  1  0  0  0
 51121  1  0  0  0
 52122  1  0  0  0
 52123  1  0  0  0
 53 54  1  0  0  0
 54 55  2  0  0  0
 54124  1  0  0  0
 55 57  1  0  0  0
 55125  1  0  0  0
 56 69  2  0  0  0
 57 58  2  0  0  0
 57126  1  0  0  0
 58127  1  0  0  0
 59 60  1  0  0  0
 59 61  1  0  0  0
 59 62  1  0  0  0
 60128  1  0  0  0
 60129  1  0  0  0
 60130  1  0  0  0
 61131  1  0  0  0
 61132  1  0  0  0
 61133  1  0  0  0
 62134  1  0  0  0
 62135  1  0  0  0
 62136  1  0  0  0
 63 65  1  0  0  0
 63137  1  0  0  0
 63138  1  0  0  0
 63139  1  0  0  0
 64140  1  0  0  0
 65141  1  0  0  0
 68 79  1  0  0  0
 71 73  2  0  0  0
 71 75  1  0  0  0
 71142  1  0  0  0
 72 74  1  0  0  0
 72 75  2  0  0  0
 72143  1  0  0  0
 73 76  1  0  0  0
 73144  1  0  0  0
 74 76  2  0  0  0
 74145  1  0  0  0
 75 78  1  0  0  0
 76 80  1  0  0  0
 77 79  1  0  0  0
 77 81  1  0  0  0
 77 82  2  0  0  0
 78 81  1  0  0  0
 78146  1  0  0  0
 78147  1  0  0  0
 79148  1  0  0  0
 79149  1  0  0  0
 80150  1  0  0  0
 81151  1  0  0  0
M  ISO  4   1 100  68 101  79 101  80 100
M  END
> <chiral flag>
0

> <version>
0

> <s_m_source_file>
/data/baiqing/PycharmProjects/Reinvent-master-3.2/result/LINK_invent/BTK/process_docking_weight1_custom_product_contain_oxygen_bond_distance_aromatic_linkinvent_7_9_3/rearranged_h_0043.sdf

> <i_m_source_file_index>
23

> <r_mmod_Potential_Energy-OPLS-2005>
-10.758228302002

> <r_mmod_Stretch_Energy-OPLS-2005>
80.0377807617188

> <r_mmod_Bend_Energy-OPLS-2005>
141.744247436523

> <r_mmod_Torsional_Energy-OPLS-2005>
213.916030883789

> <r_mmod_Improper_Torsional_Energy-OPLS-2005>
4.45218467712402

> <r_mmod_Van_der_Waal_Energy-OPLS-2005>
144.756072998047

> <r_mmod_Electrostatic_Energy-OPLS-2005>
-400.868408203125

> <r_mmod_Solvation_Energy-OPLS-2005>
-247.765075683594

> <b_mmod_Minimization_Converged-OPLS-2005>
0

> <r_mmod_RMS_Derivative-OPLS-2005>
2.93701672554016

$$$$
23
                    3D
 Structure written by MMmdl.
160168  0  0  1  0            999 V2000
  -30.6466  -14.5299   20.6201 C   0  0  0  0  0  0
  -30.4510  -12.3606   19.4158 C   0  0  0  0  0  0
  -29.5072  -12.5366   18.2060 C   0  0  0  0  0  0
  -28.0267  -12.3812   18.6149 C   0  0  0  0  0  0
  -27.6701  -13.2038   19.8809 C   0  0  2  0  0  0
  -28.7111  -12.9489   20.9915 C   0  0  0  0  0  0
  -25.2650  -13.8142   20.5704 C   0  0  0  0  0  0
  -24.1882  -13.0427   20.9160 C   0  0  0  0  0  0
  -24.6418  -11.6890   20.8697 C   0  0  0  0  0  0
  -23.9071  -10.4287   21.0381 C   0  0  0  0  0  0
  -24.3613   -9.4213   21.9173 C   0  0  0  0  0  0
  -23.6292   -8.2250   22.0754 C   0  0  0  0  0  0
  -22.4274   -8.0282   21.3545 C   0  0  0  0  0  0
  -21.9902   -9.0255   20.4650 C   0  0  0  0  0  0
  -22.7228  -10.2131   20.3051 C   0  0  0  0  0  0
  -21.6859   -6.0735   22.5283 C   0  0  0  0  0  0
  -21.4014   -6.5638   23.8215 C   0  0  0  0  0  0
  -21.3663   -5.6791   24.9178 C   0  0  0  0  0  0
  -21.6040   -4.3050   24.7225 C   0  0  0  0  0  0
  -21.8820   -3.8144   23.4346 C   0  0  0  0  0  0
  -21.9201   -4.6962   22.3405 C   0  0  0  0  0  0
  -22.7906  -13.5241   21.1827 C   0  0  0  0  0  0
  -22.1668   -4.2149   21.0984 F   0  0  0  0  0  0
  -21.5627   -3.4534   25.7735 F   0  0  0  0  0  0
  -30.0435  -13.3125   20.4627 N   0  0  0  0  0  0
  -26.3083  -12.9302   20.3374 N   0  0  0  0  0  0
  -25.9347  -11.6459   20.5712 N   0  0  0  0  0  0
  -22.0535  -12.8258   22.0390 N   0  0  0  0  0  0
  -25.4389  -15.1862   20.4209 N   0  0  0  0  0  0
  -31.6991  -14.8368   20.0498 O   0  0  0  0  0  0
  -21.6648   -6.8874   21.4242 O   0  0  0  0  0  0
  -22.3593  -14.5544   20.6663 O   0  0  0  0  0  0
  -24.6215  -31.8633   23.2062 C   0  0  0  0  0  0
  -25.9085  -32.4794   23.8366 C   0  0  1  0  0  0
  -27.2326  -27.3712   20.0898 C   0  0  0  0  0  0
  -25.5909  -33.8593   24.2286 N   0  0  0  0  0  0
  -23.4115  -30.4888   21.5495 C   0  0  2  0  0  0
  -24.8561  -28.9508   20.1127 C   0  0  0  0  0  0
  -22.7442  -29.4646   22.4971 C   0  0  0  0  0  0
  -18.0274  -28.1375   22.8489 C   0  0  0  0  0  0
  -24.1484  -36.7312   23.2637 C   0  0  0  0  0  0
  -25.9487  -30.8083   21.3703 C   0  0  0  0  0  0
  -26.0236  -29.4403   20.7107 C   0  0  0  0  0  0
  -27.2126  -28.6603   20.6937 C   0  0  0  0  0  0
  -26.0378  -26.9242   19.4733 C   0  0  0  0  0  0
  -24.8614  -27.6936   19.4911 C   0  0  0  0  0  0
  -23.6218  -29.8243   20.1645 C   0  0  0  0  0  0
  -25.4107  -36.3099   24.0331 C   0  0  1  0  0  0
  -20.5870  -28.3671   23.1297 C   0  0  2  0  0  0
  -20.6760  -26.9402   22.5411 C   0  0  0  0  0  0
  -19.5740  -26.6381   21.5208 C   0  0  0  0  0  0
  -18.1922  -26.7916   22.1626 C   0  0  0  0  0  0
  -19.1528  -28.8841   23.2887 C   0  0  0  0  0  0
  -18.9457  -30.1446   23.8896 C   0  0  0  0  0  0
  -17.6462  -30.6583   24.0565 C   0  0  0  0  0  0
  -25.9042  -34.9463   23.5112 C   0  0  0  0  0  0
  -16.5348  -29.9086   23.6331 C   0  0  0  0  0  0
  -16.7264  -28.6503   23.0347 C   0  0  0  0  0  0
  -26.4473  -31.6592   25.0727 C   0  0  0  0  0  0
  -25.3721  -31.3738   26.1470 C   0  0  0  0  0  0
  -27.0300  -30.3013   24.6168 C   0  0  0  0  0  0
  -27.6026  -32.4327   25.7503 C   0  0  0  0  0  0
  -27.5578  -37.1813   24.8465 C   0  0  0  0  0  0
  -21.4164  -29.3038   22.3708 N   0  0  0  0  0  0
  -26.4289  -37.3792   23.9410 N   0  0  0  0  0  0
  -24.6793  -31.0684   22.0994 N   0  0  0  0  0  0
  -23.4188  -28.8187   23.3036 O   0  0  0  0  0  0
  -28.3803  -26.5726   20.1242 O   0  0  0  0  0  0
  -26.5621  -34.8927   22.4683 O   0  0  0  0  0  0
  -23.5395  -32.1412   23.7426 O   0  0  0  0  0  0
  -28.6620  -18.4033   23.0778 C   0  0  0  0  0  0
  -30.0527  -17.7955   20.7248 C   0  0  0  0  0  0
  -28.8843  -19.4263   22.1390 C   0  0  0  0  0  0
  -29.0929  -17.0867   22.8528 C   0  0  0  0  0  0
  -29.6183  -19.1509   20.9486 C   0  0  0  0  0  0
  -29.7758  -16.7467   21.6601 C   0  0  0  0  0  0
  -29.1917  -22.6924   19.6806 C   0  0  0  0  0  0
  -28.2655  -20.7787   22.4609 C   0  0  0  0  0  0
  -28.7717  -16.0398   23.9106 C   0  0  0  0  0  0
  -29.8848  -20.2363   19.8595 C   0  0  0  0  0  0
  -29.3951  -24.1666   20.1676 C   0  0  0  0  0  0
  -28.2420  -25.1593   19.7680 C   0  0  0  0  0  0
  -30.0104  -15.3304   21.5029 N   0  0  0  0  0  0
  -29.9152  -21.6830   20.2331 N   0  0  0  0  0  0
  -28.3723  -22.4655   18.7887 O   0  0  0  0  0  0
  -31.4896  -12.5092   19.1141 H   0  0  0  0  0  0
  -30.3961  -11.3403   19.7991 H   0  0  0  0  0  0
  -29.7580  -11.8158   17.4268 H   0  0  0  0  0  0
  -29.6599  -13.5244   17.7670 H   0  0  0  0  0  0
  -27.8398  -11.3222   18.7963 H   0  0  0  0  0  0
  -27.3777  -12.6669   17.7865 H   0  0  0  0  0  0
  -27.7219  -14.2584   19.6074 H   0  0  0  0  0  0
  -28.7067  -11.8941   21.2716 H   0  0  0  0  0  0
  -28.4362  -13.4789   21.9031 H   0  0  0  0  0  0
  -25.2754   -9.5700   22.4747 H   0  0  0  0  0  0
  -24.0008   -7.4642   22.7469 H   0  0  0  0  0  0
  -21.0832   -8.8769   19.8953 H   0  0  0  0  0  0
  -22.3684  -10.9674   19.6166 H   0  0  0  0  0  0
  -21.2004   -7.6145   23.9718 H   0  0  0  0  0  0
  -21.1487   -6.0520   25.9082 H   0  0  0  0  0  0
  -22.0599   -2.7604   23.2847 H   0  0  0  0  0  0
  -22.4131  -11.9918   22.4791 H   0  0  0  0  0  0
  -21.1143  -13.1284   22.2553 H   0  0  0  0  0  0
  -24.6800  -15.8436   20.5608 H   0  0  0  0  0  0
  -26.3066  -15.6336   20.1521 H   0  0  0  0  0  0
  -26.7154  -32.5475   23.1118 H   0  0  0  0  0  0
  -25.0030  -33.9732   25.0413 H   0  0  0  0  0  0
  -22.7042  -31.3090   21.4097 H   0  0  0  0  0  0
  -23.3739  -35.9653   23.3308 H   0  0  0  0  0  0
  -24.3575  -36.8924   22.2051 H   0  0  0  0  0  0
  -23.7241  -37.6522   23.6648 H   0  0  0  0  0  0
  -26.0732  -31.5760   20.6054 H   0  0  0  0  0  0
  -26.8314  -30.8540   21.9967 H   0  0  0  0  0  0
  -28.1104  -29.0366   21.1636 H   0  0  0  0  0  0
  -25.9795  -25.9711   18.9696 H   0  0  0  0  0  0
  -23.9654  -27.3118   19.0204 H   0  0  0  0  0  0
  -23.7328  -30.5995   19.4057 H   0  0  0  0  0  0
  -22.7436  -29.2486   19.8671 H   0  0  0  0  0  0
  -25.1283  -36.1958   25.0824 H   0  0  0  0  0  0
  -20.9945  -28.3230   24.1423 H   0  0  0  0  0  0
  -20.5651  -26.2282   23.3605 H   0  0  0  0  0  0
  -21.6631  -26.7436   22.1211 H   0  0  0  0  0  0
  -19.6900  -25.6293   21.1236 H   0  0  0  0  0  0
  -19.6673  -27.3193   20.6738 H   0  0  0  0  0  0
  -17.4189  -26.6654   21.4036 H   0  0  0  0  0  0
  -18.0338  -26.0051   22.9019 H   0  0  0  0  0  0
  -19.7938  -30.7257   24.2260 H   0  0  0  0  0  0
  -17.5024  -31.6265   24.5163 H   0  0  0  0  0  0
  -15.5352  -30.2994   23.7652 H   0  0  0  0  0  0
  -15.8660  -28.0831   22.7051 H   0  0  0  0  0  0
  -24.5888  -30.7082   25.7827 H   0  0  0  0  0  0
  -24.8924  -32.2909   26.4898 H   0  0  0  0  0  0
  -25.8063  -30.8931   27.0245 H   0  0  0  0  0  0
  -26.2868  -29.6791   24.1170 H   0  0  0  0  0  0
  -27.3962  -29.7245   25.4670 H   0  0  0  0  0  0
  -27.8750  -30.4291   23.9401 H   0  0  0  0  0  0
  -27.2612  -33.3612   26.2093 H   0  0  0  0  0  0
  -28.3831  -32.6915   25.0335 H   0  0  0  0  0  0
  -28.0694  -31.8451   26.5419 H   0  0  0  0  0  0
  -28.2604  -38.0103   24.7505 H   0  0  0  0  0  0
  -28.1063  -36.2635   24.6290 H   0  0  0  0  0  0
  -27.2302  -37.1466   25.8871 H   0  0  0  0  0  0
  -20.9329  -29.8776   21.6939 H   0  0  0  0  0  0
  -26.0176  -38.2873   24.1402 H   0  0  0  0  0  0
  -28.1145  -18.6250   23.9836 H   0  0  0  0  0  0
  -30.5658  -17.5545   19.8035 H   0  0  0  0  0  0
  -27.5932  -20.7211   23.3172 H   0  0  0  0  0  0
  -27.6684  -21.1403   21.6238 H   0  0  0  0  0  0
  -29.0339  -21.5114   22.7078 H   0  0  0  0  0  0
  -28.3188  -16.4921   24.7931 H   0  0  0  0  0  0
  -29.6771  -15.5255   24.2357 H   0  0  0  0  0  0
  -28.0673  -15.3030   23.5247 H   0  0  0  0  0  0
  -29.1550  -20.0728   19.0653 H   0  0  0  0  0  0
  -30.8508  -20.0102   19.4058 H   0  0  0  0  0  0
  -30.3380  -24.5279   19.7564 H   0  0  0  0  0  0
  -29.5086  -24.1638   21.2518 H   0  0  0  0  0  0
  -27.3331  -24.7602   20.2222 H   0  0  0  0  0  0
  -28.1053  -25.1117   18.6863 H   0  0  0  0  0  0
  -29.3856  -14.7808   22.0713 H   0  0  0  0  0  0
  -30.5779  -21.9341   20.9543 H   0  0  0  0  0  0
  1 25  1  0  0  0
  1 30  2  0  0  0
  1 83  1  0  0  0
  2  3  1  0  0  0
  2 25  1  0  0  0
  2 86  1  0  0  0
  2 87  1  0  0  0
  3  4  1  0  0  0
  3 88  1  0  0  0
  3 89  1  0  0  0
  4  5  1  0  0  0
  4 90  1  0  0  0
  4 91  1  0  0  0
  5  6  1  0  0  0
  5 26  1  0  0  0
  5 92  1  0  0  0
  6 25  1  0  0  0
  6 93  1  0  0  0
  6 94  1  0  0  0
  7  8  2  0  0  0
  7 26  1  0  0  0
  7 29  1  0  0  0
  8  9  1  0  0  0
  8 22  1  0  0  0
  9 10  1  0  0  0
  9 27  2  0  0  0
 10 11  2  0  0  0
 10 15  1  0  0  0
 11 12  1  0  0  0
 11 95  1  0  0  0
 12 13  2  0  0  0
 12 96  1  0  0  0
 13 14  1  0  0  0
 13 31  1  0  0  0
 14 15  2  0  0  0
 14 97  1  0  0  0
 15 98  1  0  0  0
 16 17  2  0  0  0
 16 21  1  0  0  0
 16 31  1  0  0  0
 17 18  1  0  0  0
 17 99  1  0  0  0
 18 19  2  0  0  0
 18100  1  0  0  0
 19 20  1  0  0  0
 19 24  1  0  0  0
 20 21  2  0  0  0
 20101  1  0  0  0
 21 23  1  0  0  0
 22 28  1  0  0  0
 22 32  2  0  0  0
 26 27  1  0  0  0
 28102  1  0  0  0
 28103  1  0  0  0
 29104  1  0  0  0
 29105  1  0  0  0
 33 34  1  0  0  0
 33 66  1  0  0  0
 33 70  2  0  0  0
 34 36  1  0  0  0
 34 59  1  0  0  0
 34106  1  0  0  0
 35 44  2  0  0  0
 35 45  1  0  0  0
 35 68  1  0  0  0
 36 56  1  0  0  0
 36107  1  0  0  0
 37 39  1  0  0  0
 37 47  1  0  0  0
 37 66  1  0  0  0
 37108  1  0  0  0
 38 43  2  0  0  0
 38 46  1  0  0  0
 38 47  1  0  0  0
 39 64  1  0  0  0
 39 67  2  0  0  0
 40 52  1  0  0  0
 40 53  2  0  0  0
 40 58  1  0  0  0
 41109  1  0  0  0
 41110  1  0  0  0
 41111  1  0  0  0
 41 48  1  0  0  0
 42 43  1  0  0  0
 42 66  1  0  0  0
 42112  1  0  0  0
 42113  1  0  0  0
 43 44  1  0  0  0
 44114  1  0  0  0
 45 46  2  0  0  0
 45115  1  0  0  0
 46116  1  0  0  0
 47117  1  0  0  0
 47118  1  0  0  0
 48 56  1  0  0  0
 48 65  1  0  0  0
 48119  1  0  0  0
 49 50  1  0  0  0
 49 53  1  0  0  0
 49 64  1  0  0  0
 49120  1  0  0  0
 50 51  1  0  0  0
 50121  1  0  0  0
 50122  1  0  0  0
 51 52  1  0  0  0
 51123  1  0  0  0
 51124  1  0  0  0
 52125  1  0  0  0
 52126  1  0  0  0
 53 54  1  0  0  0
 54 55  2  0  0  0
 54127  1  0  0  0
 55 57  1  0  0  0
 55128  1  0  0  0
 56 69  2  0  0  0
 57 58  2  0  0  0
 57129  1  0  0  0
 58130  1  0  0  0
 59 60  1  0  0  0
 59 61  1  0  0  0
 59 62  1  0  0  0
 60131  1  0  0  0
 60132  1  0  0  0
 60133  1  0  0  0
 61134  1  0  0  0
 61135  1  0  0  0
 61136  1  0  0  0
 62137  1  0  0  0
 62138  1  0  0  0
 62139  1  0  0  0
 63 65  1  0  0  0
 63140  1  0  0  0
 63141  1  0  0  0
 63142  1  0  0  0
 64143  1  0  0  0
 65144  1  0  0  0
 68 82  1  0  0  0
 71 73  2  0  0  0
 71 74  1  0  0  0
 71145  1  0  0  0
 72 75  2  0  0  0
 72 76  1  0  0  0
 72146  1  0  0  0
 73 75  1  0  0  0
 73 78  1  0  0  0
 74 76  2  0  0  0
 74 79  1  0  0  0
 75 80  1  0  0  0
 76 83  1  0  0  0
 77 81  1  0  0  0
 77 84  1  0  0  0
 77 85  2  0  0  0
 78147  1  0  0  0
 78148  1  0  0  0
 78149  1  0  0  0
 79150  1  0  0  0
 79151  1  0  0  0
 79152  1  0  0  0
 80 84  1  0  0  0
 80153  1  0  0  0
 80154  1  0  0  0
 81 82  1  0  0  0
 81155  1  0  0  0
 81156  1  0  0  0
 82157  1  0  0  0
 82158  1  0  0  0
 83159  1  0  0  0
 84160  1  0  0  0
M  ISO  4   1 100  68 101  82 101  83 100
M  END
> <chiral flag>
0

> <version>
0

> <s_m_source_file>
/data/baiqing/PycharmProjects/Reinvent-master-3.2/result/LINK_invent/BTK/process_docking_weight1_custom_product_contain_oxygen_bond_distance_aromatic_linkinvent_7_9_3/rearranged_h_0043.sdf

> <i_m_source_file_index>
24

> <r_mmod_Potential_Energy-OPLS-2005>
-105.043830871582

> <r_mmod_Stretch_Energy-OPLS-2005>
61.5815887451172

> <r_mmod_Bend_Energy-OPLS-2005>
142.948287963867

> <r_mmod_Torsional_Energy-OPLS-2005>
204.432769775391

> <r_mmod_Improper_Torsional_Energy-OPLS-2005>
3.39116716384888

> <r_mmod_Van_der_Waal_Energy-OPLS-2005>
160.669876098633

> <r_mmod_Electrostatic_Energy-OPLS-2005>
-472.812103271484

> <r_mmod_Solvation_Energy-OPLS-2005>
-230.942932128906

> <b_mmod_Minimization_Converged-OPLS-2005>
0

> <r_mmod_RMS_Derivative-OPLS-2005>
1.1978132724762

$$$$
24
                    3D
 Structure written by MMmdl.
170179  0  0  1  0            999 V2000
  -31.0352  -14.1490   20.4258 C   0  0  0  0  0  0
  -30.1726  -12.1148   19.3112 C   0  0  0  0  0  0
  -29.3416  -11.7570   18.1299 C   0  0  0  0  0  0
  -27.9063  -12.4011   18.2292 C   0  0  0  0  0  0
  -27.5391  -13.0290   19.6057 C   0  0  2  0  0  0
  -28.6137  -13.6791   20.4565 C   0  0  0  0  0  0
  -25.3294  -13.6381   20.6082 C   0  0  0  0  0  0
  -24.2761  -12.9657   21.1409 C   0  0  0  0  0  0
  -24.6437  -11.5356   21.1322 C   0  0  0  0  0  0
  -23.8081  -10.3235   21.1304 C   0  0  0  0  0  0
  -24.3244   -9.2038   21.9203 C   0  0  0  0  0  0
  -23.5475   -8.0702   22.0922 C   0  0  0  0  0  0
  -22.3504   -7.9447   21.3465 C   0  0  0  0  0  0
  -21.9433   -8.8651   20.4498 C   0  0  0  0  0  0
  -22.6763  -10.0127   20.2152 C   0  0  0  0  0  0
  -21.6552   -6.0534   22.5456 C   0  0  0  0  0  0
  -21.4146   -6.5600   23.8409 C   0  0  0  0  0  0
  -21.3827   -5.6815   24.9449 C   0  0  0  0  0  0
  -21.6055   -4.2932   24.7351 C   0  0  0  0  0  0
  -21.8824   -3.7979   23.4360 C   0  0  0  0  0  0
  -21.9085   -4.6934   22.3520 C   0  0  0  0  0  0
  -22.8385  -13.3442   21.2644 C   0  0  0  0  0  0
  -22.1622   -4.2161   21.1073 F   0  0  0  0  0  0
  -21.5484   -3.4496   25.7828 F   0  0  0  0  0  0
  -29.9750  -13.4855   19.9406 N   0  0  0  0  0  0
  -26.2663  -12.7157   20.2512 N   0  0  0  0  0  0
  -25.9265  -11.4812   20.6995 N   0  0  0  0  0  0
  -22.0493  -12.6796   22.0622 N   0  0  0  0  0  0
  -25.3950  -14.9741   20.1275 N   0  0  0  0  0  0
  -32.0080  -13.5399   20.6744 O   0  0  0  0  0  0
  -21.5478   -6.8413   21.4261 O   0  0  0  0  0  0
  -22.4020  -14.2709   20.5224 O   0  0  0  0  0  0
  -24.7565  -31.6922   23.0821 C   0  0  0  0  0  0
  -25.9712  -32.3790   23.7545 C   0  0  1  0  0  0
  -27.0305  -25.9717   20.5484 C   0  0  0  0  0  0
  -25.6058  -33.7694   24.1310 N   0  0  0  0  0  0
  -23.6032  -30.2694   21.4541 C   0  0  2  0  0  0
  -25.0165  -28.4563   20.1576 C   0  0  0  0  0  0
  -22.8016  -29.3776   22.4529 C   0  0  0  0  0  0
  -18.0354  -28.1471   22.8413 C   0  0  0  0  0  0
  -24.1477  -36.6768   23.2682 C   0  0  0  0  0  0
  -26.1795  -30.1227   21.5607 C   0  0  0  0  0  0
  -26.1617  -28.6466   20.9492 C   0  0  0  0  0  0
  -27.1493  -27.4548   21.0524 C   0  0  0  0  0  0
  -25.9260  -26.1084   19.6480 C   0  0  0  0  0  0
  -24.9699  -27.1909   19.4675 C   0  0  0  0  0  0
  -23.8864  -29.4939   20.1119 C   0  0  0  0  0  0
  -25.4183  -36.2462   24.0178 C   0  0  1  0  0  0
  -20.5974  -28.3791   23.1028 C   0  0  2  0  0  0
  -20.6753  -26.9402   22.5537 C   0  0  0  0  0  0
  -19.5775  -26.6303   21.5270 C   0  0  0  0  0  0
  -18.1898  -26.8000   22.1605 C   0  0  0  0  0  0
  -19.1635  -28.8975   23.2652 C   0  0  0  0  0  0
  -18.9566  -30.1526   23.8727 C   0  0  0  0  0  0
  -17.6551  -30.6619   24.0509 C   0  0  0  0  0  0
  -25.9290  -34.8906   23.4670 C   0  0  0  0  0  0
  -16.5428  -29.9081   23.6385 C   0  0  0  0  0  0
  -16.7330  -28.6532   23.0369 C   0  0  0  0  0  0
  -26.4702  -31.6392   25.0645 C   0  0  0  0  0  0
  -25.3548  -31.3965   26.1075 C   0  0  0  0  0  0
  -27.0940  -30.2670   24.7515 C   0  0  0  0  0  0
  -27.5983  -32.4606   25.7463 C   0  0  0  0  0  0
  -27.5552  -37.1489   24.8444 C   0  0  0  0  0  0
  -21.4633  -29.2777   22.3148 N   0  0  0  0  0  0
  -26.4182  -37.3349   23.9460 N   0  0  0  0  0  0
  -24.8767  -30.7514   22.0728 N   0  0  0  0  0  0
  -23.4062  -28.7420   23.3207 O   0  0  0  0  0  0
  -27.8545  -24.5537   20.6474 O   0  0  0  0  0  0
  -26.6131  -34.8714   22.4427 O   0  0  0  0  0  0
  -23.6495  -32.0469   23.5228 O   0  0  0  0  0  0
  -32.9507  -15.8077   23.1139 C   0  0  0  0  0  0
  -31.3891  -17.2932   21.4025 C   0  0  0  0  0  0
  -31.7854  -16.5188   23.5807 C   0  0  0  0  0  0
  -33.2476  -15.6768   21.7699 C   0  0  0  0  0  0
  -31.1152  -17.5627   22.7515 C   0  0  0  0  0  0
  -32.1990  -16.2189   20.9409 C   0  0  0  0  0  0
  -28.9790  -21.3004   21.5008 C   0  0  0  0  0  0
  -29.8591  -20.8649   20.5676 C   0  0  0  0  0  0
  -27.0365  -19.6636   20.2586 C   0  0  0  0  0  0
  -26.6935  -18.7365   21.4964 C   0  0  0  0  0  0
  -27.0412  -21.3161   20.1052 C   0  0  0  0  0  0
  -27.6967  -18.8593   22.6252 C   0  0  0  0  0  0
  -27.6905  -22.6347   21.0889 C   0  0  2  0  0  0
  -31.3348  -15.9324   24.9216 C   0  0  0  0  0  0
  -34.6317  -14.9934   21.3998 C   0  0  0  0  0  0
  -30.2241  -18.9104   23.1786 C   0  0  0  0  0  0
  -31.4058  -15.3754   20.0386 N   0  0  0  0  0  0
  -28.9957  -19.7435   22.4199 N   0  3  2  0  0  0
  -31.2016  -12.1227   18.9588 H   0  0  0  0  0  0
  -30.0459  -11.3512   20.1025 H   0  0  0  0  0  0
  -29.5004  -10.7143   17.9606 H   0  0  0  0  0  0
  -29.7082  -12.2500   17.2998 H   0  0  0  0  0  0
  -28.2612  -13.3022   17.6377 H   0  0  0  0  0  0
  -26.9593  -11.9355   17.7944 H   0  0  0  0  0  0
  -26.9804  -13.7991   19.0034 H   0  0  0  0  0  0
  -28.6041  -14.6017   19.9473 H   0  0  0  0  0  0
  -28.2637  -14.2649   21.4662 H   0  0  0  0  0  0
  -25.2927   -9.3673   22.3423 H   0  0  0  0  0  0
  -23.8908   -7.4322   22.8375 H   0  0  0  0  0  0
  -21.0386   -8.7496   19.9947 H   0  0  0  0  0  0
  -22.4275  -10.6638   19.4080 H   0  0  0  0  0  0
  -21.2572   -7.6205   23.9821 H   0  0  0  0  0  0
  -21.1700   -6.0752   25.9420 H   0  0  0  0  0  0
  -22.0416   -2.7279   23.2739 H   0  0  0  0  0  0
  -22.5369  -11.8967   22.4308 H   0  0  0  0  0  0
  -21.2175  -13.1054   22.4607 H   0  0  0  0  0  0
  -24.3635  -14.9147   20.3544 H   0  0  0  0  0  0
  -26.1485  -15.4516   20.6972 H   0  0  0  0  0  0
  -26.7955  -32.3973   23.0415 H   0  0  0  0  0  0
  -24.9625  -33.8478   24.9071 H   0  0  0  0  0  0
  -22.9901  -31.1133   21.1874 H   0  0  0  0  0  0
  -23.3888  -35.8954   23.3039 H   0  0  0  0  0  0
  -24.3541  -36.8835   22.2185 H   0  0  0  0  0  0
  -23.7105  -37.5721   23.7095 H   0  0  0  0  0  0
  -26.6691  -30.7203   20.7781 H   0  0  0  0  0  0
  -26.9391  -29.9778   22.3151 H   0  0  0  0  0  0
  -27.9385  -27.5601   21.7994 H   0  0  0  0  0  0
  -25.6519  -25.2015   19.1237 H   0  0  0  0  0  0
  -24.1354  -27.0104   18.8219 H   0  0  0  0  0  0
  -24.1918  -30.1843   19.3433 H   0  0  0  0  0  0
  -22.9856  -29.0112   19.7551 H   0  0  0  0  0  0
  -25.1467  -36.0957   25.0663 H   0  0  0  0  0  0
  -21.0043  -28.3515   24.1120 H   0  0  0  0  0  0
  -20.5431  -26.2458   23.3824 H   0  0  0  0  0  0
  -21.6594  -26.7098   22.1414 H   0  0  0  0  0  0
  -19.6886  -25.6116   21.1371 H   0  0  0  0  0  0
  -19.6786  -27.3030   20.6684 H   0  0  0  0  0  0
  -17.4217  -26.6754   21.3930 H   0  0  0  0  0  0
  -18.0222  -26.0135   22.8991 H   0  0  0  0  0  0
  -19.8028  -30.7384   24.2028 H   0  0  0  0  0  0
  -17.5093  -31.6302   24.5166 H   0  0  0  0  0  0
  -15.5404  -30.2967   23.7791 H   0  0  0  0  0  0
  -15.8714  -28.0796   22.7198 H   0  0  0  0  0  0
  -24.5880  -30.7175   25.7296 H   0  0  0  0  0  0
  -24.8593  -32.3260   26.3872 H   0  0  0  0  0  0
  -25.7460  -30.9512   27.0220 H   0  0  0  0  0  0
  -26.3651  -29.5596   24.3503 H   0  0  0  0  0  0
  -27.4845  -29.7979   25.6556 H   0  0  0  0  0  0
  -27.9505  -30.3534   24.0810 H   0  0  0  0  0  0
  -27.2354  -33.4155   26.1249 H   0  0  0  0  0  0
  -28.4072  -32.6718   25.0462 H   0  0  0  0  0  0
  -28.0305  -31.9306   26.5969 H   0  0  0  0  0  0
  -28.2306  -38.0008   24.7697 H   0  0  0  0  0  0
  -28.1280  -36.2542   24.5984 H   0  0  0  0  0  0
  -27.2297  -37.0727   25.8823 H   0  0  0  0  0  0
  -21.0143  -29.8200   21.5894 H   0  0  0  0  0  0
  -25.9870  -38.2300   24.1627 H   0  0  0  0  0  0
  -33.5888  -15.1631   23.7380 H   0  0  0  0  0  0
  -30.8046  -17.7579   20.6343 H   0  0  0  0  0  0
  -29.9693  -21.3348   19.6503 H   0  0  0  0  0  0
  -30.4533  -19.9407   20.7433 H   0  0  0  0  0  0
  -26.4958  -19.2835   19.3896 H   0  0  0  0  0  0
  -28.0310  -19.2272   20.1654 H   0  0  0  0  0  0
  -26.1667  -17.7019   21.3046 H   0  0  0  0  0  0
  -25.7658  -18.8290   21.9237 H   0  0  0  0  0  0
  -25.9538  -21.3093   20.1505 H   0  0  0  0  0  0
  -27.3827  -21.3392   19.0337 H   0  0  0  0  0  0
  -27.8551  -17.7844   22.5845 H   0  0  0  0  0  0
  -27.2577  -18.8884   23.6795 H   0  0  0  0  0  0
  -26.9978  -22.5613   21.9400 H   0  0  0  0  0  0
  -32.1258  -15.3503   25.4761 H   0  0  0  0  0  0
  -30.5862  -15.1371   24.7158 H   0  0  0  0  0  0
  -30.9157  -16.6557   25.6292 H   0  0  0  0  0  0
  -34.7882  -13.9233   21.5651 H   0  0  0  0  0  0
  -35.3970  -15.3977   22.0837 H   0  0  0  0  0  0
  -35.0542  -15.1878   20.4155 H   0  0  0  0  0  0
  -31.0322  -19.4328   23.8003 H   0  0  0  0  0  0
  -29.6747  -18.3783   23.9551 H   0  0  0  0  0  0
  -31.0783  -15.7995   19.1422 H   0  0  0  0  0  0
  -29.2276  -19.1290   21.6172 H   0  0  0  0  0  0
  1 25  1  0  0  0
  1 30  2  0  0  0
  1 87  1  0  0  0
  2  3  1  0  0  0
  2 25  1  0  0  0
  2 89  1  0  0  0
  2 90  1  0  0  0
  3  4  1  0  0  0
  3 91  1  0  0  0
  3 92  1  0  0  0
  4  5  1  0  0  0
  4 93  1  0  0  0
  4 94  1  0  0  0
  5  6  1  0  0  0
  5 26  1  0  0  0
  5 95  1  0  0  0
  6 25  1  0  0  0
  6 96  1  0  0  0
  6 97  1  0  0  0
  7  8  2  0  0  0
  7 26  1  0  0  0
  7 29  1  0  0  0
  8  9  1  0  0  0
  8 22  1  0  0  0
  9 10  1  0  0  0
  9 27  2  0  0  0
 10 11  2  0  0  0
 10 15  1  0  0  0
 11 12  1  0  0  0
 11 98  1  0  0  0
 12 13  2  0  0  0
 12 99  1  0  0  0
 13 14  1  0  0  0
 13 31  1  0  0  0
 14 15  2  0  0  0
 14100  1  0  0  0
 15101  1  0  0  0
 16 17  2  0  0  0
 16 21  1  0  0  0
 16 31  1  0  0  0
 17 18  1  0  0  0
 17102  1  0  0  0
 18 19  2  0  0  0
 18103  1  0  0  0
 19 20  1  0  0  0
 19 24  1  0  0  0
 20 21  2  0  0  0
 20104  1  0  0  0
 21 23  1  0  0  0
 22 28  1  0  0  0
 22 32  2  0  0  0
 26 27  1  0  0  0
 28105  1  0  0  0
 28106  1  0  0  0
 29107  1  0  0  0
 29108  1  0  0  0
 33 34  1  0  0  0
 33 66  1  0  0  0
 33 70  2  0  0  0
 34 36  1  0  0  0
 34 59  1  0  0  0
 34109  1  0  0  0
 35 44  2  0  0  0
 35 45  1  0  0  0
 35 68  1  0  0  0
 36 56  1  0  0  0
 36110  1  0  0  0
 37 39  1  0  0  0
 37 47  1  0  0  0
 37 66  1  0  0  0
 37111  1  0  0  0
 38 43  2  0  0  0
 38 46  1  0  0  0
 38 47  1  0  0  0
 39 64  1  0  0  0
 39 67  2  0  0  0
 40 52  1  0  0  0
 40 53  2  0  0  0
 40 58  1  0  0  0
 41112  1  0  0  0
 41113  1  0  0  0
 41114  1  0  0  0
 41 48  1  0  0  0
 42 43  1  0  0  0
 42 66  1  0  0  0
 42115  1  0  0  0
 42116  1  0  0  0
 43 44  1  0  0  0
 44117  1  0  0  0
 45 46  2  0  0  0
 45118  1  0  0  0
 46119  1  0  0  0
 47120  1  0  0  0
 47121  1  0  0  0
 48 56  1  0  0  0
 48 65  1  0  0  0
 48122  1  0  0  0
 49 50  1  0  0  0
 49 53  1  0  0  0
 49 64  1  0  0  0
 49123  1  0  0  0
 50 51  1  0  0  0
 50124  1  0  0  0
 50125  1  0  0  0
 51 52  1  0  0  0
 51126  1  0  0  0
 51127  1  0  0  0
 52128  1  0  0  0
 52129  1  0  0  0
 53 54  1  0  0  0
 54 55  2  0  0  0
 54130  1  0  0  0
 55 57  1  0  0  0
 55131  1  0  0  0
 56 69  2  0  0  0
 57 58  2  0  0  0
 57132  1  0  0  0
 58133  1  0  0  0
 59 60  1  0  0  0
 59 61  1  0  0  0
 59 62  1  0  0  0
 60134  1  0  0  0
 60135  1  0  0  0
 60136  1  0  0  0
 61137  1  0  0  0
 61138  1  0  0  0
 61139  1  0  0  0
 62140  1  0  0  0
 62141  1  0  0  0
 62142  1  0  0  0
 63 65  1  0  0  0
 63143  1  0  0  0
 63144  1  0  0  0
 63145  1  0  0  0
 64146  1  0  0  0
 65147  1  0  0  0
 68 83  1  0  0  0
 71 73  2  0  0  0
 71 74  1  0  0  0
 71148  1  0  0  0
 72 75  2  0  0  0
 72 76  1  0  0  0
 72149  1  0  0  0
 73 75  1  0  0  0
 73 84  1  0  0  0
 74 76  2  0  0  0
 74 85  1  0  0  0
 75 86  1  0  0  0
 76 87  1  0  0  0
 77 78  2  0  0  0
 77 83  1  0  0  0
 77 88  1  0  0  0
 78150  1  0  0  0
 78151  1  0  0  0
 79 80  1  0  0  0
 79 81  1  0  0  0
 79152  1  0  0  0
 79153  1  0  0  0
 80 82  1  0  0  0
 80154  1  0  0  0
 80155  1  0  0  0
 81 83  1  0  0  0
 81156  1  0  0  0
 81157  1  0  0  0
 82 88  1  0  0  0
 82158  1  0  0  0
 82159  1  0  0  0
 83160  1  0  0  0
 84161  1  0  0  0
 84162  1  0  0  0
 84163  1  0  0  0
 85164  1  0  0  0
 85165  1  0  0  0
 85166  1  0  0  0
 86167  1  0  0  0
 86168  1  0  0  0
 86 88  1  0  0  0
 87169  1  0  0  0
 88170  1  0  0  0
M  CHG  1  88   1
M  ISO  4   1 100  68 101  83 101  87 100
M  END
> <chiral flag>
0

> <version>
0

> <s_m_source_file>
/data/baiqing/PycharmProjects/Reinvent-master-3.2/result/LINK_invent/BTK/process_docking_weight1_custom_product_contain_oxygen_bond_distance_aromatic_linkinvent_7_9_3/rearranged_h_0043.sdf

> <i_m_source_file_index>
25

> <r_mmod_Potential_Energy-OPLS-2005>
4904.23486328125

> <r_mmod_Stretch_Energy-OPLS-2005>
1479.716796875

> <r_mmod_Bend_Energy-OPLS-2005>
1398.64501953125

> <r_mmod_Torsional_Energy-OPLS-2005>
620.539367675781

> <r_mmod_Improper_Torsional_Energy-OPLS-2005>
66.7412185668945

> <r_mmod_Van_der_Waal_Energy-OPLS-2005>
222.479446411133

> <r_mmod_Electrostatic_Energy-OPLS-2005>
-258.511474609375

> <r_mmod_Solvation_Energy-OPLS-2005>
-461.830505371094

> <b_mmod_Minimization_Converged-OPLS-2005>
0

> <r_mmod_RMS_Derivative-OPLS-2005>
99.9990005493164

$$$$
25
                    3D
 Structure written by MMmdl.
161170  0  0  1  0            999 V2000
  -30.5376  -14.8234   20.4514 C   0  0  0  0  0  0
  -30.4591  -12.5050   19.4696 C   0  0  0  0  0  0
  -29.5240  -12.5058   18.2362 C   0  0  0  0  0  0
  -28.0519  -12.3034   18.6565 C   0  0  0  0  0  0
  -27.6383  -13.2203   19.8381 C   0  0  2  0  0  0
  -28.6863  -13.1808   20.9731 C   0  0  0  0  0  0
  -25.2527  -13.8156   20.5676 C   0  0  0  0  0  0
  -24.1794  -13.0437   20.9207 C   0  0  0  0  0  0
  -24.6362  -11.6908   20.8744 C   0  0  0  0  0  0
  -23.9026  -10.4295   21.0418 C   0  0  0  0  0  0
  -24.3583   -9.4217   21.9198 C   0  0  0  0  0  0
  -23.6260   -8.2247   22.0772 C   0  0  0  0  0  0
  -22.4242   -8.0279   21.3553 C   0  0  0  0  0  0
  -21.9861   -9.0263   20.4670 C   0  0  0  0  0  0
  -22.7197  -10.2144   20.3081 C   0  0  0  0  0  0
  -21.6846   -6.0720   22.5268 C   0  0  0  0  0  0
  -21.4020   -6.5624   23.8210 C   0  0  0  0  0  0
  -21.3669   -5.6775   24.9166 C   0  0  0  0  0  0
  -21.6042   -4.3032   24.7222 C   0  0  0  0  0  0
  -21.8820   -3.8131   23.4333 C   0  0  0  0  0  0
  -21.9196   -4.6946   22.3400 C   0  0  0  0  0  0
  -22.7828  -13.5257   21.1855 C   0  0  0  0  0  0
  -22.1661   -4.2139   21.0976 F   0  0  0  0  0  0
  -21.5635   -3.4519   25.7727 F   0  0  0  0  0  0
  -29.9766  -13.5650   20.3812 N   0  0  0  0  0  0
  -26.2915  -12.9337   20.3212 N   0  0  0  0  0  0
  -25.9284  -11.6495   20.5687 N   0  0  0  0  0  0
  -22.0434  -12.8306   22.0406 N   0  0  0  0  0  0
  -25.4199  -15.1884   20.4098 N   0  0  0  0  0  0
  -31.7529  -14.9709   20.2802 O   0  0  0  0  0  0
  -21.6630   -6.8859   21.4232 O   0  0  0  0  0  0
  -22.3538  -14.5567   20.6685 O   0  0  0  0  0  0
  -24.6382  -31.8505   23.1927 C   0  0  0  0  0  0
  -25.9187  -32.4720   23.8299 C   0  0  1  0  0  0
  -27.2220  -27.1975   20.1590 C   0  0  0  0  0  0
  -25.5962  -33.8520   24.2226 N   0  0  0  0  0  0
  -23.4381  -30.4694   21.5390 C   0  0  2  0  0  0
  -24.8880  -28.8958   20.1267 C   0  0  0  0  0  0
  -22.7530  -29.4582   22.4904 C   0  0  0  0  0  0
  -18.0301  -28.1402   22.8479 C   0  0  0  0  0  0
  -24.1489  -36.7266   23.2650 C   0  0  0  0  0  0
  -25.9893  -30.7395   21.3864 C   0  0  0  0  0  0
  -26.0614  -29.3504   20.7437 C   0  0  0  0  0  0
  -27.2337  -28.5143   20.7481 C   0  0  0  0  0  0
  -26.0249  -26.8181   19.5224 C   0  0  0  0  0  0
  -24.8765  -27.6371   19.5061 C   0  0  0  0  0  0
  -23.6631  -29.7955   20.1603 C   0  0  0  0  0  0
  -25.4118  -36.3036   24.0326 C   0  0  1  0  0  0
  -20.5905  -28.3715   23.1265 C   0  0  2  0  0  0
  -20.6785  -26.9420   22.5429 C   0  0  0  0  0  0
  -19.5764  -26.6383   21.5228 C   0  0  0  0  0  0
  -18.1937  -26.7946   22.1620 C   0  0  0  0  0  0
  -19.1552  -28.8874   23.2867 C   0  0  0  0  0  0
  -18.9467  -30.1472   23.8888 C   0  0  0  0  0  0
  -17.6461  -30.6598   24.0562 C   0  0  0  0  0  0
  -25.9063  -34.9418   23.5075 C   0  0  0  0  0  0
  -16.5353  -29.9087   23.6338 C   0  0  0  0  0  0
  -16.7283  -28.6510   23.0350 C   0  0  0  0  0  0
  -26.4549  -31.6568   25.0712 C   0  0  0  0  0  0
  -25.3763  -31.3736   26.1425 C   0  0  0  0  0  0
  -27.0411  -30.2963   24.6254 C   0  0  0  0  0  0
  -27.6083  -32.4337   25.7485 C   0  0  0  0  0  0
  -27.5584  -37.1772   24.8461 C   0  0  0  0  0  0
  -21.4228  -29.3041   22.3637 N   0  0  0  0  0  0
  -26.4278  -37.3746   23.9421 N   0  0  0  0  0  0
  -24.7077  -31.0409   22.0944 N   0  0  0  0  0  0
  -23.4189  -28.8140   23.3055 O   0  0  0  0  0  0
  -28.3133  -26.3028   19.9931 O   0  0  0  0  0  0
  -26.5618  -34.8910   22.4632 O   0  0  0  0  0  0
  -23.5516  -32.1366   23.7182 O   0  0  0  0  0  0
  -29.8375  -18.5679   20.4379 C   0  0  0  0  0  0
  -28.0110  -19.6986   21.6074 C   0  0  0  0  0  0
  -28.1477  -17.2436   21.5683 C   0  0  0  0  0  0
  -29.1954  -19.8309   20.8547 C   0  0  0  0  0  0
  -29.3222  -17.2351   20.7840 C   0  0  0  0  0  0
  -27.5052  -18.4340   21.9665 C   0  0  0  0  0  0
  -28.4045  -23.6088   20.7474 C   0  0  0  0  0  0
  -31.0899  -25.2932   19.8781 C   0  0  0  0  0  0
  -31.3277  -23.8536   19.3960 C   0  0  0  0  0  0
  -30.2441  -25.4255   21.1600 C   0  0  0  0  0  0
  -30.0537  -23.0664   19.0281 C   0  0  0  0  0  0
  -28.7332  -25.2081   20.9480 C   0  0  1  0  0  0
  -29.8314  -21.3096   20.7867 C   0  0  0  0  0  0
  -29.2822  -22.6557   20.2064 N   0  0  0  0  0  0
  -29.6389  -15.8704   20.2460 N   0  0  0  0  0  0
  -27.3779  -23.1993   21.2937 O   0  0  0  0  0  0
  -26.0710  -18.3321   22.9220 Cl  0  0  0  0  0  0
  -31.4942  -12.6791   19.1645 H   0  0  0  0  0  0
  -30.4447  -11.5364   19.9710 H   0  0  0  0  0  0
  -29.8260  -11.7287   17.5344 H   0  0  0  0  0  0
  -29.6236  -13.4518   17.7002 H   0  0  0  0  0  0
  -27.9320  -11.2580   18.9459 H   0  0  0  0  0  0
  -27.3914  -12.4589   17.8032 H   0  0  0  0  0  0
  -27.6134  -14.2306   19.4315 H   0  0  0  0  0  0
  -28.7431  -12.1866   21.4191 H   0  0  0  0  0  0
  -28.4095  -13.8634   21.7798 H   0  0  0  0  0  0
  -25.2733   -9.5698   22.4758 H   0  0  0  0  0  0
  -23.9987   -7.4634   22.7485 H   0  0  0  0  0  0
  -21.0791   -8.8779   19.8957 H   0  0  0  0  0  0
  -22.3661  -10.9683   19.6179 H   0  0  0  0  0  0
  -21.2011   -7.6129   23.9704 H   0  0  0  0  0  0
  -21.1492   -6.0502   25.9073 H   0  0  0  0  0  0
  -22.0587   -2.7588   23.2833 H   0  0  0  0  0  0
  -22.4011  -11.9998   22.4872 H   0  0  0  0  0  0
  -21.1067  -13.1407   22.2579 H   0  0  0  0  0  0
  -24.6436  -15.8282   20.5305 H   0  0  0  0  0  0
  -26.2370  -15.6315   20.0154 H   0  0  0  0  0  0
  -26.7250  -32.5350   23.1037 H   0  0  0  0  0  0
  -25.0112  -33.9630   25.0372 H   0  0  0  0  0  0
  -22.7379  -31.2935   21.3862 H   0  0  0  0  0  0
  -23.3745  -35.9598   23.3285 H   0  0  0  0  0  0
  -24.3602  -36.8915   22.2073 H   0  0  0  0  0  0
  -23.7238  -37.6459   23.6692 H   0  0  0  0  0  0
  -26.1345  -31.4901   20.6091 H   0  0  0  0  0  0
  -26.8640  -30.7966   22.0225 H   0  0  0  0  0  0
  -28.1425  -28.8717   21.2088 H   0  0  0  0  0  0
  -25.9777  -25.8596   19.0258 H   0  0  0  0  0  0
  -23.9817  -27.2845   19.0126 H   0  0  0  0  0  0
  -23.7988  -30.5682   19.4034 H   0  0  0  0  0  0
  -22.7786  -29.2370   19.8489 H   0  0  0  0  0  0
  -25.1297  -36.1871   25.0811 H   0  0  0  0  0  0
  -20.9991  -28.3309   24.1389 H   0  0  0  0  0  0
  -20.5708  -26.2312   23.3639 H   0  0  0  0  0  0
  -21.6653  -26.7459   22.1217 H   0  0  0  0  0  0
  -19.6929  -25.6289   21.1268 H   0  0  0  0  0  0
  -19.6720  -27.3187   20.6753 H   0  0  0  0  0  0
  -17.4222  -26.6708   21.4005 H   0  0  0  0  0  0
  -18.0316  -26.0101   22.9023 H   0  0  0  0  0  0
  -19.7934  -30.7297   24.2254 H   0  0  0  0  0  0
  -17.5009  -31.6278   24.5165 H   0  0  0  0  0  0
  -15.5351  -30.2977   23.7685 H   0  0  0  0  0  0
  -15.8683  -28.0829   22.7064 H   0  0  0  0  0  0
  -24.5888  -30.7153   25.7741 H   0  0  0  0  0  0
  -24.9027  -32.2919   26.4896 H   0  0  0  0  0  0
  -25.8070  -30.8853   27.0172 H   0  0  0  0  0  0
  -26.3005  -29.6666   24.1297 H   0  0  0  0  0  0
  -27.4088  -29.7278   25.4814 H   0  0  0  0  0  0
  -27.8891  -30.4216   23.9513 H   0  0  0  0  0  0
  -27.2654  -33.3622   26.2059 H   0  0  0  0  0  0
  -28.3874  -32.6927   25.0306 H   0  0  0  0  0  0
  -28.0768  -31.8478   26.5401 H   0  0  0  0  0  0
  -28.2573  -38.0095   24.7527 H   0  0  0  0  0  0
  -28.1099  -36.2626   24.6233 H   0  0  0  0  0  0
  -27.2321  -37.1367   25.8867 H   0  0  0  0  0  0
  -20.9430  -29.8715   21.6787 H   0  0  0  0  0  0
  -26.0149  -38.2810   24.1430 H   0  0  0  0  0  0
  -30.7357  -18.6221   19.8389 H   0  0  0  0  0  0
  -27.5082  -20.5810   21.9761 H   0  0  0  0  0  0
  -27.6858  -16.3100   21.8514 H   0  0  0  0  0  0
  -30.6480  -25.8835   19.0740 H   0  0  0  0  0  0
  -32.0651  -25.7449   20.0655 H   0  0  0  0  0  0
  -31.9102  -23.3059   20.1384 H   0  0  0  0  0  0
  -31.9638  -23.9006   18.5106 H   0  0  0  0  0  0
  -30.3855  -26.4285   21.5640 H   0  0  0  0  0  0
  -30.6210  -24.7470   21.9273 H   0  0  0  0  0  0
  -30.3347  -22.1817   18.4520 H   0  0  0  0  0  0
  -29.4303  -23.6514   18.3490 H   0  0  0  0  0  0
  -28.2561  -25.4641   21.8954 H   0  0  0  0  0  0
  -30.8344  -21.1517   20.3876 H   0  0  0  0  0  0
  -30.0327  -21.5489   21.8318 H   0  0  0  0  0  0
  -28.7809  -15.4029   20.0041 H   0  0  0  0  0  0
  1 25  1  0  0  0
  1 30  2  0  0  0
  1 85  1  0  0  0
  2  3  1  0  0  0
  2 25  1  0  0  0
  2 88  1  0  0  0
  2 89  1  0  0  0
  3  4  1  0  0  0
  3 90  1  0  0  0
  3 91  1  0  0  0
  4  5  1  0  0  0
  4 92  1  0  0  0
  4 93  1  0  0  0
  5  6  1  0  0  0
  5 26  1  0  0  0
  5 94  1  0  0  0
  6 25  1  0  0  0
  6 95  1  0  0  0
  6 96  1  0  0  0
  7  8  2  0  0  0
  7 26  1  0  0  0
  7 29  1  0  0  0
  8  9  1  0  0  0
  8 22  1  0  0  0
  9 10  1  0  0  0
  9 27  2  0  0  0
 10 11  2  0  0  0
 10 15  1  0  0  0
 11 12  1  0  0  0
 11 97  1  0  0  0
 12 13  2  0  0  0
 12 98  1  0  0  0
 13 14  1  0  0  0
 13 31  1  0  0  0
 14 15  2  0  0  0
 14 99  1  0  0  0
 15100  1  0  0  0
 16 17  2  0  0  0
 16 21  1  0  0  0
 16 31  1  0  0  0
 17 18  1  0  0  0
 17101  1  0  0  0
 18 19  2  0  0  0
 18102  1  0  0  0
 19 20  1  0  0  0
 19 24  1  0  0  0
 20 21  2  0  0  0
 20103  1  0  0  0
 21 23  1  0  0  0
 22 28  1  0  0  0
 22 32  2  0  0  0
 26 27  1  0  0  0
 28104  1  0  0  0
 28105  1  0  0  0
 29106  1  0  0  0
 29107  1  0  0  0
 33 34  1  0  0  0
 33 66  1  0  0  0
 33 70  2  0  0  0
 34 36  1  0  0  0
 34 59  1  0  0  0
 34108  1  0  0  0
 35 44  2  0  0  0
 35 45  1  0  0  0
 35 68  1  0  0  0
 36 56  1  0  0  0
 36109  1  0  0  0
 37 39  1  0  0  0
 37 47  1  0  0  0
 37 66  1  0  0  0
 37110  1  0  0  0
 38 43  2  0  0  0
 38 46  1  0  0  0
 38 47  1  0  0  0
 39 64  1  0  0  0
 39 67  2  0  0  0
 40 52  1  0  0  0
 40 53  2  0  0  0
 40 58  1  0  0  0
 41111  1  0  0  0
 41112  1  0  0  0
 41113  1  0  0  0
 41 48  1  0  0  0
 42 43  1  0  0  0
 42 66  1  0  0  0
 42114  1  0  0  0
 42115  1  0  0  0
 43 44  1  0  0  0
 44116  1  0  0  0
 45 46  2  0  0  0
 45117  1  0  0  0
 46118  1  0  0  0
 47119  1  0  0  0
 47120  1  0  0  0
 48 56  1  0  0  0
 48 65  1  0  0  0
 48121  1  0  0  0
 49 50  1  0  0  0
 49 53  1  0  0  0
 49 64  1  0  0  0
 49122  1  0  0  0
 50 51  1  0  0  0
 50123  1  0  0  0
 50124  1  0  0  0
 51 52  1  0  0  0
 51125  1  0  0  0
 51126  1  0  0  0
 52127  1  0  0  0
 52128  1  0  0  0
 53 54  1  0  0  0
 54 55  2  0  0  0
 54129  1  0  0  0
 55 57  1  0  0  0
 55130  1  0  0  0
 56 69  2  0  0  0
 57 58  2  0  0  0
 57131  1  0  0  0
 58132  1  0  0  0
 59 60  1  0  0  0
 59 61  1  0  0  0
 59 62  1  0  0  0
 60133  1  0  0  0
 60134  1  0  0  0
 60135  1  0  0  0
 61136  1  0  0  0
 61137  1  0  0  0
 61138  1  0  0  0
 62139  1  0  0  0
 62140  1  0  0  0
 62141  1  0  0  0
 63 65  1  0  0  0
 63142  1  0  0  0
 63143  1  0  0  0
 63144  1  0  0  0
 64145  1  0  0  0
 65146  1  0  0  0
 68 82  1  0  0  0
 71 74  2  0  0  0
 71 75  1  0  0  0
 71147  1  0  0  0
 72 74  1  0  0  0
 72 76  2  0  0  0
 72148  1  0  0  0
 73 75  2  0  0  0
 73 76  1  0  0  0
 73149  1  0  0  0
 74 83  1  0  0  0
 75 85  1  0  0  0
 76 87  1  0  0  0
 77 82  1  0  0  0
 77 84  1  0  0  0
 77 86  2  0  0  0
 78 79  1  0  0  0
 78 80  1  0  0  0
 78150  1  0  0  0
 78151  1  0  0  0
 79 81  1  0  0  0
 79152  1  0  0  0
 79153  1  0  0  0
 80 82  1  0  0  0
 80154  1  0  0  0
 80155  1  0  0  0
 81 84  1  0  0  0
 81156  1  0  0  0
 81157  1  0  0  0
 82158  1  0  0  0
 83 84  1  0  0  0
 83159  1  0  0  0
 83160  1  0  0  0
 85161  1  0  0  0
M  ISO  4   1 100  68 101  82 101  85 100
M  END
> <chiral flag>
0

> <version>
0

> <s_m_source_file>
/data/baiqing/PycharmProjects/Reinvent-master-3.2/result/LINK_invent/BTK/process_docking_weight1_custom_product_contain_oxygen_bond_distance_aromatic_linkinvent_7_9_3/rearranged_h_0043.sdf

> <i_m_source_file_index>
26

> <r_mmod_Potential_Energy-OPLS-2005>
557.293884277344

> <r_mmod_Stretch_Energy-OPLS-2005>
168.635009765625

> <r_mmod_Bend_Energy-OPLS-2005>
291.6796875

> <r_mmod_Torsional_Energy-OPLS-2005>
363.294311523438

> <r_mmod_Improper_Torsional_Energy-OPLS-2005>
24.9706935882568

> <r_mmod_Van_der_Waal_Energy-OPLS-2005>
116.158958435059

> <r_mmod_Electrostatic_Energy-OPLS-2005>
-308.015289306641

> <r_mmod_Solvation_Energy-OPLS-2005>
-226.045211791992

> <b_mmod_Minimization_Converged-OPLS-2005>
0

> <r_mmod_RMS_Derivative-OPLS-2005>
2.75293946266174

$$$$
26
                    3D
 Structure written by MMmdl.
162171  0  0  1  0            999 V2000
  -30.6333  -14.6725   20.4823 C   0  0  0  0  0  0
  -30.4350  -12.4154   19.4620 C   0  0  0  0  0  0
  -29.5082  -12.5222   18.2307 C   0  0  0  0  0  0
  -28.0318  -12.3542   18.6423 C   0  0  0  0  0  0
  -27.6516  -13.2214   19.8710 C   0  0  2  0  0  0
  -28.6998  -13.1111   21.0027 C   0  0  0  0  0  0
  -25.2554  -13.8175   20.5702 C   0  0  0  0  0  0
  -24.1817  -13.0435   20.9173 C   0  0  0  0  0  0
  -24.6400  -11.6912   20.8723 C   0  0  0  0  0  0
  -23.9087  -10.4278   21.0381 C   0  0  0  0  0  0
  -24.3619   -9.4184   21.9161 C   0  0  0  0  0  0
  -23.6274   -8.2227   22.0752 C   0  0  0  0  0  0
  -22.4235   -8.0289   21.3559 C   0  0  0  0  0  0
  -21.9890   -9.0267   20.4663 C   0  0  0  0  0  0
  -22.7245  -10.2131   20.3041 C   0  0  0  0  0  0
  -21.6850   -6.0721   22.5257 C   0  0  0  0  0  0
  -21.4023   -6.5619   23.8193 C   0  0  0  0  0  0
  -21.3649   -5.6769   24.9159 C   0  0  0  0  0  0
  -21.6037   -4.3035   24.7208 C   0  0  0  0  0  0
  -21.8825   -3.8136   23.4330 C   0  0  0  0  0  0
  -21.9196   -4.6960   22.3388 C   0  0  0  0  0  0
  -22.7824  -13.5230   21.1815 C   0  0  0  0  0  0
  -22.1655   -4.2151   21.0957 F   0  0  0  0  0  0
  -21.5639   -3.4513   25.7714 F   0  0  0  0  0  0
  -30.0134  -13.4487   20.4341 N   0  0  0  0  0  0
  -26.2989  -12.9362   20.3367 N   0  0  0  0  0  0
  -25.9342  -11.6517   20.5770 N   0  0  0  0  0  0
  -22.0466  -12.8239   22.0373 N   0  0  0  0  0  0
  -25.4334  -15.1885   20.4148 N   0  0  0  0  0  0
  -31.7789  -14.8184   20.0502 O   0  0  0  0  0  0
  -21.6630   -6.8859   21.4215 O   0  0  0  0  0  0
  -22.3521  -14.5542   20.6670 O   0  0  0  0  0  0
  -24.6254  -31.8607   23.2047 C   0  0  0  0  0  0
  -25.9123  -32.4772   23.8357 C   0  0  1  0  0  0
  -27.2347  -27.3326   20.1138 C   0  0  0  0  0  0
  -25.5937  -33.8576   24.2288 N   0  0  0  0  0  0
  -23.4179  -30.4873   21.5435 C   0  0  2  0  0  0
  -24.8668  -28.9406   20.1070 C   0  0  0  0  0  0
  -22.7465  -29.4644   22.4899 C   0  0  0  0  0  0
  -18.0297  -28.1389   22.8484 C   0  0  0  0  0  0
  -24.1496  -36.7303   23.2635 C   0  0  0  0  0  0
  -25.9583  -30.7939   21.3767 C   0  0  0  0  0  0
  -26.0304  -29.4229   20.7154 C   0  0  0  0  0  0
  -27.2113  -28.6286   20.7123 C   0  0  0  0  0  0
  -26.0525  -26.9006   19.4720 C   0  0  0  0  0  0
  -24.8790  -27.6841   19.4773 C   0  0  0  0  0  0
  -23.6343  -29.8236   20.1561 C   0  0  0  0  0  0
  -25.4110  -36.3084   24.0332 C   0  0  1  0  0  0
  -20.5898  -28.3702   23.1274 C   0  0  2  0  0  0
  -20.6786  -26.9415   22.5415 C   0  0  0  0  0  0
  -19.5752  -26.6388   21.5219 C   0  0  0  0  0  0
  -18.1929  -26.7940   22.1621 C   0  0  0  0  0  0
  -19.1549  -28.8855   23.2888 C   0  0  0  0  0  0
  -18.9467  -30.1454   23.8897 C   0  0  0  0  0  0
  -17.6469  -30.6589   24.0570 C   0  0  0  0  0  0
  -25.9047  -34.9453   23.5107 C   0  0  0  0  0  0
  -16.5362  -29.9085   23.6320 C   0  0  0  0  0  0
  -16.7289  -28.6514   23.0329 C   0  0  0  0  0  0
  -26.4509  -31.6575   25.0724 C   0  0  0  0  0  0
  -25.3754  -31.3725   26.1455 C   0  0  0  0  0  0
  -27.0357  -30.2992   24.6197 C   0  0  0  0  0  0
  -27.6071  -32.4313   25.7495 C   0  0  0  0  0  0
  -27.5585  -37.1807   24.8452 C   0  0  0  0  0  0
  -21.4185  -29.3062   22.3651 N   0  0  0  0  0  0
  -26.4288  -37.3775   23.9402 N   0  0  0  0  0  0
  -24.6857  -31.0639   22.0978 N   0  0  0  0  0  0
  -23.4196  -28.8173   23.2970 O   0  0  0  0  0  0
  -28.3830  -26.5317   20.1925 O   0  0  0  0  0  0
  -26.5600  -34.8922   22.4668 O   0  0  0  0  0  0
  -23.5424  -32.1404   23.7390 O   0  0  0  0  0  0
  -26.9402  -21.7432   19.8114 C   0  0  0  0  0  0
  -29.9065  -18.3358   20.6545 C   0  0  0  0  0  0
  -28.7549  -19.2995   18.7345 C   0  0  0  0  0  0
  -28.8596  -16.8753   19.0057 C   0  0  0  0  0  0
  -29.4981  -19.5152   19.9140 C   0  0  0  0  0  0
  -29.6105  -16.9926   20.1956 C   0  0  0  0  0  0
  -28.4180  -18.0070   18.2985 C   0  0  0  0  0  0
  -27.8635  -22.5921   20.2039 C   0  0  0  0  0  0
  -26.0035  -20.9280   19.3819 C   0  0  0  0  0  0
  -27.5287  -24.0825   20.5184 C   0  0  0  0  0  0
  -29.8805  -24.5532   19.8442 C   0  0  0  0  0  0
  -30.1266  -23.3848   20.8723 C   0  0  0  0  0  0
  -28.4257  -25.1129   19.7671 C   0  0  2  0  0  0
  -30.0344  -20.9831   20.1549 C   0  0  0  0  0  0
  -29.9037  -15.7516   20.9219 N   0  0  0  0  0  0
  -29.2408  -22.1725   20.7144 N   0  3  1  0  0  0
  -27.4638  -17.8096   16.8746 Cl  0  0  0  0  0  0
  -31.4768  -12.5302   19.1586 H   0  0  0  0  0  0
  -30.3675  -11.4272   19.9138 H   0  0  0  0  0  0
  -29.7739  -11.7673   17.4882 H   0  0  0  0  0  0
  -29.6463  -13.4912   17.7442 H   0  0  0  0  0  0
  -27.8675  -11.3010   18.8705 H   0  0  0  0  0  0
  -27.3814  -12.5928   17.8002 H   0  0  0  0  0  0
  -27.6489  -14.2503   19.5243 H   0  0  0  0  0  0
  -28.7184  -12.1029   21.4144 H   0  0  0  0  0  0
  -28.4404  -13.7701   21.8329 H   0  0  0  0  0  0
  -25.2769   -9.5656   22.4746 H   0  0  0  0  0  0
  -23.9987   -7.4610   22.7470 H   0  0  0  0  0  0
  -21.0828   -8.8819   19.8955 H   0  0  0  0  0  0
  -22.3724  -10.9686   19.6157 H   0  0  0  0  0  0
  -21.2016   -7.6133   23.9695 H   0  0  0  0  0  0
  -21.1460   -6.0502   25.9061 H   0  0  0  0  0  0
  -22.0617   -2.7609   23.2819 H   0  0  0  0  0  0
  -22.4075  -11.9886   22.4754 H   0  0  0  0  0  0
  -21.1105  -13.1317   22.2592 H   0  0  0  0  0  0
  -24.6801  -15.8562   20.5328 H   0  0  0  0  0  0
  -26.3001  -15.6186   20.1203 H   0  0  0  0  0  0
  -26.7192  -32.5440   23.1099 H   0  0  0  0  0  0
  -25.0110  -33.9713   25.0451 H   0  0  0  0  0  0
  -22.7123  -31.3086   21.4015 H   0  0  0  0  0  0
  -23.3756  -35.9637   23.3292 H   0  0  0  0  0  0
  -24.3595  -36.8931   22.2050 H   0  0  0  0  0  0
  -23.7268  -37.6510   23.6670 H   0  0  0  0  0  0
  -26.0949  -31.5634   20.6160 H   0  0  0  0  0  0
  -26.8370  -30.8364   22.0086 H   0  0  0  0  0  0
  -28.1012  -28.9946   21.2039 H   0  0  0  0  0  0
  -26.0104  -25.9454   18.9716 H   0  0  0  0  0  0
  -23.9894  -27.3102   18.9904 H   0  0  0  0  0  0
  -23.7597  -30.6063   19.4069 H   0  0  0  0  0  0
  -22.7540  -29.2599   19.8420 H   0  0  0  0  0  0
  -25.1297  -36.1925   25.0823 H   0  0  0  0  0  0
  -21.0007  -28.3299   24.1391 H   0  0  0  0  0  0
  -20.5695  -26.2306   23.3625 H   0  0  0  0  0  0
  -21.6651  -26.7446   22.1198 H   0  0  0  0  0  0
  -19.6912  -25.6302   21.1238 H   0  0  0  0  0  0
  -19.6693  -27.3210   20.6758 H   0  0  0  0  0  0
  -17.4208  -26.6710   21.4012 H   0  0  0  0  0  0
  -18.0310  -26.0090   22.9016 H   0  0  0  0  0  0
  -19.7939  -30.7278   24.2263 H   0  0  0  0  0  0
  -17.5022  -31.6268   24.5181 H   0  0  0  0  0  0
  -15.5354  -30.2980   23.7666 H   0  0  0  0  0  0
  -15.8695  -28.0853   22.7006 H   0  0  0  0  0  0
  -24.5906  -30.7086   25.7802 H   0  0  0  0  0  0
  -24.8962  -32.2893   26.4896 H   0  0  0  0  0  0
  -25.8078  -30.8891   27.0217 H   0  0  0  0  0  0
  -26.2925  -29.6718   24.1245 H   0  0  0  0  0  0
  -27.4068  -29.7276   25.4716 H   0  0  0  0  0  0
  -27.8800  -30.4268   23.9417 H   0  0  0  0  0  0
  -27.2671  -33.3598   26.2087 H   0  0  0  0  0  0
  -28.3860  -32.6881   25.0311 H   0  0  0  0  0  0
  -28.0751  -31.8424   26.5386 H   0  0  0  0  0  0
  -28.2583  -38.0126   24.7512 H   0  0  0  0  0  0
  -28.1104  -36.2654   24.6247 H   0  0  0  0  0  0
  -27.2313  -37.1421   25.8860 H   0  0  0  0  0  0
  -20.9352  -29.8775   21.6861 H   0  0  0  0  0  0
  -26.0173  -38.2853   24.1390 H   0  0  0  0  0  0
  -30.4912  -18.4595   21.5551 H   0  0  0  0  0  0
  -28.4536  -20.1367   18.1205 H   0  0  0  0  0  0
  -28.5960  -15.9070   18.6107 H   0  0  0  0  0  0
  -25.8755  -20.7187   18.3298 H   0  0  0  0  0  0
  -25.3283  -20.4295   20.0623 H   0  0  0  0  0  0
  -27.6174  -24.2407   21.5934 H   0  0  0  0  0  0
  -26.4786  -24.2637   20.2922 H   0  0  0  0  0  0
  -30.1831  -24.2119   18.8533 H   0  0  0  0  0  0
  -30.5587  -25.3755   20.0737 H   0  0  0  0  0  0
  -29.9657  -23.7718   21.8786 H   0  0  0  0  0  0
  -31.1819  -23.1075   20.8495 H   0  0  0  0  0  0
  -28.1434  -25.1005   18.7134 H   0  0  0  0  0  0
  -30.4429  -21.3186   19.2011 H   0  0  0  0  0  0
  -30.9067  -20.8616   20.7982 H   0  0  0  0  0  0
  -29.1303  -15.4490   21.4953 H   0  0  0  0  0  0
  -29.0963  -21.8645   21.6642 H   0  0  0  0  0  0
  1 25  1  0  0  0
  1 30  2  0  0  0
  1 85  1  0  0  0
  2  3  1  0  0  0
  2 25  1  0  0  0
  2 88  1  0  0  0
  2 89  1  0  0  0
  3  4  1  0  0  0
  3 90  1  0  0  0
  3 91  1  0  0  0
  4  5  1  0  0  0
  4 92  1  0  0  0
  4 93  1  0  0  0
  5  6  1  0  0  0
  5 26  1  0  0  0
  5 94  1  0  0  0
  6 25  1  0  0  0
  6 95  1  0  0  0
  6 96  1  0  0  0
  7  8  2  0  0  0
  7 26  1  0  0  0
  7 29  1  0  0  0
  8  9  1  0  0  0
  8 22  1  0  0  0
  9 10  1  0  0  0
  9 27  2  0  0  0
 10 11  2  0  0  0
 10 15  1  0  0  0
 11 12  1  0  0  0
 11 97  1  0  0  0
 12 13  2  0  0  0
 12 98  1  0  0  0
 13 14  1  0  0  0
 13 31  1  0  0  0
 14 15  2  0  0  0
 14 99  1  0  0  0
 15100  1  0  0  0
 16 17  2  0  0  0
 16 21  1  0  0  0
 16 31  1  0  0  0
 17 18  1  0  0  0
 17101  1  0  0  0
 18 19  2  0  0  0
 18102  1  0  0  0
 19 20  1  0  0  0
 19 24  1  0  0  0
 20 21  2  0  0  0
 20103  1  0  0  0
 21 23  1  0  0  0
 22 28  1  0  0  0
 22 32  2  0  0  0
 26 27  1  0  0  0
 28104  1  0  0  0
 28105  1  0  0  0
 29106  1  0  0  0
 29107  1  0  0  0
 33 34  1  0  0  0
 33 66  1  0  0  0
 33 70  2  0  0  0
 34 36  1  0  0  0
 34 59  1  0  0  0
 34108  1  0  0  0
 35 44  2  0  0  0
 35 45  1  0  0  0
 35 68  1  0  0  0
 36 56  1  0  0  0
 36109  1  0  0  0
 37 39  1  0  0  0
 37 47  1  0  0  0
 37 66  1  0  0  0
 37110  1  0  0  0
 38 43  2  0  0  0
 38 46  1  0  0  0
 38 47  1  0  0  0
 39 64  1  0  0  0
 39 67  2  0  0  0
 40 52  1  0  0  0
 40 53  2  0  0  0
 40 58  1  0  0  0
 41111  1  0  0  0
 41112  1  0  0  0
 41113  1  0  0  0
 41 48  1  0  0  0
 42 43  1  0  0  0
 42 66  1  0  0  0
 42114  1  0  0  0
 42115  1  0  0  0
 43 44  1  0  0  0
 44116  1  0  0  0
 45 46  2  0  0  0
 45117  1  0  0  0
 46118  1  0  0  0
 47119  1  0  0  0
 47120  1  0  0  0
 48 56  1  0  0  0
 48 65  1  0  0  0
 48121  1  0  0  0
 49 50  1  0  0  0
 49 53  1  0  0  0
 49 64  1  0  0  0
 49122  1  0  0  0
 50 51  1  0  0  0
 50123  1  0  0  0
 50124  1  0  0  0
 51 52  1  0  0  0
 51125  1  0  0  0
 51126  1  0  0  0
 52127  1  0  0  0
 52128  1  0  0  0
 53 54  1  0  0  0
 54 55  2  0  0  0
 54129  1  0  0  0
 55 57  1  0  0  0
 55130  1  0  0  0
 56 69  2  0  0  0
 57 58  2  0  0  0
 57131  1  0  0  0
 58132  1  0  0  0
 59 60  1  0  0  0
 59 61  1  0  0  0
 59 62  1  0  0  0
 60133  1  0  0  0
 60134  1  0  0  0
 60135  1  0  0  0
 61136  1  0  0  0
 61137  1  0  0  0
 61138  1  0  0  0
 62139  1  0  0  0
 62140  1  0  0  0
 62141  1  0  0  0
 63 65  1  0  0  0
 63142  1  0  0  0
 63143  1  0  0  0
 63144  1  0  0  0
 64145  1  0  0  0
 65146  1  0  0  0
 68 83  1  0  0  0
 71 78  2  0  0  0
 71 79  2  0  0  0
 72 75  2  0  0  0
 72 76  1  0  0  0
 72147  1  0  0  0
 73 75  1  0  0  0
 73 77  2  0  0  0
 73148  1  0  0  0
 74 76  2  0  0  0
 74 77  1  0  0  0
 74149  1  0  0  0
 75 84  1  0  0  0
 76 85  1  0  0  0
 77 87  1  0  0  0
 78 80  1  0  0  0
 78 86  1  0  0  0
 79150  1  0  0  0
 79151  1  0  0  0
 80 83  1  0  0  0
 80152  1  0  0  0
 80153  1  0  0  0
 81 82  1  0  0  0
 81 83  1  0  0  0
 81154  1  0  0  0
 81155  1  0  0  0
 82 86  1  0  0  0
 82156  1  0  0  0
 82157  1  0  0  0
 83158  1  0  0  0
 84159  1  0  0  0
 84160  1  0  0  0
 84 86  1  0  0  0
 85161  1  0  0  0
 86162  1  0  0  0
M  CHG  1  86   1
M  ISO  4   1 100  68 101  83 101  85 100
M  END
> <chiral flag>
0

> <version>
0

> <s_m_source_file>
/data/baiqing/PycharmProjects/Reinvent-master-3.2/result/LINK_invent/BTK/process_docking_weight1_custom_product_contain_oxygen_bond_distance_aromatic_linkinvent_7_9_3/rearranged_h_0043.sdf

> <i_m_source_file_index>
27

> <r_mmod_Potential_Energy-OPLS-2005>
-83.1071243286133

> <r_mmod_Stretch_Energy-OPLS-2005>
90.9655609130859

> <r_mmod_Bend_Energy-OPLS-2005>
181.754898071289

> <r_mmod_Torsional_Energy-OPLS-2005>
195.804443359375

> <r_mmod_Improper_Torsional_Energy-OPLS-2005>
8.13717842102051

> <r_mmod_Van_der_Waal_Energy-OPLS-2005>
145.7158203125

> <r_mmod_Electrostatic_Energy-OPLS-2005>
-289.398559570312

> <r_mmod_Solvation_Energy-OPLS-2005>
-467.041625976562

> <b_mmod_Minimization_Converged-OPLS-2005>
0

> <r_mmod_RMS_Derivative-OPLS-2005>
3.19554281234741

$$$$
27
                    3D
 Structure written by MMmdl.
167176  0  0  1  0            999 V2000
  -30.6056  -14.6422   20.5071 C   0  0  0  0  0  0
  -30.4451  -12.3947   19.4490 C   0  0  0  0  0  0
  -29.5102  -12.5072   18.2226 C   0  0  0  0  0  0
  -28.0321  -12.3440   18.6330 C   0  0  0  0  0  0
  -27.6548  -13.2105   19.8635 C   0  0  2  0  0  0
  -28.6997  -13.0527   20.9921 C   0  0  0  0  0  0
  -25.2569  -13.8143   20.5661 C   0  0  0  0  0  0
  -24.1834  -13.0427   20.9196 C   0  0  0  0  0  0
  -24.6394  -11.6895   20.8746 C   0  0  0  0  0  0
  -23.9057  -10.4287   21.0415 C   0  0  0  0  0  0
  -24.3612   -9.4203   21.9190 C   0  0  0  0  0  0
  -23.6288   -8.2238   22.0756 C   0  0  0  0  0  0
  -22.4272   -8.0276   21.3541 C   0  0  0  0  0  0
  -21.9904   -9.0252   20.4652 C   0  0  0  0  0  0
  -22.7230  -10.2135   20.3065 C   0  0  0  0  0  0
  -21.6851   -6.0731   22.5275 C   0  0  0  0  0  0
  -21.4012   -6.5636   23.8207 C   0  0  0  0  0  0
  -21.3657   -5.6790   24.9171 C   0  0  0  0  0  0
  -21.6045   -4.3056   24.7222 C   0  0  0  0  0  0
  -21.8821   -3.8142   23.4346 C   0  0  0  0  0  0
  -21.9195   -4.6958   22.3402 C   0  0  0  0  0  0
  -22.7859  -13.5232   21.1852 C   0  0  0  0  0  0
  -22.1663   -4.2142   21.0981 F   0  0  0  0  0  0
  -21.5632   -3.4541   25.7737 F   0  0  0  0  0  0
  -30.0162  -13.4063   20.4344 N   0  0  0  0  0  0
  -26.2992  -12.9314   20.3302 N   0  0  0  0  0  0
  -25.9319  -11.6477   20.5751 N   0  0  0  0  0  0
  -22.0494  -12.8238   22.0415 N   0  0  0  0  0  0
  -25.4280  -15.1855   20.4013 N   0  0  0  0  0  0
  -31.7640  -14.8315   20.1222 O   0  0  0  0  0  0
  -21.6638   -6.8871   21.4236 O   0  0  0  0  0  0
  -22.3549  -14.5537   20.6690 O   0  0  0  0  0  0
  -24.6254  -31.8601   23.2033 C   0  0  0  0  0  0
  -25.9104  -32.4778   23.8360 C   0  0  1  0  0  0
  -27.2254  -27.3270   20.1134 C   0  0  0  0  0  0
  -25.5923  -33.8578   24.2284 N   0  0  0  0  0  0
  -23.4187  -30.4843   21.5459 C   0  0  2  0  0  0
  -24.8653  -28.9412   20.1114 C   0  0  0  0  0  0
  -22.7472  -29.4625   22.4939 C   0  0  0  0  0  0
  -18.0288  -28.1382   22.8486 C   0  0  0  0  0  0
  -24.1489  -36.7297   23.2636 C   0  0  0  0  0  0
  -25.9598  -30.7932   21.3739 C   0  0  0  0  0  0
  -26.0345  -29.4221   20.7144 C   0  0  0  0  0  0
  -27.2183  -28.6274   20.7044 C   0  0  0  0  0  0
  -26.0324  -26.8984   19.4858 C   0  0  0  0  0  0
  -24.8659  -27.6843   19.4887 C   0  0  0  0  0  0
  -23.6329  -29.8201   20.1609 C   0  0  0  0  0  0
  -25.4113  -36.3083   24.0327 C   0  0  1  0  0  0
  -20.5887  -28.3685   23.1285 C   0  0  2  0  0  0
  -20.6774  -26.9408   22.5412 C   0  0  0  0  0  0
  -19.5752  -26.6381   21.5212 C   0  0  0  0  0  0
  -18.1933  -26.7925   22.1626 C   0  0  0  0  0  0
  -19.1540  -28.8850   23.2881 C   0  0  0  0  0  0
  -18.9462  -30.1454   23.8896 C   0  0  0  0  0  0
  -17.6461  -30.6583   24.0565 C   0  0  0  0  0  0
  -25.9048  -34.9451   23.5104 C   0  0  0  0  0  0
  -16.5352  -29.9083   23.6329 C   0  0  0  0  0  0
  -16.7276  -28.6502   23.0348 C   0  0  0  0  0  0
  -26.4491  -31.6585   25.0726 C   0  0  0  0  0  0
  -25.3733  -31.3744   26.1466 C   0  0  0  0  0  0
  -27.0314  -30.2997   24.6181 C   0  0  0  0  0  0
  -27.6062  -32.4312   25.7485 C   0  0  0  0  0  0
  -27.5582  -37.1799   24.8461 C   0  0  0  0  0  0
  -21.4187  -29.3039   22.3679 N   0  0  0  0  0  0
  -26.4293  -37.3776   23.9407 N   0  0  0  0  0  0
  -24.6866  -31.0621   22.0980 N   0  0  0  0  0  0
  -23.4200  -28.8163   23.3012 O   0  0  0  0  0  0
  -28.3452  -26.4829   20.1602 O   0  0  0  0  0  0
  -26.5618  -34.8915   22.4671 O   0  0  0  0  0  0
  -23.5418  -32.1399   23.7364 O   0  0  0  0  0  0
  -28.3830  -19.1506   20.2823 C   0  0  0  0  0  0
  -28.5045  -17.7499   20.4992 C   0  0  0  0  0  0
  -30.8942  -17.9588   20.6204 C   0  0  0  0  0  0
  -29.5089  -20.0127   20.2384 C   0  0  0  0  0  0
  -29.7589  -17.1039   20.6476 C   0  0  0  0  0  0
  -30.7739  -19.3753   20.4307 C   0  0  0  0  0  0
  -28.8953  -23.9241   23.9804 C   0  0  0  0  0  0
  -29.2169  -24.8803   23.0901 C   0  0  0  0  0  0
  -29.2918  -22.4626   23.8788 C   0  0  0  0  0  0
  -30.0582  -24.6939   21.8345 C   0  0  0  0  0  0
  -28.2574  -21.6262   23.0978 C   0  0  0  0  0  0
  -27.8470  -22.2468   21.7464 C   0  0  0  0  0  0
  -29.3067  -24.0644   20.6325 C   0  0  2  0  0  0
  -29.3461  -21.5392   19.8470 C   0  0  0  0  0  0
  -28.1074  -25.0185   20.1702 C   0  0  0  0  0  0
  -29.7642  -15.6581   20.8764 N   0  0  0  0  0  0
  -29.0432  -22.5694   20.9216 N   0  3  2  0  0  0
  -32.2207  -20.3196   20.4188 Cl  0  0  0  0  0  0
  -31.4844  -12.5333   19.1459 H   0  0  0  0  0  0
  -30.3909  -11.3960   19.8850 H   0  0  0  0  0  0
  -29.7747  -11.7559   17.4773 H   0  0  0  0  0  0
  -29.6508  -13.4762   17.7406 H   0  0  0  0  0  0
  -27.8681  -11.2899   18.8599 H   0  0  0  0  0  0
  -27.3783  -12.5771   17.7916 H   0  0  0  0  0  0
  -27.6753  -14.2470   19.5265 H   0  0  0  0  0  0
  -28.7127  -12.0253   21.3588 H   0  0  0  0  0  0
  -28.4415  -13.6684   21.8553 H   0  0  0  0  0  0
  -25.2762   -9.5678   22.4758 H   0  0  0  0  0  0
  -23.9998   -7.4632   22.7476 H   0  0  0  0  0  0
  -21.0832   -8.8774   19.8962 H   0  0  0  0  0  0
  -22.3687  -10.9676   19.6175 H   0  0  0  0  0  0
  -21.2000   -7.6144   23.9707 H   0  0  0  0  0  0
  -21.1476   -6.0523   25.9073 H   0  0  0  0  0  0
  -22.0602   -2.7603   23.2850 H   0  0  0  0  0  0
  -22.4103  -11.9906   22.4822 H   0  0  0  0  0  0
  -21.1112  -13.1272   22.2611 H   0  0  0  0  0  0
  -24.6522  -15.8332   20.4870 H   0  0  0  0  0  0
  -26.2502  -15.6052   19.9897 H   0  0  0  0  0  0
  -26.7172  -32.5451   23.1110 H   0  0  0  0  0  0
  -25.0067  -33.9725   25.0425 H   0  0  0  0  0  0
  -22.7121  -31.3047   21.4036 H   0  0  0  0  0  0
  -23.3745  -35.9636   23.3298 H   0  0  0  0  0  0
  -24.3580  -36.8918   22.2051 H   0  0  0  0  0  0
  -23.7247  -37.6501   23.6659 H   0  0  0  0  0  0
  -26.0921  -31.5581   20.6075 H   0  0  0  0  0  0
  -26.8398  -30.8397   22.0038 H   0  0  0  0  0  0
  -28.1155  -28.9922   21.1846 H   0  0  0  0  0  0
  -25.9726  -25.9419   18.9890 H   0  0  0  0  0  0
  -23.9705  -27.3113   19.0106 H   0  0  0  0  0  0
  -23.7516  -30.5976   19.4055 H   0  0  0  0  0  0
  -22.7532  -29.2493   19.8577 H   0  0  0  0  0  0
  -25.1292  -36.1936   25.0819 H   0  0  0  0  0  0
  -20.9980  -28.3257   24.1405 H   0  0  0  0  0  0
  -20.5672  -26.2294   23.3610 H   0  0  0  0  0  0
  -21.6643  -26.7433   22.1207 H   0  0  0  0  0  0
  -19.6912  -25.6292   21.1239 H   0  0  0  0  0  0
  -19.6691  -27.3194   20.6745 H   0  0  0  0  0  0
  -17.4200  -26.6669   21.4030 H   0  0  0  0  0  0
  -18.0339  -26.0068   22.9026 H   0  0  0  0  0  0
  -19.7936  -30.7274   24.2261 H   0  0  0  0  0  0
  -17.5013  -31.6261   24.5168 H   0  0  0  0  0  0
  -15.5352  -30.2985   23.7650 H   0  0  0  0  0  0
  -15.8678  -28.0823   22.7059 H   0  0  0  0  0  0
  -24.5883  -30.7116   25.7806 H   0  0  0  0  0  0
  -24.8958  -32.2924   26.4902 H   0  0  0  0  0  0
  -25.8061  -30.8911   27.0233 H   0  0  0  0  0  0
  -26.2878  -29.6761   24.1205 H   0  0  0  0  0  0
  -27.3995  -29.7245   25.4686 H   0  0  0  0  0  0
  -27.8763  -30.4263   23.9408 H   0  0  0  0  0  0
  -27.2680  -33.3611   26.2070 H   0  0  0  0  0  0
  -28.3865  -32.6872   25.0305 H   0  0  0  0  0  0
  -28.0736  -31.8431   26.5392 H   0  0  0  0  0  0
  -28.2600  -38.0095   24.7502 H   0  0  0  0  0  0
  -28.1077  -36.2625   24.6290 H   0  0  0  0  0  0
  -27.2302  -37.1451   25.8865 H   0  0  0  0  0  0
  -20.9359  -29.8769   21.6901 H   0  0  0  0  0  0
  -26.0175  -38.2849   24.1413 H   0  0  0  0  0  0
  -27.3940  -19.5549   20.1215 H   0  0  0  0  0  0
  -27.5981  -17.1626   20.5274 H   0  0  0  0  0  0
  -31.8790  -17.5353   20.7543 H   0  0  0  0  0  0
  -28.2552  -24.1840   24.8132 H   0  0  0  0  0  0
  -28.8296  -25.8785   23.2472 H   0  0  0  0  0  0
  -29.4099  -22.0643   24.8874 H   0  0  0  0  0  0
  -30.2750  -22.3752   23.4169 H   0  0  0  0  0  0
  -30.9440  -24.1056   22.0761 H   0  0  0  0  0  0
  -30.4445  -25.6749   21.5531 H   0  0  0  0  0  0
  -27.3607  -21.5033   23.7069 H   0  0  0  0  0  0
  -28.6478  -20.6185   22.9485 H   0  0  0  0  0  0
  -27.2436  -23.1239   21.9592 H   0  0  0  0  0  0
  -27.1745  -21.5780   21.2097 H   0  0  0  0  0  0
  -30.0269  -24.0884   19.8134 H   0  0  0  0  0  0
  -28.5588  -21.6064   19.0951 H   0  0  0  0  0  0
  -30.2509  -21.8464   19.3231 H   0  0  0  0  0  0
  -27.2439  -24.8595   20.8121 H   0  0  0  0  0  0
  -27.8039  -24.7052   19.1710 H   0  0  0  0  0  0
  -28.8703  -15.2910   21.1637 H   0  0  0  0  0  0
  -29.7863  -22.3792   21.5768 H   0  0  0  0  0  0
  1 25  1  0  0  0
  1 30  2  0  0  0
  1 86  1  0  0  0
  2  3  1  0  0  0
  2 25  1  0  0  0
  2 89  1  0  0  0
  2 90  1  0  0  0
  3  4  1  0  0  0
  3 91  1  0  0  0
  3 92  1  0  0  0
  4  5  1  0  0  0
  4 93  1  0  0  0
  4 94  1  0  0  0
  5  6  1  0  0  0
  5 26  1  0  0  0
  5 95  1  0  0  0
  6 25  1  0  0  0
  6 96  1  0  0  0
  6 97  1  0  0  0
  7  8  2  0  0  0
  7 26  1  0  0  0
  7 29  1  0  0  0
  8  9  1  0  0  0
  8 22  1  0  0  0
  9 10  1  0  0  0
  9 27  2  0  0  0
 10 11  2  0  0  0
 10 15  1  0  0  0
 11 12  1  0  0  0
 11 98  1  0  0  0
 12 13  2  0  0  0
 12 99  1  0  0  0
 13 14  1  0  0  0
 13 31  1  0  0  0
 14 15  2  0  0  0
 14100  1  0  0  0
 15101  1  0  0  0
 16 17  2  0  0  0
 16 21  1  0  0  0
 16 31  1  0  0  0
 17 18  1  0  0  0
 17102  1  0  0  0
 18 19  2  0  0  0
 18103  1  0  0  0
 19 20  1  0  0  0
 19 24  1  0  0  0
 20 21  2  0  0  0
 20104  1  0  0  0
 21 23  1  0  0  0
 22 28  1  0  0  0
 22 32  2  0  0  0
 26 27  1  0  0  0
 28105  1  0  0  0
 28106  1  0  0  0
 29107  1  0  0  0
 29108  1  0  0  0
 33 34  1  0  0  0
 33 66  1  0  0  0
 33 70  2  0  0  0
 34 36  1  0  0  0
 34 59  1  0  0  0
 34109  1  0  0  0
 35 44  2  0  0  0
 35 45  1  0  0  0
 35 68  1  0  0  0
 36 56  1  0  0  0
 36110  1  0  0  0
 37 39  1  0  0  0
 37 47  1  0  0  0
 37 66  1  0  0  0
 37111  1  0  0  0
 38 43  2  0  0  0
 38 46  1  0  0  0
 38 47  1  0  0  0
 39 64  1  0  0  0
 39 67  2  0  0  0
 40 52  1  0  0  0
 40 53  2  0  0  0
 40 58  1  0  0  0
 41112  1  0  0  0
 41113  1  0  0  0
 41114  1  0  0  0
 41 48  1  0  0  0
 42 43  1  0  0  0
 42 66  1  0  0  0
 42115  1  0  0  0
 42116  1  0  0  0
 43 44  1  0  0  0
 44117  1  0  0  0
 45 46  2  0  0  0
 45118  1  0  0  0
 46119  1  0  0  0
 47120  1  0  0  0
 47121  1  0  0  0
 48 56  1  0  0  0
 48 65  1  0  0  0
 48122  1  0  0  0
 49 50  1  0  0  0
 49 53  1  0  0  0
 49 64  1  0  0  0
 49123  1  0  0  0
 50 51  1  0  0  0
 50124  1  0  0  0
 50125  1  0  0  0
 51 52  1  0  0  0
 51126  1  0  0  0
 51127  1  0  0  0
 52128  1  0  0  0
 52129  1  0  0  0
 53 54  1  0  0  0
 54 55  2  0  0  0
 54130  1  0  0  0
 55 57  1  0  0  0
 55131  1  0  0  0
 56 69  2  0  0  0
 57 58  2  0  0  0
 57132  1  0  0  0
 58133  1  0  0  0
 59 60  1  0  0  0
 59 61  1  0  0  0
 59 62  1  0  0  0
 60134  1  0  0  0
 60135  1  0  0  0
 60136  1  0  0  0
 61137  1  0  0  0
 61138  1  0  0  0
 61139  1  0  0  0
 62140  1  0  0  0
 62141  1  0  0  0
 62142  1  0  0  0
 63 65  1  0  0  0
 63143  1  0  0  0
 63144  1  0  0  0
 63145  1  0  0  0
 64146  1  0  0  0
 65147  1  0  0  0
 68 85  1  0  0  0
 71 72  2  0  0  0
 71 74  1  0  0  0
 71148  1  0  0  0
 72 75  1  0  0  0
 72149  1  0  0  0
 73 75  2  0  0  0
 73 76  1  0  0  0
 73150  1  0  0  0
 74 76  2  0  0  0
 74 84  1  0  0  0
 75 86  1  0  0  0
 76 88  1  0  0  0
 77 78  2  0  0  0
 77 79  1  0  0  0
 77151  1  0  0  0
 78 80  1  0  0  0
 78152  1  0  0  0
 79 81  1  0  0  0
 79153  1  0  0  0
 79154  1  0  0  0
 80 83  1  0  0  0
 80155  1  0  0  0
 80156  1  0  0  0
 81 82  1  0  0  0
 81157  1  0  0  0
 81158  1  0  0  0
 82 87  1  0  0  0
 82159  1  0  0  0
 82160  1  0  0  0
 83 85  1  0  0  0
 83 87  1  0  0  0
 83161  1  0  0  0
 84162  1  0  0  0
 84163  1  0  0  0
 84 87  1  0  0  0
 85164  1  0  0  0
 85165  1  0  0  0
 86166  1  0  0  0
 87167  1  0  0  0
M  CHG  1  87   1
M  ISO  4   1 100  68 101  85 101  86 100
M  END
> <chiral flag>
0

> <version>
0

> <s_m_source_file>
/data/baiqing/PycharmProjects/Reinvent-master-3.2/result/LINK_invent/BTK/process_docking_weight1_custom_product_contain_oxygen_bond_distance_aromatic_linkinvent_7_9_3/rearranged_h_0043.sdf

> <i_m_source_file_index>
28

> <r_mmod_Potential_Energy-OPLS-2005>
54.3077697753906

> <r_mmod_Stretch_Energy-OPLS-2005>
86.495719909668

> <r_mmod_Bend_Energy-OPLS-2005>
158.67887878418

> <r_mmod_Torsional_Energy-OPLS-2005>
262.412231445312

> <r_mmod_Improper_Torsional_Energy-OPLS-2005>
5.51896810531616

> <r_mmod_Van_der_Waal_Energy-OPLS-2005>
141.402038574219

> <r_mmod_Electrostatic_Energy-OPLS-2005>
-234.713272094727

> <r_mmod_Solvation_Energy-OPLS-2005>
-413.251129150391

> <b_mmod_Minimization_Converged-OPLS-2005>
0

> <r_mmod_RMS_Derivative-OPLS-2005>
0.595800578594208

$$$$
28
                    3D
 Structure written by MMmdl.
176185  0  0  1  0            999 V2000
  -30.7834  -14.3580   20.6043 C   0  0  0  0  0  0
  -30.3945  -12.2478   19.4209 C   0  0  0  0  0  0
  -29.4797  -12.4974   18.2086 C   0  0  0  0  0  0
  -28.0047  -12.3777   18.6259 C   0  0  0  0  0  0
  -27.6662  -13.2095   19.8926 C   0  0  2  0  0  0
  -28.7044  -12.9790   21.0148 C   0  0  0  0  0  0
  -25.2599  -13.8191   20.5720 C   0  0  0  0  0  0
  -24.1830  -13.0463   20.9163 C   0  0  0  0  0  0
  -24.6392  -11.6929   20.8754 C   0  0  0  0  0  0
  -23.9052  -10.4296   21.0415 C   0  0  0  0  0  0
  -24.3600   -9.4208   21.9194 C   0  0  0  0  0  0
  -23.6277   -8.2244   22.0772 C   0  0  0  0  0  0
  -22.4271   -8.0279   21.3548 C   0  0  0  0  0  0
  -21.9905   -9.0250   20.4644 C   0  0  0  0  0  0
  -22.7237  -10.2136   20.3048 C   0  0  0  0  0  0
  -21.6864   -6.0715   22.5268 C   0  0  0  0  0  0
  -21.4021   -6.5625   23.8196 C   0  0  0  0  0  0
  -21.3660   -5.6789   24.9169 C   0  0  0  0  0  0
  -21.6044   -4.3048   24.7227 C   0  0  0  0  0  0
  -21.8828   -3.8125   23.4351 C   0  0  0  0  0  0
  -21.9199   -4.6933   22.3400 C   0  0  0  0  0  0
  -22.7851  -13.5248   21.1821 C   0  0  0  0  0  0
  -22.1674   -4.2110   21.0983 F   0  0  0  0  0  0
  -21.5614   -3.4548   25.7755 F   0  0  0  0  0  0
  -30.0466  -13.2265   20.4625 N   0  0  0  0  0  0
  -26.3045  -12.9353   20.3481 N   0  0  0  0  0  0
  -25.9325  -11.6509   20.5832 N   0  0  0  0  0  0
  -22.0497  -12.8213   22.0353 N   0  0  0  0  0  0
  -25.4339  -15.1900   20.4110 N   0  0  0  0  0  0
  -31.8576  -14.5258   20.0190 O   0  0  0  0  0  0
  -21.6655   -6.8866   21.4243 O   0  0  0  0  0  0
  -22.3549  -14.5569   20.6718 O   0  0  0  0  0  0
  -24.6086  -31.8710   23.2167 C   0  0  0  0  0  0
  -25.8978  -32.4863   23.8445 C   0  0  1  0  0  0
  -27.2198  -27.4810   20.0617 C   0  0  0  0  0  0
  -25.5852  -33.8667   24.2373 N   0  0  0  0  0  0
  -23.3948  -30.4958   21.5592 C   0  0  2  0  0  0
  -24.8341  -28.9672   20.1249 C   0  0  0  0  0  0
  -22.7367  -29.4651   22.5034 C   0  0  0  0  0  0
  -18.0253  -28.1387   22.8523 C   0  0  0  0  0  0
  -24.1477  -36.7320   23.2635 C   0  0  0  0  0  0
  -25.9201  -30.8470   21.3645 C   0  0  0  0  0  0
  -25.9947  -29.4837   20.7145 C   0  0  0  0  0  0
  -27.1907  -28.7387   20.6951 C   0  0  0  0  0  0
  -26.0355  -26.9539   19.5010 C   0  0  0  0  0  0
  -24.8419  -27.6956   19.5292 C   0  0  0  0  0  0
  -23.5983  -29.8328   20.1732 C   0  0  0  0  0  0
  -25.4115  -36.3158   24.0341 C   0  0  1  0  0  0
  -20.5849  -28.3648   23.1358 C   0  0  2  0  0  0
  -20.6759  -26.9400   22.5432 C   0  0  0  0  0  0
  -19.5734  -26.6419   21.5224 C   0  0  0  0  0  0
  -18.1908  -26.7951   22.1632 C   0  0  0  0  0  0
  -19.1509  -28.8834   23.2935 C   0  0  0  0  0  0
  -18.9436  -30.1453   23.8942 C   0  0  0  0  0  0
  -17.6443  -30.6606   24.0588 C   0  0  0  0  0  0
  -25.9041  -34.9509   23.5172 C   0  0  0  0  0  0
  -16.5328  -29.9119   23.6335 C   0  0  0  0  0  0
  -16.7239  -28.6526   23.0367 C   0  0  0  0  0  0
  -26.4439  -31.6629   25.0743 C   0  0  0  0  0  0
  -25.3707  -31.3650   26.1471 C   0  0  0  0  0  0
  -27.0273  -30.3107   24.6038 C   0  0  0  0  0  0
  -27.6033  -32.4324   25.7501 C   0  0  0  0  0  0
  -27.5588  -37.1832   24.8456 C   0  0  0  0  0  0
  -21.4102  -29.3012   22.3760 N   0  0  0  0  0  0
  -26.4306  -37.3840   23.9404 N   0  0  0  0  0  0
  -24.6605  -31.0846   22.1057 N   0  0  0  0  0  0
  -23.4153  -28.8165   23.3036 O   0  0  0  0  0  0
  -28.3999  -26.7925   20.0035 O   0  0  0  0  0  0
  -26.5612  -34.8937   22.4739 O   0  0  0  0  0  0
  -23.5283  -32.1424   23.7582 O   0  0  0  0  0  0
  -31.9252  -25.5431   19.8236 C   0  0  0  0  0  0
  -31.6491  -24.7027   20.9103 C   0  0  0  0  0  0
  -30.6751  -17.4071   20.1489 C   0  0  0  0  0  0
  -31.7048  -17.0806   22.3345 C   0  0  0  0  0  0
  -30.9617  -22.9233   19.3766 C   0  0  0  0  0  0
  -31.6896  -25.1122   18.5016 C   0  0  0  0  0  0
  -31.4805  -18.5413   19.9108 C   0  0  0  0  0  0
  -31.2146  -23.7885   18.2640 C   0  0  0  0  0  0
  -32.4536  -18.9132   20.8824 C   0  0  0  0  0  0
  -30.8362  -16.6366   21.3200 C   0  0  0  0  0  0
  -32.5168  -18.2088   22.1100 C   0  0  0  0  0  0
  -31.1651  -23.4030   20.6984 C   0  0  0  0  0  0
  -30.4927  -21.5052   19.1851 C   0  0  0  0  0  0
  -30.9401  -23.3338   16.8274 C   0  0  0  0  0  0
  -33.4894  -19.9962   20.6134 C   0  0  0  0  0  0
  -31.3215  -19.2439   18.5607 C   0  0  0  0  0  0
  -31.8765  -26.1426   17.3842 C   0  0  0  0  0  0
  -29.8025  -27.3963   18.1218 C   0  0  0  0  0  0
  -28.7959  -26.3782   18.6985 C   0  0  0  0  0  0
  -30.2776  -15.3335   21.3753 N   0  0  0  0  0  0
  -31.3900  -20.6981   18.6108 N   0  0  0  0  0  0
  -30.6218  -26.8437   17.0101 N   0  3  0  0  0  0
  -29.3851  -21.1297   19.5754 O   0  0  0  0  0  0
  -33.4149  -18.5689   23.0584 F   0  0  0  0  0  0
  -30.8676  -22.4254   22.0990 Cl  0  0  0  0  0  0
  -31.4419  -12.2982   19.1163 H   0  0  0  0  0  0
  -30.2556  -11.2348   19.8044 H   0  0  0  0  0  0
  -29.6967  -11.7831   17.4134 H   0  0  0  0  0  0
  -29.6701  -13.4887   17.7930 H   0  0  0  0  0  0
  -27.8028  -11.3205   18.8112 H   0  0  0  0  0  0
  -27.3552  -12.6704   17.8007 H   0  0  0  0  0  0
  -27.7180  -14.2602   19.6097 H   0  0  0  0  0  0
  -28.6458  -11.9530   21.3830 H   0  0  0  0  0  0
  -28.4826  -13.6085   21.8778 H   0  0  0  0  0  0
  -25.2750   -9.5678   22.4770 H   0  0  0  0  0  0
  -23.9971   -7.4649   22.7519 H   0  0  0  0  0  0
  -21.0828   -8.8775   19.8943 H   0  0  0  0  0  0
  -22.3708  -10.9670   19.6145 H   0  0  0  0  0  0
  -21.2030   -7.6143   23.9683 H   0  0  0  0  0  0
  -21.1471   -6.0536   25.9069 H   0  0  0  0  0  0
  -22.0604   -2.7587   23.2891 H   0  0  0  0  0  0
  -22.4144  -11.9833   22.4637 H   0  0  0  0  0  0
  -21.1111  -13.1206   22.2580 H   0  0  0  0  0  0
  -24.6762  -15.8564   20.5132 H   0  0  0  0  0  0
  -26.2991  -15.6182   20.1071 H   0  0  0  0  0  0
  -26.7035  -32.5587   23.1205 H   0  0  0  0  0  0
  -24.9990  -33.9846   25.0507 H   0  0  0  0  0  0
  -22.6823  -31.3117   21.4246 H   0  0  0  0  0  0
  -23.3786  -35.9605   23.3301 H   0  0  0  0  0  0
  -24.3557  -36.8934   22.2046 H   0  0  0  0  0  0
  -23.7164  -37.6495   23.6655 H   0  0  0  0  0  0
  -26.0193  -31.6113   20.5932 H   0  0  0  0  0  0
  -26.8149  -30.9060   21.9723 H   0  0  0  0  0  0
  -28.0970  -29.1309   21.1351 H   0  0  0  0  0  0
  -26.0208  -25.9732   19.0473 H   0  0  0  0  0  0
  -23.9385  -27.2856   19.0995 H   0  0  0  0  0  0
  -23.7072  -30.6087   19.4154 H   0  0  0  0  0  0
  -22.7216  -29.2523   19.8792 H   0  0  0  0  0  0
  -25.1296  -36.2072   25.0837 H   0  0  0  0  0  0
  -20.9929  -28.3218   24.1480 H   0  0  0  0  0  0
  -20.5724  -26.2229   23.3596 H   0  0  0  0  0  0
  -21.6628  -26.7494   22.1190 H   0  0  0  0  0  0
  -19.6911  -25.6342   21.1220 H   0  0  0  0  0  0
  -19.6703  -27.3264   20.6783 H   0  0  0  0  0  0
  -17.4191  -26.6708   21.4025 H   0  0  0  0  0  0
  -18.0291  -26.0086   22.9011 H   0  0  0  0  0  0
  -19.7898  -30.7255   24.2355 H   0  0  0  0  0  0
  -17.4986  -31.6297   24.5170 H   0  0  0  0  0  0
  -15.5337  -30.3037   23.7642 H   0  0  0  0  0  0
  -15.8627  -28.0858   22.7085 H   0  0  0  0  0  0
  -24.5897  -30.7002   25.7753 H   0  0  0  0  0  0
  -24.8861  -32.2752   26.5005 H   0  0  0  0  0  0
  -25.8050  -30.8735   27.0183 H   0  0  0  0  0  0
  -26.2798  -29.6886   24.1095 H   0  0  0  0  0  0
  -27.4086  -29.7315   25.4457 H   0  0  0  0  0  0
  -27.8611  -30.4489   23.9148 H   0  0  0  0  0  0
  -27.2700  -33.3624   26.2122 H   0  0  0  0  0  0
  -28.3833  -32.6877   25.0313 H   0  0  0  0  0  0
  -28.0709  -31.8399   26.5371 H   0  0  0  0  0  0
  -28.2619  -38.0126   24.7577 H   0  0  0  0  0  0
  -28.1084  -36.2668   24.6260 H   0  0  0  0  0  0
  -27.2278  -37.1447   25.8844 H   0  0  0  0  0  0
  -20.9238  -29.8706   21.6973 H   0  0  0  0  0  0
  -26.0214  -38.2916   24.1455 H   0  0  0  0  0  0
  -32.2825  -26.5443   20.0211 H   0  0  0  0  0  0
  -31.8061  -25.0577   21.9189 H   0  0  0  0  0  0
  -30.0000  -17.0642   19.3757 H   0  0  0  0  0  0
  -31.8321  -16.5056   23.2409 H   0  0  0  0  0  0
  -31.8673  -23.0086   16.3520 H   0  0  0  0  0  0
  -30.5146  -24.1308   16.2173 H   0  0  0  0  0  0
  -30.2255  -22.5137   16.7589 H   0  0  0  0  0  0
  -33.8837  -19.9133   19.5983 H   0  0  0  0  0  0
  -34.3415  -19.9150   21.2872 H   0  0  0  0  0  0
  -33.0676  -20.9914   20.7424 H   0  0  0  0  0  0
  -30.3820  -18.9505   18.0869 H   0  0  0  0  0  0
  -32.1165  -18.8829   17.9087 H   0  0  0  0  0  0
  -32.3125  -25.6757   16.5008 H   0  0  0  0  0  0
  -32.6063  -26.8885   17.7004 H   0  0  0  0  0  0
  -30.4554  -27.7921   18.9018 H   0  0  0  0  0  0
  -29.2407  -28.2540   17.7466 H   0  0  0  0  0  0
  -29.2104  -25.3865   18.8280 H   0  0  0  0  0  0
  -27.9787  -26.2436   17.9906 H   0  0  0  0  0  0
  -29.4492  -15.1611   21.9265 H   0  0  0  0  0  0
  -32.2446  -21.1230   18.2793 H   0  0  0  0  0  0
  -30.0535  -26.2463   16.4331 H   0  0  0  0  0  0
  -30.9009  -27.6139   16.4222 H   0  0  0  0  0  0
  1 25  1  0  0  0
  1 30  2  0  0  0
  1 90  1  0  0  0
  2  3  1  0  0  0
  2 25  1  0  0  0
  2 96  1  0  0  0
  2 97  1  0  0  0
  3  4  1  0  0  0
  3 98  1  0  0  0
  3 99  1  0  0  0
  4  5  1  0  0  0
  4100  1  0  0  0
  4101  1  0  0  0
  5  6  1  0  0  0
  5 26  1  0  0  0
  5102  1  0  0  0
  6 25  1  0  0  0
  6103  1  0  0  0
  6104  1  0  0  0
  7  8  2  0  0  0
  7 26  1  0  0  0
  7 29  1  0  0  0
  8  9  1  0  0  0
  8 22  1  0  0  0
  9 10  1  0  0  0
  9 27  2  0  0  0
 10 11  2  0  0  0
 10 15  1  0  0  0
 11 12  1  0  0  0
 11105  1  0  0  0
 12 13  2  0  0  0
 12106  1  0  0  0
 13 14  1  0  0  0
 13 31  1  0  0  0
 14 15  2  0  0  0
 14107  1  0  0  0
 15108  1  0  0  0
 16 17  2  0  0  0
 16 21  1  0  0  0
 16 31  1  0  0  0
 17 18  1  0  0  0
 17109  1  0  0  0
 18 19  2  0  0  0
 18110  1  0  0  0
 19 20  1  0  0  0
 19 24  1  0  0  0
 20 21  2  0  0  0
 20111  1  0  0  0
 21 23  1  0  0  0
 22 28  1  0  0  0
 22 32  2  0  0  0
 26 27  1  0  0  0
 28112  1  0  0  0
 28113  1  0  0  0
 29114  1  0  0  0
 29115  1  0  0  0
 33 34  1  0  0  0
 33 66  1  0  0  0
 33 70  2  0  0  0
 34 36  1  0  0  0
 34 59  1  0  0  0
 34116  1  0  0  0
 35 44  2  0  0  0
 35 45  1  0  0  0
 35 68  1  0  0  0
 36 56  1  0  0  0
 36117  1  0  0  0
 37 39  1  0  0  0
 37 47  1  0  0  0
 37 66  1  0  0  0
 37118  1  0  0  0
 38 43  2  0  0  0
 38 46  1  0  0  0
 38 47  1  0  0  0
 39 64  1  0  0  0
 39 67  2  0  0  0
 40 52  1  0  0  0
 40 53  2  0  0  0
 40 58  1  0  0  0
 41119  1  0  0  0
 41120  1  0  0  0
 41121  1  0  0  0
 41 48  1  0  0  0
 42 43  1  0  0  0
 42 66  1  0  0  0
 42122  1  0  0  0
 42123  1  0  0  0
 43 44  1  0  0  0
 44124  1  0  0  0
 45 46  2  0  0  0
 45125  1  0  0  0
 46126  1  0  0  0
 47127  1  0  0  0
 47128  1  0  0  0
 48 56  1  0  0  0
 48 65  1  0  0  0
 48129  1  0  0  0
 49 50  1  0  0  0
 49 53  1  0  0  0
 49 64  1  0  0  0
 49130  1  0  0  0
 50 51  1  0  0  0
 50131  1  0  0  0
 50132  1  0  0  0
 51 52  1  0  0  0
 51133  1  0  0  0
 51134  1  0  0  0
 52135  1  0  0  0
 52136  1  0  0  0
 53 54  1  0  0  0
 54 55  2  0  0  0
 54137  1  0  0  0
 55 57  1  0  0  0
 55138  1  0  0  0
 56 69  2  0  0  0
 57 58  2  0  0  0
 57139  1  0  0  0
 58140  1  0  0  0
 59 60  1  0  0  0
 59 61  1  0  0  0
 59 62  1  0  0  0
 60141  1  0  0  0
 60142  1  0  0  0
 60143  1  0  0  0
 61144  1  0  0  0
 61145  1  0  0  0
 61146  1  0  0  0
 62147  1  0  0  0
 62148  1  0  0  0
 62149  1  0  0  0
 63 65  1  0  0  0
 63150  1  0  0  0
 63151  1  0  0  0
 63152  1  0  0  0
 64153  1  0  0  0
 65154  1  0  0  0
 68 89  1  0  0  0
 71 72  2  0  0  0
 71 76  1  0  0  0
 71155  1  0  0  0
 72 82  1  0  0  0
 72156  1  0  0  0
 73 77  2  0  0  0
 73 80  1  0  0  0
 73157  1  0  0  0
 74 80  2  0  0  0
 74 81  1  0  0  0
 74158  1  0  0  0
 75 78  1  0  0  0
 75 82  2  0  0  0
 75 83  1  0  0  0
 76 78  2  0  0  0
 76 87  1  0  0  0
 77 79  1  0  0  0
 77 86  1  0  0  0
 78 84  1  0  0  0
 79 81  2  0  0  0
 79 85  1  0  0  0
 80 90  1  0  0  0
 81 94  1  0  0  0
 82 95  1  0  0  0
 83 91  1  0  0  0
 83 93  2  0  0  0
 84159  1  0  0  0
 84160  1  0  0  0
 84161  1  0  0  0
 85162  1  0  0  0
 85163  1  0  0  0
 85164  1  0  0  0
 86 91  1  0  0  0
 86165  1  0  0  0
 86166  1  0  0  0
 87 92  1  0  0  0
 87167  1  0  0  0
 87168  1  0  0  0
 88 89  1  0  0  0
 88 92  1  0  0  0
 88169  1  0  0  0
 88170  1  0  0  0
 89171  1  0  0  0
 89172  1  0  0  0
 90173  1  0  0  0
 91174  1  0  0  0
 92175  1  0  0  0
 92176  1  0  0  0
M  CHG  1  92   1
M  ISO  4   1 100  68 101  89 101  90 100
M  END
> <chiral flag>
0

> <version>
0

> <s_m_source_file>
/data/baiqing/PycharmProjects/Reinvent-master-3.2/result/LINK_invent/BTK/process_docking_weight1_custom_product_contain_oxygen_bond_distance_aromatic_linkinvent_7_9_3/rearranged_h_0043.sdf

> <i_m_source_file_index>
29

> <r_mmod_Potential_Energy-OPLS-2005>
-170.142456054688

> <r_mmod_Stretch_Energy-OPLS-2005>
38.997802734375

> <r_mmod_Bend_Energy-OPLS-2005>
100.268280029297

> <r_mmod_Torsional_Energy-OPLS-2005>
280.439605712891

> <r_mmod_Improper_Torsional_Energy-OPLS-2005>
4.21992683410645

> <r_mmod_Van_der_Waal_Energy-OPLS-2005>
187.199203491211

> <r_mmod_Electrostatic_Energy-OPLS-2005>
-292.622528076172

> <r_mmod_Solvation_Energy-OPLS-2005>
-499.118194580078

> <b_mmod_Minimization_Converged-OPLS-2005>
0

> <r_mmod_RMS_Derivative-OPLS-2005>
3.5177309513092

$$$$
29
                    3D
 Structure written by MMmdl.
178187  0  0  1  0            999 V2000
  -30.7299  -14.4842   20.5751 C   0  0  0  0  0  0
  -30.4177  -12.3198   19.4243 C   0  0  0  0  0  0
  -29.4917  -12.5053   18.2063 C   0  0  0  0  0  0
  -28.0149  -12.3641   18.6217 C   0  0  0  0  0  0
  -27.6597  -13.2125   19.8721 C   0  0  2  0  0  0
  -28.7056  -13.0234   20.9950 C   0  0  0  0  0  0
  -25.2592  -13.8175   20.5700 C   0  0  0  0  0  0
  -24.1843  -13.0448   20.9191 C   0  0  0  0  0  0
  -24.6401  -11.6914   20.8743 C   0  0  0  0  0  0
  -23.9068  -10.4298   21.0412 C   0  0  0  0  0  0
  -24.3619   -9.4213   21.9192 C   0  0  0  0  0  0
  -23.6295   -8.2245   22.0759 C   0  0  0  0  0  0
  -22.4280   -8.0289   21.3548 C   0  0  0  0  0  0
  -21.9922   -9.0263   20.4647 C   0  0  0  0  0  0
  -22.7243  -10.2145   20.3057 C   0  0  0  0  0  0
  -21.6853   -6.0749   22.5282 C   0  0  0  0  0  0
  -21.4012   -6.5652   23.8219 C   0  0  0  0  0  0
  -21.3658   -5.6802   24.9180 C   0  0  0  0  0  0
  -21.6043   -4.3064   24.7224 C   0  0  0  0  0  0
  -21.8818   -3.8159   23.4345 C   0  0  0  0  0  0
  -21.9194   -4.6979   22.3403 C   0  0  0  0  0  0
  -22.7867  -13.5247   21.1848 C   0  0  0  0  0  0
  -22.1663   -4.2165   21.0982 F   0  0  0  0  0  0
  -21.5630   -3.4542   25.7734 F   0  0  0  0  0  0
  -30.0322  -13.3224   20.4317 N   0  0  0  0  0  0
  -26.3025  -12.9349   20.3371 N   0  0  0  0  0  0
  -25.9330  -11.6508   20.5780 N   0  0  0  0  0  0
  -22.0499  -12.8233   22.0393 N   0  0  0  0  0  0
  -25.4319  -15.1893   20.4113 N   0  0  0  0  0  0
  -31.8585  -14.6303   20.0991 O   0  0  0  0  0  0
  -21.6636   -6.8891   21.4243 O   0  0  0  0  0  0
  -22.3562  -14.5560   20.6707 O   0  0  0  0  0  0
  -24.6190  -31.8696   23.2116 C   0  0  0  0  0  0
  -25.9075  -32.4831   23.8415 C   0  0  1  0  0  0
  -27.2164  -27.3967   20.0865 C   0  0  0  0  0  0
  -25.5929  -33.8629   24.2341 N   0  0  0  0  0  0
  -23.4072  -30.4974   21.5558 C   0  0  2  0  0  0
  -24.8496  -28.9758   20.1094 C   0  0  0  0  0  0
  -22.7439  -29.4666   22.4985 C   0  0  0  0  0  0
  -18.0282  -28.1379   22.8501 C   0  0  0  0  0  0
  -24.1490  -36.7311   23.2637 C   0  0  0  0  0  0
  -25.9447  -30.8217   21.3747 C   0  0  0  0  0  0
  -26.0184  -29.4589   20.7116 C   0  0  0  0  0  0
  -27.2056  -28.6787   20.6984 C   0  0  0  0  0  0
  -26.0213  -26.9616   19.4565 C   0  0  0  0  0  0
  -24.8491  -27.7276   19.4775 C   0  0  0  0  0  0
  -23.6146  -29.8444   20.1671 C   0  0  0  0  0  0
  -25.4113  -36.3113   24.0331 C   0  0  1  0  0  0
  -20.5877  -28.3678   23.1311 C   0  0  2  0  0  0
  -20.6773  -26.9409   22.5418 C   0  0  0  0  0  0
  -19.5743  -26.6387   21.5222 C   0  0  0  0  0  0
  -18.1920  -26.7926   22.1630 C   0  0  0  0  0  0
  -19.1531  -28.8846   23.2896 C   0  0  0  0  0  0
  -18.9456  -30.1452   23.8901 C   0  0  0  0  0  0
  -17.6457  -30.6588   24.0562 C   0  0  0  0  0  0
  -25.9041  -34.9482   23.5125 C   0  0  0  0  0  0
  -16.5347  -29.9086   23.6328 C   0  0  0  0  0  0
  -16.7268  -28.6498   23.0355 C   0  0  0  0  0  0
  -26.4488  -31.6604   25.0745 C   0  0  0  0  0  0
  -25.3733  -31.3708   26.1475 C   0  0  0  0  0  0
  -27.0336  -30.3044   24.6144 C   0  0  0  0  0  0
  -27.6058  -32.4331   25.7516 C   0  0  0  0  0  0
  -27.5583  -37.1807   24.8463 C   0  0  0  0  0  0
  -21.4162  -29.3039   22.3720 N   0  0  0  0  0  0
  -26.4301  -37.3798   23.9401 N   0  0  0  0  0  0
  -24.6758  -31.0762   22.1049 N   0  0  0  0  0  0
  -23.4200  -28.8190   23.3021 O   0  0  0  0  0  0
  -28.3445  -26.5771   20.1338 O   0  0  0  0  0  0
  -26.5588  -34.8927   22.4677 O   0  0  0  0  0  0
  -23.5369  -32.1479   23.7472 O   0  0  0  0  0  0
  -31.8868  -17.0211   21.8980 C   0  0  0  0  0  0
  -29.7384  -17.9779   21.3090 C   0  0  0  0  0  0
  -32.3617  -18.2885   22.3041 C   0  0  0  0  0  0
  -30.1867  -19.2745   21.6908 C   0  0  0  0  0  0
  -31.4963  -19.4151   22.2378 C   0  0  0  0  0  0
  -30.5710  -16.8372   21.4221 C   0  0  0  0  0  0
  -28.5064  -22.6362   20.3015 C   0  0  0  0  0  0
  -25.5157  -20.7158   19.2063 C   0  0  0  0  0  0
  -33.7679  -18.4321   22.7478 C   0  0  0  0  0  0
  -27.3018  -22.2948   19.7727 C   0  0  0  0  0  0
  -26.8121  -20.9665   19.4457 C   0  0  0  0  0  0
  -34.7845  -17.6015   22.4545 C   0  0  0  0  0  0
  -31.3004  -22.8996   19.5446 C   0  0  0  0  0  0
  -30.3140  -24.0789   19.3410 C   0  0  0  0  0  0
  -30.5978  -21.5271   19.6859 C   0  0  0  0  0  0
  -29.1108  -24.0664   20.3218 C   0  0  1  0  0  0
  -31.9979  -20.7595   22.7660 C   0  0  0  0  0  0
  -36.2024  -17.7971   22.9464 C   0  0  0  0  0  0
  -29.1992  -20.4635   21.5857 C   0  0  0  0  0  0
  -28.0629  -25.1633   19.9521 C   0  0  0  0  0  0
  -30.0601  -15.5270   21.1180 N   0  0  0  0  0  0
  -29.5727  -21.6605   20.7446 N   0  3  1  0  0  0
  -31.4623  -12.4054   19.1209 H   0  0  0  0  0  0
  -30.3129  -11.3152   19.8374 H   0  0  0  0  0  0
  -29.7318  -11.7746   17.4328 H   0  0  0  0  0  0
  -29.6582  -13.4886   17.7626 H   0  0  0  0  0  0
  -27.8283  -11.3084   18.8236 H   0  0  0  0  0  0
  -27.3627  -12.6318   17.7895 H   0  0  0  0  0  0
  -27.6963  -14.2562   19.5602 H   0  0  0  0  0  0
  -28.6882  -11.9956   21.3619 H   0  0  0  0  0  0
  -28.4709  -13.6476   21.8589 H   0  0  0  0  0  0
  -25.2762   -9.5691   22.4773 H   0  0  0  0  0  0
  -24.0011   -7.4636   22.7475 H   0  0  0  0  0  0
  -21.0859   -8.8772   19.8946 H   0  0  0  0  0  0
  -22.3697  -10.9688   19.6167 H   0  0  0  0  0  0
  -21.2000   -7.6155   23.9725 H   0  0  0  0  0  0
  -21.1482   -6.0531   25.9086 H   0  0  0  0  0  0
  -22.0599   -2.7622   23.2836 H   0  0  0  0  0  0
  -22.4110  -11.9879   22.4755 H   0  0  0  0  0  0
  -21.1122  -13.1258   22.2600 H   0  0  0  0  0  0
  -24.6652  -15.8445   20.5196 H   0  0  0  0  0  0
  -26.2819  -15.6257   20.0775 H   0  0  0  0  0  0
  -26.7143  -32.5546   23.1178 H   0  0  0  0  0  0
  -25.0104  -33.9795   25.0508 H   0  0  0  0  0  0
  -22.6959  -31.3152   21.4226 H   0  0  0  0  0  0
  -23.3763  -35.9632   23.3306 H   0  0  0  0  0  0
  -24.3574  -36.8926   22.2048 H   0  0  0  0  0  0
  -23.7238  -37.6516   23.6651 H   0  0  0  0  0  0
  -26.0664  -31.5895   20.6095 H   0  0  0  0  0  0
  -26.8294  -30.8688   21.9981 H   0  0  0  0  0  0
  -28.1022  -29.0410   21.1822 H   0  0  0  0  0  0
  -25.9441  -26.0168   18.9414 H   0  0  0  0  0  0
  -23.9547  -27.3521   18.9998 H   0  0  0  0  0  0
  -23.7225  -30.6271   19.4156 H   0  0  0  0  0  0
  -22.7369  -29.2688   19.8684 H   0  0  0  0  0  0
  -25.1288  -36.1981   25.0822 H   0  0  0  0  0  0
  -20.9958  -28.3247   24.1435 H   0  0  0  0  0  0
  -20.5710  -26.2276   23.3606 H   0  0  0  0  0  0
  -21.6638  -26.7460   22.1194 H   0  0  0  0  0  0
  -19.6900  -25.6302   21.1246 H   0  0  0  0  0  0
  -19.6680  -27.3201   20.6754 H   0  0  0  0  0  0
  -17.4198  -26.6697   21.4021 H   0  0  0  0  0  0
  -18.0290  -26.0063   22.9015 H   0  0  0  0  0  0
  -19.7930  -30.7271   24.2271 H   0  0  0  0  0  0
  -17.5009  -31.6267   24.5166 H   0  0  0  0  0  0
  -15.5346  -30.2984   23.7650 H   0  0  0  0  0  0
  -15.8667  -28.0817   22.7063 H   0  0  0  0  0  0
  -24.5942  -30.7013   25.7809 H   0  0  0  0  0  0
  -24.8879  -32.2860   26.4870 H   0  0  0  0  0  0
  -25.8077  -30.8934   27.0267 H   0  0  0  0  0  0
  -26.2902  -29.6795   24.1180 H   0  0  0  0  0  0
  -27.4091  -29.7279   25.4610 H   0  0  0  0  0  0
  -27.8742  -30.4369   23.9329 H   0  0  0  0  0  0
  -27.2684  -33.3640   26.2083 H   0  0  0  0  0  0
  -28.3875  -32.6871   25.0345 H   0  0  0  0  0  0
  -28.0719  -31.8464   26.5442 H   0  0  0  0  0  0
  -28.2600  -38.0107   24.7517 H   0  0  0  0  0  0
  -28.1086  -36.2633   24.6300 H   0  0  0  0  0  0
  -27.2290  -37.1471   25.8866 H   0  0  0  0  0  0
  -20.9311  -29.8795   21.6979 H   0  0  0  0  0  0
  -26.0196  -38.2881   24.1405 H   0  0  0  0  0  0
  -32.5348  -16.1627   21.9914 H   0  0  0  0  0  0
  -28.7283  -17.8510   20.9441 H   0  0  0  0  0  0
  -25.1789  -19.7214   18.9455 H   0  0  0  0  0  0
  -24.7660  -21.4926   19.2669 H   0  0  0  0  0  0
  -34.0003  -19.2734   23.3825 H   0  0  0  0  0  0
  -26.6615  -23.0921   19.4296 H   0  0  0  0  0  0
  -27.4981  -20.1379   19.3436 H   0  0  0  0  0  0
  -34.6278  -16.7358   21.8266 H   0  0  0  0  0  0
  -31.9001  -23.0902   20.4359 H   0  0  0  0  0  0
  -32.0085  -22.8662   18.7153 H   0  0  0  0  0  0
  -29.9367  -24.0324   18.3179 H   0  0  0  0  0  0
  -30.8512  -25.0256   19.4184 H   0  0  0  0  0  0
  -31.3464  -20.7707   19.9110 H   0  0  0  0  0  0
  -30.1270  -21.2258   18.7490 H   0  0  0  0  0  0
  -29.4618  -24.2668   21.3354 H   0  0  0  0  0  0
  -32.3527  -20.6531   23.7913 H   0  0  0  0  0  0
  -31.2450  -21.5414   22.8030 H   0  0  0  0  0  0
  -32.8271  -21.1207   22.1564 H   0  0  0  0  0  0
  -36.2949  -18.6931   23.5618 H   0  0  0  0  0  0
  -36.8821  -17.8953   22.0992 H   0  0  0  0  0  0
  -36.5176  -16.9410   23.5431 H   0  0  0  0  0  0
  -29.0253  -20.8352   22.5958 H   0  0  0  0  0  0
  -28.2349  -20.0572   21.3081 H   0  0  0  0  0  0
  -27.1837  -24.9434   20.5618 H   0  0  0  0  0  0
  -27.7983  -25.0067   18.9054 H   0  0  0  0  0  0
  -29.0828  -15.3636   21.3065 H   0  0  0  0  0  0
  -30.1017  -22.1636   21.4384 H   0  0  0  0  0  0
  1 25  1  0  0  0
  1 30  2  0  0  0
  1 91  1  0  0  0
  2  3  1  0  0  0
  2 25  1  0  0  0
  2 93  1  0  0  0
  2 94  1  0  0  0
  3  4  1  0  0  0
  3 95  1  0  0  0
  3 96  1  0  0  0
  4  5  1  0  0  0
  4 97  1  0  0  0
  4 98  1  0  0  0
  5  6  1  0  0  0
  5 26  1  0  0  0
  5 99  1  0  0  0
  6 25  1  0  0  0
  6100  1  0  0  0
  6101  1  0  0  0
  7  8  2  0  0  0
  7 26  1  0  0  0
  7 29  1  0  0  0
  8  9  1  0  0  0
  8 22  1  0  0  0
  9 10  1  0  0  0
  9 27  2  0  0  0
 10 11  2  0  0  0
 10 15  1  0  0  0
 11 12  1  0  0  0
 11102  1  0  0  0
 12 13  2  0  0  0
 12103  1  0  0  0
 13 14  1  0  0  0
 13 31  1  0  0  0
 14 15  2  0  0  0
 14104  1  0  0  0
 15105  1  0  0  0
 16 17  2  0  0  0
 16 21  1  0  0  0
 16 31  1  0  0  0
 17 18  1  0  0  0
 17106  1  0  0  0
 18 19  2  0  0  0
 18107  1  0  0  0
 19 20  1  0  0  0
 19 24  1  0  0  0
 20 21  2  0  0  0
 20108  1  0  0  0
 21 23  1  0  0  0
 22 28  1  0  0  0
 22 32  2  0  0  0
 26 27  1  0  0  0
 28109  1  0  0  0
 28110  1  0  0  0
 29111  1  0  0  0
 29112  1  0  0  0
 33 34  1  0  0  0
 33 66  1  0  0  0
 33 70  2  0  0  0
 34 36  1  0  0  0
 34 59  1  0  0  0
 34113  1  0  0  0
 35 44  2  0  0  0
 35 45  1  0  0  0
 35 68  1  0  0  0
 36 56  1  0  0  0
 36114  1  0  0  0
 37 39  1  0  0  0
 37 47  1  0  0  0
 37 66  1  0  0  0
 37115  1  0  0  0
 38 43  2  0  0  0
 38 46  1  0  0  0
 38 47  1  0  0  0
 39 64  1  0  0  0
 39 67  2  0  0  0
 40 52  1  0  0  0
 40 53  2  0  0  0
 40 58  1  0  0  0
 41116  1  0  0  0
 41117  1  0  0  0
 41118  1  0  0  0
 41 48  1  0  0  0
 42 43  1  0  0  0
 42 66  1  0  0  0
 42119  1  0  0  0
 42120  1  0  0  0
 43 44  1  0  0  0
 44121  1  0  0  0
 45 46  2  0  0  0
 45122  1  0  0  0
 46123  1  0  0  0
 47124  1  0  0  0
 47125  1  0  0  0
 48 56  1  0  0  0
 48 65  1  0  0  0
 48126  1  0  0  0
 49 50  1  0  0  0
 49 53  1  0  0  0
 49 64  1  0  0  0
 49127  1  0  0  0
 50 51  1  0  0  0
 50128  1  0  0  0
 50129  1  0  0  0
 51 52  1  0  0  0
 51130  1  0  0  0
 51131  1  0  0  0
 52132  1  0  0  0
 52133  1  0  0  0
 53 54  1  0  0  0
 54 55  2  0  0  0
 54134  1  0  0  0
 55 57  1  0  0  0
 55135  1  0  0  0
 56 69  2  0  0  0
 57 58  2  0  0  0
 57136  1  0  0  0
 58137  1  0  0  0
 59 60  1  0  0  0
 59 61  1  0  0  0
 59 62  1  0  0  0
 60138  1  0  0  0
 60139  1  0  0  0
 60140  1  0  0  0
 61141  1  0  0  0
 61142  1  0  0  0
 61143  1  0  0  0
 62144  1  0  0  0
 62145  1  0  0  0
 62146  1  0  0  0
 63 65  1  0  0  0
 63147  1  0  0  0
 63148  1  0  0  0
 63149  1  0  0  0
 64150  1  0  0  0
 65151  1  0  0  0
 68 90  1  0  0  0
 71 73  2  0  0  0
 71 76  1  0  0  0
 71152  1  0  0  0
 72 74  1  0  0  0
 72 76  2  0  0  0
 72153  1  0  0  0
 73 75  1  0  0  0
 73 79  1  0  0  0
 74 75  2  0  0  0
 74 89  1  0  0  0
 75 87  1  0  0  0
 76 91  1  0  0  0
 77 80  2  0  0  0
 77 86  1  0  0  0
 77 92  1  0  0  0
 78 81  2  0  0  0
 78154  1  0  0  0
 78155  1  0  0  0
 79 82  2  0  0  0
 79156  1  0  0  0
 80 81  1  0  0  0
 80157  1  0  0  0
 81158  1  0  0  0
 82 88  1  0  0  0
 82159  1  0  0  0
 83 84  1  0  0  0
 83 85  1  0  0  0
 83160  1  0  0  0
 83161  1  0  0  0
 84 86  1  0  0  0
 84162  1  0  0  0
 84163  1  0  0  0
 85 92  1  0  0  0
 85164  1  0  0  0
 85165  1  0  0  0
 86 90  1  0  0  0
 86166  1  0  0  0
 87167  1  0  0  0
 87168  1  0  0  0
 87169  1  0  0  0
 88170  1  0  0  0
 88171  1  0  0  0
 88172  1  0  0  0
 89173  1  0  0  0
 89174  1  0  0  0
 89 92  1  0  0  0
 90175  1  0  0  0
 90176  1  0  0  0
 91177  1  0  0  0
 92178  1  0  0  0
M  CHG  1  92   1
M  ISO  4   1 100  68 101  90 101  91 100
M  END
> <chiral flag>
0

> <version>
0

> <s_m_source_file>
/data/baiqing/PycharmProjects/Reinvent-master-3.2/result/LINK_invent/BTK/process_docking_weight1_custom_product_contain_oxygen_bond_distance_aromatic_linkinvent_7_9_3/rearranged_h_0043.sdf

> <i_m_source_file_index>
30

> <r_mmod_Potential_Energy-OPLS-2005>
-28.8071632385254

> <r_mmod_Stretch_Energy-OPLS-2005>
55.6522941589355

> <r_mmod_Bend_Energy-OPLS-2005>
147.645965576172

> <r_mmod_Torsional_Energy-OPLS-2005>
241.969360351562

> <r_mmod_Improper_Torsional_Energy-OPLS-2005>
4.49963855743408

> <r_mmod_Van_der_Waal_Energy-OPLS-2005>
186.541305541992

> <r_mmod_Electrostatic_Energy-OPLS-2005>
-255.107727050781

> <r_mmod_Solvation_Energy-OPLS-2005>
-430.484405517578

> <b_mmod_Minimization_Converged-OPLS-2005>
0

> <r_mmod_RMS_Derivative-OPLS-2005>
1.23822152614594

$$$$
30
                    3D
 Structure written by MMmdl.
159167  0  0  1  0            999 V2000
  -30.6752  -14.4788   20.5843 C   0  0  0  0  0  0
  -30.4366  -12.3135   19.4129 C   0  0  0  0  0  0
  -29.4999  -12.5145   18.2025 C   0  0  0  0  0  0
  -28.0186  -12.3730   18.6114 C   0  0  0  0  0  0
  -27.6659  -13.2002   19.8759 C   0  0  2  0  0  0
  -28.7077  -12.9526   20.9904 C   0  0  0  0  0  0
  -25.2610  -13.8138   20.5668 C   0  0  0  0  0  0
  -24.1856  -13.0432   20.9189 C   0  0  0  0  0  0
  -24.6391  -11.6894   20.8724 C   0  0  0  0  0  0
  -23.9043  -10.4292   21.0403 C   0  0  0  0  0  0
  -24.3596   -9.4213   21.9185 C   0  0  0  0  0  0
  -23.6280   -8.2243   22.0752 C   0  0  0  0  0  0
  -22.4269   -8.0271   21.3540 C   0  0  0  0  0  0
  -21.9894   -9.0251   20.4646 C   0  0  0  0  0  0
  -22.7216  -10.2132   20.3056 C   0  0  0  0  0  0
  -21.6853   -6.0731   22.5278 C   0  0  0  0  0  0
  -21.4008   -6.5633   23.8210 C   0  0  0  0  0  0
  -21.3658   -5.6787   24.9171 C   0  0  0  0  0  0
  -21.6047   -4.3052   24.7227 C   0  0  0  0  0  0
  -21.8818   -3.8142   23.4347 C   0  0  0  0  0  0
  -21.9194   -4.6958   22.3404 C   0  0  0  0  0  0
  -22.7879  -13.5250   21.1849 C   0  0  0  0  0  0
  -22.1666   -4.2146   21.0983 F   0  0  0  0  0  0
  -21.5634   -3.4534   25.7736 F   0  0  0  0  0  0
  -30.0413  -13.2810   20.4479 N   0  0  0  0  0  0
  -26.3045  -12.9296   20.3349 N   0  0  0  0  0  0
  -25.9313  -11.6461   20.5739 N   0  0  0  0  0  0
  -22.0491  -12.8250   22.0389 N   0  0  0  0  0  0
  -25.4352  -15.1852   20.4063 N   0  0  0  0  0  0
  -31.7942  -14.7047   20.1112 O   0  0  0  0  0  0
  -21.6633   -6.8871   21.4241 O   0  0  0  0  0  0
  -22.3582  -14.5565   20.6699 O   0  0  0  0  0  0
  -24.6175  -31.8687   23.2107 C   0  0  0  0  0  0
  -25.9064  -32.4824   23.8401 C   0  0  1  0  0  0
  -27.2330  -27.4146   20.0857 C   0  0  0  0  0  0
  -25.5920  -33.8622   24.2339 N   0  0  0  0  0  0
  -23.4050  -30.4934   21.5547 C   0  0  2  0  0  0
  -24.8490  -28.9633   20.1146 C   0  0  0  0  0  0
  -22.7431  -29.4654   22.5011 C   0  0  0  0  0  0
  -18.0276  -28.1377   22.8501 C   0  0  0  0  0  0
  -24.1490  -36.7308   23.2641 C   0  0  0  0  0  0
  -25.9380  -30.8269   21.3681 C   0  0  0  0  0  0
  -26.0133  -29.4614   20.7114 C   0  0  0  0  0  0
  -27.2060  -28.6962   20.6935 C   0  0  0  0  0  0
  -26.0395  -26.9409   19.4854 C   0  0  0  0  0  0
  -24.8593  -27.7034   19.4988 C   0  0  0  0  0  0
  -23.6123  -29.8326   20.1679 C   0  0  0  0  0  0
  -25.4109  -36.3112   24.0344 C   0  0  1  0  0  0
  -20.5872  -28.3663   23.1336 C   0  0  2  0  0  0
  -20.6776  -26.9402   22.5433 C   0  0  0  0  0  0
  -19.5749  -26.6387   21.5235 C   0  0  0  0  0  0
  -18.1920  -26.7929   22.1631 C   0  0  0  0  0  0
  -19.1524  -28.8839   23.2912 C   0  0  0  0  0  0
  -18.9443  -30.1449   23.8915 C   0  0  0  0  0  0
  -17.6438  -30.6581   24.0567 C   0  0  0  0  0  0
  -25.9037  -34.9477   23.5132 C   0  0  0  0  0  0
  -16.5331  -29.9076   23.6330 C   0  0  0  0  0  0
  -16.7261  -28.6498   23.0348 C   0  0  0  0  0  0
  -26.4471  -31.6586   25.0726 C   0  0  0  0  0  0
  -25.3724  -31.3697   26.1466 C   0  0  0  0  0  0
  -27.0288  -30.3022   24.6099 C   0  0  0  0  0  0
  -27.6062  -32.4295   25.7470 C   0  0  0  0  0  0
  -27.5585  -37.1806   24.8463 C   0  0  0  0  0  0
  -21.4159  -29.3021   22.3744 N   0  0  0  0  0  0
  -26.4297  -37.3794   23.9408 N   0  0  0  0  0  0
  -24.6722  -31.0770   22.1024 N   0  0  0  0  0  0
  -23.4207  -28.8200   23.3053 O   0  0  0  0  0  0
  -28.4054  -26.6682   20.0950 O   0  0  0  0  0  0
  -26.5585  -34.8928   22.4686 O   0  0  0  0  0  0
  -23.5361  -32.1453   23.7486 O   0  0  0  0  0  0
  -31.2324  -18.9773   21.3236 C   0  0  0  0  0  0
  -31.2371  -17.5669   21.2013 C   0  0  0  0  0  0
  -28.8101  -17.5849   21.1747 C   0  0  0  0  0  0
  -30.0212  -19.7079   21.3958 C   0  0  0  0  0  0
  -28.8001  -18.9958   21.2745 C   0  0  0  0  0  0
  -30.0176  -16.8523   21.1544 C   0  0  0  0  0  0
  -29.6300  -23.3170   20.8536 C   0  0  0  0  0  0
  -27.4630  -19.7181   21.2923 C   0  0  0  0  0  0
  -30.0510  -21.2055   21.7526 C   0  0  0  0  0  0
  -28.3047  -25.2627   19.7593 C   0  0  0  0  0  0
  -29.6383  -24.4615   19.8356 C   0  0  1  0  0  0
  -30.0173  -22.1191   20.6089 N   0  0  0  0  0  0
  -29.9179  -15.4265   21.1723 N   0  0  0  0  0  0
  -30.8002  -25.3390   20.0851 N   0  3  0  0  0  0
  -31.4783  -12.4346   19.1080 H   0  0  0  0  0  0
  -30.3550  -11.2964   19.7982 H   0  0  0  0  0  0
  -29.7416  -11.7964   17.4175 H   0  0  0  0  0  0
  -29.6656  -13.5034   17.7713 H   0  0  0  0  0  0
  -27.8232  -11.3160   18.7963 H   0  0  0  0  0  0
  -27.3708  -12.6599   17.7821 H   0  0  0  0  0  0
  -27.7164  -14.2515   19.5914 H   0  0  0  0  0  0
  -28.6874  -11.9059   21.2965 H   0  0  0  0  0  0
  -28.4614  -13.5154   21.8918 H   0  0  0  0  0  0
  -25.2741   -9.5697   22.4755 H   0  0  0  0  0  0
  -24.0003   -7.4630   22.7465 H   0  0  0  0  0  0
  -21.0827   -8.8761   19.8956 H   0  0  0  0  0  0
  -22.3671  -10.9667   19.6157 H   0  0  0  0  0  0
  -21.1985   -7.6139   23.9713 H   0  0  0  0  0  0
  -21.1490   -6.0514   25.9078 H   0  0  0  0  0  0
  -22.0600   -2.7608   23.2839 H   0  0  0  0  0  0
  -22.4090  -11.9915   22.4795 H   0  0  0  0  0  0
  -21.1112  -13.1297   22.2588 H   0  0  0  0  0  0
  -24.6640  -15.8366   20.5018 H   0  0  0  0  0  0
  -26.2692  -15.6104   20.0223 H   0  0  0  0  0  0
  -26.7135  -32.5533   23.1161 H   0  0  0  0  0  0
  -25.0076  -33.9778   25.0489 H   0  0  0  0  0  0
  -22.6919  -31.3099   21.4223 H   0  0  0  0  0  0
  -23.3752  -35.9642   23.3318 H   0  0  0  0  0  0
  -24.3593  -36.8900   22.2056 H   0  0  0  0  0  0
  -23.7244  -37.6520   23.6635 H   0  0  0  0  0  0
  -26.0573  -31.5942   20.6018 H   0  0  0  0  0  0
  -26.8235  -30.8748   21.9898 H   0  0  0  0  0  0
  -28.1040  -29.0828   21.1551 H   0  0  0  0  0  0
  -25.9806  -25.9830   18.9918 H   0  0  0  0  0  0
  -23.9654  -27.3160   19.0290 H   0  0  0  0  0  0
  -23.7190  -30.6118   19.4123 H   0  0  0  0  0  0
  -22.7342  -29.2558   19.8727 H   0  0  0  0  0  0
  -25.1283  -36.1978   25.0837 H   0  0  0  0  0  0
  -20.9957  -28.3231   24.1460 H   0  0  0  0  0  0
  -20.5728  -26.2257   23.3612 H   0  0  0  0  0  0
  -21.6639  -26.7475   22.1201 H   0  0  0  0  0  0
  -19.6910  -25.6309   21.1240 H   0  0  0  0  0  0
  -19.6691  -27.3219   20.6783 H   0  0  0  0  0  0
  -17.4211  -26.6717   21.4004 H   0  0  0  0  0  0
  -18.0276  -26.0060   22.9006 H   0  0  0  0  0  0
  -19.7911  -30.7268   24.2292 H   0  0  0  0  0  0
  -17.4983  -31.6261   24.5169 H   0  0  0  0  0  0
  -15.5324  -30.2965   23.7654 H   0  0  0  0  0  0
  -15.8674  -28.0818   22.7038 H   0  0  0  0  0  0
  -24.5910  -30.7032   25.7796 H   0  0  0  0  0  0
  -24.8890  -32.2847   26.4894 H   0  0  0  0  0  0
  -25.8065  -30.8879   27.0235 H   0  0  0  0  0  0
  -26.2820  -29.6791   24.1170 H   0  0  0  0  0  0
  -27.4064  -29.7250   25.4546 H   0  0  0  0  0  0
  -27.8655  -30.4324   23.9236 H   0  0  0  0  0  0
  -27.2702  -33.3592   26.2073 H   0  0  0  0  0  0
  -28.3842  -32.6867   25.0269 H   0  0  0  0  0  0
  -28.0765  -31.8405   26.5354 H   0  0  0  0  0  0
  -28.2611  -38.0097   24.7510 H   0  0  0  0  0  0
  -28.1069  -36.2628   24.6278 H   0  0  0  0  0  0
  -27.2311  -37.1455   25.8870 H   0  0  0  0  0  0
  -20.9328  -29.8709   21.6932 H   0  0  0  0  0  0
  -26.0189  -38.2877   24.1390 H   0  0  0  0  0  0
  -32.1748  -19.4992   21.4164 H   0  0  0  0  0  0
  -32.1835  -17.0443   21.1965 H   0  0  0  0  0  0
  -27.8675  -17.0555   21.1346 H   0  0  0  0  0  0
  -29.2887  -23.6221   21.8479 H   0  0  0  0  0  0
  -26.6542  -19.0661   20.9605 H   0  0  0  0  0  0
  -27.4815  -20.5762   20.6204 H   0  0  0  0  0  0
  -27.2204  -20.0663   22.2964 H   0  0  0  0  0  0
  -30.9637  -21.3860   22.3252 H   0  0  0  0  0  0
  -29.2403  -21.4047   22.4588 H   0  0  0  0  0  0
  -27.5418  -24.7914   20.3829 H   0  0  0  0  0  0
  -27.9550  -25.1806   18.7293 H   0  0  0  0  0  0
  -29.8009  -24.0121   18.8552 H   0  0  0  0  0  0
  -29.0282  -15.0666   21.4835 H   0  0  0  0  0  0
  -30.7140  -25.8045   20.9721 H   0  0  0  0  0  0
  -30.8676  -26.0415   19.3695 H   0  0  0  0  0  0
  -31.6481  -24.7983   20.0833 H   0  0  0  0  0  0
  1 25  1  0  0  0
  1 30  2  0  0  0
  1 83  1  0  0  0
  2  3  1  0  0  0
  2 25  1  0  0  0
  2 85  1  0  0  0
  2 86  1  0  0  0
  3  4  1  0  0  0
  3 87  1  0  0  0
  3 88  1  0  0  0
  4  5  1  0  0  0
  4 89  1  0  0  0
  4 90  1  0  0  0
  5  6  1  0  0  0
  5 26  1  0  0  0
  5 91  1  0  0  0
  6 25  1  0  0  0
  6 92  1  0  0  0
  6 93  1  0  0  0
  7  8  2  0  0  0
  7 26  1  0  0  0
  7 29  1  0  0  0
  8  9  1  0  0  0
  8 22  1  0  0  0
  9 10  1  0  0  0
  9 27  2  0  0  0
 10 11  2  0  0  0
 10 15  1  0  0  0
 11 12  1  0  0  0
 11 94  1  0  0  0
 12 13  2  0  0  0
 12 95  1  0  0  0
 13 14  1  0  0  0
 13 31  1  0  0  0
 14 15  2  0  0  0
 14 96  1  0  0  0
 15 97  1  0  0  0
 16 17  2  0  0  0
 16 21  1  0  0  0
 16 31  1  0  0  0
 17 18  1  0  0  0
 17 98  1  0  0  0
 18 19  2  0  0  0
 18 99  1  0  0  0
 19 20  1  0  0  0
 19 24  1  0  0  0
 20 21  2  0  0  0
 20100  1  0  0  0
 21 23  1  0  0  0
 22 28  1  0  0  0
 22 32  2  0  0  0
 26 27  1  0  0  0
 28101  1  0  0  0
 28102  1  0  0  0
 29103  1  0  0  0
 29104  1  0  0  0
 33 34  1  0  0  0
 33 66  1  0  0  0
 33 70  2  0  0  0
 34 36  1  0  0  0
 34 59  1  0  0  0
 34105  1  0  0  0
 35 44  2  0  0  0
 35 45  1  0  0  0
 35 68  1  0  0  0
 36 56  1  0  0  0
 36106  1  0  0  0
 37 39  1  0  0  0
 37 47  1  0  0  0
 37 66  1  0  0  0
 37107  1  0  0  0
 38 43  2  0  0  0
 38 46  1  0  0  0
 38 47  1  0  0  0
 39 64  1  0  0  0
 39 67  2  0  0  0
 40 52  1  0  0  0
 40 53  2  0  0  0
 40 58  1  0  0  0
 41108  1  0  0  0
 41109  1  0  0  0
 41110  1  0  0  0
 41 48  1  0  0  0
 42 43  1  0  0  0
 42 66  1  0  0  0
 42111  1  0  0  0
 42112  1  0  0  0
 43 44  1  0  0  0
 44113  1  0  0  0
 45 46  2  0  0  0
 45114  1  0  0  0
 46115  1  0  0  0
 47116  1  0  0  0
 47117  1  0  0  0
 48 56  1  0  0  0
 48 65  1  0  0  0
 48118  1  0  0  0
 49 50  1  0  0  0
 49 53  1  0  0  0
 49 64  1  0  0  0
 49119  1  0  0  0
 50 51  1  0  0  0
 50120  1  0  0  0
 50121  1  0  0  0
 51 52  1  0  0  0
 51122  1  0  0  0
 51123  1  0  0  0
 52124  1  0  0  0
 52125  1  0  0  0
 53 54  1  0  0  0
 54 55  2  0  0  0
 54126  1  0  0  0
 55 57  1  0  0  0
 55127  1  0  0  0
 56 69  2  0  0  0
 57 58  2  0  0  0
 57128  1  0  0  0
 58129  1  0  0  0
 59 60  1  0  0  0
 59 61  1  0  0  0
 59 62  1  0  0  0
 60130  1  0  0  0
 60131  1  0  0  0
 60132  1  0  0  0
 61133  1  0  0  0
 61134  1  0  0  0
 61135  1  0  0  0
 62136  1  0  0  0
 62137  1  0  0  0
 62138  1  0  0  0
 63 65  1  0  0  0
 63139  1  0  0  0
 63140  1  0  0  0
 63141  1  0  0  0
 64142  1  0  0  0
 65143  1  0  0  0
 68 80  1  0  0  0
 71 72  2  0  0  0
 71 74  1  0  0  0
 71144  1  0  0  0
 72 76  1  0  0  0
 72145  1  0  0  0
 73 75  1  0  0  0
 73 76  2  0  0  0
 73146  1  0  0  0
 74 75  2  0  0  0
 74 79  1  0  0  0
 75 78  1  0  0  0
 76 83  1  0  0  0
 77 81  1  0  0  0
 77 82  2  0  0  0
 77147  1  0  0  0
 78148  1  0  0  0
 78149  1  0  0  0
 78150  1  0  0  0
 79 82  1  0  0  0
 79151  1  0  0  0
 79152  1  0  0  0
 80 81  1  0  0  0
 80153  1  0  0  0
 80154  1  0  0  0
 81 84  1  0  0  0
 81155  1  0  0  0
 83156  1  0  0  0
 84157  1  0  0  0
 84158  1  0  0  0
 84159  1  0  0  0
M  CHG  1  84   1
M  ISO  4   1 100  68 101  80 101  83 100
M  END
> <chiral flag>
0

> <version>
0

> <s_m_source_file>
/data/baiqing/PycharmProjects/Reinvent-master-3.2/result/LINK_invent/BTK/process_docking_weight1_custom_product_contain_oxygen_bond_distance_aromatic_linkinvent_7_9_3/rearranged_h_0043.sdf

> <i_m_source_file_index>
31

> <r_mmod_Potential_Energy-OPLS-2005>
-311.865905761719

> <r_mmod_Stretch_Energy-OPLS-2005>
42.9225692749023

> <r_mmod_Bend_Energy-OPLS-2005>
104.557678222656

> <r_mmod_Torsional_Energy-OPLS-2005>
234.8515625

> <r_mmod_Improper_Torsional_Energy-OPLS-2005>
4.70511388778687

> <r_mmod_Van_der_Waal_Energy-OPLS-2005>
159.82649230957

> <r_mmod_Electrostatic_Energy-OPLS-2005>
-385.0537109375

> <r_mmod_Solvation_Energy-OPLS-2005>
-487.664306640625

> <b_mmod_Minimization_Converged-OPLS-2005>
0

> <r_mmod_RMS_Derivative-OPLS-2005>
1.39895784854889

$$$$
31
                    3D
 Structure written by MMmdl.
171180  0  0  1  0            999 V2000
  -30.6698  -14.5345   20.5434 C   0  0  0  0  0  0
  -30.4174  -12.3432   19.4181 C   0  0  0  0  0  0
  -29.4897  -12.5086   18.1974 C   0  0  0  0  0  0
  -28.0122  -12.3603   18.6128 C   0  0  0  0  0  0
  -27.6519  -13.2109   19.8608 C   0  0  2  0  0  0
  -28.6975  -13.0315   20.9838 C   0  0  0  0  0  0
  -25.2555  -13.8159   20.5655 C   0  0  0  0  0  0
  -24.1841  -13.0441   20.9179 C   0  0  0  0  0  0
  -24.6401  -11.6904   20.8739 C   0  0  0  0  0  0
  -23.9070  -10.4293   21.0404 C   0  0  0  0  0  0
  -24.3626   -9.4209   21.9176 C   0  0  0  0  0  0
  -23.6307   -8.2244   22.0753 C   0  0  0  0  0  0
  -22.4283   -8.0280   21.3548 C   0  0  0  0  0  0
  -21.9923   -9.0247   20.4646 C   0  0  0  0  0  0
  -22.7252  -10.2123   20.3056 C   0  0  0  0  0  0
  -21.6854   -6.0741   22.5278 C   0  0  0  0  0  0
  -21.4010   -6.5647   23.8211 C   0  0  0  0  0  0
  -21.3659   -5.6796   24.9171 C   0  0  0  0  0  0
  -21.6046   -4.3061   24.7230 C   0  0  0  0  0  0
  -21.8821   -3.8156   23.4354 C   0  0  0  0  0  0
  -21.9196   -4.6966   22.3407 C   0  0  0  0  0  0
  -22.7862  -13.5215   21.1861 C   0  0  0  0  0  0
  -22.1662   -4.2156   21.0983 F   0  0  0  0  0  0
  -21.5628   -3.4540   25.7742 F   0  0  0  0  0  0
  -30.0131  -13.3478   20.4147 N   0  0  0  0  0  0
  -26.2985  -12.9333   20.3302 N   0  0  0  0  0  0
  -25.9319  -11.6500   20.5740 N   0  0  0  0  0  0
  -22.0528  -12.8202   22.0404 N   0  0  0  0  0  0
  -25.4274  -15.1881   20.4048 N   0  0  0  0  0  0
  -31.8277  -14.6906   20.1448 O   0  0  0  0  0  0
  -21.6637   -6.8884   21.4245 O   0  0  0  0  0  0
  -22.3561  -14.5540   20.6726 O   0  0  0  0  0  0
  -24.6196  -31.8655   23.2040 C   0  0  0  0  0  0
  -25.9079  -32.4796   23.8359 C   0  0  1  0  0  0
  -27.2267  -27.3862   20.1066 C   0  0  0  0  0  0
  -25.5916  -33.8587   24.2314 N   0  0  0  0  0  0
  -23.4075  -30.4908   21.5468 C   0  0  2  0  0  0
  -24.8530  -28.9419   20.1208 C   0  0  0  0  0  0
  -22.7414  -29.4699   22.4970 C   0  0  0  0  0  0
  -18.0285  -28.1390   22.8490 C   0  0  0  0  0  0
  -24.1479  -36.7307   23.2645 C   0  0  0  0  0  0
  -25.9415  -30.8133   21.3645 C   0  0  0  0  0  0
  -26.0164  -29.4389   20.7231 C   0  0  0  0  0  0
  -27.2107  -28.6704   20.7102 C   0  0  0  0  0  0
  -26.0547  -26.9205   19.4825 C   0  0  0  0  0  0
  -24.8702  -27.6836   19.4936 C   0  0  0  0  0  0
  -23.6167  -29.8176   20.1645 C   0  0  0  0  0  0
  -25.4107  -36.3105   24.0338 C   0  0  1  0  0  0
  -20.5873  -28.3713   23.1274 C   0  0  2  0  0  0
  -20.6775  -26.9439   22.5422 C   0  0  0  0  0  0
  -19.5760  -26.6406   21.5212 C   0  0  0  0  0  0
  -18.1925  -26.7951   22.1599 C   0  0  0  0  0  0
  -19.1529  -28.8855   23.2888 C   0  0  0  0  0  0
  -18.9466  -30.1456   23.8917 C   0  0  0  0  0  0
  -17.6463  -30.6584   24.0578 C   0  0  0  0  0  0
  -25.9046  -34.9458   23.5135 C   0  0  0  0  0  0
  -16.5362  -29.9094   23.6315 C   0  0  0  0  0  0
  -16.7278  -28.6509   23.0351 C   0  0  0  0  0  0
  -26.4506  -31.6548   25.0670 C   0  0  0  0  0  0
  -25.3755  -31.3597   26.1397 C   0  0  0  0  0  0
  -27.0371  -30.3003   24.6037 C   0  0  0  0  0  0
  -27.6103  -32.4269   25.7410 C   0  0  0  0  0  0
  -27.5601  -37.1799   24.8468 C   0  0  0  0  0  0
  -21.4148  -29.3063   22.3661 N   0  0  0  0  0  0
  -26.4304  -37.3786   23.9427 N   0  0  0  0  0  0
  -24.6746  -31.0727   22.0954 N   0  0  0  0  0  0
  -23.4160  -28.8278   23.3054 O   0  0  0  0  0  0
  -28.3694  -26.6109   20.0245 O   0  0  0  0  0  0
  -26.5608  -34.8916   22.4695 O   0  0  0  0  0  0
  -23.5384  -32.1452   23.7395 O   0  0  0  0  0  0
  -31.4968  -19.3194   22.2251 C   0  0  0  0  0  0
  -31.2169  -16.9163   22.4918 C   0  0  0  0  0  0
  -30.0314  -18.1059   20.7143 C   0  0  0  0  0  0
  -31.7749  -18.1303   22.9254 C   0  0  0  0  0  0
  -30.5776  -19.3565   21.1513 C   0  0  0  0  0  0
  -30.3899  -16.8763   21.3523 C   0  0  0  0  0  0
  -29.4175  -23.0499   21.2773 C   0  0  0  0  0  0
  -31.7346  -22.7312   24.1331 C   0  0  0  0  0  0
  -30.1234  -23.3274   22.3971 C   0  0  0  0  0  0
  -30.7608  -22.3787   23.2780 C   0  0  0  0  0  0
  -26.8590  -22.0095   20.3425 C   0  0  0  0  0  0
  -27.0308  -23.5116   20.6995 C   0  0  0  0  0  0
  -27.9203  -21.0834   20.9816 C   0  0  0  0  0  0
  -28.4780  -24.0561   20.5463 C   0  0  1  0  0  0
  -32.6836  -18.1470   24.1385 C   0  0  0  0  0  0
  -30.3805  -20.7030   20.3838 C   0  0  0  0  0  0
  -28.5667  -25.5736   21.0185 C   0  0  0  0  0  0
  -29.9085  -15.5947   20.9212 N   0  0  0  0  0  0
  -29.2387  -21.6548   20.6688 N   0  3  2  0  0  0
  -31.4606  -12.4495   19.1179 H   0  0  0  0  0  0
  -30.3211  -11.3420   19.8394 H   0  0  0  0  0  0
  -29.7390  -11.7721   17.4315 H   0  0  0  0  0  0
  -29.6479  -13.4877   17.7403 H   0  0  0  0  0  0
  -27.8309  -11.3043   18.8161 H   0  0  0  0  0  0
  -27.3625  -12.6245   17.7774 H   0  0  0  0  0  0
  -27.6804  -14.2524   19.5421 H   0  0  0  0  0  0
  -28.6948  -12.0058   21.3546 H   0  0  0  0  0  0
  -28.4615  -13.6626   21.8427 H   0  0  0  0  0  0
  -25.2770   -9.5672   22.4750 H   0  0  0  0  0  0
  -24.0019   -7.4628   22.7474 H   0  0  0  0  0  0
  -21.0855   -8.8770   19.8943 H   0  0  0  0  0  0
  -22.3721  -10.9664   19.6167 H   0  0  0  0  0  0
  -21.2003   -7.6146   23.9717 H   0  0  0  0  0  0
  -21.1472   -6.0524   25.9072 H   0  0  0  0  0  0
  -22.0604   -2.7620   23.2851 H   0  0  0  0  0  0
  -22.4160  -11.9837   22.4734 H   0  0  0  0  0  0
  -21.1145  -13.1202   22.2647 H   0  0  0  0  0  0
  -24.6569  -15.8398   20.5040 H   0  0  0  0  0  0
  -26.2725  -15.6255   20.0608 H   0  0  0  0  0  0
  -26.7134  -32.5499   23.1103 H   0  0  0  0  0  0
  -25.0032  -33.9718   25.0445 H   0  0  0  0  0  0
  -22.7030  -31.3134   21.4047 H   0  0  0  0  0  0
  -23.3742  -35.9636   23.3284 H   0  0  0  0  0  0
  -24.3585  -36.8950   22.2068 H   0  0  0  0  0  0
  -23.7221  -37.6490   23.6690 H   0  0  0  0  0  0
  -26.0596  -31.5651   20.5821 H   0  0  0  0  0  0
  -26.8266  -30.8729   21.9857 H   0  0  0  0  0  0
  -28.1148  -29.0576   21.1578 H   0  0  0  0  0  0
  -26.0671  -25.9716   18.9661 H   0  0  0  0  0  0
  -23.9828  -27.3068   19.0029 H   0  0  0  0  0  0
  -23.7277  -30.5911   19.4043 H   0  0  0  0  0  0
  -22.7339  -29.2478   19.8657 H   0  0  0  0  0  0
  -25.1278  -36.1976   25.0829 H   0  0  0  0  0  0
  -20.9993  -28.3334   24.1380 H   0  0  0  0  0  0
  -20.5674  -26.2350   23.3642 H   0  0  0  0  0  0
  -21.6653  -26.7459   22.1257 H   0  0  0  0  0  0
  -19.6936  -25.6329   21.1206 H   0  0  0  0  0  0
  -19.6678  -27.3222   20.6742 H   0  0  0  0  0  0
  -17.4225  -26.6750   21.3958 H   0  0  0  0  0  0
  -18.0276  -26.0071   22.8955 H   0  0  0  0  0  0
  -19.7935  -30.7268   24.2314 H   0  0  0  0  0  0
  -17.5017  -31.6244   24.5217 H   0  0  0  0  0  0
  -15.5371  -30.3009   23.7609 H   0  0  0  0  0  0
  -15.8695  -28.0824   22.7066 H   0  0  0  0  0  0
  -24.6089  -30.6750   25.7754 H   0  0  0  0  0  0
  -24.8709  -32.2660   26.4738 H   0  0  0  0  0  0
  -25.8121  -30.8924   27.0230 H   0  0  0  0  0  0
  -26.2888  -29.6674   24.1243 H   0  0  0  0  0  0
  -27.4335  -29.7335   25.4477 H   0  0  0  0  0  0
  -27.8636  -30.4335   23.9048 H   0  0  0  0  0  0
  -27.2792  -33.3620   26.1935 H   0  0  0  0  0  0
  -28.3902  -32.6742   25.0193 H   0  0  0  0  0  0
  -28.0780  -31.8402   26.5319 H   0  0  0  0  0  0
  -28.2608  -38.0112   24.7551 H   0  0  0  0  0  0
  -28.1110  -36.2642   24.6250 H   0  0  0  0  0  0
  -27.2324  -37.1398   25.8872 H   0  0  0  0  0  0
  -20.9355  -29.8757   21.6831 H   0  0  0  0  0  0
  -26.0189  -38.2867   24.1418 H   0  0  0  0  0  0
  -32.0285  -20.2137   22.5136 H   0  0  0  0  0  0
  -31.4446  -16.0059   23.0283 H   0  0  0  0  0  0
  -29.3825  -18.0833   19.8491 H   0  0  0  0  0  0
  -32.1837  -22.0118   24.8023 H   0  0  0  0  0  0
  -32.1054  -23.7468   24.1844 H   0  0  0  0  0  0
  -30.1010  -24.3348   22.7786 H   0  0  0  0  0  0
  -30.4038  -21.3618   23.2830 H   0  0  0  0  0  0
  -26.9047  -21.9026   19.2577 H   0  0  0  0  0  0
  -25.8616  -21.6762   20.6337 H   0  0  0  0  0  0
  -26.7094  -23.6721   21.7314 H   0  0  0  0  0  0
  -26.3464  -24.0894   20.0820 H   0  0  0  0  0  0
  -27.8228  -20.0723   20.5833 H   0  0  0  0  0  0
  -27.7963  -21.0168   22.0635 H   0  0  0  0  0  0
  -28.7544  -24.0314   19.4913 H   0  0  0  0  0  0
  -32.7667  -19.1518   24.5537 H   0  0  0  0  0  0
  -33.6841  -17.7915   23.8900 H   0  0  0  0  0  0
  -32.2816  -17.4975   24.9172 H   0  0  0  0  0  0
  -30.2860  -20.4328   19.3304 H   0  0  0  0  0  0
  -31.3053  -21.2762   20.4379 H   0  0  0  0  0  0
  -29.5797  -25.7857   21.3528 H   0  0  0  0  0  0
  -27.9373  -25.7491   21.8933 H   0  0  0  0  0  0
  -28.9199  -15.4223   21.0221 H   0  0  0  0  0  0
  -29.0746  -21.8784   19.6987 H   0  0  0  0  0  0
  1 25  1  0  0  0
  1 30  2  0  0  0
  1 88  1  0  0  0
  2  3  1  0  0  0
  2 25  1  0  0  0
  2 90  1  0  0  0
  2 91  1  0  0  0
  3  4  1  0  0  0
  3 92  1  0  0  0
  3 93  1  0  0  0
  4  5  1  0  0  0
  4 94  1  0  0  0
  4 95  1  0  0  0
  5  6  1  0  0  0
  5 26  1  0  0  0
  5 96  1  0  0  0
  6 25  1  0  0  0
  6 97  1  0  0  0
  6 98  1  0  0  0
  7  8  2  0  0  0
  7 26  1  0  0  0
  7 29  1  0  0  0
  8  9  1  0  0  0
  8 22  1  0  0  0
  9 10  1  0  0  0
  9 27  2  0  0  0
 10 11  2  0  0  0
 10 15  1  0  0  0
 11 12  1  0  0  0
 11 99  1  0  0  0
 12 13  2  0  0  0
 12100  1  0  0  0
 13 14  1  0  0  0
 13 31  1  0  0  0
 14 15  2  0  0  0
 14101  1  0  0  0
 15102  1  0  0  0
 16 17  2  0  0  0
 16 21  1  0  0  0
 16 31  1  0  0  0
 17 18  1  0  0  0
 17103  1  0  0  0
 18 19  2  0  0  0
 18104  1  0  0  0
 19 20  1  0  0  0
 19 24  1  0  0  0
 20 21  2  0  0  0
 20105  1  0  0  0
 21 23  1  0  0  0
 22 28  1  0  0  0
 22 32  2  0  0  0
 26 27  1  0  0  0
 28106  1  0  0  0
 28107  1  0  0  0
 29108  1  0  0  0
 29109  1  0  0  0
 33 34  1  0  0  0
 33 66  1  0  0  0
 33 70  2  0  0  0
 34 36  1  0  0  0
 34 59  1  0  0  0
 34110  1  0  0  0
 35 44  2  0  0  0
 35 45  1  0  0  0
 35 68  1  0  0  0
 36 56  1  0  0  0
 36111  1  0  0  0
 37 39  1  0  0  0
 37 47  1  0  0  0
 37 66  1  0  0  0
 37112  1  0  0  0
 38 43  2  0  0  0
 38 46  1  0  0  0
 38 47  1  0  0  0
 39 64  1  0  0  0
 39 67  2  0  0  0
 40 52  1  0  0  0
 40 53  2  0  0  0
 40 58  1  0  0  0
 41113  1  0  0  0
 41114  1  0  0  0
 41115  1  0  0  0
 41 48  1  0  0  0
 42 43  1  0  0  0
 42 66  1  0  0  0
 42116  1  0  0  0
 42117  1  0  0  0
 43 44  1  0  0  0
 44118  1  0  0  0
 45 46  2  0  0  0
 45119  1  0  0  0
 46120  1  0  0  0
 47121  1  0  0  0
 47122  1  0  0  0
 48 56  1  0  0  0
 48 65  1  0  0  0
 48123  1  0  0  0
 49 50  1  0  0  0
 49 53  1  0  0  0
 49 64  1  0  0  0
 49124  1  0  0  0
 50 51  1  0  0  0
 50125  1  0  0  0
 50126  1  0  0  0
 51 52  1  0  0  0
 51127  1  0  0  0
 51128  1  0  0  0
 52129  1  0  0  0
 52130  1  0  0  0
 53 54  1  0  0  0
 54 55  2  0  0  0
 54131  1  0  0  0
 55 57  1  0  0  0
 55132  1  0  0  0
 56 69  2  0  0  0
 57 58  2  0  0  0
 57133  1  0  0  0
 58134  1  0  0  0
 59 60  1  0  0  0
 59 61  1  0  0  0
 59 62  1  0  0  0
 60135  1  0  0  0
 60136  1  0  0  0
 60137  1  0  0  0
 61138  1  0  0  0
 61139  1  0  0  0
 61140  1  0  0  0
 62141  1  0  0  0
 62142  1  0  0  0
 62143  1  0  0  0
 63 65  1  0  0  0
 63144  1  0  0  0
 63145  1  0  0  0
 63146  1  0  0  0
 64147  1  0  0  0
 65148  1  0  0  0
 68 87  1  0  0  0
 71 74  2  0  0  0
 71 75  1  0  0  0
 71149  1  0  0  0
 72 74  1  0  0  0
 72 76  2  0  0  0
 72150  1  0  0  0
 73 75  2  0  0  0
 73 76  1  0  0  0
 73151  1  0  0  0
 74 85  1  0  0  0
 75 86  1  0  0  0
 76 88  1  0  0  0
 77 79  2  0  0  0
 77 84  1  0  0  0
 77 89  1  0  0  0
 78 80  2  0  0  0
 78152  1  0  0  0
 78153  1  0  0  0
 79 80  1  0  0  0
 79154  1  0  0  0
 80155  1  0  0  0
 81 82  1  0  0  0
 81 83  1  0  0  0
 81156  1  0  0  0
 81157  1  0  0  0
 82 84  1  0  0  0
 82158  1  0  0  0
 82159  1  0  0  0
 83 89  1  0  0  0
 83160  1  0  0  0
 83161  1  0  0  0
 84 87  1  0  0  0
 84162  1  0  0  0
 85163  1  0  0  0
 85164  1  0  0  0
 85165  1  0  0  0
 86166  1  0  0  0
 86167  1  0  0  0
 86 89  1  0  0  0
 87168  1  0  0  0
 87169  1  0  0  0
 88170  1  0  0  0
 89171  1  0  0  0
M  CHG  1  89   1
M  ISO  4   1 100  68 101  87 101  88 100
M  END
> <chiral flag>
0

> <version>
0

> <s_m_source_file>
/data/baiqing/PycharmProjects/Reinvent-master-3.2/result/LINK_invent/BTK/process_docking_weight1_custom_product_contain_oxygen_bond_distance_aromatic_linkinvent_7_9_3/rearranged_h_0043.sdf

> <i_m_source_file_index>
32

> <r_mmod_Potential_Energy-OPLS-2005>
-7.9611964225769

> <r_mmod_Stretch_Energy-OPLS-2005>
60.3508453369141

> <r_mmod_Bend_Energy-OPLS-2005>
161.643035888672

> <r_mmod_Torsional_Energy-OPLS-2005>
289.980407714844

> <r_mmod_Improper_Torsional_Energy-OPLS-2005>
7.20738172531128

> <r_mmod_Van_der_Waal_Energy-OPLS-2005>
144.924697875977

> <r_mmod_Electrostatic_Energy-OPLS-2005>
-253.294799804688

> <r_mmod_Solvation_Energy-OPLS-2005>
-440.451293945312

> <b_mmod_Minimization_Converged-OPLS-2005>
0

> <r_mmod_RMS_Derivative-OPLS-2005>
3.20422863960266

$$$$
32
                    3D
 Structure written by MMmdl.
160169  0  0  1  0            999 V2000
  -30.6265  -14.6422   20.5005 C   0  0  0  0  0  0
  -30.4381  -12.3993   19.4395 C   0  0  0  0  0  0
  -29.5025  -12.5004   18.2151 C   0  0  0  0  0  0
  -28.0273  -12.3355   18.6339 C   0  0  0  0  0  0
  -27.6492  -13.2147   19.8554 C   0  0  2  0  0  0
  -28.6971  -13.0829   20.9818 C   0  0  0  0  0  0
  -25.2553  -13.8164   20.5681 C   0  0  0  0  0  0
  -24.1825  -13.0433   20.9201 C   0  0  0  0  0  0
  -24.6394  -11.6903   20.8749 C   0  0  0  0  0  0
  -23.9064  -10.4290   21.0416 C   0  0  0  0  0  0
  -24.3616   -9.4205   21.9192 C   0  0  0  0  0  0
  -23.6294   -8.2239   22.0758 C   0  0  0  0  0  0
  -22.4276   -8.0279   21.3545 C   0  0  0  0  0  0
  -21.9910   -9.0254   20.4649 C   0  0  0  0  0  0
  -22.7239  -10.2133   20.3062 C   0  0  0  0  0  0
  -21.6849   -6.0737   22.5281 C   0  0  0  0  0  0
  -21.4014   -6.5641   23.8214 C   0  0  0  0  0  0
  -21.3658   -5.6795   24.9176 C   0  0  0  0  0  0
  -21.6041   -4.3057   24.7228 C   0  0  0  0  0  0
  -21.8819   -3.8148   23.4348 C   0  0  0  0  0  0
  -21.9194   -4.6965   22.3405 C   0  0  0  0  0  0
  -22.7847  -13.5227   21.1863 C   0  0  0  0  0  0
  -22.1660   -4.2151   21.0983 F   0  0  0  0  0  0
  -21.5629   -3.4542   25.7740 F   0  0  0  0  0  0
  -30.0056  -13.4259   20.4051 N   0  0  0  0  0  0
  -26.2975  -12.9341   20.3299 N   0  0  0  0  0  0
  -25.9320  -11.6499   20.5758 N   0  0  0  0  0  0
  -22.0491  -12.8216   22.0420 N   0  0  0  0  0  0
  -25.4255  -15.1887   20.4071 N   0  0  0  0  0  0
  -31.8088  -14.7918   20.1833 O   0  0  0  0  0  0
  -21.6636   -6.8879   21.4241 O   0  0  0  0  0  0
  -22.3532  -14.5537   20.6716 O   0  0  0  0  0  0
  -24.6267  -31.8593   23.2029 C   0  0  0  0  0  0
  -25.9112  -32.4776   23.8358 C   0  0  1  0  0  0
  -27.2269  -27.3246   20.1098 C   0  0  0  0  0  0
  -25.5929  -33.8580   24.2285 N   0  0  0  0  0  0
  -23.4199  -30.4839   21.5456 C   0  0  2  0  0  0
  -24.8649  -28.9390   20.1133 C   0  0  0  0  0  0
  -22.7474  -29.4628   22.4941 C   0  0  0  0  0  0
  -18.0288  -28.1386   22.8492 C   0  0  0  0  0  0
  -24.1486  -36.7291   23.2644 C   0  0  0  0  0  0
  -25.9611  -30.7934   21.3707 C   0  0  0  0  0  0
  -26.0354  -29.4224   20.7103 C   0  0  0  0  0  0
  -27.2208  -28.6297   20.6923 C   0  0  0  0  0  0
  -26.0255  -26.8855   19.5097 C   0  0  0  0  0  0
  -24.8612  -27.6755   19.5050 C   0  0  0  0  0  0
  -23.6333  -29.8191   20.1612 C   0  0  0  0  0  0
  -25.4109  -36.3079   24.0334 C   0  0  1  0  0  0
  -20.5885  -28.3684   23.1285 C   0  0  2  0  0  0
  -20.6774  -26.9409   22.5410 C   0  0  0  0  0  0
  -19.5747  -26.6382   21.5216 C   0  0  0  0  0  0
  -18.1927  -26.7931   22.1626 C   0  0  0  0  0  0
  -19.1539  -28.8853   23.2887 C   0  0  0  0  0  0
  -18.9462  -30.1458   23.8898 C   0  0  0  0  0  0
  -17.6461  -30.6588   24.0571 C   0  0  0  0  0  0
  -25.9046  -34.9450   23.5103 C   0  0  0  0  0  0
  -16.5353  -29.9085   23.6338 C   0  0  0  0  0  0
  -16.7275  -28.6505   23.0354 C   0  0  0  0  0  0
  -26.4491  -31.6591   25.0731 C   0  0  0  0  0  0
  -25.3733  -31.3717   26.1468 C   0  0  0  0  0  0
  -27.0342  -30.3024   24.6178 C   0  0  0  0  0  0
  -27.6054  -32.4329   25.7491 C   0  0  0  0  0  0
  -27.5576  -37.1796   24.8465 C   0  0  0  0  0  0
  -21.4189  -29.3044   22.3689 N   0  0  0  0  0  0
  -26.4285  -37.3774   23.9414 N   0  0  0  0  0  0
  -24.6883  -31.0618   22.0971 N   0  0  0  0  0  0
  -23.4201  -28.8173   23.3020 O   0  0  0  0  0  0
  -28.3624  -26.4995   20.1303 O   0  0  0  0  0  0
  -26.5618  -34.8913   22.4671 O   0  0  0  0  0  0
  -23.5428  -32.1385   23.7361 O   0  0  0  0  0  0
  -30.3364  -18.0967   18.8300 C   0  0  0  0  0  0
  -30.3345  -19.1518   17.9034 C   0  0  0  0  0  0
  -29.9534  -18.3160   20.1645 C   0  0  0  0  0  0
  -29.4548  -20.7415   19.5769 C   0  0  0  0  0  0
  -29.9266  -20.4513   18.2623 C   0  0  0  0  0  0
  -29.5116  -19.6505   20.5293 C   0  0  0  0  0  0
  -27.9841  -22.7200   19.0907 C   0  0  0  0  0  0
  -26.9550  -22.0574   18.5343 C   0  0  0  0  0  0
  -28.1572  -24.2432   18.8804 C   0  0  0  0  0  0
  -29.2840  -24.3190   21.1107 C   0  0  0  0  0  0
  -29.8961  -22.9560   20.5910 C   0  0  0  0  0  0
  -28.2086  -25.0244   20.2172 C   0  0  1  0  0  0
  -30.1489  -17.1278   21.1720 C   0  0  0  0  0  0
  -28.9564  -22.0708   19.8755 N   0  0  0  0  0  0
  -29.8205  -15.7097   20.7873 N   0  0  0  0  0  0
  -30.0739  -21.6703   17.0380 Cl  0  0  0  0  0  0
  -29.0190  -19.9557   22.1606 Cl  0  0  0  0  0  0
  -31.4775  -12.5337   19.1338 H   0  0  0  0  0  0
  -30.3818  -11.4070   19.8898 H   0  0  0  0  0  0
  -29.7669  -11.7435   17.4755 H   0  0  0  0  0  0
  -29.6383  -13.4661   17.7257 H   0  0  0  0  0  0
  -27.8703  -11.2835   18.8756 H   0  0  0  0  0  0
  -27.3683  -12.5540   17.7930 H   0  0  0  0  0  0
  -27.6618  -14.2465   19.5043 H   0  0  0  0  0  0
  -28.7149  -12.0655   21.3751 H   0  0  0  0  0  0
  -28.4468  -13.7256   21.8275 H   0  0  0  0  0  0
  -25.2761   -9.5678   22.4767 H   0  0  0  0  0  0
  -24.0003   -7.4626   22.7473 H   0  0  0  0  0  0
  -21.0845   -8.8772   19.8954 H   0  0  0  0  0  0
  -22.3701  -10.9673   19.6171 H   0  0  0  0  0  0
  -21.2003   -7.6149   23.9718 H   0  0  0  0  0  0
  -21.1480   -6.0525   25.9078 H   0  0  0  0  0  0
  -22.0599   -2.7612   23.2849 H   0  0  0  0  0  0
  -22.4105  -11.9868   22.4795 H   0  0  0  0  0  0
  -21.1114  -13.1241   22.2636 H   0  0  0  0  0  0
  -24.6546  -15.8396   20.5103 H   0  0  0  0  0  0
  -26.2650  -15.6272   20.0509 H   0  0  0  0  0  0
  -26.7186  -32.5436   23.1107 H   0  0  0  0  0  0
  -25.0084  -33.9733   25.0436 H   0  0  0  0  0  0
  -22.7142  -31.3049   21.4020 H   0  0  0  0  0  0
  -23.3745  -35.9629   23.3304 H   0  0  0  0  0  0
  -24.3580  -36.8913   22.2059 H   0  0  0  0  0  0
  -23.7239  -37.6494   23.6664 H   0  0  0  0  0  0
  -26.0927  -31.5582   20.6040 H   0  0  0  0  0  0
  -26.8420  -30.8401   21.9997 H   0  0  0  0  0  0
  -28.1221  -29.0010   21.1594 H   0  0  0  0  0  0
  -25.9542  -25.9160   19.0472 H   0  0  0  0  0  0
  -23.9615  -27.2957   19.0414 H   0  0  0  0  0  0
  -23.7521  -30.5957   19.4044 H   0  0  0  0  0  0
  -22.7531  -29.2486   19.8585 H   0  0  0  0  0  0
  -25.1282  -36.1935   25.0827 H   0  0  0  0  0  0
  -20.9983  -28.3258   24.1402 H   0  0  0  0  0  0
  -20.5682  -26.2294   23.3610 H   0  0  0  0  0  0
  -21.6640  -26.7445   22.1193 H   0  0  0  0  0  0
  -19.6912  -25.6296   21.1240 H   0  0  0  0  0  0
  -19.6684  -27.3202   20.6754 H   0  0  0  0  0  0
  -17.4196  -26.6693   21.4026 H   0  0  0  0  0  0
  -18.0326  -26.0072   22.9016 H   0  0  0  0  0  0
  -19.7938  -30.7284   24.2257 H   0  0  0  0  0  0
  -17.5010  -31.6270   24.5172 H   0  0  0  0  0  0
  -15.5351  -30.2985   23.7657 H   0  0  0  0  0  0
  -15.8677  -28.0826   22.7057 H   0  0  0  0  0  0
  -24.5909  -30.7060   25.7800 H   0  0  0  0  0  0
  -24.8917  -32.2876   26.4912 H   0  0  0  0  0  0
  -25.8068  -30.8887   27.0236 H   0  0  0  0  0  0
  -26.2914  -29.6770   24.1211 H   0  0  0  0  0  0
  -27.4064  -29.7285   25.4676 H   0  0  0  0  0  0
  -27.8771  -30.4323   23.9384 H   0  0  0  0  0  0
  -27.2675  -33.3640   26.2053 H   0  0  0  0  0  0
  -28.3864  -32.6875   25.0314 H   0  0  0  0  0  0
  -28.0724  -31.8463   26.5414 H   0  0  0  0  0  0
  -28.2583  -38.0105   24.7523 H   0  0  0  0  0  0
  -28.1077  -36.2629   24.6266 H   0  0  0  0  0  0
  -27.2297  -37.1423   25.8871 H   0  0  0  0  0  0
  -20.9366  -29.8774   21.6907 H   0  0  0  0  0  0
  -26.0163  -38.2846   24.1425 H   0  0  0  0  0  0
  -30.6863  -17.1217   18.5197 H   0  0  0  0  0  0
  -30.6757  -18.9670   16.8948 H   0  0  0  0  0  0
  -26.2196  -22.5687   17.9285 H   0  0  0  0  0  0
  -26.8201  -20.9940   18.6699 H   0  0  0  0  0  0
  -27.3686  -24.6110   18.2271 H   0  0  0  0  0  0
  -29.0808  -24.4116   18.3253 H   0  0  0  0  0  0
  -30.1076  -25.0098   21.2922 H   0  0  0  0  0  0
  -28.8430  -24.1460   22.0937 H   0  0  0  0  0  0
  -30.3531  -22.4223   21.4252 H   0  0  0  0  0  0
  -30.7111  -23.1856   19.9018 H   0  0  0  0  0  0
  -27.2558  -24.8333   20.7145 H   0  0  0  0  0  0
  -29.5620  -17.3308   22.0669 H   0  0  0  0  0  0
  -31.1884  -17.1577   21.5011 H   0  0  0  0  0  0
  -28.8530  -15.4608   20.9218 H   0  0  0  0  0  0
  1 25  1  0  0  0
  1 30  2  0  0  0
  1 85  1  0  0  0
  2  3  1  0  0  0
  2 25  1  0  0  0
  2 88  1  0  0  0
  2 89  1  0  0  0
  3  4  1  0  0  0
  3 90  1  0  0  0
  3 91  1  0  0  0
  4  5  1  0  0  0
  4 92  1  0  0  0
  4 93  1  0  0  0
  5  6  1  0  0  0
  5 26  1  0  0  0
  5 94  1  0  0  0
  6 25  1  0  0  0
  6 95  1  0  0  0
  6 96  1  0  0  0
  7  8  2  0  0  0
  7 26  1  0  0  0
  7 29  1  0  0  0
  8  9  1  0  0  0
  8 22  1  0  0  0
  9 10  1  0  0  0
  9 27  2  0  0  0
 10 11  2  0  0  0
 10 15  1  0  0  0
 11 12  1  0  0  0
 11 97  1  0  0  0
 12 13  2  0  0  0
 12 98  1  0  0  0
 13 14  1  0  0  0
 13 31  1  0  0  0
 14 15  2  0  0  0
 14 99  1  0  0  0
 15100  1  0  0  0
 16 17  2  0  0  0
 16 21  1  0  0  0
 16 31  1  0  0  0
 17 18  1  0  0  0
 17101  1  0  0  0
 18 19  2  0  0  0
 18102  1  0  0  0
 19 20  1  0  0  0
 19 24  1  0  0  0
 20 21  2  0  0  0
 20103  1  0  0  0
 21 23  1  0  0  0
 22 28  1  0  0  0
 22 32  2  0  0  0
 26 27  1  0  0  0
 28104  1  0  0  0
 28105  1  0  0  0
 29106  1  0  0  0
 29107  1  0  0  0
 33 34  1  0  0  0
 33 66  1  0  0  0
 33 70  2  0  0  0
 34 36  1  0  0  0
 34 59  1  0  0  0
 34108  1  0  0  0
 35 44  2  0  0  0
 35 45  1  0  0  0
 35 68  1  0  0  0
 36 56  1  0  0  0
 36109  1  0  0  0
 37 39  1  0  0  0
 37 47  1  0  0  0
 37 66  1  0  0  0
 37110  1  0  0  0
 38 43  2  0  0  0
 38 46  1  0  0  0
 38 47  1  0  0  0
 39 64  1  0  0  0
 39 67  2  0  0  0
 40 52  1  0  0  0
 40 53  2  0  0  0
 40 58  1  0  0  0
 41111  1  0  0  0
 41112  1  0  0  0
 41113  1  0  0  0
 41 48  1  0  0  0
 42 43  1  0  0  0
 42 66  1  0  0  0
 42114  1  0  0  0
 42115  1  0  0  0
 43 44  1  0  0  0
 44116  1  0  0  0
 45 46  2  0  0  0
 45117  1  0  0  0
 46118  1  0  0  0
 47119  1  0  0  0
 47120  1  0  0  0
 48 56  1  0  0  0
 48 65  1  0  0  0
 48121  1  0  0  0
 49 50  1  0  0  0
 49 53  1  0  0  0
 49 64  1  0  0  0
 49122  1  0  0  0
 50 51  1  0  0  0
 50123  1  0  0  0
 50124  1  0  0  0
 51 52  1  0  0  0
 51125  1  0  0  0
 51126  1  0  0  0
 52127  1  0  0  0
 52128  1  0  0  0
 53 54  1  0  0  0
 54 55  2  0  0  0
 54129  1  0  0  0
 55 57  1  0  0  0
 55130  1  0  0  0
 56 69  2  0  0  0
 57 58  2  0  0  0
 57131  1  0  0  0
 58132  1  0  0  0
 59 60  1  0  0  0
 59 61  1  0  0  0
 59 62  1  0  0  0
 60133  1  0  0  0
 60134  1  0  0  0
 60135  1  0  0  0
 61136  1  0  0  0
 61137  1  0  0  0
 61138  1  0  0  0
 62139  1  0  0  0
 62140  1  0  0  0
 62141  1  0  0  0
 63 65  1  0  0  0
 63142  1  0  0  0
 63143  1  0  0  0
 63144  1  0  0  0
 64145  1  0  0  0
 65146  1  0  0  0
 68 82  1  0  0  0
 71 72  2  0  0  0
 71 73  1  0  0  0
 71147  1  0  0  0
 72 75  1  0  0  0
 72148  1  0  0  0
 73 76  2  0  0  0
 73 83  1  0  0  0
 74 75  2  0  0  0
 74 76  1  0  0  0
 74 84  1  0  0  0
 75 86  1  0  0  0
 76 87  1  0  0  0
 77 78  2  0  0  0
 77 79  1  0  0  0
 77 84  1  0  0  0
 78149  1  0  0  0
 78150  1  0  0  0
 79 82  1  0  0  0
 79151  1  0  0  0
 79152  1  0  0  0
 80 81  1  0  0  0
 80 82  1  0  0  0
 80153  1  0  0  0
 80154  1  0  0  0
 81 84  1  0  0  0
 81155  1  0  0  0
 81156  1  0  0  0
 82157  1  0  0  0
 83 85  1  0  0  0
 83158  1  0  0  0
 83159  1  0  0  0
 85160  1  0  0  0
M  ISO  4   1 100  68 101  82 101  85 100
M  END
> <chiral flag>
0

> <version>
0

> <s_m_source_file>
/data/baiqing/PycharmProjects/Reinvent-master-3.2/result/LINK_invent/BTK/process_docking_weight1_custom_product_contain_oxygen_bond_distance_aromatic_linkinvent_7_9_3/rearranged_h_0043.sdf

> <i_m_source_file_index>
33

> <r_mmod_Potential_Energy-OPLS-2005>
114.687576293945

> <r_mmod_Stretch_Energy-OPLS-2005>
84.3112030029297

> <r_mmod_Bend_Energy-OPLS-2005>
136.857040405273

> <r_mmod_Torsional_Energy-OPLS-2005>
264.390106201172

> <r_mmod_Improper_Torsional_Energy-OPLS-2005>
6.46333599090576

> <r_mmod_Van_der_Waal_Energy-OPLS-2005>
152.556076049805

> <r_mmod_Electrostatic_Energy-OPLS-2005>
-370.537933349609

> <r_mmod_Solvation_Energy-OPLS-2005>
-207.247344970703

> <b_mmod_Minimization_Converged-OPLS-2005>
0

> <r_mmod_RMS_Derivative-OPLS-2005>
1.00010883808136

$$$$
33
                    3D
 Structure written by MMmdl.
164173  0  0  1  0            999 V2000
  -30.6231  -14.5597   20.5197 C   0  0  0  0  0  0
  -30.4388  -12.3510   19.4070 C   0  0  0  0  0  0
  -29.4958  -12.5062   18.1938 C   0  0  0  0  0  0
  -28.0158  -12.3559   18.6076 C   0  0  0  0  0  0
  -27.6566  -13.1988   19.8613 C   0  0  2  0  0  0
  -28.7078  -12.9915   20.9743 C   0  0  0  0  0  0
  -25.2589  -13.8138   20.5659 C   0  0  0  0  0  0
  -24.1847  -13.0425   20.9174 C   0  0  0  0  0  0
  -24.6397  -11.6889   20.8751 C   0  0  0  0  0  0
  -23.9059  -10.4274   21.0419 C   0  0  0  0  0  0
  -24.3613   -9.4189   21.9200 C   0  0  0  0  0  0
  -23.6284   -8.2234   22.0772 C   0  0  0  0  0  0
  -22.4271   -8.0280   21.3551 C   0  0  0  0  0  0
  -21.9901   -9.0253   20.4663 C   0  0  0  0  0  0
  -22.7232  -10.2123   20.3071 C   0  0  0  0  0  0
  -21.6857   -6.0737   22.5279 C   0  0  0  0  0  0
  -21.4007   -6.5637   23.8205 C   0  0  0  0  0  0
  -21.3666   -5.6798   24.9166 C   0  0  0  0  0  0
  -21.6042   -4.3064   24.7223 C   0  0  0  0  0  0
  -21.8824   -3.8151   23.4348 C   0  0  0  0  0  0
  -21.9181   -4.6961   22.3398 C   0  0  0  0  0  0
  -22.7862  -13.5217   21.1825 C   0  0  0  0  0  0
  -22.1649   -4.2139   21.0977 F   0  0  0  0  0  0
  -21.5631   -3.4555   25.7744 F   0  0  0  0  0  0
  -30.0228  -13.3402   20.4114 N   0  0  0  0  0  0
  -26.3007  -12.9290   20.3308 N   0  0  0  0  0  0
  -25.9318  -11.6467   20.5770 N   0  0  0  0  0  0
  -22.0484  -12.8252   22.0397 N   0  0  0  0  0  0
  -25.4315  -15.1862   20.4057 N   0  0  0  0  0  0
  -31.7937  -14.7648   20.1836 O   0  0  0  0  0  0
  -21.6643   -6.8876   21.4240 O   0  0  0  0  0  0
  -22.3555  -14.5519   20.6655 O   0  0  0  0  0  0
  -24.6202  -31.8609   23.1978 C   0  0  0  0  0  0
  -25.9091  -32.4754   23.8298 C   0  0  1  0  0  0
  -27.2442  -27.3617   20.1249 C   0  0  0  0  0  0
  -25.5933  -33.8546   24.2250 N   0  0  0  0  0  0
  -23.4095  -30.4811   21.5404 C   0  0  2  0  0  0
  -24.8627  -28.9240   20.1173 C   0  0  0  0  0  0
  -22.7413  -29.4643   22.4945 C   0  0  0  0  0  0
  -18.0287  -28.1369   22.8489 C   0  0  0  0  0  0
  -24.1488  -36.7272   23.2632 C   0  0  0  0  0  0
  -25.9430  -30.8028   21.3600 C   0  0  0  0  0  0
  -26.0240  -29.4271   20.7190 C   0  0  0  0  0  0
  -27.2180  -28.6569   20.7136 C   0  0  0  0  0  0
  -26.0674  -26.8860   19.5129 C   0  0  0  0  0  0
  -24.8841  -27.6559   19.5072 C   0  0  0  0  0  0
  -23.6228  -29.7983   20.1613 C   0  0  0  0  0  0
  -25.4113  -36.3053   24.0304 C   0  0  1  0  0  0
  -20.5869  -28.3682   23.1293 C   0  0  2  0  0  0
  -20.6782  -26.9412   22.5411 C   0  0  0  0  0  0
  -19.5767  -26.6397   21.5202 C   0  0  0  0  0  0
  -18.1943  -26.7920   22.1611 C   0  0  0  0  0  0
  -19.1528  -28.8844   23.2898 C   0  0  0  0  0  0
  -18.9472  -30.1444   23.8909 C   0  0  0  0  0  0
  -17.6469  -30.6578   24.0575 C   0  0  0  0  0  0
  -25.9052  -34.9426   23.5076 C   0  0  0  0  0  0
  -16.5368  -29.9077   23.6341 C   0  0  0  0  0  0
  -16.7280  -28.6491   23.0355 C   0  0  0  0  0  0
  -26.4495  -31.6524   25.0641 C   0  0  0  0  0  0
  -25.3732  -31.3657   26.1372 C   0  0  0  0  0  0
  -27.0316  -30.2953   24.6026 C   0  0  0  0  0  0
  -27.6060  -32.4231   25.7429 C   0  0  0  0  0  0
  -27.5564  -37.1770   24.8466 C   0  0  0  0  0  0
  -21.4131  -29.3046   22.3676 N   0  0  0  0  0  0
  -26.4289  -37.3752   23.9394 N   0  0  0  0  0  0
  -24.6760  -31.0643   22.0912 N   0  0  0  0  0  0
  -23.4163  -28.8232   23.3043 O   0  0  0  0  0  0
  -28.4059  -26.6002   20.0651 O   0  0  0  0  0  0
  -26.5622  -34.8898   22.4650 O   0  0  0  0  0  0
  -23.5387  -32.1413   23.7346 O   0  0  0  0  0  0
  -30.0960  -18.0699   20.7138 C   0  0  0  0  0  0
  -29.7942  -18.0789   23.4967 C   0  0  0  0  0  0
  -30.1510  -19.3279   21.4062 C   0  0  0  0  0  0
  -29.7283  -16.8534   22.8117 C   0  0  0  0  0  0
  -29.9155  -16.8264   21.4094 C   0  0  0  0  0  0
  -30.0259  -19.2897   22.8215 C   0  0  0  0  0  0
  -29.0683  -22.7050   20.7287 C   0  0  0  0  0  0
  -29.0688  -22.7622   17.8391 C   0  0  0  0  0  0
  -29.1490  -24.1001   18.5799 C   0  0  0  0  0  0
  -29.8622  -21.6840   18.5961 C   0  0  0  0  0  0
  -28.4839  -23.9596   19.9561 C   0  0  2  0  0  0
  -29.4554  -15.5874   23.6136 C   0  0  0  0  0  0
  -30.5999  -20.6469   20.6998 C   0  0  0  0  0  0
  -28.4716  -25.3202   20.7752 C   0  0  0  0  0  0
  -29.6702  -21.6557   20.0627 N   0  0  0  0  0  0
  -29.7403  -15.5687   20.7392 N   0  0  0  0  0  0
  -28.9694  -22.7060   21.9558 O   0  0  0  0  0  0
  -30.2450  -20.6897   23.8081 Cl  0  0  0  0  0  0
  -31.4782  -12.4904   19.1025 H   0  0  0  0  0  0
  -30.3759  -11.3426   19.8170 H   0  0  0  0  0  0
  -29.7465  -11.7759   17.4239 H   0  0  0  0  0  0
  -29.6434  -13.4866   17.7403 H   0  0  0  0  0  0
  -27.8277  -11.2993   18.8028 H   0  0  0  0  0  0
  -27.3633  -12.6283   17.7757 H   0  0  0  0  0  0
  -27.6848  -14.2413   19.5466 H   0  0  0  0  0  0
  -28.7087  -11.9521   21.3077 H   0  0  0  0  0  0
  -28.4648  -13.5819   21.8546 H   0  0  0  0  0  0
  -25.2763   -9.5664   22.4770 H   0  0  0  0  0  0
  -23.9987   -7.4639   22.7522 H   0  0  0  0  0  0
  -21.0819   -8.8787   19.8995 H   0  0  0  0  0  0
  -22.3703  -10.9666   19.6186 H   0  0  0  0  0  0
  -21.2009   -7.6153   23.9694 H   0  0  0  0  0  0
  -21.1478   -6.0539   25.9065 H   0  0  0  0  0  0
  -22.0596   -2.7617   23.2857 H   0  0  0  0  0  0
  -22.4099  -11.9887   22.4752 H   0  0  0  0  0  0
  -21.1117  -13.1317   22.2609 H   0  0  0  0  0  0
  -24.6654  -15.8380   20.5293 H   0  0  0  0  0  0
  -26.2703  -15.6314   20.0556 H   0  0  0  0  0  0
  -26.7152  -32.5459   23.1041 H   0  0  0  0  0  0
  -25.0108  -33.9710   25.0412 H   0  0  0  0  0  0
  -22.7039  -31.3010   21.3917 H   0  0  0  0  0  0
  -23.3730  -35.9629   23.3316 H   0  0  0  0  0  0
  -24.3594  -36.8875   22.2047 H   0  0  0  0  0  0
  -23.7255  -37.6474   23.6663 H   0  0  0  0  0  0
  -26.0559  -31.5577   20.5810 H   0  0  0  0  0  0
  -26.8297  -30.8644   21.9796 H   0  0  0  0  0  0
  -28.1155  -29.0505   21.1719 H   0  0  0  0  0  0
  -26.0740  -25.9208   19.0256 H   0  0  0  0  0  0
  -23.9965  -27.2656   19.0256 H   0  0  0  0  0  0
  -23.7268  -30.5666   19.3955 H   0  0  0  0  0  0
  -22.7447  -29.2176   19.8713 H   0  0  0  0  0  0
  -25.1284  -36.1887   25.0785 H   0  0  0  0  0  0
  -20.9991  -28.3284   24.1400 H   0  0  0  0  0  0
  -20.5688  -26.2295   23.3609 H   0  0  0  0  0  0
  -21.6655  -26.7463   22.1202 H   0  0  0  0  0  0
  -19.6947  -25.6321   21.1197 H   0  0  0  0  0  0
  -19.6698  -27.3245   20.6756 H   0  0  0  0  0  0
  -17.4219  -26.6695   21.4001 H   0  0  0  0  0  0
  -18.0349  -26.0029   22.8976 H   0  0  0  0  0  0
  -19.7952  -30.7261   24.2261 H   0  0  0  0  0  0
  -17.5038  -31.6257   24.5185 H   0  0  0  0  0  0
  -15.5360  -30.2994   23.7649 H   0  0  0  0  0  0
  -15.8686  -28.0829   22.7044 H   0  0  0  0  0  0
  -24.5995  -30.6889   25.7732 H   0  0  0  0  0  0
  -24.8826  -32.2816   26.4666 H   0  0  0  0  0  0
  -25.8069  -30.8973   27.0215 H   0  0  0  0  0  0
  -26.2861  -29.6702   24.1104 H   0  0  0  0  0  0
  -27.4113  -29.7172   25.4455 H   0  0  0  0  0  0
  -27.8671  -30.4218   23.9139 H   0  0  0  0  0  0
  -27.2690  -33.3577   26.1907 H   0  0  0  0  0  0
  -28.3933  -32.6677   25.0289 H   0  0  0  0  0  0
  -28.0634  -31.8390   26.5424 H   0  0  0  0  0  0
  -28.2568  -38.0079   24.7522 H   0  0  0  0  0  0
  -28.1061  -36.2604   24.6282 H   0  0  0  0  0  0
  -27.2292  -37.1395   25.8873 H   0  0  0  0  0  0
  -20.9304  -29.8721   21.6848 H   0  0  0  0  0  0
  -26.0150  -38.2805   24.1443 H   0  0  0  0  0  0
  -30.2268  -18.0546   19.6411 H   0  0  0  0  0  0
  -29.6912  -18.0962   24.5724 H   0  0  0  0  0  0
  -29.4576  -22.8599   16.8229 H   0  0  0  0  0  0
  -28.0260  -22.4555   17.7409 H   0  0  0  0  0  0
  -28.6453  -24.8736   18.0007 H   0  0  0  0  0  0
  -30.1881  -24.4184   18.6831 H   0  0  0  0  0  0
  -30.9221  -21.8681   18.4019 H   0  0  0  0  0  0
  -29.6413  -20.7029   18.1732 H   0  0  0  0  0  0
  -27.4366  -23.7207   19.7662 H   0  0  0  0  0  0
  -30.1802  -14.8057   23.3841 H   0  0  0  0  0  0
  -28.4548  -15.2150   23.3983 H   0  0  0  0  0  0
  -29.5119  -15.7693   24.6864 H   0  0  0  0  0  0
  -31.3085  -20.2977   19.9479 H   0  0  0  0  0  0
  -31.2469  -21.1940   21.3859 H   0  0  0  0  0  0
  -29.3975  -25.3684   21.3502 H   0  0  0  0  0  0
  -27.6824  -25.2731   21.5282 H   0  0  0  0  0  0
  -28.8069  -15.1976   20.8200 H   0  0  0  0  0  0
  1 25  1  0  0  0
  1 30  2  0  0  0
  1 86  1  0  0  0
  2  3  1  0  0  0
  2 25  1  0  0  0
  2 89  1  0  0  0
  2 90  1  0  0  0
  3  4  1  0  0  0
  3 91  1  0  0  0
  3 92  1  0  0  0
  4  5  1  0  0  0
  4 93  1  0  0  0
  4 94  1  0  0  0
  5  6  1  0  0  0
  5 26  1  0  0  0
  5 95  1  0  0  0
  6 25  1  0  0  0
  6 96  1  0  0  0
  6 97  1  0  0  0
  7  8  2  0  0  0
  7 26  1  0  0  0
  7 29  1  0  0  0
  8  9  1  0  0  0
  8 22  1  0  0  0
  9 10  1  0  0  0
  9 27  2  0  0  0
 10 11  2  0  0  0
 10 15  1  0  0  0
 11 12  1  0  0  0
 11 98  1  0  0  0
 12 13  2  0  0  0
 12 99  1  0  0  0
 13 14  1  0  0  0
 13 31  1  0  0  0
 14 15  2  0  0  0
 14100  1  0  0  0
 15101  1  0  0  0
 16 17  2  0  0  0
 16 21  1  0  0  0
 16 31  1  0  0  0
 17 18  1  0  0  0
 17102  1  0  0  0
 18 19  2  0  0  0
 18103  1  0  0  0
 19 20  1  0  0  0
 19 24  1  0  0  0
 20 21  2  0  0  0
 20104  1  0  0  0
 21 23  1  0  0  0
 22 28  1  0  0  0
 22 32  2  0  0  0
 26 27  1  0  0  0
 28105  1  0  0  0
 28106  1  0  0  0
 29107  1  0  0  0
 29108  1  0  0  0
 33 34  1  0  0  0
 33 66  1  0  0  0
 33 70  2  0  0  0
 34 36  1  0  0  0
 34 59  1  0  0  0
 34109  1  0  0  0
 35 44  2  0  0  0
 35 45  1  0  0  0
 35 68  1  0  0  0
 36 56  1  0  0  0
 36110  1  0  0  0
 37 39  1  0  0  0
 37 47  1  0  0  0
 37 66  1  0  0  0
 37111  1  0  0  0
 38 43  2  0  0  0
 38 46  1  0  0  0
 38 47  1  0  0  0
 39 64  1  0  0  0
 39 67  2  0  0  0
 40 52  1  0  0  0
 40 53  2  0  0  0
 40 58  1  0  0  0
 41112  1  0  0  0
 41113  1  0  0  0
 41114  1  0  0  0
 41 48  1  0  0  0
 42 43  1  0  0  0
 42 66  1  0  0  0
 42115  1  0  0  0
 42116  1  0  0  0
 43 44  1  0  0  0
 44117  1  0  0  0
 45 46  2  0  0  0
 45118  1  0  0  0
 46119  1  0  0  0
 47120  1  0  0  0
 47121  1  0  0  0
 48 56  1  0  0  0
 48 65  1  0  0  0
 48122  1  0  0  0
 49 50  1  0  0  0
 49 53  1  0  0  0
 49 64  1  0  0  0
 49123  1  0  0  0
 50 51  1  0  0  0
 50124  1  0  0  0
 50125  1  0  0  0
 51 52  1  0  0  0
 51126  1  0  0  0
 51127  1  0  0  0
 52128  1  0  0  0
 52129  1  0  0  0
 53 54  1  0  0  0
 54 55  2  0  0  0
 54130  1  0  0  0
 55 57  1  0  0  0
 55131  1  0  0  0
 56 69  2  0  0  0
 57 58  2  0  0  0
 57132  1  0  0  0
 58133  1  0  0  0
 59 60  1  0  0  0
 59 61  1  0  0  0
 59 62  1  0  0  0
 60134  1  0  0  0
 60135  1  0  0  0
 60136  1  0  0  0
 61137  1  0  0  0
 61138  1  0  0  0
 61139  1  0  0  0
 62140  1  0  0  0
 62141  1  0  0  0
 62142  1  0  0  0
 63 65  1  0  0  0
 63143  1  0  0  0
 63144  1  0  0  0
 63145  1  0  0  0
 64146  1  0  0  0
 65147  1  0  0  0
 68 84  1  0  0  0
 71 73  2  0  0  0
 71 75  1  0  0  0
 71148  1  0  0  0
 72 74  1  0  0  0
 72 76  2  0  0  0
 72149  1  0  0  0
 73 76  1  0  0  0
 73 83  1  0  0  0
 74 75  2  0  0  0
 74 82  1  0  0  0
 75 86  1  0  0  0
 76 88  1  0  0  0
 77 81  1  0  0  0
 77 85  1  0  0  0
 77 87  2  0  0  0
 78 79  1  0  0  0
 78 80  1  0  0  0
 78150  1  0  0  0
 78151  1  0  0  0
 79 81  1  0  0  0
 79152  1  0  0  0
 79153  1  0  0  0
 80 85  1  0  0  0
 80154  1  0  0  0
 80155  1  0  0  0
 81 84  1  0  0  0
 81156  1  0  0  0
 82157  1  0  0  0
 82158  1  0  0  0
 82159  1  0  0  0
 83 85  1  0  0  0
 83160  1  0  0  0
 83161  1  0  0  0
 84162  1  0  0  0
 84163  1  0  0  0
 86164  1  0  0  0
M  ISO  4   1 100  68 101  84 101  86 100
M  END
> <chiral flag>
0

> <version>
0

> <s_m_source_file>
/data/baiqing/PycharmProjects/Reinvent-master-3.2/result/LINK_invent/BTK/process_docking_weight1_custom_product_contain_oxygen_bond_distance_aromatic_linkinvent_7_9_3/rearranged_h_0043.sdf

> <i_m_source_file_index>
34

> <r_mmod_Potential_Energy-OPLS-2005>
105.838310241699

> <r_mmod_Stretch_Energy-OPLS-2005>
70.8223571777344

> <r_mmod_Bend_Energy-OPLS-2005>
147.323287963867

> <r_mmod_Torsional_Energy-OPLS-2005>
301.107940673828

> <r_mmod_Improper_Torsional_Energy-OPLS-2005>
12.9159288406372

> <r_mmod_Van_der_Waal_Energy-OPLS-2005>
149.07341003418

> <r_mmod_Electrostatic_Energy-OPLS-2005>
-373.995727539062

> <r_mmod_Solvation_Energy-OPLS-2005>
-229.314514160156

> <b_mmod_Minimization_Converged-OPLS-2005>
0

> <r_mmod_RMS_Derivative-OPLS-2005>
3.26845598220825

$$$$
34
                    3D
 Structure written by MMmdl.
154162  0  0  1  0            999 V2000
  -30.6757  -14.5080   20.4956 C   0  0  0  0  0  0
  -30.4152  -12.2979   19.4537 C   0  0  0  0  0  0
  -29.5055  -12.4799   18.2200 C   0  0  0  0  0  0
  -28.0181  -12.3750   18.6125 C   0  0  0  0  0  0
  -27.6534  -13.2202   19.8644 C   0  0  2  0  0  0
  -28.6919  -13.0343   20.9944 C   0  0  0  0  0  0
  -25.2516  -13.8187   20.5707 C   0  0  0  0  0  0
  -24.1785  -13.0440   20.9200 C   0  0  0  0  0  0
  -24.6373  -11.6917   20.8745 C   0  0  0  0  0  0
  -23.9049  -10.4281   21.0395 C   0  0  0  0  0  0
  -24.3614   -9.4187   21.9159 C   0  0  0  0  0  0
  -23.6282   -8.2224   22.0733 C   0  0  0  0  0  0
  -22.4251   -8.0271   21.3536 C   0  0  0  0  0  0
  -21.9887   -9.0238   20.4645 C   0  0  0  0  0  0
  -22.7227  -10.2109   20.3040 C   0  0  0  0  0  0
  -21.6835   -6.0727   22.5271 C   0  0  0  0  0  0
  -21.4025   -6.5625   23.8212 C   0  0  0  0  0  0
  -21.3676   -5.6780   24.9178 C   0  0  0  0  0  0
  -21.6035   -4.3043   24.7225 C   0  0  0  0  0  0
  -21.8811   -3.8136   23.4351 C   0  0  0  0  0  0
  -21.9176   -4.6956   22.3404 C   0  0  0  0  0  0
  -22.7809  -13.5225   21.1855 C   0  0  0  0  0  0
  -22.1642   -4.2142   21.0982 F   0  0  0  0  0  0
  -21.5627   -3.4527   25.7740 F   0  0  0  0  0  0
  -30.0224  -13.3157   20.4399 N   0  0  0  0  0  0
  -26.2963  -12.9396   20.3310 N   0  0  0  0  0  0
  -25.9295  -11.6538   20.5730 N   0  0  0  0  0  0
  -22.0445  -12.8246   22.0444 N   0  0  0  0  0  0
  -25.4206  -15.1924   20.4148 N   0  0  0  0  0  0
  -31.8518  -14.6309   20.1443 O   0  0  0  0  0  0
  -21.6616   -6.8865   21.4233 O   0  0  0  0  0  0
  -22.3495  -14.5523   20.6705 O   0  0  0  0  0  0
  -24.6175  -31.8671   23.2102 C   0  0  0  0  0  0
  -25.9044  -32.4820   23.8408 C   0  0  1  0  0  0
  -27.2379  -27.4040   20.0878 C   0  0  0  0  0  0
  -25.5875  -33.8622   24.2315 N   0  0  0  0  0  0
  -23.4056  -30.4908   21.5540 C   0  0  2  0  0  0
  -24.8511  -28.9568   20.1180 C   0  0  0  0  0  0
  -22.7425  -29.4646   22.5009 C   0  0  0  0  0  0
  -18.0265  -28.1349   22.8521 C   0  0  0  0  0  0
  -24.1477  -36.7306   23.2640 C   0  0  0  0  0  0
  -25.9432  -30.8192   21.3745 C   0  0  0  0  0  0
  -26.0145  -29.4548   20.7140 C   0  0  0  0  0  0
  -27.2060  -28.6880   20.6924 C   0  0  0  0  0  0
  -26.0430  -26.9314   19.4912 C   0  0  0  0  0  0
  -24.8628  -27.6947   19.5062 C   0  0  0  0  0  0
  -23.6150  -29.8266   20.1680 C   0  0  0  0  0  0
  -25.4100  -36.3115   24.0340 C   0  0  1  0  0  0
  -20.5875  -28.3628   23.1330 C   0  0  2  0  0  0
  -20.6760  -26.9359   22.5424 C   0  0  0  0  0  0
  -19.5733  -26.6358   21.5225 C   0  0  0  0  0  0
  -18.1912  -26.7893   22.1638 C   0  0  0  0  0  0
  -19.1522  -28.8807   23.2923 C   0  0  0  0  0  0
  -18.9446  -30.1421   23.8923 C   0  0  0  0  0  0
  -17.6446  -30.6563   24.0555 C   0  0  0  0  0  0
  -25.9026  -34.9477   23.5128 C   0  0  0  0  0  0
  -16.5340  -29.9061   23.6326 C   0  0  0  0  0  0
  -16.7263  -28.6474   23.0377 C   0  0  0  0  0  0
  -26.4458  -31.6628   25.0749 C   0  0  0  0  0  0
  -25.3725  -31.3770   26.1497 C   0  0  0  0  0  0
  -27.0294  -30.3057   24.6183 C   0  0  0  0  0  0
  -27.6000  -32.4394   25.7505 C   0  0  0  0  0  0
  -27.5589  -37.1799   24.8459 C   0  0  0  0  0  0
  -21.4156  -29.2986   22.3728 N   0  0  0  0  0  0
  -26.4290  -37.3802   23.9421 N   0  0  0  0  0  0
  -24.6735  -31.0743   22.1026 N   0  0  0  0  0  0
  -23.4181  -28.8161   23.3041 O   0  0  0  0  0  0
  -28.4334  -26.6935   20.1084 O   0  0  0  0  0  0
  -26.5608  -34.8939   22.4697 O   0  0  0  0  0  0
  -23.5353  -32.1414   23.7481 O   0  0  0  0  0  0
  -29.3312  -17.9958   20.9338 C   0  0  0  0  0  0
  -30.3044  -19.6411   19.4166 C   0  0  0  0  0  0
  -30.9071  -17.2820   19.2286 C   0  0  0  0  0  0
  -29.4520  -19.3451   20.5000 C   0  0  0  0  0  0
  -30.0688  -16.9451   20.3221 C   0  0  0  0  0  0
  -31.0243  -18.6130   18.7807 C   0  0  0  0  0  0
  -28.4021  -22.9197   20.6940 C   0  0  0  0  0  0
  -28.6503  -20.4589   21.1932 C   0  0  0  0  0  0
  -29.0611  -24.3244   20.7114 C   0  0  0  0  0  0
  -28.5310  -25.3247   19.6374 C   0  0  0  0  0  0
  -29.9043  -15.5878   20.7839 N   0  0  0  0  0  0
  -29.1493  -21.8377   20.9988 N   0  0  0  0  0  0
  -27.2000  -22.8159   20.4402 O   0  0  0  0  0  0
  -32.0538  -18.9840   17.4443 Cl  0  0  0  0  0  0
  -31.4671  -12.3714   19.1706 H   0  0  0  0  0  0
  -30.2918  -11.3006   19.8786 H   0  0  0  0  0  0
  -29.7458  -11.7318   17.4650 H   0  0  0  0  0  0
  -29.7001  -13.4514   17.7624 H   0  0  0  0  0  0
  -27.8013  -11.3248   18.8031 H   0  0  0  0  0  0
  -27.3899  -12.6678   17.7711 H   0  0  0  0  0  0
  -27.6879  -14.2645   19.5515 H   0  0  0  0  0  0
  -28.6560  -12.0151   21.3819 H   0  0  0  0  0  0
  -28.4615  -13.6771   21.8457 H   0  0  0  0  0  0
  -25.2761   -9.5666   22.4733 H   0  0  0  0  0  0
  -23.9991   -7.4613   22.7450 H   0  0  0  0  0  0
  -21.0803   -8.8773   19.8960 H   0  0  0  0  0  0
  -22.3687  -10.9648   19.6154 H   0  0  0  0  0  0
  -21.2033   -7.6127   23.9734 H   0  0  0  0  0  0
  -21.1514   -6.0499   25.9082 H   0  0  0  0  0  0
  -22.0580   -2.7600   23.2843 H   0  0  0  0  0  0
  -22.4059  -11.9951   22.4919 H   0  0  0  0  0  0
  -21.1060  -13.1272   22.2595 H   0  0  0  0  0  0
  -24.6574  -15.8468   20.5414 H   0  0  0  0  0  0
  -26.2673  -15.6330   20.0818 H   0  0  0  0  0  0
  -26.7107  -32.5511   23.1157 H   0  0  0  0  0  0
  -25.0039  -33.9784   25.0468 H   0  0  0  0  0  0
  -22.6948  -31.3085   21.4159 H   0  0  0  0  0  0
  -23.3761  -35.9620   23.3296 H   0  0  0  0  0  0
  -24.3573  -36.8920   22.2055 H   0  0  0  0  0  0
  -23.7194  -37.6490   23.6662 H   0  0  0  0  0  0
  -26.0803  -31.5914   20.6148 H   0  0  0  0  0  0
  -26.8209  -30.8568   22.0095 H   0  0  0  0  0  0
  -28.1055  -29.0784   21.1460 H   0  0  0  0  0  0
  -25.9670  -25.9801   18.9928 H   0  0  0  0  0  0
  -23.9675  -27.3030   19.0426 H   0  0  0  0  0  0
  -23.7273  -30.6026   19.4095 H   0  0  0  0  0  0
  -22.7386  -29.2475   19.8709 H   0  0  0  0  0  0
  -25.1275  -36.1985   25.0839 H   0  0  0  0  0  0
  -20.9991  -28.3183   24.1441 H   0  0  0  0  0  0
  -20.5675  -26.2222   23.3601 H   0  0  0  0  0  0
  -21.6627  -26.7396   22.1203 H   0  0  0  0  0  0
  -19.6879  -25.6275   21.1236 H   0  0  0  0  0  0
  -19.6669  -27.3190   20.6778 H   0  0  0  0  0  0
  -17.4180  -26.6682   21.4032 H   0  0  0  0  0  0
  -18.0285  -26.0015   22.9016 H   0  0  0  0  0  0
  -19.7922  -30.7235   24.2309 H   0  0  0  0  0  0
  -17.4993  -31.6253   24.5130 H   0  0  0  0  0  0
  -15.5340  -30.2964   23.7621 H   0  0  0  0  0  0
  -15.8669  -28.0777   22.7107 H   0  0  0  0  0  0
  -24.5825  -30.7204   25.7830 H   0  0  0  0  0  0
  -24.9015  -32.2962   26.4998 H   0  0  0  0  0  0
  -25.8052  -30.8868   27.0221 H   0  0  0  0  0  0
  -26.2863  -29.6823   24.1193 H   0  0  0  0  0  0
  -27.3975  -29.7289   25.4672 H   0  0  0  0  0  0
  -27.8747  -30.4335   23.9414 H   0  0  0  0  0  0
  -27.2557  -33.3669   26.2107 H   0  0  0  0  0  0
  -28.3781  -32.7023   25.0321 H   0  0  0  0  0  0
  -28.0719  -31.8539   26.5401 H   0  0  0  0  0  0
  -28.2589  -38.0117   24.7544 H   0  0  0  0  0  0
  -28.1105  -36.2642   24.6241 H   0  0  0  0  0  0
  -27.2320  -37.1398   25.8868 H   0  0  0  0  0  0
  -20.9301  -29.8701   21.6953 H   0  0  0  0  0  0
  -26.0181  -38.2888   24.1431 H   0  0  0  0  0  0
  -28.6643  -17.7719   21.7542 H   0  0  0  0  0  0
  -30.4117  -20.6526   19.0482 H   0  0  0  0  0  0
  -31.4699  -16.5327   18.6932 H   0  0  0  0  0  0
  -28.6469  -20.2584   22.2674 H   0  0  0  0  0  0
  -27.6106  -20.3738   20.8730 H   0  0  0  0  0  0
  -30.1423  -24.2254   20.6047 H   0  0  0  0  0  0
  -28.8924  -24.7466   21.7024 H   0  0  0  0  0  0
  -27.6355  -24.9336   19.1741 H   0  0  0  0  0  0
  -29.2490  -25.3363   18.8177 H   0  0  0  0  0  0
  -29.0221  -15.3743   21.2228 H   0  0  0  0  0  0
  -30.1230  -21.9890   21.2245 H   0  0  0  0  0  0
  1 25  1  0  0  0
  1 30  2  0  0  0
  1 81  1  0  0  0
  2  3  1  0  0  0
  2 25  1  0  0  0
  2 85  1  0  0  0
  2 86  1  0  0  0
  3  4  1  0  0  0
  3 87  1  0  0  0
  3 88  1  0  0  0
  4  5  1  0  0  0
  4 89  1  0  0  0
  4 90  1  0  0  0
  5  6  1  0  0  0
  5 26  1  0  0  0
  5 91  1  0  0  0
  6 25  1  0  0  0
  6 92  1  0  0  0
  6 93  1  0  0  0
  7  8  2  0  0  0
  7 26  1  0  0  0
  7 29  1  0  0  0
  8  9  1  0  0  0
  8 22  1  0  0  0
  9 10  1  0  0  0
  9 27  2  0  0  0
 10 11  2  0  0  0
 10 15  1  0  0  0
 11 12  1  0  0  0
 11 94  1  0  0  0
 12 13  2  0  0  0
 12 95  1  0  0  0
 13 14  1  0  0  0
 13 31  1  0  0  0
 14 15  2  0  0  0
 14 96  1  0  0  0
 15 97  1  0  0  0
 16 17  2  0  0  0
 16 21  1  0  0  0
 16 31  1  0  0  0
 17 18  1  0  0  0
 17 98  1  0  0  0
 18 19  2  0  0  0
 18 99  1  0  0  0
 19 20  1  0  0  0
 19 24  1  0  0  0
 20 21  2  0  0  0
 20100  1  0  0  0
 21 23  1  0  0  0
 22 28  1  0  0  0
 22 32  2  0  0  0
 26 27  1  0  0  0
 28101  1  0  0  0
 28102  1  0  0  0
 29103  1  0  0  0
 29104  1  0  0  0
 33 34  1  0  0  0
 33 66  1  0  0  0
 33 70  2  0  0  0
 34 36  1  0  0  0
 34 59  1  0  0  0
 34105  1  0  0  0
 35 44  2  0  0  0
 35 45  1  0  0  0
 35 68  1  0  0  0
 36 56  1  0  0  0
 36106  1  0  0  0
 37 39  1  0  0  0
 37 47  1  0  0  0
 37 66  1  0  0  0
 37107  1  0  0  0
 38 43  2  0  0  0
 38 46  1  0  0  0
 38 47  1  0  0  0
 39 64  1  0  0  0
 39 67  2  0  0  0
 40 52  1  0  0  0
 40 53  2  0  0  0
 40 58  1  0  0  0
 41108  1  0  0  0
 41109  1  0  0  0
 41110  1  0  0  0
 41 48  1  0  0  0
 42 43  1  0  0  0
 42 66  1  0  0  0
 42111  1  0  0  0
 42112  1  0  0  0
 43 44  1  0  0  0
 44113  1  0  0  0
 45 46  2  0  0  0
 45114  1  0  0  0
 46115  1  0  0  0
 47116  1  0  0  0
 47117  1  0  0  0
 48 56  1  0  0  0
 48 65  1  0  0  0
 48118  1  0  0  0
 49 50  1  0  0  0
 49 53  1  0  0  0
 49 64  1  0  0  0
 49119  1  0  0  0
 50 51  1  0  0  0
 50120  1  0  0  0
 50121  1  0  0  0
 51 52  1  0  0  0
 51122  1  0  0  0
 51123  1  0  0  0
 52124  1  0  0  0
 52125  1  0  0  0
 53 54  1  0  0  0
 54 55  2  0  0  0
 54126  1  0  0  0
 55 57  1  0  0  0
 55127  1  0  0  0
 56 69  2  0  0  0
 57 58  2  0  0  0
 57128  1  0  0  0
 58129  1  0  0  0
 59 60  1  0  0  0
 59 61  1  0  0  0
 59 62  1  0  0  0
 60130  1  0  0  0
 60131  1  0  0  0
 60132  1  0  0  0
 61133  1  0  0  0
 61134  1  0  0  0
 61135  1  0  0  0
 62136  1  0  0  0
 62137  1  0  0  0
 62138  1  0  0  0
 63 65  1  0  0  0
 63139  1  0  0  0
 63140  1  0  0  0
 63141  1  0  0  0
 64142  1  0  0  0
 65143  1  0  0  0
 68 80  1  0  0  0
 71 74  2  0  0  0
 71 75  1  0  0  0
 71144  1  0  0  0
 72 74  1  0  0  0
 72 76  2  0  0  0
 72145  1  0  0  0
 73 75  2  0  0  0
 73 76  1  0  0  0
 73146  1  0  0  0
 74 78  1  0  0  0
 75 81  1  0  0  0
 76 84  1  0  0  0
 77 79  1  0  0  0
 77 82  1  0  0  0
 77 83  2  0  0  0
 78 82  1  0  0  0
 78147  1  0  0  0
 78148  1  0  0  0
 79 80  1  0  0  0
 79149  1  0  0  0
 79150  1  0  0  0
 80151  1  0  0  0
 80152  1  0  0  0
 81153  1  0  0  0
 82154  1  0  0  0
M  ISO  4   1 100  68 101  80 101  81 100
M  END
> <chiral flag>
0

> <version>
0

> <s_m_source_file>
/data/baiqing/PycharmProjects/Reinvent-master-3.2/result/LINK_invent/BTK/process_docking_weight1_custom_product_contain_oxygen_bond_distance_aromatic_linkinvent_7_9_3/rearranged_h_0043.sdf

> <i_m_source_file_index>
35

> <r_mmod_Potential_Energy-OPLS-2005>
-114.050033569336

> <r_mmod_Stretch_Energy-OPLS-2005>
45.2667083740234

> <r_mmod_Bend_Energy-OPLS-2005>
110.716697692871

> <r_mmod_Torsional_Energy-OPLS-2005>
216.310165405273

> <r_mmod_Improper_Torsional_Energy-OPLS-2005>
4.91485977172852

> <r_mmod_Van_der_Waal_Energy-OPLS-2005>
160.912841796875

> <r_mmod_Electrostatic_Energy-OPLS-2005>
-433.863586425781

> <r_mmod_Solvation_Energy-OPLS-2005>
-238.843658447266

> <b_mmod_Minimization_Converged-OPLS-2005>
0

> <r_mmod_RMS_Derivative-OPLS-2005>
4.14831447601318

$$$$
35
                    3D
 Structure written by MMmdl.
164173  0  0  1  0            999 V2000
  -30.6057  -14.7492   20.4636 C   0  0  0  0  0  0
  -30.4400  -12.4571   19.4667 C   0  0  0  0  0  0
  -29.5188  -12.4983   18.2278 C   0  0  0  0  0  0
  -28.0415  -12.3253   18.6400 C   0  0  0  0  0  0
  -27.6411  -13.2264   19.8398 C   0  0  2  0  0  0
  -28.6876  -13.1725   20.9733 C   0  0  0  0  0  0
  -25.2503  -13.8178   20.5646 C   0  0  0  0  0  0
  -24.1789  -13.0433   20.9170 C   0  0  0  0  0  0
  -24.6369  -11.6911   20.8722 C   0  0  0  0  0  0
  -23.9054  -10.4295   21.0411 C   0  0  0  0  0  0
  -24.3598   -9.4212   21.9188 C   0  0  0  0  0  0
  -23.6266   -8.2252   22.0773 C   0  0  0  0  0  0
  -22.4249   -8.0292   21.3560 C   0  0  0  0  0  0
  -21.9913   -9.0273   20.4656 C   0  0  0  0  0  0
  -22.7246  -10.2147   20.3057 C   0  0  0  0  0  0
  -21.6849   -6.0733   22.5278 C   0  0  0  0  0  0
  -21.4019   -6.5626   23.8217 C   0  0  0  0  0  0
  -21.3667   -5.6775   24.9177 C   0  0  0  0  0  0
  -21.6057   -4.3039   24.7216 C   0  0  0  0  0  0
  -21.8812   -3.8136   23.4332 C   0  0  0  0  0  0
  -21.9183   -4.6962   22.3397 C   0  0  0  0  0  0
  -22.7821  -13.5239   21.1813 C   0  0  0  0  0  0
  -22.1648   -4.2147   21.0973 F   0  0  0  0  0  0
  -21.5642   -3.4522   25.7729 F   0  0  0  0  0  0
  -29.9847  -13.5251   20.3835 N   0  0  0  0  0  0
  -26.2930  -12.9376   20.3219 N   0  0  0  0  0  0
  -25.9299  -11.6530   20.5715 N   0  0  0  0  0  0
  -22.0427  -12.8309   22.0393 N   0  0  0  0  0  0
  -25.4136  -15.1914   20.4005 N   0  0  0  0  0  0
  -31.8123  -14.8493   20.2244 O   0  0  0  0  0  0
  -21.6629   -6.8878   21.4237 O   0  0  0  0  0  0
  -22.3550  -14.5541   20.6624 O   0  0  0  0  0  0
  -24.6317  -31.8561   23.1976 C   0  0  0  0  0  0
  -25.9159  -32.4756   23.8309 C   0  0  1  0  0  0
  -27.2159  -27.2684   20.1340 C   0  0  0  0  0  0
  -25.5954  -33.8554   24.2243 N   0  0  0  0  0  0
  -23.4234  -30.4779   21.5440 C   0  0  2  0  0  0
  -24.8668  -28.9141   20.1186 C   0  0  0  0  0  0
  -22.7468  -29.4621   22.4958 C   0  0  0  0  0  0
  -18.0315  -28.1337   22.8464 C   0  0  0  0  0  0
  -24.1493  -36.7267   23.2632 C   0  0  0  0  0  0
  -25.9654  -30.7745   21.3678 C   0  0  0  0  0  0
  -26.0391  -29.3924   20.7171 C   0  0  0  0  0  0
  -27.2177  -28.5826   20.7095 C   0  0  0  0  0  0
  -26.0235  -26.8466   19.5107 C   0  0  0  0  0  0
  -24.8638  -27.6495   19.5042 C   0  0  0  0  0  0
  -23.6393  -29.8040   20.1610 C   0  0  0  0  0  0
  -25.4122  -36.3066   24.0320 C   0  0  1  0  0  0
  -20.5903  -28.3671   23.1298 C   0  0  2  0  0  0
  -20.6811  -26.9391   22.5437 C   0  0  0  0  0  0
  -19.5815  -26.6366   21.5217 C   0  0  0  0  0  0
  -18.1984  -26.7887   22.1603 C   0  0  0  0  0  0
  -19.1546  -28.8810   23.2884 C   0  0  0  0  0  0
  -18.9456  -30.1404   23.8918 C   0  0  0  0  0  0
  -17.6455  -30.6552   24.0548 C   0  0  0  0  0  0
  -25.9063  -34.9443   23.5080 C   0  0  0  0  0  0
  -16.5352  -29.9045   23.6288 C   0  0  0  0  0  0
  -16.7295  -28.6453   23.0314 C   0  0  0  0  0  0
  -26.4512  -31.6576   25.0685 C   0  0  0  0  0  0
  -25.3734  -31.3743   26.1407 C   0  0  0  0  0  0
  -27.0351  -30.3002   24.6126 C   0  0  0  0  0  0
  -27.6071  -32.4310   25.7471 C   0  0  0  0  0  0
  -27.5579  -37.1797   24.8464 C   0  0  0  0  0  0
  -21.4175  -29.3053   22.3699 N   0  0  0  0  0  0
  -26.4287  -37.3770   23.9423 N   0  0  0  0  0  0
  -24.6929  -31.0547   22.0937 N   0  0  0  0  0  0
  -23.4183  -28.8155   23.3047 O   0  0  0  0  0  0
  -28.3393  -26.4184   20.1256 O   0  0  0  0  0  0
  -26.5619  -34.8916   22.4645 O   0  0  0  0  0  0
  -23.5482  -32.1408   23.7285 O   0  0  0  0  0  0
  -30.5457  -20.0066   21.6875 C   0  0  0  0  0  0
  -30.8501  -17.5858   21.9558 C   0  0  0  0  0  0
  -29.7361  -19.8366   20.5446 C   0  0  0  0  0  0
  -29.4861  -18.4547   20.1258 C   0  0  0  0  0  0
  -30.0596  -17.2999   20.8215 C   0  0  0  0  0  0
  -31.0813  -18.9072   22.3861 C   0  0  0  0  0  0
  -27.6950  -22.1135   21.5645 C   0  0  0  0  0  0
  -27.1000  -20.9519   21.8922 C   0  0  0  0  0  0
  -27.5528  -23.3869   22.3951 C   0  0  0  0  0  0
  -27.1772  -24.6421   21.5861 C   0  0  0  0  0  0
  -28.6120  -23.7293   19.6952 C   0  0  0  0  0  0
  -28.3245  -24.9962   20.6385 C   0  0  1  0  0  0
  -28.6361  -18.2167   18.8893 C   0  0  0  0  0  0
  -29.3646  -21.1817   19.7509 C   0  0  0  0  0  0
  -29.7872  -15.8729   20.5135 N   0  0  0  0  0  0
  -28.4002  -22.2892   20.2396 N   0  3  2  0  0  0
  -32.0441  -19.1872   23.7899 Cl  0  0  0  0  0  0
  -31.4822  -12.5851   19.1700 H   0  0  0  0  0  0
  -30.3864  -11.4882   19.9642 H   0  0  0  0  0  0
  -29.8022  -11.7216   17.5162 H   0  0  0  0  0  0
  -29.6440  -13.4509   17.7089 H   0  0  0  0  0  0
  -27.8888  -11.2774   18.8995 H   0  0  0  0  0  0
  -27.3896  -12.5274   17.7882 H   0  0  0  0  0  0
  -27.6323  -14.2437   19.4504 H   0  0  0  0  0  0
  -28.7246  -12.1817   21.4277 H   0  0  0  0  0  0
  -28.4208  -13.8647   21.7744 H   0  0  0  0  0  0
  -25.2733   -9.5684   22.4788 H   0  0  0  0  0  0
  -23.9959   -7.4655   22.7526 H   0  0  0  0  0  0
  -21.0840   -8.8804   19.8970 H   0  0  0  0  0  0
  -22.3691  -10.9697   19.6183 H   0  0  0  0  0  0
  -21.2018   -7.6137   23.9716 H   0  0  0  0  0  0
  -21.1496   -6.0505   25.9078 H   0  0  0  0  0  0
  -22.0572   -2.7594   23.2834 H   0  0  0  0  0  0
  -22.3949  -11.9978   22.4879 H   0  0  0  0  0  0
  -21.1061  -13.1434   22.2502 H   0  0  0  0  0  0
  -24.6318  -15.8311   20.4877 H   0  0  0  0  0  0
  -26.2384  -15.6383   20.0263 H   0  0  0  0  0  0
  -26.7219  -32.5406   23.1045 H   0  0  0  0  0  0
  -25.0131  -33.9680   25.0407 H   0  0  0  0  0  0
  -22.7204  -31.3013   21.3954 H   0  0  0  0  0  0
  -23.3747  -35.9603   23.3291 H   0  0  0  0  0  0
  -24.3579  -36.8905   22.2051 H   0  0  0  0  0  0
  -23.7249  -37.6463   23.6659 H   0  0  0  0  0  0
  -26.0882  -31.5285   20.5883 H   0  0  0  0  0  0
  -26.8486  -30.8341   21.9931 H   0  0  0  0  0  0
  -28.1199  -28.9474   21.1795 H   0  0  0  0  0  0
  -25.9819  -25.8755   19.0372 H   0  0  0  0  0  0
  -23.9652  -27.2790   19.0315 H   0  0  0  0  0  0
  -23.7660  -30.5780   19.4032 H   0  0  0  0  0  0
  -22.7553  -29.2405   19.8555 H   0  0  0  0  0  0
  -25.1304  -36.1905   25.0806 H   0  0  0  0  0  0
  -20.9975  -28.3290   24.1432 H   0  0  0  0  0  0
  -20.5706  -26.2300   23.3667 H   0  0  0  0  0  0
  -21.6693  -26.7402   22.1269 H   0  0  0  0  0  0
  -19.7048  -25.6289   21.1243 H   0  0  0  0  0  0
  -19.6793  -27.3188   20.6773 H   0  0  0  0  0  0
  -17.4280  -26.6592   21.3986 H   0  0  0  0  0  0
  -18.0358  -25.9997   22.8957 H   0  0  0  0  0  0
  -19.7925  -30.7183   24.2323 H   0  0  0  0  0  0
  -17.5007  -31.6226   24.5147 H   0  0  0  0  0  0
  -15.5353  -30.2936   23.7587 H   0  0  0  0  0  0
  -15.8702  -28.0769   22.7031 H   0  0  0  0  0  0
  -24.5894  -30.7096   25.7742 H   0  0  0  0  0  0
  -24.8915  -32.2918   26.4801 H   0  0  0  0  0  0
  -25.8037  -30.8950   27.0205 H   0  0  0  0  0  0
  -26.2924  -29.6764   24.1127 H   0  0  0  0  0  0
  -27.4036  -29.7243   25.4622 H   0  0  0  0  0  0
  -27.8790  -30.4280   23.9340 H   0  0  0  0  0  0
  -27.2670  -33.3617   26.2024 H   0  0  0  0  0  0
  -28.3887  -32.6876   25.0304 H   0  0  0  0  0  0
  -28.0702  -31.8441   26.5415 H   0  0  0  0  0  0
  -28.2590  -38.0100   24.7508 H   0  0  0  0  0  0
  -28.1078  -36.2634   24.6285 H   0  0  0  0  0  0
  -27.2285  -37.1428   25.8858 H   0  0  0  0  0  0
  -20.9334  -29.8818   21.6959 H   0  0  0  0  0  0
  -26.0158  -38.2832   24.1441 H   0  0  0  0  0  0
  -30.7979  -21.0037   22.0245 H   0  0  0  0  0  0
  -31.2736  -16.7767   22.5317 H   0  0  0  0  0  0
  -26.5433  -20.8623   22.8143 H   0  0  0  0  0  0
  -27.1401  -20.0764   21.2606 H   0  0  0  0  0  0
  -28.4793  -23.5461   22.9499 H   0  0  0  0  0  0
  -26.7829  -23.2237   23.1508 H   0  0  0  0  0  0
  -26.9807  -25.4651   22.2737 H   0  0  0  0  0  0
  -26.2527  -24.4737   21.0319 H   0  0  0  0  0  0
  -29.6257  -23.8215   19.3068 H   0  0  0  0  0  0
  -27.9647  -23.8115   18.8209 H   0  0  0  0  0  0
  -29.1996  -25.0312   21.2911 H   0  0  0  0  0  0
  -27.7028  -18.7780   18.9512 H   0  0  0  0  0  0
  -28.3729  -17.1679   18.7539 H   0  0  0  0  0  0
  -29.1754  -18.5357   17.9952 H   0  0  0  0  0  0
  -29.0334  -20.9120   18.7489 H   0  0  0  0  0  0
  -30.3231  -21.6711   19.5794 H   0  0  0  0  0  0
  -28.8128  -15.6571   20.3922 H   0  0  0  0  0  0
  -27.6581  -22.0424   19.6029 H   0  0  0  0  0  0
  1 25  1  0  0  0
  1 30  2  0  0  0
  1 85  1  0  0  0
  2  3  1  0  0  0
  2 25  1  0  0  0
  2 88  1  0  0  0
  2 89  1  0  0  0
  3  4  1  0  0  0
  3 90  1  0  0  0
  3 91  1  0  0  0
  4  5  1  0  0  0
  4 92  1  0  0  0
  4 93  1  0  0  0
  5  6  1  0  0  0
  5 26  1  0  0  0
  5 94  1  0  0  0
  6 25  1  0  0  0
  6 95  1  0  0  0
  6 96  1  0  0  0
  7  8  2  0  0  0
  7 26  1  0  0  0
  7 29  1  0  0  0
  8  9  1  0  0  0
  8 22  1  0  0  0
  9 10  1  0  0  0
  9 27  2  0  0  0
 10 11  2  0  0  0
 10 15  1  0  0  0
 11 12  1  0  0  0
 11 97  1  0  0  0
 12 13  2  0  0  0
 12 98  1  0  0  0
 13 14  1  0  0  0
 13 31  1  0  0  0
 14 15  2  0  0  0
 14 99  1  0  0  0
 15100  1  0  0  0
 16 17  2  0  0  0
 16 21  1  0  0  0
 16 31  1  0  0  0
 17 18  1  0  0  0
 17101  1  0  0  0
 18 19  2  0  0  0
 18102  1  0  0  0
 19 20  1  0  0  0
 19 24  1  0  0  0
 20 21  2  0  0  0
 20103  1  0  0  0
 21 23  1  0  0  0
 22 28  1  0  0  0
 22 32  2  0  0  0
 26 27  1  0  0  0
 28104  1  0  0  0
 28105  1  0  0  0
 29106  1  0  0  0
 29107  1  0  0  0
 33 34  1  0  0  0
 33 66  1  0  0  0
 33 70  2  0  0  0
 34 36  1  0  0  0
 34 59  1  0  0  0
 34108  1  0  0  0
 35 44  2  0  0  0
 35 45  1  0  0  0
 35 68  1  0  0  0
 36 56  1  0  0  0
 36109  1  0  0  0
 37 39  1  0  0  0
 37 47  1  0  0  0
 37 66  1  0  0  0
 37110  1  0  0  0
 38 43  2  0  0  0
 38 46  1  0  0  0
 38 47  1  0  0  0
 39 64  1  0  0  0
 39 67  2  0  0  0
 40 52  1  0  0  0
 40 53  2  0  0  0
 40 58  1  0  0  0
 41111  1  0  0  0
 41112  1  0  0  0
 41113  1  0  0  0
 41 48  1  0  0  0
 42 43  1  0  0  0
 42 66  1  0  0  0
 42114  1  0  0  0
 42115  1  0  0  0
 43 44  1  0  0  0
 44116  1  0  0  0
 45 46  2  0  0  0
 45117  1  0  0  0
 46118  1  0  0  0
 47119  1  0  0  0
 47120  1  0  0  0
 48 56  1  0  0  0
 48 65  1  0  0  0
 48121  1  0  0  0
 49 50  1  0  0  0
 49 53  1  0  0  0
 49 64  1  0  0  0
 49122  1  0  0  0
 50 51  1  0  0  0
 50123  1  0  0  0
 50124  1  0  0  0
 51 52  1  0  0  0
 51125  1  0  0  0
 51126  1  0  0  0
 52127  1  0  0  0
 52128  1  0  0  0
 53 54  1  0  0  0
 54 55  2  0  0  0
 54129  1  0  0  0
 55 57  1  0  0  0
 55130  1  0  0  0
 56 69  2  0  0  0
 57 58  2  0  0  0
 57131  1  0  0  0
 58132  1  0  0  0
 59 60  1  0  0  0
 59 61  1  0  0  0
 59 62  1  0  0  0
 60133  1  0  0  0
 60134  1  0  0  0
 60135  1  0  0  0
 61136  1  0  0  0
 61137  1  0  0  0
 61138  1  0  0  0
 62139  1  0  0  0
 62140  1  0  0  0
 62141  1  0  0  0
 63 65  1  0  0  0
 63142  1  0  0  0
 63143  1  0  0  0
 63144  1  0  0  0
 64145  1  0  0  0
 65146  1  0  0  0
 68 82  1  0  0  0
 71 73  2  0  0  0
 71 76  1  0  0  0
 71147  1  0  0  0
 72 75  1  0  0  0
 72 76  2  0  0  0
 72148  1  0  0  0
 73 74  1  0  0  0
 73 84  1  0  0  0
 74 75  2  0  0  0
 74 83  1  0  0  0
 75 85  1  0  0  0
 76 87  1  0  0  0
 77 78  2  0  0  0
 77 79  1  0  0  0
 77 86  1  0  0  0
 78149  1  0  0  0
 78150  1  0  0  0
 79 80  1  0  0  0
 79151  1  0  0  0
 79152  1  0  0  0
 80 82  1  0  0  0
 80153  1  0  0  0
 80154  1  0  0  0
 81 82  1  0  0  0
 81 86  1  0  0  0
 81155  1  0  0  0
 81156  1  0  0  0
 82157  1  0  0  0
 83158  1  0  0  0
 83159  1  0  0  0
 83160  1  0  0  0
 84161  1  0  0  0
 84162  1  0  0  0
 84 86  1  0  0  0
 85163  1  0  0  0
 86164  1  0  0  0
M  CHG  1  86   1
M  ISO  4   1 100  68 101  82 101  85 100
M  END
> <chiral flag>
0

> <version>
0

> <s_m_source_file>
/data/baiqing/PycharmProjects/Reinvent-master-3.2/result/LINK_invent/BTK/process_docking_weight1_custom_product_contain_oxygen_bond_distance_aromatic_linkinvent_7_9_3/rearranged_h_0043.sdf

> <i_m_source_file_index>
36

> <r_mmod_Potential_Energy-OPLS-2005>
145.548706054688

> <r_mmod_Stretch_Energy-OPLS-2005>
128.889038085938

> <r_mmod_Bend_Energy-OPLS-2005>
223.606781005859

> <r_mmod_Torsional_Energy-OPLS-2005>
280.249450683594

> <r_mmod_Improper_Torsional_Energy-OPLS-2005>
8.91218280792236

> <r_mmod_Van_der_Waal_Energy-OPLS-2005>
130.504333496094

> <r_mmod_Electrostatic_Energy-OPLS-2005>
-263.408081054688

> <r_mmod_Solvation_Energy-OPLS-2005>
-446.384552001953

> <b_mmod_Minimization_Converged-OPLS-2005>
0

> <r_mmod_RMS_Derivative-OPLS-2005>
3.53546667098999

$$$$
36
                    3D
 Structure written by MMmdl.
160169  0  0  1  0            999 V2000
  -30.5251  -15.0120   20.4242 C   0  0  0  0  0  0
  -30.4370  -12.6286   19.5196 C   0  0  0  0  0  0
  -29.5238  -12.5405   18.2727 C   0  0  0  0  0  0
  -28.0617  -12.3103   18.6939 C   0  0  0  0  0  0
  -27.6271  -13.2533   19.8441 C   0  0  2  0  0  0
  -28.6658  -13.3093   20.9852 C   0  0  0  0  0  0
  -25.2441  -13.8235   20.5733 C   0  0  0  0  0  0
  -24.1769  -13.0440   20.9253 C   0  0  0  0  0  0
  -24.6395  -11.6928   20.8781 C   0  0  0  0  0  0
  -23.9076  -10.4294   21.0422 C   0  0  0  0  0  0
  -24.3624   -9.4202   21.9191 C   0  0  0  0  0  0
  -23.6298   -8.2236   22.0752 C   0  0  0  0  0  0
  -22.4277   -8.0286   21.3543 C   0  0  0  0  0  0
  -21.9927   -9.0260   20.4640 C   0  0  0  0  0  0
  -22.7261  -10.2130   20.3061 C   0  0  0  0  0  0
  -21.6859   -6.0739   22.5277 C   0  0  0  0  0  0
  -21.4012   -6.5641   23.8213 C   0  0  0  0  0  0
  -21.3658   -5.6788   24.9175 C   0  0  0  0  0  0
  -21.6046   -4.3052   24.7226 C   0  0  0  0  0  0
  -21.8818   -3.8145   23.4348 C   0  0  0  0  0  0
  -21.9194   -4.6964   22.3406 C   0  0  0  0  0  0
  -22.7779  -13.5200   21.1892 C   0  0  0  0  0  0
  -22.1661   -4.2142   21.0983 F   0  0  0  0  0  0
  -21.5629   -3.4537   25.7744 F   0  0  0  0  0  0
  -29.9361  -13.7410   20.3878 N   0  0  0  0  0  0
  -26.2869  -12.9472   20.3289 N   0  0  0  0  0  0
  -25.9329  -11.6592   20.5780 N   0  0  0  0  0  0
  -22.0446  -12.8177   22.0458 N   0  0  0  0  0  0
  -25.4110  -15.1967   20.4109 N   0  0  0  0  0  0
  -31.7290  -15.0430   20.1409 O   0  0  0  0  0  0
  -21.6645   -6.8883   21.4236 O   0  0  0  0  0  0
  -22.3454  -14.5514   20.6757 O   0  0  0  0  0  0
  -24.6476  -31.8353   23.1820 C   0  0  0  0  0  0
  -25.9200  -32.4664   23.8245 C   0  0  1  0  0  0
  -27.2120  -27.0695   20.1762 C   0  0  0  0  0  0
  -25.5910  -33.8477   24.2158 N   0  0  0  0  0  0
  -23.4574  -30.4558   21.5265 C   0  0  2  0  0  0
  -24.9075  -28.8721   20.1123 C   0  0  0  0  0  0
  -22.7613  -29.4508   22.4822 C   0  0  0  0  0  0
  -18.0305  -28.1429   22.8476 C   0  0  0  0  0  0
  -24.1479  -36.7250   23.2653 C   0  0  0  0  0  0
  -26.0186  -30.6939   21.3873 C   0  0  0  0  0  0
  -26.0885  -29.2973   20.7338 C   0  0  0  0  0  0
  -27.2393  -28.4139   20.7461 C   0  0  0  0  0  0
  -26.0091  -26.7671   19.5019 C   0  0  0  0  0  0
  -24.8854  -27.6224   19.4782 C   0  0  0  0  0  0
  -23.6879  -29.7820   20.1480 C   0  0  0  0  0  0
  -25.4111  -36.3018   24.0320 C   0  0  1  0  0  0
  -20.5936  -28.3733   23.1226 C   0  0  2  0  0  0
  -20.6796  -26.9434   22.5414 C   0  0  0  0  0  0
  -19.5758  -26.6386   21.5248 C   0  0  0  0  0  0
  -18.1931  -26.7976   22.1632 C   0  0  0  0  0  0
  -19.1571  -28.8900   23.2849 C   0  0  0  0  0  0
  -18.9492  -30.1502   23.8871 C   0  0  0  0  0  0
  -17.6485  -30.6622   24.0566 C   0  0  0  0  0  0
  -25.9059  -34.9387   23.5061 C   0  0  0  0  0  0
  -16.5374  -29.9123   23.6346 C   0  0  0  0  0  0
  -16.7284  -28.6546   23.0359 C   0  0  0  0  0  0
  -26.4496  -31.6558   25.0717 C   0  0  0  0  0  0
  -25.3662  -31.3750   26.1400 C   0  0  0  0  0  0
  -27.0376  -30.2961   24.6309 C   0  0  0  0  0  0
  -27.6021  -32.4336   25.7489 C   0  0  0  0  0  0
  -27.5569  -37.1773   24.8463 C   0  0  0  0  0  0
  -21.4286  -29.3058   22.3600 N   0  0  0  0  0  0
  -26.4258  -37.3751   23.9425 N   0  0  0  0  0  0
  -24.7287  -31.0164   22.0874 N   0  0  0  0  0  0
  -23.4244  -28.8067   23.2977 O   0  0  0  0  0  0
  -28.2436  -26.0422   20.2490 O   0  0  0  0  0  0
  -26.5701  -34.8901   22.4673 O   0  0  0  0  0  0
  -23.5572  -32.1213   23.7001 O   0  0  0  0  0  0
  -31.5117  -19.4693   19.4351 C   0  0  0  0  0  0
  -30.6643  -20.5551   19.7537 C   0  0  0  0  0  0
  -31.2021  -18.1258   19.7415 C   0  0  0  0  0  0
  -29.1163  -18.9342   20.6882 C   0  0  0  0  0  0
  -29.4264  -20.4005   20.4155 C   0  0  0  0  0  0
  -29.9990  -17.7469   20.3767 C   0  0  0  0  0  0
  -27.8865  -21.7928   21.8961 C   0  0  0  0  0  0
  -28.1569  -21.1583   23.0517 C   0  0  0  0  0  0
  -26.7298  -22.7879   21.8242 C   0  0  0  0  0  0
  -27.2017  -24.2507   21.6739 C   0  0  0  0  0  0
  -29.0126  -23.1407   20.2055 C   0  0  0  0  0  0
  -27.9495  -24.4795   20.3515 C   0  0  2  0  0  0
  -27.7747  -18.5805   21.3068 C   0  0  0  0  0  0
  -28.6786  -21.6844   20.7457 N   0  0  0  0  0  0
  -29.7555  -16.2197   20.6099 N   0  0  0  0  0  0
  -31.4706  -12.7876   19.2109 H   0  0  0  0  0  0
  -30.4372  -11.6844   20.0693 H   0  0  0  0  0  0
  -29.8568  -11.7360   17.6154 H   0  0  0  0  0  0
  -29.5982  -13.4645   17.6978 H   0  0  0  0  0  0
  -27.9760  -11.2737   19.0228 H   0  0  0  0  0  0
  -27.3929  -12.4154   17.8392 H   0  0  0  0  0  0
  -27.5841  -14.2492   19.4023 H   0  0  0  0  0  0
  -28.7673  -12.3395   21.4736 H   0  0  0  0  0  0
  -28.3511  -14.0112   21.7588 H   0  0  0  0  0  0
  -25.2767   -9.5683   22.4765 H   0  0  0  0  0  0
  -24.0014   -7.4629   22.7471 H   0  0  0  0  0  0
  -21.0857   -8.8783   19.8939 H   0  0  0  0  0  0
  -22.3732  -10.9671   19.6170 H   0  0  0  0  0  0
  -21.1998   -7.6148   23.9717 H   0  0  0  0  0  0
  -21.1477   -6.0518   25.9076 H   0  0  0  0  0  0
  -22.0597   -2.7604   23.2855 H   0  0  0  0  0  0
  -22.4075  -11.9828   22.4811 H   0  0  0  0  0  0
  -21.1068  -13.1166   22.2674 H   0  0  0  0  0  0
  -24.6346  -15.8447   20.5029 H   0  0  0  0  0  0
  -26.2431  -15.6273   20.0311 H   0  0  0  0  0  0
  -26.7263  -32.5251   23.0970 H   0  0  0  0  0  0
  -24.9994  -33.9584   25.0266 H   0  0  0  0  0  0
  -22.7644  -31.2846   21.3667 H   0  0  0  0  0  0
  -23.3754  -35.9569   23.3283 H   0  0  0  0  0  0
  -24.3574  -36.8904   22.2074 H   0  0  0  0  0  0
  -23.7212  -37.6431   23.6711 H   0  0  0  0  0  0
  -26.1796  -31.4393   20.6071 H   0  0  0  0  0  0
  -26.8885  -30.7502   22.0284 H   0  0  0  0  0  0
  -28.1330  -28.7339   21.2612 H   0  0  0  0  0  0
  -25.8999  -25.8181   19.0006 H   0  0  0  0  0  0
  -23.9876  -27.2914   18.9751 H   0  0  0  0  0  0
  -23.8334  -30.5538   19.3924 H   0  0  0  0  0  0
  -22.8009  -29.2301   19.8318 H   0  0  0  0  0  0
  -25.1305  -36.1832   25.0815 H   0  0  0  0  0  0
  -21.0020  -28.3306   24.1353 H   0  0  0  0  0  0
  -20.5736  -26.2341   23.3637 H   0  0  0  0  0  0
  -21.6650  -26.7459   22.1182 H   0  0  0  0  0  0
  -19.6922  -25.6300   21.1266 H   0  0  0  0  0  0
  -19.6701  -27.3198   20.6795 H   0  0  0  0  0  0
  -17.4221  -26.6727   21.4014 H   0  0  0  0  0  0
  -18.0279  -26.0152   22.9049 H   0  0  0  0  0  0
  -19.7974  -30.7322   24.2216 H   0  0  0  0  0  0
  -17.5052  -31.6297   24.5184 H   0  0  0  0  0  0
  -15.5382  -30.3027   23.7711 H   0  0  0  0  0  0
  -15.8675  -28.0869   22.7096 H   0  0  0  0  0  0
  -24.5883  -30.7051   25.7720 H   0  0  0  0  0  0
  -24.8820  -32.2939   26.4722 H   0  0  0  0  0  0
  -25.7938  -30.9000   27.0245 H   0  0  0  0  0  0
  -26.3006  -29.6670   24.1312 H   0  0  0  0  0  0
  -27.4008  -29.7261   25.4873 H   0  0  0  0  0  0
  -27.8892  -30.4225   23.9620 H   0  0  0  0  0  0
  -27.2630  -33.3690   26.1944 H   0  0  0  0  0  0
  -28.3885  -32.6788   25.0343 H   0  0  0  0  0  0
  -28.0626  -31.8538   26.5492 H   0  0  0  0  0  0
  -28.2554  -38.0105   24.7576 H   0  0  0  0  0  0
  -28.1098  -36.2643   24.6210 H   0  0  0  0  0  0
  -27.2309  -37.1329   25.8871 H   0  0  0  0  0  0
  -20.9507  -29.8784   21.6776 H   0  0  0  0  0  0
  -26.0111  -38.2800   24.1491 H   0  0  0  0  0  0
  -32.4474  -19.6734   18.9344 H   0  0  0  0  0  0
  -31.0161  -21.5421   19.4921 H   0  0  0  0  0  0
  -31.9248  -17.3810   19.4455 H   0  0  0  0  0  0
  -27.5451  -21.3089   23.9313 H   0  0  0  0  0  0
  -29.0019  -20.4927   23.1557 H   0  0  0  0  0  0
  -26.1112  -22.7031   22.7199 H   0  0  0  0  0  0
  -26.0811  -22.5132   20.9908 H   0  0  0  0  0  0
  -27.8449  -24.5164   22.5123 H   0  0  0  0  0  0
  -26.3333  -24.9073   21.7326 H   0  0  0  0  0  0
  -29.9463  -23.4250   20.6962 H   0  0  0  0  0  0
  -29.2672  -23.0472   19.1494 H   0  0  0  0  0  0
  -27.2239  -24.2806   19.5646 H   0  0  0  0  0  0
  -27.0292  -19.3501   21.1108 H   0  0  0  0  0  0
  -27.8731  -18.4528   22.3850 H   0  0  0  0  0  0
  -27.3841  -17.6506   20.8957 H   0  0  0  0  0  0
  -28.8158  -16.0070   20.9095 H   0  0  0  0  0  0
  1 25  1  0  0  0
  1 30  2  0  0  0
  1 85  1  0  0  0
  2  3  1  0  0  0
  2 25  1  0  0  0
  2 86  1  0  0  0
  2 87  1  0  0  0
  3  4  1  0  0  0
  3 88  1  0  0  0
  3 89  1  0  0  0
  4  5  1  0  0  0
  4 90  1  0  0  0
  4 91  1  0  0  0
  5  6  1  0  0  0
  5 26  1  0  0  0
  5 92  1  0  0  0
  6 25  1  0  0  0
  6 93  1  0  0  0
  6 94  1  0  0  0
  7  8  2  0  0  0
  7 26  1  0  0  0
  7 29  1  0  0  0
  8  9  1  0  0  0
  8 22  1  0  0  0
  9 10  1  0  0  0
  9 27  2  0  0  0
 10 11  2  0  0  0
 10 15  1  0  0  0
 11 12  1  0  0  0
 11 95  1  0  0  0
 12 13  2  0  0  0
 12 96  1  0  0  0
 13 14  1  0  0  0
 13 31  1  0  0  0
 14 15  2  0  0  0
 14 97  1  0  0  0
 15 98  1  0  0  0
 16 17  2  0  0  0
 16 21  1  0  0  0
 16 31  1  0  0  0
 17 18  1  0  0  0
 17 99  1  0  0  0
 18 19  2  0  0  0
 18100  1  0  0  0
 19 20  1  0  0  0
 19 24  1  0  0  0
 20 21  2  0  0  0
 20101  1  0  0  0
 21 23  1  0  0  0
 22 28  1  0  0  0
 22 32  2  0  0  0
 26 27  1  0  0  0
 28102  1  0  0  0
 28103  1  0  0  0
 29104  1  0  0  0
 29105  1  0  0  0
 33 34  1  0  0  0
 33 66  1  0  0  0
 33 70  2  0  0  0
 34 36  1  0  0  0
 34 59  1  0  0  0
 34106  1  0  0  0
 35 44  2  0  0  0
 35 45  1  0  0  0
 35 68  1  0  0  0
 36 56  1  0  0  0
 36107  1  0  0  0
 37 39  1  0  0  0
 37 47  1  0  0  0
 37 66  1  0  0  0
 37108  1  0  0  0
 38 43  2  0  0  0
 38 46  1  0  0  0
 38 47  1  0  0  0
 39 64  1  0  0  0
 39 67  2  0  0  0
 40 52  1  0  0  0
 40 53  2  0  0  0
 40 58  1  0  0  0
 41109  1  0  0  0
 41110  1  0  0  0
 41111  1  0  0  0
 41 48  1  0  0  0
 42 43  1  0  0  0
 42 66  1  0  0  0
 42112  1  0  0  0
 42113  1  0  0  0
 43 44  1  0  0  0
 44114  1  0  0  0
 45 46  2  0  0  0
 45115  1  0  0  0
 46116  1  0  0  0
 47117  1  0  0  0
 47118  1  0  0  0
 48 56  1  0  0  0
 48 65  1  0  0  0
 48119  1  0  0  0
 49 50  1  0  0  0
 49 53  1  0  0  0
 49 64  1  0  0  0
 49120  1  0  0  0
 50 51  1  0  0  0
 50121  1  0  0  0
 50122  1  0  0  0
 51 52  1  0  0  0
 51123  1  0  0  0
 51124  1  0  0  0
 52125  1  0  0  0
 52126  1  0  0  0
 53 54  1  0  0  0
 54 55  2  0  0  0
 54127  1  0  0  0
 55 57  1  0  0  0
 55128  1  0  0  0
 56 69  2  0  0  0
 57 58  2  0  0  0
 57129  1  0  0  0
 58130  1  0  0  0
 59 60  1  0  0  0
 59 61  1  0  0  0
 59 62  1  0  0  0
 60131  1  0  0  0
 60132  1  0  0  0
 60133  1  0  0  0
 61134  1  0  0  0
 61135  1  0  0  0
 61136  1  0  0  0
 62137  1  0  0  0
 62138  1  0  0  0
 62139  1  0  0  0
 63 65  1  0  0  0
 63140  1  0  0  0
 63141  1  0  0  0
 63142  1  0  0  0
 64143  1  0  0  0
 65144  1  0  0  0
 68 82  1  0  0  0
 71 72  2  0  0  0
 71 73  1  0  0  0
 71145  1  0  0  0
 72 75  1  0  0  0
 72146  1  0  0  0
 73 76  2  0  0  0
 73147  1  0  0  0
 74 75  2  0  0  0
 74 76  1  0  0  0
 74 83  1  0  0  0
 75 84  1  0  0  0
 76 85  1  0  0  0
 77 78  2  0  0  0
 77 79  1  0  0  0
 77 84  1  0  0  0
 78148  1  0  0  0
 78149  1  0  0  0
 79 80  1  0  0  0
 79150  1  0  0  0
 79151  1  0  0  0
 80 82  1  0  0  0
 80152  1  0  0  0
 80153  1  0  0  0
 81 82  1  0  0  0
 81 84  1  0  0  0
 81154  1  0  0  0
 81155  1  0  0  0
 82156  1  0  0  0
 83157  1  0  0  0
 83158  1  0  0  0
 83159  1  0  0  0
 85160  1  0  0  0
M  ISO  4   1 100  68 101  82 101  85 100
M  END
> <chiral flag>
0

> <version>
0

> <s_m_source_file>
/data/baiqing/PycharmProjects/Reinvent-master-3.2/result/LINK_invent/BTK/process_docking_weight1_custom_product_contain_oxygen_bond_distance_aromatic_linkinvent_7_9_3/rearranged_h_0043.sdf

> <i_m_source_file_index>
37

> <r_mmod_Potential_Energy-OPLS-2005>
656.527526855469

> <r_mmod_Stretch_Energy-OPLS-2005>
343.118865966797

> <r_mmod_Bend_Energy-OPLS-2005>
282.979736328125

> <r_mmod_Torsional_Energy-OPLS-2005>
242.836486816406

> <r_mmod_Improper_Torsional_Energy-OPLS-2005>
4.61807155609131

> <r_mmod_Van_der_Waal_Energy-OPLS-2005>
140.958206176758

> <r_mmod_Electrostatic_Energy-OPLS-2005>
-401.412994384766

> <r_mmod_Solvation_Energy-OPLS-2005>
-202.658782958984

> <b_mmod_Minimization_Converged-OPLS-2005>
0

> <r_mmod_RMS_Derivative-OPLS-2005>
3.1200852394104

$$$$
37
                    3D
 Structure written by MMmdl.
167176  0  0  1  0            999 V2000
  -30.6391  -14.5361   20.6543 C   0  0  0  0  0  0
  -30.4455  -12.3740   19.4207 C   0  0  0  0  0  0
  -29.5054  -12.5594   18.2083 C   0  0  0  0  0  0
  -28.0259  -12.3903   18.6105 C   0  0  0  0  0  0
  -27.6660  -13.2071   19.8781 C   0  0  2  0  0  0
  -28.7045  -12.9465   20.9897 C   0  0  0  0  0  0
  -25.2564  -13.8131   20.5581 C   0  0  0  0  0  0
  -24.1839  -13.0415   20.9180 C   0  0  0  0  0  0
  -24.6405  -11.6887   20.8737 C   0  0  0  0  0  0
  -23.9062  -10.4278   21.0420 C   0  0  0  0  0  0
  -24.3612   -9.4196   21.9197 C   0  0  0  0  0  0
  -23.6286   -8.2233   22.0765 C   0  0  0  0  0  0
  -22.4277   -8.0267   21.3549 C   0  0  0  0  0  0
  -21.9904   -9.0237   20.4652 C   0  0  0  0  0  0
  -22.7233  -10.2123   20.3073 C   0  0  0  0  0  0
  -21.6845   -6.0733   22.5273 C   0  0  0  0  0  0
  -21.4000   -6.5640   23.8202 C   0  0  0  0  0  0
  -21.3666   -5.6806   24.9176 C   0  0  0  0  0  0
  -21.6045   -4.3067   24.7230 C   0  0  0  0  0  0
  -21.8817   -3.8155   23.4350 C   0  0  0  0  0  0
  -21.9198   -4.6965   22.3401 C   0  0  0  0  0  0
  -22.7855  -13.5219   21.1839 C   0  0  0  0  0  0
  -22.1679   -4.2151   21.0978 F   0  0  0  0  0  0
  -21.5620   -3.4553   25.7748 F   0  0  0  0  0  0
  -30.0384  -13.3186   20.4775 N   0  0  0  0  0  0
  -26.3041  -12.9312   20.3333 N   0  0  0  0  0  0
  -25.9331  -11.6475   20.5729 N   0  0  0  0  0  0
  -22.0462  -12.8234   22.0392 N   0  0  0  0  0  0
  -25.4177  -15.1820   20.3756 N   0  0  0  0  0  0
  -31.6607  -14.8656   20.0398 O   0  0  0  0  0  0
  -21.6635   -6.8873   21.4237 O   0  0  0  0  0  0
  -22.3553  -14.5529   20.6682 O   0  0  0  0  0  0
  -24.6190  -31.8633   23.2038 C   0  0  0  0  0  0
  -25.9062  -32.4799   23.8356 C   0  0  1  0  0  0
  -27.2290  -27.3761   20.1177 C   0  0  0  0  0  0
  -25.5895  -33.8590   24.2289 N   0  0  0  0  0  0
  -23.4103  -30.4856   21.5438 C   0  0  2  0  0  0
  -24.8578  -28.9402   20.1160 C   0  0  0  0  0  0
  -22.7434  -29.4646   22.4945 C   0  0  0  0  0  0
  -18.0284  -28.1397   22.8484 C   0  0  0  0  0  0
  -24.1477  -36.7296   23.2633 C   0  0  0  0  0  0
  -25.9428  -30.8163   21.3603 C   0  0  0  0  0  0
  -26.0212  -29.4434   20.7114 C   0  0  0  0  0  0
  -27.2133  -28.6720   20.7013 C   0  0  0  0  0  0
  -26.0478  -26.9010   19.5133 C   0  0  0  0  0  0
  -24.8681  -27.6713   19.5101 C   0  0  0  0  0  0
  -23.6229  -29.8143   20.1604 C   0  0  0  0  0  0
  -25.4103  -36.3086   24.0328 C   0  0  1  0  0  0
  -20.5875  -28.3682   23.1305 C   0  0  2  0  0  0
  -20.6770  -26.9409   22.5428 C   0  0  0  0  0  0
  -19.5761  -26.6399   21.5212 C   0  0  0  0  0  0
  -18.1928  -26.7949   22.1605 C   0  0  0  0  0  0
  -19.1531  -28.8852   23.2892 C   0  0  0  0  0  0
  -18.9466  -30.1451   23.8915 C   0  0  0  0  0  0
  -17.6472  -30.6593   24.0570 C   0  0  0  0  0  0
  -25.9039  -34.9458   23.5110 C   0  0  0  0  0  0
  -16.5359  -29.9107   23.6321 C   0  0  0  0  0  0
  -16.7274  -28.6521   23.0344 C   0  0  0  0  0  0
  -26.4469  -31.6592   25.0696 C   0  0  0  0  0  0
  -25.3729  -31.3752   26.1451 C   0  0  0  0  0  0
  -27.0264  -30.3010   24.6096 C   0  0  0  0  0  0
  -27.6055  -32.4292   25.7465 C   0  0  0  0  0  0
  -27.5579  -37.1796   24.8458 C   0  0  0  0  0  0
  -21.4152  -29.3042   22.3694 N   0  0  0  0  0  0
  -26.4281  -37.3786   23.9414 N   0  0  0  0  0  0
  -24.6762  -31.0705   22.0944 N   0  0  0  0  0  0
  -23.4180  -28.8188   23.3004 O   0  0  0  0  0  0
  -28.3740  -26.5902   20.1065 O   0  0  0  0  0  0
  -26.5609  -34.8924   22.4677 O   0  0  0  0  0  0
  -23.5371  -32.1397   23.7411 O   0  0  0  0  0  0
  -28.2666  -19.1628   21.9988 C   0  0  0  0  0  0
  -29.9808  -17.7632   20.9876 C   0  0  0  0  0  0
  -29.3830  -19.0610   21.1514 C   0  0  0  0  0  0
  -27.7910  -18.0595   22.7249 C   0  0  0  0  0  0
  -28.4594  -16.8026   22.6689 C   0  0  0  0  0  0
  -29.5277  -16.6181   21.7273 C   0  0  0  0  0  0
  -29.0176  -21.5831   20.2247 C   0  0  0  0  0  0
  -31.7420  -22.1594   21.0201 C   0  0  0  0  0  0
  -31.1829  -20.7973   21.4276 C   0  0  0  0  0  0
  -30.6476  -23.2227   21.1492 C   0  0  0  0  0  0
  -29.9936  -20.3676   20.5471 C   0  0  1  0  0  0
  -26.5528  -18.2872   23.5799 C   0  0  0  0  0  0
  -28.8111  -24.0823   19.7298 C   0  0  0  0  0  0
  -28.2791  -25.2381   20.6571 C   0  0  0  0  0  0
  -28.0005  -15.6833   23.6377 C   0  0  0  0  0  0
  -29.4247  -22.8874   20.4044 N   0  0  0  0  0  0
  -30.1035  -15.2843   21.6478 N   0  0  0  0  0  0
  -27.9191  -21.3328   19.7176 O   0  0  0  0  0  0
  -28.9190  -14.7446   23.8668 F   0  0  0  0  0  0
  -27.7056  -16.1640   24.8458 F   0  0  0  0  0  0
  -26.9153  -15.0839   23.1515 F   0  0  0  0  0  0
  -31.4854  -12.5230   19.1254 H   0  0  0  0  0  0
  -30.3837  -11.3494   19.7913 H   0  0  0  0  0  0
  -29.7606  -11.8543   17.4157 H   0  0  0  0  0  0
  -29.6551  -13.5559   17.7882 H   0  0  0  0  0  0
  -27.8398  -11.3299   18.7843 H   0  0  0  0  0  0
  -27.3775  -12.6802   17.7829 H   0  0  0  0  0  0
  -27.7177  -14.2633   19.6109 H   0  0  0  0  0  0
  -28.7013  -11.8904   21.2637 H   0  0  0  0  0  0
  -28.4149  -13.4669   21.8966 H   0  0  0  0  0  0
  -25.2749   -9.5673   22.4790 H   0  0  0  0  0  0
  -23.9990   -7.4625   22.7494 H   0  0  0  0  0  0
  -21.0834   -8.8753   19.8958 H   0  0  0  0  0  0
  -22.3682  -10.9666   19.6192 H   0  0  0  0  0  0
  -21.1966   -7.6142   23.9699 H   0  0  0  0  0  0
  -21.1501   -6.0540   25.9086 H   0  0  0  0  0  0
  -22.0592   -2.7619   23.2840 H   0  0  0  0  0  0
  -22.4093  -11.9953   22.4868 H   0  0  0  0  0  0
  -21.1059  -13.1248   22.2542 H   0  0  0  0  0  0
  -24.6368  -15.8246   20.4512 H   0  0  0  0  0  0
  -26.2612  -15.6190   20.0286 H   0  0  0  0  0  0
  -26.7132  -32.5504   23.1117 H   0  0  0  0  0  0
  -25.0027  -33.9748   25.0421 H   0  0  0  0  0  0
  -22.7008  -31.3036   21.4008 H   0  0  0  0  0  0
  -23.3746  -35.9624   23.3282 H   0  0  0  0  0  0
  -24.3570  -36.8931   22.2052 H   0  0  0  0  0  0
  -23.7227  -37.6487   23.6669 H   0  0  0  0  0  0
  -26.0552  -31.5779   20.5875 H   0  0  0  0  0  0
  -26.8307  -30.8765   21.9784 H   0  0  0  0  0  0
  -28.1117  -29.0583   21.1609 H   0  0  0  0  0  0
  -26.0375  -25.9278   19.0431 H   0  0  0  0  0  0
  -23.9744  -27.2796   19.0439 H   0  0  0  0  0  0
  -23.7396  -30.5862   19.3985 H   0  0  0  0  0  0
  -22.7461  -29.2372   19.8619 H   0  0  0  0  0  0
  -25.1284  -36.1935   25.0823 H   0  0  0  0  0  0
  -20.9985  -28.3267   24.1423 H   0  0  0  0  0  0
  -20.5653  -26.2295   23.3622 H   0  0  0  0  0  0
  -21.6646  -26.7444   22.1242 H   0  0  0  0  0  0
  -19.6914  -25.6313   21.1232 H   0  0  0  0  0  0
  -19.6714  -27.3215   20.6746 H   0  0  0  0  0  0
  -17.4214  -26.6715   21.3984 H   0  0  0  0  0  0
  -18.0299  -26.0090   22.8995 H   0  0  0  0  0  0
  -19.7941  -30.7250   24.2293 H   0  0  0  0  0  0
  -17.5035  -31.6273   24.5182 H   0  0  0  0  0  0
  -15.5360  -30.3025   23.7634 H   0  0  0  0  0  0
  -15.8672  -28.0853   22.7053 H   0  0  0  0  0  0
  -24.5937  -30.7030   25.7836 H   0  0  0  0  0  0
  -24.8870  -32.2924   26.4791 H   0  0  0  0  0  0
  -25.8088  -30.9040   27.0270 H   0  0  0  0  0  0
  -26.2790  -29.6800   24.1135 H   0  0  0  0  0  0
  -27.3983  -29.7230   25.4567 H   0  0  0  0  0  0
  -27.8664  -30.4286   23.9261 H   0  0  0  0  0  0
  -27.2695  -33.3619   26.2010 H   0  0  0  0  0  0
  -28.3893  -32.6793   25.0300 H   0  0  0  0  0  0
  -28.0675  -31.8412   26.5404 H   0  0  0  0  0  0
  -28.2602  -38.0085   24.7493 H   0  0  0  0  0  0
  -28.1061  -36.2617   24.6285 H   0  0  0  0  0  0
  -27.2299  -37.1460   25.8859 H   0  0  0  0  0  0
  -20.9305  -29.8766   21.6926 H   0  0  0  0  0  0
  -26.0155  -38.2854   24.1444 H   0  0  0  0  0  0
  -27.7757  -20.1170   22.1311 H   0  0  0  0  0  0
  -30.8342  -17.6616   20.3320 H   0  0  0  0  0  0
  -32.1187  -22.1212   19.9961 H   0  0  0  0  0  0
  -32.5895  -22.4221   21.6537 H   0  0  0  0  0  0
  -30.8632  -20.8372   22.4708 H   0  0  0  0  0  0
  -31.9736  -20.0473   21.3808 H   0  0  0  0  0  0
  -31.0481  -24.1870   20.8317 H   0  0  0  0  0  0
  -30.3766  -23.3394   22.1999 H   0  0  0  0  0  0
  -30.3960  -20.0889   19.5723 H   0  0  0  0  0  0
  -25.9830  -19.1473   23.2274 H   0  0  0  0  0  0
  -26.8318  -18.4812   24.6150 H   0  0  0  0  0  0
  -25.8812  -17.4290   23.5507 H   0  0  0  0  0  0
  -29.5759  -24.4964   19.0714 H   0  0  0  0  0  0
  -28.0072  -23.7759   19.0590 H   0  0  0  0  0  0
  -28.8705  -25.2620   21.5716 H   0  0  0  0  0  0
  -27.2676  -25.0002   20.9883 H   0  0  0  0  0  0
  -29.6467  -14.6615   22.3020 H   0  0  0  0  0  0
  1 25  1  0  0  0
  1 30  2  0  0  0
  1 87  1  0  0  0
  2  3  1  0  0  0
  2 25  1  0  0  0
  2 92  1  0  0  0
  2 93  1  0  0  0
  3  4  1  0  0  0
  3 94  1  0  0  0
  3 95  1  0  0  0
  4  5  1  0  0  0
  4 96  1  0  0  0
  4 97  1  0  0  0
  5  6  1  0  0  0
  5 26  1  0  0  0
  5 98  1  0  0  0
  6 25  1  0  0  0
  6 99  1  0  0  0
  6100  1  0  0  0
  7  8  2  0  0  0
  7 26  1  0  0  0
  7 29  1  0  0  0
  8  9  1  0  0  0
  8 22  1  0  0  0
  9 10  1  0  0  0
  9 27  2  0  0  0
 10 11  2  0  0  0
 10 15  1  0  0  0
 11 12  1  0  0  0
 11101  1  0  0  0
 12 13  2  0  0  0
 12102  1  0  0  0
 13 14  1  0  0  0
 13 31  1  0  0  0
 14 15  2  0  0  0
 14103  1  0  0  0
 15104  1  0  0  0
 16 17  2  0  0  0
 16 21  1  0  0  0
 16 31  1  0  0  0
 17 18  1  0  0  0
 17105  1  0  0  0
 18 19  2  0  0  0
 18106  1  0  0  0
 19 20  1  0  0  0
 19 24  1  0  0  0
 20 21  2  0  0  0
 20107  1  0  0  0
 21 23  1  0  0  0
 22 28  1  0  0  0
 22 32  2  0  0  0
 26 27  1  0  0  0
 28108  1  0  0  0
 28109  1  0  0  0
 29110  1  0  0  0
 29111  1  0  0  0
 33 34  1  0  0  0
 33 66  1  0  0  0
 33 70  2  0  0  0
 34 36  1  0  0  0
 34 59  1  0  0  0
 34112  1  0  0  0
 35 44  2  0  0  0
 35 45  1  0  0  0
 35 68  1  0  0  0
 36 56  1  0  0  0
 36113  1  0  0  0
 37 39  1  0  0  0
 37 47  1  0  0  0
 37 66  1  0  0  0
 37114  1  0  0  0
 38 43  2  0  0  0
 38 46  1  0  0  0
 38 47  1  0  0  0
 39 64  1  0  0  0
 39 67  2  0  0  0
 40 52  1  0  0  0
 40 53  2  0  0  0
 40 58  1  0  0  0
 41115  1  0  0  0
 41116  1  0  0  0
 41117  1  0  0  0
 41 48  1  0  0  0
 42 43  1  0  0  0
 42 66  1  0  0  0
 42118  1  0  0  0
 42119  1  0  0  0
 43 44  1  0  0  0
 44120  1  0  0  0
 45 46  2  0  0  0
 45121  1  0  0  0
 46122  1  0  0  0
 47123  1  0  0  0
 47124  1  0  0  0
 48 56  1  0  0  0
 48 65  1  0  0  0
 48125  1  0  0  0
 49 50  1  0  0  0
 49 53  1  0  0  0
 49 64  1  0  0  0
 49126  1  0  0  0
 50 51  1  0  0  0
 50127  1  0  0  0
 50128  1  0  0  0
 51 52  1  0  0  0
 51129  1  0  0  0
 51130  1  0  0  0
 52131  1  0  0  0
 52132  1  0  0  0
 53 54  1  0  0  0
 54 55  2  0  0  0
 54133  1  0  0  0
 55 57  1  0  0  0
 55134  1  0  0  0
 56 69  2  0  0  0
 57 58  2  0  0  0
 57135  1  0  0  0
 58136  1  0  0  0
 59 60  1  0  0  0
 59 61  1  0  0  0
 59 62  1  0  0  0
 60137  1  0  0  0
 60138  1  0  0  0
 60139  1  0  0  0
 61140  1  0  0  0
 61141  1  0  0  0
 61142  1  0  0  0
 62143  1  0  0  0
 62144  1  0  0  0
 62145  1  0  0  0
 63 65  1  0  0  0
 63146  1  0  0  0
 63147  1  0  0  0
 63148  1  0  0  0
 64149  1  0  0  0
 65150  1  0  0  0
 68 84  1  0  0  0
 71 73  2  0  0  0
 71 74  1  0  0  0
 71151  1  0  0  0
 72 73  1  0  0  0
 72 76  2  0  0  0
 72152  1  0  0  0
 73 81  1  0  0  0
 74 75  2  0  0  0
 74 82  1  0  0  0
 75 76  1  0  0  0
 75 85  1  0  0  0
 76 87  1  0  0  0
 77 81  1  0  0  0
 77 86  1  0  0  0
 77 88  2  0  0  0
 78 79  1  0  0  0
 78 80  1  0  0  0
 78153  1  0  0  0
 78154  1  0  0  0
 79 81  1  0  0  0
 79155  1  0  0  0
 79156  1  0  0  0
 80 86  1  0  0  0
 80157  1  0  0  0
 80158  1  0  0  0
 81159  1  0  0  0
 82160  1  0  0  0
 82161  1  0  0  0
 82162  1  0  0  0
 83 84  1  0  0  0
 83 86  1  0  0  0
 83163  1  0  0  0
 83164  1  0  0  0
 84165  1  0  0  0
 84166  1  0  0  0
 85 89  1  0  0  0
 85 90  1  0  0  0
 85 91  1  0  0  0
 87167  1  0  0  0
M  ISO  4   1 100  68 101  84 101  87 100
M  END
> <chiral flag>
0

> <version>
0

> <s_m_source_file>
/data/baiqing/PycharmProjects/Reinvent-master-3.2/result/LINK_invent/BTK/process_docking_weight1_custom_product_contain_oxygen_bond_distance_aromatic_linkinvent_7_9_3/rearranged_h_0043.sdf

> <i_m_source_file_index>
38

> <r_mmod_Potential_Energy-OPLS-2005>
223.583938598633

> <r_mmod_Stretch_Energy-OPLS-2005>
74.9210510253906

> <r_mmod_Bend_Energy-OPLS-2005>
145.206130981445

> <r_mmod_Torsional_Energy-OPLS-2005>
291.94580078125

> <r_mmod_Improper_Torsional_Energy-OPLS-2005>
7.29930591583252

> <r_mmod_Van_der_Waal_Energy-OPLS-2005>
161.819244384766

> <r_mmod_Electrostatic_Energy-OPLS-2005>
-273.375701904297

> <r_mmod_Solvation_Energy-OPLS-2005>
-210.993072509766

> <b_mmod_Minimization_Converged-OPLS-2005>
0

> <r_mmod_RMS_Derivative-OPLS-2005>
2.24601817131042

$$$$
38
                    3D
 Structure written by MMmdl.
174183  0  0  1  0            999 V2000
  -30.5987  -14.6839   20.6411 C   0  0  0  0  0  0
  -30.4560  -12.4758   19.4379 C   0  0  0  0  0  0
  -29.5035  -12.5716   18.2188 C   0  0  0  0  0  0
  -28.0194  -12.3938   18.6142 C   0  0  0  0  0  0
  -27.6550  -13.2019   19.8848 C   0  0  2  0  0  0
  -28.7076  -12.9174   20.9741 C   0  0  0  0  0  0
  -25.2522  -13.8105   20.5661 C   0  0  0  0  0  0
  -24.1786  -13.0395   20.9137 C   0  0  0  0  0  0
  -24.6344  -11.6852   20.8728 C   0  0  0  0  0  0
  -23.8999  -10.4261   21.0379 C   0  0  0  0  0  0
  -24.3576   -9.4190   21.9150 C   0  0  0  0  0  0
  -23.6274   -8.2225   22.0714 C   0  0  0  0  0  0
  -22.4256   -8.0255   21.3505 C   0  0  0  0  0  0
  -21.9864   -9.0228   20.4602 C   0  0  0  0  0  0
  -22.7173  -10.2107   20.3019 C   0  0  0  0  0  0
  -21.6865   -6.0695   22.5241 C   0  0  0  0  0  0
  -21.4031   -6.5606   23.8171 C   0  0  0  0  0  0
  -21.3661   -5.6775   24.9146 C   0  0  0  0  0  0
  -21.6058   -4.3031   24.7225 C   0  0  0  0  0  0
  -21.8822   -3.8094   23.4343 C   0  0  0  0  0  0
  -21.9193   -4.6910   22.3390 C   0  0  0  0  0  0
  -22.7798  -13.5185   21.1828 C   0  0  0  0  0  0
  -22.1645   -4.2092   21.0971 F   0  0  0  0  0  0
  -21.5636   -3.4513   25.7733 F   0  0  0  0  0  0
  -29.9953  -13.4400   20.4736 N   0  0  0  0  0  0
  -26.2973  -12.9258   20.3418 N   0  0  0  0  0  0
  -25.9293  -11.6411   20.5795 N   0  0  0  0  0  0
  -22.0475  -12.8165   22.0369 N   0  0  0  0  0  0
  -25.4233  -15.1838   20.4074 N   0  0  0  0  0  0
  -31.7235  -14.8547   20.1459 O   0  0  0  0  0  0
  -21.6637   -6.8835   21.4196 O   0  0  0  0  0  0
  -22.3486  -14.5516   20.6682 O   0  0  0  0  0  0
  -24.6260  -31.8600   23.2072 C   0  0  0  0  0  0
  -25.9115  -32.4776   23.8373 C   0  0  1  0  0  0
  -27.2304  -27.3296   20.1469 C   0  0  0  0  0  0
  -25.5926  -33.8579   24.2280 N   0  0  0  0  0  0
  -23.4137  -30.4811   21.5552 C   0  0  2  0  0  0
  -24.8666  -28.9424   20.1162 C   0  0  0  0  0  0
  -22.7432  -29.4591   22.5023 C   0  0  0  0  0  0
  -18.0265  -28.1375   22.8486 C   0  0  0  0  0  0
  -24.1480  -36.7315   23.2647 C   0  0  0  0  0  0
  -25.9556  -30.7999   21.3732 C   0  0  0  0  0  0
  -26.0326  -29.4249   20.7270 C   0  0  0  0  0  0
  -27.2159  -28.6299   20.7309 C   0  0  0  0  0  0
  -26.0564  -26.9091   19.4774 C   0  0  0  0  0  0
  -24.8812  -27.6926   19.4770 C   0  0  0  0  0  0
  -23.6296  -29.8175   20.1715 C   0  0  0  0  0  0
  -25.4109  -36.3093   24.0314 C   0  0  1  0  0  0
  -20.5872  -28.3577   23.1274 C   0  0  2  0  0  0
  -20.6766  -26.9304   22.5355 C   0  0  0  0  0  0
  -19.5688  -26.6353   21.5143 C   0  0  0  0  0  0
  -18.1852  -26.7978   22.1488 C   0  0  0  0  0  0
  -19.1548  -28.8777   23.2909 C   0  0  0  0  0  0
  -18.9515  -30.1360   23.8980 C   0  0  0  0  0  0
  -17.6524  -30.6526   24.0595 C   0  0  0  0  0  0
  -25.9041  -34.9450   23.5104 C   0  0  0  0  0  0
  -16.5393  -29.9073   23.6394 C   0  0  0  0  0  0
  -16.7273  -28.6490   23.0418 C   0  0  0  0  0  0
  -26.4471  -31.6579   25.0736 C   0  0  0  0  0  0
  -25.3690  -31.3754   26.1469 C   0  0  0  0  0  0
  -27.0308  -30.2996   24.6163 C   0  0  0  0  0  0
  -27.5996  -32.4360   25.7508 C   0  0  0  0  0  0
  -27.5562  -37.1806   24.8458 C   0  0  0  0  0  0
  -21.4179  -29.2973   22.3729 N   0  0  0  0  0  0
  -26.4276  -37.3787   23.9402 N   0  0  0  0  0  0
  -24.6837  -31.0639   22.1004 N   0  0  0  0  0  0
  -23.4128  -28.8151   23.3136 O   0  0  0  0  0  0
  -28.3715  -26.5174   20.1462 O   0  0  0  0  0  0
  -26.5652  -34.8924   22.4676 O   0  0  0  0  0  0
  -23.5441  -32.1374   23.7431 O   0  0  0  0  0  0
  -31.0202  -19.4126   21.6477 C   0  0  0  0  0  0
  -31.0276  -17.9860   21.6940 C   0  0  0  0  0  0
  -29.3834  -19.3651   19.8988 C   0  0  0  0  0  0
  -30.1682  -20.1546   20.7803 C   0  0  0  0  0  0
  -29.3527  -17.9327   19.9667 C   0  0  0  0  0  0
  -30.1579  -17.1967   20.8909 C   0  0  0  0  0  0
  -29.2942  -24.1156   19.9833 C   0  0  0  0  0  0
  -30.1746  -24.5113   19.0495 C   0  0  0  0  0  0
  -26.1931  -16.9633   24.0828 C   0  0  0  0  0  0
  -27.4270  -16.4401   24.1736 C   0  0  0  0  0  0
  -27.2326  -23.1669   21.8355 C   0  0  0  0  0  0
  -27.0568  -24.5740   21.2601 C   0  0  0  0  0  0
  -27.7010  -22.2279   20.7140 C   0  0  0  0  0  0
  -28.4049  -25.1566   20.7655 C   0  0  1  0  0  0
  -28.3727  -17.2031   19.0712 C   0  0  0  0  0  0
  -30.1636  -21.7449   20.8354 C   0  0  0  0  0  0
  -28.5746  -16.7753   23.2340 C   0  0  0  0  0  0
  -28.9575  -15.5698   22.3348 C   0  0  0  0  0  0
  -29.9112  -15.7725   21.2089 N   0  0  0  0  0  0
  -29.0509  -22.5821   20.2067 N   0  3  1  0  0  0
  -31.4804  -12.6727   19.1196 H   0  0  0  0  0  0
  -30.4711  -11.4601   19.8319 H   0  0  0  0  0  0
  -29.7788  -11.8328   17.4654 H   0  0  0  0  0  0
  -29.6353  -13.5454   17.7465 H   0  0  0  0  0  0
  -27.8387  -11.3326   18.7834 H   0  0  0  0  0  0
  -27.3735  -12.6808   17.7850 H   0  0  0  0  0  0
  -27.7026  -14.2605   19.6317 H   0  0  0  0  0  0
  -28.7782  -11.8368   21.1190 H   0  0  0  0  0  0
  -28.4036  -13.2284   21.9666 H   0  0  0  0  0  0
  -25.2755   -9.5668   22.4661 H   0  0  0  0  0  0
  -23.9986   -7.4634   22.7448 H   0  0  0  0  0  0
  -21.0767   -8.8753   19.8950 H   0  0  0  0  0  0
  -22.3646  -10.9642   19.6105 H   0  0  0  0  0  0
  -21.2021   -7.6122   23.9646 H   0  0  0  0  0  0
  -21.1497   -6.0517   25.9050 H   0  0  0  0  0  0
  -22.0612   -2.7552   23.2875 H   0  0  0  0  0  0
  -22.4217  -11.9933   22.4828 H   0  0  0  0  0  0
  -21.1049  -13.1027   22.2607 H   0  0  0  0  0  0
  -24.6608  -15.8358   20.5455 H   0  0  0  0  0  0
  -26.2838  -15.6289   20.1206 H   0  0  0  0  0  0
  -26.7209  -32.5488   23.1146 H   0  0  0  0  0  0
  -25.0069  -33.9689   25.0440 H   0  0  0  0  0  0
  -22.6990  -31.2967   21.4142 H   0  0  0  0  0  0
  -23.3728  -35.9656   23.3324 H   0  0  0  0  0  0
  -24.3593  -36.8928   22.2059 H   0  0  0  0  0  0
  -23.7248  -37.6520   23.6688 H   0  0  0  0  0  0
  -26.0876  -31.5567   20.5985 H   0  0  0  0  0  0
  -26.8363  -30.8548   22.0016 H   0  0  0  0  0  0
  -28.1045  -28.9977   21.2226 H   0  0  0  0  0  0
  -26.0387  -25.9768   18.9376 H   0  0  0  0  0  0
  -23.9952  -27.3382   18.9686 H   0  0  0  0  0  0
  -23.7386  -30.5983   19.4206 H   0  0  0  0  0  0
  -22.7481  -29.2476   19.8677 H   0  0  0  0  0  0
  -25.1286  -36.1930   25.0803 H   0  0  0  0  0  0
  -20.9873  -28.3069   24.1424 H   0  0  0  0  0  0
  -20.5701  -26.2118   23.3502 H   0  0  0  0  0  0
  -21.6601  -26.7300   22.1100 H   0  0  0  0  0  0
  -19.6721  -25.6235   21.1155 H   0  0  0  0  0  0
  -19.6788  -27.3176   20.6714 H   0  0  0  0  0  0
  -17.4160  -26.6870   21.3843 H   0  0  0  0  0  0
  -18.0086  -26.0066   22.8796 H   0  0  0  0  0  0
  -19.8006  -30.7118   24.2413 H   0  0  0  0  0  0
  -17.5081  -31.6222   24.5143 H   0  0  0  0  0  0
  -15.5392  -30.2967   23.7808 H   0  0  0  0  0  0
  -15.8589  -28.0798   22.7311 H   0  0  0  0  0  0
  -24.5813  -30.7140   25.7832 H   0  0  0  0  0  0
  -24.8888  -32.2937   26.4844 H   0  0  0  0  0  0
  -25.7950  -30.8942   27.0289 H   0  0  0  0  0  0
  -26.2881  -29.6753   24.1153 H   0  0  0  0  0  0
  -27.4030  -29.7214   25.4637 H   0  0  0  0  0  0
  -27.8757  -30.4294   23.9402 H   0  0  0  0  0  0
  -27.2531  -33.3649   26.2079 H   0  0  0  0  0  0
  -28.3801  -32.6959   25.0332 H   0  0  0  0  0  0
  -28.0709  -31.8542   26.5439 H   0  0  0  0  0  0
  -28.2578  -38.0111   24.7490 H   0  0  0  0  0  0
  -28.1060  -36.2618   24.6297 H   0  0  0  0  0  0
  -27.2290  -37.1484   25.8874 H   0  0  0  0  0  0
  -20.9354  -29.8738   21.6974 H   0  0  0  0  0  0
  -26.0149  -38.2857   24.1403 H   0  0  0  0  0  0
  -31.6711  -19.9420   22.3286 H   0  0  0  0  0  0
  -31.6539  -17.4949   22.4240 H   0  0  0  0  0  0
  -28.7431  -19.8605   19.1822 H   0  0  0  0  0  0
  -30.3315  -25.5665   18.8601 H   0  0  0  0  0  0
  -30.7556  -23.8185   18.4597 H   0  0  0  0  0  0
  -25.4162  -16.6906   24.7846 H   0  0  0  0  0  0
  -25.9315  -17.6719   23.3085 H   0  0  0  0  0  0
  -27.6341  -15.7307   24.9646 H   0  0  0  0  0  0
  -27.9401  -23.1781   22.6673 H   0  0  0  0  0  0
  -26.2818  -22.8054   22.2326 H   0  0  0  0  0  0
  -26.6151  -25.2185   22.0204 H   0  0  0  0  0  0
  -26.3338  -24.5175   20.4488 H   0  0  0  0  0  0
  -26.9954  -22.2962   19.8831 H   0  0  0  0  0  0
  -27.6616  -21.1887   21.0366 H   0  0  0  0  0  0
  -28.9766  -25.3224   21.6816 H   0  0  0  0  0  0
  -27.4277  -17.0775   19.5961 H   0  0  0  0  0  0
  -28.7469  -16.2231   18.7878 H   0  0  0  0  0  0
  -28.1937  -17.7545   18.1490 H   0  0  0  0  0  0
  -31.1123  -22.0782   20.4165 H   0  0  0  0  0  0
  -30.2080  -22.0203   21.8893 H   0  0  0  0  0  0
  -29.4242  -17.0883   23.8415 H   0  0  0  0  0  0
  -28.2774  -17.6383   22.6373 H   0  0  0  0  0  0
  -28.0092  -15.2416   21.9124 H   0  0  0  0  0  0
  -29.3571  -14.7979   22.9955 H   0  0  0  0  0  0
  -29.0369  -22.1979   19.2748 H   0  0  0  0  0  0
  1 25  1  0  0  0
  1 30  2  0  0  0
  1 89  1  0  0  0
  2  3  1  0  0  0
  2 25  1  0  0  0
  2 91  1  0  0  0
  2 92  1  0  0  0
  3  4  1  0  0  0
  3 93  1  0  0  0
  3 94  1  0  0  0
  4  5  1  0  0  0
  4 95  1  0  0  0
  4 96  1  0  0  0
  5  6  1  0  0  0
  5 26  1  0  0  0
  5 97  1  0  0  0
  6 25  1  0  0  0
  6 98  1  0  0  0
  6 99  1  0  0  0
  7  8  2  0  0  0
  7 26  1  0  0  0
  7 29  1  0  0  0
  8  9  1  0  0  0
  8 22  1  0  0  0
  9 10  1  0  0  0
  9 27  2  0  0  0
 10 11  2  0  0  0
 10 15  1  0  0  0
 11 12  1  0  0  0
 11100  1  0  0  0
 12 13  2  0  0  0
 12101  1  0  0  0
 13 14  1  0  0  0
 13 31  1  0  0  0
 14 15  2  0  0  0
 14102  1  0  0  0
 15103  1  0  0  0
 16 17  2  0  0  0
 16 21  1  0  0  0
 16 31  1  0  0  0
 17 18  1  0  0  0
 17104  1  0  0  0
 18 19  2  0  0  0
 18105  1  0  0  0
 19 20  1  0  0  0
 19 24  1  0  0  0
 20 21  2  0  0  0
 20106  1  0  0  0
 21 23  1  0  0  0
 22 28  1  0  0  0
 22 32  2  0  0  0
 26 27  1  0  0  0
 28107  1  0  0  0
 28108  1  0  0  0
 29109  1  0  0  0
 29110  1  0  0  0
 33 34  1  0  0  0
 33 66  1  0  0  0
 33 70  2  0  0  0
 34 36  1  0  0  0
 34 59  1  0  0  0
 34111  1  0  0  0
 35 44  2  0  0  0
 35 45  1  0  0  0
 35 68  1  0  0  0
 36 56  1  0  0  0
 36112  1  0  0  0
 37 39  1  0  0  0
 37 47  1  0  0  0
 37 66  1  0  0  0
 37113  1  0  0  0
 38 43  2  0  0  0
 38 46  1  0  0  0
 38 47  1  0  0  0
 39 64  1  0  0  0
 39 67  2  0  0  0
 40 52  1  0  0  0
 40 53  2  0  0  0
 40 58  1  0  0  0
 41114  1  0  0  0
 41115  1  0  0  0
 41116  1  0  0  0
 41 48  1  0  0  0
 42 43  1  0  0  0
 42 66  1  0  0  0
 42117  1  0  0  0
 42118  1  0  0  0
 43 44  1  0  0  0
 44119  1  0  0  0
 45 46  2  0  0  0
 45120  1  0  0  0
 46121  1  0  0  0
 47122  1  0  0  0
 47123  1  0  0  0
 48 56  1  0  0  0
 48 65  1  0  0  0
 48124  1  0  0  0
 49 50  1  0  0  0
 49 53  1  0  0  0
 49 64  1  0  0  0
 49125  1  0  0  0
 50 51  1  0  0  0
 50126  1  0  0  0
 50127  1  0  0  0
 51 52  1  0  0  0
 51128  1  0  0  0
 51129  1  0  0  0
 52130  1  0  0  0
 52131  1  0  0  0
 53 54  1  0  0  0
 54 55  2  0  0  0
 54132  1  0  0  0
 55 57  1  0  0  0
 55133  1  0  0  0
 56 69  2  0  0  0
 57 58  2  0  0  0
 57134  1  0  0  0
 58135  1  0  0  0
 59 60  1  0  0  0
 59 61  1  0  0  0
 59 62  1  0  0  0
 60136  1  0  0  0
 60137  1  0  0  0
 60138  1  0  0  0
 61139  1  0  0  0
 61140  1  0  0  0
 61141  1  0  0  0
 62142  1  0  0  0
 62143  1  0  0  0
 62144  1  0  0  0
 63 65  1  0  0  0
 63145  1  0  0  0
 63146  1  0  0  0
 63147  1  0  0  0
 64148  1  0  0  0
 65149  1  0  0  0
 68 84  1  0  0  0
 71 72  2  0  0  0
 71 74  1  0  0  0
 71150  1  0  0  0
 72 76  1  0  0  0
 72151  1  0  0  0
 73 74  2  0  0  0
 73 75  1  0  0  0
 73152  1  0  0  0
 74 86  1  0  0  0
 75 76  2  0  0  0
 75 85  1  0  0  0
 76 89  1  0  0  0
 77 78  2  0  0  0
 77 84  1  0  0  0
 77 90  1  0  0  0
 78153  1  0  0  0
 78154  1  0  0  0
 79 80  2  0  0  0
 79155  1  0  0  0
 79156  1  0  0  0
 80 87  1  0  0  0
 80157  1  0  0  0
 81 82  1  0  0  0
 81 83  1  0  0  0
 81158  1  0  0  0
 81159  1  0  0  0
 82 84  1  0  0  0
 82160  1  0  0  0
 82161  1  0  0  0
 83 90  1  0  0  0
 83162  1  0  0  0
 83163  1  0  0  0
 84164  1  0  0  0
 85165  1  0  0  0
 85166  1  0  0  0
 85167  1  0  0  0
 86168  1  0  0  0
 86169  1  0  0  0
 86 90  1  0  0  0
 87 88  1  0  0  0
 87170  1  0  0  0
 87171  1  0  0  0
 88 89  1  0  0  0
 88172  1  0  0  0
 88173  1  0  0  0
 90174  1  0  0  0
M  CHG  1  90   1
M  ISO  4   1 100  68 101  84 101  89 100
M  END
> <chiral flag>
0

> <version>
0

> <s_m_source_file>
/data/baiqing/PycharmProjects/Reinvent-master-3.2/result/LINK_invent/BTK/process_docking_weight1_custom_product_contain_oxygen_bond_distance_aromatic_linkinvent_7_9_3/rearranged_h_0043.sdf

> <i_m_source_file_index>
39

> <r_mmod_Potential_Energy-OPLS-2005>
254.366470336914

> <r_mmod_Stretch_Energy-OPLS-2005>
114.51895904541

> <r_mmod_Bend_Energy-OPLS-2005>
200.562103271484

> <r_mmod_Torsional_Energy-OPLS-2005>
338.046661376953

> <r_mmod_Improper_Torsional_Energy-OPLS-2005>
5.6239652633667

> <r_mmod_Van_der_Waal_Energy-OPLS-2005>
152.311859130859

> <r_mmod_Electrostatic_Energy-OPLS-2005>
-189.600494384766

> <r_mmod_Solvation_Energy-OPLS-2005>
-417.408416748047

> <b_mmod_Minimization_Converged-OPLS-2005>
0

> <r_mmod_RMS_Derivative-OPLS-2005>
6.89534616470337

$$$$
39
                    3D
 Structure written by MMmdl.
161170  0  0  1  0            999 V2000
  -30.5779  -14.7624   20.4625 C   0  0  0  0  0  0
  -30.4418  -12.4717   19.4508 C   0  0  0  0  0  0
  -29.5069  -12.4987   18.2213 C   0  0  0  0  0  0
  -28.0344  -12.3138   18.6454 C   0  0  0  0  0  0
  -27.6362  -13.2216   19.8398 C   0  0  2  0  0  0
  -28.6860  -13.1654   20.9682 C   0  0  0  0  0  0
  -25.2506  -13.8164   20.5706 C   0  0  0  0  0  0
  -24.1786  -13.0426   20.9209 C   0  0  0  0  0  0
  -24.6366  -11.6898   20.8745 C   0  0  0  0  0  0
  -23.9042  -10.4283   21.0408 C   0  0  0  0  0  0
  -24.3598   -9.4203   21.9186 C   0  0  0  0  0  0
  -23.6277   -8.2238   22.0756 C   0  0  0  0  0  0
  -22.4261   -8.0274   21.3548 C   0  0  0  0  0  0
  -21.9890   -9.0247   20.4653 C   0  0  0  0  0  0
  -22.7214  -10.2128   20.3064 C   0  0  0  0  0  0
  -21.6849   -6.0726   22.5274 C   0  0  0  0  0  0
  -21.4014   -6.5635   23.8206 C   0  0  0  0  0  0
  -21.3661   -5.6787   24.9168 C   0  0  0  0  0  0
  -21.6043   -4.3048   24.7220 C   0  0  0  0  0  0
  -21.8819   -3.8141   23.4340 C   0  0  0  0  0  0
  -21.9193   -4.6956   22.3397 C   0  0  0  0  0  0
  -22.7817  -13.5225   21.1869 C   0  0  0  0  0  0
  -22.1661   -4.2141   21.0976 F   0  0  0  0  0  0
  -21.5629   -3.4536   25.7732 F   0  0  0  0  0  0
  -29.9753  -13.5307   20.3691 N   0  0  0  0  0  0
  -26.2905  -12.9347   20.3245 N   0  0  0  0  0  0
  -25.9283  -11.6501   20.5725 N   0  0  0  0  0  0
  -22.0456  -12.8227   22.0428 N   0  0  0  0  0  0
  -25.4190  -15.1889   20.4147 N   0  0  0  0  0  0
  -31.7932  -14.8742   20.2769 O   0  0  0  0  0  0
  -21.6637   -6.8867   21.4237 O   0  0  0  0  0  0
  -22.3508  -14.5540   20.6720 O   0  0  0  0  0  0
  -24.6314  -31.8540   23.1962 C   0  0  0  0  0  0
  -25.9132  -32.4750   23.8316 C   0  0  1  0  0  0
  -27.2220  -27.2553   20.1499 C   0  0  0  0  0  0
  -25.5917  -33.8552   24.2239 N   0  0  0  0  0  0
  -23.4294  -30.4738   21.5395 C   0  0  2  0  0  0
  -24.8779  -28.9087   20.1216 C   0  0  0  0  0  0
  -22.7502  -29.4596   22.4915 C   0  0  0  0  0  0
  -18.0292  -28.1389   22.8485 C   0  0  0  0  0  0
  -24.1486  -36.7284   23.2644 C   0  0  0  0  0  0
  -25.9748  -30.7659   21.3762 C   0  0  0  0  0  0
  -26.0489  -29.3835   20.7279 C   0  0  0  0  0  0
  -27.2281  -28.5706   20.7249 C   0  0  0  0  0  0
  -26.0296  -26.8376   19.5289 C   0  0  0  0  0  0
  -24.8721  -27.6431   19.5116 C   0  0  0  0  0  0
  -23.6502  -29.7993   20.1594 C   0  0  0  0  0  0
  -25.4116  -36.3069   24.0326 C   0  0  1  0  0  0
  -20.5898  -28.3701   23.1267 C   0  0  2  0  0  0
  -20.6777  -26.9416   22.5410 C   0  0  0  0  0  0
  -19.5750  -26.6384   21.5212 C   0  0  0  0  0  0
  -18.1932  -26.7931   22.1626 C   0  0  0  0  0  0
  -19.1546  -28.8861   23.2873 C   0  0  0  0  0  0
  -18.9467  -30.1460   23.8897 C   0  0  0  0  0  0
  -17.6466  -30.6590   24.0564 C   0  0  0  0  0  0
  -25.9053  -34.9438   23.5089 C   0  0  0  0  0  0
  -16.5357  -29.9088   23.6330 C   0  0  0  0  0  0
  -16.7279  -28.6504   23.0355 C   0  0  0  0  0  0
  -26.4493  -31.6587   25.0719 C   0  0  0  0  0  0
  -25.3708  -31.3752   26.1436 C   0  0  0  0  0  0
  -27.0350  -30.3003   24.6221 C   0  0  0  0  0  0
  -27.6044  -32.4340   25.7488 C   0  0  0  0  0  0
  -27.5570  -37.1806   24.8471 C   0  0  0  0  0  0
  -21.4211  -29.3046   22.3655 N   0  0  0  0  0  0
  -26.4295  -37.3762   23.9395 N   0  0  0  0  0  0
  -24.6975  -31.0503   22.0936 N   0  0  0  0  0  0
  -23.4198  -28.8146   23.3024 O   0  0  0  0  0  0
  -28.3312  -26.3883   20.0893 O   0  0  0  0  0  0
  -26.5638  -34.8913   22.4666 O   0  0  0  0  0  0
  -23.5462  -32.1366   23.7250 O   0  0  0  0  0  0
  -29.4019  -18.4745   20.3039 C   0  0  0  0  0  0
  -30.0004  -17.3239   22.3513 C   0  0  0  0  0  0
  -29.1860  -19.7527   20.9840 C   0  0  0  0  0  0
  -29.2552  -19.6863   22.4089 C   0  0  0  0  0  0
  -29.7794  -17.2304   20.9664 C   0  0  0  0  0  0
  -29.7293  -18.5125   23.0578 C   0  0  0  0  0  0
  -28.2840  -23.6828   20.1728 C   0  0  0  0  0  0
  -30.1027  -23.9283   22.3941 C   0  0  0  0  0  0
  -29.6806  -25.2451   21.7303 C   0  0  0  0  0  0
  -30.2571  -22.8213   21.3343 C   0  0  0  0  0  0
  -28.3857  -25.1253   20.9030 C   0  0  1  0  0  0
  -28.7430  -20.8135   23.2983 C   0  0  0  0  0  0
  -28.7514  -21.0939   20.1885 C   0  0  0  0  0  0
  -28.9999  -22.5615   20.6202 N   0  0  0  0  0  0
  -29.7436  -15.8712   20.3687 N   0  0  0  0  0  0
  -27.4664  -23.5678   19.2549 O   0  0  0  0  0  0
  -29.9279  -18.4725   24.7768 Cl  0  0  0  0  0  0
  -31.4779  -12.6247   19.1433 H   0  0  0  0  0  0
  -30.4100  -11.4983   19.9428 H   0  0  0  0  0  0
  -29.7920  -11.7202   17.5126 H   0  0  0  0  0  0
  -29.6190  -13.4475   17.6937 H   0  0  0  0  0  0
  -27.9011  -11.2670   18.9211 H   0  0  0  0  0  0
  -27.3711  -12.4904   17.7974 H   0  0  0  0  0  0
  -27.6215  -14.2375   19.4458 H   0  0  0  0  0  0
  -28.7326  -12.1694   21.4113 H   0  0  0  0  0  0
  -28.4230  -13.8533   21.7740 H   0  0  0  0  0  0
  -25.2739   -9.5686   22.4755 H   0  0  0  0  0  0
  -23.9988   -7.4631   22.7474 H   0  0  0  0  0  0
  -21.0819   -8.8768   19.8954 H   0  0  0  0  0  0
  -22.3670  -10.9670   19.6176 H   0  0  0  0  0  0
  -21.2011   -7.6141   23.9708 H   0  0  0  0  0  0
  -21.1483   -6.0516   25.9071 H   0  0  0  0  0  0
  -22.0597   -2.7602   23.2843 H   0  0  0  0  0  0
  -22.4069  -11.9892   22.4829 H   0  0  0  0  0  0
  -21.1085  -13.1274   22.2642 H   0  0  0  0  0  0
  -24.6510  -15.8394   20.5395 H   0  0  0  0  0  0
  -26.2649  -15.6390   20.0915 H   0  0  0  0  0  0
  -26.7204  -32.5402   23.1065 H   0  0  0  0  0  0
  -25.0033  -33.9682   25.0362 H   0  0  0  0  0  0
  -22.7263  -31.2957   21.3878 H   0  0  0  0  0  0
  -23.3735  -35.9633   23.3345 H   0  0  0  0  0  0
  -24.3561  -36.8871   22.2050 H   0  0  0  0  0  0
  -23.7265  -37.6505   23.6650 H   0  0  0  0  0  0
  -26.1119  -31.5219   20.6018 H   0  0  0  0  0  0
  -26.8523  -30.8193   22.0090 H   0  0  0  0  0  0
  -28.1337  -28.9370   21.1870 H   0  0  0  0  0  0
  -25.9932  -25.8668   19.0549 H   0  0  0  0  0  0
  -23.9755  -27.2735   19.0328 H   0  0  0  0  0  0
  -23.7784  -30.5701   19.3984 H   0  0  0  0  0  0
  -22.7689  -29.2320   19.8553 H   0  0  0  0  0  0
  -25.1305  -36.1917   25.0821 H   0  0  0  0  0  0
  -20.9990  -28.3280   24.1387 H   0  0  0  0  0  0
  -20.5664  -26.2313   23.3618 H   0  0  0  0  0  0
  -21.6644  -26.7428   22.1211 H   0  0  0  0  0  0
  -19.6908  -25.6292   21.1247 H   0  0  0  0  0  0
  -19.6685  -27.3191   20.6738 H   0  0  0  0  0  0
  -17.4199  -26.6678   21.4033 H   0  0  0  0  0  0
  -18.0333  -26.0076   22.9026 H   0  0  0  0  0  0
  -19.7942  -30.7274   24.2271 H   0  0  0  0  0  0
  -17.5020  -31.6268   24.5165 H   0  0  0  0  0  0
  -15.5358  -30.2990   23.7652 H   0  0  0  0  0  0
  -15.8680  -28.0819   22.7075 H   0  0  0  0  0  0
  -24.5867  -30.7123   25.7756 H   0  0  0  0  0  0
  -24.8918  -32.2933   26.4852 H   0  0  0  0  0  0
  -25.8008  -30.8921   27.0221 H   0  0  0  0  0  0
  -26.2948  -29.6745   24.1223 H   0  0  0  0  0  0
  -27.4002  -29.7271   25.4754 H   0  0  0  0  0  0
  -27.8833  -30.4274   23.9491 H   0  0  0  0  0  0
  -27.2641  -33.3638   26.2057 H   0  0  0  0  0  0
  -28.3848  -32.6909   25.0315 H   0  0  0  0  0  0
  -28.0721  -31.8479   26.5410 H   0  0  0  0  0  0
  -28.2625  -38.0063   24.7458 H   0  0  0  0  0  0
  -28.1027  -36.2594   24.6375 H   0  0  0  0  0  0
  -27.2281  -37.1553   25.8873 H   0  0  0  0  0  0
  -20.9403  -29.8762   21.6851 H   0  0  0  0  0  0
  -26.0178  -38.2844   24.1358 H   0  0  0  0  0  0
  -29.2325  -18.4424   19.2361 H   0  0  0  0  0  0
  -30.2829  -16.4463   22.9137 H   0  0  0  0  0  0
  -29.3658  -23.6419   23.1453 H   0  0  0  0  0  0
  -31.0443  -24.0671   22.9269 H   0  0  0  0  0  0
  -30.4885  -25.5874   21.0826 H   0  0  0  0  0  0
  -29.5567  -26.0166   22.4913 H   0  0  0  0  0  0
  -30.6649  -21.9190   21.7849 H   0  0  0  0  0  0
  -31.0038  -23.1261   20.5995 H   0  0  0  0  0  0
  -27.5479  -25.1431   21.6022 H   0  0  0  0  0  0
  -29.5698  -21.3566   23.7535 H   0  0  0  0  0  0
  -28.1333  -20.4095   24.1064 H   0  0  0  0  0  0
  -28.0938  -21.5095   22.7733 H   0  0  0  0  0  0
  -27.6747  -20.9964   20.0433 H   0  0  0  0  0  0
  -29.1732  -21.0063   19.1875 H   0  0  0  0  0  0
  -28.8329  -15.6188   20.0194 H   0  0  0  0  0  0
  1 25  1  0  0  0
  1 30  2  0  0  0
  1 85  1  0  0  0
  2  3  1  0  0  0
  2 25  1  0  0  0
  2 88  1  0  0  0
  2 89  1  0  0  0
  3  4  1  0  0  0
  3 90  1  0  0  0
  3 91  1  0  0  0
  4  5  1  0  0  0
  4 92  1  0  0  0
  4 93  1  0  0  0
  5  6  1  0  0  0
  5 26  1  0  0  0
  5 94  1  0  0  0
  6 25  1  0  0  0
  6 95  1  0  0  0
  6 96  1  0  0  0
  7  8  2  0  0  0
  7 26  1  0  0  0
  7 29  1  0  0  0
  8  9  1  0  0  0
  8 22  1  0  0  0
  9 10  1  0  0  0
  9 27  2  0  0  0
 10 11  2  0  0  0
 10 15  1  0  0  0
 11 12  1  0  0  0
 11 97  1  0  0  0
 12 13  2  0  0  0
 12 98  1  0  0  0
 13 14  1  0  0  0
 13 31  1  0  0  0
 14 15  2  0  0  0
 14 99  1  0  0  0
 15100  1  0  0  0
 16 17  2  0  0  0
 16 21  1  0  0  0
 16 31  1  0  0  0
 17 18  1  0  0  0
 17101  1  0  0  0
 18 19  2  0  0  0
 18102  1  0  0  0
 19 20  1  0  0  0
 19 24  1  0  0  0
 20 21  2  0  0  0
 20103  1  0  0  0
 21 23  1  0  0  0
 22 28  1  0  0  0
 22 32  2  0  0  0
 26 27  1  0  0  0
 28104  1  0  0  0
 28105  1  0  0  0
 29106  1  0  0  0
 29107  1  0  0  0
 33 34  1  0  0  0
 33 66  1  0  0  0
 33 70  2  0  0  0
 34 36  1  0  0  0
 34 59  1  0  0  0
 34108  1  0  0  0
 35 44  2  0  0  0
 35 45  1  0  0  0
 35 68  1  0  0  0
 36 56  1  0  0  0
 36109  1  0  0  0
 37 39  1  0  0  0
 37 47  1  0  0  0
 37 66  1  0  0  0
 37110  1  0  0  0
 38 43  2  0  0  0
 38 46  1  0  0  0
 38 47  1  0  0  0
 39 64  1  0  0  0
 39 67  2  0  0  0
 40 52  1  0  0  0
 40 53  2  0  0  0
 40 58  1  0  0  0
 41111  1  0  0  0
 41112  1  0  0  0
 41113  1  0  0  0
 41 48  1  0  0  0
 42 43  1  0  0  0
 42 66  1  0  0  0
 42114  1  0  0  0
 42115  1  0  0  0
 43 44  1  0  0  0
 44116  1  0  0  0
 45 46  2  0  0  0
 45117  1  0  0  0
 46118  1  0  0  0
 47119  1  0  0  0
 47120  1  0  0  0
 48 56  1  0  0  0
 48 65  1  0  0  0
 48121  1  0  0  0
 49 50  1  0  0  0
 49 53  1  0  0  0
 49 64  1  0  0  0
 49122  1  0  0  0
 50 51  1  0  0  0
 50123  1  0  0  0
 50124  1  0  0  0
 51 52  1  0  0  0
 51125  1  0  0  0
 51126  1  0  0  0
 52127  1  0  0  0
 52128  1  0  0  0
 53 54  1  0  0  0
 54 55  2  0  0  0
 54129  1  0  0  0
 55 57  1  0  0  0
 55130  1  0  0  0
 56 69  2  0  0  0
 57 58  2  0  0  0
 57131  1  0  0  0
 58132  1  0  0  0
 59 60  1  0  0  0
 59 61  1  0  0  0
 59 62  1  0  0  0
 60133  1  0  0  0
 60134  1  0  0  0
 60135  1  0  0  0
 61136  1  0  0  0
 61137  1  0  0  0
 61138  1  0  0  0
 62139  1  0  0  0
 62140  1  0  0  0
 62141  1  0  0  0
 63 65  1  0  0  0
 63142  1  0  0  0
 63143  1  0  0  0
 63144  1  0  0  0
 64145  1  0  0  0
 65146  1  0  0  0
 68 81  1  0  0  0
 71 73  2  0  0  0
 71 75  1  0  0  0
 71147  1  0  0  0
 72 75  2  0  0  0
 72 76  1  0  0  0
 72148  1  0  0  0
 73 74  1  0  0  0
 73 83  1  0  0  0
 74 76  2  0  0  0
 74 82  1  0  0  0
 75 85  1  0  0  0
 76 87  1  0  0  0
 77 81  1  0  0  0
 77 84  1  0  0  0
 77 86  2  0  0  0
 78 79  1  0  0  0
 78 80  1  0  0  0
 78149  1  0  0  0
 78150  1  0  0  0
 79 81  1  0  0  0
 79151  1  0  0  0
 79152  1  0  0  0
 80 84  1  0  0  0
 80153  1  0  0  0
 80154  1  0  0  0
 81155  1  0  0  0
 82156  1  0  0  0
 82157  1  0  0  0
 82158  1  0  0  0
 83 84  1  0  0  0
 83159  1  0  0  0
 83160  1  0  0  0
 85161  1  0  0  0
M  ISO  4   1 100  68 101  81 101  85 100
M  END
> <chiral flag>
0

> <version>
0

> <s_m_source_file>
/data/baiqing/PycharmProjects/Reinvent-master-3.2/result/LINK_invent/BTK/process_docking_weight1_custom_product_contain_oxygen_bond_distance_aromatic_linkinvent_7_9_3/rearranged_h_0043.sdf

> <i_m_source_file_index>
40

> <r_mmod_Potential_Energy-OPLS-2005>
316.201904296875

> <r_mmod_Stretch_Energy-OPLS-2005>
140.038772583008

> <r_mmod_Bend_Energy-OPLS-2005>
179.885284423828

> <r_mmod_Torsional_Energy-OPLS-2005>
309.009735107422

> <r_mmod_Improper_Torsional_Energy-OPLS-2005>
14.6721086502075

> <r_mmod_Van_der_Waal_Energy-OPLS-2005>
139.183547973633

> <r_mmod_Electrostatic_Energy-OPLS-2005>
-329.96484375

> <r_mmod_Solvation_Energy-OPLS-2005>
-229.345153808594

> <b_mmod_Minimization_Converged-OPLS-2005>
0

> <r_mmod_RMS_Derivative-OPLS-2005>
1.15264713764191

$$$$
40
                    3D
 Structure written by MMmdl.
178187  0  0  1  0            999 V2000
  -30.8243  -14.4899   20.5187 C   0  0  0  0  0  0
  -30.4011  -12.3206   19.4480 C   0  0  0  0  0  0
  -29.4884  -12.4740   18.2188 C   0  0  0  0  0  0
  -28.0131  -12.3652   18.6353 C   0  0  0  0  0  0
  -27.6562  -13.2430   19.8650 C   0  0  2  0  0  0
  -28.7124  -13.1524   20.9942 C   0  0  0  0  0  0
  -25.2571  -13.8256   20.5766 C   0  0  0  0  0  0
  -24.1861  -13.0493   20.9222 C   0  0  0  0  0  0
  -24.6465  -11.6968   20.8791 C   0  0  0  0  0  0
  -23.9134  -10.4324   21.0439 C   0  0  0  0  0  0
  -24.3672   -9.4211   21.9200 C   0  0  0  0  0  0
  -23.6330   -8.2257   22.0762 C   0  0  0  0  0  0
  -22.4303   -8.0308   21.3550 C   0  0  0  0  0  0
  -21.9968   -9.0283   20.4638 C   0  0  0  0  0  0
  -22.7325  -10.2165   20.3060 C   0  0  0  0  0  0
  -21.6859   -6.0758   22.5275 C   0  0  0  0  0  0
  -21.4016   -6.5651   23.8205 C   0  0  0  0  0  0
  -21.3653   -5.6805   24.9158 C   0  0  0  0  0  0
  -21.6035   -4.3058   24.7219 C   0  0  0  0  0  0
  -21.8821   -3.8161   23.4338 C   0  0  0  0  0  0
  -21.9198   -4.6987   22.3395 C   0  0  0  0  0  0
  -22.7851  -13.5228   21.1869 C   0  0  0  0  0  0
  -22.1663   -4.2183   21.0973 F   0  0  0  0  0  0
  -21.5628   -3.4536   25.7723 F   0  0  0  0  0  0
  -30.0395  -13.3817   20.4053 N   0  0  0  0  0  0
  -26.3062  -12.9519   20.3420 N   0  0  0  0  0  0
  -25.9416  -11.6640   20.5843 N   0  0  0  0  0  0
  -22.0511  -12.8191   22.0413 N   0  0  0  0  0  0
  -25.4255  -15.1988   20.4173 N   0  0  0  0  0  0
  -31.9754  -14.4998   20.0842 O   0  0  0  0  0  0
  -21.6659   -6.8925   21.4246 O   0  0  0  0  0  0
  -22.3485  -14.5533   20.6733 O   0  0  0  0  0  0
  -24.6162  -31.8585   23.2133 C   0  0  0  0  0  0
  -25.9032  -32.4770   23.8465 C   0  0  1  0  0  0
  -27.1941  -27.3745   20.1278 C   0  0  0  0  0  0
  -25.5899  -33.8571   24.2340 N   0  0  0  0  0  0
  -23.4136  -30.4802   21.5474 C   0  0  2  0  0  0
  -24.8705  -28.9791   20.0771 C   0  0  0  0  0  0
  -22.7490  -29.4513   22.4898 C   0  0  0  0  0  0
  -18.0250  -28.1360   22.8428 C   0  0  0  0  0  0
  -24.1492  -36.7305   23.2657 C   0  0  0  0  0  0
  -25.9540  -30.8050   21.3924 C   0  0  0  0  0  0
  -26.0285  -29.4506   20.7161 C   0  0  0  0  0  0
  -27.1954  -28.6458   20.7553 C   0  0  0  0  0  0
  -26.0684  -26.9907   19.3793 C   0  0  0  0  0  0
  -24.8909  -27.7520   19.3943 C   0  0  0  0  0  0
  -23.6303  -29.8382   20.1529 C   0  0  0  0  0  0
  -25.4123  -36.3071   24.0344 C   0  0  1  0  0  0
  -20.5859  -28.3622   23.1264 C   0  0  2  0  0  0
  -20.6703  -26.9335   22.5383 C   0  0  0  0  0  0
  -19.5677  -26.6280   21.5193 C   0  0  0  0  0  0
  -18.1848  -26.7883   22.1595 C   0  0  0  0  0  0
  -19.1537  -28.8818   23.2788 C   0  0  0  0  0  0
  -18.9473  -30.1402   23.8777 C   0  0  0  0  0  0
  -17.6503  -30.6549   24.0502 C   0  0  0  0  0  0
  -25.9064  -34.9437   23.5141 C   0  0  0  0  0  0
  -16.5371  -29.9011   23.6406 C   0  0  0  0  0  0
  -16.7263  -28.6462   23.0396 C   0  0  0  0  0  0
  -26.4486  -31.6609   25.0836 C   0  0  0  0  0  0
  -25.3761  -31.3695   26.1599 C   0  0  0  0  0  0
  -27.0458  -30.3093   24.6316 C   0  0  0  0  0  0
  -27.6021  -32.4418   25.7574 C   0  0  0  0  0  0
  -27.5578  -37.1756   24.8478 C   0  0  0  0  0  0
  -21.4200  -29.2946   22.3675 N   0  0  0  0  0  0
  -26.4311  -37.3757   23.9442 N   0  0  0  0  0  0
  -24.6767  -31.0685   22.1044 N   0  0  0  0  0  0
  -23.4281  -28.8015   23.2913 O   0  0  0  0  0  0
  -28.1515  -26.4111   20.3897 O   0  0  0  0  0  0
  -26.5618  -34.8846   22.4686 O   0  0  0  0  0  0
  -23.5319  -32.1369   23.7492 O   0  0  0  0  0  0
  -30.7654  -19.0924   20.2627 C   0  0  0  0  0  0
  -30.5949  -20.4797   20.4335 C   0  0  0  0  0  0
  -30.6422  -18.2119   21.3572 C   0  0  0  0  0  0
  -30.3196  -21.0360   21.7051 C   0  0  0  0  0  0
  -30.2421  -18.7270   22.6148 C   0  0  0  0  0  0
  -30.1429  -20.1420   22.8095 C   0  0  0  0  0  0
  -28.7340  -24.6941   22.2298 C   0  0  0  0  0  0
  -31.2333  -24.6584   27.9262 C   0  0  0  0  0  0
  -29.0332  -25.0858   23.5038 C   0  0  0  0  0  0
  -30.7588  -24.1495   26.7765 C   0  0  0  0  0  0
  -29.7151  -24.3858   24.5786 C   0  0  0  0  0  0
  -30.0953  -24.9378   25.7512 C   0  0  0  0  0  0
  -26.9246  -23.3543   20.2486 C   0  0  0  0  0  0
  -26.4795  -24.5215   21.1128 C   0  0  0  0  0  0
  -27.9710  -22.5400   21.0197 C   0  0  0  0  0  0
  -27.6618  -25.4885   21.4382 C   0  0  2  0  0  0
  -30.0002  -17.7425   23.7606 C   0  0  0  0  0  0
  -29.9580  -20.6945   24.2245 C   0  0  0  0  0  0
  -31.2108  -16.7916   21.2367 C   0  0  0  0  0  0
  -30.3457  -22.5906   21.8401 C   0  0  0  0  0  0
  -30.3077  -15.6415   20.9952 N   0  0  0  0  0  0
  -29.1097  -23.3835   21.4837 N   0  3  2  0  0  0
  -31.4469  -12.3572   19.1328 H   0  0  0  0  0  0
  -30.2732  -11.3414   19.9121 H   0  0  0  0  0  0
  -29.7224  -11.7020   17.4840 H   0  0  0  0  0  0
  -29.6742  -13.4346   17.7320 H   0  0  0  0  0  0
  -27.8159  -11.3161   18.8549 H   0  0  0  0  0  0
  -27.3683  -12.6273   17.7949 H   0  0  0  0  0  0
  -27.6611  -14.2739   19.5102 H   0  0  0  0  0  0
  -28.6837  -12.1815   21.4867 H   0  0  0  0  0  0
  -28.4906  -13.8907   21.7681 H   0  0  0  0  0  0
  -25.2804   -9.5673   22.4782 H   0  0  0  0  0  0
  -24.0016   -7.4646   22.7487 H   0  0  0  0  0  0
  -21.0899   -8.8829   19.8935 H   0  0  0  0  0  0
  -22.3794  -10.9721   19.6170 H   0  0  0  0  0  0
  -21.2008   -7.6147   23.9725 H   0  0  0  0  0  0
  -21.1466   -6.0515   25.9059 H   0  0  0  0  0  0
  -22.0609   -2.7635   23.2819 H   0  0  0  0  0  0
  -22.4138  -11.9817   22.4759 H   0  0  0  0  0  0
  -21.1127  -13.1203   22.2691 H   0  0  0  0  0  0
  -24.6674  -15.8626   20.5341 H   0  0  0  0  0  0
  -26.2875  -15.6359   20.1163 H   0  0  0  0  0  0
  -26.7038  -32.5493   23.1146 H   0  0  0  0  0  0
  -25.0152  -33.9757   25.0562 H   0  0  0  0  0  0
  -22.7039  -31.2958   21.4104 H   0  0  0  0  0  0
  -23.3764  -35.9626   23.3344 H   0  0  0  0  0  0
  -24.3568  -36.8973   22.2063 H   0  0  0  0  0  0
  -23.7231  -37.6491   23.6711 H   0  0  0  0  0  0
  -26.1351  -31.5885   20.6561 H   0  0  0  0  0  0
  -26.8080  -30.8181   22.0554 H   0  0  0  0  0  0
  -28.0569  -28.9449   21.3369 H   0  0  0  0  0  0
  -26.0679  -26.0379   18.8675 H   0  0  0  0  0  0
  -24.0151  -27.3986   18.8672 H   0  0  0  0  0  0
  -23.7251  -30.6233   19.4010 H   0  0  0  0  0  0
  -22.7584  -29.2530   19.8612 H   0  0  0  0  0  0
  -25.1259  -36.1900   25.0829 H   0  0  0  0  0  0
  -20.9911  -28.3164   24.1414 H   0  0  0  0  0  0
  -20.5632  -26.2225   23.3577 H   0  0  0  0  0  0
  -21.6535  -26.7302   22.1140 H   0  0  0  0  0  0
  -19.6877  -25.6168   21.1255 H   0  0  0  0  0  0
  -19.6657  -27.3033   20.6673 H   0  0  0  0  0  0
  -17.4107  -26.6651   21.3971 H   0  0  0  0  0  0
  -18.0160  -26.0045   22.9003 H   0  0  0  0  0  0
  -19.7986  -30.7184   24.2115 H   0  0  0  0  0  0
  -17.5085  -31.6233   24.5043 H   0  0  0  0  0  0
  -15.5357  -30.2858   23.7850 H   0  0  0  0  0  0
  -15.8670  -28.0711   22.7266 H   0  0  0  0  0  0
  -24.5844  -30.7156   25.7962 H   0  0  0  0  0  0
  -24.9040  -32.2825   26.5197 H   0  0  0  0  0  0
  -25.8072  -30.8736   27.0309 H   0  0  0  0  0  0
  -26.3089  -29.6668   24.1496 H   0  0  0  0  0  0
  -27.4438  -29.7483   25.4802 H   0  0  0  0  0  0
  -27.8787  -30.4549   23.9457 H   0  0  0  0  0  0
  -27.2626  -33.3724   26.2122 H   0  0  0  0  0  0
  -28.3793  -32.7002   25.0383 H   0  0  0  0  0  0
  -28.0731  -31.8618   26.5503 H   0  0  0  0  0  0
  -28.2525  -38.0104   24.7568 H   0  0  0  0  0  0
  -28.1104  -36.2619   24.6233 H   0  0  0  0  0  0
  -27.2296  -37.1362   25.8876 H   0  0  0  0  0  0
  -20.9383  -29.8842   21.7037 H   0  0  0  0  0  0
  -26.0194  -38.2848   24.1407 H   0  0  0  0  0  0
  -31.0789  -18.7192   19.2965 H   0  0  0  0  0  0
  -30.7458  -21.1270   19.5770 H   0  0  0  0  0  0
  -31.7230  -24.0246   28.6585 H   0  0  0  0  0  0
  -31.1437  -25.7093   28.1607 H   0  0  0  0  0  0
  -28.6018  -26.0318   23.8166 H   0  0  0  0  0  0
  -30.8760  -23.0898   26.6135 H   0  0  0  0  0  0
  -29.9117  -23.3413   24.4867 H   0  0  0  0  0  0
  -29.9017  -25.9844   25.9423 H   0  0  0  0  0  0
  -27.3310  -23.7176   19.3060 H   0  0  0  0  0  0
  -26.0774  -22.7119   19.9875 H   0  0  0  0  0  0
  -26.1048  -24.1104   22.0537 H   0  0  0  0  0  0
  -25.5884  -24.9854   20.7032 H   0  0  0  0  0  0
  -28.3080  -21.7715   20.3291 H   0  0  0  0  0  0
  -27.5193  -22.0235   21.8662 H   0  0  0  0  0  0
  -27.2137  -26.1496   22.1850 H   0  0  0  0  0  0
  -29.7899  -16.7392   23.3929 H   0  0  0  0  0  0
  -29.1144  -18.0051   24.3362 H   0  0  0  0  0  0
  -30.8664  -17.6791   24.4223 H   0  0  0  0  0  0
  -29.1070  -21.3695   24.2761 H   0  0  0  0  0  0
  -30.8556  -21.2292   24.5402 H   0  0  0  0  0  0
  -29.7948  -19.9446   24.9938 H   0  0  0  0  0  0
  -31.7711  -16.5805   22.1482 H   0  0  0  0  0  0
  -31.9940  -16.8565   20.4759 H   0  0  0  0  0  0
  -31.0991  -22.9396   21.1387 H   0  0  0  0  0  0
  -30.7941  -22.8628   22.7832 H   0  0  0  0  0  0
  -29.3271  -15.7154   21.2298 H   0  0  0  0  0  0
  -29.4272  -23.7237   20.5905 H   0  0  0  0  0  0
  1 25  1  0  0  0
  1 30  2  0  0  0
  1 91  1  0  0  0
  2  3  1  0  0  0
  2 25  1  0  0  0
  2 93  1  0  0  0
  2 94  1  0  0  0
  3  4  1  0  0  0
  3 95  1  0  0  0
  3 96  1  0  0  0
  4  5  1  0  0  0
  4 97  1  0  0  0
  4 98  1  0  0  0
  5  6  1  0  0  0
  5 26  1  0  0  0
  5 99  1  0  0  0
  6 25  1  0  0  0
  6100  1  0  0  0
  6101  1  0  0  0
  7  8  2  0  0  0
  7 26  1  0  0  0
  7 29  1  0  0  0
  8  9  1  0  0  0
  8 22  1  0  0  0
  9 10  1  0  0  0
  9 27  2  0  0  0
 10 11  2  0  0  0
 10 15  1  0  0  0
 11 12  1  0  0  0
 11102  1  0  0  0
 12 13  2  0  0  0
 12103  1  0  0  0
 13 14  1  0  0  0
 13 31  1  0  0  0
 14 15  2  0  0  0
 14104  1  0  0  0
 15105  1  0  0  0
 16 17  2  0  0  0
 16 21  1  0  0  0
 16 31  1  0  0  0
 17 18  1  0  0  0
 17106  1  0  0  0
 18 19  2  0  0  0
 18107  1  0  0  0
 19 20  1  0  0  0
 19 24  1  0  0  0
 20 21  2  0  0  0
 20108  1  0  0  0
 21 23  1  0  0  0
 22 28  1  0  0  0
 22 32  2  0  0  0
 26 27  1  0  0  0
 28109  1  0  0  0
 28110  1  0  0  0
 29111  1  0  0  0
 29112  1  0  0  0
 33 34  1  0  0  0
 33 66  1  0  0  0
 33 70  2  0  0  0
 34 36  1  0  0  0
 34 59  1  0  0  0
 34113  1  0  0  0
 35 44  2  0  0  0
 35 45  1  0  0  0
 35 68  1  0  0  0
 36 56  1  0  0  0
 36114  1  0  0  0
 37 39  1  0  0  0
 37 47  1  0  0  0
 37 66  1  0  0  0
 37115  1  0  0  0
 38 43  2  0  0  0
 38 46  1  0  0  0
 38 47  1  0  0  0
 39 64  1  0  0  0
 39 67  2  0  0  0
 40 52  1  0  0  0
 40 53  2  0  0  0
 40 58  1  0  0  0
 41116  1  0  0  0
 41117  1  0  0  0
 41118  1  0  0  0
 41 48  1  0  0  0
 42 43  1  0  0  0
 42 66  1  0  0  0
 42119  1  0  0  0
 42120  1  0  0  0
 43 44  1  0  0  0
 44121  1  0  0  0
 45 46  2  0  0  0
 45122  1  0  0  0
 46123  1  0  0  0
 47124  1  0  0  0
 47125  1  0  0  0
 48 56  1  0  0  0
 48 65  1  0  0  0
 48126  1  0  0  0
 49 50  1  0  0  0
 49 53  1  0  0  0
 49 64  1  0  0  0
 49127  1  0  0  0
 50 51  1  0  0  0
 50128  1  0  0  0
 50129  1  0  0  0
 51 52  1  0  0  0
 51130  1  0  0  0
 51131  1  0  0  0
 52132  1  0  0  0
 52133  1  0  0  0
 53 54  1  0  0  0
 54 55  2  0  0  0
 54134  1  0  0  0
 55 57  1  0  0  0
 55135  1  0  0  0
 56 69  2  0  0  0
 57 58  2  0  0  0
 57136  1  0  0  0
 58137  1  0  0  0
 59 60  1  0  0  0
 59 61  1  0  0  0
 59 62  1  0  0  0
 60138  1  0  0  0
 60139  1  0  0  0
 60140  1  0  0  0
 61141  1  0  0  0
 61142  1  0  0  0
 61143  1  0  0  0
 62144  1  0  0  0
 62145  1  0  0  0
 62146  1  0  0  0
 63 65  1  0  0  0
 63147  1  0  0  0
 63148  1  0  0  0
 63149  1  0  0  0
 64150  1  0  0  0
 65151  1  0  0  0
 68 86  1  0  0  0
 71 72  2  0  0  0
 71 73  1  0  0  0
 71152  1  0  0  0
 72 74  1  0  0  0
 72153  1  0  0  0
 73 75  2  0  0  0
 73 89  1  0  0  0
 74 76  2  0  0  0
 74 90  1  0  0  0
 75 76  1  0  0  0
 75 87  1  0  0  0
 76 88  1  0  0  0
 77 79  2  0  0  0
 77 86  1  0  0  0
 77 92  1  0  0  0
 78 80  2  0  0  0
 78154  1  0  0  0
 78155  1  0  0  0
 79 81  1  0  0  0
 79156  1  0  0  0
 80 82  1  0  0  0
 80157  1  0  0  0
 81 82  2  0  0  0
 81158  1  0  0  0
 82159  1  0  0  0
 83 84  1  0  0  0
 83 85  1  0  0  0
 83160  1  0  0  0
 83161  1  0  0  0
 84 86  1  0  0  0
 84162  1  0  0  0
 84163  1  0  0  0
 85 92  1  0  0  0
 85164  1  0  0  0
 85165  1  0  0  0
 86166  1  0  0  0
 87167  1  0  0  0
 87168  1  0  0  0
 87169  1  0  0  0
 88170  1  0  0  0
 88171  1  0  0  0
 88172  1  0  0  0
 89 91  1  0  0  0
 89173  1  0  0  0
 89174  1  0  0  0
 90175  1  0  0  0
 90176  1  0  0  0
 90 92  1  0  0  0
 91177  1  0  0  0
 92178  1  0  0  0
M  CHG  1  92   1
M  ISO  4   1 100  68 101  86 101  91 100
M  END
> <chiral flag>
0

> <version>
0

> <s_m_source_file>
/data/baiqing/PycharmProjects/Reinvent-master-3.2/result/LINK_invent/BTK/process_docking_weight1_custom_product_contain_oxygen_bond_distance_aromatic_linkinvent_7_9_3/rearranged_h_0043.sdf

> <i_m_source_file_index>
41

> <r_mmod_Potential_Energy-OPLS-2005>
6.52852964401245

> <r_mmod_Stretch_Energy-OPLS-2005>
67.4493713378906

> <r_mmod_Bend_Energy-OPLS-2005>
183.850311279297

> <r_mmod_Torsional_Energy-OPLS-2005>
268.037689208984

> <r_mmod_Improper_Torsional_Energy-OPLS-2005>
6.87046909332275

> <r_mmod_Van_der_Waal_Energy-OPLS-2005>
186.319091796875

> <r_mmod_Electrostatic_Energy-OPLS-2005>
-361.543975830078

> <r_mmod_Solvation_Energy-OPLS-2005>
-410.243072509766

> <b_mmod_Minimization_Converged-OPLS-2005>
0

> <r_mmod_RMS_Derivative-OPLS-2005>
7.23647975921631

$$$$
41
                    3D
 Structure written by MMmdl.
167176  0  0  1  0            999 V2000
  -30.6033  -14.6305   20.5072 C   0  0  0  0  0  0
  -30.4456  -12.3884   19.4435 C   0  0  0  0  0  0
  -29.5080  -12.5060   18.2204 C   0  0  0  0  0  0
  -28.0304  -12.3401   18.6333 C   0  0  0  0  0  0
  -27.6543  -13.2070   19.8635 C   0  0  2  0  0  0
  -28.6995  -13.0448   20.9909 C   0  0  0  0  0  0
  -25.2569  -13.8140   20.5667 C   0  0  0  0  0  0
  -24.1832  -13.0425   20.9198 C   0  0  0  0  0  0
  -24.6386  -11.6893   20.8749 C   0  0  0  0  0  0
  -23.9049  -10.4287   21.0415 C   0  0  0  0  0  0
  -24.3604   -9.4200   21.9188 C   0  0  0  0  0  0
  -23.6284   -8.2234   22.0752 C   0  0  0  0  0  0
  -22.4268   -8.0275   21.3542 C   0  0  0  0  0  0
  -21.9900   -9.0248   20.4645 C   0  0  0  0  0  0
  -22.7224  -10.2130   20.3058 C   0  0  0  0  0  0
  -21.6849   -6.0731   22.5279 C   0  0  0  0  0  0
  -21.4012   -6.5635   23.8212 C   0  0  0  0  0  0
  -21.3658   -5.6789   24.9175 C   0  0  0  0  0  0
  -21.6046   -4.3052   24.7227 C   0  0  0  0  0  0
  -21.8819   -3.8143   23.4349 C   0  0  0  0  0  0
  -21.9192   -4.6959   22.3404 C   0  0  0  0  0  0
  -22.7856  -13.5231   21.1862 C   0  0  0  0  0  0
  -22.1662   -4.2145   21.0982 F   0  0  0  0  0  0
  -21.5628   -3.4537   25.7740 F   0  0  0  0  0  0
  -30.0157  -13.3962   20.4307 N   0  0  0  0  0  0
  -26.2986  -12.9303   20.3306 N   0  0  0  0  0  0
  -25.9307  -11.6470   20.5751 N   0  0  0  0  0  0
  -22.0492  -12.8229   22.0419 N   0  0  0  0  0  0
  -25.4281  -15.1851   20.4019 N   0  0  0  0  0  0
  -31.7704  -14.8194   20.1480 O   0  0  0  0  0  0
  -21.6634   -6.8873   21.4239 O   0  0  0  0  0  0
  -22.3550  -14.5541   20.6709 O   0  0  0  0  0  0
  -24.6254  -31.8603   23.2027 C   0  0  0  0  0  0
  -25.9103  -32.4783   23.8351 C   0  0  1  0  0  0
  -27.2307  -27.3228   20.1017 C   0  0  0  0  0  0
  -25.5919  -33.8584   24.2282 N   0  0  0  0  0  0
  -23.4175  -30.4843   21.5466 C   0  0  2  0  0  0
  -24.8600  -28.9365   20.1169 C   0  0  0  0  0  0
  -22.7468  -29.4633   22.4954 C   0  0  0  0  0  0
  -18.0286  -28.1390   22.8495 C   0  0  0  0  0  0
  -24.1487  -36.7298   23.2641 C   0  0  0  0  0  0
  -25.9582  -30.7916   21.3717 C   0  0  0  0  0  0
  -26.0292  -29.4192   20.7136 C   0  0  0  0  0  0
  -27.2112  -28.6246   20.6944 C   0  0  0  0  0  0
  -26.0222  -26.8792   19.5173 C   0  0  0  0  0  0
  -24.8575  -27.6703   19.5148 C   0  0  0  0  0  0
  -23.6298  -29.8180   20.1624 C   0  0  0  0  0  0
  -25.4114  -36.3091   24.0331 C   0  0  1  0  0  0
  -20.5885  -28.3689   23.1295 C   0  0  2  0  0  0
  -20.6775  -26.9416   22.5414 C   0  0  0  0  0  0
  -19.5747  -26.6390   21.5219 C   0  0  0  0  0  0
  -18.1929  -26.7935   22.1633 C   0  0  0  0  0  0
  -19.1538  -28.8858   23.2889 C   0  0  0  0  0  0
  -18.9457  -30.1461   23.8905 C   0  0  0  0  0  0
  -17.6456  -30.6591   24.0570 C   0  0  0  0  0  0
  -25.9050  -34.9458   23.5109 C   0  0  0  0  0  0
  -16.5350  -29.9090   23.6331 C   0  0  0  0  0  0
  -16.7274  -28.6507   23.0357 C   0  0  0  0  0  0
  -26.4488  -31.6597   25.0724 C   0  0  0  0  0  0
  -25.3724  -31.3733   26.1455 C   0  0  0  0  0  0
  -27.0331  -30.3023   24.6174 C   0  0  0  0  0  0
  -27.6046  -32.4336   25.7493 C   0  0  0  0  0  0
  -27.5582  -37.1813   24.8466 C   0  0  0  0  0  0
  -21.4184  -29.3043   22.3693 N   0  0  0  0  0  0
  -26.4296  -37.3783   23.9403 N   0  0  0  0  0  0
  -24.6860  -31.0623   22.0969 N   0  0  0  0  0  0
  -23.4199  -28.8175   23.3029 O   0  0  0  0  0  0
  -28.4179  -26.5711   20.1256 O   0  0  0  0  0  0
  -26.5623  -34.8924   22.4678 O   0  0  0  0  0  0
  -23.5420  -32.1397   23.7363 O   0  0  0  0  0  0
  -28.6010  -17.8267   20.5457 C   0  0  0  0  0  0
  -30.9651  -17.8811   20.9384 C   0  0  0  0  0  0
  -28.5332  -19.2519   20.5832 C   0  0  0  0  0  0
  -30.9156  -19.3102   21.0088 C   0  0  0  0  0  0
  -29.6929  -20.0472   20.8258 C   0  0  0  0  0  0
  -29.8040  -17.1012   20.7320 C   0  0  0  0  0  0
  -29.5884  -22.6430   18.7092 C   0  0  0  0  0  0
  -30.7532  -22.0682   18.3630 C   0  0  0  0  0  0
  -28.7541  -23.4980   17.7486 C   0  0  0  0  0  0
  -27.9512  -24.6448   18.3994 C   0  0  0  0  0  0
  -28.7715  -23.9940   20.6939 C   0  0  0  0  0  0
  -28.6614  -25.1803   19.6515 C   0  0  2  0  0  0
  -27.1664  -19.8970   20.4185 C   0  0  0  0  0  0
  -32.2137  -20.0097   21.3915 C   0  0  0  0  0  0
  -29.6079  -21.6139   21.0911 C   0  0  0  0  0  0
  -29.7379  -15.6459   20.8102 N   0  0  0  0  0  0
  -29.0015  -22.6015   20.0997 N   0  3  1  0  0  0
  -31.4839  -12.5311   19.1379 H   0  0  0  0  0  0
  -30.3938  -11.3886   19.8768 H   0  0  0  0  0  0
  -29.7718  -11.7594   17.4701 H   0  0  0  0  0  0
  -29.6462  -13.4781   17.7445 H   0  0  0  0  0  0
  -27.8679  -11.2860   18.8623 H   0  0  0  0  0  0
  -27.3746  -12.5717   17.7931 H   0  0  0  0  0  0
  -27.6752  -14.2429   19.5251 H   0  0  0  0  0  0
  -28.7126  -12.0169   21.3559 H   0  0  0  0  0  0
  -28.4455  -13.6611   21.8550 H   0  0  0  0  0  0
  -25.2750   -9.5678   22.4758 H   0  0  0  0  0  0
  -23.9996   -7.4626   22.7466 H   0  0  0  0  0  0
  -21.0832   -8.8762   19.8952 H   0  0  0  0  0  0
  -22.3680  -10.9667   19.6167 H   0  0  0  0  0  0
  -21.2002   -7.6143   23.9714 H   0  0  0  0  0  0
  -21.1481   -6.0520   25.9078 H   0  0  0  0  0  0
  -22.0601   -2.7605   23.2850 H   0  0  0  0  0  0
  -22.4097  -11.9883   22.4802 H   0  0  0  0  0  0
  -21.1111  -13.1259   22.2626 H   0  0  0  0  0  0
  -24.6512  -15.8316   20.4865 H   0  0  0  0  0  0
  -26.2512  -15.6076   19.9951 H   0  0  0  0  0  0
  -26.7169  -32.5452   23.1097 H   0  0  0  0  0  0
  -25.0057  -33.9724   25.0418 H   0  0  0  0  0  0
  -22.7112  -31.3045   21.4047 H   0  0  0  0  0  0
  -23.3751  -35.9631   23.3313 H   0  0  0  0  0  0
  -24.3574  -36.8907   22.2053 H   0  0  0  0  0  0
  -23.7235  -37.6500   23.6652 H   0  0  0  0  0  0
  -26.0913  -31.5556   20.6045 H   0  0  0  0  0  0
  -26.8379  -30.8374   22.0021 H   0  0  0  0  0  0
  -28.1141  -29.0023   21.1535 H   0  0  0  0  0  0
  -25.9159  -25.9164   19.0602 H   0  0  0  0  0  0
  -23.9559  -27.2876   19.0566 H   0  0  0  0  0  0
  -23.7527  -30.5934   19.4053 H   0  0  0  0  0  0
  -22.7482  -29.2499   19.8600 H   0  0  0  0  0  0
  -25.1293  -36.1954   25.0825 H   0  0  0  0  0  0
  -20.9982  -28.3265   24.1414 H   0  0  0  0  0  0
  -20.5682  -26.2299   23.3614 H   0  0  0  0  0  0
  -21.6641  -26.7449   22.1204 H   0  0  0  0  0  0
  -19.6901  -25.6299   21.1251 H   0  0  0  0  0  0
  -19.6683  -27.3201   20.6752 H   0  0  0  0  0  0
  -17.4199  -26.6693   21.4037 H   0  0  0  0  0  0
  -18.0322  -26.0074   22.9026 H   0  0  0  0  0  0
  -19.7928  -30.7277   24.2284 H   0  0  0  0  0  0
  -17.5007  -31.6273   24.5165 H   0  0  0  0  0  0
  -15.5350  -30.2994   23.7641 H   0  0  0  0  0  0
  -15.8678  -28.0822   22.7073 H   0  0  0  0  0  0
  -24.5889  -30.7092   25.7786 H   0  0  0  0  0  0
  -24.8925  -32.2902   26.4891 H   0  0  0  0  0  0
  -25.8053  -30.8901   27.0224 H   0  0  0  0  0  0
  -26.2903  -29.6784   24.1191 H   0  0  0  0  0  0
  -27.4017  -29.7272   25.4678 H   0  0  0  0  0  0
  -27.8778  -30.4312   23.9405 H   0  0  0  0  0  0
  -27.2645  -33.3619   26.2097 H   0  0  0  0  0  0
  -28.3844  -32.6930   25.0320 H   0  0  0  0  0  0
  -28.0736  -31.8451   26.5390 H   0  0  0  0  0  0
  -28.2611  -38.0101   24.7505 H   0  0  0  0  0  0
  -28.1070  -36.2631   24.6306 H   0  0  0  0  0  0
  -27.2302  -37.1483   25.8872 H   0  0  0  0  0  0
  -20.9364  -29.8765   21.6899 H   0  0  0  0  0  0
  -26.0185  -38.2865   24.1387 H   0  0  0  0  0  0
  -27.6857  -17.2715   20.3984 H   0  0  0  0  0  0
  -31.9028  -17.3732   21.1168 H   0  0  0  0  0  0
  -31.1319  -22.1659   17.3556 H   0  0  0  0  0  0
  -31.3533  -21.4944   19.0455 H   0  0  0  0  0  0
  -28.0889  -22.8509   17.1755 H   0  0  0  0  0  0
  -29.4412  -23.9340   17.0223 H   0  0  0  0  0  0
  -26.9807  -24.2338   18.6725 H   0  0  0  0  0  0
  -27.7837  -25.4381   17.6704 H   0  0  0  0  0  0
  -29.5868  -24.2268   21.3797 H   0  0  0  0  0  0
  -27.8664  -23.9580   21.2996 H   0  0  0  0  0  0
  -29.6897  -25.3190   19.3127 H   0  0  0  0  0  0
  -26.3774  -19.1468   20.3478 H   0  0  0  0  0  0
  -27.1267  -20.4913   19.5060 H   0  0  0  0  0  0
  -26.9260  -20.5325   21.2715 H   0  0  0  0  0  0
  -32.0986  -20.5555   22.3283 H   0  0  0  0  0  0
  -32.5506  -20.7019   20.6237 H   0  0  0  0  0  0
  -33.0220  -19.2934   21.5431 H   0  0  0  0  0  0
  -30.5975  -21.9997   21.3265 H   0  0  0  0  0  0
  -29.0511  -21.7193   22.0228 H   0  0  0  0  0  0
  -28.8156  -15.2892   21.0068 H   0  0  0  0  0  0
  -28.0654  -22.2449   19.9809 H   0  0  0  0  0  0
  1 25  1  0  0  0
  1 30  2  0  0  0
  1 86  1  0  0  0
  2  3  1  0  0  0
  2 25  1  0  0  0
  2 88  1  0  0  0
  2 89  1  0  0  0
  3  4  1  0  0  0
  3 90  1  0  0  0
  3 91  1  0  0  0
  4  5  1  0  0  0
  4 92  1  0  0  0
  4 93  1  0  0  0
  5  6  1  0  0  0
  5 26  1  0  0  0
  5 94  1  0  0  0
  6 25  1  0  0  0
  6 95  1  0  0  0
  6 96  1  0  0  0
  7  8  2  0  0  0
  7 26  1  0  0  0
  7 29  1  0  0  0
  8  9  1  0  0  0
  8 22  1  0  0  0
  9 10  1  0  0  0
  9 27  2  0  0  0
 10 11  2  0  0  0
 10 15  1  0  0  0
 11 12  1  0  0  0
 11 97  1  0  0  0
 12 13  2  0  0  0
 12 98  1  0  0  0
 13 14  1  0  0  0
 13 31  1  0  0  0
 14 15  2  0  0  0
 14 99  1  0  0  0
 15100  1  0  0  0
 16 17  2  0  0  0
 16 21  1  0  0  0
 16 31  1  0  0  0
 17 18  1  0  0  0
 17101  1  0  0  0
 18 19  2  0  0  0
 18102  1  0  0  0
 19 20  1  0  0  0
 19 24  1  0  0  0
 20 21  2  0  0  0
 20103  1  0  0  0
 21 23  1  0  0  0
 22 28  1  0  0  0
 22 32  2  0  0  0
 26 27  1  0  0  0
 28104  1  0  0  0
 28105  1  0  0  0
 29106  1  0  0  0
 29107  1  0  0  0
 33 34  1  0  0  0
 33 66  1  0  0  0
 33 70  2  0  0  0
 34 36  1  0  0  0
 34 59  1  0  0  0
 34108  1  0  0  0
 35 44  2  0  0  0
 35 45  1  0  0  0
 35 68  1  0  0  0
 36 56  1  0  0  0
 36109  1  0  0  0
 37 39  1  0  0  0
 37 47  1  0  0  0
 37 66  1  0  0  0
 37110  1  0  0  0
 38 43  2  0  0  0
 38 46  1  0  0  0
 38 47  1  0  0  0
 39 64  1  0  0  0
 39 67  2  0  0  0
 40 52  1  0  0  0
 40 53  2  0  0  0
 40 58  1  0  0  0
 41111  1  0  0  0
 41112  1  0  0  0
 41113  1  0  0  0
 41 48  1  0  0  0
 42 43  1  0  0  0
 42 66  1  0  0  0
 42114  1  0  0  0
 42115  1  0  0  0
 43 44  1  0  0  0
 44116  1  0  0  0
 45 46  2  0  0  0
 45117  1  0  0  0
 46118  1  0  0  0
 47119  1  0  0  0
 47120  1  0  0  0
 48 56  1  0  0  0
 48 65  1  0  0  0
 48121  1  0  0  0
 49 50  1  0  0  0
 49 53  1  0  0  0
 49 64  1  0  0  0
 49122  1  0  0  0
 50 51  1  0  0  0
 50123  1  0  0  0
 50124  1  0  0  0
 51 52  1  0  0  0
 51125  1  0  0  0
 51126  1  0  0  0
 52127  1  0  0  0
 52128  1  0  0  0
 53 54  1  0  0  0
 54 55  2  0  0  0
 54129  1  0  0  0
 55 57  1  0  0  0
 55130  1  0  0  0
 56 69  2  0  0  0
 57 58  2  0  0  0
 57131  1  0  0  0
 58132  1  0  0  0
 59 60  1  0  0  0
 59 61  1  0  0  0
 59 62  1  0  0  0
 60133  1  0  0  0
 60134  1  0  0  0
 60135  1  0  0  0
 61136  1  0  0  0
 61137  1  0  0  0
 61138  1  0  0  0
 62139  1  0  0  0
 62140  1  0  0  0
 62141  1  0  0  0
 63 65  1  0  0  0
 63142  1  0  0  0
 63143  1  0  0  0
 63144  1  0  0  0
 64145  1  0  0  0
 65146  1  0  0  0
 68 82  1  0  0  0
 71 73  2  0  0  0
 71 76  1  0  0  0
 71147  1  0  0  0
 72 74  1  0  0  0
 72 76  2  0  0  0
 72148  1  0  0  0
 73 75  1  0  0  0
 73 83  1  0  0  0
 74 75  2  0  0  0
 74 84  1  0  0  0
 75 85  1  0  0  0
 76 86  1  0  0  0
 77 78  2  0  0  0
 77 79  1  0  0  0
 77 87  1  0  0  0
 78149  1  0  0  0
 78150  1  0  0  0
 79 80  1  0  0  0
 79151  1  0  0  0
 79152  1  0  0  0
 80 82  1  0  0  0
 80153  1  0  0  0
 80154  1  0  0  0
 81 82  1  0  0  0
 81 87  1  0  0  0
 81155  1  0  0  0
 81156  1  0  0  0
 82157  1  0  0  0
 83158  1  0  0  0
 83159  1  0  0  0
 83160  1  0  0  0
 84161  1  0  0  0
 84162  1  0  0  0
 84163  1  0  0  0
 85164  1  0  0  0
 85165  1  0  0  0
 85 87  1  0  0  0
 86166  1  0  0  0
 87167  1  0  0  0
M  CHG  1  87   1
M  ISO  4   1 100  68 101  82 101  86 100
M  END
> <chiral flag>
0

> <version>
0

> <s_m_source_file>
/data/baiqing/PycharmProjects/Reinvent-master-3.2/result/LINK_invent/BTK/process_docking_weight1_custom_product_contain_oxygen_bond_distance_aromatic_linkinvent_7_9_3/rearranged_h_0043.sdf

> <i_m_source_file_index>
42

> <r_mmod_Potential_Energy-OPLS-2005>
52.2047882080078

> <r_mmod_Stretch_Energy-OPLS-2005>
86.4945983886719

> <r_mmod_Bend_Energy-OPLS-2005>
205.026000976562

> <r_mmod_Torsional_Energy-OPLS-2005>
234.846725463867

> <r_mmod_Improper_Torsional_Energy-OPLS-2005>
6.79446268081665

> <r_mmod_Van_der_Waal_Energy-OPLS-2005>
153.651336669922

> <r_mmod_Electrostatic_Energy-OPLS-2005>
-256.85498046875

> <r_mmod_Solvation_Energy-OPLS-2005>
-419.922821044922

> <b_mmod_Minimization_Converged-OPLS-2005>
0

> <r_mmod_RMS_Derivative-OPLS-2005>
0.818442702293396

$$$$
42
                    3D
 Structure written by MMmdl.
170179  0  0  1  0            999 V2000
  -30.6911  -14.4057   20.6667 C   0  0  0  0  0  0
  -30.4318  -12.2945   19.4067 C   0  0  0  0  0  0
  -29.5040  -12.5611   18.2035 C   0  0  0  0  0  0
  -28.0194  -12.4208   18.5974 C   0  0  0  0  0  0
  -27.6762  -13.1985   19.8971 C   0  0  2  0  0  0
  -28.7088  -12.8828   21.0015 C   0  0  0  0  0  0
  -25.2623  -13.8124   20.5593 C   0  0  0  0  0  0
  -24.1872  -13.0424   20.9101 C   0  0  0  0  0  0
  -24.6401  -11.6888   20.8689 C   0  0  0  0  0  0
  -23.9043  -10.4296   21.0382 C   0  0  0  0  0  0
  -24.3614   -9.4220   21.9177 C   0  0  0  0  0  0
  -23.6289   -8.2260   22.0768 C   0  0  0  0  0  0
  -22.4263   -8.0296   21.3560 C   0  0  0  0  0  0
  -21.9884   -9.0254   20.4652 C   0  0  0  0  0  0
  -22.7206  -10.2133   20.3044 C   0  0  0  0  0  0
  -21.6859   -6.0730   22.5276 C   0  0  0  0  0  0
  -21.4028   -6.5634   23.8211 C   0  0  0  0  0  0
  -21.3659   -5.6786   24.9170 C   0  0  0  0  0  0
  -21.6047   -4.3045   24.7214 C   0  0  0  0  0  0
  -21.8825   -3.8136   23.4332 C   0  0  0  0  0  0
  -21.9197   -4.6963   22.3389 C   0  0  0  0  0  0
  -22.7901  -13.5251   21.1763 C   0  0  0  0  0  0
  -22.1661   -4.2159   21.0961 F   0  0  0  0  0  0
  -21.5620   -3.4520   25.7714 F   0  0  0  0  0  0
  -30.0507  -13.2183   20.4839 N   0  0  0  0  0  0
  -26.3083  -12.9285   20.3395 N   0  0  0  0  0  0
  -25.9336  -11.6447   20.5729 N   0  0  0  0  0  0
  -22.0527  -12.8308   22.0344 N   0  0  0  0  0  0
  -25.4327  -15.1844   20.3919 N   0  0  0  0  0  0
  -31.7420  -14.7052   20.0882 O   0  0  0  0  0  0
  -21.6646   -6.8879   21.4243 O   0  0  0  0  0  0
  -22.3598  -14.5556   20.6590 O   0  0  0  0  0  0
  -24.6131  -31.8678   23.2111 C   0  0  0  0  0  0
  -25.9030  -32.4820   23.8390 C   0  0  1  0  0  0
  -27.2371  -27.4452   20.0733 C   0  0  0  0  0  0
  -25.5890  -33.8623   24.2314 N   0  0  0  0  0  0
  -23.3985  -30.4928   21.5512 C   0  0  2  0  0  0
  -24.8417  -28.9578   20.1152 C   0  0  0  0  0  0
  -22.7376  -29.4657   22.4989 C   0  0  0  0  0  0
  -18.0270  -28.1374   22.8492 C   0  0  0  0  0  0
  -24.1479  -36.7323   23.2639 C   0  0  0  0  0  0
  -25.9254  -30.8350   21.3600 C   0  0  0  0  0  0
  -26.0022  -29.4691   20.7079 C   0  0  0  0  0  0
  -27.1984  -28.7189   20.6858 C   0  0  0  0  0  0
  -26.0495  -26.9384   19.4914 C   0  0  0  0  0  0
  -24.8596  -27.6896   19.5091 C   0  0  0  0  0  0
  -23.6049  -29.8252   20.1653 C   0  0  0  0  0  0
  -25.4102  -36.3108   24.0330 C   0  0  1  0  0  0
  -20.5848  -28.3656   23.1325 C   0  0  2  0  0  0
  -20.6755  -26.9400   22.5418 C   0  0  0  0  0  0
  -19.5745  -26.6382   21.5202 C   0  0  0  0  0  0
  -18.1921  -26.7920   22.1614 C   0  0  0  0  0  0
  -19.1514  -28.8830   23.2909 C   0  0  0  0  0  0
  -18.9451  -30.1438   23.8920 C   0  0  0  0  0  0
  -17.6456  -30.6590   24.0569 C   0  0  0  0  0  0
  -25.9029  -34.9474   23.5113 C   0  0  0  0  0  0
  -16.5344  -29.9092   23.6327 C   0  0  0  0  0  0
  -16.7262  -28.6506   23.0345 C   0  0  0  0  0  0
  -26.4470  -31.6605   25.0720 C   0  0  0  0  0  0
  -25.3756  -31.3703   26.1485 C   0  0  0  0  0  0
  -27.0307  -30.3056   24.6075 C   0  0  0  0  0  0
  -27.6023  -32.4336   25.7502 C   0  0  0  0  0  0
  -27.5567  -37.1820   24.8463 C   0  0  0  0  0  0
  -21.4112  -29.3030   22.3730 N   0  0  0  0  0  0
  -26.4280  -37.3794   23.9400 N   0  0  0  0  0  0
  -24.6644  -31.0783   22.1000 N   0  0  0  0  0  0
  -23.4163  -28.8189   23.3010 O   0  0  0  0  0  0
  -28.4358  -26.7601   20.0688 O   0  0  0  0  0  0
  -26.5592  -34.8925   22.4674 O   0  0  0  0  0  0
  -23.5329  -32.1417   23.7504 O   0  0  0  0  0  0
  -28.9119  -19.2741   21.0382 C   0  0  0  0  0  0
  -28.4350  -16.9784   21.7000 C   0  0  0  0  0  0
  -30.6503  -17.5655   20.8663 C   0  0  0  0  0  0
  -28.0099  -18.3108   21.5254 C   0  0  0  0  0  0
  -30.2380  -18.9130   20.7091 C   0  0  0  0  0  0
  -29.7457  -16.5882   21.3534 C   0  0  0  0  0  0
  -30.7564  -22.4161   19.8982 C   0  0  0  0  0  0
  -32.2296  -24.0996   17.6863 C   0  0  0  0  0  0
  -32.3137  -25.3108   18.6353 C   0  0  0  0  0  0
  -30.8082  -23.5040   17.5993 C   0  0  0  0  0  0
  -30.9347  -25.9269   18.9141 C   0  0  0  0  0  0
  -30.0860  -23.4631   18.9678 C   0  0  2  0  0  0
  -29.9484  -24.9158   19.5621 C   0  0  2  0  0  0
  -26.5792  -18.7032   21.8412 C   0  0  0  0  0  0
  -31.2294  -19.9643   20.2092 C   0  0  0  0  0  0
  -28.4975  -25.4535   19.4878 C   0  0  0  0  0  0
  -30.0830  -15.2185   21.5466 N   0  0  0  0  0  0
  -30.6079  -21.1245   19.5591 N   0  0  0  0  0  0
  -31.4053  -22.7616   20.8880 O   0  0  0  0  0  0
  -31.4785  -12.4070   19.1185 H   0  0  0  0  0  0
  -30.3293  -11.2630   19.7437 H   0  0  0  0  0  0
  -29.7466  -11.8902   17.3794 H   0  0  0  0  0  0
  -29.6823  -13.5725   17.8304 H   0  0  0  0  0  0
  -27.7934  -11.3608   18.7198 H   0  0  0  0  0  0
  -27.3896  -12.7737   17.7798 H   0  0  0  0  0  0
  -27.7522  -14.2626   19.6748 H   0  0  0  0  0  0
  -28.6729  -11.8201   21.2477 H   0  0  0  0  0  0
  -28.4556  -13.3853   21.9346 H   0  0  0  0  0  0
  -25.2769   -9.5707   22.4733 H   0  0  0  0  0  0
  -24.0006   -7.4658   22.7502 H   0  0  0  0  0  0
  -21.0817   -8.8749   19.8963 H   0  0  0  0  0  0
  -22.3656  -10.9671   19.6140 H   0  0  0  0  0  0
  -21.2035   -7.6152   23.9713 H   0  0  0  0  0  0
  -21.1479   -6.0517   25.9078 H   0  0  0  0  0  0
  -22.0610   -2.7600   23.2816 H   0  0  0  0  0  0
  -22.4106  -11.9975   22.4768 H   0  0  0  0  0  0
  -21.1164  -13.1407   22.2540 H   0  0  0  0  0  0
  -24.6552  -15.8313   20.4684 H   0  0  0  0  0  0
  -26.2795  -15.6187   20.0471 H   0  0  0  0  0  0
  -26.7092  -32.5527   23.1143 H   0  0  0  0  0  0
  -25.0052  -33.9799   25.0467 H   0  0  0  0  0  0
  -22.6887  -31.3106   21.4132 H   0  0  0  0  0  0
  -23.3720  -35.9676   23.3325 H   0  0  0  0  0  0
  -24.3567  -36.8926   22.2050 H   0  0  0  0  0  0
  -23.7261  -37.6544   23.6654 H   0  0  0  0  0  0
  -26.0302  -31.6010   20.5899 H   0  0  0  0  0  0
  -26.8163  -30.8921   21.9740 H   0  0  0  0  0  0
  -28.0980  -29.1165   21.1331 H   0  0  0  0  0  0
  -26.0194  -25.9702   19.0132 H   0  0  0  0  0  0
  -23.9648  -27.2880   19.0539 H   0  0  0  0  0  0
  -23.7143  -30.6023   19.4077 H   0  0  0  0  0  0
  -22.7276  -29.2484   19.8682 H   0  0  0  0  0  0
  -25.1280  -36.1957   25.0821 H   0  0  0  0  0  0
  -20.9960  -28.3219   24.1435 H   0  0  0  0  0  0
  -20.5633  -26.2273   23.3601 H   0  0  0  0  0  0
  -21.6630  -26.7428   22.1223 H   0  0  0  0  0  0
  -19.6914  -25.6286   21.1247 H   0  0  0  0  0  0
  -19.6696  -27.3182   20.6725 H   0  0  0  0  0  0
  -17.4189  -26.6668   21.4019 H   0  0  0  0  0  0
  -18.0337  -26.0050   22.9001 H   0  0  0  0  0  0
  -19.7930  -30.7246   24.2296 H   0  0  0  0  0  0
  -17.5021  -31.6277   24.5152 H   0  0  0  0  0  0
  -15.5354  -30.3009   23.7642 H   0  0  0  0  0  0
  -15.8657  -28.0849   22.7039 H   0  0  0  0  0  0
  -24.5907  -30.7069   25.7836 H   0  0  0  0  0  0
  -24.8980  -32.2866   26.4969 H   0  0  0  0  0  0
  -25.8132  -30.8853   27.0220 H   0  0  0  0  0  0
  -26.2854  -29.6825   24.1119 H   0  0  0  0  0  0
  -27.4092  -29.7275   25.4511 H   0  0  0  0  0  0
  -27.8673  -30.4391   23.9209 H   0  0  0  0  0  0
  -27.2614  -33.3614   26.2103 H   0  0  0  0  0  0
  -28.3841  -32.6931   25.0357 H   0  0  0  0  0  0
  -28.0685  -31.8455   26.5419 H   0  0  0  0  0  0
  -28.2582  -38.0113   24.7482 H   0  0  0  0  0  0
  -28.1060  -36.2641   24.6310 H   0  0  0  0  0  0
  -27.2294  -37.1500   25.8869 H   0  0  0  0  0  0
  -20.9252  -29.8790   21.6993 H   0  0  0  0  0  0
  -26.0163  -38.2865   24.1398 H   0  0  0  0  0  0
  -28.5787  -20.2958   20.9204 H   0  0  0  0  0  0
  -27.7354  -16.2487   22.0843 H   0  0  0  0  0  0
  -31.6657  -17.2889   20.6183 H   0  0  0  0  0  0
  -32.9341  -23.3384   18.0253 H   0  0  0  0  0  0
  -32.5571  -24.3837   16.6852 H   0  0  0  0  0  0
  -32.9869  -26.0620   18.2193 H   0  0  0  0  0  0
  -32.7607  -25.0042   19.5825 H   0  0  0  0  0  0
  -30.8520  -22.5125   17.1449 H   0  0  0  0  0  0
  -30.2138  -24.1061   16.9111 H   0  0  0  0  0  0
  -30.5240  -26.3051   17.9757 H   0  0  0  0  0  0
  -31.0451  -26.8005   19.5580 H   0  0  0  0  0  0
  -29.0794  -23.0786   18.7936 H   0  0  0  0  0  0
  -30.1922  -24.8838   20.6239 H   0  0  0  0  0  0
  -26.4792  -19.7841   21.9448 H   0  0  0  0  0  0
  -26.2455  -18.2448   22.7725 H   0  0  0  0  0  0
  -25.9135  -18.3792   21.0396 H   0  0  0  0  0  0
  -31.9012  -19.4992   19.4868 H   0  0  0  0  0  0
  -31.8558  -20.2694   21.0503 H   0  0  0  0  0  0
  -27.8248  -24.7851   20.0288 H   0  0  0  0  0  0
  -28.1687  -25.4808   18.4472 H   0  0  0  0  0  0
  -29.3943  -14.7069   22.0789 H   0  0  0  0  0  0
  -30.0530  -20.9235   18.7376 H   0  0  0  0  0  0
  1 25  1  0  0  0
  1 30  2  0  0  0
  1 87  1  0  0  0
  2  3  1  0  0  0
  2 25  1  0  0  0
  2 90  1  0  0  0
  2 91  1  0  0  0
  3  4  1  0  0  0
  3 92  1  0  0  0
  3 93  1  0  0  0
  4  5  1  0  0  0
  4 94  1  0  0  0
  4 95  1  0  0  0
  5  6  1  0  0  0
  5 26  1  0  0  0
  5 96  1  0  0  0
  6 25  1  0  0  0
  6 97  1  0  0  0
  6 98  1  0  0  0
  7  8  2  0  0  0
  7 26  1  0  0  0
  7 29  1  0  0  0
  8  9  1  0  0  0
  8 22  1  0  0  0
  9 10  1  0  0  0
  9 27  2  0  0  0
 10 11  2  0  0  0
 10 15  1  0  0  0
 11 12  1  0  0  0
 11 99  1  0  0  0
 12 13  2  0  0  0
 12100  1  0  0  0
 13 14  1  0  0  0
 13 31  1  0  0  0
 14 15  2  0  0  0
 14101  1  0  0  0
 15102  1  0  0  0
 16 17  2  0  0  0
 16 21  1  0  0  0
 16 31  1  0  0  0
 17 18  1  0  0  0
 17103  1  0  0  0
 18 19  2  0  0  0
 18104  1  0  0  0
 19 20  1  0  0  0
 19 24  1  0  0  0
 20 21  2  0  0  0
 20105  1  0  0  0
 21 23  1  0  0  0
 22 28  1  0  0  0
 22 32  2  0  0  0
 26 27  1  0  0  0
 28106  1  0  0  0
 28107  1  0  0  0
 29108  1  0  0  0
 29109  1  0  0  0
 33 34  1  0  0  0
 33 66  1  0  0  0
 33 70  2  0  0  0
 34 36  1  0  0  0
 34 59  1  0  0  0
 34110  1  0  0  0
 35 44  2  0  0  0
 35 45  1  0  0  0
 35 68  1  0  0  0
 36 56  1  0  0  0
 36111  1  0  0  0
 37 39  1  0  0  0
 37 47  1  0  0  0
 37 66  1  0  0  0
 37112  1  0  0  0
 38 43  2  0  0  0
 38 46  1  0  0  0
 38 47  1  0  0  0
 39 64  1  0  0  0
 39 67  2  0  0  0
 40 52  1  0  0  0
 40 53  2  0  0  0
 40 58  1  0  0  0
 41113  1  0  0  0
 41114  1  0  0  0
 41115  1  0  0  0
 41 48  1  0  0  0
 42 43  1  0  0  0
 42 66  1  0  0  0
 42116  1  0  0  0
 42117  1  0  0  0
 43 44  1  0  0  0
 44118  1  0  0  0
 45 46  2  0  0  0
 45119  1  0  0  0
 46120  1  0  0  0
 47121  1  0  0  0
 47122  1  0  0  0
 48 56  1  0  0  0
 48 65  1  0  0  0
 48123  1  0  0  0
 49 50  1  0  0  0
 49 53  1  0  0  0
 49 64  1  0  0  0
 49124  1  0  0  0
 50 51  1  0  0  0
 50125  1  0  0  0
 50126  1  0  0  0
 51 52  1  0  0  0
 51127  1  0  0  0
 51128  1  0  0  0
 52129  1  0  0  0
 52130  1  0  0  0
 53 54  1  0  0  0
 54 55  2  0  0  0
 54131  1  0  0  0
 55 57  1  0  0  0
 55132  1  0  0  0
 56 69  2  0  0  0
 57 58  2  0  0  0
 57133  1  0  0  0
 58134  1  0  0  0
 59 60  1  0  0  0
 59 61  1  0  0  0
 59 62  1  0  0  0
 60135  1  0  0  0
 60136  1  0  0  0
 60137  1  0  0  0
 61138  1  0  0  0
 61139  1  0  0  0
 61140  1  0  0  0
 62141  1  0  0  0
 62142  1  0  0  0
 62143  1  0  0  0
 63 65  1  0  0  0
 63144  1  0  0  0
 63145  1  0  0  0
 63146  1  0  0  0
 64147  1  0  0  0
 65148  1  0  0  0
 68 86  1  0  0  0
 71 74  2  0  0  0
 71 75  1  0  0  0
 71149  1  0  0  0
 72 74  1  0  0  0
 72 76  2  0  0  0
 72150  1  0  0  0
 73 75  2  0  0  0
 73 76  1  0  0  0
 73151  1  0  0  0
 74 84  1  0  0  0
 75 85  1  0  0  0
 76 87  1  0  0  0
 77 88  1  0  0  0
 77 89  2  0  0  0
 77 82  1  0  0  0
 78 79  1  0  0  0
 78 80  1  0  0  0
 78152  1  0  0  0
 78153  1  0  0  0
 79 81  1  0  0  0
 79154  1  0  0  0
 79155  1  0  0  0
 80 82  1  0  0  0
 80156  1  0  0  0
 80157  1  0  0  0
 81 83  1  0  0  0
 81158  1  0  0  0
 81159  1  0  0  0
 82 83  1  0  0  0
 82160  1  0  0  0
 83 86  1  0  0  0
 83161  1  0  0  0
 84162  1  0  0  0
 84163  1  0  0  0
 84164  1  0  0  0
 85 88  1  0  0  0
 85165  1  0  0  0
 85166  1  0  0  0
 86167  1  0  0  0
 86168  1  0  0  0
 87169  1  0  0  0
 88170  1  0  0  0
M  ISO  4   1 100  68 101  86 101  87 100
M  END
> <chiral flag>
0

> <version>
0

> <s_m_source_file>
/data/baiqing/PycharmProjects/Reinvent-master-3.2/result/LINK_invent/BTK/process_docking_weight1_custom_product_contain_oxygen_bond_distance_aromatic_linkinvent_7_9_3/rearranged_h_0043.sdf

> <i_m_source_file_index>
43

> <r_mmod_Potential_Energy-OPLS-2005>
-80.3516693115234

> <r_mmod_Stretch_Energy-OPLS-2005>
40.6384544372559

> <r_mmod_Bend_Energy-OPLS-2005>
106.980590820312

> <r_mmod_Torsional_Energy-OPLS-2005>
257.503356933594

> <r_mmod_Improper_Torsional_Energy-OPLS-2005>
5.3107123374939

> <r_mmod_Van_der_Waal_Energy-OPLS-2005>
162.242141723633

> <r_mmod_Electrostatic_Energy-OPLS-2005>
-436.33056640625

> <r_mmod_Solvation_Energy-OPLS-2005>
-226.578063964844

> <b_mmod_Minimization_Converged-OPLS-2005>
0

> <r_mmod_RMS_Derivative-OPLS-2005>
2.93284177780151

$$$$
43
                    3D
 Structure written by MMmdl.
171180  0  0  1  0            999 V2000
  -30.6487  -14.6353   20.4559 C   0  0  0  0  0  0
  -30.4242  -12.3784   19.4678 C   0  0  0  0  0  0
  -29.5056  -12.4876   18.2322 C   0  0  0  0  0  0
  -28.0277  -12.3384   18.6437 C   0  0  0  0  0  0
  -27.6474  -13.2247   19.8596 C   0  0  2  0  0  0
  -28.6909  -13.1172   20.9945 C   0  0  0  0  0  0
  -25.2514  -13.8195   20.5674 C   0  0  0  0  0  0
  -24.1803  -13.0446   20.9196 C   0  0  0  0  0  0
  -24.6394  -11.6922   20.8757 C   0  0  0  0  0  0
  -23.9056  -10.4286   21.0403 C   0  0  0  0  0  0
  -24.3603   -9.4203   21.9189 C   0  0  0  0  0  0
  -23.6279   -8.2237   22.0754 C   0  0  0  0  0  0
  -22.4267   -8.0265   21.3526 C   0  0  0  0  0  0
  -21.9904   -9.0245   20.4637 C   0  0  0  0  0  0
  -22.7229  -10.2132   20.3054 C   0  0  0  0  0  0
  -21.6855   -6.0731   22.5270 C   0  0  0  0  0  0
  -21.4012   -6.5630   23.8201 C   0  0  0  0  0  0
  -21.3663   -5.6781   24.9159 C   0  0  0  0  0  0
  -21.6035   -4.3040   24.7216 C   0  0  0  0  0  0
  -21.8824   -3.8140   23.4338 C   0  0  0  0  0  0
  -21.9201   -4.6959   22.3399 C   0  0  0  0  0  0
  -22.7828  -13.5234   21.1855 C   0  0  0  0  0  0
  -22.1665   -4.2136   21.0973 F   0  0  0  0  0  0
  -21.5643   -3.4531   25.7742 F   0  0  0  0  0  0
  -30.0062  -13.4284   20.4215 N   0  0  0  0  0  0
  -26.2949  -12.9406   20.3302 N   0  0  0  0  0  0
  -25.9313  -11.6550   20.5772 N   0  0  0  0  0  0
  -22.0457  -12.8215   22.0408 N   0  0  0  0  0  0
  -25.4228  -15.1929   20.4083 N   0  0  0  0  0  0
  -31.8266  -14.7332   20.1088 O   0  0  0  0  0  0
  -21.6632   -6.8868   21.4223 O   0  0  0  0  0  0
  -22.3505  -14.5528   20.6702 O   0  0  0  0  0  0
  -24.6256  -31.8582   23.2016 C   0  0  0  0  0  0
  -25.9112  -32.4757   23.8360 C   0  0  1  0  0  0
  -27.2162  -27.3469   20.1174 C   0  0  0  0  0  0
  -25.5920  -33.8565   24.2283 N   0  0  0  0  0  0
  -23.4175  -30.4875   21.5411 C   0  0  2  0  0  0
  -24.8647  -28.9506   20.0955 C   0  0  0  0  0  0
  -22.7492  -29.4613   22.4899 C   0  0  0  0  0  0
  -18.0307  -28.1387   22.8484 C   0  0  0  0  0  0
  -24.1482  -36.7257   23.2659 C   0  0  0  0  0  0
  -25.9567  -30.7993   21.3712 C   0  0  0  0  0  0
  -26.0312  -29.4305   20.7106 C   0  0  0  0  0  0
  -27.2113  -28.6398   20.7170 C   0  0  0  0  0  0
  -26.0510  -26.9295   19.4400 C   0  0  0  0  0  0
  -24.8757  -27.7026   19.4522 C   0  0  0  0  0  0
  -23.6327  -29.8282   20.1525 C   0  0  0  0  0  0
  -25.4085  -36.3042   24.0359 C   0  0  1  0  0  0
  -20.5911  -28.3620   23.1302 C   0  0  2  0  0  0
  -20.6781  -26.9348   22.5422 C   0  0  0  0  0  0
  -19.5747  -26.6369   21.5227 C   0  0  0  0  0  0
  -18.1924  -26.7944   22.1613 C   0  0  0  0  0  0
  -19.1572  -28.8827   23.2892 C   0  0  0  0  0  0
  -18.9491  -30.1452   23.8848 C   0  0  0  0  0  0
  -17.6483  -30.6582   24.0565 C   0  0  0  0  0  0
  -25.9035  -34.9427   23.5122 C   0  0  0  0  0  0
  -16.5364  -29.9076   23.6352 C   0  0  0  0  0  0
  -16.7293  -28.6519   23.0329 C   0  0  0  0  0  0
  -26.4507  -31.6562   25.0725 C   0  0  0  0  0  0
  -25.3780  -31.3661   26.1479 C   0  0  0  0  0  0
  -27.0362  -30.3000   24.6140 C   0  0  0  0  0  0
  -27.6055  -32.4306   25.7483 C   0  0  0  0  0  0
  -27.5550  -37.1768   24.8483 C   0  0  0  0  0  0
  -21.4207  -29.2985   22.3652 N   0  0  0  0  0  0
  -26.4247  -37.3755   23.9440 N   0  0  0  0  0  0
  -24.6858  -31.0654   22.0925 N   0  0  0  0  0  0
  -23.4240  -28.8223   23.2993 O   0  0  0  0  0  0
  -28.2741  -26.4431   20.2412 O   0  0  0  0  0  0
  -26.5618  -34.8904   22.4706 O   0  0  0  0  0  0
  -23.5415  -32.1315   23.7362 O   0  0  0  0  0  0
  -28.5750  -19.0986   19.8079 C   0  0  0  0  0  0
  -29.7266  -18.4743   20.3533 C   0  0  0  0  0  0
  -28.2305  -20.4625   20.0547 C   0  0  0  0  0  0
  -30.5517  -19.3005   21.1722 C   0  0  0  0  0  0
  -30.2498  -20.6912   21.3758 C   0  0  0  0  0  0
  -29.0580  -21.3004   20.8604 C   0  0  0  0  0  0
  -26.5954  -24.4266   23.1516 C   0  0  0  0  0  0
  -26.8863  -22.9326   23.0292 C   0  0  0  0  0  0
  -26.7058  -25.1952   21.8280 C   0  0  0  0  0  0
  -28.3619  -22.6658   22.7249 C   0  0  0  0  0  0
  -28.4537  -23.8263   20.4093 C   0  0  0  0  0  0
  -28.0961  -25.2330   21.1026 C   0  0  1  0  0  0
  -26.9471  -20.9827   19.4204 C   0  0  0  0  0  0
  -31.7869  -18.7035   21.8407 C   0  0  0  0  0  0
  -31.2561  -21.5508   22.1486 C   0  0  0  0  0  0
  -30.1515  -17.0432   19.8499 C   0  0  0  0  0  0
  -28.6600  -22.6202   21.2892 N   0  0  0  0  0  0
  -29.8821  -15.7647   20.5975 N   0  0  0  0  0  0
  -31.4686  -12.4755   19.1670 H   0  0  0  0  0  0
  -30.3392  -11.3941   19.9285 H   0  0  0  0  0  0
  -29.7669  -11.7210   17.4998 H   0  0  0  0  0  0
  -29.6588  -13.4491   17.7392 H   0  0  0  0  0  0
  -27.8628  -11.2896   18.8896 H   0  0  0  0  0  0
  -27.3750  -12.5545   17.7971 H   0  0  0  0  0  0
  -27.6562  -14.2528   19.4980 H   0  0  0  0  0  0
  -28.6919  -12.1153   21.4220 H   0  0  0  0  0  0
  -28.4489  -13.8010   21.8106 H   0  0  0  0  0  0
  -25.2752   -9.5696   22.4751 H   0  0  0  0  0  0
  -24.0000   -7.4636   22.7481 H   0  0  0  0  0  0
  -21.0837   -8.8743   19.8941 H   0  0  0  0  0  0
  -22.3670  -10.9660   19.6151 H   0  0  0  0  0  0
  -21.1970   -7.6137   23.9697 H   0  0  0  0  0  0
  -21.1487   -6.0511   25.9061 H   0  0  0  0  0  0
  -22.0604   -2.7601   23.2839 H   0  0  0  0  0  0
  -22.4073  -11.9885   22.4816 H   0  0  0  0  0  0
  -21.1067  -13.1216   22.2594 H   0  0  0  0  0  0
  -24.6573  -15.8482   20.5095 H   0  0  0  0  0  0
  -26.2688  -15.6233   20.0575 H   0  0  0  0  0  0
  -26.7162  -32.5410   23.1075 H   0  0  0  0  0  0
  -25.0121  -33.9689   25.0479 H   0  0  0  0  0  0
  -22.7096  -31.3059   21.3980 H   0  0  0  0  0  0
  -23.3755  -35.9579   23.3325 H   0  0  0  0  0  0
  -24.3577  -36.8865   22.2076 H   0  0  0  0  0  0
  -23.7267  -37.6474   23.6666 H   0  0  0  0  0  0
  -26.1071  -31.5641   20.6077 H   0  0  0  0  0  0
  -26.8343  -30.8373   22.0020 H   0  0  0  0  0  0
  -28.0948  -28.9910   21.2263 H   0  0  0  0  0  0
  -26.0431  -25.9616   18.9602 H   0  0  0  0  0  0
  -23.9863  -27.3309   18.9676 H   0  0  0  0  0  0
  -23.7598  -30.6123   19.4049 H   0  0  0  0  0  0
  -22.7522  -29.2663   19.8416 H   0  0  0  0  0  0
  -25.1275  -36.1827   25.0847 H   0  0  0  0  0  0
  -20.9995  -28.3149   24.1431 H   0  0  0  0  0  0
  -20.5669  -26.2197   23.3596 H   0  0  0  0  0  0
  -21.6638  -26.7365   22.1194 H   0  0  0  0  0  0
  -19.6878  -25.6296   21.1201 H   0  0  0  0  0  0
  -19.6719  -27.3209   20.6791 H   0  0  0  0  0  0
  -17.4209  -26.6733   21.3994 H   0  0  0  0  0  0
  -18.0255  -26.0109   22.9004 H   0  0  0  0  0  0
  -19.7982  -30.7332   24.2116 H   0  0  0  0  0  0
  -17.5050  -31.6254   24.5199 H   0  0  0  0  0  0
  -15.5372  -30.2960   23.7746 H   0  0  0  0  0  0
  -15.8686  -28.0870   22.6981 H   0  0  0  0  0  0
  -24.5975  -30.6956   25.7849 H   0  0  0  0  0  0
  -24.8952  -32.2825   26.4904 H   0  0  0  0  0  0
  -25.8160  -30.8875   27.0263 H   0  0  0  0  0  0
  -26.2907  -29.6710   24.1248 H   0  0  0  0  0  0
  -27.4262  -29.7258   25.4566 H   0  0  0  0  0  0
  -27.8691  -30.4376   23.9230 H   0  0  0  0  0  0
  -27.2673  -33.3641   26.1999 H   0  0  0  0  0  0
  -28.3886  -32.6824   25.0315 H   0  0  0  0  0  0
  -28.0710  -31.8502   26.5444 H   0  0  0  0  0  0
  -28.2564  -38.0064   24.7520 H   0  0  0  0  0  0
  -28.1052  -36.2608   24.6292 H   0  0  0  0  0  0
  -27.2298  -37.1419   25.8898 H   0  0  0  0  0  0
  -20.9319  -29.8719   21.6908 H   0  0  0  0  0  0
  -26.0109  -38.2805   24.1467 H   0  0  0  0  0  0
  -27.9432  -18.5144   19.1557 H   0  0  0  0  0  0
  -27.2362  -24.8797   23.9064 H   0  0  0  0  0  0
  -25.5781  -24.5458   23.5273 H   0  0  0  0  0  0
  -26.2329  -22.4536   22.3013 H   0  0  0  0  0  0
  -26.6403  -22.4696   23.9856 H   0  0  0  0  0  0
  -26.4000  -26.1993   22.1212 H   0  0  0  0  0  0
  -25.9497  -24.8246   21.1381 H   0  0  0  0  0  0
  -28.6276  -21.7194   23.2010 H   0  0  0  0  0  0
  -28.9915  -23.4100   23.2105 H   0  0  0  0  0  0
  -29.3748  -23.9501   19.8415 H   0  0  0  0  0  0
  -27.6817  -23.6037   19.6785 H   0  0  0  0  0  0
  -28.8437  -25.3893   21.8784 H   0  0  0  0  0  0
  -26.2847  -20.1650   19.1360 H   0  0  0  0  0  0
  -27.1775  -21.5550   18.5218 H   0  0  0  0  0  0
  -26.3842  -21.6224   20.0964 H   0  0  0  0  0  0
  -31.8585  -17.6232   21.7274 H   0  0  0  0  0  0
  -31.7601  -18.8983   22.9129 H   0  0  0  0  0  0
  -32.7037  -19.1411   21.4494 H   0  0  0  0  0  0
  -32.2820  -21.3422   21.8468 H   0  0  0  0  0  0
  -31.1676  -21.3892   23.2223 H   0  0  0  0  0  0
  -31.1228  -22.6144   21.9593 H   0  0  0  0  0  0
  -31.2074  -17.1057   19.5845 H   0  0  0  0  0  0
  -29.6608  -16.9051   18.8860 H   0  0  0  0  0  0
  -28.9319  -15.6198   20.9035 H   0  0  0  0  0  0
  1 25  1  0  0  0
  1 30  2  0  0  0
  1 88  1  0  0  0
  2  3  1  0  0  0
  2 25  1  0  0  0
  2 89  1  0  0  0
  2 90  1  0  0  0
  3  4  1  0  0  0
  3 91  1  0  0  0
  3 92  1  0  0  0
  4  5  1  0  0  0
  4 93  1  0  0  0
  4 94  1  0  0  0
  5  6  1  0  0  0
  5 26  1  0  0  0
  5 95  1  0  0  0
  6 25  1  0  0  0
  6 96  1  0  0  0
  6 97  1  0  0  0
  7  8  2  0  0  0
  7 26  1  0  0  0
  7 29  1  0  0  0
  8  9  1  0  0  0
  8 22  1  0  0  0
  9 10  1  0  0  0
  9 27  2  0  0  0
 10 11  2  0  0  0
 10 15  1  0  0  0
 11 12  1  0  0  0
 11 98  1  0  0  0
 12 13  2  0  0  0
 12 99  1  0  0  0
 13 14  1  0  0  0
 13 31  1  0  0  0
 14 15  2  0  0  0
 14100  1  0  0  0
 15101  1  0  0  0
 16 17  2  0  0  0
 16 21  1  0  0  0
 16 31  1  0  0  0
 17 18  1  0  0  0
 17102  1  0  0  0
 18 19  2  0  0  0
 18103  1  0  0  0
 19 20  1  0  0  0
 19 24  1  0  0  0
 20 21  2  0  0  0
 20104  1  0  0  0
 21 23  1  0  0  0
 22 28  1  0  0  0
 22 32  2  0  0  0
 26 27  1  0  0  0
 28105  1  0  0  0
 28106  1  0  0  0
 29107  1  0  0  0
 29108  1  0  0  0
 33 34  1  0  0  0
 33 66  1  0  0  0
 33 70  2  0  0  0
 34 36  1  0  0  0
 34 59  1  0  0  0
 34109  1  0  0  0
 35 44  2  0  0  0
 35 45  1  0  0  0
 35 68  1  0  0  0
 36 56  1  0  0  0
 36110  1  0  0  0
 37 39  1  0  0  0
 37 47  1  0  0  0
 37 66  1  0  0  0
 37111  1  0  0  0
 38 43  2  0  0  0
 38 46  1  0  0  0
 38 47  1  0  0  0
 39 64  1  0  0  0
 39 67  2  0  0  0
 40 52  1  0  0  0
 40 53  2  0  0  0
 40 58  1  0  0  0
 41112  1  0  0  0
 41113  1  0  0  0
 41114  1  0  0  0
 41 48  1  0  0  0
 42 43  1  0  0  0
 42 66  1  0  0  0
 42115  1  0  0  0
 42116  1  0  0  0
 43 44  1  0  0  0
 44117  1  0  0  0
 45 46  2  0  0  0
 45118  1  0  0  0
 46119  1  0  0  0
 47120  1  0  0  0
 47121  1  0  0  0
 48 56  1  0  0  0
 48 65  1  0  0  0
 48122  1  0  0  0
 49 50  1  0  0  0
 49 53  1  0  0  0
 49 64  1  0  0  0
 49123  1  0  0  0
 50 51  1  0  0  0
 50124  1  0  0  0
 50125  1  0  0  0
 51 52  1  0  0  0
 51126  1  0  0  0
 51127  1  0  0  0
 52128  1  0  0  0
 52129  1  0  0  0
 53 54  1  0  0  0
 54 55  2  0  0  0
 54130  1  0  0  0
 55 57  1  0  0  0
 55131  1  0  0  0
 56 69  2  0  0  0
 57 58  2  0  0  0
 57132  1  0  0  0
 58133  1  0  0  0
 59 60  1  0  0  0
 59 61  1  0  0  0
 59 62  1  0  0  0
 60134  1  0  0  0
 60135  1  0  0  0
 60136  1  0  0  0
 61137  1  0  0  0
 61138  1  0  0  0
 61139  1  0  0  0
 62140  1  0  0  0
 62141  1  0  0  0
 62142  1  0  0  0
 63 65  1  0  0  0
 63143  1  0  0  0
 63144  1  0  0  0
 63145  1  0  0  0
 64146  1  0  0  0
 65147  1  0  0  0
 68 82  1  0  0  0
 71 72  2  0  0  0
 71 73  1  0  0  0
 71148  1  0  0  0
 72 74  1  0  0  0
 72 86  1  0  0  0
 73 76  2  0  0  0
 73 83  1  0  0  0
 74 75  2  0  0  0
 74 84  1  0  0  0
 75 76  1  0  0  0
 75 85  1  0  0  0
 76 87  1  0  0  0
 77 78  1  0  0  0
 77 79  1  0  0  0
 77149  1  0  0  0
 77150  1  0  0  0
 78 80  1  0  0  0
 78151  1  0  0  0
 78152  1  0  0  0
 79 82  1  0  0  0
 79153  1  0  0  0
 79154  1  0  0  0
 80 87  1  0  0  0
 80155  1  0  0  0
 80156  1  0  0  0
 81 82  1  0  0  0
 81 87  1  0  0  0
 81157  1  0  0  0
 81158  1  0  0  0
 82159  1  0  0  0
 83160  1  0  0  0
 83161  1  0  0  0
 83162  1  0  0  0
 84163  1  0  0  0
 84164  1  0  0  0
 84165  1  0  0  0
 85166  1  0  0  0
 85167  1  0  0  0
 85168  1  0  0  0
 86 88  1  0  0  0
 86169  1  0  0  0
 86170  1  0  0  0
 88171  1  0  0  0
M  ISO  4   1 100  68 101  82 101  88 100
M  END
> <chiral flag>
0

> <version>
0

> <s_m_source_file>
/data/baiqing/PycharmProjects/Reinvent-master-3.2/result/LINK_invent/BTK/process_docking_weight1_custom_product_contain_oxygen_bond_distance_aromatic_linkinvent_7_9_3/rearranged_h_0043.sdf

> <i_m_source_file_index>
44

> <r_mmod_Potential_Energy-OPLS-2005>
127.927894592285

> <r_mmod_Stretch_Energy-OPLS-2005>
89.1234588623047

> <r_mmod_Bend_Energy-OPLS-2005>
161.206420898438

> <r_mmod_Torsional_Energy-OPLS-2005>
317.256622314453

> <r_mmod_Improper_Torsional_Energy-OPLS-2005>
10.8314161300659

> <r_mmod_Van_der_Waal_Energy-OPLS-2005>
160.215484619141

> <r_mmod_Electrostatic_Energy-OPLS-2005>
-461.240356445312

> <r_mmod_Solvation_Energy-OPLS-2005>
-203.820129394531

> <b_mmod_Minimization_Converged-OPLS-2005>
0

> <r_mmod_RMS_Derivative-OPLS-2005>
5.43649005889893

$$$$
44
                    3D
 Structure written by MMmdl.
157165  0  0  1  0            999 V2000
  -30.6134  -14.7594   20.4596 C   0  0  0  0  0  0
  -30.4310  -12.4663   19.4774 C   0  0  0  0  0  0
  -29.5075  -12.5105   18.2400 C   0  0  0  0  0  0
  -28.0345  -12.3327   18.6548 C   0  0  0  0  0  0
  -27.6378  -13.2365   19.8520 C   0  0  2  0  0  0
  -28.6838  -13.1826   20.9877 C   0  0  0  0  0  0
  -25.2458  -13.8196   20.5697 C   0  0  0  0  0  0
  -24.1769  -13.0430   20.9231 C   0  0  0  0  0  0
  -24.6373  -11.6904   20.8764 C   0  0  0  0  0  0
  -23.9048  -10.4278   21.0414 C   0  0  0  0  0  0
  -24.3602   -9.4199   21.9190 C   0  0  0  0  0  0
  -23.6280   -8.2235   22.0753 C   0  0  0  0  0  0
  -22.4263   -8.0271   21.3541 C   0  0  0  0  0  0
  -21.9901   -9.0237   20.4645 C   0  0  0  0  0  0
  -22.7224  -10.2119   20.3057 C   0  0  0  0  0  0
  -21.6856   -6.0714   22.5262 C   0  0  0  0  0  0
  -21.4015   -6.5626   23.8190 C   0  0  0  0  0  0
  -21.3662   -5.6788   24.9158 C   0  0  0  0  0  0
  -21.6053   -4.3049   24.7222 C   0  0  0  0  0  0
  -21.8818   -3.8130   23.4348 C   0  0  0  0  0  0
  -21.9191   -4.6944   22.3397 C   0  0  0  0  0  0
  -22.7789  -13.5209   21.1886 C   0  0  0  0  0  0
  -22.1659   -4.2122   21.0980 F   0  0  0  0  0  0
  -21.5636   -3.4536   25.7745 F   0  0  0  0  0  0
  -29.9829  -13.5351   20.4013 N   0  0  0  0  0  0
  -26.2904  -12.9414   20.3296 N   0  0  0  0  0  0
  -25.9310  -11.6548   20.5777 N   0  0  0  0  0  0
  -22.0437  -12.8187   22.0438 N   0  0  0  0  0  0
  -25.4100  -15.1902   20.4026 N   0  0  0  0  0  0
  -31.8066  -14.8264   20.1533 O   0  0  0  0  0  0
  -21.6637   -6.8857   21.4226 O   0  0  0  0  0  0
  -22.3466  -14.5513   20.6735 O   0  0  0  0  0  0
  -24.6291  -31.8542   23.1961 C   0  0  0  0  0  0
  -25.9117  -32.4753   23.8326 C   0  0  1  0  0  0
  -27.2313  -27.2697   20.1282 C   0  0  0  0  0  0
  -25.5911  -33.8551   24.2230 N   0  0  0  0  0  0
  -23.4276  -30.4741   21.5368 C   0  0  2  0  0  0
  -24.8777  -28.9206   20.1067 C   0  0  0  0  0  0
  -22.7508  -29.4584   22.4896 C   0  0  0  0  0  0
  -18.0291  -28.1376   22.8480 C   0  0  0  0  0  0
  -24.1493  -36.7284   23.2643 C   0  0  0  0  0  0
  -25.9724  -30.7719   21.3736 C   0  0  0  0  0  0
  -26.0451  -29.3946   20.7154 C   0  0  0  0  0  0
  -27.2191  -28.5796   20.7166 C   0  0  0  0  0  0
  -26.0352  -26.8498   19.5053 C   0  0  0  0  0  0
  -24.8786  -27.6573   19.4923 C   0  0  0  0  0  0
  -23.6460  -29.8030   20.1540 C   0  0  0  0  0  0
  -25.4118  -36.3059   24.0323 C   0  0  1  0  0  0
  -20.5894  -28.3679   23.1275 C   0  0  2  0  0  0
  -20.6775  -26.9387   22.5426 C   0  0  0  0  0  0
  -19.5752  -26.6363   21.5227 C   0  0  0  0  0  0
  -18.1919  -26.7921   22.1616 C   0  0  0  0  0  0
  -19.1549  -28.8845   23.2873 C   0  0  0  0  0  0
  -18.9478  -30.1438   23.8900 C   0  0  0  0  0  0
  -17.6474  -30.6583   24.0554 C   0  0  0  0  0  0
  -25.9061  -34.9437   23.5085 C   0  0  0  0  0  0
  -16.5366  -29.9081   23.6335 C   0  0  0  0  0  0
  -16.7279  -28.6498   23.0354 C   0  0  0  0  0  0
  -26.4497  -31.6586   25.0718 C   0  0  0  0  0  0
  -25.3701  -31.3756   26.1429 C   0  0  0  0  0  0
  -27.0351  -30.3001   24.6204 C   0  0  0  0  0  0
  -27.6040  -32.4355   25.7489 C   0  0  0  0  0  0
  -27.5584  -37.1773   24.8451 C   0  0  0  0  0  0
  -21.4215  -29.3020   22.3660 N   0  0  0  0  0  0
  -26.4291  -37.3757   23.9414 N   0  0  0  0  0  0
  -24.6949  -31.0509   22.0933 N   0  0  0  0  0  0
  -23.4210  -28.8128   23.3002 O   0  0  0  0  0  0
  -28.3560  -26.4223   20.2250 O   0  0  0  0  0  0
  -26.5643  -34.8916   22.4663 O   0  0  0  0  0  0
  -23.5440  -32.1376   23.7241 O   0  0  0  0  0  0
  -31.8613  -19.1578   20.6867 C   0  0  0  0  0  0
  -30.8956  -20.1792   20.5978 C   0  0  0  0  0  0
  -31.5028  -17.7948   20.6975 C   0  0  0  0  0  0
  -29.5230  -19.8766   20.5143 C   0  0  0  0  0  0
  -29.1689  -18.4522   20.5171 C   0  0  0  0  0  0
  -30.1544  -17.3687   20.6044 C   0  0  0  0  0  0
  -28.3914  -23.7366   20.4222 C   0  0  0  0  0  0
  -27.6949  -18.1003   20.4226 C   0  0  0  0  0  0
  -29.3575  -22.4115   18.5742 C   0  0  0  0  0  0
  -28.4922  -21.1062   20.5292 C   0  0  0  0  0  0
  -28.4882  -25.0876   19.5491 C   0  0  0  0  0  0
  -29.8338  -15.9040   20.6425 N   0  0  0  0  0  0
  -28.7894  -22.4891   19.9226 N   0  0  0  0  0  0
  -27.9068  -23.8293   21.5545 O   0  0  0  0  0  0
  -31.4706  -12.5904   19.1699 H   0  0  0  0  0  0
  -30.3790  -11.4926   19.9669 H   0  0  0  0  0  0
  -29.7894  -11.7321   17.5300 H   0  0  0  0  0  0
  -29.6316  -13.4627   17.7206 H   0  0  0  0  0  0
  -27.8938  -11.2854   18.9235 H   0  0  0  0  0  0
  -27.3765  -12.5212   17.8060 H   0  0  0  0  0  0
  -27.6268  -14.2562   19.4665 H   0  0  0  0  0  0
  -28.7204  -12.1896   21.4383 H   0  0  0  0  0  0
  -28.4174  -13.8737   21.7899 H   0  0  0  0  0  0
  -25.2737   -9.5682   22.4774 H   0  0  0  0  0  0
  -23.9977   -7.4634   22.7481 H   0  0  0  0  0  0
  -21.0833   -8.8765   19.8958 H   0  0  0  0  0  0
  -22.3679  -10.9663   19.6175 H   0  0  0  0  0  0
  -21.2004   -7.6133   23.9688 H   0  0  0  0  0  0
  -21.1495   -6.0522   25.9064 H   0  0  0  0  0  0
  -22.0600   -2.7590   23.2859 H   0  0  0  0  0  0
  -22.4052  -11.9842   22.4818 H   0  0  0  0  0  0
  -21.1061  -13.1206   22.2669 H   0  0  0  0  0  0
  -24.6320  -15.8351   20.4874 H   0  0  0  0  0  0
  -26.2280  -15.6122   19.9879 H   0  0  0  0  0  0
  -26.7172  -32.5392   23.1057 H   0  0  0  0  0  0
  -25.0019  -33.9706   25.0347 H   0  0  0  0  0  0
  -22.7232  -31.2940   21.3814 H   0  0  0  0  0  0
  -23.3764  -35.9600   23.3280 H   0  0  0  0  0  0
  -24.3586  -36.8959   22.2065 H   0  0  0  0  0  0
  -23.7248  -37.6473   23.6704 H   0  0  0  0  0  0
  -26.1073  -31.5305   20.6017 H   0  0  0  0  0  0
  -26.8538  -30.8233   22.0026 H   0  0  0  0  0  0
  -28.1138  -28.9379   21.2068 H   0  0  0  0  0  0
  -25.9568  -25.8730   19.0545 H   0  0  0  0  0  0
  -23.9797  -27.2877   19.0186 H   0  0  0  0  0  0
  -23.7622  -30.5768   19.3946 H   0  0  0  0  0  0
  -22.7687  -29.2274   19.8527 H   0  0  0  0  0  0
  -25.1286  -36.1909   25.0813 H   0  0  0  0  0  0
  -20.9983  -28.3267   24.1402 H   0  0  0  0  0  0
  -20.5679  -26.2274   23.3630 H   0  0  0  0  0  0
  -21.6634  -26.7399   22.1198 H   0  0  0  0  0  0
  -19.6932  -25.6281   21.1252 H   0  0  0  0  0  0
  -19.6726  -27.3170   20.6760 H   0  0  0  0  0  0
  -17.4197  -26.6697   21.4012 H   0  0  0  0  0  0
  -18.0291  -26.0056   22.9007 H   0  0  0  0  0  0
  -19.7962  -30.7235   24.2276 H   0  0  0  0  0  0
  -17.5037  -31.6265   24.5138 H   0  0  0  0  0  0
  -15.5365  -30.2972   23.7657 H   0  0  0  0  0  0
  -15.8687  -28.0812   22.7079 H   0  0  0  0  0  0
  -24.5895  -30.7088   25.7751 H   0  0  0  0  0  0
  -24.8865  -32.2930   26.4803 H   0  0  0  0  0  0
  -25.8000  -30.8978   27.0239 H   0  0  0  0  0  0
  -26.2933  -29.6741   24.1233 H   0  0  0  0  0  0
  -27.4042  -29.7286   25.4731 H   0  0  0  0  0  0
  -27.8801  -30.4280   23.9428 H   0  0  0  0  0  0
  -27.2658  -33.3692   26.1991 H   0  0  0  0  0  0
  -28.3888  -32.6881   25.0347 H   0  0  0  0  0  0
  -28.0649  -31.8533   26.5471 H   0  0  0  0  0  0
  -28.2535  -38.0121   24.7517 H   0  0  0  0  0  0
  -28.1145  -36.2650   24.6242 H   0  0  0  0  0  0
  -27.2293  -37.1355   25.8846 H   0  0  0  0  0  0
  -20.9389  -29.8752   21.6877 H   0  0  0  0  0  0
  -26.0176  -38.2831   24.1456 H   0  0  0  0  0  0
  -32.9062  -19.4248   20.7645 H   0  0  0  0  0  0
  -31.2180  -21.2113   20.6199 H   0  0  0  0  0  0
  -32.3078  -17.0834   20.7936 H   0  0  0  0  0  0
  -27.1571  -18.4575   21.3008 H   0  0  0  0  0  0
  -27.5250  -17.0304   20.3385 H   0  0  0  0  0  0
  -27.2549  -18.5637   19.5391 H   0  0  0  0  0  0
  -28.7703  -22.9789   17.8520 H   0  0  0  0  0  0
  -29.3881  -21.3881   18.2026 H   0  0  0  0  0  0
  -30.3778  -22.7939   18.5676 H   0  0  0  0  0  0
  -28.2176  -21.2498   21.5752 H   0  0  0  0  0  0
  -27.5719  -20.7774   20.0474 H   0  0  0  0  0  0
  -27.8397  -25.0113   18.6786 H   0  0  0  0  0  0
  -29.4945  -25.1007   19.1294 H   0  0  0  0  0  0
  -28.8591  -15.6920   20.7827 H   0  0  0  0  0  0
  1 25  1  0  0  0
  1 30  2  0  0  0
  1 82  1  0  0  0
  2  3  1  0  0  0
  2 25  1  0  0  0
  2 85  1  0  0  0
  2 86  1  0  0  0
  3  4  1  0  0  0
  3 87  1  0  0  0
  3 88  1  0  0  0
  4  5  1  0  0  0
  4 89  1  0  0  0
  4 90  1  0  0  0
  5  6  1  0  0  0
  5 26  1  0  0  0
  5 91  1  0  0  0
  6 25  1  0  0  0
  6 92  1  0  0  0
  6 93  1  0  0  0
  7  8  2  0  0  0
  7 26  1  0  0  0
  7 29  1  0  0  0
  8  9  1  0  0  0
  8 22  1  0  0  0
  9 10  1  0  0  0
  9 27  2  0  0  0
 10 11  2  0  0  0
 10 15  1  0  0  0
 11 12  1  0  0  0
 11 94  1  0  0  0
 12 13  2  0  0  0
 12 95  1  0  0  0
 13 14  1  0  0  0
 13 31  1  0  0  0
 14 15  2  0  0  0
 14 96  1  0  0  0
 15 97  1  0  0  0
 16 17  2  0  0  0
 16 21  1  0  0  0
 16 31  1  0  0  0
 17 18  1  0  0  0
 17 98  1  0  0  0
 18 19  2  0  0  0
 18 99  1  0  0  0
 19 20  1  0  0  0
 19 24  1  0  0  0
 20 21  2  0  0  0
 20100  1  0  0  0
 21 23  1  0  0  0
 22 28  1  0  0  0
 22 32  2  0  0  0
 26 27  1  0  0  0
 28101  1  0  0  0
 28102  1  0  0  0
 29103  1  0  0  0
 29104  1  0  0  0
 33 34  1  0  0  0
 33 66  1  0  0  0
 33 70  2  0  0  0
 34 36  1  0  0  0
 34 59  1  0  0  0
 34105  1  0  0  0
 35 44  2  0  0  0
 35 45  1  0  0  0
 35 68  1  0  0  0
 36 56  1  0  0  0
 36106  1  0  0  0
 37 39  1  0  0  0
 37 47  1  0  0  0
 37 66  1  0  0  0
 37107  1  0  0  0
 38 43  2  0  0  0
 38 46  1  0  0  0
 38 47  1  0  0  0
 39 64  1  0  0  0
 39 67  2  0  0  0
 40 52  1  0  0  0
 40 53  2  0  0  0
 40 58  1  0  0  0
 41108  1  0  0  0
 41109  1  0  0  0
 41110  1  0  0  0
 41 48  1  0  0  0
 42 43  1  0  0  0
 42 66  1  0  0  0
 42111  1  0  0  0
 42112  1  0  0  0
 43 44  1  0  0  0
 44113  1  0  0  0
 45 46  2  0  0  0
 45114  1  0  0  0
 46115  1  0  0  0
 47116  1  0  0  0
 47117  1  0  0  0
 48 56  1  0  0  0
 48 65  1  0  0  0
 48118  1  0  0  0
 49 50  1  0  0  0
 49 53  1  0  0  0
 49 64  1  0  0  0
 49119  1  0  0  0
 50 51  1  0  0  0
 50120  1  0  0  0
 50121  1  0  0  0
 51 52  1  0  0  0
 51122  1  0  0  0
 51123  1  0  0  0
 52124  1  0  0  0
 52125  1  0  0  0
 53 54  1  0  0  0
 54 55  2  0  0  0
 54126  1  0  0  0
 55 57  1  0  0  0
 55127  1  0  0  0
 56 69  2  0  0  0
 57 58  2  0  0  0
 57128  1  0  0  0
 58129  1  0  0  0
 59 60  1  0  0  0
 59 61  1  0  0  0
 59 62  1  0  0  0
 60130  1  0  0  0
 60131  1  0  0  0
 60132  1  0  0  0
 61133  1  0  0  0
 61134  1  0  0  0
 61135  1  0  0  0
 62136  1  0  0  0
 62137  1  0  0  0
 62138  1  0  0  0
 63 65  1  0  0  0
 63139  1  0  0  0
 63140  1  0  0  0
 63141  1  0  0  0
 64142  1  0  0  0
 65143  1  0  0  0
 68 81  1  0  0  0
 71 72  2  0  0  0
 71 73  1  0  0  0
 71144  1  0  0  0
 72 74  1  0  0  0
 72145  1  0  0  0
 73 76  2  0  0  0
 73146  1  0  0  0
 74 75  2  0  0  0
 74 80  1  0  0  0
 75 76  1  0  0  0
 75 78  1  0  0  0
 76 82  1  0  0  0
 77 81  1  0  0  0
 77 83  1  0  0  0
 77 84  2  0  0  0
 78147  1  0  0  0
 78148  1  0  0  0
 78149  1  0  0  0
 79 83  1  0  0  0
 79150  1  0  0  0
 79151  1  0  0  0
 79152  1  0  0  0
 80 83  1  0  0  0
 80153  1  0  0  0
 80154  1  0  0  0
 81155  1  0  0  0
 81156  1  0  0  0
 82157  1  0  0  0
M  ISO  4   1 100  68 101  81 101  82 100
M  END
> <chiral flag>
0

> <version>
0

> <s_m_source_file>
/data/baiqing/PycharmProjects/Reinvent-master-3.2/result/LINK_invent/BTK/process_docking_weight1_custom_product_contain_oxygen_bond_distance_aromatic_linkinvent_7_9_3/rearranged_h_0043.sdf

> <i_m_source_file_index>
45

> <r_mmod_Potential_Energy-OPLS-2005>
166.229125976562

> <r_mmod_Stretch_Energy-OPLS-2005>
137.783172607422

> <r_mmod_Bend_Energy-OPLS-2005>
173.685760498047

> <r_mmod_Torsional_Energy-OPLS-2005>
218.779922485352

> <r_mmod_Improper_Torsional_Energy-OPLS-2005>
6.16112995147705

> <r_mmod_Van_der_Waal_Energy-OPLS-2005>
143.210311889648

> <r_mmod_Electrostatic_Energy-OPLS-2005>
-358.742309570312

> <r_mmod_Solvation_Energy-OPLS-2005>
-240.029907226562

> <b_mmod_Minimization_Converged-OPLS-2005>
0

> <r_mmod_RMS_Derivative-OPLS-2005>
2.69757056236267

$$$$
45
                    3D
 Structure written by MMmdl.
161170  0  0  1  0            999 V2000
  -30.5211  -14.7823   20.4396 C   0  0  0  0  0  0
  -30.4507  -12.4712   19.4949 C   0  0  0  0  0  0
  -29.5412  -12.5394   18.2571 C   0  0  0  0  0  0
  -28.0611  -12.3504   18.6404 C   0  0  0  0  0  0
  -27.6465  -13.2223   19.8575 C   0  0  2  0  0  0
  -28.6820  -13.1267   20.9986 C   0  0  0  0  0  0
  -25.2487  -13.8161   20.5552 C   0  0  0  0  0  0
  -24.1832  -13.0461   20.9131 C   0  0  0  0  0  0
  -24.6396  -11.6894   20.8777 C   0  0  0  0  0  0
  -23.9077  -10.4304   21.0424 C   0  0  0  0  0  0
  -24.3627   -9.4200   21.9184 C   0  0  0  0  0  0
  -23.6295   -8.2248   22.0788 C   0  0  0  0  0  0
  -22.4266   -8.0304   21.3573 C   0  0  0  0  0  0
  -21.9900   -9.0273   20.4640 C   0  0  0  0  0  0
  -22.7267  -10.2117   20.3052 C   0  0  0  0  0  0
  -21.6854   -6.0725   22.5308 C   0  0  0  0  0  0
  -21.4018   -6.5623   23.8245 C   0  0  0  0  0  0
  -21.3663   -5.6762   24.9197 C   0  0  0  0  0  0
  -21.6072   -4.3026   24.7219 C   0  0  0  0  0  0
  -21.8828   -3.8139   23.4325 C   0  0  0  0  0  0
  -21.9171   -4.6960   22.3385 C   0  0  0  0  0  0
  -22.7806  -13.5180   21.1785 C   0  0  0  0  0  0
  -22.1638   -4.2147   21.0949 F   0  0  0  0  0  0
  -21.5671   -3.4522   25.7717 F   0  0  0  0  0  0
  -29.9850  -13.5128   20.4431 N   0  0  0  0  0  0
  -26.2933  -12.9356   20.3185 N   0  0  0  0  0  0
  -25.9295  -11.6497   20.5676 N   0  0  0  0  0  0
  -22.0407  -12.8318   22.0369 N   0  0  0  0  0  0
  -25.4152  -15.1963   20.3944 N   0  0  0  0  0  0
  -31.6763  -14.9467   20.0345 O   0  0  0  0  0  0
  -21.6674   -6.8870   21.4258 O   0  0  0  0  0  0
  -22.3483  -14.5449   20.6487 O   0  0  0  0  0  0
  -24.6464  -31.8400   23.1867 C   0  0  0  0  0  0
  -25.9195  -32.4708   23.8266 C   0  0  1  0  0  0
  -27.2337  -27.1767   20.1049 C   0  0  0  0  0  0
  -25.5967  -33.8525   24.2235 N   0  0  0  0  0  0
  -23.4404  -30.4718   21.5295 C   0  0  2  0  0  0
  -24.8892  -28.9068   20.0911 C   0  0  0  0  0  0
  -22.7537  -29.4576   22.4761 C   0  0  0  0  0  0
  -18.0277  -28.1469   22.8439 C   0  0  0  0  0  0
  -24.1449  -36.7311   23.2636 C   0  0  0  0  0  0
  -25.9895  -30.7246   21.3734 C   0  0  0  0  0  0
  -26.0596  -29.3390   20.7217 C   0  0  0  0  0  0
  -27.2199  -28.4865   20.7290 C   0  0  0  0  0  0
  -26.0342  -26.8387   19.4304 C   0  0  0  0  0  0
  -24.8925  -27.6714   19.4280 C   0  0  0  0  0  0
  -23.6642  -29.8083   20.1433 C   0  0  0  0  0  0
  -25.4046  -36.3076   24.0359 C   0  0  1  0  0  0
  -20.5894  -28.3772   23.1232 C   0  0  2  0  0  0
  -20.6757  -26.9475   22.5411 C   0  0  0  0  0  0
  -19.5742  -26.6410   21.5210 C   0  0  0  0  0  0
  -18.1913  -26.7976   22.1611 C   0  0  0  0  0  0
  -19.1547  -28.8922   23.2832 C   0  0  0  0  0  0
  -18.9489  -30.1503   23.8898 C   0  0  0  0  0  0
  -17.6502  -30.6660   24.0588 C   0  0  0  0  0  0
  -25.9025  -34.9445   23.5080 C   0  0  0  0  0  0
  -16.5375  -29.9212   23.6323 C   0  0  0  0  0  0
  -16.7267  -28.6632   23.0314 C   0  0  0  0  0  0
  -26.4497  -31.6593   25.0726 C   0  0  0  0  0  0
  -25.3720  -31.3746   26.1467 C   0  0  0  0  0  0
  -27.0316  -30.3014   24.6243 C   0  0  0  0  0  0
  -27.6088  -32.4309   25.7514 C   0  0  0  0  0  0
  -27.5508  -37.1807   24.8453 C   0  0  0  0  0  0
  -21.4205  -29.3118   22.3586 N   0  0  0  0  0  0
  -26.4177  -37.3828   23.9450 N   0  0  0  0  0  0
  -24.7123  -31.0329   22.0868 N   0  0  0  0  0  0
  -23.4181  -28.8065   23.2858 O   0  0  0  0  0  0
  -28.3369  -26.2556   20.1816 O   0  0  0  0  0  0
  -26.5627  -34.8960   22.4687 O   0  0  0  0  0  0
  -23.5629  -32.1269   23.7149 O   0  0  0  0  0  0
  -32.0705  -18.6020   22.8549 C   0  0  0  0  0  0
  -31.4211  -17.9506   21.8108 C   0  0  0  0  0  0
  -31.6541  -19.8822   23.2212 C   0  0  0  0  0  0
  -30.2888  -18.4912   21.1521 C   0  0  0  0  0  0
  -29.9690  -19.9373   21.3781 C   0  0  0  0  0  0
  -30.6857  -20.5620   22.4517 C   0  0  0  0  0  0
  -28.3564  -23.4968   20.4634 C   0  0  0  0  0  0
  -30.6550  -23.6049   18.7102 C   0  0  0  0  0  0
  -29.6332  -24.7781   18.5309 C   0  0  0  0  0  0
  -29.8531  -22.2902   18.9068 C   0  0  0  0  0  0
  -28.4317  -24.8479   19.5426 C   0  0  2  0  0  0
  -28.8164  -20.8659   20.7345 C   0  0  0  0  0  0
  -29.5762  -17.3573   20.3037 C   0  0  0  0  0  0
  -29.0366  -22.3007   20.1377 N   0  0  0  0  0  0
  -29.6644  -15.8520   20.6985 N   0  0  0  0  0  0
  -27.5887  -23.5360   21.4303 O   0  0  0  0  0  0
  -30.3731  -22.1885   22.9451 Cl  0  0  0  0  0  0
  -31.4920  -12.6181   19.1980 H   0  0  0  0  0  0
  -30.4108  -11.4827   19.9469 H   0  0  0  0  0  0
  -29.8417  -11.8043   17.5108 H   0  0  0  0  0  0
  -29.6880  -13.5185   17.7985 H   0  0  0  0  0  0
  -27.9156  -11.2950   18.8698 H   0  0  0  0  0  0
  -27.4312  -12.5762   17.7792 H   0  0  0  0  0  0
  -27.6470  -14.2503   19.4974 H   0  0  0  0  0  0
  -28.7360  -12.1065   21.3853 H   0  0  0  0  0  0
  -28.3975  -13.7607   21.8376 H   0  0  0  0  0  0
  -25.2789   -9.5726   22.4703 H   0  0  0  0  0  0
  -24.0002   -7.4704   22.7563 H   0  0  0  0  0  0
  -21.0814   -8.8844   19.8945 H   0  0  0  0  0  0
  -22.3779  -10.9680   19.6171 H   0  0  0  0  0  0
  -21.2006   -7.6146   23.9724 H   0  0  0  0  0  0
  -21.1493   -6.0512   25.9102 H   0  0  0  0  0  0
  -22.0561   -2.7598   23.2858 H   0  0  0  0  0  0
  -22.3875  -12.0012   22.4959 H   0  0  0  0  0  0
  -21.1034  -13.1493   22.2351 H   0  0  0  0  0  0
  -24.6400  -15.8430   20.4957 H   0  0  0  0  0  0
  -26.2322  -15.6480   20.0111 H   0  0  0  0  0  0
  -26.7259  -32.5317   23.0989 H   0  0  0  0  0  0
  -25.0038  -33.9684   25.0341 H   0  0  0  0  0  0
  -22.7447  -31.3018   21.3854 H   0  0  0  0  0  0
  -23.3711  -35.9650   23.3288 H   0  0  0  0  0  0
  -24.3453  -36.8948   22.2028 H   0  0  0  0  0  0
  -23.7237  -37.6532   23.6664 H   0  0  0  0  0  0
  -26.1218  -31.4685   20.5859 H   0  0  0  0  0  0
  -26.8695  -30.7941   21.9980 H   0  0  0  0  0  0
  -28.0979  -28.8161   21.2608 H   0  0  0  0  0  0
  -25.9214  -25.9049   18.9027 H   0  0  0  0  0  0
  -24.0055  -27.3540   18.8979 H   0  0  0  0  0  0
  -23.8105  -30.5954   19.4038 H   0  0  0  0  0  0
  -22.7757  -29.2673   19.8132 H   0  0  0  0  0  0
  -25.1226  -36.1833   25.0859 H   0  0  0  0  0  0
  -20.9983  -28.3379   24.1361 H   0  0  0  0  0  0
  -20.5608  -26.2402   23.3627 H   0  0  0  0  0  0
  -21.6617  -26.7452   22.1231 H   0  0  0  0  0  0
  -19.6899  -25.6310   21.1278 H   0  0  0  0  0  0
  -19.6719  -27.3190   20.6718 H   0  0  0  0  0  0
  -17.4156  -26.6689   21.4053 H   0  0  0  0  0  0
  -18.0369  -26.0181   22.9083 H   0  0  0  0  0  0
  -19.7984  -30.7286   24.2296 H   0  0  0  0  0  0
  -17.5102  -31.6328   24.5232 H   0  0  0  0  0  0
  -15.5408  -30.3163   23.7671 H   0  0  0  0  0  0
  -15.8621  -28.1000   22.7030 H   0  0  0  0  0  0
  -24.6051  -30.6895   25.7834 H   0  0  0  0  0  0
  -24.8733  -32.2885   26.4714 H   0  0  0  0  0  0
  -25.8095  -30.9122   27.0331 H   0  0  0  0  0  0
  -26.2881  -29.6794   24.1261 H   0  0  0  0  0  0
  -27.3951  -29.7265   25.4757 H   0  0  0  0  0  0
  -27.8786  -30.4277   23.9504 H   0  0  0  0  0  0
  -27.2787  -33.3716   26.1939 H   0  0  0  0  0  0
  -28.4006  -32.6645   25.0387 H   0  0  0  0  0  0
  -28.0614  -31.8461   26.5544 H   0  0  0  0  0  0
  -28.2549  -38.0085   24.7475 H   0  0  0  0  0  0
  -28.1004  -36.2628   24.6284 H   0  0  0  0  0  0
  -27.2236  -37.1440   25.8865 H   0  0  0  0  0  0
  -20.9375  -29.8999   21.6934 H   0  0  0  0  0  0
  -26.0040  -38.2883   24.1565 H   0  0  0  0  0  0
  -32.8659  -18.0948   23.3842 H   0  0  0  0  0  0
  -31.7792  -16.9556   21.5786 H   0  0  0  0  0  0
  -32.0978  -20.3535   24.0862 H   0  0  0  0  0  0
  -31.3478  -23.7880   19.5460 H   0  0  0  0  0  0
  -31.3027  -23.5103   17.8194 H   0  0  0  0  0  0
  -29.2212  -24.6935   17.5137 H   0  0  0  0  0  0
  -30.1636  -25.7302   18.5545 H   0  0  0  0  0  0
  -30.5156  -21.4198   18.8602 H   0  0  0  0  0  0
  -29.1754  -22.1590   18.0531 H   0  0  0  0  0  0
  -27.5432  -24.7182   18.9259 H   0  0  0  0  0  0
  -28.1111  -20.9995   21.5612 H   0  0  0  0  0  0
  -28.2572  -20.2712   20.0132 H   0  0  0  0  0  0
  -29.8311  -17.4871   19.2489 H   0  0  0  0  0  0
  -28.5197  -17.6045   20.3561 H   0  0  0  0  0  0
  -28.8009  -15.5332   21.1112 H   0  0  0  0  0  0
  1 25  1  0  0  0
  1 30  2  0  0  0
  1 85  1  0  0  0
  2  3  1  0  0  0
  2 25  1  0  0  0
  2 88  1  0  0  0
  2 89  1  0  0  0
  3  4  1  0  0  0
  3 90  1  0  0  0
  3 91  1  0  0  0
  4  5  1  0  0  0
  4 92  1  0  0  0
  4 93  1  0  0  0
  5  6  1  0  0  0
  5 26  1  0  0  0
  5 94  1  0  0  0
  6 25  1  0  0  0
  6 95  1  0  0  0
  6 96  1  0  0  0
  7  8  2  0  0  0
  7 26  1  0  0  0
  7 29  1  0  0  0
  8  9  1  0  0  0
  8 22  1  0  0  0
  9 10  1  0  0  0
  9 27  2  0  0  0
 10 11  2  0  0  0
 10 15  1  0  0  0
 11 12  1  0  0  0
 11 97  1  0  0  0
 12 13  2  0  0  0
 12 98  1  0  0  0
 13 14  1  0  0  0
 13 31  1  0  0  0
 14 15  2  0  0  0
 14 99  1  0  0  0
 15100  1  0  0  0
 16 17  2  0  0  0
 16 21  1  0  0  0
 16 31  1  0  0  0
 17 18  1  0  0  0
 17101  1  0  0  0
 18 19  2  0  0  0
 18102  1  0  0  0
 19 20  1  0  0  0
 19 24  1  0  0  0
 20 21  2  0  0  0
 20103  1  0  0  0
 21 23  1  0  0  0
 22 28  1  0  0  0
 22 32  2  0  0  0
 26 27  1  0  0  0
 28104  1  0  0  0
 28105  1  0  0  0
 29106  1  0  0  0
 29107  1  0  0  0
 33 34  1  0  0  0
 33 66  1  0  0  0
 33 70  2  0  0  0
 34 36  1  0  0  0
 34 59  1  0  0  0
 34108  1  0  0  0
 35 44  2  0  0  0
 35 45  1  0  0  0
 35 68  1  0  0  0
 36 56  1  0  0  0
 36109  1  0  0  0
 37 39  1  0  0  0
 37 47  1  0  0  0
 37 66  1  0  0  0
 37110  1  0  0  0
 38 43  2  0  0  0
 38 46  1  0  0  0
 38 47  1  0  0  0
 39 64  1  0  0  0
 39 67  2  0  0  0
 40 52  1  0  0  0
 40 53  2  0  0  0
 40 58  1  0  0  0
 41111  1  0  0  0
 41112  1  0  0  0
 41113  1  0  0  0
 41 48  1  0  0  0
 42 43  1  0  0  0
 42 66  1  0  0  0
 42114  1  0  0  0
 42115  1  0  0  0
 43 44  1  0  0  0
 44116  1  0  0  0
 45 46  2  0  0  0
 45117  1  0  0  0
 46118  1  0  0  0
 47119  1  0  0  0
 47120  1  0  0  0
 48 56  1  0  0  0
 48 65  1  0  0  0
 48121  1  0  0  0
 49 50  1  0  0  0
 49 53  1  0  0  0
 49 64  1  0  0  0
 49122  1  0  0  0
 50 51  1  0  0  0
 50123  1  0  0  0
 50124  1  0  0  0
 51 52  1  0  0  0
 51125  1  0  0  0
 51126  1  0  0  0
 52127  1  0  0  0
 52128  1  0  0  0
 53 54  1  0  0  0
 54 55  2  0  0  0
 54129  1  0  0  0
 55 57  1  0  0  0
 55130  1  0  0  0
 56 69  2  0  0  0
 57 58  2  0  0  0
 57131  1  0  0  0
 58132  1  0  0  0
 59 60  1  0  0  0
 59 61  1  0  0  0
 59 62  1  0  0  0
 60133  1  0  0  0
 60134  1  0  0  0
 60135  1  0  0  0
 61136  1  0  0  0
 61137  1  0  0  0
 61138  1  0  0  0
 62139  1  0  0  0
 62140  1  0  0  0
 62141  1  0  0  0
 63 65  1  0  0  0
 63142  1  0  0  0
 63143  1  0  0  0
 63144  1  0  0  0
 64145  1  0  0  0
 65146  1  0  0  0
 68 81  1  0  0  0
 71 72  2  0  0  0
 71 73  1  0  0  0
 71147  1  0  0  0
 72 74  1  0  0  0
 72148  1  0  0  0
 73 76  2  0  0  0
 73149  1  0  0  0
 74 75  2  0  0  0
 74 83  1  0  0  0
 75 76  1  0  0  0
 75 82  1  0  0  0
 76 87  1  0  0  0
 77 81  1  0  0  0
 77 84  1  0  0  0
 77 86  2  0  0  0
 78 79  1  0  0  0
 78 80  1  0  0  0
 78150  1  0  0  0
 78151  1  0  0  0
 79 81  1  0  0  0
 79152  1  0  0  0
 79153  1  0  0  0
 80 84  1  0  0  0
 80154  1  0  0  0
 80155  1  0  0  0
 81156  1  0  0  0
 82 84  1  0  0  0
 82157  1  0  0  0
 82158  1  0  0  0
 83 85  1  0  0  0
 83159  1  0  0  0
 83160  1  0  0  0
 85161  1  0  0  0
M  ISO  4   1 100  68 101  81 101  85 100
M  END
> <chiral flag>
0

> <version>
0

> <s_m_source_file>
/data/baiqing/PycharmProjects/Reinvent-master-3.2/result/LINK_invent/BTK/process_docking_weight1_custom_product_contain_oxygen_bond_distance_aromatic_linkinvent_7_9_3/rearranged_h_0043.sdf

> <i_m_source_file_index>
46

> <r_mmod_Potential_Energy-OPLS-2005>
380.47705078125

> <r_mmod_Stretch_Energy-OPLS-2005>
206.120040893555

> <r_mmod_Bend_Energy-OPLS-2005>
256.751800537109

> <r_mmod_Torsional_Energy-OPLS-2005>
242.59049987793

> <r_mmod_Improper_Torsional_Energy-OPLS-2005>
7.92235708236694

> <r_mmod_Van_der_Waal_Energy-OPLS-2005>
144.577850341797

> <r_mmod_Electrostatic_Energy-OPLS-2005>
-357.513946533203

> <r_mmod_Solvation_Energy-OPLS-2005>
-242.363906860352

> <b_mmod_Minimization_Converged-OPLS-2005>
0

> <r_mmod_RMS_Derivative-OPLS-2005>
13.2182521820068

$$$$
46
                    3D
 Structure written by MMmdl.
159167  0  0  1  0            999 V2000
  -30.6567  -14.5892   20.5205 C   0  0  0  0  0  0
  -30.4414  -12.3703   19.4436 C   0  0  0  0  0  0
  -29.5098  -12.5186   18.2201 C   0  0  0  0  0  0
  -28.0348  -12.3490   18.6337 C   0  0  0  0  0  0
  -27.6623  -13.2019   19.8745 C   0  0  2  0  0  0
  -28.7083  -13.0385   21.0004 C   0  0  0  0  0  0
  -25.2601  -13.8107   20.5693 C   0  0  0  0  0  0
  -24.1835  -13.0395   20.9146 C   0  0  0  0  0  0
  -24.6391  -11.6867   20.8706 C   0  0  0  0  0  0
  -23.9040  -10.4266   21.0403 C   0  0  0  0  0  0
  -24.3597   -9.4187   21.9178 C   0  0  0  0  0  0
  -23.6274   -8.2221   22.0751 C   0  0  0  0  0  0
  -22.4251   -8.0259   21.3542 C   0  0  0  0  0  0
  -21.9885   -9.0232   20.4647 C   0  0  0  0  0  0
  -22.7216  -10.2110   20.3058 C   0  0  0  0  0  0
  -21.6860   -6.0708   22.5275 C   0  0  0  0  0  0
  -21.4020   -6.5612   23.8205 C   0  0  0  0  0  0
  -21.3654   -5.6771   24.9164 C   0  0  0  0  0  0
  -21.6049   -4.3036   24.7230 C   0  0  0  0  0  0
  -21.8825   -3.8121   23.4349 C   0  0  0  0  0  0
  -21.9190   -4.6930   22.3402 C   0  0  0  0  0  0
  -22.7862  -13.5232   21.1792 C   0  0  0  0  0  0
  -22.1667   -4.2115   21.0980 F   0  0  0  0  0  0
  -21.5624   -3.4527   25.7742 F   0  0  0  0  0  0
  -30.0313  -13.3737   20.4456 N   0  0  0  0  0  0
  -26.3039  -12.9267   20.3374 N   0  0  0  0  0  0
  -25.9324  -11.6433   20.5757 N   0  0  0  0  0  0
  -22.0495  -12.8263   22.0367 N   0  0  0  0  0  0
  -25.4305  -15.1837   20.4132 N   0  0  0  0  0  0
  -31.7894  -14.7682   20.0657 O   0  0  0  0  0  0
  -21.6627   -6.8851   21.4237 O   0  0  0  0  0  0
  -22.3562  -14.5532   20.6613 O   0  0  0  0  0  0
  -24.6230  -31.8611   23.2024 C   0  0  0  0  0  0
  -25.9112  -32.4774   23.8336 C   0  0  1  0  0  0
  -27.2383  -27.3769   20.1157 C   0  0  0  0  0  0
  -25.5930  -33.8575   24.2261 N   0  0  0  0  0  0
  -23.4124  -30.4832   21.5434 C   0  0  2  0  0  0
  -24.8606  -28.9435   20.1083 C   0  0  0  0  0  0
  -22.7446  -29.4635   22.4946 C   0  0  0  0  0  0
  -18.0276  -28.1411   22.8472 C   0  0  0  0  0  0
  -24.1496  -36.7313   23.2632 C   0  0  0  0  0  0
  -25.9454  -30.8100   21.3641 C   0  0  0  0  0  0
  -26.0228  -29.4428   20.7090 C   0  0  0  0  0  0
  -27.2135  -28.6712   20.7016 C   0  0  0  0  0  0
  -26.0601  -26.9186   19.4823 C   0  0  0  0  0  0
  -24.8781  -27.6831   19.4878 C   0  0  0  0  0  0
  -23.6218  -29.8129   20.1584 C   0  0  0  0  0  0
  -25.4114  -36.3073   24.0324 C   0  0  1  0  0  0
  -20.5860  -28.3707   23.1283 C   0  0  2  0  0  0
  -20.6787  -26.9438   22.5400 C   0  0  0  0  0  0
  -19.5763  -26.6388   21.5213 C   0  0  0  0  0  0
  -18.1938  -26.7943   22.1627 C   0  0  0  0  0  0
  -19.1522  -28.8876   23.2872 C   0  0  0  0  0  0
  -18.9446  -30.1477   23.8887 C   0  0  0  0  0  0
  -17.6450  -30.6601   24.0578 C   0  0  0  0  0  0
  -25.9053  -34.9443   23.5083 C   0  0  0  0  0  0
  -16.5343  -29.9099   23.6347 C   0  0  0  0  0  0
  -16.7265  -28.6532   23.0334 C   0  0  0  0  0  0
  -26.4510  -31.6577   25.0698 C   0  0  0  0  0  0
  -25.3774  -31.3714   26.1439 C   0  0  0  0  0  0
  -27.0338  -30.2988   24.6166 C   0  0  0  0  0  0
  -27.6078  -32.4285   25.7486 C   0  0  0  0  0  0
  -27.5580  -37.1792   24.8463 C   0  0  0  0  0  0
  -21.4155  -29.3064   22.3701 N   0  0  0  0  0  0
  -26.4287  -37.3767   23.9405 N   0  0  0  0  0  0
  -24.6786  -31.0664   22.0951 N   0  0  0  0  0  0
  -23.4196  -28.8184   23.3018 O   0  0  0  0  0  0
  -28.3873  -26.5914   20.1954 O   0  0  0  0  0  0
  -26.5613  -34.8923   22.4646 O   0  0  0  0  0  0
  -23.5415  -32.1389   23.7400 O   0  0  0  0  0  0
  -28.5503  -18.1755   18.6342 C   0  0  0  0  0  0
  -28.8873  -16.9516   19.2389 C   0  0  0  0  0  0
  -30.1566  -18.1576   20.9194 C   0  0  0  0  0  0
  -29.0274  -19.4002   19.1396 C   0  0  0  0  0  0
  -29.8487  -19.4190   20.2995 C   0  0  0  0  0  0
  -29.7015  -16.9070   20.3897 C   0  0  0  0  0  0
  -29.8972  -22.1180   20.9804 C   0  0  0  0  0  0
  -28.6679  -20.6572   18.3652 C   0  0  0  0  0  0
  -27.3359  -24.6634   21.3495 C   0  0  0  0  0  0
  -30.5681  -20.7176   20.7894 C   0  0  0  0  0  0
  -29.6967  -24.4800   20.4568 C   0  0  0  0  0  0
  -28.2855  -25.1283   20.2248 C   0  0  2  0  0  0
  -29.8512  -23.0494   20.0853 N   0  0  0  0  0  0
  -29.9313  -15.6245   21.0268 N   0  0  0  0  0  0
  -31.4855  -12.4832   19.1448 H   0  0  0  0  0  0
  -30.3634  -11.3674   19.8644 H   0  0  0  0  0  0
  -29.7723  -11.7845   17.4569 H   0  0  0  0  0  0
  -29.6496  -13.4989   17.7615 H   0  0  0  0  0  0
  -27.8778  -11.2945   18.8559 H   0  0  0  0  0  0
  -27.3786  -12.5865   17.7956 H   0  0  0  0  0  0
  -27.6836  -14.2374   19.5513 H   0  0  0  0  0  0
  -28.7116  -12.0134   21.3728 H   0  0  0  0  0  0
  -28.4559  -13.6637   21.8558 H   0  0  0  0  0  0
  -25.2759   -9.5645   22.4736 H   0  0  0  0  0  0
  -23.9973   -7.4619   22.7490 H   0  0  0  0  0  0
  -21.0803   -8.8749   19.8981 H   0  0  0  0  0  0
  -22.3682  -10.9626   19.6151 H   0  0  0  0  0  0
  -21.2028   -7.6130   23.9700 H   0  0  0  0  0  0
  -21.1475   -6.0504   25.9067 H   0  0  0  0  0  0
  -22.0614   -2.7586   23.2864 H   0  0  0  0  0  0
  -22.4116  -11.9968   22.4828 H   0  0  0  0  0  0
  -21.1107  -13.1312   22.2534 H   0  0  0  0  0  0
  -24.6596  -15.8346   20.5189 H   0  0  0  0  0  0
  -26.2881  -15.6305   20.1156 H   0  0  0  0  0  0
  -26.7200  -32.5460   23.1120 H   0  0  0  0  0  0
  -25.0074  -33.9716   25.0395 H   0  0  0  0  0  0
  -22.7073  -31.3043   21.4021 H   0  0  0  0  0  0
  -23.3735  -35.9667   23.3294 H   0  0  0  0  0  0
  -24.3594  -36.8938   22.2048 H   0  0  0  0  0  0
  -23.7284  -37.6534   23.6654 H   0  0  0  0  0  0
  -26.0650  -31.5727   20.5950 H   0  0  0  0  0  0
  -26.8289  -30.8585   21.9886 H   0  0  0  0  0  0
  -28.1045  -29.0516   21.1779 H   0  0  0  0  0  0
  -26.0339  -25.9497   19.0054 H   0  0  0  0  0  0
  -23.9876  -27.2900   19.0134 H   0  0  0  0  0  0
  -23.7298  -30.5854   19.3953 H   0  0  0  0  0  0
  -22.7474  -29.2289   19.8630 H   0  0  0  0  0  0
  -25.1289  -36.1915   25.0816 H   0  0  0  0  0  0
  -20.9921  -28.3264   24.1413 H   0  0  0  0  0  0
  -20.5698  -26.2318   23.3590 H   0  0  0  0  0  0
  -21.6671  -26.7503   22.1203 H   0  0  0  0  0  0
  -19.6935  -25.6287   21.1270 H   0  0  0  0  0  0
  -19.6702  -27.3193   20.6739 H   0  0  0  0  0  0
  -17.4202  -26.6665   21.4038 H   0  0  0  0  0  0
  -18.0356  -26.0095   22.9041 H   0  0  0  0  0  0
  -19.7917  -30.7309   24.2233 H   0  0  0  0  0  0
  -17.5007  -31.6278   24.5187 H   0  0  0  0  0  0
  -15.5348  -30.3010   23.7681 H   0  0  0  0  0  0
  -15.8662  -28.0864   22.7037 H   0  0  0  0  0  0
  -24.5991  -30.7005   25.7787 H   0  0  0  0  0  0
  -24.8933  -32.2880   26.4811 H   0  0  0  0  0  0
  -25.8130  -30.8960   27.0240 H   0  0  0  0  0  0
  -26.2908  -29.6754   24.1185 H   0  0  0  0  0  0
  -27.4006  -29.7227   25.4677 H   0  0  0  0  0  0
  -27.8797  -30.4238   23.9403 H   0  0  0  0  0  0
  -27.2699  -33.3583   26.2077 H   0  0  0  0  0  0
  -28.3907  -32.6834   25.0328 H   0  0  0  0  0  0
  -28.0736  -31.8404   26.5410 H   0  0  0  0  0  0
  -28.2565  -38.0108   24.7471 H   0  0  0  0  0  0
  -28.1088  -36.2625   24.6304 H   0  0  0  0  0  0
  -27.2291  -37.1472   25.8863 H   0  0  0  0  0  0
  -20.9354  -29.8783   21.6890 H   0  0  0  0  0  0
  -26.0176  -38.2847   24.1385 H   0  0  0  0  0  0
  -27.9273  -18.1718   17.7504 H   0  0  0  0  0  0
  -28.5059  -16.0486   18.7924 H   0  0  0  0  0  0
  -30.7822  -18.1452   21.8012 H   0  0  0  0  0  0
  -29.5859  -22.3066   22.0121 H   0  0  0  0  0  0
  -28.1188  -20.4276   17.4520 H   0  0  0  0  0  0
  -29.5674  -21.2001   18.0746 H   0  0  0  0  0  0
  -28.0337  -21.3139   18.9604 H   0  0  0  0  0  0
  -26.3083  -24.9861   21.2001 H   0  0  0  0  0  0
  -27.6570  -25.0460   22.3200 H   0  0  0  0  0  0
  -27.3080  -23.5755   21.4083 H   0  0  0  0  0  0
  -31.4062  -20.8674   20.1106 H   0  0  0  0  0  0
  -31.0449  -20.4783   21.7405 H   0  0  0  0  0  0
  -30.0209  -24.6684   21.4828 H   0  0  0  0  0  0
  -30.4109  -25.0361   19.8468 H   0  0  0  0  0  0
  -27.9172  -24.7848   19.2581 H   0  0  0  0  0  0
  -29.1437  -15.2977   21.5662 H   0  0  0  0  0  0
  1 25  1  0  0  0
  1 30  2  0  0  0
  1 84  1  0  0  0
  2  3  1  0  0  0
  2 25  1  0  0  0
  2 85  1  0  0  0
  2 86  1  0  0  0
  3  4  1  0  0  0
  3 87  1  0  0  0
  3 88  1  0  0  0
  4  5  1  0  0  0
  4 89  1  0  0  0
  4 90  1  0  0  0
  5  6  1  0  0  0
  5 26  1  0  0  0
  5 91  1  0  0  0
  6 25  1  0  0  0
  6 92  1  0  0  0
  6 93  1  0  0  0
  7  8  2  0  0  0
  7 26  1  0  0  0
  7 29  1  0  0  0
  8  9  1  0  0  0
  8 22  1  0  0  0
  9 10  1  0  0  0
  9 27  2  0  0  0
 10 11  2  0  0  0
 10 15  1  0  0  0
 11 12  1  0  0  0
 11 94  1  0  0  0
 12 13  2  0  0  0
 12 95  1  0  0  0
 13 14  1  0  0  0
 13 31  1  0  0  0
 14 15  2  0  0  0
 14 96  1  0  0  0
 15 97  1  0  0  0
 16 17  2  0  0  0
 16 21  1  0  0  0
 16 31  1  0  0  0
 17 18  1  0  0  0
 17 98  1  0  0  0
 18 19  2  0  0  0
 18 99  1  0  0  0
 19 20  1  0  0  0
 19 24  1  0  0  0
 20 21  2  0  0  0
 20100  1  0  0  0
 21 23  1  0  0  0
 22 28  1  0  0  0
 22 32  2  0  0  0
 26 27  1  0  0  0
 28101  1  0  0  0
 28102  1  0  0  0
 29103  1  0  0  0
 29104  1  0  0  0
 33 34  1  0  0  0
 33 66  1  0  0  0
 33 70  2  0  0  0
 34 36  1  0  0  0
 34 59  1  0  0  0
 34105  1  0  0  0
 35 44  2  0  0  0
 35 45  1  0  0  0
 35 68  1  0  0  0
 36 56  1  0  0  0
 36106  1  0  0  0
 37 39  1  0  0  0
 37 47  1  0  0  0
 37 66  1  0  0  0
 37107  1  0  0  0
 38 43  2  0  0  0
 38 46  1  0  0  0
 38 47  1  0  0  0
 39 64  1  0  0  0
 39 67  2  0  0  0
 40 52  1  0  0  0
 40 53  2  0  0  0
 40 58  1  0  0  0
 41108  1  0  0  0
 41109  1  0  0  0
 41110  1  0  0  0
 41 48  1  0  0  0
 42 43  1  0  0  0
 42 66  1  0  0  0
 42111  1  0  0  0
 42112  1  0  0  0
 43 44  1  0  0  0
 44113  1  0  0  0
 45 46  2  0  0  0
 45114  1  0  0  0
 46115  1  0  0  0
 47116  1  0  0  0
 47117  1  0  0  0
 48 56  1  0  0  0
 48 65  1  0  0  0
 48118  1  0  0  0
 49 50  1  0  0  0
 49 53  1  0  0  0
 49 64  1  0  0  0
 49119  1  0  0  0
 50 51  1  0  0  0
 50120  1  0  0  0
 50121  1  0  0  0
 51 52  1  0  0  0
 51122  1  0  0  0
 51123  1  0  0  0
 52124  1  0  0  0
 52125  1  0  0  0
 53 54  1  0  0  0
 54 55  2  0  0  0
 54126  1  0  0  0
 55 57  1  0  0  0
 55127  1  0  0  0
 56 69  2  0  0  0
 57 58  2  0  0  0
 57128  1  0  0  0
 58129  1  0  0  0
 59 60  1  0  0  0
 59 61  1  0  0  0
 59 62  1  0  0  0
 60130  1  0  0  0
 60131  1  0  0  0
 60132  1  0  0  0
 61133  1  0  0  0
 61134  1  0  0  0
 61135  1  0  0  0
 62136  1  0  0  0
 62137  1  0  0  0
 62138  1  0  0  0
 63 65  1  0  0  0
 63139  1  0  0  0
 63140  1  0  0  0
 63141  1  0  0  0
 64142  1  0  0  0
 65143  1  0  0  0
 68 82  1  0  0  0
 71 72  2  0  0  0
 71 74  1  0  0  0
 71144  1  0  0  0
 72 76  1  0  0  0
 72145  1  0  0  0
 73 75  1  0  0  0
 73 76  2  0  0  0
 73146  1  0  0  0
 74 75  2  0  0  0
 74 78  1  0  0  0
 75 80  1  0  0  0
 76 84  1  0  0  0
 77 80  1  0  0  0
 77 83  2  0  0  0
 77147  1  0  0  0
 78148  1  0  0  0
 78149  1  0  0  0
 78150  1  0  0  0
 79151  1  0  0  0
 79152  1  0  0  0
 79153  1  0  0  0
 79 82  1  0  0  0
 80154  1  0  0  0
 80155  1  0  0  0
 81 82  1  0  0  0
 81 83  1  0  0  0
 81156  1  0  0  0
 81157  1  0  0  0
 82158  1  0  0  0
 84159  1  0  0  0
M  ISO  4   1 100  68 101  82 101  84 100
M  END
> <chiral flag>
0

> <version>
0

> <s_m_source_file>
/data/baiqing/PycharmProjects/Reinvent-master-3.2/result/LINK_invent/BTK/process_docking_weight1_custom_product_contain_oxygen_bond_distance_aromatic_linkinvent_7_9_3/rearranged_h_0043.sdf

> <i_m_source_file_index>
47

> <r_mmod_Potential_Energy-OPLS-2005>
76.3230667114258

> <r_mmod_Stretch_Energy-OPLS-2005>
64.2970275878906

> <r_mmod_Bend_Energy-OPLS-2005>
135.924072265625

> <r_mmod_Torsional_Energy-OPLS-2005>
260.403778076172

> <r_mmod_Improper_Torsional_Energy-OPLS-2005>
8.30300045013428

> <r_mmod_Van_der_Waal_Energy-OPLS-2005>
146.186569213867

> <r_mmod_Electrostatic_Energy-OPLS-2005>
-356.983917236328

> <r_mmod_Solvation_Energy-OPLS-2005>
-212.909255981445

> <b_mmod_Minimization_Converged-OPLS-2005>
0

> <r_mmod_RMS_Derivative-OPLS-2005>
3.39253377914429

$$$$
47
                    3D
 Structure written by MMmdl.
163172  0  0  1  0            999 V2000
  -30.5023  -14.9597   20.4552 C   0  0  0  0  0  0
  -30.4649  -12.5982   19.5124 C   0  0  0  0  0  0
  -29.5543  -12.5689   18.2625 C   0  0  0  0  0  0
  -28.0756  -12.3446   18.6528 C   0  0  0  0  0  0
  -27.6470  -13.2442   19.8482 C   0  0  2  0  0  0
  -28.6839  -13.2279   20.9907 C   0  0  0  0  0  0
  -25.2488  -13.8148   20.5488 C   0  0  0  0  0  0
  -24.1837  -13.0424   20.9162 C   0  0  0  0  0  0
  -24.6483  -11.6925   20.8771 C   0  0  0  0  0  0
  -23.9135  -10.4333   21.0456 C   0  0  0  0  0  0
  -24.3688   -9.4232   21.9217 C   0  0  0  0  0  0
  -23.6370   -8.2245   22.0768 C   0  0  0  0  0  0
  -22.4329   -8.0321   21.3542 C   0  0  0  0  0  0
  -22.0001   -9.0299   20.4642 C   0  0  0  0  0  0
  -22.7322  -10.2157   20.3091 C   0  0  0  0  0  0
  -21.6865   -6.0789   22.5307 C   0  0  0  0  0  0
  -21.3972   -6.5656   23.8246 C   0  0  0  0  0  0
  -21.3629   -5.6795   24.9192 C   0  0  0  0  0  0
  -21.6074   -4.3065   24.7213 C   0  0  0  0  0  0
  -21.8812   -3.8169   23.4323 C   0  0  0  0  0  0
  -21.9165   -4.7008   22.3400 C   0  0  0  0  0  0
  -22.7858  -13.5236   21.1771 C   0  0  0  0  0  0
  -22.1684   -4.2226   21.0977 F   0  0  0  0  0  0
  -21.5627   -3.4527   25.7702 F   0  0  0  0  0  0
  -29.9637  -13.6707   20.4201 N   0  0  0  0  0  0
  -26.2977  -12.9393   20.3191 N   0  0  0  0  0  0
  -25.9398  -11.6541   20.5732 N   0  0  0  0  0  0
  -22.0436  -12.8333   22.0333 N   0  0  0  0  0  0
  -25.4005  -15.1815   20.3585 N   0  0  0  0  0  0
  -31.6799  -15.0906   20.1022 O   0  0  0  0  0  0
  -21.6658   -6.8947   21.4281 O   0  0  0  0  0  0
  -22.3602  -14.5537   20.6545 O   0  0  0  0  0  0
  -24.6394  -31.8419   23.1894 C   0  0  0  0  0  0
  -25.9157  -32.4698   23.8318 C   0  0  1  0  0  0
  -27.2434  -27.1499   20.1941 C   0  0  0  0  0  0
  -25.5895  -33.8496   24.2225 N   0  0  0  0  0  0
  -23.4479  -30.4527   21.5348 C   0  0  2  0  0  0
  -24.9054  -28.8661   20.1307 C   0  0  0  0  0  0
  -22.7587  -29.4489   22.4934 C   0  0  0  0  0  0
  -18.0283  -28.1412   22.8497 C   0  0  0  0  0  0
  -24.1464  -36.7268   23.2643 C   0  0  0  0  0  0
  -25.9974  -30.7226   21.3830 C   0  0  0  0  0  0
  -26.0775  -29.3239   20.7481 C   0  0  0  0  0  0
  -27.2508  -28.4874   20.7533 C   0  0  0  0  0  0
  -26.0451  -26.7700   19.5580 C   0  0  0  0  0  0
  -24.9004  -27.6002   19.5166 C   0  0  0  0  0  0
  -23.6823  -29.7678   20.1597 C   0  0  0  0  0  0
  -25.4089  -36.3050   24.0340 C   0  0  1  0  0  0
  -20.5900  -28.3698   23.1298 C   0  0  2  0  0  0
  -20.6760  -26.9412   22.5440 C   0  0  0  0  0  0
  -19.5725  -26.6380   21.5255 C   0  0  0  0  0  0
  -18.1907  -26.7942   22.1658 C   0  0  0  0  0  0
  -19.1547  -28.8883   23.2865 C   0  0  0  0  0  0
  -18.9458  -30.1505   23.8843 C   0  0  0  0  0  0
  -17.6457  -30.6605   24.0556 C   0  0  0  0  0  0
  -25.9057  -34.9428   23.5106 C   0  0  0  0  0  0
  -16.5350  -29.9099   23.6352 C   0  0  0  0  0  0
  -16.7268  -28.6533   23.0344 C   0  0  0  0  0  0
  -26.4493  -31.6529   25.0725 C   0  0  0  0  0  0
  -25.3693  -31.3705   26.1435 C   0  0  0  0  0  0
  -27.0322  -30.2924   24.6225 C   0  0  0  0  0  0
  -27.6039  -32.4281   25.7508 C   0  0  0  0  0  0
  -27.5588  -37.1786   24.8472 C   0  0  0  0  0  0
  -21.4293  -29.3000   22.3685 N   0  0  0  0  0  0
  -26.4248  -37.3789   23.9473 N   0  0  0  0  0  0
  -24.7153  -31.0289   22.0927 N   0  0  0  0  0  0
  -23.4249  -28.8050   23.3085 O   0  0  0  0  0  0
  -28.3509  -26.2380   20.1368 O   0  0  0  0  0  0
  -26.5698  -34.8911   22.4718 O   0  0  0  0  0  0
  -23.5509  -32.1296   23.7094 O   0  0  0  0  0  0
  -30.6139  -19.9107   20.2127 C   0  0  0  0  0  0
  -30.6906  -18.4626   20.2436 C   0  0  0  0  0  0
  -28.3928  -19.8806   20.9892 C   0  0  0  0  0  0
  -28.4782  -18.4071   21.0531 C   0  0  0  0  0  0
  -29.4760  -20.7277   20.5606 C   0  0  0  0  0  0
  -29.6313  -17.6068   20.6675 C   0  0  0  0  0  0
  -30.6258  -22.8575   21.2210 C   0  0  0  0  0  0
  -31.8795  -22.8595   20.7240 C   0  0  0  0  0  0
  -30.2153  -23.7641   22.3642 C   0  0  0  0  0  0
  -29.5872  -25.0485   21.7915 C   0  0  0  0  0  0
  -28.6419  -23.3452   20.0131 C   0  0  0  0  0  0
  -28.4204  -24.8337   20.7888 C   0  0  2  0  0  0
  -27.1135  -20.5803   21.4611 C   0  0  0  0  0  0
  -27.2762  -17.6644   21.6215 C   0  0  0  0  0  0
  -29.5337  -22.2294   20.6394 N   0  0  0  0  0  0
  -29.6487  -16.0616   20.7466 N   0  0  0  0  0  0
  -31.5058  -12.7616   19.2255 H   0  0  0  0  0  0
  -30.4573  -11.6313   20.0205 H   0  0  0  0  0  0
  -29.9021  -11.7911   17.5828 H   0  0  0  0  0  0
  -29.6534  -13.5102   17.7190 H   0  0  0  0  0  0
  -27.9670  -11.2900   18.9101 H   0  0  0  0  0  0
  -27.4288  -12.5122   17.7889 H   0  0  0  0  0  0
  -27.6242  -14.2633   19.4592 H   0  0  0  0  0  0
  -28.7754  -12.2276   21.4202 H   0  0  0  0  0  0
  -28.3706  -13.8828   21.8032 H   0  0  0  0  0  0
  -25.2825   -9.5717   22.4794 H   0  0  0  0  0  0
  -24.0075   -7.4639   22.7481 H   0  0  0  0  0  0
  -21.0925   -8.8818   19.8978 H   0  0  0  0  0  0
  -22.3801  -10.9692   19.6212 H   0  0  0  0  0  0
  -21.1959   -7.6164   23.9773 H   0  0  0  0  0  0
  -21.1472   -6.0518   25.9112 H   0  0  0  0  0  0
  -22.0612   -2.7639   23.2790 H   0  0  0  0  0  0
  -22.3976  -12.0048   22.4894 H   0  0  0  0  0  0
  -21.1057  -13.1486   22.2394 H   0  0  0  0  0  0
  -24.5839  -15.7816   20.3404 H   0  0  0  0  0  0
  -26.1689  -15.5528   19.8136 H   0  0  0  0  0  0
  -26.7237  -32.5321   23.1073 H   0  0  0  0  0  0
  -24.9903  -33.9649   25.0277 H   0  0  0  0  0  0
  -22.7437  -31.2726   21.3729 H   0  0  0  0  0  0
  -23.3764  -35.9567   23.3233 H   0  0  0  0  0  0
  -24.3550  -36.8962   22.2077 H   0  0  0  0  0  0
  -23.7155  -37.6418   23.6694 H   0  0  0  0  0  0
  -26.1265  -31.4594   20.5909 H   0  0  0  0  0  0
  -26.8832  -30.8058   22.0010 H   0  0  0  0  0  0
  -28.1583  -28.8433   21.2225 H   0  0  0  0  0  0
  -25.9906  -25.7976   19.0890 H   0  0  0  0  0  0
  -24.0090  -27.2354   19.0232 H   0  0  0  0  0  0
  -23.8378  -30.5357   19.4017 H   0  0  0  0  0  0
  -22.8027  -29.2067   19.8412 H   0  0  0  0  0  0
  -25.1256  -36.1884   25.0835 H   0  0  0  0  0  0
  -20.9957  -28.3212   24.1433 H   0  0  0  0  0  0
  -20.5660  -26.2296   23.3640 H   0  0  0  0  0  0
  -21.6617  -26.7417   22.1222 H   0  0  0  0  0  0
  -19.6862  -25.6288   21.1281 H   0  0  0  0  0  0
  -19.6642  -27.3206   20.6798 H   0  0  0  0  0  0
  -17.4188  -26.6708   21.4038 H   0  0  0  0  0  0
  -18.0255  -26.0083   22.9052 H   0  0  0  0  0  0
  -19.7933  -30.7357   24.2120 H   0  0  0  0  0  0
  -17.5006  -31.6265   24.5189 H   0  0  0  0  0  0
  -15.5353  -30.2987   23.7694 H   0  0  0  0  0  0
  -15.8670  -28.0872   22.7035 H   0  0  0  0  0  0
  -24.5873  -30.7046   25.7757 H   0  0  0  0  0  0
  -24.8873  -32.2877   26.4829 H   0  0  0  0  0  0
  -25.7983  -30.8897   27.0239 H   0  0  0  0  0  0
  -26.2914  -29.6675   24.1200 H   0  0  0  0  0  0
  -27.3942  -29.7164   25.4756 H   0  0  0  0  0  0
  -27.8828  -30.4181   23.9520 H   0  0  0  0  0  0
  -27.2643  -33.3599   26.2052 H   0  0  0  0  0  0
  -28.3862  -32.6802   25.0337 H   0  0  0  0  0  0
  -28.0685  -31.8412   26.5443 H   0  0  0  0  0  0
  -28.2555  -38.0141   24.7616 H   0  0  0  0  0  0
  -28.1139  -36.2681   24.6153 H   0  0  0  0  0  0
  -27.2348  -37.1285   25.8885 H   0  0  0  0  0  0
  -20.9503  -29.8787   21.6936 H   0  0  0  0  0  0
  -26.0104  -38.2833   24.1563 H   0  0  0  0  0  0
  -31.5250  -20.3885   19.9038 H   0  0  0  0  0  0
  -31.6278  -18.0140   19.9497 H   0  0  0  0  0  0
  -32.6700  -23.4456   21.1744 H   0  0  0  0  0  0
  -32.1528  -22.3278   19.8228 H   0  0  0  0  0  0
  -31.0797  -24.0155   22.9796 H   0  0  0  0  0  0
  -29.5173  -23.2368   23.0202 H   0  0  0  0  0  0
  -30.3815  -25.5831   21.2679 H   0  0  0  0  0  0
  -29.2951  -25.7030   22.6119 H   0  0  0  0  0  0
  -29.1234  -23.5785   19.0610 H   0  0  0  0  0  0
  -27.6788  -22.9229   19.7321 H   0  0  0  0  0  0
  -27.5134  -24.7150   21.3884 H   0  0  0  0  0  0
  -26.6527  -20.0807   22.3134 H   0  0  0  0  0  0
  -26.3830  -20.6212   20.6532 H   0  0  0  0  0  0
  -27.3014  -21.6066   21.7785 H   0  0  0  0  0  0
  -26.3603  -17.9812   21.1224 H   0  0  0  0  0  0
  -27.1827  -17.8772   22.6876 H   0  0  0  0  0  0
  -27.3336  -16.5862   21.5213 H   0  0  0  0  0  0
  -28.7568  -15.6990   21.0540 H   0  0  0  0  0  0
  1 25  1  0  0  0
  1 30  2  0  0  0
  1 86  1  0  0  0
  2  3  1  0  0  0
  2 25  1  0  0  0
  2 87  1  0  0  0
  2 88  1  0  0  0
  3  4  1  0  0  0
  3 89  1  0  0  0
  3 90  1  0  0  0
  4  5  1  0  0  0
  4 91  1  0  0  0
  4 92  1  0  0  0
  5  6  1  0  0  0
  5 26  1  0  0  0
  5 93  1  0  0  0
  6 25  1  0  0  0
  6 94  1  0  0  0
  6 95  1  0  0  0
  7  8  2  0  0  0
  7 26  1  0  0  0
  7 29  1  0  0  0
  8  9  1  0  0  0
  8 22  1  0  0  0
  9 10  1  0  0  0
  9 27  2  0  0  0
 10 11  2  0  0  0
 10 15  1  0  0  0
 11 12  1  0  0  0
 11 96  1  0  0  0
 12 13  2  0  0  0
 12 97  1  0  0  0
 13 14  1  0  0  0
 13 31  1  0  0  0
 14 15  2  0  0  0
 14 98  1  0  0  0
 15 99  1  0  0  0
 16 17  2  0  0  0
 16 21  1  0  0  0
 16 31  1  0  0  0
 17 18  1  0  0  0
 17100  1  0  0  0
 18 19  2  0  0  0
 18101  1  0  0  0
 19 20  1  0  0  0
 19 24  1  0  0  0
 20 21  2  0  0  0
 20102  1  0  0  0
 21 23  1  0  0  0
 22 28  1  0  0  0
 22 32  2  0  0  0
 26 27  1  0  0  0
 28103  1  0  0  0
 28104  1  0  0  0
 29105  1  0  0  0
 29106  1  0  0  0
 33 34  1  0  0  0
 33 66  1  0  0  0
 33 70  2  0  0  0
 34 36  1  0  0  0
 34 59  1  0  0  0
 34107  1  0  0  0
 35 44  2  0  0  0
 35 45  1  0  0  0
 35 68  1  0  0  0
 36 56  1  0  0  0
 36108  1  0  0  0
 37 39  1  0  0  0
 37 47  1  0  0  0
 37 66  1  0  0  0
 37109  1  0  0  0
 38 43  2  0  0  0
 38 46  1  0  0  0
 38 47  1  0  0  0
 39 64  1  0  0  0
 39 67  2  0  0  0
 40 52  1  0  0  0
 40 53  2  0  0  0
 40 58  1  0  0  0
 41110  1  0  0  0
 41111  1  0  0  0
 41112  1  0  0  0
 41 48  1  0  0  0
 42 43  1  0  0  0
 42 66  1  0  0  0
 42113  1  0  0  0
 42114  1  0  0  0
 43 44  1  0  0  0
 44115  1  0  0  0
 45 46  2  0  0  0
 45116  1  0  0  0
 46117  1  0  0  0
 47118  1  0  0  0
 47119  1  0  0  0
 48 56  1  0  0  0
 48 65  1  0  0  0
 48120  1  0  0  0
 49 50  1  0  0  0
 49 53  1  0  0  0
 49 64  1  0  0  0
 49121  1  0  0  0
 50 51  1  0  0  0
 50122  1  0  0  0
 50123  1  0  0  0
 51 52  1  0  0  0
 51124  1  0  0  0
 51125  1  0  0  0
 52126  1  0  0  0
 52127  1  0  0  0
 53 54  1  0  0  0
 54 55  2  0  0  0
 54128  1  0  0  0
 55 57  1  0  0  0
 55129  1  0  0  0
 56 69  2  0  0  0
 57 58  2  0  0  0
 57130  1  0  0  0
 58131  1  0  0  0
 59 60  1  0  0  0
 59 61  1  0  0  0
 59 62  1  0  0  0
 60132  1  0  0  0
 60133  1  0  0  0
 60134  1  0  0  0
 61135  1  0  0  0
 61136  1  0  0  0
 61137  1  0  0  0
 62138  1  0  0  0
 62139  1  0  0  0
 62140  1  0  0  0
 63 65  1  0  0  0
 63141  1  0  0  0
 63142  1  0  0  0
 63143  1  0  0  0
 64144  1  0  0  0
 65145  1  0  0  0
 68 82  1  0  0  0
 71 72  2  0  0  0
 71 75  1  0  0  0
 71146  1  0  0  0
 72 76  1  0  0  0
 72147  1  0  0  0
 73 74  1  0  0  0
 73 75  2  0  0  0
 73 83  1  0  0  0
 74 76  2  0  0  0
 74 84  1  0  0  0
 75 85  1  0  0  0
 76 86  1  0  0  0
 77 78  2  0  0  0
 77 79  1  0  0  0
 77 85  1  0  0  0
 78148  1  0  0  0
 78149  1  0  0  0
 79 80  1  0  0  0
 79150  1  0  0  0
 79151  1  0  0  0
 80 82  1  0  0  0
 80152  1  0  0  0
 80153  1  0  0  0
 81 82  1  0  0  0
 81 85  1  0  0  0
 81154  1  0  0  0
 81155  1  0  0  0
 82156  1  0  0  0
 83157  1  0  0  0
 83158  1  0  0  0
 83159  1  0  0  0
 84160  1  0  0  0
 84161  1  0  0  0
 84162  1  0  0  0
 86163  1  0  0  0
M  ISO  4   1 100  68 101  82 101  86 100
M  END
> <chiral flag>
0

> <version>
0

> <s_m_source_file>
/data/baiqing/PycharmProjects/Reinvent-master-3.2/result/LINK_invent/BTK/process_docking_weight1_custom_product_contain_oxygen_bond_distance_aromatic_linkinvent_7_9_3/rearranged_h_0043.sdf

> <i_m_source_file_index>
48

> <r_mmod_Potential_Energy-OPLS-2005>
536.703308105469

> <r_mmod_Stretch_Energy-OPLS-2005>
241.753829956055

> <r_mmod_Bend_Energy-OPLS-2005>
293.452239990234

> <r_mmod_Torsional_Energy-OPLS-2005>
312.028228759766

> <r_mmod_Improper_Torsional_Energy-OPLS-2005>
7.22006464004517

> <r_mmod_Van_der_Waal_Energy-OPLS-2005>
141.114807128906

> <r_mmod_Electrostatic_Energy-OPLS-2005>
-440.650024414062

> <r_mmod_Solvation_Energy-OPLS-2005>
-201.42936706543

> <b_mmod_Minimization_Converged-OPLS-2005>
0

> <r_mmod_RMS_Derivative-OPLS-2005>
6.47205877304077

$$$$
48
                    3D
 Structure written by MMmdl.
167175  0  0  1  0            999 V2000
  -30.7166  -14.4184   20.6169 C   0  0  0  0  0  0
  -30.4335  -12.2916   19.4118 C   0  0  0  0  0  0
  -29.5006  -12.5223   18.2045 C   0  0  0  0  0  0
  -28.0212  -12.3778   18.6152 C   0  0  0  0  0  0
  -27.6732  -13.2007   19.8854 C   0  0  2  0  0  0
  -28.7097  -12.9362   21.0014 C   0  0  0  0  0  0
  -25.2619  -13.8160   20.5647 C   0  0  0  0  0  0
  -24.1849  -13.0456   20.9150 C   0  0  0  0  0  0
  -24.6388  -11.6917   20.8734 C   0  0  0  0  0  0
  -23.9052  -10.4299   21.0405 C   0  0  0  0  0  0
  -24.3588   -9.4201   21.9170 C   0  0  0  0  0  0
  -23.6257   -8.2245   22.0755 C   0  0  0  0  0  0
  -22.4236   -8.0296   21.3555 C   0  0  0  0  0  0
  -21.9863   -9.0267   20.4650 C   0  0  0  0  0  0
  -22.7221  -10.2139   20.3050 C   0  0  0  0  0  0
  -21.6840   -6.0719   22.5262 C   0  0  0  0  0  0
  -21.4014   -6.5609   23.8203 C   0  0  0  0  0  0
  -21.3655   -5.6764   24.9166 C   0  0  0  0  0  0
  -21.6049   -4.3035   24.7220 C   0  0  0  0  0  0
  -21.8820   -3.8122   23.4342 C   0  0  0  0  0  0
  -21.9188   -4.6942   22.3397 C   0  0  0  0  0  0
  -22.7867  -13.5281   21.1793 C   0  0  0  0  0  0
  -22.1658   -4.2142   21.0983 F   0  0  0  0  0  0
  -21.5635   -3.4516   25.7721 F   0  0  0  0  0  0
  -30.0541  -13.2396   20.4716 N   0  0  0  0  0  0
  -26.3080  -12.9324   20.3375 N   0  0  0  0  0  0
  -25.9313  -11.6499   20.5731 N   0  0  0  0  0  0
  -22.0473  -12.8334   22.0363 N   0  0  0  0  0  0
  -25.4369  -15.1867   20.4045 N   0  0  0  0  0  0
  -31.7754  -14.6763   20.0365 O   0  0  0  0  0  0
  -21.6633   -6.8873   21.4228 O   0  0  0  0  0  0
  -22.3582  -14.5600   20.6659 O   0  0  0  0  0  0
  -24.6158  -31.8705   23.2162 C   0  0  0  0  0  0
  -25.9045  -32.4841   23.8458 C   0  0  1  0  0  0
  -27.2228  -27.4472   20.0562 C   0  0  0  0  0  0
  -25.5911  -33.8644   24.2381 N   0  0  0  0  0  0
  -23.4033  -30.4993   21.5566 C   0  0  2  0  0  0
  -24.8436  -28.9761   20.1173 C   0  0  0  0  0  0
  -22.7411  -29.4679   22.4993 C   0  0  0  0  0  0
  -18.0271  -28.1368   22.8492 C   0  0  0  0  0  0
  -24.1490  -36.7316   23.2637 C   0  0  0  0  0  0
  -25.9368  -30.8302   21.3787 C   0  0  0  0  0  0
  -26.0058  -29.4691   20.7207 C   0  0  0  0  0  0
  -27.1939  -28.7014   20.7084 C   0  0  0  0  0  0
  -26.0356  -26.9778   19.4481 C   0  0  0  0  0  0
  -24.8509  -27.7244   19.4881 C   0  0  0  0  0  0
  -23.6104  -29.8430   20.1690 C   0  0  0  0  0  0
  -25.4107  -36.3123   24.0351 C   0  0  1  0  0  0
  -20.5865  -28.3663   23.1303 C   0  0  2  0  0  0
  -20.6763  -26.9397   22.5405 C   0  0  0  0  0  0
  -19.5742  -26.6381   21.5205 C   0  0  0  0  0  0
  -18.1919  -26.7916   22.1615 C   0  0  0  0  0  0
  -19.1523  -28.8834   23.2893 C   0  0  0  0  0  0
  -18.9448  -30.1437   23.8913 C   0  0  0  0  0  0
  -17.6450  -30.6574   24.0573 C   0  0  0  0  0  0
  -25.9023  -34.9485   23.5155 C   0  0  0  0  0  0
  -16.5339  -29.9079   23.6328 C   0  0  0  0  0  0
  -16.7259  -28.6492   23.0350 C   0  0  0  0  0  0
  -26.4474  -31.6621   25.0778 C   0  0  0  0  0  0
  -25.3751  -31.3730   26.1545 C   0  0  0  0  0  0
  -27.0303  -30.3058   24.6173 C   0  0  0  0  0  0
  -27.6068  -32.4332   25.7508 C   0  0  0  0  0  0
  -27.5579  -37.1817   24.8462 C   0  0  0  0  0  0
  -21.4139  -29.3039   22.3719 N   0  0  0  0  0  0
  -26.4294  -37.3799   23.9402 N   0  0  0  0  0  0
  -24.6696  -31.0807   22.1069 N   0  0  0  0  0  0
  -23.4175  -28.8186   23.3011 O   0  0  0  0  0  0
  -28.3895  -26.7108   20.0516 O   0  0  0  0  0  0
  -26.5562  -34.8919   22.4699 O   0  0  0  0  0  0
  -23.5349  -32.1458   23.7551 O   0  0  0  0  0  0
  -29.9133  -18.9555   22.2003 C   0  0  0  0  0  0
  -30.0391  -17.5644   22.3606 C   0  0  0  0  0  0
  -29.9525  -17.2954   19.9485 C   0  0  0  0  0  0
  -29.7680  -18.6907   19.7743 C   0  0  0  0  0  0
  -29.7795  -19.5435   20.9234 C   0  0  0  0  0  0
  -30.0802  -16.7216   21.2340 C   0  0  0  0  0  0
  -29.4335  -19.1811   18.4021 C   0  0  0  0  0  0
  -30.0290  -22.8923   19.1810 C   0  0  0  0  0  0
  -30.1073  -18.4916   17.2197 C   0  0  0  0  0  0
  -32.3170  -23.6872   18.5951 C   0  0  0  0  0  0
  -29.5902  -21.0675   20.8739 C   0  0  0  0  0  0
  -30.9194  -23.3605   18.0584 C   0  0  0  0  0  0
  -28.1658  -24.5605   18.7032 C   0  0  0  0  0  0
  -28.7361  -25.9956   18.8583 C   0  0  0  0  0  0
  -30.1284  -15.3134   21.4281 N   0  0  0  0  0  0
  -28.8648  -23.5185   19.4679 N   0  0  0  0  0  0
  -30.4043  -21.7970   19.8808 N   0  3  0  0  0  0
  -28.6463  -20.1028   18.1790 O   0  0  0  0  0  0
  -31.4770  -12.4027   19.1095 H   0  0  0  0  0  0
  -30.3460  -11.2672   19.7789 H   0  0  0  0  0  0
  -29.7327  -11.8199   17.4009 H   0  0  0  0  0  0
  -29.6721  -13.5208   17.7972 H   0  0  0  0  0  0
  -27.8224  -11.3203   18.7927 H   0  0  0  0  0  0
  -27.3776  -12.6748   17.7867 H   0  0  0  0  0  0
  -27.7372  -14.2559   19.6132 H   0  0  0  0  0  0
  -28.6710  -11.8877   21.3048 H   0  0  0  0  0  0
  -28.4612  -13.4993   21.9016 H   0  0  0  0  0  0
  -25.2732   -9.5698   22.4754 H   0  0  0  0  0  0
  -23.9963   -7.4630   22.7473 H   0  0  0  0  0  0
  -21.0788   -8.8803   19.8949 H   0  0  0  0  0  0
  -22.3674  -10.9680   19.6168 H   0  0  0  0  0  0
  -21.2021   -7.6113   23.9710 H   0  0  0  0  0  0
  -21.1470   -6.0493   25.9072 H   0  0  0  0  0  0
  -22.0609   -2.7585   23.2851 H   0  0  0  0  0  0
  -22.4033  -12.0017   22.4824 H   0  0  0  0  0  0
  -21.1092  -13.1438   22.2538 H   0  0  0  0  0  0
  -24.6784  -15.8511   20.5093 H   0  0  0  0  0  0
  -26.3020  -15.6119   20.0969 H   0  0  0  0  0  0
  -26.7115  -32.5547   23.1219 H   0  0  0  0  0  0
  -25.0159  -33.9825   25.0591 H   0  0  0  0  0  0
  -22.6939  -31.3173   21.4212 H   0  0  0  0  0  0
  -23.3755  -35.9644   23.3324 H   0  0  0  0  0  0
  -24.3594  -36.8895   22.2040 H   0  0  0  0  0  0
  -23.7232  -37.6534   23.6626 H   0  0  0  0  0  0
  -26.0615  -31.5986   20.6151 H   0  0  0  0  0  0
  -26.8208  -30.8736   22.0031 H   0  0  0  0  0  0
  -28.0923  -29.0746   21.1800 H   0  0  0  0  0  0
  -25.9711  -26.0441   18.9252 H   0  0  0  0  0  0
  -23.9567  -27.3379   19.0184 H   0  0  0  0  0  0
  -23.7234  -30.6205   19.4126 H   0  0  0  0  0  0
  -22.7354  -29.2631   19.8711 H   0  0  0  0  0  0
  -25.1275  -36.2018   25.0849 H   0  0  0  0  0  0
  -20.9954  -28.3224   24.1424 H   0  0  0  0  0  0
  -20.5668  -26.2266   23.3588 H   0  0  0  0  0  0
  -21.6633  -26.7436   22.1200 H   0  0  0  0  0  0
  -19.6900  -25.6299   21.1224 H   0  0  0  0  0  0
  -19.6674  -27.3204   20.6745 H   0  0  0  0  0  0
  -17.4184  -26.6670   21.4018 H   0  0  0  0  0  0
  -18.0310  -26.0051   22.9003 H   0  0  0  0  0  0
  -19.7926  -30.7251   24.2282 H   0  0  0  0  0  0
  -17.5007  -31.6261   24.5162 H   0  0  0  0  0  0
  -15.5341  -30.2984   23.7651 H   0  0  0  0  0  0
  -15.8656  -28.0821   22.7059 H   0  0  0  0  0  0
  -24.5930  -30.7056   25.7913 H   0  0  0  0  0  0
  -24.8934  -32.2883   26.4995 H   0  0  0  0  0  0
  -25.8129  -30.8926   27.0302 H   0  0  0  0  0  0
  -26.2853  -29.6818   24.1224 H   0  0  0  0  0  0
  -27.4061  -29.7306   25.4642 H   0  0  0  0  0  0
  -27.8702  -30.4379   23.9345 H   0  0  0  0  0  0
  -27.2723  -33.3648   26.2089 H   0  0  0  0  0  0
  -28.3856  -32.6868   25.0297 H   0  0  0  0  0  0
  -28.0760  -31.8455   26.5406 H   0  0  0  0  0  0
  -28.2620  -38.0091   24.7506 H   0  0  0  0  0  0
  -28.1059  -36.2632   24.6306 H   0  0  0  0  0  0
  -27.2306  -37.1489   25.8868 H   0  0  0  0  0  0
  -20.9291  -29.8792   21.6978 H   0  0  0  0  0  0
  -26.0204  -38.2893   24.1395 H   0  0  0  0  0  0
  -29.8867  -19.5741   23.0878 H   0  0  0  0  0  0
  -30.0954  -17.1517   23.3577 H   0  0  0  0  0  0
  -29.9298  -16.6435   19.0850 H   0  0  0  0  0  0
  -31.1107  -18.1568   17.4784 H   0  0  0  0  0  0
  -30.1869  -19.1799   16.3794 H   0  0  0  0  0  0
  -29.5221  -17.6293   16.8999 H   0  0  0  0  0  0
  -32.9924  -23.9258   17.7748 H   0  0  0  0  0  0
  -32.7519  -22.8515   19.1405 H   0  0  0  0  0  0
  -32.2884  -24.5473   19.2646 H   0  0  0  0  0  0
  -29.8215  -21.4973   21.8490 H   0  0  0  0  0  0
  -28.5309  -21.2618   20.6984 H   0  0  0  0  0  0
  -30.5125  -24.2315   17.5497 H   0  0  0  0  0  0
  -30.9765  -22.5784   17.3021 H   0  0  0  0  0  0
  -28.1976  -24.2699   17.6523 H   0  0  0  0  0  0
  -27.1230  -24.4806   18.9889 H   0  0  0  0  0  0
  -28.4637  -26.5907   17.9846 H   0  0  0  0  0  0
  -29.8234  -25.9529   18.8393 H   0  0  0  0  0  0
  -29.4666  -14.9331   22.0885 H   0  0  0  0  0  0
  -28.3659  -23.2585   20.3080 H   0  0  0  0  0  0
  -31.3343  -21.4314   19.7254 H   0  0  0  0  0  0
  1 25  1  0  0  0
  1 30  2  0  0  0
  1 85  1  0  0  0
  2  3  1  0  0  0
  2 25  1  0  0  0
  2 89  1  0  0  0
  2 90  1  0  0  0
  3  4  1  0  0  0
  3 91  1  0  0  0
  3 92  1  0  0  0
  4  5  1  0  0  0
  4 93  1  0  0  0
  4 94  1  0  0  0
  5  6  1  0  0  0
  5 26  1  0  0  0
  5 95  1  0  0  0
  6 25  1  0  0  0
  6 96  1  0  0  0
  6 97  1  0  0  0
  7  8  2  0  0  0
  7 26  1  0  0  0
  7 29  1  0  0  0
  8  9  1  0  0  0
  8 22  1  0  0  0
  9 10  1  0  0  0
  9 27  2  0  0  0
 10 11  2  0  0  0
 10 15  1  0  0  0
 11 12  1  0  0  0
 11 98  1  0  0  0
 12 13  2  0  0  0
 12 99  1  0  0  0
 13 14  1  0  0  0
 13 31  1  0  0  0
 14 15  2  0  0  0
 14100  1  0  0  0
 15101  1  0  0  0
 16 17  2  0  0  0
 16 21  1  0  0  0
 16 31  1  0  0  0
 17 18  1  0  0  0
 17102  1  0  0  0
 18 19  2  0  0  0
 18103  1  0  0  0
 19 20  1  0  0  0
 19 24  1  0  0  0
 20 21  2  0  0  0
 20104  1  0  0  0
 21 23  1  0  0  0
 22 28  1  0  0  0
 22 32  2  0  0  0
 26 27  1  0  0  0
 28105  1  0  0  0
 28106  1  0  0  0
 29107  1  0  0  0
 29108  1  0  0  0
 33 34  1  0  0  0
 33 66  1  0  0  0
 33 70  2  0  0  0
 34 36  1  0  0  0
 34 59  1  0  0  0
 34109  1  0  0  0
 35 44  2  0  0  0
 35 45  1  0  0  0
 35 68  1  0  0  0
 36 56  1  0  0  0
 36110  1  0  0  0
 37 39  1  0  0  0
 37 47  1  0  0  0
 37 66  1  0  0  0
 37111  1  0  0  0
 38 43  2  0  0  0
 38 46  1  0  0  0
 38 47  1  0  0  0
 39 64  1  0  0  0
 39 67  2  0  0  0
 40 52  1  0  0  0
 40 53  2  0  0  0
 40 58  1  0  0  0
 41112  1  0  0  0
 41113  1  0  0  0
 41114  1  0  0  0
 41 48  1  0  0  0
 42 43  1  0  0  0
 42 66  1  0  0  0
 42115  1  0  0  0
 42116  1  0  0  0
 43 44  1  0  0  0
 44117  1  0  0  0
 45 46  2  0  0  0
 45118  1  0  0  0
 46119  1  0  0  0
 47120  1  0  0  0
 47121  1  0  0  0
 48 56  1  0  0  0
 48 65  1  0  0  0
 48122  1  0  0  0
 49 50  1  0  0  0
 49 53  1  0  0  0
 49 64  1  0  0  0
 49123  1  0  0  0
 50 51  1  0  0  0
 50124  1  0  0  0
 50125  1  0  0  0
 51 52  1  0  0  0
 51126  1  0  0  0
 51127  1  0  0  0
 52128  1  0  0  0
 52129  1  0  0  0
 53 54  1  0  0  0
 54 55  2  0  0  0
 54130  1  0  0  0
 55 57  1  0  0  0
 55131  1  0  0  0
 56 69  2  0  0  0
 57 58  2  0  0  0
 57132  1  0  0  0
 58133  1  0  0  0
 59 60  1  0  0  0
 59 61  1  0  0  0
 59 62  1  0  0  0
 60134  1  0  0  0
 60135  1  0  0  0
 60136  1  0  0  0
 61137  1  0  0  0
 61138  1  0  0  0
 61139  1  0  0  0
 62140  1  0  0  0
 62141  1  0  0  0
 62142  1  0  0  0
 63 65  1  0  0  0
 63143  1  0  0  0
 63144  1  0  0  0
 63145  1  0  0  0
 64146  1  0  0  0
 65147  1  0  0  0
 68 84  1  0  0  0
 71 72  2  0  0  0
 71 75  1  0  0  0
 71148  1  0  0  0
 72 76  1  0  0  0
 72149  1  0  0  0
 73 74  1  0  0  0
 73 76  2  0  0  0
 73150  1  0  0  0
 74 75  2  0  0  0
 74 77  1  0  0  0
 75 81  1  0  0  0
 76 85  1  0  0  0
 77 79  1  0  0  0
 77 88  2  0  0  0
 78 82  1  0  0  0
 78 86  1  0  0  0
 78 87  2  0  0  0
 79151  1  0  0  0
 79152  1  0  0  0
 79153  1  0  0  0
 80 82  1  0  0  0
 80154  1  0  0  0
 80155  1  0  0  0
 80156  1  0  0  0
 81 87  1  0  0  0
 81157  1  0  0  0
 81158  1  0  0  0
 82159  1  0  0  0
 82160  1  0  0  0
 83 84  1  0  0  0
 83 86  1  0  0  0
 83161  1  0  0  0
 83162  1  0  0  0
 84163  1  0  0  0
 84164  1  0  0  0
 85165  1  0  0  0
 86166  1  0  0  0
 87167  1  0  0  0
M  CHG  1  87   1
M  ISO  4   1 100  68 101  84 101  85 100
M  END
> <chiral flag>
0

> <version>
0

> <s_m_source_file>
/data/baiqing/PycharmProjects/Reinvent-master-3.2/result/LINK_invent/BTK/process_docking_weight1_custom_product_contain_oxygen_bond_distance_aromatic_linkinvent_7_9_3/rearranged_h_0043.sdf

> <i_m_source_file_index>
49

> <r_mmod_Potential_Energy-OPLS-2005>
-89.8736724853516

> <r_mmod_Stretch_Energy-OPLS-2005>
38.3865203857422

> <r_mmod_Bend_Energy-OPLS-2005>
108.150260925293

> <r_mmod_Torsional_Energy-OPLS-2005>
278.141235351562

> <r_mmod_Improper_Torsional_Energy-OPLS-2005>
3.864905834198

> <r_mmod_Van_der_Waal_Energy-OPLS-2005>
163.228698730469

> <r_mmod_Electrostatic_Energy-OPLS-2005>
-281.519256591797

> <r_mmod_Solvation_Energy-OPLS-2005>
-410.257141113281

> <b_mmod_Minimization_Converged-OPLS-2005>
0

> <r_mmod_RMS_Derivative-OPLS-2005>
3.96153020858765

$$$$
49
                    3D
 Structure written by MMmdl.
164173  0  0  1  0            999 V2000
  -30.5939  -14.7678   20.4366 C   0  0  0  0  0  0
  -30.4412  -12.4657   19.4613 C   0  0  0  0  0  0
  -29.5152  -12.4855   18.2263 C   0  0  0  0  0  0
  -28.0390  -12.3154   18.6426 C   0  0  0  0  0  0
  -27.6359  -13.2271   19.8325 C   0  0  2  0  0  0
  -28.6855  -13.1812   20.9649 C   0  0  0  0  0  0
  -25.2504  -13.8167   20.5725 C   0  0  0  0  0  0
  -24.1782  -13.0420   20.9209 C   0  0  0  0  0  0
  -24.6364  -11.6897   20.8711 C   0  0  0  0  0  0
  -23.9022  -10.4277   21.0371 C   0  0  0  0  0  0
  -24.3595   -9.4213   21.9147 C   0  0  0  0  0  0
  -23.6272   -8.2249   22.0739 C   0  0  0  0  0  0
  -22.4255   -8.0249   21.3533 C   0  0  0  0  0  0
  -21.9864   -9.0228   20.4664 C   0  0  0  0  0  0
  -22.7177  -10.2113   20.3047 C   0  0  0  0  0  0
  -21.6879   -6.0699   22.5259 C   0  0  0  0  0  0
  -21.4039   -6.5618   23.8192 C   0  0  0  0  0  0
  -21.3658   -5.6757   24.9158 C   0  0  0  0  0  0
  -21.6035   -4.3018   24.7213 C   0  0  0  0  0  0
  -21.8821   -3.8112   23.4348 C   0  0  0  0  0  0
  -21.9209   -4.6926   22.3400 C   0  0  0  0  0  0
  -22.7799  -13.5212   21.1828 C   0  0  0  0  0  0
  -22.1666   -4.2103   21.0978 F   0  0  0  0  0  0
  -21.5626   -3.4523   25.7748 F   0  0  0  0  0  0
  -29.9765  -13.5409   20.3644 N   0  0  0  0  0  0
  -26.2901  -12.9370   20.3178 N   0  0  0  0  0  0
  -25.9289  -11.6533   20.5688 N   0  0  0  0  0  0
  -22.0425  -12.8261   22.0440 N   0  0  0  0  0  0
  -25.4158  -15.1899   20.4186 N   0  0  0  0  0  0
  -31.8065  -14.8487   20.2077 O   0  0  0  0  0  0
  -21.6638   -6.8834   21.4223 O   0  0  0  0  0  0
  -22.3481  -14.5466   20.6585 O   0  0  0  0  0  0
  -24.6311  -31.8524   23.1999 C   0  0  0  0  0  0
  -25.9135  -32.4727   23.8325 C   0  0  1  0  0  0
  -27.2492  -27.2708   20.1563 C   0  0  0  0  0  0
  -25.5933  -33.8541   24.2232 N   0  0  0  0  0  0
  -23.4278  -30.4713   21.5419 C   0  0  2  0  0  0
  -24.8791  -28.8976   20.1337 C   0  0  0  0  0  0
  -22.7498  -29.4604   22.4980 C   0  0  0  0  0  0
  -18.0288  -28.1428   22.8473 C   0  0  0  0  0  0
  -24.1501  -36.7311   23.2656 C   0  0  0  0  0  0
  -25.9653  -30.7697   21.3726 C   0  0  0  0  0  0
  -26.0449  -29.3843   20.7356 C   0  0  0  0  0  0
  -27.2285  -28.5857   20.7308 C   0  0  0  0  0  0
  -26.0556  -26.8304   19.5464 C   0  0  0  0  0  0
  -24.8863  -27.6240   19.5330 C   0  0  0  0  0  0
  -23.6516  -29.7907   20.1657 C   0  0  0  0  0  0
  -25.4119  -36.3058   24.0330 C   0  0  1  0  0  0
  -20.5890  -28.3733   23.1315 C   0  0  2  0  0  0
  -20.6806  -26.9453   22.5475 C   0  0  0  0  0  0
  -19.5800  -26.6405   21.5273 C   0  0  0  0  0  0
  -18.1940  -26.7979   22.1606 C   0  0  0  0  0  0
  -19.1534  -28.8893   23.2897 C   0  0  0  0  0  0
  -18.9451  -30.1494   23.8909 C   0  0  0  0  0  0
  -17.6442  -30.6608   24.0580 C   0  0  0  0  0  0
  -25.9059  -34.9427   23.5075 C   0  0  0  0  0  0
  -16.5339  -29.9109   23.6321 C   0  0  0  0  0  0
  -16.7279  -28.6551   23.0312 C   0  0  0  0  0  0
  -26.4517  -31.6546   25.0683 C   0  0  0  0  0  0
  -25.3775  -31.3694   26.1443 C   0  0  0  0  0  0
  -27.0333  -30.2968   24.6125 C   0  0  0  0  0  0
  -27.6047  -32.4317   25.7433 C   0  0  0  0  0  0
  -27.5586  -37.1807   24.8458 C   0  0  0  0  0  0
  -21.4210  -29.3055   22.3687 N   0  0  0  0  0  0
  -26.4291  -37.3758   23.9409 N   0  0  0  0  0  0
  -24.6935  -31.0477   22.0966 N   0  0  0  0  0  0
  -23.4189  -28.8188   23.3128 O   0  0  0  0  0  0
  -28.4263  -26.5135   20.0176 O   0  0  0  0  0  0
  -26.5635  -34.8911   22.4648 O   0  0  0  0  0  0
  -23.5458  -32.1338   23.7296 O   0  0  0  0  0  0
  -29.3217  -18.5090   20.4659 C   0  0  0  0  0  0
  -31.1399  -17.5496   21.7482 C   0  0  0  0  0  0
  -29.5473  -19.8535   21.0070 C   0  0  0  0  0  0
  -30.5544  -19.9343   22.0154 C   0  0  0  0  0  0
  -30.0853  -17.3203   20.8444 C   0  0  0  0  0  0
  -31.3681  -18.8145   22.3190 C   0  0  0  0  0  0
  -30.6601  -22.7551   20.1622 C   0  0  0  0  0  0
  -31.5353  -22.0301   19.4420 C   0  0  0  0  0  0
  -31.0208  -23.9761   21.0028 C   0  0  0  0  0  0
  -30.2826  -25.2441   20.5551 C   0  0  0  0  0  0
  -28.2811  -23.7540   19.9959 C   0  0  0  0  0  0
  -28.7460  -25.1725   20.6233 C   0  0  2  0  0  0
  -30.7848  -21.1983   22.8394 C   0  0  0  0  0  0
  -28.6442  -21.1533   20.6733 C   0  0  0  0  0  0
  -29.7948  -15.9116   20.4515 N   0  0  0  0  0  0
  -29.1882  -22.4885   20.0935 N   0  3  2  0  0  0
  -32.6777  -18.9619   23.4388 Cl  0  0  0  0  0  0
  -31.4827  -12.5950   19.1621 H   0  0  0  0  0  0
  -30.3950  -11.4950   19.9591 H   0  0  0  0  0  0
  -29.7894  -11.6854   17.5377 H   0  0  0  0  0  0
  -29.6467  -13.4176   17.6748 H   0  0  0  0  0  0
  -27.9079  -11.2686   18.9247 H   0  0  0  0  0  0
  -27.3830  -12.4879   17.7867 H   0  0  0  0  0  0
  -27.6210  -14.2415   19.4368 H   0  0  0  0  0  0
  -28.7380  -12.1894   21.4174 H   0  0  0  0  0  0
  -28.4194  -13.8781   21.7625 H   0  0  0  0  0  0
  -25.2763   -9.5697   22.4701 H   0  0  0  0  0  0
  -24.0002   -7.4649   22.7457 H   0  0  0  0  0  0
  -21.0786   -8.8720   19.9003 H   0  0  0  0  0  0
  -22.3582  -10.9644   19.6157 H   0  0  0  0  0  0
  -21.2041   -7.6115   23.9687 H   0  0  0  0  0  0
  -21.1473   -6.0488   25.9051 H   0  0  0  0  0  0
  -22.0609   -2.7571   23.2853 H   0  0  0  0  0  0
  -22.4060  -12.0030   22.4991 H   0  0  0  0  0  0
  -21.1009  -13.1282   22.2531 H   0  0  0  0  0  0
  -24.6466  -15.8343   20.5670 H   0  0  0  0  0  0
  -26.2507  -15.6513   20.0824 H   0  0  0  0  0  0
  -26.7192  -32.5411   23.1081 H   0  0  0  0  0  0
  -25.0044  -33.9632   25.0353 H   0  0  0  0  0  0
  -22.7256  -31.2947   21.3924 H   0  0  0  0  0  0
  -23.3716  -35.9694   23.3308 H   0  0  0  0  0  0
  -24.3599  -36.8951   22.2078 H   0  0  0  0  0  0
  -23.7316  -37.6531   23.6689 H   0  0  0  0  0  0
  -26.0890  -31.5144   20.5848 H   0  0  0  0  0  0
  -26.8516  -30.8348   21.9945 H   0  0  0  0  0  0
  -28.1358  -28.9730   21.1695 H   0  0  0  0  0  0
  -26.0398  -25.8667   19.0557 H   0  0  0  0  0  0
  -23.9910  -27.2401   19.0621 H   0  0  0  0  0  0
  -23.7949  -30.5627   19.4086 H   0  0  0  0  0  0
  -22.7649  -29.2346   19.8522 H   0  0  0  0  0  0
  -25.1307  -36.1871   25.0817 H   0  0  0  0  0  0
  -20.9944  -28.3310   24.1468 H   0  0  0  0  0  0
  -20.5753  -26.2325   23.3666 H   0  0  0  0  0  0
  -21.6667  -26.7530   22.1249 H   0  0  0  0  0  0
  -19.6952  -25.6316   21.1311 H   0  0  0  0  0  0
  -19.6774  -27.3211   20.6802 H   0  0  0  0  0  0
  -17.4270  -26.6808   21.3937 H   0  0  0  0  0  0
  -18.0258  -26.0110   22.8972 H   0  0  0  0  0  0
  -19.7922  -30.7341   24.2264 H   0  0  0  0  0  0
  -17.4990  -31.6275   24.5232 H   0  0  0  0  0  0
  -15.5344  -30.3012   23.7667 H   0  0  0  0  0  0
  -15.8682  -28.0907   22.6960 H   0  0  0  0  0  0
  -24.5945  -30.7003   25.7854 H   0  0  0  0  0  0
  -24.8956  -32.2854   26.4875 H   0  0  0  0  0  0
  -25.8173  -30.8918   27.0206 H   0  0  0  0  0  0
  -26.2864  -29.6694   24.1241 H   0  0  0  0  0  0
  -27.4115  -29.7250   25.4603 H   0  0  0  0  0  0
  -27.8700  -30.4240   23.9261 H   0  0  0  0  0  0
  -27.2619  -33.3631   26.1956 H   0  0  0  0  0  0
  -28.3871  -32.6875   25.0274 H   0  0  0  0  0  0
  -28.0694  -31.8495   26.5386 H   0  0  0  0  0  0
  -28.2587  -38.0113   24.7452 H   0  0  0  0  0  0
  -28.1084  -36.2630   24.6301 H   0  0  0  0  0  0
  -27.2311  -37.1501   25.8866 H   0  0  0  0  0  0
  -20.9435  -29.8637   21.6754 H   0  0  0  0  0  0
  -26.0148  -38.2825   24.1392 H   0  0  0  0  0  0
  -28.5172  -18.3815   19.7538 H   0  0  0  0  0  0
  -31.7689  -16.7326   22.0651 H   0  0  0  0  0  0
  -32.5903  -22.2640   19.4584 H   0  0  0  0  0  0
  -31.2324  -21.1999   18.8221 H   0  0  0  0  0  0
  -32.0928  -24.1361   20.8893 H   0  0  0  0  0  0
  -30.8689  -23.8151   22.0695 H   0  0  0  0  0  0
  -30.5831  -25.4591   19.5294 H   0  0  0  0  0  0
  -30.6269  -26.0846   21.1611 H   0  0  0  0  0  0
  -28.1928  -23.9283   18.9240 H   0  0  0  0  0  0
  -27.2723  -23.5147   20.3297 H   0  0  0  0  0  0
  -28.4558  -25.2008   21.6762 H   0  0  0  0  0  0
  -29.9565  -21.9015   22.8008 H   0  0  0  0  0  0
  -31.7009  -21.6877   22.5084 H   0  0  0  0  0  0
  -30.9083  -20.9648   23.8950 H   0  0  0  0  0  0
  -28.0718  -21.3830   21.5739 H   0  0  0  0  0  0
  -27.8981  -20.8270   19.9497 H   0  0  0  0  0  0
  -28.8265  -15.7230   20.2432 H   0  0  0  0  0  0
  -29.0877  -22.1918   19.1364 H   0  0  0  0  0  0
  1 25  1  0  0  0
  1 30  2  0  0  0
  1 85  1  0  0  0
  2  3  1  0  0  0
  2 25  1  0  0  0
  2 88  1  0  0  0
  2 89  1  0  0  0
  3  4  1  0  0  0
  3 90  1  0  0  0
  3 91  1  0  0  0
  4  5  1  0  0  0
  4 92  1  0  0  0
  4 93  1  0  0  0
  5  6  1  0  0  0
  5 26  1  0  0  0
  5 94  1  0  0  0
  6 25  1  0  0  0
  6 95  1  0  0  0
  6 96  1  0  0  0
  7  8  2  0  0  0
  7 26  1  0  0  0
  7 29  1  0  0  0
  8  9  1  0  0  0
  8 22  1  0  0  0
  9 10  1  0  0  0
  9 27  2  0  0  0
 10 11  2  0  0  0
 10 15  1  0  0  0
 11 12  1  0  0  0
 11 97  1  0  0  0
 12 13  2  0  0  0
 12 98  1  0  0  0
 13 14  1  0  0  0
 13 31  1  0  0  0
 14 15  2  0  0  0
 14 99  1  0  0  0
 15100  1  0  0  0
 16 17  2  0  0  0
 16 21  1  0  0  0
 16 31  1  0  0  0
 17 18  1  0  0  0
 17101  1  0  0  0
 18 19  2  0  0  0
 18102  1  0  0  0
 19 20  1  0  0  0
 19 24  1  0  0  0
 20 21  2  0  0  0
 20103  1  0  0  0
 21 23  1  0  0  0
 22 28  1  0  0  0
 22 32  2  0  0  0
 26 27  1  0  0  0
 28104  1  0  0  0
 28105  1  0  0  0
 29106  1  0  0  0
 29107  1  0  0  0
 33 34  1  0  0  0
 33 66  1  0  0  0
 33 70  2  0  0  0
 34 36  1  0  0  0
 34 59  1  0  0  0
 34108  1  0  0  0
 35 44  2  0  0  0
 35 45  1  0  0  0
 35 68  1  0  0  0
 36 56  1  0  0  0
 36109  1  0  0  0
 37 39  1  0  0  0
 37 47  1  0  0  0
 37 66  1  0  0  0
 37110  1  0  0  0
 38 43  2  0  0  0
 38 46  1  0  0  0
 38 47  1  0  0  0
 39 64  1  0  0  0
 39 67  2  0  0  0
 40 52  1  0  0  0
 40 53  2  0  0  0
 40 58  1  0  0  0
 41111  1  0  0  0
 41112  1  0  0  0
 41113  1  0  0  0
 41 48  1  0  0  0
 42 43  1  0  0  0
 42 66  1  0  0  0
 42114  1  0  0  0
 42115  1  0  0  0
 43 44  1  0  0  0
 44116  1  0  0  0
 45 46  2  0  0  0
 45117  1  0  0  0
 46118  1  0  0  0
 47119  1  0  0  0
 47120  1  0  0  0
 48 56  1  0  0  0
 48 65  1  0  0  0
 48121  1  0  0  0
 49 50  1  0  0  0
 49 53  1  0  0  0
 49 64  1  0  0  0
 49122  1  0  0  0
 50 51  1  0  0  0
 50123  1  0  0  0
 50124  1  0  0  0
 51 52  1  0  0  0
 51125  1  0  0  0
 51126  1  0  0  0
 52127  1  0  0  0
 52128  1  0  0  0
 53 54  1  0  0  0
 54 55  2  0  0  0
 54129  1  0  0  0
 55 57  1  0  0  0
 55130  1  0  0  0
 56 69  2  0  0  0
 57 58  2  0  0  0
 57131  1  0  0  0
 58132  1  0  0  0
 59 60  1  0  0  0
 59 61  1  0  0  0
 59 62  1  0  0  0
 60133  1  0  0  0
 60134  1  0  0  0
 60135  1  0  0  0
 61136  1  0  0  0
 61137  1  0  0  0
 61138  1  0  0  0
 62139  1  0  0  0
 62140  1  0  0  0
 62141  1  0  0  0
 63 65  1  0  0  0
 63142  1  0  0  0
 63143  1  0  0  0
 63144  1  0  0  0
 64145  1  0  0  0
 65146  1  0  0  0
 68 82  1  0  0  0
 71 73  2  0  0  0
 71 75  1  0  0  0
 71147  1  0  0  0
 72 75  2  0  0  0
 72 76  1  0  0  0
 72148  1  0  0  0
 73 74  1  0  0  0
 73 84  1  0  0  0
 74 76  2  0  0  0
 74 83  1  0  0  0
 75 85  1  0  0  0
 76 87  1  0  0  0
 77 78  2  0  0  0
 77 79  1  0  0  0
 77 86  1  0  0  0
 78149  1  0  0  0
 78150  1  0  0  0
 79 80  1  0  0  0
 79151  1  0  0  0
 79152  1  0  0  0
 80 82  1  0  0  0
 80153  1  0  0  0
 80154  1  0  0  0
 81 82  1  0  0  0
 81 86  1  0  0  0
 81155  1  0  0  0
 81156  1  0  0  0
 82157  1  0  0  0
 83158  1  0  0  0
 83159  1  0  0  0
 83160  1  0  0  0
 84161  1  0  0  0
 84162  1  0  0  0
 84 86  1  0  0  0
 85163  1  0  0  0
 86164  1  0  0  0
M  CHG  1  86   1
M  ISO  4   1 100  68 101  82 101  85 100
M  END
> <chiral flag>
0

> <version>
0

> <s_m_source_file>
/data/baiqing/PycharmProjects/Reinvent-master-3.2/result/LINK_invent/BTK/process_docking_weight1_custom_product_contain_oxygen_bond_distance_aromatic_linkinvent_7_9_3/rearranged_h_0043.sdf

> <i_m_source_file_index>
50

> <r_mmod_Potential_Energy-OPLS-2005>
191.194854736328

> <r_mmod_Stretch_Energy-OPLS-2005>
138.472839355469

> <r_mmod_Bend_Energy-OPLS-2005>
239.923187255859

> <r_mmod_Torsional_Energy-OPLS-2005>
279.997528076172

> <r_mmod_Improper_Torsional_Energy-OPLS-2005>
9.52302742004395

> <r_mmod_Van_der_Waal_Energy-OPLS-2005>
137.880569458008

> <r_mmod_Electrostatic_Energy-OPLS-2005>
-252.556167602539

> <r_mmod_Solvation_Energy-OPLS-2005>
-444.501190185547

> <b_mmod_Minimization_Converged-OPLS-2005>
0

> <r_mmod_RMS_Derivative-OPLS-2005>
5.71271228790283

$$$$
50
                    3D
 Structure written by MMmdl.
173182  0  0  1  0            999 V2000
  -30.6759  -14.4684   20.5938 C   0  0  0  0  0  0
  -30.4281  -12.3099   19.4101 C   0  0  0  0  0  0
  -29.4956  -12.5182   18.1982 C   0  0  0  0  0  0
  -28.0141  -12.3797   18.6081 C   0  0  0  0  0  0
  -27.6629  -13.2037   19.8766 C   0  0  2  0  0  0
  -28.7040  -12.9582   20.9921 C   0  0  0  0  0  0
  -25.2602  -13.8174   20.5643 C   0  0  0  0  0  0
  -24.1849  -13.0445   20.9152 C   0  0  0  0  0  0
  -24.6405  -11.6914   20.8725 C   0  0  0  0  0  0
  -23.9069  -10.4301   21.0407 C   0  0  0  0  0  0
  -24.3610   -9.4217   21.9198 C   0  0  0  0  0  0
  -23.6279   -8.2250   22.0774 C   0  0  0  0  0  0
  -22.4271   -8.0301   21.3555 C   0  0  0  0  0  0
  -21.9906   -9.0267   20.4660 C   0  0  0  0  0  0
  -22.7238  -10.2143   20.3061 C   0  0  0  0  0  0
  -21.6851   -6.0739   22.5260 C   0  0  0  0  0  0
  -21.4010   -6.5639   23.8203 C   0  0  0  0  0  0
  -21.3656   -5.6799   24.9170 C   0  0  0  0  0  0
  -21.6046   -4.3060   24.7231 C   0  0  0  0  0  0
  -21.8819   -3.8155   23.4348 C   0  0  0  0  0  0
  -21.9190   -4.6960   22.3401 C   0  0  0  0  0  0
  -22.7877  -13.5248   21.1811 C   0  0  0  0  0  0
  -22.1660   -4.2148   21.0970 F   0  0  0  0  0  0
  -21.5634   -3.4543   25.7747 F   0  0  0  0  0  0
  -30.0313  -13.2809   20.4419 N   0  0  0  0  0  0
  -26.3026  -12.9332   20.3349 N   0  0  0  0  0  0
  -25.9324  -11.6499   20.5749 N   0  0  0  0  0  0
  -22.0504  -12.8240   22.0363 N   0  0  0  0  0  0
  -25.4328  -15.1880   20.4056 N   0  0  0  0  0  0
  -31.8095  -14.6727   20.1443 O   0  0  0  0  0  0
  -21.6628   -6.8887   21.4241 O   0  0  0  0  0  0
  -22.3576  -14.5569   20.6676 O   0  0  0  0  0  0
  -24.6144  -31.8686   23.2132 C   0  0  0  0  0  0
  -25.9069  -32.4806   23.8394 C   0  0  1  0  0  0
  -27.2352  -27.4151   20.0741 C   0  0  0  0  0  0
  -25.5962  -33.8603   24.2309 N   0  0  0  0  0  0
  -23.4021  -30.4945   21.5561 C   0  0  2  0  0  0
  -24.8492  -28.9689   20.1150 C   0  0  0  0  0  0
  -22.7399  -29.4645   22.4996 C   0  0  0  0  0  0
  -18.0273  -28.1367   22.8480 C   0  0  0  0  0  0
  -24.1500  -36.7284   23.2633 C   0  0  0  0  0  0
  -25.9360  -30.8175   21.3851 C   0  0  0  0  0  0
  -26.0080  -29.4521   20.7306 C   0  0  0  0  0  0
  -27.1914  -28.6700   20.7343 C   0  0  0  0  0  0
  -26.0636  -26.9968   19.3974 C   0  0  0  0  0  0
  -24.8706  -27.7327   19.4583 C   0  0  0  0  0  0
  -23.6135  -29.8374   20.1681 C   0  0  0  0  0  0
  -25.4119  -36.3065   24.0316 C   0  0  1  0  0  0
  -20.5872  -28.3638   23.1316 C   0  0  2  0  0  0
  -20.6769  -26.9376   22.5414 C   0  0  0  0  0  0
  -19.5754  -26.6377   21.5199 C   0  0  0  0  0  0
  -18.1912  -26.7917   22.1591 C   0  0  0  0  0  0
  -19.1527  -28.8817   23.2882 C   0  0  0  0  0  0
  -18.9451  -30.1431   23.8883 C   0  0  0  0  0  0
  -17.6454  -30.6577   24.0554 C   0  0  0  0  0  0
  -25.9064  -34.9454   23.5077 C   0  0  0  0  0  0
  -16.5354  -29.9070   23.6341 C   0  0  0  0  0  0
  -16.7274  -28.6503   23.0348 C   0  0  0  0  0  0
  -26.4503  -31.6592   25.0726 C   0  0  0  0  0  0
  -25.3774  -31.3697   26.1474 C   0  0  0  0  0  0
  -27.0314  -30.3015   24.6126 C   0  0  0  0  0  0
  -27.6070  -32.4330   25.7478 C   0  0  0  0  0  0
  -27.5584  -37.1781   24.8446 C   0  0  0  0  0  0
  -21.4142  -29.3000   22.3710 N   0  0  0  0  0  0
  -26.4284  -37.3769   23.9418 N   0  0  0  0  0  0
  -24.6675  -31.0765   22.1070 N   0  0  0  0  0  0
  -23.4161  -28.8187   23.3044 O   0  0  0  0  0  0
  -28.4094  -26.6706   20.1170 O   0  0  0  0  0  0
  -26.5593  -34.8915   22.4610 O   0  0  0  0  0  0
  -23.5349  -32.1474   23.7529 O   0  0  0  0  0  0
  -30.8293  -19.5674   21.7636 C   0  0  0  0  0  0
  -31.5013  -17.2157   21.8370 C   0  0  0  0  0  0
  -31.7848  -18.5747   22.0731 C   0  0  0  0  0  0
  -29.5927  -19.2153   21.1676 C   0  0  0  0  0  0
  -30.2538  -16.8307   21.2987 C   0  0  0  0  0  0
  -29.3014  -17.8341   20.9813 C   0  0  0  0  0  0
  -28.1110  -22.8790   20.4670 C   0  0  0  0  0  0
  -26.7510  -22.8084   20.3836 C   0  0  0  0  0  0
  -30.7006  -23.0607   19.1505 C   0  0  0  0  0  0
  -30.4532  -23.9747   20.3708 C   0  0  0  0  0  0
  -30.0084  -21.6928   19.2949 C   0  0  0  0  0  0
  -28.9333  -24.2105   20.5683 C   0  0  1  0  0  0
  -33.1409  -18.9542   22.6357 C   0  0  0  0  0  0
  -25.9430  -21.5829   19.9825 C   0  0  0  0  0  0
  -25.8380  -23.9987   20.6295 C   0  0  0  0  0  0
  -28.5590  -20.2842   20.7425 C   0  0  0  0  0  0
  -28.4932  -25.3364   19.5556 C   0  0  0  0  0  0
  -29.9205  -15.4521   21.1221 N   0  0  0  0  0  0
  -29.0621  -21.6687   20.4387 N   0  3  2  0  0  0
  -28.0938  -17.4588   20.4853 F   0  0  0  0  0  0
  -31.4717  -12.4184   19.1076 H   0  0  0  0  0  0
  -30.3332  -11.2938   19.7930 H   0  0  0  0  0  0
  -29.7307  -11.8017   17.4092 H   0  0  0  0  0  0
  -29.6652  -13.5081   17.7717 H   0  0  0  0  0  0
  -27.8167  -11.3224   18.7888 H   0  0  0  0  0  0
  -27.3673  -12.6753   17.7806 H   0  0  0  0  0  0
  -27.7094  -14.2550   19.5928 H   0  0  0  0  0  0
  -28.6853  -11.9126   21.3047 H   0  0  0  0  0  0
  -28.4674  -13.5322   21.8886 H   0  0  0  0  0  0
  -25.2749   -9.5679   22.4786 H   0  0  0  0  0  0
  -23.9978   -7.4645   22.7501 H   0  0  0  0  0  0
  -21.0842   -8.8795   19.8968 H   0  0  0  0  0  0
  -22.3711  -10.9687   19.6171 H   0  0  0  0  0  0
  -21.2001   -7.6144   23.9703 H   0  0  0  0  0  0
  -21.1483   -6.0535   25.9079 H   0  0  0  0  0  0
  -22.0607   -2.7616   23.2848 H   0  0  0  0  0  0
  -22.4099  -11.9873   22.4714 H   0  0  0  0  0  0
  -21.1136  -13.1308   22.2573 H   0  0  0  0  0  0
  -24.6667  -15.8420   20.5193 H   0  0  0  0  0  0
  -26.2874  -15.6379   20.0995 H   0  0  0  0  0  0
  -26.7112  -32.5544   23.1144 H   0  0  0  0  0  0
  -25.0164  -33.9747   25.0492 H   0  0  0  0  0  0
  -22.6942  -31.3121   21.4199 H   0  0  0  0  0  0
  -23.3778  -35.9585   23.3208 H   0  0  0  0  0  0
  -24.3612  -36.9009   22.2066 H   0  0  0  0  0  0
  -23.7244  -37.6450   23.6725 H   0  0  0  0  0  0
  -26.0612  -31.5838   20.6181 H   0  0  0  0  0  0
  -26.8188  -30.8658   22.0095 H   0  0  0  0  0  0
  -28.0721  -29.0226   21.2519 H   0  0  0  0  0  0
  -26.0235  -26.1210   18.7768 H   0  0  0  0  0  0
  -23.9883  -27.3624   18.9584 H   0  0  0  0  0  0
  -23.7230  -30.6153   19.4119 H   0  0  0  0  0  0
  -22.7363  -29.2622   19.8710 H   0  0  0  0  0  0
  -25.1292  -36.1880   25.0807 H   0  0  0  0  0  0
  -20.9955  -28.3213   24.1450 H   0  0  0  0  0  0
  -20.5676  -26.2238   23.3589 H   0  0  0  0  0  0
  -21.6641  -26.7403   22.1237 H   0  0  0  0  0  0
  -19.6902  -25.6289   21.1228 H   0  0  0  0  0  0
  -19.6716  -27.3179   20.6715 H   0  0  0  0  0  0
  -17.4198  -26.6690   21.3971 H   0  0  0  0  0  0
  -18.0257  -26.0045   22.8964 H   0  0  0  0  0  0
  -19.7920  -30.7229   24.2279 H   0  0  0  0  0  0
  -17.5018  -31.6275   24.5120 H   0  0  0  0  0  0
  -15.5355  -30.2964   23.7685 H   0  0  0  0  0  0
  -15.8676  -28.0836   22.7056 H   0  0  0  0  0  0
  -24.5987  -30.6981   25.7841 H   0  0  0  0  0  0
  -24.8916  -32.2840   26.4881 H   0  0  0  0  0  0
  -25.8156  -30.8937   27.0254 H   0  0  0  0  0  0
  -26.2816  -29.6775   24.1241 H   0  0  0  0  0  0
  -27.4107  -29.7275   25.4592 H   0  0  0  0  0  0
  -27.8661  -30.4274   23.9222 H   0  0  0  0  0  0
  -27.2681  -33.3679   26.1942 H   0  0  0  0  0  0
  -28.3921  -32.6810   25.0325 H   0  0  0  0  0  0
  -28.0654  -31.8519   26.5489 H   0  0  0  0  0  0
  -28.2533  -38.0150   24.7605 H   0  0  0  0  0  0
  -28.1151  -36.2692   24.6119 H   0  0  0  0  0  0
  -27.2318  -37.1257   25.8851 H   0  0  0  0  0  0
  -20.9283  -29.8739   21.6964 H   0  0  0  0  0  0
  -26.0142  -38.2798   24.1543 H   0  0  0  0  0  0
  -31.0741  -20.6000   21.9674 H   0  0  0  0  0  0
  -32.2418  -16.4698   22.0878 H   0  0  0  0  0  0
  -31.7701  -22.9218   18.9875 H   0  0  0  0  0  0
  -30.3272  -23.5338   18.2420 H   0  0  0  0  0  0
  -30.9763  -24.9246   20.2426 H   0  0  0  0  0  0
  -30.8905  -23.5321   21.2674 H   0  0  0  0  0  0
  -30.7776  -20.9336   19.4286 H   0  0  0  0  0  0
  -29.4789  -21.4316   18.3787 H   0  0  0  0  0  0
  -28.7707  -24.5916   21.5773 H   0  0  0  0  0  0
  -33.1526  -19.9694   23.0308 H   0  0  0  0  0  0
  -33.8952  -18.8846   21.8522 H   0  0  0  0  0  0
  -33.4306  -18.2773   23.4392 H   0  0  0  0  0  0
  -26.3766  -21.1015   19.1063 H   0  0  0  0  0  0
  -24.9344  -21.8725   19.6803 H   0  0  0  0  0  0
  -25.8253  -20.8673   20.7931 H   0  0  0  0  0  0
  -26.3497  -24.8382   21.0988 H   0  0  0  0  0  0
  -25.0145  -23.7322   21.2930 H   0  0  0  0  0  0
  -25.4039  -24.3185   19.6822 H   0  0  0  0  0  0
  -27.8174  -20.3263   21.5372 H   0  0  0  0  0  0
  -28.0697  -19.8993   19.8464 H   0  0  0  0  0  0
  -27.6372  -25.0042   18.9880 H   0  0  0  0  0  0
  -29.2412  -25.4311   18.7700 H   0  0  0  0  0  0
  -28.9568  -15.1989   21.2889 H   0  0  0  0  0  0
  -29.6540  -21.8195   21.2398 H   0  0  0  0  0  0
  1 25  1  0  0  0
  1 30  2  0  0  0
  1 88  1  0  0  0
  2  3  1  0  0  0
  2 25  1  0  0  0
  2 91  1  0  0  0
  2 92  1  0  0  0
  3  4  1  0  0  0
  3 93  1  0  0  0
  3 94  1  0  0  0
  4  5  1  0  0  0
  4 95  1  0  0  0
  4 96  1  0  0  0
  5  6  1  0  0  0
  5 26  1  0  0  0
  5 97  1  0  0  0
  6 25  1  0  0  0
  6 98  1  0  0  0
  6 99  1  0  0  0
  7  8  2  0  0  0
  7 26  1  0  0  0
  7 29  1  0  0  0
  8  9  1  0  0  0
  8 22  1  0  0  0
  9 10  1  0  0  0
  9 27  2  0  0  0
 10 11  2  0  0  0
 10 15  1  0  0  0
 11 12  1  0  0  0
 11100  1  0  0  0
 12 13  2  0  0  0
 12101  1  0  0  0
 13 14  1  0  0  0
 13 31  1  0  0  0
 14 15  2  0  0  0
 14102  1  0  0  0
 15103  1  0  0  0
 16 17  2  0  0  0
 16 21  1  0  0  0
 16 31  1  0  0  0
 17 18  1  0  0  0
 17104  1  0  0  0
 18 19  2  0  0  0
 18105  1  0  0  0
 19 20  1  0  0  0
 19 24  1  0  0  0
 20 21  2  0  0  0
 20106  1  0  0  0
 21 23  1  0  0  0
 22 28  1  0  0  0
 22 32  2  0  0  0
 26 27  1  0  0  0
 28107  1  0  0  0
 28108  1  0  0  0
 29109  1  0  0  0
 29110  1  0  0  0
 33 34  1  0  0  0
 33 66  1  0  0  0
 33 70  2  0  0  0
 34 36  1  0  0  0
 34 59  1  0  0  0
 34111  1  0  0  0
 35 44  2  0  0  0
 35 45  1  0  0  0
 35 68  1  0  0  0
 36 56  1  0  0  0
 36112  1  0  0  0
 37 39  1  0  0  0
 37 47  1  0  0  0
 37 66  1  0  0  0
 37113  1  0  0  0
 38 43  2  0  0  0
 38 46  1  0  0  0
 38 47  1  0  0  0
 39 64  1  0  0  0
 39 67  2  0  0  0
 40 52  1  0  0  0
 40 53  2  0  0  0
 40 58  1  0  0  0
 41114  1  0  0  0
 41115  1  0  0  0
 41116  1  0  0  0
 41 48  1  0  0  0
 42 43  1  0  0  0
 42 66  1  0  0  0
 42117  1  0  0  0
 42118  1  0  0  0
 43 44  1  0  0  0
 44119  1  0  0  0
 45 46  2  0  0  0
 45120  1  0  0  0
 46121  1  0  0  0
 47122  1  0  0  0
 47123  1  0  0  0
 48 56  1  0  0  0
 48 65  1  0  0  0
 48124  1  0  0  0
 49 50  1  0  0  0
 49 53  1  0  0  0
 49 64  1  0  0  0
 49125  1  0  0  0
 50 51  1  0  0  0
 50126  1  0  0  0
 50127  1  0  0  0
 51 52  1  0  0  0
 51128  1  0  0  0
 51129  1  0  0  0
 52130  1  0  0  0
 52131  1  0  0  0
 53 54  1  0  0  0
 54 55  2  0  0  0
 54132  1  0  0  0
 55 57  1  0  0  0
 55133  1  0  0  0
 56 69  2  0  0  0
 57 58  2  0  0  0
 57134  1  0  0  0
 58135  1  0  0  0
 59 60  1  0  0  0
 59 61  1  0  0  0
 59 62  1  0  0  0
 60136  1  0  0  0
 60137  1  0  0  0
 60138  1  0  0  0
 61139  1  0  0  0
 61140  1  0  0  0
 61141  1  0  0  0
 62142  1  0  0  0
 62143  1  0  0  0
 62144  1  0  0  0
 63 65  1  0  0  0
 63145  1  0  0  0
 63146  1  0  0  0
 63147  1  0  0  0
 64148  1  0  0  0
 65149  1  0  0  0
 68 87  1  0  0  0
 71 73  2  0  0  0
 71 74  1  0  0  0
 71150  1  0  0  0
 72 73  1  0  0  0
 72 75  2  0  0  0
 72151  1  0  0  0
 73 83  1  0  0  0
 74 76  2  0  0  0
 74 86  1  0  0  0
 75 76  1  0  0  0
 75 88  1  0  0  0
 76 90  1  0  0  0
 77 78  2  0  0  0
 77 82  1  0  0  0
 77 89  1  0  0  0
 78 84  1  0  0  0
 78 85  1  0  0  0
 79 80  1  0  0  0
 79 81  1  0  0  0
 79152  1  0  0  0
 79153  1  0  0  0
 80 82  1  0  0  0
 80154  1  0  0  0
 80155  1  0  0  0
 81 89  1  0  0  0
 81156  1  0  0  0
 81157  1  0  0  0
 82 87  1  0  0  0
 82158  1  0  0  0
 83159  1  0  0  0
 83160  1  0  0  0
 83161  1  0  0  0
 84162  1  0  0  0
 84163  1  0  0  0
 84164  1  0  0  0
 85165  1  0  0  0
 85166  1  0  0  0
 85167  1  0  0  0
 86168  1  0  0  0
 86169  1  0  0  0
 86 89  1  0  0  0
 87170  1  0  0  0
 87171  1  0  0  0
 88172  1  0  0  0
 89173  1  0  0  0
M  CHG  1  89   1
M  ISO  4   1 100  68 101  87 101  88 100
M  END
> <chiral flag>
0

> <version>
0

> <s_m_source_file>
/data/baiqing/PycharmProjects/Reinvent-master-3.2/result/LINK_invent/BTK/process_docking_weight1_custom_product_contain_oxygen_bond_distance_aromatic_linkinvent_7_9_3/rearranged_h_0043.sdf

> <i_m_source_file_index>
51

> <r_mmod_Potential_Energy-OPLS-2005>
-87.1189422607422

> <r_mmod_Stretch_Energy-OPLS-2005>
56.0818023681641

> <r_mmod_Bend_Energy-OPLS-2005>
139.352447509766

> <r_mmod_Torsional_Energy-OPLS-2005>
272.809478759766

> <r_mmod_Improper_Torsional_Energy-OPLS-2005>
3.89917707443237

> <r_mmod_Van_der_Waal_Energy-OPLS-2005>
183.49528503418

> <r_mmod_Electrostatic_Energy-OPLS-2005>
-339.067504882812

> <r_mmod_Solvation_Energy-OPLS-2005>
-419.965545654297

> <b_mmod_Minimization_Converged-OPLS-2005>
0

> <r_mmod_RMS_Derivative-OPLS-2005>
4.48251724243164

$$$$
51
                    3D
 Structure written by MMmdl.
165174  0  0  1  0            999 V2000
  -30.6426  -14.5374   20.5434 C   0  0  0  0  0  0
  -30.4396  -12.3372   19.4314 C   0  0  0  0  0  0
  -29.5039  -12.5057   18.2137 C   0  0  0  0  0  0
  -28.0238  -12.3593   18.6236 C   0  0  0  0  0  0
  -27.6624  -13.2026   19.8751 C   0  0  2  0  0  0
  -28.7044  -12.9850   20.9959 C   0  0  0  0  0  0
  -25.2598  -13.8149   20.5679 C   0  0  0  0  0  0
  -24.1839  -13.0435   20.9180 C   0  0  0  0  0  0
  -24.6378  -11.6899   20.8725 C   0  0  0  0  0  0
  -23.9039  -10.4290   21.0394 C   0  0  0  0  0  0
  -24.3597   -9.4211   21.9175 C   0  0  0  0  0  0
  -23.6280   -8.2242   22.0749 C   0  0  0  0  0  0
  -22.4267   -8.0275   21.3537 C   0  0  0  0  0  0
  -21.9891   -9.0246   20.4639 C   0  0  0  0  0  0
  -22.7208  -10.2131   20.3045 C   0  0  0  0  0  0
  -21.6853   -6.0726   22.5278 C   0  0  0  0  0  0
  -21.4011   -6.5633   23.8208 C   0  0  0  0  0  0
  -21.3660   -5.6789   24.9172 C   0  0  0  0  0  0
  -21.6047   -4.3052   24.7226 C   0  0  0  0  0  0
  -21.8818   -3.8141   23.4348 C   0  0  0  0  0  0
  -21.9192   -4.6954   22.3403 C   0  0  0  0  0  0
  -22.7863  -13.5240   21.1856 C   0  0  0  0  0  0
  -22.1661   -4.2139   21.0982 F   0  0  0  0  0  0
  -21.5633   -3.4537   25.7741 F   0  0  0  0  0  0
  -30.0332  -13.3198   20.4506 N   0  0  0  0  0  0
  -26.3023  -12.9302   20.3350 N   0  0  0  0  0  0
  -25.9304  -11.6472   20.5747 N   0  0  0  0  0  0
  -22.0496  -12.8236   22.0407 N   0  0  0  0  0  0
  -25.4344  -15.1864   20.4077 N   0  0  0  0  0  0
  -31.7705  -14.7504   20.0872 O   0  0  0  0  0  0
  -21.6638   -6.8869   21.4242 O   0  0  0  0  0  0
  -22.3547  -14.5547   20.6704 O   0  0  0  0  0  0
  -24.6191  -31.8640   23.2062 C   0  0  0  0  0  0
  -25.9061  -32.4808   23.8373 C   0  0  1  0  0  0
  -27.2353  -27.3926   20.0911 C   0  0  0  0  0  0
  -25.5899  -33.8610   24.2301 N   0  0  0  0  0  0
  -23.4088  -30.4883   21.5472 C   0  0  2  0  0  0
  -24.8543  -28.9478   20.1126 C   0  0  0  0  0  0
  -22.7435  -29.4642   22.4954 C   0  0  0  0  0  0
  -18.0282  -28.1380   22.8485 C   0  0  0  0  0  0
  -24.1487  -36.7307   23.2642 C   0  0  0  0  0  0
  -25.9428  -30.8158   21.3657 C   0  0  0  0  0  0
  -26.0174  -29.4476   20.7101 C   0  0  0  0  0  0
  -27.2079  -28.6785   20.6938 C   0  0  0  0  0  0
  -26.0476  -26.9172   19.4874 C   0  0  0  0  0  0
  -24.8666  -27.6843   19.4985 C   0  0  0  0  0  0
  -23.6194  -29.8206   20.1621 C   0  0  0  0  0  0
  -25.4106  -36.3101   24.0341 C   0  0  1  0  0  0
  -20.5876  -28.3667   23.1313 C   0  0  2  0  0  0
  -20.6767  -26.9400   22.5418 C   0  0  0  0  0  0
  -19.5743  -26.6379   21.5219 C   0  0  0  0  0  0
  -18.1920  -26.7922   22.1619 C   0  0  0  0  0  0
  -19.1533  -28.8834   23.2899 C   0  0  0  0  0  0
  -18.9464  -30.1436   23.8915 C   0  0  0  0  0  0
  -17.6467  -30.6584   24.0565 C   0  0  0  0  0  0
  -25.9038  -34.9471   23.5115 C   0  0  0  0  0  0
  -16.5353  -29.9089   23.6333 C   0  0  0  0  0  0
  -16.7270  -28.6508   23.0346 C   0  0  0  0  0  0
  -26.4476  -31.6606   25.0717 C   0  0  0  0  0  0
  -25.3737  -31.3738   26.1466 C   0  0  0  0  0  0
  -27.0305  -30.3043   24.6108 C   0  0  0  0  0  0
  -27.6040  -32.4334   25.7484 C   0  0  0  0  0  0
  -27.5581  -37.1804   24.8469 C   0  0  0  0  0  0
  -21.4153  -29.3042   22.3721 N   0  0  0  0  0  0
  -26.4287  -37.3784   23.9417 N   0  0  0  0  0  0
  -24.6757  -31.0705   22.0980 N   0  0  0  0  0  0
  -23.4197  -28.8177   23.3000 O   0  0  0  0  0  0
  -28.4063  -26.6450   20.1148 O   0  0  0  0  0  0
  -26.5603  -34.8928   22.4680 O   0  0  0  0  0  0
  -23.5371  -32.1407   23.7432 O   0  0  0  0  0  0
  -28.2891  -18.9067   20.7983 C   0  0  0  0  0  0
  -28.5288  -17.5483   21.1103 C   0  0  0  0  0  0
  -30.7264  -17.7063   20.1209 C   0  0  0  0  0  0
  -29.2590  -19.7072   20.1508 C   0  0  0  0  0  0
  -29.7425  -16.9124   20.7642 C   0  0  0  0  0  0
  -30.4898  -19.0758   19.8139 C   0  0  0  0  0  0
  -30.0282  -23.3057   20.4429 C   0  0  0  0  0  0
  -28.5423  -22.2257   21.9715 C   0  0  0  0  0  0
  -29.7242  -24.5678   20.0221 C   0  0  0  0  0  0
  -31.4494  -22.9680   20.8866 C   0  0  0  0  0  0
  -29.2164  -23.0413   23.0889 C   0  0  0  0  0  0
  -31.5209  -22.1058   22.1671 C   0  0  0  0  0  0
  -30.6951  -22.6462   23.3630 C   0  0  0  0  0  0
  -28.9060  -21.1743   19.7461 C   0  0  0  0  0  0
  -28.3822  -25.2472   19.7261 C   0  0  0  0  0  0
  -29.1008  -22.2720   20.7357 N   0  0  0  0  0  0
  -29.8684  -15.5102   21.0844 N   0  0  0  0  0  0
  -27.5598  -21.5336   22.2544 O   0  0  0  0  0  0
  -31.7275  -19.9413   18.9769 Cl  0  0  0  0  0  0
  -31.4802  -12.4637   19.1279 H   0  0  0  0  0  0
  -30.3705  -11.3258   19.8352 H   0  0  0  0  0  0
  -29.7511  -11.7700   17.4472 H   0  0  0  0  0  0
  -29.6639  -13.4842   17.7584 H   0  0  0  0  0  0
  -27.8401  -11.3035   18.8256 H   0  0  0  0  0  0
  -27.3740  -12.6254   17.7889 H   0  0  0  0  0  0
  -27.7047  -14.2493   19.5739 H   0  0  0  0  0  0
  -28.6945  -11.9435   21.3197 H   0  0  0  0  0  0
  -28.4538  -13.5649   21.8855 H   0  0  0  0  0  0
  -25.2741   -9.5701   22.4747 H   0  0  0  0  0  0
  -24.0000   -7.4634   22.7462 H   0  0  0  0  0  0
  -21.0827   -8.8744   19.8944 H   0  0  0  0  0  0
  -22.3650  -10.9663   19.6157 H   0  0  0  0  0  0
  -21.1996   -7.6140   23.9710 H   0  0  0  0  0  0
  -21.1488   -6.0519   25.9077 H   0  0  0  0  0  0
  -22.0597   -2.7603   23.2852 H   0  0  0  0  0  0
  -22.4103  -11.9900   22.4809 H   0  0  0  0  0  0
  -21.1105  -13.1258   22.2593 H   0  0  0  0  0  0
  -24.6684  -15.8434   20.5076 H   0  0  0  0  0  0
  -26.2779  -15.6165   20.0505 H   0  0  0  0  0  0
  -26.7131  -32.5493   23.1130 H   0  0  0  0  0  0
  -25.0073  -33.9778   25.0464 H   0  0  0  0  0  0
  -22.6994  -31.3066   21.4064 H   0  0  0  0  0  0
  -23.3750  -35.9641   23.3309 H   0  0  0  0  0  0
  -24.3585  -36.8906   22.2058 H   0  0  0  0  0  0
  -23.7238  -37.6513   23.6651 H   0  0  0  0  0  0
  -26.0606  -31.5811   20.5971 H   0  0  0  0  0  0
  -26.8305  -30.8684   21.9857 H   0  0  0  0  0  0
  -28.1066  -29.0613   21.1570 H   0  0  0  0  0  0
  -26.0105  -25.9533   19.0012 H   0  0  0  0  0  0
  -23.9725  -27.2950   19.0303 H   0  0  0  0  0  0
  -23.7325  -30.5966   19.4042 H   0  0  0  0  0  0
  -22.7424  -29.2444   19.8623 H   0  0  0  0  0  0
  -25.1285  -36.1963   25.0834 H   0  0  0  0  0  0
  -20.9975  -28.3219   24.1430 H   0  0  0  0  0  0
  -20.5663  -26.2275   23.3605 H   0  0  0  0  0  0
  -21.6640  -26.7421   22.1215 H   0  0  0  0  0  0
  -19.6909  -25.6293   21.1241 H   0  0  0  0  0  0
  -19.6690  -27.3195   20.6756 H   0  0  0  0  0  0
  -17.4195  -26.6689   21.4011 H   0  0  0  0  0  0
  -18.0301  -26.0058   22.9008 H   0  0  0  0  0  0
  -19.7941  -30.7250   24.2290 H   0  0  0  0  0  0
  -17.5026  -31.6271   24.5152 H   0  0  0  0  0  0
  -15.5358  -30.3001   23.7648 H   0  0  0  0  0  0
  -15.8665  -28.0840   22.7050 H   0  0  0  0  0  0
  -24.5922  -30.7057   25.7819 H   0  0  0  0  0  0
  -24.8920  -32.2910   26.4869 H   0  0  0  0  0  0
  -25.8093  -30.8953   27.0247 H   0  0  0  0  0  0
  -26.2850  -29.6811   24.1152 H   0  0  0  0  0  0
  -27.4066  -29.7269   25.4563 H   0  0  0  0  0  0
  -27.8688  -30.4362   23.9263 H   0  0  0  0  0  0
  -27.2649  -33.3631   26.2069 H   0  0  0  0  0  0
  -28.3851  -32.6899   25.0315 H   0  0  0  0  0  0
  -28.0709  -31.8459   26.5400 H   0  0  0  0  0  0
  -28.2600  -38.0098   24.7505 H   0  0  0  0  0  0
  -28.1070  -36.2629   24.6295 H   0  0  0  0  0  0
  -27.2309  -37.1456   25.8874 H   0  0  0  0  0  0
  -20.9307  -29.8798   21.6978 H   0  0  0  0  0  0
  -26.0179  -38.2862   24.1417 H   0  0  0  0  0  0
  -27.3255  -19.3284   21.0451 H   0  0  0  0  0  0
  -27.7440  -16.9895   21.6027 H   0  0  0  0  0  0
  -31.6747  -17.2748   19.8373 H   0  0  0  0  0  0
  -30.5552  -25.2475   19.8927 H   0  0  0  0  0  0
  -31.9866  -23.8983   21.0786 H   0  0  0  0  0  0
  -31.9779  -22.4847   20.0658 H   0  0  0  0  0  0
  -28.6373  -22.9431   24.0077 H   0  0  0  0  0  0
  -29.1559  -24.0982   22.8257 H   0  0  0  0  0  0
  -32.5635  -22.0120   22.4722 H   0  0  0  0  0  0
  -31.2071  -21.0853   21.9403 H   0  0  0  0  0  0
  -30.7175  -21.8976   24.1561 H   0  0  0  0  0  0
  -31.2063  -23.5172   23.7741 H   0  0  0  0  0  0
  -27.8570  -21.1933   19.4492 H   0  0  0  0  0  0
  -29.4430  -21.4262   18.8317 H   0  0  0  0  0  0
  -28.2061  -25.1841   18.6509 H   0  0  0  0  0  0
  -27.5830  -24.7056   20.2334 H   0  0  0  0  0  0
  -29.0600  -15.1234   21.5462 H   0  0  0  0  0  0
  1 25  1  0  0  0
  1 30  2  0  0  0
  1 87  1  0  0  0
  2  3  1  0  0  0
  2 25  1  0  0  0
  2 90  1  0  0  0
  2 91  1  0  0  0
  3  4  1  0  0  0
  3 92  1  0  0  0
  3 93  1  0  0  0
  4  5  1  0  0  0
  4 94  1  0  0  0
  4 95  1  0  0  0
  5  6  1  0  0  0
  5 26  1  0  0  0
  5 96  1  0  0  0
  6 25  1  0  0  0
  6 97  1  0  0  0
  6 98  1  0  0  0
  7  8  2  0  0  0
  7 26  1  0  0  0
  7 29  1  0  0  0
  8  9  1  0  0  0
  8 22  1  0  0  0
  9 10  1  0  0  0
  9 27  2  0  0  0
 10 11  2  0  0  0
 10 15  1  0  0  0
 11 12  1  0  0  0
 11 99  1  0  0  0
 12 13  2  0  0  0
 12100  1  0  0  0
 13 14  1  0  0  0
 13 31  1  0  0  0
 14 15  2  0  0  0
 14101  1  0  0  0
 15102  1  0  0  0
 16 17  2  0  0  0
 16 21  1  0  0  0
 16 31  1  0  0  0
 17 18  1  0  0  0
 17103  1  0  0  0
 18 19  2  0  0  0
 18104  1  0  0  0
 19 20  1  0  0  0
 19 24  1  0  0  0
 20 21  2  0  0  0
 20105  1  0  0  0
 21 23  1  0  0  0
 22 28  1  0  0  0
 22 32  2  0  0  0
 26 27  1  0  0  0
 28106  1  0  0  0
 28107  1  0  0  0
 29108  1  0  0  0
 29109  1  0  0  0
 33 34  1  0  0  0
 33 66  1  0  0  0
 33 70  2  0  0  0
 34 36  1  0  0  0
 34 59  1  0  0  0
 34110  1  0  0  0
 35 44  2  0  0  0
 35 45  1  0  0  0
 35 68  1  0  0  0
 36 56  1  0  0  0
 36111  1  0  0  0
 37 39  1  0  0  0
 37 47  1  0  0  0
 37 66  1  0  0  0
 37112  1  0  0  0
 38 43  2  0  0  0
 38 46  1  0  0  0
 38 47  1  0  0  0
 39 64  1  0  0  0
 39 67  2  0  0  0
 40 52  1  0  0  0
 40 53  2  0  0  0
 40 58  1  0  0  0
 41113  1  0  0  0
 41114  1  0  0  0
 41115  1  0  0  0
 41 48  1  0  0  0
 42 43  1  0  0  0
 42 66  1  0  0  0
 42116  1  0  0  0
 42117  1  0  0  0
 43 44  1  0  0  0
 44118  1  0  0  0
 45 46  2  0  0  0
 45119  1  0  0  0
 46120  1  0  0  0
 47121  1  0  0  0
 47122  1  0  0  0
 48 56  1  0  0  0
 48 65  1  0  0  0
 48123  1  0  0  0
 49 50  1  0  0  0
 49 53  1  0  0  0
 49 64  1  0  0  0
 49124  1  0  0  0
 50 51  1  0  0  0
 50125  1  0  0  0
 50126  1  0  0  0
 51 52  1  0  0  0
 51127  1  0  0  0
 51128  1  0  0  0
 52129  1  0  0  0
 52130  1  0  0  0
 53 54  1  0  0  0
 54 55  2  0  0  0
 54131  1  0  0  0
 55 57  1  0  0  0
 55132  1  0  0  0
 56 69  2  0  0  0
 57 58  2  0  0  0
 57133  1  0  0  0
 58134  1  0  0  0
 59 60  1  0  0  0
 59 61  1  0  0  0
 59 62  1  0  0  0
 60135  1  0  0  0
 60136  1  0  0  0
 60137  1  0  0  0
 61138  1  0  0  0
 61139  1  0  0  0
 61140  1  0  0  0
 62141  1  0  0  0
 62142  1  0  0  0
 62143  1  0  0  0
 63 65  1  0  0  0
 63144  1  0  0  0
 63145  1  0  0  0
 63146  1  0  0  0
 64147  1  0  0  0
 65148  1  0  0  0
 68 85  1  0  0  0
 71 72  2  0  0  0
 71 74  1  0  0  0
 71149  1  0  0  0
 72 75  1  0  0  0
 72150  1  0  0  0
 73 75  2  0  0  0
 73 76  1  0  0  0
 73151  1  0  0  0
 74 76  2  0  0  0
 74 84  1  0  0  0
 75 87  1  0  0  0
 76 89  1  0  0  0
 77 79  2  0  0  0
 77 80  1  0  0  0
 77 86  1  0  0  0
 78 81  1  0  0  0
 78 86  1  0  0  0
 78 88  2  0  0  0
 79 85  1  0  0  0
 79152  1  0  0  0
 80 82  1  0  0  0
 80153  1  0  0  0
 80154  1  0  0  0
 81 83  1  0  0  0
 81155  1  0  0  0
 81156  1  0  0  0
 82 83  1  0  0  0
 82157  1  0  0  0
 82158  1  0  0  0
 83159  1  0  0  0
 83160  1  0  0  0
 84 86  1  0  0  0
 84161  1  0  0  0
 84162  1  0  0  0
 85163  1  0  0  0
 85164  1  0  0  0
 87165  1  0  0  0
M  ISO  4   1 100  68 101  85 101  87 100
M  END
> <chiral flag>
0

> <version>
0

> <s_m_source_file>
/data/baiqing/PycharmProjects/Reinvent-master-3.2/result/LINK_invent/BTK/process_docking_weight1_custom_product_contain_oxygen_bond_distance_aromatic_linkinvent_7_9_3/rearranged_h_0043.sdf

> <i_m_source_file_index>
52

> <r_mmod_Potential_Energy-OPLS-2005>
111.793792724609

> <r_mmod_Stretch_Energy-OPLS-2005>
55.5970649719238

> <r_mmod_Bend_Energy-OPLS-2005>
128.62841796875

> <r_mmod_Torsional_Energy-OPLS-2005>
279.152191162109

> <r_mmod_Improper_Torsional_Energy-OPLS-2005>
5.12438488006592

> <r_mmod_Van_der_Waal_Energy-OPLS-2005>
158.635040283203

> <r_mmod_Electrostatic_Energy-OPLS-2005>
-326.193634033203

> <r_mmod_Solvation_Energy-OPLS-2005>
-210.171447753906

> <b_mmod_Minimization_Converged-OPLS-2005>
0

> <r_mmod_RMS_Derivative-OPLS-2005>
1.24102568626404

$$$$
52
                    3D
 Structure written by MMmdl.
170179  0  0  1  0            999 V2000
  -30.5972  -14.6593   20.5181 C   0  0  0  0  0  0
  -30.4404  -12.4122   19.4438 C   0  0  0  0  0  0
  -29.5019  -12.5383   18.2209 C   0  0  0  0  0  0
  -28.0237  -12.3713   18.6304 C   0  0  0  0  0  0
  -27.6519  -13.2193   19.8755 C   0  0  2  0  0  0
  -28.7016  -13.0512   20.9981 C   0  0  0  0  0  0
  -25.2528  -13.8170   20.5722 C   0  0  0  0  0  0
  -24.1820  -13.0417   20.9221 C   0  0  0  0  0  0
  -24.6407  -11.6902   20.8756 C   0  0  0  0  0  0
  -23.9076  -10.4282   21.0428 C   0  0  0  0  0  0
  -24.3630   -9.4190   21.9203 C   0  0  0  0  0  0
  -23.6308   -8.2219   22.0768 C   0  0  0  0  0  0
  -22.4281   -8.0275   21.3554 C   0  0  0  0  0  0
  -21.9919   -9.0238   20.4644 C   0  0  0  0  0  0
  -22.7251  -10.2122   20.3062 C   0  0  0  0  0  0
  -21.6856   -6.0754   22.5294 C   0  0  0  0  0  0
  -21.3997   -6.5650   23.8227 C   0  0  0  0  0  0
  -21.3668   -5.6808   24.9195 C   0  0  0  0  0  0
  -21.6058   -4.3068   24.7225 C   0  0  0  0  0  0
  -21.8827   -3.8155   23.4340 C   0  0  0  0  0  0
  -21.9183   -4.6980   22.3402 C   0  0  0  0  0  0
  -22.7837  -13.5188   21.1872 C   0  0  0  0  0  0
  -22.1673   -4.2158   21.0991 F   0  0  0  0  0  0
  -21.5619   -3.4558   25.7737 F   0  0  0  0  0  0
  -30.0125  -13.4194   20.4364 N   0  0  0  0  0  0
  -26.2987  -12.9371   20.3407 N   0  0  0  0  0  0
  -25.9340  -11.6512   20.5781 N   0  0  0  0  0  0
  -22.0492  -12.8141   22.0411 N   0  0  0  0  0  0
  -25.4193  -15.1909   20.4147 N   0  0  0  0  0  0
  -31.7566  -14.8511   20.1417 O   0  0  0  0  0  0
  -21.6641   -6.8887   21.4255 O   0  0  0  0  0  0
  -22.3514  -14.5505   20.6761 O   0  0  0  0  0  0
  -24.6243  -31.8602   23.1989 C   0  0  0  0  0  0
  -25.9085  -32.4784   23.8325 C   0  0  1  0  0  0
  -27.2390  -27.3329   20.1094 C   0  0  0  0  0  0
  -25.5901  -33.8576   24.2243 N   0  0  0  0  0  0
  -23.4143  -30.4829   21.5445 C   0  0  2  0  0  0
  -24.8629  -28.9321   20.1182 C   0  0  0  0  0  0
  -22.7428  -29.4664   22.4978 C   0  0  0  0  0  0
  -18.0273  -28.1365   22.8490 C   0  0  0  0  0  0
  -24.1488  -36.7305   23.2641 C   0  0  0  0  0  0
  -25.9544  -30.7989   21.3633 C   0  0  0  0  0  0
  -26.0324  -29.4260   20.7062 C   0  0  0  0  0  0
  -27.2212  -28.6406   20.6839 C   0  0  0  0  0  0
  -26.0324  -26.8740   19.5300 C   0  0  0  0  0  0
  -24.8628  -27.6593   19.5268 C   0  0  0  0  0  0
  -23.6235  -29.8046   20.1658 C   0  0  0  0  0  0
  -25.4115  -36.3092   24.0323 C   0  0  1  0  0  0
  -20.5868  -28.3678   23.1300 C   0  0  2  0  0  0
  -20.6758  -26.9408   22.5415 C   0  0  0  0  0  0
  -19.5748  -26.6373   21.5204 C   0  0  0  0  0  0
  -18.1924  -26.7915   22.1616 C   0  0  0  0  0  0
  -19.1522  -28.8835   23.2885 C   0  0  0  0  0  0
  -18.9451  -30.1432   23.8895 C   0  0  0  0  0  0
  -17.6454  -30.6579   24.0562 C   0  0  0  0  0  0
  -25.9052  -34.9462   23.5096 C   0  0  0  0  0  0
  -16.5341  -29.9075   23.6328 C   0  0  0  0  0  0
  -16.7261  -28.6478   23.0380 C   0  0  0  0  0  0
  -26.4461  -31.6600   25.0705 C   0  0  0  0  0  0
  -25.3700  -31.3700   26.1424 C   0  0  0  0  0  0
  -27.0322  -30.3034   24.6164 C   0  0  0  0  0  0
  -27.5994  -32.4345   25.7514 C   0  0  0  0  0  0
  -27.5585  -37.1804   24.8460 C   0  0  0  0  0  0
  -21.4155  -29.3046   22.3705 N   0  0  0  0  0  0
  -26.4297  -37.3783   23.9402 N   0  0  0  0  0  0
  -24.6834  -31.0633   22.0932 N   0  0  0  0  0  0
  -23.4162  -28.8226   23.3073 O   0  0  0  0  0  0
  -28.4096  -26.5565   20.1524 O   0  0  0  0  0  0
  -26.5627  -34.8923   22.4660 O   0  0  0  0  0  0
  -23.5415  -32.1409   23.7322 O   0  0  0  0  0  0
  -30.3316  -17.9356   21.7863 C   0  0  0  0  0  0
  -30.0528  -19.3314   21.9047 C   0  0  0  0  0  0
  -28.6662  -19.2183   19.9199 C   0  0  0  0  0  0
  -29.1831  -20.0163   20.9920 C   0  0  0  0  0  0
  -28.9715  -17.8136   19.8022 C   0  0  0  0  0  0
  -29.7705  -17.1289   20.7690 C   0  0  0  0  0  0
  -28.3865  -24.0746   20.8527 C   0  0  0  0  0  0
  -27.9587  -24.3533   22.0987 C   0  0  0  0  0  0
  -30.9059  -24.2376   19.7267 C   0  0  0  0  0  0
  -29.8000  -24.9544   18.9170 C   0  0  0  0  0  0
  -30.4887  -22.8287   20.2295 C   0  0  0  0  0  0
  -28.4839  -25.1435   19.7140 C   0  0  2  0  0  0
  -30.6196  -20.0328   23.1313 C   0  0  0  0  0  0
  -27.6975  -19.8435   18.9106 C   0  0  0  0  0  0
  -28.3784  -17.0202   18.6434 C   0  0  0  0  0  0
  -28.6498  -21.4875   21.3003 C   0  0  0  0  0  0
  -29.7478  -15.6689   20.8967 N   0  0  0  0  0  0
  -29.0258  -22.7096   20.4704 N   0  3  1  0  0  0
  -31.4769  -12.5589   19.1356 H   0  0  0  0  0  0
  -30.3847  -11.4097   19.8695 H   0  0  0  0  0  0
  -29.7587  -11.8012   17.4584 H   0  0  0  0  0  0
  -29.6395  -13.5156   17.7550 H   0  0  0  0  0  0
  -27.8461  -11.3138   18.8332 H   0  0  0  0  0  0
  -27.3728  -12.6355   17.7962 H   0  0  0  0  0  0
  -27.6662  -14.2594   19.5574 H   0  0  0  0  0  0
  -28.7201  -12.0191   21.3521 H   0  0  0  0  0  0
  -28.4436  -13.6500   21.8726 H   0  0  0  0  0  0
  -25.2784   -9.5650   22.4759 H   0  0  0  0  0  0
  -24.0030   -7.4606   22.7482 H   0  0  0  0  0  0
  -21.0865   -8.8774   19.8911 H   0  0  0  0  0  0
  -22.3756  -10.9670   19.6153 H   0  0  0  0  0  0
  -21.2017   -7.6165   23.9732 H   0  0  0  0  0  0
  -21.1484   -6.0545   25.9107 H   0  0  0  0  0  0
  -22.0597   -2.7603   23.2860 H   0  0  0  0  0  0
  -22.4151  -11.9808   22.4771 H   0  0  0  0  0  0
  -21.1109  -13.1148   22.2646 H   0  0  0  0  0  0
  -24.6418  -15.8346   20.5185 H   0  0  0  0  0  0
  -26.2721  -15.6439   20.1106 H   0  0  0  0  0  0
  -26.7152  -32.5484   23.1074 H   0  0  0  0  0  0
  -25.0004  -33.9706   25.0360 H   0  0  0  0  0  0
  -22.7084  -31.3030   21.3939 H   0  0  0  0  0  0
  -23.3774  -35.9615   23.3284 H   0  0  0  0  0  0
  -24.3573  -36.8956   22.2058 H   0  0  0  0  0  0
  -23.7207  -37.6476   23.6695 H   0  0  0  0  0  0
  -26.0743  -31.5622   20.5931 H   0  0  0  0  0  0
  -26.8388  -30.8547   21.9887 H   0  0  0  0  0  0
  -28.1250  -29.0270   21.1328 H   0  0  0  0  0  0
  -25.9414  -25.8951   19.0937 H   0  0  0  0  0  0
  -23.9591  -27.2601   19.0864 H   0  0  0  0  0  0
  -23.7216  -30.5677   19.3933 H   0  0  0  0  0  0
  -22.7474  -29.2174   19.8849 H   0  0  0  0  0  0
  -25.1295  -36.1947   25.0819 H   0  0  0  0  0  0
  -20.9934  -28.3235   24.1432 H   0  0  0  0  0  0
  -20.5646  -26.2278   23.3590 H   0  0  0  0  0  0
  -21.6633  -26.7437   22.1234 H   0  0  0  0  0  0
  -19.6918  -25.6276   21.1244 H   0  0  0  0  0  0
  -19.6694  -27.3153   20.6711 H   0  0  0  0  0  0
  -17.4192  -26.6675   21.4011 H   0  0  0  0  0  0
  -18.0318  -26.0029   22.8986 H   0  0  0  0  0  0
  -19.7923  -30.7251   24.2281 H   0  0  0  0  0  0
  -17.5008  -31.6281   24.5142 H   0  0  0  0  0  0
  -15.5333  -30.2988   23.7642 H   0  0  0  0  0  0
  -15.8650  -28.0784   22.7131 H   0  0  0  0  0  0
  -24.5880  -30.7045   25.7747 H   0  0  0  0  0  0
  -24.8883  -32.2847   26.4880 H   0  0  0  0  0  0
  -25.8036  -30.8855   27.0179 H   0  0  0  0  0  0
  -26.2911  -29.6770   24.1177 H   0  0  0  0  0  0
  -27.4006  -29.7294   25.4680 H   0  0  0  0  0  0
  -27.8776  -30.4330   23.9403 H   0  0  0  0  0  0
  -27.2584  -33.3661   26.2041 H   0  0  0  0  0  0
  -28.3837  -32.6864   25.0372 H   0  0  0  0  0  0
  -28.0609  -31.8497   26.5476 H   0  0  0  0  0  0
  -28.2570  -38.0135   24.7551 H   0  0  0  0  0  0
  -28.1119  -36.2658   24.6263 H   0  0  0  0  0  0
  -27.2300  -37.1416   25.8861 H   0  0  0  0  0  0
  -20.9306  -29.8802   21.6960 H   0  0  0  0  0  0
  -26.0201  -38.2869   24.1395 H   0  0  0  0  0  0
  -30.9166  -17.4543   22.5598 H   0  0  0  0  0  0
  -27.6031  -25.3431   22.3429 H   0  0  0  0  0  0
  -27.9652  -23.6366   22.9037 H   0  0  0  0  0  0
  -31.1659  -24.8602   20.5850 H   0  0  0  0  0  0
  -31.8241  -24.1630   19.1388 H   0  0  0  0  0  0
  -29.5991  -24.3741   18.0148 H   0  0  0  0  0  0
  -30.1609  -25.9199   18.5614 H   0  0  0  0  0  0
  -31.0342  -22.6141   21.1501 H   0  0  0  0  0  0
  -30.7847  -22.0602   19.5148 H   0  0  0  0  0  0
  -27.6924  -24.9152   19.0063 H   0  0  0  0  0  0
  -31.5099  -19.5245   23.4981 H   0  0  0  0  0  0
  -29.8872  -20.0213   23.9387 H   0  0  0  0  0  0
  -30.9073  -21.0648   22.9370 H   0  0  0  0  0  0
  -27.2142  -20.7524   19.2640 H   0  0  0  0  0  0
  -26.8770  -19.1662   18.6726 H   0  0  0  0  0  0
  -28.2097  -20.0865   17.9790 H   0  0  0  0  0  0
  -28.4991  -17.5628   17.7039 H   0  0  0  0  0  0
  -27.3148  -16.8434   18.8062 H   0  0  0  0  0  0
  -28.8650  -16.0572   18.4993 H   0  0  0  0  0  0
  -28.8804  -21.7268   22.3342 H   0  0  0  0  0  0
  -27.5617  -21.4402   21.3122 H   0  0  0  0  0  0
  -28.8486  -15.3050   21.1652 H   0  0  0  0  0  0
  -28.6601  -22.4885   19.5566 H   0  0  0  0  0  0
  1 25  1  0  0  0
  1 30  2  0  0  0
  1 87  1  0  0  0
  2  3  1  0  0  0
  2 25  1  0  0  0
  2 89  1  0  0  0
  2 90  1  0  0  0
  3  4  1  0  0  0
  3 91  1  0  0  0
  3 92  1  0  0  0
  4  5  1  0  0  0
  4 93  1  0  0  0
  4 94  1  0  0  0
  5  6  1  0  0  0
  5 26  1  0  0  0
  5 95  1  0  0  0
  6 25  1  0  0  0
  6 96  1  0  0  0
  6 97  1  0  0  0
  7  8  2  0  0  0
  7 26  1  0  0  0
  7 29  1  0  0  0
  8  9  1  0  0  0
  8 22  1  0  0  0
  9 10  1  0  0  0
  9 27  2  0  0  0
 10 11  2  0  0  0
 10 15  1  0  0  0
 11 12  1  0  0  0
 11 98  1  0  0  0
 12 13  2  0  0  0
 12 99  1  0  0  0
 13 14  1  0  0  0
 13 31  1  0  0  0
 14 15  2  0  0  0
 14100  1  0  0  0
 15101  1  0  0  0
 16 17  2  0  0  0
 16 21  1  0  0  0
 16 31  1  0  0  0
 17 18  1  0  0  0
 17102  1  0  0  0
 18 19  2  0  0  0
 18103  1  0  0  0
 19 20  1  0  0  0
 19 24  1  0  0  0
 20 21  2  0  0  0
 20104  1  0  0  0
 21 23  1  0  0  0
 22 28  1  0  0  0
 22 32  2  0  0  0
 26 27  1  0  0  0
 28105  1  0  0  0
 28106  1  0  0  0
 29107  1  0  0  0
 29108  1  0  0  0
 33 34  1  0  0  0
 33 66  1  0  0  0
 33 70  2  0  0  0
 34 36  1  0  0  0
 34 59  1  0  0  0
 34109  1  0  0  0
 35 44  2  0  0  0
 35 45  1  0  0  0
 35 68  1  0  0  0
 36 56  1  0  0  0
 36110  1  0  0  0
 37 39  1  0  0  0
 37 47  1  0  0  0
 37 66  1  0  0  0
 37111  1  0  0  0
 38 43  2  0  0  0
 38 46  1  0  0  0
 38 47  1  0  0  0
 39 64  1  0  0  0
 39 67  2  0  0  0
 40 52  1  0  0  0
 40 53  2  0  0  0
 40 58  1  0  0  0
 41112  1  0  0  0
 41113  1  0  0  0
 41114  1  0  0  0
 41 48  1  0  0  0
 42 43  1  0  0  0
 42 66  1  0  0  0
 42115  1  0  0  0
 42116  1  0  0  0
 43 44  1  0  0  0
 44117  1  0  0  0
 45 46  2  0  0  0
 45118  1  0  0  0
 46119  1  0  0  0
 47120  1  0  0  0
 47121  1  0  0  0
 48 56  1  0  0  0
 48 65  1  0  0  0
 48122  1  0  0  0
 49 50  1  0  0  0
 49 53  1  0  0  0
 49 64  1  0  0  0
 49123  1  0  0  0
 50 51  1  0  0  0
 50124  1  0  0  0
 50125  1  0  0  0
 51 52  1  0  0  0
 51126  1  0  0  0
 51127  1  0  0  0
 52128  1  0  0  0
 52129  1  0  0  0
 53 54  1  0  0  0
 54 55  2  0  0  0
 54130  1  0  0  0
 55 57  1  0  0  0
 55131  1  0  0  0
 56 69  2  0  0  0
 57 58  2  0  0  0
 57132  1  0  0  0
 58133  1  0  0  0
 59 60  1  0  0  0
 59 61  1  0  0  0
 59 62  1  0  0  0
 60134  1  0  0  0
 60135  1  0  0  0
 60136  1  0  0  0
 61137  1  0  0  0
 61138  1  0  0  0
 61139  1  0  0  0
 62140  1  0  0  0
 62141  1  0  0  0
 62142  1  0  0  0
 63 65  1  0  0  0
 63143  1  0  0  0
 63144  1  0  0  0
 63145  1  0  0  0
 64146  1  0  0  0
 65147  1  0  0  0
 68 82  1  0  0  0
 71 72  2  0  0  0
 71 76  1  0  0  0
 71148  1  0  0  0
 72 74  1  0  0  0
 72 83  1  0  0  0
 73 74  2  0  0  0
 73 75  1  0  0  0
 73 84  1  0  0  0
 74 86  1  0  0  0
 75 76  2  0  0  0
 75 85  1  0  0  0
 76 87  1  0  0  0
 77 78  2  0  0  0
 77 82  1  0  0  0
 77 88  1  0  0  0
 78149  1  0  0  0
 78150  1  0  0  0
 79 80  1  0  0  0
 79 81  1  0  0  0
 79151  1  0  0  0
 79152  1  0  0  0
 80 82  1  0  0  0
 80153  1  0  0  0
 80154  1  0  0  0
 81 88  1  0  0  0
 81155  1  0  0  0
 81156  1  0  0  0
 82157  1  0  0  0
 83158  1  0  0  0
 83159  1  0  0  0
 83160  1  0  0  0
 84161  1  0  0  0
 84162  1  0  0  0
 84163  1  0  0  0
 85164  1  0  0  0
 85165  1  0  0  0
 85166  1  0  0  0
 86167  1  0  0  0
 86168  1  0  0  0
 86 88  1  0  0  0
 87169  1  0  0  0
 88170  1  0  0  0
M  CHG  1  88   1
M  ISO  4   1 100  68 101  82 101  87 100
M  END
> <chiral flag>
0

> <version>
0

> <s_m_source_file>
/data/baiqing/PycharmProjects/Reinvent-master-3.2/result/LINK_invent/BTK/process_docking_weight1_custom_product_contain_oxygen_bond_distance_aromatic_linkinvent_7_9_3/rearranged_h_0043.sdf

> <i_m_source_file_index>
53

> <r_mmod_Potential_Energy-OPLS-2005>
10.0417985916138

> <r_mmod_Stretch_Energy-OPLS-2005>
94.1339416503906

> <r_mmod_Bend_Energy-OPLS-2005>
161.314483642578

> <r_mmod_Torsional_Energy-OPLS-2005>
270.831085205078

> <r_mmod_Improper_Torsional_Energy-OPLS-2005>
8.12610816955566

> <r_mmod_Van_der_Waal_Energy-OPLS-2005>
154.958343505859

> <r_mmod_Electrostatic_Energy-OPLS-2005>
-298.808349609375

> <r_mmod_Solvation_Energy-OPLS-2005>
-426.540740966797

> <b_mmod_Minimization_Converged-OPLS-2005>
0

> <r_mmod_RMS_Derivative-OPLS-2005>
3.9085009098053

$$$$
53
                    3D
 Structure written by MMmdl.
157165  0  0  1  0            999 V2000
  -30.6071  -14.7360   20.4657 C   0  0  0  0  0  0
  -30.4370  -12.4521   19.4609 C   0  0  0  0  0  0
  -29.5102  -12.5068   18.2263 C   0  0  0  0  0  0
  -28.0363  -12.3282   18.6441 C   0  0  0  0  0  0
  -27.6425  -13.2271   19.8479 C   0  0  2  0  0  0
  -28.6890  -13.1528   20.9801 C   0  0  0  0  0  0
  -25.2527  -13.8188   20.5694 C   0  0  0  0  0  0
  -24.1818  -13.0440   20.9216 C   0  0  0  0  0  0
  -24.6403  -11.6914   20.8753 C   0  0  0  0  0  0
  -23.9075  -10.4294   21.0416 C   0  0  0  0  0  0
  -24.3626   -9.4208   21.9192 C   0  0  0  0  0  0
  -23.6297   -8.2244   22.0759 C   0  0  0  0  0  0
  -22.4277   -8.0289   21.3546 C   0  0  0  0  0  0
  -21.9918   -9.0266   20.4648 C   0  0  0  0  0  0
  -22.7252  -10.2139   20.3060 C   0  0  0  0  0  0
  -21.6850   -6.0744   22.5283 C   0  0  0  0  0  0
  -21.4013   -6.5642   23.8220 C   0  0  0  0  0  0
  -21.3655   -5.6791   24.9178 C   0  0  0  0  0  0
  -21.6042   -4.3055   24.7228 C   0  0  0  0  0  0
  -21.8820   -3.8152   23.4347 C   0  0  0  0  0  0
  -21.9195   -4.6971   22.3404 C   0  0  0  0  0  0
  -22.7839  -13.5229   21.1877 C   0  0  0  0  0  0
  -22.1664   -4.2158   21.0981 F   0  0  0  0  0  0
  -21.5628   -3.4537   25.7740 F   0  0  0  0  0  0
  -29.9872  -13.5091   20.3934 N   0  0  0  0  0  0
  -26.2945  -12.9385   20.3265 N   0  0  0  0  0  0
  -25.9329  -11.6530   20.5735 N   0  0  0  0  0  0
  -22.0469  -12.8217   22.0416 N   0  0  0  0  0  0
  -25.4212  -15.1917   20.4129 N   0  0  0  0  0  0
  -31.8058  -14.8346   20.1849 O   0  0  0  0  0  0
  -21.6635   -6.8890   21.4245 O   0  0  0  0  0  0
  -22.3527  -14.5538   20.6726 O   0  0  0  0  0  0
  -24.6300  -31.8550   23.1973 C   0  0  0  0  0  0
  -25.9127  -32.4761   23.8322 C   0  0  1  0  0  0
  -27.2205  -27.2639   20.1360 C   0  0  0  0  0  0
  -25.5920  -33.8562   24.2250 N   0  0  0  0  0  0
  -23.4279  -30.4743   21.5410 C   0  0  2  0  0  0
  -24.8759  -28.9178   20.1119 C   0  0  0  0  0  0
  -22.7507  -29.4575   22.4909 C   0  0  0  0  0  0
  -18.0286  -28.1385   22.8467 C   0  0  0  0  0  0
  -24.1490  -36.7297   23.2641 C   0  0  0  0  0  0
  -25.9725  -30.7707   21.3742 C   0  0  0  0  0  0
  -26.0467  -29.3902   20.7216 C   0  0  0  0  0  0
  -27.2248  -28.5769   20.7181 C   0  0  0  0  0  0
  -26.0314  -26.8546   19.5001 C   0  0  0  0  0  0
  -24.8730  -27.6584   19.4891 C   0  0  0  0  0  0
  -23.6467  -29.8063   20.1571 C   0  0  0  0  0  0
  -25.4117  -36.3071   24.0328 C   0  0  1  0  0  0
  -20.5896  -28.3695   23.1266 C   0  0  2  0  0  0
  -20.6780  -26.9413   22.5409 C   0  0  0  0  0  0
  -19.5760  -26.6376   21.5207 C   0  0  0  0  0  0
  -18.1932  -26.7922   22.1609 C   0  0  0  0  0  0
  -19.1541  -28.8852   23.2860 C   0  0  0  0  0  0
  -18.9470  -30.1456   23.8874 C   0  0  0  0  0  0
  -17.6471  -30.6585   24.0561 C   0  0  0  0  0  0
  -25.9057  -34.9442   23.5089 C   0  0  0  0  0  0
  -16.5358  -29.9092   23.6330 C   0  0  0  0  0  0
  -16.7273  -28.6514   23.0339 C   0  0  0  0  0  0
  -26.4485  -31.6583   25.0707 C   0  0  0  0  0  0
  -25.3703  -31.3738   26.1423 C   0  0  0  0  0  0
  -27.0328  -30.3005   24.6169 C   0  0  0  0  0  0
  -27.6033  -32.4319   25.7483 C   0  0  0  0  0  0
  -27.5579  -37.1805   24.8459 C   0  0  0  0  0  0
  -21.4215  -29.3031   22.3664 N   0  0  0  0  0  0
  -26.4291  -37.3768   23.9401 N   0  0  0  0  0  0
  -24.6966  -31.0516   22.0941 N   0  0  0  0  0  0
  -23.4217  -28.8106   23.2995 O   0  0  0  0  0  0
  -28.3131  -26.3731   20.1437 O   0  0  0  0  0  0
  -26.5645  -34.8921   22.4668 O   0  0  0  0  0  0
  -23.5450  -32.1367   23.7266 O   0  0  0  0  0  0
  -31.5146  -18.9651   21.9165 C   0  0  0  0  0  0
  -31.2006  -17.6277   21.6170 C   0  0  0  0  0  0
  -30.7771  -20.0529   21.3967 C   0  0  0  0  0  0
  -29.6565  -19.8341   20.5474 C   0  0  0  0  0  0
  -29.3564  -18.4275   20.2424 C   0  0  0  0  0  0
  -30.1206  -17.2998   20.7756 C   0  0  0  0  0  0
  -28.6140  -23.7120   19.9299 C   0  0  0  0  0  0
  -31.2610  -21.4484   21.7557 C   0  0  0  0  0  0
  -28.2115  -18.1158   19.2887 C   0  0  0  0  0  0
  -28.8678  -21.0789   19.8965 C   0  0  0  0  0  0
  -28.1176  -25.0045   20.7413 C   0  0  0  0  0  0
  -29.7990  -15.8606   20.5813 N   0  0  0  0  0  0
  -28.7192  -22.4642   20.5341 N   0  0  0  0  0  0
  -28.8595  -23.8398   18.7283 O   0  0  0  0  0  0
  -31.4769  -12.5826   19.1569 H   0  0  0  0  0  0
  -30.3855  -11.4733   19.9388 H   0  0  0  0  0  0
  -29.7911  -11.7355   17.5077 H   0  0  0  0  0  0
  -29.6326  -13.4627   17.7138 H   0  0  0  0  0  0
  -27.8964  -11.2788   18.9062 H   0  0  0  0  0  0
  -27.3759  -12.5194   17.7973 H   0  0  0  0  0  0
  -27.6374  -14.2492   19.4696 H   0  0  0  0  0  0
  -28.7249  -12.1504   21.4098 H   0  0  0  0  0  0
  -28.4270  -13.8265   21.7972 H   0  0  0  0  0  0
  -25.2774   -9.5675   22.4765 H   0  0  0  0  0  0
  -24.0007   -7.4628   22.7478 H   0  0  0  0  0  0
  -21.0853   -8.8797   19.8947 H   0  0  0  0  0  0
  -22.3733  -10.9685   19.6166 H   0  0  0  0  0  0
  -21.2001   -7.6150   23.9729 H   0  0  0  0  0  0
  -21.1471   -6.0517   25.9082 H   0  0  0  0  0  0
  -22.0601   -2.7615   23.2845 H   0  0  0  0  0  0
  -22.4080  -11.9869   22.4787 H   0  0  0  0  0  0
  -21.1086  -13.1245   22.2625 H   0  0  0  0  0  0
  -24.6520  -15.8411   20.5379 H   0  0  0  0  0  0
  -26.2593  -15.6351   20.0627 H   0  0  0  0  0  0
  -26.7217  -32.5415   23.1093 H   0  0  0  0  0  0
  -25.0042  -33.9710   25.0373 H   0  0  0  0  0  0
  -22.7233  -31.2953   21.3935 H   0  0  0  0  0  0
  -23.3748  -35.9631   23.3291 H   0  0  0  0  0  0
  -24.3590  -36.8938   22.2058 H   0  0  0  0  0  0
  -23.7245  -37.6494   23.6680 H   0  0  0  0  0  0
  -26.1049  -31.5285   20.6005 H   0  0  0  0  0  0
  -26.8536  -30.8256   22.0025 H   0  0  0  0  0  0
  -28.1245  -28.9318   21.2012 H   0  0  0  0  0  0
  -25.9922  -25.8872   19.0184 H   0  0  0  0  0  0
  -23.9790  -27.2920   19.0027 H   0  0  0  0  0  0
  -23.7755  -30.5816   19.4016 H   0  0  0  0  0  0
  -22.7634  -29.2422   19.8499 H   0  0  0  0  0  0
  -25.1288  -36.1927   25.0827 H   0  0  0  0  0  0
  -20.9967  -28.3271   24.1399 H   0  0  0  0  0  0
  -20.5678  -26.2302   23.3616 H   0  0  0  0  0  0
  -21.6650  -26.7451   22.1200 H   0  0  0  0  0  0
  -19.6943  -25.6282   21.1251 H   0  0  0  0  0  0
  -19.6704  -27.3177   20.6726 H   0  0  0  0  0  0
  -17.4204  -26.6650   21.4014 H   0  0  0  0  0  0
  -18.0336  -26.0078   22.9017 H   0  0  0  0  0  0
  -19.7959  -30.7262   24.2234 H   0  0  0  0  0  0
  -17.5042  -31.6264   24.5163 H   0  0  0  0  0  0
  -15.5362  -30.2988   23.7681 H   0  0  0  0  0  0
  -15.8672  -28.0849   22.7049 H   0  0  0  0  0  0
  -24.5894  -30.7063   25.7762 H   0  0  0  0  0  0
  -24.8872  -32.2905   26.4804 H   0  0  0  0  0  0
  -25.8023  -30.8956   27.0224 H   0  0  0  0  0  0
  -26.2898  -29.6757   24.1193 H   0  0  0  0  0  0
  -27.4020  -29.7258   25.4671 H   0  0  0  0  0  0
  -27.8772  -30.4287   23.9396 H   0  0  0  0  0  0
  -27.2635  -33.3638   26.2014 H   0  0  0  0  0  0
  -28.3865  -32.6849   25.0324 H   0  0  0  0  0  0
  -28.0659  -31.8464   26.5438 H   0  0  0  0  0  0
  -28.2574  -38.0124   24.7509 H   0  0  0  0  0  0
  -28.1100  -36.2648   24.6267 H   0  0  0  0  0  0
  -27.2303  -37.1419   25.8867 H   0  0  0  0  0  0
  -20.9401  -29.8763   21.6881 H   0  0  0  0  0  0
  -26.0172  -38.2839   24.1422 H   0  0  0  0  0  0
  -32.3594  -19.1535   22.5648 H   0  0  0  0  0  0
  -31.8028  -16.8488   22.0636 H   0  0  0  0  0  0
  -32.2331  -21.4233   22.2494 H   0  0  0  0  0  0
  -30.5629  -21.9359   22.4366 H   0  0  0  0  0  0
  -31.3756  -22.0631   20.8623 H   0  0  0  0  0  0
  -27.2522  -18.1852   19.8016 H   0  0  0  0  0  0
  -28.2938  -17.1160   18.8637 H   0  0  0  0  0  0
  -28.2046  -18.8055   18.4446 H   0  0  0  0  0  0
  -27.8420  -20.7508   19.7276 H   0  0  0  0  0  0
  -29.2898  -21.2158   18.8996 H   0  0  0  0  0  0
  -27.0682  -24.8458   20.9918 H   0  0  0  0  0  0
  -28.6446  -25.0010   21.6951 H   0  0  0  0  0  0
  -28.8150  -15.6475   20.5691 H   0  0  0  0  0  0
  -28.5237  -22.4479   21.5257 H   0  0  0  0  0  0
  1 25  1  0  0  0
  1 30  2  0  0  0
  1 82  1  0  0  0
  2  3  1  0  0  0
  2 25  1  0  0  0
  2 85  1  0  0  0
  2 86  1  0  0  0
  3  4  1  0  0  0
  3 87  1  0  0  0
  3 88  1  0  0  0
  4  5  1  0  0  0
  4 89  1  0  0  0
  4 90  1  0  0  0
  5  6  1  0  0  0
  5 26  1  0  0  0
  5 91  1  0  0  0
  6 25  1  0  0  0
  6 92  1  0  0  0
  6 93  1  0  0  0
  7  8  2  0  0  0
  7 26  1  0  0  0
  7 29  1  0  0  0
  8  9  1  0  0  0
  8 22  1  0  0  0
  9 10  1  0  0  0
  9 27  2  0  0  0
 10 11  2  0  0  0
 10 15  1  0  0  0
 11 12  1  0  0  0
 11 94  1  0  0  0
 12 13  2  0  0  0
 12 95  1  0  0  0
 13 14  1  0  0  0
 13 31  1  0  0  0
 14 15  2  0  0  0
 14 96  1  0  0  0
 15 97  1  0  0  0
 16 17  2  0  0  0
 16 21  1  0  0  0
 16 31  1  0  0  0
 17 18  1  0  0  0
 17 98  1  0  0  0
 18 19  2  0  0  0
 18 99  1  0  0  0
 19 20  1  0  0  0
 19 24  1  0  0  0
 20 21  2  0  0  0
 20100  1  0  0  0
 21 23  1  0  0  0
 22 28  1  0  0  0
 22 32  2  0  0  0
 26 27  1  0  0  0
 28101  1  0  0  0
 28102  1  0  0  0
 29103  1  0  0  0
 29104  1  0  0  0
 33 34  1  0  0  0
 33 66  1  0  0  0
 33 70  2  0  0  0
 34 36  1  0  0  0
 34 59  1  0  0  0
 34105  1  0  0  0
 35 44  2  0  0  0
 35 45  1  0  0  0
 35 68  1  0  0  0
 36 56  1  0  0  0
 36106  1  0  0  0
 37 39  1  0  0  0
 37 47  1  0  0  0
 37 66  1  0  0  0
 37107  1  0  0  0
 38 43  2  0  0  0
 38 46  1  0  0  0
 38 47  1  0  0  0
 39 64  1  0  0  0
 39 67  2  0  0  0
 40 52  1  0  0  0
 40 53  2  0  0  0
 40 58  1  0  0  0
 41108  1  0  0  0
 41109  1  0  0  0
 41110  1  0  0  0
 41 48  1  0  0  0
 42 43  1  0  0  0
 42 66  1  0  0  0
 42111  1  0  0  0
 42112  1  0  0  0
 43 44  1  0  0  0
 44113  1  0  0  0
 45 46  2  0  0  0
 45114  1  0  0  0
 46115  1  0  0  0
 47116  1  0  0  0
 47117  1  0  0  0
 48 56  1  0  0  0
 48 65  1  0  0  0
 48118  1  0  0  0
 49 50  1  0  0  0
 49 53  1  0  0  0
 49 64  1  0  0  0
 49119  1  0  0  0
 50 51  1  0  0  0
 50120  1  0  0  0
 50121  1  0  0  0
 51 52  1  0  0  0
 51122  1  0  0  0
 51123  1  0  0  0
 52124  1  0  0  0
 52125  1  0  0  0
 53 54  1  0  0  0
 54 55  2  0  0  0
 54126  1  0  0  0
 55 57  1  0  0  0
 55127  1  0  0  0
 56 69  2  0  0  0
 57 58  2  0  0  0
 57128  1  0  0  0
 58129  1  0  0  0
 59 60  1  0  0  0
 59 61  1  0  0  0
 59 62  1  0  0  0
 60130  1  0  0  0
 60131  1  0  0  0
 60132  1  0  0  0
 61133  1  0  0  0
 61134  1  0  0  0
 61135  1  0  0  0
 62136  1  0  0  0
 62137  1  0  0  0
 62138  1  0  0  0
 63 65  1  0  0  0
 63139  1  0  0  0
 63140  1  0  0  0
 63141  1  0  0  0
 64142  1  0  0  0
 65143  1  0  0  0
 68 81  1  0  0  0
 71 72  2  0  0  0
 71 73  1  0  0  0
 71144  1  0  0  0
 72 76  1  0  0  0
 72145  1  0  0  0
 73 74  2  0  0  0
 73 78  1  0  0  0
 74 75  1  0  0  0
 74 80  1  0  0  0
 75 76  2  0  0  0
 75 79  1  0  0  0
 76 82  1  0  0  0
 77 81  1  0  0  0
 77 83  1  0  0  0
 77 84  2  0  0  0
 78146  1  0  0  0
 78147  1  0  0  0
 78148  1  0  0  0
 79149  1  0  0  0
 79150  1  0  0  0
 79151  1  0  0  0
 80 83  1  0  0  0
 80152  1  0  0  0
 80153  1  0  0  0
 81154  1  0  0  0
 81155  1  0  0  0
 82156  1  0  0  0
 83157  1  0  0  0
M  ISO  4   1 100  68 101  81 101  82 100
M  END
> <chiral flag>
0

> <version>
0

> <s_m_source_file>
/data/baiqing/PycharmProjects/Reinvent-master-3.2/result/LINK_invent/BTK/process_docking_weight1_custom_product_contain_oxygen_bond_distance_aromatic_linkinvent_7_9_3/rearranged_h_0043.sdf

> <i_m_source_file_index>
54

> <r_mmod_Potential_Energy-OPLS-2005>
86.2280120849609

> <r_mmod_Stretch_Energy-OPLS-2005>
128.655349731445

> <r_mmod_Bend_Energy-OPLS-2005>
158.452438354492

> <r_mmod_Torsional_Energy-OPLS-2005>
240.890441894531

> <r_mmod_Improper_Torsional_Energy-OPLS-2005>
7.40102243423462

> <r_mmod_Van_der_Waal_Energy-OPLS-2005>
137.215179443359

> <r_mmod_Electrostatic_Energy-OPLS-2005>
-424.028900146484

> <r_mmod_Solvation_Energy-OPLS-2005>
-244.430038452148

> <b_mmod_Minimization_Converged-OPLS-2005>
0

> <r_mmod_RMS_Derivative-OPLS-2005>
1.72792816162109

$$$$
54
                    3D
 Structure written by MMmdl.
174183  0  0  1  0            999 V2000
  -30.6410  -14.4491   20.6254 C   0  0  0  0  0  0
  -30.4391  -12.2831   19.4395 C   0  0  0  0  0  0
  -29.5047  -12.4425   18.2209 C   0  0  0  0  0  0
  -28.0173  -12.3431   18.6179 C   0  0  0  0  0  0
  -27.6688  -13.1782   19.8781 C   0  0  2  0  0  0
  -28.6949  -12.9160   21.0057 C   0  0  0  0  0  0
  -25.2679  -13.8118   20.5644 C   0  0  0  0  0  0
  -24.1943  -13.0427   20.9145 C   0  0  0  0  0  0
  -24.6429  -11.6876   20.8714 C   0  0  0  0  0  0
  -23.9075  -10.4295   21.0393 C   0  0  0  0  0  0
  -24.3650   -9.4219   21.9159 C   0  0  0  0  0  0
  -23.6346   -8.2238   22.0739 C   0  0  0  0  0  0
  -22.4319   -8.0286   21.3514 C   0  0  0  0  0  0
  -21.9927   -9.0258   20.4622 C   0  0  0  0  0  0
  -22.7244  -10.2143   20.3041 C   0  0  0  0  0  0
  -21.6861   -6.0782   22.5280 C   0  0  0  0  0  0
  -21.4022   -6.5676   23.8227 C   0  0  0  0  0  0
  -21.3659   -5.6812   24.9166 C   0  0  0  0  0  0
  -21.6033   -4.3073   24.7200 C   0  0  0  0  0  0
  -21.8829   -3.8187   23.4313 C   0  0  0  0  0  0
  -21.9219   -4.7014   22.3393 C   0  0  0  0  0  0
  -22.7957  -13.5249   21.1782 C   0  0  0  0  0  0
  -22.1689   -4.2211   21.0958 F   0  0  0  0  0  0
  -21.5612   -3.4548   25.7697 F   0  0  0  0  0  0
  -30.0301  -13.2434   20.4776 N   0  0  0  0  0  0
  -26.3060  -12.9225   20.3341 N   0  0  0  0  0  0
  -25.9332  -11.6417   20.5810 N   0  0  0  0  0  0
  -22.0641  -12.8288   22.0383 N   0  0  0  0  0  0
  -25.4462  -15.1826   20.4061 N   0  0  0  0  0  0
  -31.7550  -14.7005   20.1609 O   0  0  0  0  0  0
  -21.6655   -6.8900   21.4235 O   0  0  0  0  0  0
  -22.3686  -14.5576   20.6681 O   0  0  0  0  0  0
  -24.6147  -31.8667   23.2098 C   0  0  0  0  0  0
  -25.9030  -32.4836   23.8357 C   0  0  1  0  0  0
  -27.2104  -27.4279   20.1195 C   0  0  0  0  0  0
  -25.5909  -33.8634   24.2343 N   0  0  0  0  0  0
  -23.4031  -30.4906   21.5477 C   0  0  2  0  0  0
  -24.8543  -28.9738   20.0903 C   0  0  0  0  0  0
  -22.7448  -29.4588   22.4912 C   0  0  0  0  0  0
  -18.0376  -28.1365   22.8507 C   0  0  0  0  0  0
  -24.1488  -36.7326   23.2638 C   0  0  0  0  0  0
  -25.9281  -30.8447   21.3568 C   0  0  0  0  0  0
  -26.0105  -29.4825   20.6941 C   0  0  0  0  0  0
  -27.1986  -28.7143   20.7105 C   0  0  0  0  0  0
  -26.0538  -26.9495   19.4785 C   0  0  0  0  0  0
  -24.8721  -27.7122   19.4691 C   0  0  0  0  0  0
  -23.6108  -29.8334   20.1547 C   0  0  0  0  0  0
  -25.4112  -36.3126   24.0347 C   0  0  1  0  0  0
  -20.5998  -28.3590   23.1426 C   0  0  2  0  0  0
  -20.6777  -26.9327   22.5609 C   0  0  0  0  0  0
  -19.5860  -26.6438   21.5235 C   0  0  0  0  0  0
  -18.1989  -26.7931   22.1566 C   0  0  0  0  0  0
  -19.1633  -28.8779   23.2975 C   0  0  0  0  0  0
  -18.9576  -30.1380   23.8997 C   0  0  0  0  0  0
  -17.6568  -30.6578   24.0533 C   0  0  0  0  0  0
  -25.9031  -34.9483   23.5137 C   0  0  0  0  0  0
  -16.5476  -29.9109   23.6243 C   0  0  0  0  0  0
  -16.7359  -28.6541   23.0273 C   0  0  0  0  0  0
  -26.4474  -31.6593   25.0673 C   0  0  0  0  0  0
  -25.3745  -31.3667   26.1423 C   0  0  0  0  0  0
  -27.0302  -30.3038   24.6036 C   0  0  0  0  0  0
  -27.6086  -32.4280   25.7439 C   0  0  0  0  0  0
  -27.5583  -37.1810   24.8463 C   0  0  0  0  0  0
  -21.4156  -29.2965   22.3691 N   0  0  0  0  0  0
  -26.4300  -37.3805   23.9403 N   0  0  0  0  0  0
  -24.6683  -31.0780   22.0988 N   0  0  0  0  0  0
  -23.4183  -28.8114   23.2911 O   0  0  0  0  0  0
  -28.2452  -26.5434   20.3109 O   0  0  0  0  0  0
  -26.5583  -34.8949   22.4681 O   0  0  0  0  0  0
  -23.5364  -32.1397   23.7514 O   0  0  0  0  0  0
  -28.1345  -19.1373   20.3180 C   0  0  0  0  0  0
  -28.8937  -17.4739   21.9071 C   0  0  0  0  0  0
  -28.2505  -18.7070   21.6526 C   0  0  0  0  0  0
  -28.6143  -18.3470   19.2587 C   0  0  0  0  0  0
  -29.2989  -17.1273   19.5183 C   0  0  0  0  0  0
  -29.4222  -16.6675   20.8685 C   0  0  0  0  0  0
  -27.4902  -23.4293   22.1910 C   0  0  0  0  0  0
  -28.0250  -22.0538   22.4063 C   0  0  0  0  0  0
  -29.3432  -21.8419   22.6115 C   0  0  0  0  0  0
  -28.3147  -24.3896   21.6680 C   0  0  0  0  0  0
  -26.0513  -23.8351   22.5852 C   0  0  0  0  0  0
  -25.1704  -22.8054   23.3253 C   0  0  0  0  0  0
  -24.7411  -21.5779   22.4948 C   0  0  0  0  0  0
  -25.8810  -20.9100   21.7260 C   0  0  0  0  0  0
  -28.2813  -18.7937   17.8441 C   0  0  0  0  0  0
  -29.7993  -16.2999   18.3422 C   0  0  0  0  0  0
  -27.6135  -19.4822   22.8178 C   0  0  0  0  0  0
  -28.0963  -25.9102   21.6082 C   0  0  0  0  0  0
  -29.8761  -15.3597   21.2622 N   0  0  0  0  0  0
  -27.0905  -20.8706   22.5703 N   0  3  1  0  0  0
  -31.4765  -12.4207   19.1273 H   0  0  0  0  0  0
  -30.3854  -11.2661   19.8417 H   0  0  0  0  0  0
  -29.7245  -11.6753   17.4772 H   0  0  0  0  0  0
  -29.7163  -13.3776   17.7067 H   0  0  0  0  0  0
  -27.7807  -11.2972   18.8209 H   0  0  0  0  0  0
  -27.3895  -12.6323   17.7732 H   0  0  0  0  0  0
  -27.7234  -14.2258   19.5854 H   0  0  0  0  0  0
  -28.6864  -11.8707   21.3145 H   0  0  0  0  0  0
  -28.4234  -13.4586   21.9163 H   0  0  0  0  0  0
  -25.2789   -9.5747   22.4740 H   0  0  0  0  0  0
  -24.0065   -7.4644   22.7492 H   0  0  0  0  0  0
  -21.0835   -8.8806   19.8945 H   0  0  0  0  0  0
  -22.3691  -10.9710   19.6202 H   0  0  0  0  0  0
  -21.2014   -7.6182   23.9741 H   0  0  0  0  0  0
  -21.1452   -6.0524   25.9069 H   0  0  0  0  0  0
  -22.0608   -2.7650   23.2791 H   0  0  0  0  0  0
  -22.4258  -11.9894   22.4731 H   0  0  0  0  0  0
  -21.1270  -13.1333   22.2553 H   0  0  0  0  0  0
  -24.6781  -15.8398   20.5011 H   0  0  0  0  0  0
  -26.3103  -15.6183   20.1138 H   0  0  0  0  0  0
  -26.7115  -32.5584   23.1136 H   0  0  0  0  0  0
  -25.0053  -33.9740   25.0499 H   0  0  0  0  0  0
  -22.6840  -31.3057   21.4203 H   0  0  0  0  0  0
  -23.3762  -35.9642   23.3313 H   0  0  0  0  0  0
  -24.3606  -36.8920   22.2047 H   0  0  0  0  0  0
  -23.7216  -37.6531   23.6644 H   0  0  0  0  0  0
  -26.0280  -31.6185   20.5953 H   0  0  0  0  0  0
  -26.8181  -30.8997   21.9697 H   0  0  0  0  0  0
  -28.0787  -29.0737   21.2261 H   0  0  0  0  0  0
  -26.0505  -25.9592   19.0438 H   0  0  0  0  0  0
  -23.9852  -27.3155   18.9981 H   0  0  0  0  0  0
  -23.7041  -30.6201   19.4031 H   0  0  0  0  0  0
  -22.7365  -29.2524   19.8581 H   0  0  0  0  0  0
  -25.1289  -36.2002   25.0846 H   0  0  0  0  0  0
  -21.0105  -28.3199   24.1586 H   0  0  0  0  0  0
  -20.5410  -26.2266   23.3824 H   0  0  0  0  0  0
  -21.6721  -26.7273   22.1610 H   0  0  0  0  0  0
  -19.6966  -25.6436   21.1021 H   0  0  0  0  0  0
  -19.7010  -27.3356   20.6850 H   0  0  0  0  0  0
  -17.4249  -26.6661   21.3948 H   0  0  0  0  0  0
  -18.0274  -25.9992   22.8887 H   0  0  0  0  0  0
  -19.8090  -30.7188   24.2334 H   0  0  0  0  0  0
  -17.5156  -31.6264   24.5139 H   0  0  0  0  0  0
  -15.5538  -30.3124   23.7521 H   0  0  0  0  0  0
  -15.8720  -28.0921   22.6914 H   0  0  0  0  0  0
  -24.5956  -30.6985   25.7733 H   0  0  0  0  0  0
  -24.8895  -32.2800   26.4879 H   0  0  0  0  0  0
  -25.8110  -30.8826   27.0159 H   0  0  0  0  0  0
  -26.2810  -29.6794   24.1153 H   0  0  0  0  0  0
  -27.4128  -29.7310   25.4488 H   0  0  0  0  0  0
  -27.8639  -30.4394   23.9141 H   0  0  0  0  0  0
  -27.2754  -33.3585   26.2061 H   0  0  0  0  0  0
  -28.3884  -32.6794   25.0233 H   0  0  0  0  0  0
  -28.0753  -31.8329   26.5302 H   0  0  0  0  0  0
  -28.2609  -38.0096   24.7537 H   0  0  0  0  0  0
  -28.1058  -36.2633   24.6274 H   0  0  0  0  0  0
  -27.2303  -37.1460   25.8861 H   0  0  0  0  0  0
  -20.9304  -29.8672   21.6920 H   0  0  0  0  0  0
  -26.0207  -38.2892   24.1395 H   0  0  0  0  0  0
  -27.6251  -20.0560   20.0837 H   0  0  0  0  0  0
  -28.9469  -17.1235   22.9303 H   0  0  0  0  0  0
  -30.0531  -22.6512   22.6198 H   0  0  0  0  0  0
  -29.7546  -20.8673   22.7990 H   0  0  0  0  0  0
  -29.3030  -24.1122   21.3428 H   0  0  0  0  0  0
  -25.5384  -24.1578   21.6805 H   0  0  0  0  0  0
  -26.1026  -24.7061   23.2367 H   0  0  0  0  0  0
  -24.2564  -23.3120   23.6450 H   0  0  0  0  0  0
  -25.6558  -22.5084   24.2530 H   0  0  0  0  0  0
  -23.9564  -21.8505   21.7835 H   0  0  0  0  0  0
  -24.2769  -20.8473   23.1617 H   0  0  0  0  0  0
  -26.0910  -21.4659   20.8107 H   0  0  0  0  0  0
  -25.5634  -19.9215   21.3917 H   0  0  0  0  0  0
  -27.6892  -19.7102   17.8031 H   0  0  0  0  0  0
  -27.6748  -18.0245   17.3641 H   0  0  0  0  0  0
  -29.1888  -18.9578   17.2616 H   0  0  0  0  0  0
  -29.5234  -16.6682   17.3560 H   0  0  0  0  0  0
  -29.3561  -15.3142   18.4115 H   0  0  0  0  0  0
  -30.8888  -16.2363   18.3454 H   0  0  0  0  0  0
  -28.2799  -19.4811   23.6840 H   0  0  0  0  0  0
  -26.7784  -18.8709   23.1521 H   0  0  0  0  0  0
  -28.8273  -26.3608   22.2790 H   0  0  0  0  0  0
  -27.1323  -26.1449   22.0586 H   0  0  0  0  0  0
  -29.2022  -14.8905   21.8534 H   0  0  0  0  0  0
  -26.6726  -21.0234   23.4760 H   0  0  0  0  0  0
  1 25  1  0  0  0
  1 30  2  0  0  0
  1 89  1  0  0  0
  2  3  1  0  0  0
  2 25  1  0  0  0
  2 91  1  0  0  0
  2 92  1  0  0  0
  3  4  1  0  0  0
  3 93  1  0  0  0
  3 94  1  0  0  0
  4  5  1  0  0  0
  4 95  1  0  0  0
  4 96  1  0  0  0
  5  6  1  0  0  0
  5 26  1  0  0  0
  5 97  1  0  0  0
  6 25  1  0  0  0
  6 98  1  0  0  0
  6 99  1  0  0  0
  7  8  2  0  0  0
  7 26  1  0  0  0
  7 29  1  0  0  0
  8  9  1  0  0  0
  8 22  1  0  0  0
  9 10  1  0  0  0
  9 27  2  0  0  0
 10 11  2  0  0  0
 10 15  1  0  0  0
 11 12  1  0  0  0
 11100  1  0  0  0
 12 13  2  0  0  0
 12101  1  0  0  0
 13 14  1  0  0  0
 13 31  1  0  0  0
 14 15  2  0  0  0
 14102  1  0  0  0
 15103  1  0  0  0
 16 17  2  0  0  0
 16 21  1  0  0  0
 16 31  1  0  0  0
 17 18  1  0  0  0
 17104  1  0  0  0
 18 19  2  0  0  0
 18105  1  0  0  0
 19 20  1  0  0  0
 19 24  1  0  0  0
 20 21  2  0  0  0
 20106  1  0  0  0
 21 23  1  0  0  0
 22 28  1  0  0  0
 22 32  2  0  0  0
 26 27  1  0  0  0
 28107  1  0  0  0
 28108  1  0  0  0
 29109  1  0  0  0
 29110  1  0  0  0
 33 34  1  0  0  0
 33 66  1  0  0  0
 33 70  2  0  0  0
 34 36  1  0  0  0
 34 59  1  0  0  0
 34111  1  0  0  0
 35 44  2  0  0  0
 35 45  1  0  0  0
 35 68  1  0  0  0
 36 56  1  0  0  0
 36112  1  0  0  0
 37 39  1  0  0  0
 37 47  1  0  0  0
 37 66  1  0  0  0
 37113  1  0  0  0
 38 43  2  0  0  0
 38 46  1  0  0  0
 38 47  1  0  0  0
 39 64  1  0  0  0
 39 67  2  0  0  0
 40 52  1  0  0  0
 40 53  2  0  0  0
 40 58  1  0  0  0
 41114  1  0  0  0
 41115  1  0  0  0
 41116  1  0  0  0
 41 48  1  0  0  0
 42 43  1  0  0  0
 42 66  1  0  0  0
 42117  1  0  0  0
 42118  1  0  0  0
 43 44  1  0  0  0
 44119  1  0  0  0
 45 46  2  0  0  0
 45120  1  0  0  0
 46121  1  0  0  0
 47122  1  0  0  0
 47123  1  0  0  0
 48 56  1  0  0  0
 48 65  1  0  0  0
 48124  1  0  0  0
 49 50  1  0  0  0
 49 53  1  0  0  0
 49 64  1  0  0  0
 49125  1  0  0  0
 50 51  1  0  0  0
 50126  1  0  0  0
 50127  1  0  0  0
 51 52  1  0  0  0
 51128  1  0  0  0
 51129  1  0  0  0
 52130  1  0  0  0
 52131  1  0  0  0
 53 54  1  0  0  0
 54 55  2  0  0  0
 54132  1  0  0  0
 55 57  1  0  0  0
 55133  1  0  0  0
 56 69  2  0  0  0
 57 58  2  0  0  0
 57134  1  0  0  0
 58135  1  0  0  0
 59 60  1  0  0  0
 59 61  1  0  0  0
 59 62  1  0  0  0
 60136  1  0  0  0
 60137  1  0  0  0
 60138  1  0  0  0
 61139  1  0  0  0
 61140  1  0  0  0
 61141  1  0  0  0
 62142  1  0  0  0
 62143  1  0  0  0
 62144  1  0  0  0
 63 65  1  0  0  0
 63145  1  0  0  0
 63146  1  0  0  0
 63147  1  0  0  0
 64148  1  0  0  0
 65149  1  0  0  0
 68 88  1  0  0  0
 71 73  2  0  0  0
 71 74  1  0  0  0
 71150  1  0  0  0
 72 73  1  0  0  0
 72 76  2  0  0  0
 72151  1  0  0  0
 73 87  1  0  0  0
 74 75  2  0  0  0
 74 85  1  0  0  0
 75 76  1  0  0  0
 75 86  1  0  0  0
 76 89  1  0  0  0
 77 78  1  0  0  0
 77 80  2  0  0  0
 77 81  1  0  0  0
 78 79  2  0  0  0
 78 90  1  0  0  0
 79152  1  0  0  0
 79153  1  0  0  0
 80 88  1  0  0  0
 80154  1  0  0  0
 81 82  1  0  0  0
 81155  1  0  0  0
 81156  1  0  0  0
 82 83  1  0  0  0
 82157  1  0  0  0
 82158  1  0  0  0
 83 84  1  0  0  0
 83159  1  0  0  0
 83160  1  0  0  0
 84 90  1  0  0  0
 84161  1  0  0  0
 84162  1  0  0  0
 85163  1  0  0  0
 85164  1  0  0  0
 85165  1  0  0  0
 86166  1  0  0  0
 86167  1  0  0  0
 86168  1  0  0  0
 87169  1  0  0  0
 87170  1  0  0  0
 87 90  1  0  0  0
 88171  1  0  0  0
 88172  1  0  0  0
 89173  1  0  0  0
 90174  1  0  0  0
M  CHG  1  90   1
M  ISO  4   1 100  68 101  88 101  89 100
M  END
> <chiral flag>
0

> <version>
0

> <s_m_source_file>
/data/baiqing/PycharmProjects/Reinvent-master-3.2/result/LINK_invent/BTK/process_docking_weight1_custom_product_contain_oxygen_bond_distance_aromatic_linkinvent_7_9_3/rearranged_h_0043.sdf

> <i_m_source_file_index>
55

> <r_mmod_Potential_Energy-OPLS-2005>
16.1804447174072

> <r_mmod_Stretch_Energy-OPLS-2005>
52.9676284790039

> <r_mmod_Bend_Energy-OPLS-2005>
150.206192016602

> <r_mmod_Torsional_Energy-OPLS-2005>
325.646392822266

> <r_mmod_Improper_Torsional_Energy-OPLS-2005>
7.65198135375977

> <r_mmod_Van_der_Waal_Energy-OPLS-2005>
185.148971557617

> <r_mmod_Electrostatic_Energy-OPLS-2005>
-306.608520507812

> <r_mmod_Solvation_Energy-OPLS-2005>
-427.539367675781

> <b_mmod_Minimization_Converged-OPLS-2005>
0

> <r_mmod_RMS_Derivative-OPLS-2005>
9.69376564025879

$$$$
55
                    3D
 Structure written by MMmdl.
167176  0  0  1  0            999 V2000
  -30.6935  -14.4490   20.6122 C   0  0  0  0  0  0
  -30.4338  -12.3079   19.4054 C   0  0  0  0  0  0
  -29.4955  -12.5270   18.1996 C   0  0  0  0  0  0
  -28.0160  -12.3817   18.6092 C   0  0  0  0  0  0
  -27.6690  -13.1983   19.8816 C   0  0  2  0  0  0
  -28.7109  -12.9342   20.9931 C   0  0  0  0  0  0
  -25.2618  -13.8127   20.5667 C   0  0  0  0  0  0
  -24.1863  -13.0424   20.9175 C   0  0  0  0  0  0
  -24.6402  -11.6889   20.8730 C   0  0  0  0  0  0
  -23.9065  -10.4282   21.0403 C   0  0  0  0  0  0
  -24.3618   -9.4202   21.9181 C   0  0  0  0  0  0
  -23.6292   -8.2241   22.0752 C   0  0  0  0  0  0
  -22.4274   -8.0277   21.3546 C   0  0  0  0  0  0
  -21.9907   -9.0245   20.4642 C   0  0  0  0  0  0
  -22.7241  -10.2122   20.3054 C   0  0  0  0  0  0
  -21.6854   -6.0735   22.5282 C   0  0  0  0  0  0
  -21.4005   -6.5640   23.8213 C   0  0  0  0  0  0
  -21.3661   -5.6788   24.9173 C   0  0  0  0  0  0
  -21.6049   -4.3052   24.7221 C   0  0  0  0  0  0
  -21.8821   -3.8146   23.4341 C   0  0  0  0  0  0
  -21.9193   -4.6964   22.3402 C   0  0  0  0  0  0
  -22.7887  -13.5235   21.1832 C   0  0  0  0  0  0
  -22.1665   -4.2154   21.0979 F   0  0  0  0  0  0
  -21.5632   -3.4535   25.7736 F   0  0  0  0  0  0
  -30.0482  -13.2597   20.4582 N   0  0  0  0  0  0
  -26.3065  -12.9291   20.3381 N   0  0  0  0  0  0
  -25.9333  -11.6460   20.5750 N   0  0  0  0  0  0
  -22.0510  -12.8228   22.0377 N   0  0  0  0  0  0
  -25.4322  -15.1836   20.4039 N   0  0  0  0  0  0
  -31.7717  -14.7063   20.0683 O   0  0  0  0  0  0
  -21.6641   -6.8873   21.4243 O   0  0  0  0  0  0
  -22.3583  -14.5556   20.6696 O   0  0  0  0  0  0
  -24.6156  -31.8675   23.2105 C   0  0  0  0  0  0
  -25.9047  -32.4824   23.8395 C   0  0  1  0  0  0
  -27.2383  -27.4289   20.0733 C   0  0  0  0  0  0
  -25.5898  -33.8624   24.2322 N   0  0  0  0  0  0
  -23.4024  -30.4926   21.5524 C   0  0  2  0  0  0
  -24.8455  -28.9592   20.1145 C   0  0  0  0  0  0
  -22.7404  -29.4658   22.4996 C   0  0  0  0  0  0
  -18.0270  -28.1383   22.8487 C   0  0  0  0  0  0
  -24.1480  -36.7311   23.2641 C   0  0  0  0  0  0
  -25.9333  -30.8269   21.3671 C   0  0  0  0  0  0
  -26.0071  -29.4623   20.7111 C   0  0  0  0  0  0
  -27.2000  -28.7020   20.6930 C   0  0  0  0  0  0
  -26.0426  -26.9327   19.4996 C   0  0  0  0  0  0
  -24.8577  -27.6914   19.5122 C   0  0  0  0  0  0
  -23.6090  -29.8281   20.1659 C   0  0  0  0  0  0
  -25.4108  -36.3115   24.0338 C   0  0  1  0  0  0
  -20.5859  -28.3660   23.1322 C   0  0  2  0  0  0
  -20.6759  -26.9394   22.5433 C   0  0  0  0  0  0
  -19.5751  -26.6384   21.5214 C   0  0  0  0  0  0
  -18.1916  -26.7939   22.1599 C   0  0  0  0  0  0
  -19.1519  -28.8837   23.2905 C   0  0  0  0  0  0
  -18.9449  -30.1445   23.8913 C   0  0  0  0  0  0
  -17.6451  -30.6586   24.0569 C   0  0  0  0  0  0
  -25.9033  -34.9478   23.5125 C   0  0  0  0  0  0
  -16.5342  -29.9087   23.6335 C   0  0  0  0  0  0
  -16.7257  -28.6508   23.0342 C   0  0  0  0  0  0
  -26.4466  -31.6612   25.0730 C   0  0  0  0  0  0
  -25.3730  -31.3739   26.1484 C   0  0  0  0  0  0
  -27.0285  -30.3044   24.6119 C   0  0  0  0  0  0
  -27.6034  -32.4339   25.7490 C   0  0  0  0  0  0
  -27.5582  -37.1824   24.8460 C   0  0  0  0  0  0
  -21.4132  -29.3033   22.3734 N   0  0  0  0  0  0
  -26.4297  -37.3798   23.9399 N   0  0  0  0  0  0
  -24.6688  -31.0763   22.1015 N   0  0  0  0  0  0
  -23.4177  -28.8196   23.3033 O   0  0  0  0  0  0
  -28.4302  -26.7223   20.0924 O   0  0  0  0  0  0
  -26.5598  -34.8930   22.4690 O   0  0  0  0  0  0
  -23.5347  -32.1429   23.7498 O   0  0  0  0  0  0
  -28.7498  -17.2591   20.6164 C   0  0  0  0  0  0
  -30.7364  -19.0448   21.4386 C   0  0  0  0  0  0
  -28.5249  -18.6506   20.5010 C   0  0  0  0  0  0
  -29.5209  -19.5690   20.9311 C   0  0  0  0  0  0
  -29.9508  -16.7439   21.1466 C   0  0  0  0  0  0
  -30.9549  -17.6525   21.5585 C   0  0  0  0  0  0
  -28.6309  -23.0453   19.4725 C   0  0  0  0  0  0
  -27.3648  -22.8804   19.0409 C   0  0  0  0  0  0
  -31.5639  -23.1368   19.9675 C   0  0  0  0  0  0
  -30.8452  -24.4082   19.5226 C   0  0  0  0  0  0
  -30.9101  -21.9291   19.2898 C   0  0  0  0  0  0
  -29.3258  -24.3957   19.8140 C   0  0  1  0  0  0
  -27.1852  -19.1151   19.9500 C   0  0  0  0  0  0
  -29.2747  -21.0937   20.9643 C   0  0  0  0  0  0
  -28.6811  -25.6640   19.1492 C   0  0  0  0  0  0
  -30.0315  -15.3395   21.3695 N   0  0  0  0  0  0
  -29.4823  -21.8022   19.6672 N   0  3  1  0  0  0
  -32.4193  -17.0992   22.2916 Cl  0  0  0  0  0  0
  -31.4753  -12.4262   19.1010 H   0  0  0  0  0  0
  -30.3486  -11.2849   19.7749 H   0  0  0  0  0  0
  -29.7335  -11.8201   17.4035 H   0  0  0  0  0  0
  -29.6616  -13.5220   17.7833 H   0  0  0  0  0  0
  -27.8178  -11.3226   18.7795 H   0  0  0  0  0  0
  -27.3670  -12.6808   17.7848 H   0  0  0  0  0  0
  -27.7249  -14.2523   19.6097 H   0  0  0  0  0  0
  -28.6874  -11.8829   21.2839 H   0  0  0  0  0  0
  -28.4614  -13.4807   21.9028 H   0  0  0  0  0  0
  -25.2766   -9.5684   22.4751 H   0  0  0  0  0  0
  -24.0010   -7.4636   22.7471 H   0  0  0  0  0  0
  -21.0841   -8.8756   19.8946 H   0  0  0  0  0  0
  -22.3700  -10.9656   19.6161 H   0  0  0  0  0  0
  -21.1985   -7.6143   23.9717 H   0  0  0  0  0  0
  -21.1485   -6.0516   25.9077 H   0  0  0  0  0  0
  -22.0597   -2.7610   23.2839 H   0  0  0  0  0  0
  -22.4107  -11.9865   22.4742 H   0  0  0  0  0  0
  -21.1130  -13.1262   22.2573 H   0  0  0  0  0  0
  -24.6607  -15.8340   20.5027 H   0  0  0  0  0  0
  -26.2693  -15.6132   20.0368 H   0  0  0  0  0  0
  -26.7117  -32.5515   23.1153 H   0  0  0  0  0  0
  -25.0063  -33.9794   25.0475 H   0  0  0  0  0  0
  -22.6921  -31.3105   21.4157 H   0  0  0  0  0  0
  -23.3755  -35.9631   23.3301 H   0  0  0  0  0  0
  -24.3574  -36.8932   22.2057 H   0  0  0  0  0  0
  -23.7213  -37.6506   23.6660 H   0  0  0  0  0  0
  -26.0512  -31.5943   20.6008 H   0  0  0  0  0  0
  -26.8201  -30.8753   21.9872 H   0  0  0  0  0  0
  -28.0981  -29.0905   21.1531 H   0  0  0  0  0  0
  -25.9763  -25.9543   19.0537 H   0  0  0  0  0  0
  -23.9592  -27.2896   19.0632 H   0  0  0  0  0  0
  -23.7175  -30.6049   19.4083 H   0  0  0  0  0  0
  -22.7310  -29.2510   19.8709 H   0  0  0  0  0  0
  -25.1292  -36.1988   25.0834 H   0  0  0  0  0  0
  -20.9949  -28.3232   24.1442 H   0  0  0  0  0  0
  -20.5639  -26.2271   23.3624 H   0  0  0  0  0  0
  -21.6636  -26.7430   22.1239 H   0  0  0  0  0  0
  -19.6910  -25.6297   21.1240 H   0  0  0  0  0  0
  -19.6717  -27.3199   20.6752 H   0  0  0  0  0  0
  -17.4208  -26.6725   21.3973 H   0  0  0  0  0  0
  -18.0276  -26.0059   22.8962 H   0  0  0  0  0  0
  -19.7926  -30.7263   24.2282 H   0  0  0  0  0  0
  -17.5006  -31.6272   24.5160 H   0  0  0  0  0  0
  -15.5341  -30.2994   23.7660 H   0  0  0  0  0  0
  -15.8653  -28.0843   22.7033 H   0  0  0  0  0  0
  -24.5912  -30.7061   25.7853 H   0  0  0  0  0  0
  -24.8905  -32.2901   26.4905 H   0  0  0  0  0  0
  -25.8093  -30.8957   27.0263 H   0  0  0  0  0  0
  -26.2833  -29.6828   24.1139 H   0  0  0  0  0  0
  -27.4006  -29.7265   25.4592 H   0  0  0  0  0  0
  -27.8691  -30.4352   23.9296 H   0  0  0  0  0  0
  -27.2639  -33.3631   26.2083 H   0  0  0  0  0  0
  -28.3835  -32.6926   25.0314 H   0  0  0  0  0  0
  -28.0707  -31.8455   26.5398 H   0  0  0  0  0  0
  -28.2629  -38.0094   24.7480 H   0  0  0  0  0  0
  -28.1053  -36.2633   24.6316 H   0  0  0  0  0  0
  -27.2305  -37.1511   25.8866 H   0  0  0  0  0  0
  -20.9279  -29.8774   21.6981 H   0  0  0  0  0  0
  -26.0190  -38.2882   24.1389 H   0  0  0  0  0  0
  -27.9715  -16.5726   20.3198 H   0  0  0  0  0  0
  -31.5036  -19.7180   21.7943 H   0  0  0  0  0  0
  -26.6832  -23.7047   18.9078 H   0  0  0  0  0  0
  -26.9597  -21.9038   18.8265 H   0  0  0  0  0  0
  -31.5453  -23.0439   21.0536 H   0  0  0  0  0  0
  -32.6157  -23.1910   19.6843 H   0  0  0  0  0  0
  -31.0108  -24.5313   18.4510 H   0  0  0  0  0  0
  -31.3038  -25.2763   19.9987 H   0  0  0  0  0  0
  -31.4579  -21.0156   19.5198 H   0  0  0  0  0  0
  -30.9677  -22.0439   18.2068 H   0  0  0  0  0  0
  -29.1996  -24.4966   20.8929 H   0  0  0  0  0  0
  -26.5325  -18.2709   19.7249 H   0  0  0  0  0  0
  -27.3196  -19.6676   19.0215 H   0  0  0  0  0  0
  -26.6563  -19.7442   20.6658 H   0  0  0  0  0  0
  -29.8937  -21.5490   21.7377 H   0  0  0  0  0  0
  -28.2527  -21.2606   21.3033 H   0  0  0  0  0  0
  -27.8508  -25.4157   18.5017 H   0  0  0  0  0  0
  -29.3847  -26.0942   18.4357 H   0  0  0  0  0  0
  -29.2084  -14.9359   21.7886 H   0  0  0  0  0  0
  -29.1395  -21.1299   18.9989 H   0  0  0  0  0  0
  1 25  1  0  0  0
  1 30  2  0  0  0
  1 86  1  0  0  0
  2  3  1  0  0  0
  2 25  1  0  0  0
  2 89  1  0  0  0
  2 90  1  0  0  0
  3  4  1  0  0  0
  3 91  1  0  0  0
  3 92  1  0  0  0
  4  5  1  0  0  0
  4 93  1  0  0  0
  4 94  1  0  0  0
  5  6  1  0  0  0
  5 26  1  0  0  0
  5 95  1  0  0  0
  6 25  1  0  0  0
  6 96  1  0  0  0
  6 97  1  0  0  0
  7  8  2  0  0  0
  7 26  1  0  0  0
  7 29  1  0  0  0
  8  9  1  0  0  0
  8 22  1  0  0  0
  9 10  1  0  0  0
  9 27  2  0  0  0
 10 11  2  0  0  0
 10 15  1  0  0  0
 11 12  1  0  0  0
 11 98  1  0  0  0
 12 13  2  0  0  0
 12 99  1  0  0  0
 13 14  1  0  0  0
 13 31  1  0  0  0
 14 15  2  0  0  0
 14100  1  0  0  0
 15101  1  0  0  0
 16 17  2  0  0  0
 16 21  1  0  0  0
 16 31  1  0  0  0
 17 18  1  0  0  0
 17102  1  0  0  0
 18 19  2  0  0  0
 18103  1  0  0  0
 19 20  1  0  0  0
 19 24  1  0  0  0
 20 21  2  0  0  0
 20104  1  0  0  0
 21 23  1  0  0  0
 22 28  1  0  0  0
 22 32  2  0  0  0
 26 27  1  0  0  0
 28105  1  0  0  0
 28106  1  0  0  0
 29107  1  0  0  0
 29108  1  0  0  0
 33 34  1  0  0  0
 33 66  1  0  0  0
 33 70  2  0  0  0
 34 36  1  0  0  0
 34 59  1  0  0  0
 34109  1  0  0  0
 35 44  2  0  0  0
 35 45  1  0  0  0
 35 68  1  0  0  0
 36 56  1  0  0  0
 36110  1  0  0  0
 37 39  1  0  0  0
 37 47  1  0  0  0
 37 66  1  0  0  0
 37111  1  0  0  0
 38 43  2  0  0  0
 38 46  1  0  0  0
 38 47  1  0  0  0
 39 64  1  0  0  0
 39 67  2  0  0  0
 40 52  1  0  0  0
 40 53  2  0  0  0
 40 58  1  0  0  0
 41112  1  0  0  0
 41113  1  0  0  0
 41114  1  0  0  0
 41 48  1  0  0  0
 42 43  1  0  0  0
 42 66  1  0  0  0
 42115  1  0  0  0
 42116  1  0  0  0
 43 44  1  0  0  0
 44117  1  0  0  0
 45 46  2  0  0  0
 45118  1  0  0  0
 46119  1  0  0  0
 47120  1  0  0  0
 47121  1  0  0  0
 48 56  1  0  0  0
 48 65  1  0  0  0
 48122  1  0  0  0
 49 50  1  0  0  0
 49 53  1  0  0  0
 49 64  1  0  0  0
 49123  1  0  0  0
 50 51  1  0  0  0
 50124  1  0  0  0
 50125  1  0  0  0
 51 52  1  0  0  0
 51126  1  0  0  0
 51127  1  0  0  0
 52128  1  0  0  0
 52129  1  0  0  0
 53 54  1  0  0  0
 54 55  2  0  0  0
 54130  1  0  0  0
 55 57  1  0  0  0
 55131  1  0  0  0
 56 69  2  0  0  0
 57 58  2  0  0  0
 57132  1  0  0  0
 58133  1  0  0  0
 59 60  1  0  0  0
 59 61  1  0  0  0
 59 62  1  0  0  0
 60134  1  0  0  0
 60135  1  0  0  0
 60136  1  0  0  0
 61137  1  0  0  0
 61138  1  0  0  0
 61139  1  0  0  0
 62140  1  0  0  0
 62141  1  0  0  0
 62142  1  0  0  0
 63 65  1  0  0  0
 63143  1  0  0  0
 63144  1  0  0  0
 63145  1  0  0  0
 64146  1  0  0  0
 65147  1  0  0  0
 68 85  1  0  0  0
 71 73  2  0  0  0
 71 75  1  0  0  0
 71148  1  0  0  0
 72 74  2  0  0  0
 72 76  1  0  0  0
 72149  1  0  0  0
 73 74  1  0  0  0
 73 83  1  0  0  0
 74 84  1  0  0  0
 75 76  2  0  0  0
 75 86  1  0  0  0
 76 88  1  0  0  0
 77 78  2  0  0  0
 77 82  1  0  0  0
 77 87  1  0  0  0
 78150  1  0  0  0
 78151  1  0  0  0
 79 80  1  0  0  0
 79 81  1  0  0  0
 79152  1  0  0  0
 79153  1  0  0  0
 80 82  1  0  0  0
 80154  1  0  0  0
 80155  1  0  0  0
 81 87  1  0  0  0
 81156  1  0  0  0
 81157  1  0  0  0
 82 85  1  0  0  0
 82158  1  0  0  0
 83159  1  0  0  0
 83160  1  0  0  0
 83161  1  0  0  0
 84162  1  0  0  0
 84163  1  0  0  0
 84 87  1  0  0  0
 85164  1  0  0  0
 85165  1  0  0  0
 86166  1  0  0  0
 87167  1  0  0  0
M  CHG  1  87   1
M  ISO  4   1 100  68 101  85 101  86 100
M  END
> <chiral flag>
0

> <version>
0

> <s_m_source_file>
/data/baiqing/PycharmProjects/Reinvent-master-3.2/result/LINK_invent/BTK/process_docking_weight1_custom_product_contain_oxygen_bond_distance_aromatic_linkinvent_7_9_3/rearranged_h_0043.sdf

> <i_m_source_file_index>
56

> <r_mmod_Potential_Energy-OPLS-2005>
-116.180030822754

> <r_mmod_Stretch_Energy-OPLS-2005>
46.2322769165039

> <r_mmod_Bend_Energy-OPLS-2005>
125.315650939941

> <r_mmod_Torsional_Energy-OPLS-2005>
252.259048461914

> <r_mmod_Improper_Torsional_Energy-OPLS-2005>
5.68212556838989

> <r_mmod_Van_der_Waal_Energy-OPLS-2005>
153.809432983398

> <r_mmod_Electrostatic_Energy-OPLS-2005>
-256.935272216797

> <r_mmod_Solvation_Energy-OPLS-2005>
-453.609954833984

> <b_mmod_Minimization_Converged-OPLS-2005>
0

> <r_mmod_RMS_Derivative-OPLS-2005>
1.09819793701172

$$$$
56
                    3D
 Structure written by MMmdl.
154162  0  0  1  0            999 V2000
  -30.6406  -14.5053   20.5723 C   0  0  0  0  0  0
  -30.4434  -12.3344   19.4072 C   0  0  0  0  0  0
  -29.4982  -12.5198   18.1988 C   0  0  0  0  0  0
  -28.0204  -12.3687   18.6149 C   0  0  0  0  0  0
  -27.6673  -13.1963   19.8781 C   0  0  2  0  0  0
  -28.7098  -12.9444   20.9903 C   0  0  0  0  0  0
  -25.2632  -13.8143   20.5675 C   0  0  0  0  0  0
  -24.1858  -13.0446   20.9175 C   0  0  0  0  0  0
  -24.6381  -11.6911   20.8716 C   0  0  0  0  0  0
  -23.9031  -10.4302   21.0391 C   0  0  0  0  0  0
  -24.3592   -9.4214   21.9165 C   0  0  0  0  0  0
  -23.6279   -8.2245   22.0736 C   0  0  0  0  0  0
  -22.4258   -8.0286   21.3539 C   0  0  0  0  0  0
  -21.9886   -9.0257   20.4641 C   0  0  0  0  0  0
  -22.7201  -10.2144   20.3045 C   0  0  0  0  0  0
  -21.6860   -6.0735   22.5274 C   0  0  0  0  0  0
  -21.4015   -6.5636   23.8211 C   0  0  0  0  0  0
  -21.3659   -5.6785   24.9169 C   0  0  0  0  0  0
  -21.6050   -4.3047   24.7211 C   0  0  0  0  0  0
  -21.8828   -3.8144   23.4331 C   0  0  0  0  0  0
  -21.9198   -4.6962   22.3393 C   0  0  0  0  0  0
  -22.7887  -13.5265   21.1861 C   0  0  0  0  0  0
  -22.1671   -4.2154   21.0967 F   0  0  0  0  0  0
  -21.5627   -3.4531   25.7720 F   0  0  0  0  0  0
  -30.0389  -13.2896   20.4505 N   0  0  0  0  0  0
  -26.3056  -12.9287   20.3356 N   0  0  0  0  0  0
  -25.9299  -11.6463   20.5723 N   0  0  0  0  0  0
  -22.0521  -12.8265   22.0414 N   0  0  0  0  0  0
  -25.4387  -15.1857   20.4108 N   0  0  0  0  0  0
  -31.7455  -14.7641   20.0836 O   0  0  0  0  0  0
  -21.6631   -6.8881   21.4239 O   0  0  0  0  0  0
  -22.3584  -14.5590   20.6724 O   0  0  0  0  0  0
  -24.6170  -31.8673   23.2099 C   0  0  0  0  0  0
  -25.9059  -32.4824   23.8385 C   0  0  1  0  0  0
  -27.2336  -27.4231   20.0702 C   0  0  0  0  0  0
  -25.5910  -33.8621   24.2313 N   0  0  0  0  0  0
  -23.4041  -30.4913   21.5532 C   0  0  2  0  0  0
  -24.8459  -28.9577   20.1138 C   0  0  0  0  0  0
  -22.7417  -29.4659   22.5006 C   0  0  0  0  0  0
  -18.0273  -28.1386   22.8489 C   0  0  0  0  0  0
  -24.1488  -36.7317   23.2635 C   0  0  0  0  0  0
  -25.9349  -30.8276   21.3642 C   0  0  0  0  0  0
  -26.0092  -29.4615   20.7066 C   0  0  0  0  0  0
  -27.2014  -28.6991   20.6867 C   0  0  0  0  0  0
  -26.0363  -26.9262   19.5035 C   0  0  0  0  0  0
  -24.8529  -27.6873   19.5156 C   0  0  0  0  0  0
  -23.6101  -29.8260   20.1669 C   0  0  0  0  0  0
  -25.4109  -36.3115   24.0330 C   0  0  1  0  0  0
  -20.5862  -28.3667   23.1325 C   0  0  2  0  0  0
  -20.6773  -26.9406   22.5419 C   0  0  0  0  0  0
  -19.5752  -26.6387   21.5218 C   0  0  0  0  0  0
  -18.1925  -26.7936   22.1622 C   0  0  0  0  0  0
  -19.1521  -28.8840   23.2905 C   0  0  0  0  0  0
  -18.9451  -30.1447   23.8907 C   0  0  0  0  0  0
  -17.6453  -30.6588   24.0567 C   0  0  0  0  0  0
  -25.9031  -34.9478   23.5110 C   0  0  0  0  0  0
  -16.5342  -29.9085   23.6332 C   0  0  0  0  0  0
  -16.7262  -28.6507   23.0345 C   0  0  0  0  0  0
  -26.4477  -31.6617   25.0719 C   0  0  0  0  0  0
  -25.3751  -31.3737   26.1478 C   0  0  0  0  0  0
  -27.0298  -30.3057   24.6095 C   0  0  0  0  0  0
  -27.6037  -32.4351   25.7483 C   0  0  0  0  0  0
  -27.5586  -37.1809   24.8457 C   0  0  0  0  0  0
  -21.4148  -29.3039   22.3737 N   0  0  0  0  0  0
  -26.4298  -37.3796   23.9401 N   0  0  0  0  0  0
  -24.6706  -31.0761   22.1014 N   0  0  0  0  0  0
  -23.4172  -28.8204   23.3060 O   0  0  0  0  0  0
  -28.4158  -26.7000   20.0897 O   0  0  0  0  0  0
  -26.5589  -34.8935   22.4671 O   0  0  0  0  0  0
  -23.5359  -32.1442   23.7488 O   0  0  0  0  0  0
  -28.9625  -18.7346   19.6310 C   0  0  0  0  0  0
  -29.6028  -17.6540   22.1340 C   0  0  0  0  0  0
  -28.7906  -19.5354   20.7831 C   0  0  0  0  0  0
  -29.7049  -16.8214   20.9969 C   0  0  0  0  0  0
  -29.1489  -18.9879   22.0350 C   0  0  0  0  0  0
  -29.3920  -17.3864   19.7267 C   0  0  0  0  0  0
  -28.4127  -23.3043   20.1890 C   0  0  0  0  0  0
  -28.0814  -20.8962   20.6980 C   0  0  0  0  0  0
  -29.3592  -24.4085   19.6811 C   0  0  0  0  0  0
  -28.6773  -25.6814   19.1018 C   0  0  0  0  0  0
  -29.8996  -15.4175   21.2336 N   0  0  0  0  0  0
  -28.8753  -22.0364   20.2252 N   0  0  0  0  0  0
  -27.2678  -23.5861   20.5478 O   0  0  0  0  0  0
  -29.0013  -19.7226   23.1635 F   0  0  0  0  0  0
  -29.3876  -16.4447   18.2778 Cl  0  0  0  0  0  0
  -31.4807  -12.4785   19.0981 H   0  0  0  0  0  0
  -30.3833  -11.3138   19.7870 H   0  0  0  0  0  0
  -29.7390  -11.7973   17.4186 H   0  0  0  0  0  0
  -29.6553  -13.5046   17.7567 H   0  0  0  0  0  0
  -27.8381  -11.3109   18.8055 H   0  0  0  0  0  0
  -27.3622  -12.6424   17.7895 H   0  0  0  0  0  0
  -27.7208  -14.2474   19.5969 H   0  0  0  0  0  0
  -28.6975  -11.8943   21.2839 H   0  0  0  0  0  0
  -28.4581  -13.4935   21.8978 H   0  0  0  0  0  0
  -25.2742   -9.5694   22.4729 H   0  0  0  0  0  0
  -24.0008   -7.4623   22.7432 H   0  0  0  0  0  0
  -21.0832   -8.8760   19.8936 H   0  0  0  0  0  0
  -22.3655  -10.9683   19.6155 H   0  0  0  0  0  0
  -21.2003   -7.6147   23.9712 H   0  0  0  0  0  0
  -21.1475   -6.0509   25.9079 H   0  0  0  0  0  0
  -22.0606   -2.7608   23.2817 H   0  0  0  0  0  0
  -22.4148  -11.9933   22.4817 H   0  0  0  0  0  0
  -21.1129  -13.1283   22.2588 H   0  0  0  0  0  0
  -24.6774  -15.8444   20.5305 H   0  0  0  0  0  0
  -26.2924  -15.6216   20.0872 H   0  0  0  0  0  0
  -26.7124  -32.5519   23.1139 H   0  0  0  0  0  0
  -25.0104  -33.9785   25.0491 H   0  0  0  0  0  0
  -22.6945  -31.3097   21.4156 H   0  0  0  0  0  0
  -23.3757  -35.9643   23.3297 H   0  0  0  0  0  0
  -24.3590  -36.8936   22.2052 H   0  0  0  0  0  0
  -23.7239  -37.6514   23.6659 H   0  0  0  0  0  0
  -26.0480  -31.5955   20.5973 H   0  0  0  0  0  0
  -26.8238  -30.8797   21.9810 H   0  0  0  0  0  0
  -28.1011  -29.0882   21.1429 H   0  0  0  0  0  0
  -25.9685  -25.9388   19.0746 H   0  0  0  0  0  0
  -23.9516  -27.2823   19.0765 H   0  0  0  0  0  0
  -23.7194  -30.6026   19.4094 H   0  0  0  0  0  0
  -22.7337  -29.2471   19.8705 H   0  0  0  0  0  0
  -25.1295  -36.1971   25.0823 H   0  0  0  0  0  0
  -20.9946  -28.3234   24.1451 H   0  0  0  0  0  0
  -20.5699  -26.2268   23.3604 H   0  0  0  0  0  0
  -21.6645  -26.7475   22.1198 H   0  0  0  0  0  0
  -19.6914  -25.6299   21.1241 H   0  0  0  0  0  0
  -19.6702  -27.3207   20.6756 H   0  0  0  0  0  0
  -17.4207  -26.6693   21.4010 H   0  0  0  0  0  0
  -18.0313  -26.0074   22.9009 H   0  0  0  0  0  0
  -19.7922  -30.7265   24.2280 H   0  0  0  0  0  0
  -17.5006  -31.6271   24.5174 H   0  0  0  0  0  0
  -15.5343  -30.2991   23.7658 H   0  0  0  0  0  0
  -15.8665  -28.0838   22.7045 H   0  0  0  0  0  0
  -24.5904  -30.7097   25.7827 H   0  0  0  0  0  0
  -24.8972  -32.2906   26.4937 H   0  0  0  0  0  0
  -25.8114  -30.8902   27.0228 H   0  0  0  0  0  0
  -26.2827  -29.6827   24.1158 H   0  0  0  0  0  0
  -27.4077  -29.7280   25.4538 H   0  0  0  0  0  0
  -27.8661  -30.4365   23.9225 H   0  0  0  0  0  0
  -27.2626  -33.3629   26.2090 H   0  0  0  0  0  0
  -28.3831  -32.6961   25.0310 H   0  0  0  0  0  0
  -28.0733  -31.8476   26.5386 H   0  0  0  0  0  0
  -28.2596  -38.0113   24.7525 H   0  0  0  0  0  0
  -28.1091  -36.2650   24.6259 H   0  0  0  0  0  0
  -27.2310  -37.1424   25.8859 H   0  0  0  0  0  0
  -20.9304  -29.8752   21.6954 H   0  0  0  0  0  0
  -26.0190  -38.2866   24.1423 H   0  0  0  0  0  0
  -28.6756  -19.1279   18.6663 H   0  0  0  0  0  0
  -29.8114  -17.2523   23.1145 H   0  0  0  0  0  0
  -27.6586  -21.1412   21.6736 H   0  0  0  0  0  0
  -27.2204  -20.7844   20.0370 H   0  0  0  0  0  0
  -29.9609  -23.9650   18.8878 H   0  0  0  0  0  0
  -30.0561  -24.6805   20.4740 H   0  0  0  0  0  0
  -27.8311  -25.3864   18.4882 H   0  0  0  0  0  0
  -29.3695  -26.1348   18.3919 H   0  0  0  0  0  0
  -29.1586  -14.9953   21.7725 H   0  0  0  0  0  0
  -29.8204  -21.8526   19.9189 H   0  0  0  0  0  0
  1 25  1  0  0  0
  1 30  2  0  0  0
  1 81  1  0  0  0
  2  3  1  0  0  0
  2 25  1  0  0  0
  2 86  1  0  0  0
  2 87  1  0  0  0
  3  4  1  0  0  0
  3 88  1  0  0  0
  3 89  1  0  0  0
  4  5  1  0  0  0
  4 90  1  0  0  0
  4 91  1  0  0  0
  5  6  1  0  0  0
  5 26  1  0  0  0
  5 92  1  0  0  0
  6 25  1  0  0  0
  6 93  1  0  0  0
  6 94  1  0  0  0
  7  8  2  0  0  0
  7 26  1  0  0  0
  7 29  1  0  0  0
  8  9  1  0  0  0
  8 22  1  0  0  0
  9 10  1  0  0  0
  9 27  2  0  0  0
 10 11  2  0  0  0
 10 15  1  0  0  0
 11 12  1  0  0  0
 11 95  1  0  0  0
 12 13  2  0  0  0
 12 96  1  0  0  0
 13 14  1  0  0  0
 13 31  1  0  0  0
 14 15  2  0  0  0
 14 97  1  0  0  0
 15 98  1  0  0  0
 16 17  2  0  0  0
 16 21  1  0  0  0
 16 31  1  0  0  0
 17 18  1  0  0  0
 17 99  1  0  0  0
 18 19  2  0  0  0
 18100  1  0  0  0
 19 20  1  0  0  0
 19 24  1  0  0  0
 20 21  2  0  0  0
 20101  1  0  0  0
 21 23  1  0  0  0
 22 28  1  0  0  0
 22 32  2  0  0  0
 26 27  1  0  0  0
 28102  1  0  0  0
 28103  1  0  0  0
 29104  1  0  0  0
 29105  1  0  0  0
 33 34  1  0  0  0
 33 66  1  0  0  0
 33 70  2  0  0  0
 34 36  1  0  0  0
 34 59  1  0  0  0
 34106  1  0  0  0
 35 44  2  0  0  0
 35 45  1  0  0  0
 35 68  1  0  0  0
 36 56  1  0  0  0
 36107  1  0  0  0
 37 39  1  0  0  0
 37 47  1  0  0  0
 37 66  1  0  0  0
 37108  1  0  0  0
 38 43  2  0  0  0
 38 46  1  0  0  0
 38 47  1  0  0  0
 39 64  1  0  0  0
 39 67  2  0  0  0
 40 52  1  0  0  0
 40 53  2  0  0  0
 40 58  1  0  0  0
 41109  1  0  0  0
 41110  1  0  0  0
 41111  1  0  0  0
 41 48  1  0  0  0
 42 43  1  0  0  0
 42 66  1  0  0  0
 42112  1  0  0  0
 42113  1  0  0  0
 43 44  1  0  0  0
 44114  1  0  0  0
 45 46  2  0  0  0
 45115  1  0  0  0
 46116  1  0  0  0
 47117  1  0  0  0
 47118  1  0  0  0
 48 56  1  0  0  0
 48 65  1  0  0  0
 48119  1  0  0  0
 49 50  1  0  0  0
 49 53  1  0  0  0
 49 64  1  0  0  0
 49120  1  0  0  0
 50 51  1  0  0  0
 50121  1  0  0  0
 50122  1  0  0  0
 51 52  1  0  0  0
 51123  1  0  0  0
 51124  1  0  0  0
 52125  1  0  0  0
 52126  1  0  0  0
 53 54  1  0  0  0
 54 55  2  0  0  0
 54127  1  0  0  0
 55 57  1  0  0  0
 55128  1  0  0  0
 56 69  2  0  0  0
 57 58  2  0  0  0
 57129  1  0  0  0
 58130  1  0  0  0
 59 60  1  0  0  0
 59 61  1  0  0  0
 59 62  1  0  0  0
 60131  1  0  0  0
 60132  1  0  0  0
 60133  1  0  0  0
 61134  1  0  0  0
 61135  1  0  0  0
 61136  1  0  0  0
 62137  1  0  0  0
 62138  1  0  0  0
 62139  1  0  0  0
 63 65  1  0  0  0
 63140  1  0  0  0
 63141  1  0  0  0
 63142  1  0  0  0
 64143  1  0  0  0
 65144  1  0  0  0
 68 80  1  0  0  0
 71 73  2  0  0  0
 71 76  1  0  0  0
 71145  1  0  0  0
 72 74  1  0  0  0
 72 75  2  0  0  0
 72146  1  0  0  0
 73 75  1  0  0  0
 73 78  1  0  0  0
 74 76  2  0  0  0
 74 81  1  0  0  0
 75 84  1  0  0  0
 76 85  1  0  0  0
 77 79  1  0  0  0
 77 82  1  0  0  0
 77 83  2  0  0  0
 78 82  1  0  0  0
 78147  1  0  0  0
 78148  1  0  0  0
 79 80  1  0  0  0
 79149  1  0  0  0
 79150  1  0  0  0
 80151  1  0  0  0
 80152  1  0  0  0
 81153  1  0  0  0
 82154  1  0  0  0
M  ISO  4   1 100  68 101  80 101  81 100
M  END
> <chiral flag>
0

> <version>
0

> <s_m_source_file>
/data/baiqing/PycharmProjects/Reinvent-master-3.2/result/LINK_invent/BTK/process_docking_weight1_custom_product_contain_oxygen_bond_distance_aromatic_linkinvent_7_9_3/rearranged_h_0043.sdf

> <i_m_source_file_index>
57

> <r_mmod_Potential_Energy-OPLS-2005>
-128.284820556641

> <r_mmod_Stretch_Energy-OPLS-2005>
40.5910835266113

> <r_mmod_Bend_Energy-OPLS-2005>
112.996063232422

> <r_mmod_Torsional_Energy-OPLS-2005>
239.450637817383

> <r_mmod_Improper_Torsional_Energy-OPLS-2005>
5.75575065612793

> <r_mmod_Van_der_Waal_Energy-OPLS-2005>
147.11686706543

> <r_mmod_Electrostatic_Energy-OPLS-2005>
-448.160339355469

> <r_mmod_Solvation_Energy-OPLS-2005>
-242.423049926758

> <b_mmod_Minimization_Converged-OPLS-2005>
0

> <r_mmod_RMS_Derivative-OPLS-2005>
2.09830975532532

$$$$
57
                    3D
 Structure written by MMmdl.
179188  0  0  1  0            999 V2000
  -30.6547  -14.6011   20.5589 C   0  0  0  0  0  0
  -30.4375  -12.3817   19.4569 C   0  0  0  0  0  0
  -29.5131  -12.5295   18.2287 C   0  0  0  0  0  0
  -28.0344  -12.3608   18.6334 C   0  0  0  0  0  0
  -27.6578  -13.2176   19.8725 C   0  0  2  0  0  0
  -28.6988  -13.0506   21.0037 C   0  0  0  0  0  0
  -25.2530  -13.8161   20.5634 C   0  0  0  0  0  0
  -24.1814  -13.0425   20.9178 C   0  0  0  0  0  0
  -24.6390  -11.6905   20.8726 C   0  0  0  0  0  0
  -23.9040  -10.4287   21.0388 C   0  0  0  0  0  0
  -24.3596   -9.4214   21.9171 C   0  0  0  0  0  0
  -23.6292   -8.2239   22.0747 C   0  0  0  0  0  0
  -22.4274   -8.0262   21.3534 C   0  0  0  0  0  0
  -21.9892   -9.0218   20.4630 C   0  0  0  0  0  0
  -22.7208  -10.2109   20.3041 C   0  0  0  0  0  0
  -21.6845   -6.0726   22.5274 C   0  0  0  0  0  0
  -21.4011   -6.5631   23.8206 C   0  0  0  0  0  0
  -21.3669   -5.6785   24.9172 C   0  0  0  0  0  0
  -21.6049   -4.3048   24.7222 C   0  0  0  0  0  0
  -21.8828   -3.8137   23.4340 C   0  0  0  0  0  0
  -21.9198   -4.6955   22.3401 C   0  0  0  0  0  0
  -22.7839  -13.5224   21.1847 C   0  0  0  0  0  0
  -22.1670   -4.2148   21.0979 F   0  0  0  0  0  0
  -21.5634   -3.4536   25.7730 F   0  0  0  0  0  0
  -30.0246  -13.3881   20.4546 N   0  0  0  0  0  0
  -26.2992  -12.9365   20.3319 N   0  0  0  0  0  0
  -25.9324  -11.6514   20.5753 N   0  0  0  0  0  0
  -22.0480  -12.8213   22.0401 N   0  0  0  0  0  0
  -25.4154  -15.1868   20.3953 N   0  0  0  0  0  0
  -31.7909  -14.7751   20.1078 O   0  0  0  0  0  0
  -21.6637   -6.8860   21.4233 O   0  0  0  0  0  0
  -22.3536  -14.5532   20.6693 O   0  0  0  0  0  0
  -24.6282  -31.8646   23.2128 C   0  0  0  0  0  0
  -25.9144  -32.4804   23.8432 C   0  0  1  0  0  0
  -27.2051  -27.2990   20.1075 C   0  0  0  0  0  0
  -25.5975  -33.8605   24.2344 N   0  0  0  0  0  0
  -23.4205  -30.4960   21.5560 C   0  0  2  0  0  0
  -24.8629  -28.9627   20.1201 C   0  0  0  0  0  0
  -22.7474  -29.4660   22.4959 C   0  0  0  0  0  0
  -18.0289  -28.1379   22.8496 C   0  0  0  0  0  0
  -24.1478  -36.7286   23.2642 C   0  0  0  0  0  0
  -25.9678  -30.7809   21.3991 C   0  0  0  0  0  0
  -26.0345  -29.4073   20.7455 C   0  0  0  0  0  0
  -27.2027  -28.5805   20.7509 C   0  0  0  0  0  0
  -26.0388  -26.9904   19.3716 C   0  0  0  0  0  0
  -24.8664  -27.7525   19.4269 C   0  0  0  0  0  0
  -23.6360  -29.8467   20.1683 C   0  0  0  0  0  0
  -25.4106  -36.3093   24.0340 C   0  0  1  0  0  0
  -20.5893  -28.3690   23.1268 C   0  0  2  0  0  0
  -20.6779  -26.9410   22.5401 C   0  0  0  0  0  0
  -19.5747  -26.6379   21.5214 C   0  0  0  0  0  0
  -18.1929  -26.7929   22.1629 C   0  0  0  0  0  0
  -19.1545  -28.8855   23.2882 C   0  0  0  0  0  0
  -18.9469  -30.1455   23.8904 C   0  0  0  0  0  0
  -17.6468  -30.6586   24.0559 C   0  0  0  0  0  0
  -25.9056  -34.9462   23.5132 C   0  0  0  0  0  0
  -16.5356  -29.9085   23.6331 C   0  0  0  0  0  0
  -16.7275  -28.6498   23.0363 C   0  0  0  0  0  0
  -26.4524  -31.6599   25.0792 C   0  0  0  0  0  0
  -25.3760  -31.3733   26.1513 C   0  0  0  0  0  0
  -27.0380  -30.3019   24.6276 C   0  0  0  0  0  0
  -27.6074  -32.4337   25.7571 C   0  0  0  0  0  0
  -27.5570  -37.1809   24.8470 C   0  0  0  0  0  0
  -21.4189  -29.3058   22.3673 N   0  0  0  0  0  0
  -26.4285  -37.3794   23.9417 N   0  0  0  0  0  0
  -24.6906  -31.0643   22.1110 N   0  0  0  0  0  0
  -23.4196  -28.8159   23.3010 O   0  0  0  0  0  0
  -28.2963  -26.4001   20.1361 O   0  0  0  0  0  0
  -26.5591  -34.8918   22.4679 O   0  0  0  0  0  0
  -23.5441  -32.1461   23.7443 O   0  0  0  0  0  0
  -31.0542  -17.8075   20.5060 C   0  0  0  0  0  0
  -31.1113  -19.2302   20.5492 C   0  0  0  0  0  0
  -30.0913  -20.0218   21.1781 C   0  0  0  0  0  0
  -29.0506  -19.2756   21.8423 C   0  0  0  0  0  0
  -28.9858  -17.8316   21.7459 C   0  0  0  0  0  0
  -30.0008  -17.0728   21.0928 C   0  0  0  0  0  0
  -28.5393  -22.0863   19.3434 C   0  0  0  0  0  0
  -29.1534  -21.3928   18.3711 C   0  0  0  0  0  0
  -27.1550  -22.6694   19.2858 C   0  0  0  0  0  0
  -27.1957  -24.2071   19.2929 C   0  0  0  0  0  0
  -29.3939  -24.0317   20.5898 C   0  0  0  0  0  0
  -28.0794  -24.9221   20.3668 C   0  0  1  0  0  0
  -32.3644  -19.8679   19.9582 C   0  0  0  0  0  0
  -27.8382  -17.0202   22.3643 C   0  0  0  0  0  0
  -27.4817  -21.1123   24.8439 C   0  0  0  0  0  0
  -28.6283  -18.9542   24.8905 C   0  0  0  0  0  0
  -30.2200  -21.6199   21.2182 C   0  0  0  0  0  0
  -28.0170  -20.0247   22.7060 C   0  0  0  0  0  0
  -29.9014  -15.6110   21.0857 N   0  0  0  0  0  0
  -29.1451  -22.5233   20.6238 N   0  3  2  0  0  0
  -28.4153  -20.2087   24.1312 N   0  3  0  0  0  0
  -31.4836  -12.4957   19.1663 H   0  0  0  0  0  0
  -30.3570  -11.3783   19.8782 H   0  0  0  0  0  0
  -29.7821  -11.8030   17.4612 H   0  0  0  0  0  0
  -29.6583  -13.5143   17.7825 H   0  0  0  0  0  0
  -27.8713  -11.3044   18.8494 H   0  0  0  0  0  0
  -27.3825  -12.6021   17.7940 H   0  0  0  0  0  0
  -27.6831  -14.2589   19.5505 H   0  0  0  0  0  0
  -28.6997  -12.0235   21.3729 H   0  0  0  0  0  0
  -28.4382  -13.6651   21.8658 H   0  0  0  0  0  0
  -25.2745   -9.5726   22.4727 H   0  0  0  0  0  0
  -24.0024   -7.4641   22.7464 H   0  0  0  0  0  0
  -21.0827   -8.8703   19.8931 H   0  0  0  0  0  0
  -22.3647  -10.9625   19.6141 H   0  0  0  0  0  0
  -21.1992   -7.6131   23.9718 H   0  0  0  0  0  0
  -21.1492   -6.0504   25.9077 H   0  0  0  0  0  0
  -22.0603   -2.7597   23.2830 H   0  0  0  0  0  0
  -22.4094  -11.9884   22.4803 H   0  0  0  0  0  0
  -21.1087  -13.1224   22.2583 H   0  0  0  0  0  0
  -24.6298  -15.8223   20.4708 H   0  0  0  0  0  0
  -26.2405  -15.6180   19.9994 H   0  0  0  0  0  0
  -26.7210  -32.5463   23.1174 H   0  0  0  0  0  0
  -25.0157  -33.9760   25.0514 H   0  0  0  0  0  0
  -22.7163  -31.3198   21.4202 H   0  0  0  0  0  0
  -23.3755  -35.9604   23.3301 H   0  0  0  0  0  0
  -24.3576  -36.8905   22.2055 H   0  0  0  0  0  0
  -23.7201  -37.6484   23.6654 H   0  0  0  0  0  0
  -26.1077  -31.5413   20.6300 H   0  0  0  0  0  0
  -26.8470  -30.8265   22.0293 H   0  0  0  0  0  0
  -28.0904  -28.9111   21.2718 H   0  0  0  0  0  0
  -25.9974  -26.2009   18.6511 H   0  0  0  0  0  0
  -23.9927  -27.4366   18.8724 H   0  0  0  0  0  0
  -23.7632  -30.6306   19.4202 H   0  0  0  0  0  0
  -22.7540  -29.2836   19.8570 H   0  0  0  0  0  0
  -25.1279  -36.1962   25.0837 H   0  0  0  0  0  0
  -20.9996  -28.3255   24.1384 H   0  0  0  0  0  0
  -20.5675  -26.2303   23.3604 H   0  0  0  0  0  0
  -21.6638  -26.7430   22.1182 H   0  0  0  0  0  0
  -19.6892  -25.6293   21.1236 H   0  0  0  0  0  0
  -19.6673  -27.3191   20.6744 H   0  0  0  0  0  0
  -17.4193  -26.6692   21.4028 H   0  0  0  0  0  0
  -18.0312  -26.0063   22.9017 H   0  0  0  0  0  0
  -19.7951  -30.7267   24.2267 H   0  0  0  0  0  0
  -17.5031  -31.6272   24.5149 H   0  0  0  0  0  0
  -15.5361  -30.2985   23.7668 H   0  0  0  0  0  0
  -15.8673  -28.0813   22.7086 H   0  0  0  0  0  0
  -24.5963  -30.7043   25.7853 H   0  0  0  0  0  0
  -24.8920  -32.2889   26.4918 H   0  0  0  0  0  0
  -25.8101  -30.8948   27.0300 H   0  0  0  0  0  0
  -26.2977  -29.6761   24.1277 H   0  0  0  0  0  0
  -27.4027  -29.7287   25.4809 H   0  0  0  0  0  0
  -27.8870  -30.4287   23.9558 H   0  0  0  0  0  0
  -27.2684  -33.3648   26.2126 H   0  0  0  0  0  0
  -28.3915  -32.6878   25.0426 H   0  0  0  0  0  0
  -28.0707  -31.8476   26.5519 H   0  0  0  0  0  0
  -28.2586  -38.0108   24.7536 H   0  0  0  0  0  0
  -28.1072  -36.2643   24.6282 H   0  0  0  0  0  0
  -27.2294  -37.1429   25.8876 H   0  0  0  0  0  0
  -20.9358  -29.8832   21.6926 H   0  0  0  0  0  0
  -26.0163  -38.2869   24.1447 H   0  0  0  0  0  0
  -31.8552  -17.2734   20.0165 H   0  0  0  0  0  0
  -28.6366  -21.1598   17.4516 H   0  0  0  0  0  0
  -30.1699  -21.0510   18.4555 H   0  0  0  0  0  0
  -26.5631  -22.2961   20.1237 H   0  0  0  0  0  0
  -26.6506  -22.3220   18.3831 H   0  0  0  0  0  0
  -26.1487  -24.4400   19.4664 H   0  0  0  0  0  0
  -27.4879  -24.5524   18.3002 H   0  0  0  0  0  0
  -29.8852  -24.3441   21.5122 H   0  0  0  0  0  0
  -30.1016  -24.2364   19.7851 H   0  0  0  0  0  0
  -27.5244  -24.8613   21.3043 H   0  0  0  0  0  0
  -33.0711  -19.1124   19.6136 H   0  0  0  0  0  0
  -32.8879  -20.4600   20.7099 H   0  0  0  0  0  0
  -32.1411  -20.5041   19.1042 H   0  0  0  0  0  0
  -26.9197  -17.5628   22.5604 H   0  0  0  0  0  0
  -28.1587  -16.5473   23.2933 H   0  0  0  0  0  0
  -27.5293  -16.2219   21.6921 H   0  0  0  0  0  0
  -27.8126  -21.2941   25.8668 H   0  0  0  0  0  0
  -26.4793  -20.6842   24.8870 H   0  0  0  0  0  0
  -27.4137  -22.0818   24.3494 H   0  0  0  0  0  0
  -28.9187  -19.1711   25.9187 H   0  0  0  0  0  0
  -29.4327  -18.3588   24.4607 H   0  0  0  0  0  0
  -27.7217  -18.3506   24.9258 H   0  0  0  0  0  0
  -31.1420  -21.9313   20.7333 H   0  0  0  0  0  0
  -30.3639  -21.9138   22.2584 H   0  0  0  0  0  0
  -27.0258  -19.5855   22.6483 H   0  0  0  0  0  0
  -27.8509  -21.0084   22.2776 H   0  0  0  0  0  0
  -29.0390  -15.2623   21.4753 H   0  0  0  0  0  0
  -28.4075  -22.4535   21.3050 H   0  0  0  0  0  0
  -29.3126  -20.6694   24.1347 H   0  0  0  0  0  0
  1 25  1  0  0  0
  1 30  2  0  0  0
  1 89  1  0  0  0
  2  3  1  0  0  0
  2 25  1  0  0  0
  2 92  1  0  0  0
  2 93  1  0  0  0
  3  4  1  0  0  0
  3 94  1  0  0  0
  3 95  1  0  0  0
  4  5  1  0  0  0
  4 96  1  0  0  0
  4 97  1  0  0  0
  5  6  1  0  0  0
  5 26  1  0  0  0
  5 98  1  0  0  0
  6 25  1  0  0  0
  6 99  1  0  0  0
  6100  1  0  0  0
  7  8  2  0  0  0
  7 26  1  0  0  0
  7 29  1  0  0  0
  8  9  1  0  0  0
  8 22  1  0  0  0
  9 10  1  0  0  0
  9 27  2  0  0  0
 10 11  2  0  0  0
 10 15  1  0  0  0
 11 12  1  0  0  0
 11101  1  0  0  0
 12 13  2  0  0  0
 12102  1  0  0  0
 13 14  1  0  0  0
 13 31  1  0  0  0
 14 15  2  0  0  0
 14103  1  0  0  0
 15104  1  0  0  0
 16 17  2  0  0  0
 16 21  1  0  0  0
 16 31  1  0  0  0
 17 18  1  0  0  0
 17105  1  0  0  0
 18 19  2  0  0  0
 18106  1  0  0  0
 19 20  1  0  0  0
 19 24  1  0  0  0
 20 21  2  0  0  0
 20107  1  0  0  0
 21 23  1  0  0  0
 22 28  1  0  0  0
 22 32  2  0  0  0
 26 27  1  0  0  0
 28108  1  0  0  0
 28109  1  0  0  0
 29110  1  0  0  0
 29111  1  0  0  0
 33 34  1  0  0  0
 33 66  1  0  0  0
 33 70  2  0  0  0
 34 36  1  0  0  0
 34 59  1  0  0  0
 34112  1  0  0  0
 35 44  2  0  0  0
 35 45  1  0  0  0
 35 68  1  0  0  0
 36 56  1  0  0  0
 36113  1  0  0  0
 37 39  1  0  0  0
 37 47  1  0  0  0
 37 66  1  0  0  0
 37114  1  0  0  0
 38 43  2  0  0  0
 38 46  1  0  0  0
 38 47  1  0  0  0
 39 64  1  0  0  0
 39 67  2  0  0  0
 40 52  1  0  0  0
 40 53  2  0  0  0
 40 58  1  0  0  0
 41115  1  0  0  0
 41116  1  0  0  0
 41117  1  0  0  0
 41 48  1  0  0  0
 42 43  1  0  0  0
 42 66  1  0  0  0
 42118  1  0  0  0
 42119  1  0  0  0
 43 44  1  0  0  0
 44120  1  0  0  0
 45 46  2  0  0  0
 45121  1  0  0  0
 46122  1  0  0  0
 47123  1  0  0  0
 47124  1  0  0  0
 48 56  1  0  0  0
 48 65  1  0  0  0
 48125  1  0  0  0
 49 50  1  0  0  0
 49 53  1  0  0  0
 49 64  1  0  0  0
 49126  1  0  0  0
 50 51  1  0  0  0
 50127  1  0  0  0
 50128  1  0  0  0
 51 52  1  0  0  0
 51129  1  0  0  0
 51130  1  0  0  0
 52131  1  0  0  0
 52132  1  0  0  0
 53 54  1  0  0  0
 54 55  2  0  0  0
 54133  1  0  0  0
 55 57  1  0  0  0
 55134  1  0  0  0
 56 69  2  0  0  0
 57 58  2  0  0  0
 57135  1  0  0  0
 58136  1  0  0  0
 59 60  1  0  0  0
 59 61  1  0  0  0
 59 62  1  0  0  0
 60137  1  0  0  0
 60138  1  0  0  0
 60139  1  0  0  0
 61140  1  0  0  0
 61141  1  0  0  0
 61142  1  0  0  0
 62143  1  0  0  0
 62144  1  0  0  0
 62145  1  0  0  0
 63 65  1  0  0  0
 63146  1  0  0  0
 63147  1  0  0  0
 63148  1  0  0  0
 64149  1  0  0  0
 65150  1  0  0  0
 68 82  1  0  0  0
 71 72  2  0  0  0
 71 76  1  0  0  0
 71151  1  0  0  0
 72 73  1  0  0  0
 72 83  1  0  0  0
 73 74  2  0  0  0
 73 87  1  0  0  0
 74 75  1  0  0  0
 74 88  1  0  0  0
 75 76  2  0  0  0
 75 84  1  0  0  0
 76 89  1  0  0  0
 77 78  2  0  0  0
 77 79  1  0  0  0
 77 90  1  0  0  0
 78152  1  0  0  0
 78153  1  0  0  0
 79 80  1  0  0  0
 79154  1  0  0  0
 79155  1  0  0  0
 80 82  1  0  0  0
 80156  1  0  0  0
 80157  1  0  0  0
 81 82  1  0  0  0
 81 90  1  0  0  0
 81158  1  0  0  0
 81159  1  0  0  0
 82160  1  0  0  0
 83161  1  0  0  0
 83162  1  0  0  0
 83163  1  0  0  0
 84164  1  0  0  0
 84165  1  0  0  0
 84166  1  0  0  0
 85167  1  0  0  0
 85168  1  0  0  0
 85169  1  0  0  0
 85 91  1  0  0  0
 86 91  1  0  0  0
 86170  1  0  0  0
 86171  1  0  0  0
 86172  1  0  0  0
 87173  1  0  0  0
 87174  1  0  0  0
 87 90  1  0  0  0
 88 91  1  0  0  0
 88175  1  0  0  0
 88176  1  0  0  0
 89177  1  0  0  0
 90178  1  0  0  0
 91179  1  0  0  0
M  CHG  2  90   1  91   1
M  ISO  4   1 100  68 101  82 101  89 100
M  END
> <chiral flag>
0

> <version>
0

> <s_m_source_file>
/data/baiqing/PycharmProjects/Reinvent-master-3.2/result/LINK_invent/BTK/process_docking_weight1_custom_product_contain_oxygen_bond_distance_aromatic_linkinvent_7_9_3/rearranged_h_0043.sdf

> <i_m_source_file_index>
58

> <r_mmod_Potential_Energy-OPLS-2005>
-74.7555084228516

> <r_mmod_Stretch_Energy-OPLS-2005>
107.632377624512

> <r_mmod_Bend_Energy-OPLS-2005>
184.515502929688

> <r_mmod_Torsional_Energy-OPLS-2005>
239.674957275391

> <r_mmod_Improper_Torsional_Energy-OPLS-2005>
4.04444599151611

> <r_mmod_Van_der_Waal_Energy-OPLS-2005>
171.084838867188

> <r_mmod_Electrostatic_Energy-OPLS-2005>
102.849922180176

> <r_mmod_Solvation_Energy-OPLS-2005>
-935.516845703125

> <b_mmod_Minimization_Converged-OPLS-2005>
0

> <r_mmod_RMS_Derivative-OPLS-2005>
2.05841612815857

$$$$
58
                    3D
 Structure written by MMmdl.
167176  0  0  1  0            999 V2000
  -30.6625  -14.7097   20.4404 C   0  0  0  0  0  0
  -30.4110  -12.4271   19.4727 C   0  0  0  0  0  0
  -29.5006  -12.4956   18.2302 C   0  0  0  0  0  0
  -28.0244  -12.3375   18.6416 C   0  0  0  0  0  0
  -27.6363  -13.2397   19.8445 C   0  0  2  0  0  0
  -28.6829  -13.1892   20.9794 C   0  0  0  0  0  0
  -25.2480  -13.8220   20.5716 C   0  0  0  0  0  0
  -24.1784  -13.0444   20.9227 C   0  0  0  0  0  0
  -24.6386  -11.6929   20.8751 C   0  0  0  0  0  0
  -23.9067  -10.4300   21.0403 C   0  0  0  0  0  0
  -24.3617   -9.4216   21.9181 C   0  0  0  0  0  0
  -23.6297   -8.2245   22.0750 C   0  0  0  0  0  0
  -22.4279   -8.0282   21.3543 C   0  0  0  0  0  0
  -21.9912   -9.0252   20.4637 C   0  0  0  0  0  0
  -22.7238  -10.2134   20.3050 C   0  0  0  0  0  0
  -21.6854   -6.0734   22.5280 C   0  0  0  0  0  0
  -21.4010   -6.5637   23.8214 C   0  0  0  0  0  0
  -21.3662   -5.6790   24.9177 C   0  0  0  0  0  0
  -21.6049   -4.3052   24.7224 C   0  0  0  0  0  0
  -21.8821   -3.8145   23.4344 C   0  0  0  0  0  0
  -21.9190   -4.6961   22.3400 C   0  0  0  0  0  0
  -22.7802  -13.5215   21.1882 C   0  0  0  0  0  0
  -22.1664   -4.2150   21.0976 F   0  0  0  0  0  0
  -21.5628   -3.4534   25.7734 F   0  0  0  0  0  0
  -29.9849  -13.5128   20.3870 N   0  0  0  0  0  0
  -26.2909  -12.9446   20.3271 N   0  0  0  0  0  0
  -25.9319  -11.6577   20.5753 N   0  0  0  0  0  0
  -22.0447  -12.8202   22.0427 N   0  0  0  0  0  0
  -25.4137  -15.1952   20.4149 N   0  0  0  0  0  0
  -31.8618  -14.7022   20.1621 O   0  0  0  0  0  0
  -21.6644   -6.8879   21.4241 O   0  0  0  0  0  0
  -22.3492  -14.5523   20.6729 O   0  0  0  0  0  0
  -24.6314  -31.8564   23.1986 C   0  0  0  0  0  0
  -25.9157  -32.4756   23.8316 C   0  0  1  0  0  0
  -27.2171  -27.2709   20.1215 C   0  0  0  0  0  0
  -25.5980  -33.8557   24.2252 N   0  0  0  0  0  0
  -23.4239  -30.4806   21.5423 C   0  0  2  0  0  0
  -24.8683  -28.9278   20.1082 C   0  0  0  0  0  0
  -22.7493  -29.4606   22.4914 C   0  0  0  0  0  0
  -18.0291  -28.1381   22.8482 C   0  0  0  0  0  0
  -24.1487  -36.7262   23.2635 C   0  0  0  0  0  0
  -25.9681  -30.7729   21.3745 C   0  0  0  0  0  0
  -26.0378  -29.3956   20.7175 C   0  0  0  0  0  0
  -27.2105  -28.5784   20.7153 C   0  0  0  0  0  0
  -26.0182  -26.8646   19.4904 C   0  0  0  0  0  0
  -24.8631  -27.6704   19.4869 C   0  0  0  0  0  0
  -23.6395  -29.8151   20.1573 C   0  0  0  0  0  0
  -25.4122  -36.3059   24.0318 C   0  0  1  0  0  0
  -20.5894  -28.3686   23.1268 C   0  0  2  0  0  0
  -20.6776  -26.9404   22.5404 C   0  0  0  0  0  0
  -19.5751  -26.6374   21.5206 C   0  0  0  0  0  0
  -18.1929  -26.7926   22.1613 C   0  0  0  0  0  0
  -19.1543  -28.8855   23.2865 C   0  0  0  0  0  0
  -18.9470  -30.1464   23.8871 C   0  0  0  0  0  0
  -17.6468  -30.6580   24.0559 C   0  0  0  0  0  0
  -25.9070  -34.9436   23.5074 C   0  0  0  0  0  0
  -16.5357  -29.9075   23.6339 C   0  0  0  0  0  0
  -16.7280  -28.6496   23.0354 C   0  0  0  0  0  0
  -26.4533  -31.6585   25.0702 C   0  0  0  0  0  0
  -25.3759  -31.3748   26.1426 C   0  0  0  0  0  0
  -27.0394  -30.3010   24.6179 C   0  0  0  0  0  0
  -27.6079  -32.4328   25.7494 C   0  0  0  0  0  0
  -27.5570  -37.1791   24.8467 C   0  0  0  0  0  0
  -21.4201  -29.3037   22.3662 N   0  0  0  0  0  0
  -26.4283  -37.3769   23.9410 N   0  0  0  0  0  0
  -24.6935  -31.0550   22.0947 N   0  0  0  0  0  0
  -23.4209  -28.8152   23.3004 O   0  0  0  0  0  0
  -28.3462  -26.4262   20.2068 O   0  0  0  0  0  0
  -26.5602  -34.8917   22.4622 O   0  0  0  0  0  0
  -23.5475  -32.1369   23.7314 O   0  0  0  0  0  0
  -32.2442  -18.9358   20.1408 C   0  0  0  0  0  0
  -31.7535  -17.6238   20.1600 C   0  0  0  0  0  0
  -29.5504  -18.4977   20.6464 C   0  0  0  0  0  0
  -31.4265  -20.0454   20.4122 C   0  0  0  0  0  0
  -30.0255  -19.8819   20.6113 C   0  0  0  0  0  0
  -30.4032  -17.3266   20.4619 C   0  0  0  0  0  0
  -28.4689  -23.8210   20.7480 C   0  0  0  0  0  0
  -28.1665  -24.0594   22.0456 C   0  0  0  0  0  0
  -30.4124  -23.6861   18.7069 C   0  0  0  0  0  0
  -29.6282  -25.0052   18.7346 C   0  0  0  0  0  0
  -29.5037  -22.4482   18.8253 C   0  0  0  0  0  0
  -28.4237  -25.0137   19.6965 C   0  0  2  0  0  0
  -32.1510  -21.3774   20.5319 C   0  0  0  0  0  0
  -28.0396  -23.1030   23.2165 C   0  0  0  0  0  0
  -29.1374  -21.1548   21.0208 C   0  0  0  0  0  0
  -29.9567  -15.9032   20.5837 N   0  0  0  0  0  0
  -28.7952  -22.3833   20.1326 N   0  3  1  0  0  0
  -31.4565  -12.5098   19.1729 H   0  0  0  0  0  0
  -30.3214  -11.4558   19.9623 H   0  0  0  0  0  0
  -29.7753  -11.7188   17.5156 H   0  0  0  0  0  0
  -29.6449  -13.4477   17.7172 H   0  0  0  0  0  0
  -27.8686  -11.2895   18.9001 H   0  0  0  0  0  0
  -27.3719  -12.5399   17.7909 H   0  0  0  0  0  0
  -27.6256  -14.2599   19.4594 H   0  0  0  0  0  0
  -28.7095  -12.2016   21.4423 H   0  0  0  0  0  0
  -28.4293  -13.8951   21.7714 H   0  0  0  0  0  0
  -25.2759   -9.5696   22.4760 H   0  0  0  0  0  0
  -24.0010   -7.4633   22.7467 H   0  0  0  0  0  0
  -21.0846   -8.8760   19.8941 H   0  0  0  0  0  0
  -22.3691  -10.9666   19.6157 H   0  0  0  0  0  0
  -21.2004   -7.6147   23.9718 H   0  0  0  0  0  0
  -21.1484   -6.0519   25.9082 H   0  0  0  0  0  0
  -22.0597   -2.7607   23.2840 H   0  0  0  0  0  0
  -22.4053  -11.9862   22.4822 H   0  0  0  0  0  0
  -21.1056  -13.1219   22.2618 H   0  0  0  0  0  0
  -24.6391  -15.8416   20.5270 H   0  0  0  0  0  0
  -26.2525  -15.6409   20.0667 H   0  0  0  0  0  0
  -26.7222  -32.5411   23.1055 H   0  0  0  0  0  0
  -25.0254  -33.9703   25.0485 H   0  0  0  0  0  0
  -22.7186  -31.3026   21.4000 H   0  0  0  0  0  0
  -23.3756  -35.9585   23.3300 H   0  0  0  0  0  0
  -24.3579  -36.8885   22.2048 H   0  0  0  0  0  0
  -23.7229  -37.6459   23.6661 H   0  0  0  0  0  0
  -26.1038  -31.5343   20.6048 H   0  0  0  0  0  0
  -26.8472  -30.8212   22.0059 H   0  0  0  0  0  0
  -28.1049  -28.9333   21.2080 H   0  0  0  0  0  0
  -25.9149  -25.9069   19.0092 H   0  0  0  0  0  0
  -23.9642  -27.3056   19.0088 H   0  0  0  0  0  0
  -23.7643  -30.5911   19.4012 H   0  0  0  0  0  0
  -22.7556  -29.2516   19.8529 H   0  0  0  0  0  0
  -25.1307  -36.1890   25.0807 H   0  0  0  0  0  0
  -20.9985  -28.3253   24.1390 H   0  0  0  0  0  0
  -20.5670  -26.2293   23.3605 H   0  0  0  0  0  0
  -21.6646  -26.7426   22.1201 H   0  0  0  0  0  0
  -19.6903  -25.6280   21.1245 H   0  0  0  0  0  0
  -19.6690  -27.3176   20.6727 H   0  0  0  0  0  0
  -17.4206  -26.6685   21.4007 H   0  0  0  0  0  0
  -18.0316  -26.0064   22.9003 H   0  0  0  0  0  0
  -19.7953  -30.7291   24.2201 H   0  0  0  0  0  0
  -17.5030  -31.6261   24.5161 H   0  0  0  0  0  0
  -15.5356  -30.2971   23.7687 H   0  0  0  0  0  0
  -15.8680  -28.0820   22.7064 H   0  0  0  0  0  0
  -24.5937  -30.7087   25.7769 H   0  0  0  0  0  0
  -24.8950  -32.2929   26.4809 H   0  0  0  0  0  0
  -25.8083  -30.8966   27.0222 H   0  0  0  0  0  0
  -26.2980  -29.6738   24.1213 H   0  0  0  0  0  0
  -27.4113  -29.7292   25.4689 H   0  0  0  0  0  0
  -27.8837  -30.4305   23.9401 H   0  0  0  0  0  0
  -27.2680  -33.3646   26.2026 H   0  0  0  0  0  0
  -28.3929  -32.6853   25.0353 H   0  0  0  0  0  0
  -28.0694  -31.8474   26.5457 H   0  0  0  0  0  0
  -28.2590  -38.0086   24.7525 H   0  0  0  0  0  0
  -28.1062  -36.2621   24.6288 H   0  0  0  0  0  0
  -27.2288  -37.1431   25.8869 H   0  0  0  0  0  0
  -20.9374  -29.8779   21.6892 H   0  0  0  0  0  0
  -26.0149  -38.2833   24.1432 H   0  0  0  0  0  0
  -33.3008  -19.0824   19.9602 H   0  0  0  0  0  0
  -32.4929  -16.8671   19.9667 H   0  0  0  0  0  0
  -28.5076  -18.3294   20.8762 H   0  0  0  0  0  0
  -27.9743  -25.0886   22.3172 H   0  0  0  0  0  0
  -31.1380  -23.7023   19.5175 H   0  0  0  0  0  0
  -30.9944  -23.6331   17.7863 H   0  0  0  0  0  0
  -29.2769  -25.2528   17.7318 H   0  0  0  0  0  0
  -30.3231  -25.8022   19.0032 H   0  0  0  0  0  0
  -30.0653  -21.5425   18.6090 H   0  0  0  0  0  0
  -28.7444  -22.4971   18.0436 H   0  0  0  0  0  0
  -27.5674  -24.7675   19.0778 H   0  0  0  0  0  0
  -33.0989  -21.2393   21.0541 H   0  0  0  0  0  0
  -31.6046  -22.1298   21.0947 H   0  0  0  0  0  0
  -32.3897  -21.7661   19.5424 H   0  0  0  0  0  0
  -27.4976  -22.1964   22.9539 H   0  0  0  0  0  0
  -27.4683  -23.5862   24.0106 H   0  0  0  0  0  0
  -29.0159  -22.8495   23.6303 H   0  0  0  0  0  0
  -29.6302  -21.5299   21.9128 H   0  0  0  0  0  0
  -28.1842  -20.7583   21.3681 H   0  0  0  0  0  0
  -28.9720  -15.7765   20.7612 H   0  0  0  0  0  0
  -27.8996  -22.0565   19.8026 H   0  0  0  0  0  0
  1 25  1  0  0  0
  1 30  2  0  0  0
  1 86  1  0  0  0
  2  3  1  0  0  0
  2 25  1  0  0  0
  2 88  1  0  0  0
  2 89  1  0  0  0
  3  4  1  0  0  0
  3 90  1  0  0  0
  3 91  1  0  0  0
  4  5  1  0  0  0
  4 92  1  0  0  0
  4 93  1  0  0  0
  5  6  1  0  0  0
  5 26  1  0  0  0
  5 94  1  0  0  0
  6 25  1  0  0  0
  6 95  1  0  0  0
  6 96  1  0  0  0
  7  8  2  0  0  0
  7 26  1  0  0  0
  7 29  1  0  0  0
  8  9  1  0  0  0
  8 22  1  0  0  0
  9 10  1  0  0  0
  9 27  2  0  0  0
 10 11  2  0  0  0
 10 15  1  0  0  0
 11 12  1  0  0  0
 11 97  1  0  0  0
 12 13  2  0  0  0
 12 98  1  0  0  0
 13 14  1  0  0  0
 13 31  1  0  0  0
 14 15  2  0  0  0
 14 99  1  0  0  0
 15100  1  0  0  0
 16 17  2  0  0  0
 16 21  1  0  0  0
 16 31  1  0  0  0
 17 18  1  0  0  0
 17101  1  0  0  0
 18 19  2  0  0  0
 18102  1  0  0  0
 19 20  1  0  0  0
 19 24  1  0  0  0
 20 21  2  0  0  0
 20103  1  0  0  0
 21 23  1  0  0  0
 22 28  1  0  0  0
 22 32  2  0  0  0
 26 27  1  0  0  0
 28104  1  0  0  0
 28105  1  0  0  0
 29106  1  0  0  0
 29107  1  0  0  0
 33 34  1  0  0  0
 33 66  1  0  0  0
 33 70  2  0  0  0
 34 36  1  0  0  0
 34 59  1  0  0  0
 34108  1  0  0  0
 35 44  2  0  0  0
 35 45  1  0  0  0
 35 68  1  0  0  0
 36 56  1  0  0  0
 36109  1  0  0  0
 37 39  1  0  0  0
 37 47  1  0  0  0
 37 66  1  0  0  0
 37110  1  0  0  0
 38 43  2  0  0  0
 38 46  1  0  0  0
 38 47  1  0  0  0
 39 64  1  0  0  0
 39 67  2  0  0  0
 40 52  1  0  0  0
 40 53  2  0  0  0
 40 58  1  0  0  0
 41111  1  0  0  0
 41112  1  0  0  0
 41113  1  0  0  0
 41 48  1  0  0  0
 42 43  1  0  0  0
 42 66  1  0  0  0
 42114  1  0  0  0
 42115  1  0  0  0
 43 44  1  0  0  0
 44116  1  0  0  0
 45 46  2  0  0  0
 45117  1  0  0  0
 46118  1  0  0  0
 47119  1  0  0  0
 47120  1  0  0  0
 48 56  1  0  0  0
 48 65  1  0  0  0
 48121  1  0  0  0
 49 50  1  0  0  0
 49 53  1  0  0  0
 49 64  1  0  0  0
 49122  1  0  0  0
 50 51  1  0  0  0
 50123  1  0  0  0
 50124  1  0  0  0
 51 52  1  0  0  0
 51125  1  0  0  0
 51126  1  0  0  0
 52127  1  0  0  0
 52128  1  0  0  0
 53 54  1  0  0  0
 54 55  2  0  0  0
 54129  1  0  0  0
 55 57  1  0  0  0
 55130  1  0  0  0
 56 69  2  0  0  0
 57 58  2  0  0  0
 57131  1  0  0  0
 58132  1  0  0  0
 59 60  1  0  0  0
 59 61  1  0  0  0
 59 62  1  0  0  0
 60133  1  0  0  0
 60134  1  0  0  0
 60135  1  0  0  0
 61136  1  0  0  0
 61137  1  0  0  0
 61138  1  0  0  0
 62139  1  0  0  0
 62140  1  0  0  0
 62141  1  0  0  0
 63 65  1  0  0  0
 63142  1  0  0  0
 63143  1  0  0  0
 63144  1  0  0  0
 64145  1  0  0  0
 65146  1  0  0  0
 68 82  1  0  0  0
 71 72  2  0  0  0
 71 74  1  0  0  0
 71147  1  0  0  0
 72 76  1  0  0  0
 72148  1  0  0  0
 73 75  1  0  0  0
 73 76  2  0  0  0
 73149  1  0  0  0
 74 75  2  0  0  0
 74 83  1  0  0  0
 75 85  1  0  0  0
 76 86  1  0  0  0
 77 78  2  0  0  0
 77 82  1  0  0  0
 77 87  1  0  0  0
 78 84  1  0  0  0
 78150  1  0  0  0
 79 80  1  0  0  0
 79 81  1  0  0  0
 79151  1  0  0  0
 79152  1  0  0  0
 80 82  1  0  0  0
 80153  1  0  0  0
 80154  1  0  0  0
 81 87  1  0  0  0
 81155  1  0  0  0
 81156  1  0  0  0
 82157  1  0  0  0
 83158  1  0  0  0
 83159  1  0  0  0
 83160  1  0  0  0
 84161  1  0  0  0
 84162  1  0  0  0
 84163  1  0  0  0
 85164  1  0  0  0
 85165  1  0  0  0
 85 87  1  0  0  0
 86166  1  0  0  0
 87167  1  0  0  0
M  CHG  1  87   1
M  ISO  4   1 100  68 101  82 101  86 100
M  END
> <chiral flag>
0

> <version>
0

> <s_m_source_file>
/data/baiqing/PycharmProjects/Reinvent-master-3.2/result/LINK_invent/BTK/process_docking_weight1_custom_product_contain_oxygen_bond_distance_aromatic_linkinvent_7_9_3/rearranged_h_0043.sdf

> <i_m_source_file_index>
59

> <r_mmod_Potential_Energy-OPLS-2005>
139.339965820312

> <r_mmod_Stretch_Energy-OPLS-2005>
141.380462646484

> <r_mmod_Bend_Energy-OPLS-2005>
219.625503540039

> <r_mmod_Torsional_Energy-OPLS-2005>
247.784149169922

> <r_mmod_Improper_Torsional_Energy-OPLS-2005>
6.25335693359375

> <r_mmod_Van_der_Waal_Energy-OPLS-2005>
164.039215087891

> <r_mmod_Electrostatic_Energy-OPLS-2005>
-279.029693603516

> <r_mmod_Solvation_Energy-OPLS-2005>
-436.292358398438

> <b_mmod_Minimization_Converged-OPLS-2005>
0

> <r_mmod_RMS_Derivative-OPLS-2005>
1.31095540523529

$$$$
59
                    3D
 Structure written by MMmdl.
164173  0  0  1  0            999 V2000
  -30.6237  -14.7225   20.4695 C   0  0  0  0  0  0
  -30.4296  -12.4422   19.4724 C   0  0  0  0  0  0
  -29.5034  -12.4972   18.2380 C   0  0  0  0  0  0
  -28.0327  -12.3213   18.6582 C   0  0  0  0  0  0
  -27.6409  -13.2289   19.8536 C   0  0  2  0  0  0
  -28.6848  -13.1617   20.9900 C   0  0  0  0  0  0
  -25.2502  -13.8193   20.5702 C   0  0  0  0  0  0
  -24.1803  -13.0453   20.9217 C   0  0  0  0  0  0
  -24.6385  -11.6923   20.8778 C   0  0  0  0  0  0
  -23.9071  -10.4301   21.0434 C   0  0  0  0  0  0
  -24.3624   -9.4204   21.9191 C   0  0  0  0  0  0
  -23.6300   -8.2243   22.0749 C   0  0  0  0  0  0
  -22.4283   -8.0293   21.3546 C   0  0  0  0  0  0
  -21.9925   -9.0262   20.4642 C   0  0  0  0  0  0
  -22.7256  -10.2140   20.3063 C   0  0  0  0  0  0
  -21.6854   -6.0748   22.5271 C   0  0  0  0  0  0
  -21.4014   -6.5642   23.8209 C   0  0  0  0  0  0
  -21.3657   -5.6796   24.9174 C   0  0  0  0  0  0
  -21.6041   -4.3058   24.7220 C   0  0  0  0  0  0
  -21.8825   -3.8154   23.4339 C   0  0  0  0  0  0
  -21.9188   -4.6973   22.3397 C   0  0  0  0  0  0
  -22.7815  -13.5216   21.1874 C   0  0  0  0  0  0
  -22.1661   -4.2155   21.0978 F   0  0  0  0  0  0
  -21.5624   -3.4536   25.7733 F   0  0  0  0  0  0
  -29.9887  -13.5027   20.4088 N   0  0  0  0  0  0
  -26.2928  -12.9391   20.3307 N   0  0  0  0  0  0
  -25.9308  -11.6538   20.5791 N   0  0  0  0  0  0
  -22.0480  -12.8207   22.0437 N   0  0  0  0  0  0
  -25.4183  -15.1929   20.4080 N   0  0  0  0  0  0
  -31.8051  -14.8191   20.1291 O   0  0  0  0  0  0
  -21.6647   -6.8896   21.4243 O   0  0  0  0  0  0
  -22.3487  -14.5528   20.6727 O   0  0  0  0  0  0
  -24.6309  -31.8603   23.2016 C   0  0  0  0  0  0
  -25.9145  -32.4778   23.8341 C   0  0  1  0  0  0
  -27.2076  -27.2563   20.1103 C   0  0  0  0  0  0
  -25.5960  -33.8570   24.2287 N   0  0  0  0  0  0
  -23.4265  -30.4892   21.5460 C   0  0  2  0  0  0
  -24.8684  -28.9399   20.1087 C   0  0  0  0  0  0
  -22.7512  -29.4663   22.4919 C   0  0  0  0  0  0
  -18.0318  -28.1402   22.8506 C   0  0  0  0  0  0
  -24.1487  -36.7277   23.2644 C   0  0  0  0  0  0
  -25.9745  -30.7630   21.3880 C   0  0  0  0  0  0
  -26.0417  -29.3864   20.7278 C   0  0  0  0  0  0
  -27.2084  -28.5521   20.7311 C   0  0  0  0  0  0
  -26.0102  -26.8984   19.4413 C   0  0  0  0  0  0
  -24.8575  -27.7014   19.4581 C   0  0  0  0  0  0
  -23.6433  -29.8329   20.1587 C   0  0  0  0  0  0
  -25.4094  -36.3051   24.0363 C   0  0  1  0  0  0
  -20.5921  -28.3727   23.1284 C   0  0  2  0  0  0
  -20.6832  -26.9455   22.5399 C   0  0  0  0  0  0
  -19.5789  -26.6421   21.5216 C   0  0  0  0  0  0
  -18.1961  -26.7946   22.1635 C   0  0  0  0  0  0
  -19.1580  -28.8876   23.2874 C   0  0  0  0  0  0
  -18.9495  -30.1475   23.8891 C   0  0  0  0  0  0
  -17.6492  -30.6616   24.0558 C   0  0  0  0  0  0
  -25.9056  -34.9446   23.5113 C   0  0  0  0  0  0
  -16.5377  -29.9119   23.6328 C   0  0  0  0  0  0
  -16.7304  -28.6531   23.0360 C   0  0  0  0  0  0
  -26.4466  -31.6587   25.0732 C   0  0  0  0  0  0
  -25.3695  -31.3733   26.1475 C   0  0  0  0  0  0
  -27.0352  -30.3016   24.6221 C   0  0  0  0  0  0
  -27.6026  -32.4316   25.7511 C   0  0  0  0  0  0
  -27.5581  -37.1778   24.8480 C   0  0  0  0  0  0
  -21.4230  -29.3086   22.3673 N   0  0  0  0  0  0
  -26.4272  -37.3748   23.9450 N   0  0  0  0  0  0
  -24.6957  -31.0568   22.0997 N   0  0  0  0  0  0
  -23.4227  -28.8205   23.3019 O   0  0  0  0  0  0
  -28.2993  -26.3511   20.1852 O   0  0  0  0  0  0
  -26.5598  -34.8929   22.4664 O   0  0  0  0  0  0
  -23.5460  -32.1477   23.7307 O   0  0  0  0  0  0
  -29.6500  -19.9118   20.3034 C   0  0  0  0  0  0
  -28.2506  -18.3972   21.5687 C   0  0  0  0  0  0
  -29.3806  -18.5594   20.7570 C   0  0  0  0  0  0
  -27.6627  -20.8048   21.3948 C   0  0  0  0  0  0
  -28.8235  -21.0863   20.5925 C   0  0  0  0  0  0
  -27.4220  -19.4876   21.8933 C   0  0  0  0  0  0
  -28.7780  -23.7224   20.5504 C   0  0  0  0  0  0
  -28.0826  -23.6451   17.4284 C   0  0  0  0  0  0
  -29.1672  -22.5628   17.4975 C   0  0  0  0  0  0
  -28.4657  -24.9445   18.1569 C   0  0  0  0  0  0
  -29.9533  -22.5486   18.8170 C   0  0  0  0  0  0
  -28.1606  -24.9347   19.6769 C   0  0  2  0  0  0
  -26.6067  -21.8715   21.6941 C   0  0  0  0  0  0
  -30.3031  -17.3028   20.4348 C   0  0  0  0  0  0
  -29.0866  -22.4620   20.0094 N   0  0  0  0  0  0
  -29.8692  -15.8614   20.6901 N   0  0  0  0  0  0
  -28.9338  -23.9353   21.7574 O   0  0  0  0  0  0
  -26.0818  -19.1397   22.9348 Cl  0  0  0  0  0  0
  -31.4699  -12.5626   19.1649 H   0  0  0  0  0  0
  -30.3740  -11.4644   19.9564 H   0  0  0  0  0  0
  -29.7781  -11.7219   17.5223 H   0  0  0  0  0  0
  -29.6277  -13.4509   17.7226 H   0  0  0  0  0  0
  -27.8965  -11.2746   18.9361 H   0  0  0  0  0  0
  -27.3693  -12.4965   17.8105 H   0  0  0  0  0  0
  -27.6376  -14.2491   19.4674 H   0  0  0  0  0  0
  -28.7149  -12.1653   21.4354 H   0  0  0  0  0  0
  -28.4243  -13.8486   21.7970 H   0  0  0  0  0  0
  -25.2761   -9.5679   22.4767 H   0  0  0  0  0  0
  -24.0002   -7.4634   22.7467 H   0  0  0  0  0  0
  -21.0851   -8.8793   19.8943 H   0  0  0  0  0  0
  -22.3717  -10.9690   19.6178 H   0  0  0  0  0  0
  -21.2021   -7.6148   23.9718 H   0  0  0  0  0  0
  -21.1465   -6.0522   25.9078 H   0  0  0  0  0  0
  -22.0609   -2.7610   23.2839 H   0  0  0  0  0  0
  -22.4101  -11.9865   22.4822 H   0  0  0  0  0  0
  -21.1097  -13.1213   22.2667 H   0  0  0  0  0  0
  -24.6462  -15.8427   20.5112 H   0  0  0  0  0  0
  -26.2570  -15.6306   20.0486 H   0  0  0  0  0  0
  -26.7222  -32.5398   23.1073 H   0  0  0  0  0  0
  -25.0047  -33.9651   25.0394 H   0  0  0  0  0  0
  -22.7221  -31.3115   21.4054 H   0  0  0  0  0  0
  -23.3747  -35.9605   23.3267 H   0  0  0  0  0  0
  -24.3554  -36.8913   22.2059 H   0  0  0  0  0  0
  -23.7281  -37.6494   23.6679 H   0  0  0  0  0  0
  -26.1235  -31.5212   20.6183 H   0  0  0  0  0  0
  -26.8478  -30.8085   22.0254 H   0  0  0  0  0  0
  -28.1013  -28.8788   21.2451 H   0  0  0  0  0  0
  -25.9038  -25.9787   18.8906 H   0  0  0  0  0  0
  -23.9635  -27.3588   18.9571 H   0  0  0  0  0  0
  -23.7766  -30.6167   19.4115 H   0  0  0  0  0  0
  -22.7544  -29.2830   19.8452 H   0  0  0  0  0  0
  -25.1252  -36.1850   25.0859 H   0  0  0  0  0  0
  -20.9977  -28.3331   24.1436 H   0  0  0  0  0  0
  -20.5788  -26.2327   23.3596 H   0  0  0  0  0  0
  -21.6691  -26.7558   22.1141 H   0  0  0  0  0  0
  -19.6931  -25.6321   21.1281 H   0  0  0  0  0  0
  -19.6710  -27.3216   20.6725 H   0  0  0  0  0  0
  -17.4235  -26.6707   21.4041 H   0  0  0  0  0  0
  -18.0348  -26.0069   22.9019 H   0  0  0  0  0  0
  -19.7967  -30.7277   24.2293 H   0  0  0  0  0  0
  -17.5068  -31.6301   24.5149 H   0  0  0  0  0  0
  -15.5375  -30.3007   23.7712 H   0  0  0  0  0  0
  -15.8700  -28.0849   22.7093 H   0  0  0  0  0  0
  -24.5847  -30.7070   25.7850 H   0  0  0  0  0  0
  -24.8857  -32.2890   26.4895 H   0  0  0  0  0  0
  -25.8007  -30.8947   27.0283 H   0  0  0  0  0  0
  -26.2962  -29.6700   24.1275 H   0  0  0  0  0  0
  -27.4107  -29.7311   25.4728 H   0  0  0  0  0  0
  -27.8794  -30.4307   23.9444 H   0  0  0  0  0  0
  -27.2654  -33.3634   26.2060 H   0  0  0  0  0  0
  -28.3865  -32.6843   25.0365 H   0  0  0  0  0  0
  -28.0658  -31.8449   26.5449 H   0  0  0  0  0  0
  -28.2582  -38.0090   24.7524 H   0  0  0  0  0  0
  -28.1107  -36.2630   24.6288 H   0  0  0  0  0  0
  -27.2306  -37.1401   25.8883 H   0  0  0  0  0  0
  -20.9436  -29.8749   21.6819 H   0  0  0  0  0  0
  -26.0144  -38.2834   24.1395 H   0  0  0  0  0  0
  -30.5423  -20.0059   19.7045 H   0  0  0  0  0  0
  -28.0079  -17.4224   21.9634 H   0  0  0  0  0  0
  -27.1455  -23.2604   17.8307 H   0  0  0  0  0  0
  -27.8800  -23.8655   16.3790 H   0  0  0  0  0  0
  -29.8772  -22.7223   16.6838 H   0  0  0  0  0  0
  -28.7184  -21.5832   17.3189 H   0  0  0  0  0  0
  -27.8906  -25.7474   17.6988 H   0  0  0  0  0  0
  -29.5069  -25.2097   17.9657 H   0  0  0  0  0  0
  -30.5821  -23.4399   18.8802 H   0  0  0  0  0  0
  -30.6982  -21.7631   18.7673 H   0  0  0  0  0  0
  -27.1200  -24.6434   19.7883 H   0  0  0  0  0  0
  -26.3976  -22.4684   20.8091 H   0  0  0  0  0  0
  -26.9209  -22.5217   22.5107 H   0  0  0  0  0  0
  -25.6399  -21.4630   21.9803 H   0  0  0  0  0  0
  -31.2369  -17.4607   20.9777 H   0  0  0  0  0  0
  -30.5679  -17.3651   19.3779 H   0  0  0  0  0  0
  -28.9009  -15.7137   20.9267 H   0  0  0  0  0  0
  1 25  1  0  0  0
  1 30  2  0  0  0
  1 86  1  0  0  0
  2  3  1  0  0  0
  2 25  1  0  0  0
  2 89  1  0  0  0
  2 90  1  0  0  0
  3  4  1  0  0  0
  3 91  1  0  0  0
  3 92  1  0  0  0
  4  5  1  0  0  0
  4 93  1  0  0  0
  4 94  1  0  0  0
  5  6  1  0  0  0
  5 26  1  0  0  0
  5 95  1  0  0  0
  6 25  1  0  0  0
  6 96  1  0  0  0
  6 97  1  0  0  0
  7  8  2  0  0  0
  7 26  1  0  0  0
  7 29  1  0  0  0
  8  9  1  0  0  0
  8 22  1  0  0  0
  9 10  1  0  0  0
  9 27  2  0  0  0
 10 11  2  0  0  0
 10 15  1  0  0  0
 11 12  1  0  0  0
 11 98  1  0  0  0
 12 13  2  0  0  0
 12 99  1  0  0  0
 13 14  1  0  0  0
 13 31  1  0  0  0
 14 15  2  0  0  0
 14100  1  0  0  0
 15101  1  0  0  0
 16 17  2  0  0  0
 16 21  1  0  0  0
 16 31  1  0  0  0
 17 18  1  0  0  0
 17102  1  0  0  0
 18 19  2  0  0  0
 18103  1  0  0  0
 19 20  1  0  0  0
 19 24  1  0  0  0
 20 21  2  0  0  0
 20104  1  0  0  0
 21 23  1  0  0  0
 22 28  1  0  0  0
 22 32  2  0  0  0
 26 27  1  0  0  0
 28105  1  0  0  0
 28106  1  0  0  0
 29107  1  0  0  0
 29108  1  0  0  0
 33 34  1  0  0  0
 33 66  1  0  0  0
 33 70  2  0  0  0
 34 36  1  0  0  0
 34 59  1  0  0  0
 34109  1  0  0  0
 35 44  2  0  0  0
 35 45  1  0  0  0
 35 68  1  0  0  0
 36 56  1  0  0  0
 36110  1  0  0  0
 37 39  1  0  0  0
 37 47  1  0  0  0
 37 66  1  0  0  0
 37111  1  0  0  0
 38 43  2  0  0  0
 38 46  1  0  0  0
 38 47  1  0  0  0
 39 64  1  0  0  0
 39 67  2  0  0  0
 40 52  1  0  0  0
 40 53  2  0  0  0
 40 58  1  0  0  0
 41112  1  0  0  0
 41113  1  0  0  0
 41114  1  0  0  0
 41 48  1  0  0  0
 42 43  1  0  0  0
 42 66  1  0  0  0
 42115  1  0  0  0
 42116  1  0  0  0
 43 44  1  0  0  0
 44117  1  0  0  0
 45 46  2  0  0  0
 45118  1  0  0  0
 46119  1  0  0  0
 47120  1  0  0  0
 47121  1  0  0  0
 48 56  1  0  0  0
 48 65  1  0  0  0
 48122  1  0  0  0
 49 50  1  0  0  0
 49 53  1  0  0  0
 49 64  1  0  0  0
 49123  1  0  0  0
 50 51  1  0  0  0
 50124  1  0  0  0
 50125  1  0  0  0
 51 52  1  0  0  0
 51126  1  0  0  0
 51127  1  0  0  0
 52128  1  0  0  0
 52129  1  0  0  0
 53 54  1  0  0  0
 54 55  2  0  0  0
 54130  1  0  0  0
 55 57  1  0  0  0
 55131  1  0  0  0
 56 69  2  0  0  0
 57 58  2  0  0  0
 57132  1  0  0  0
 58133  1  0  0  0
 59 60  1  0  0  0
 59 61  1  0  0  0
 59 62  1  0  0  0
 60134  1  0  0  0
 60135  1  0  0  0
 60136  1  0  0  0
 61137  1  0  0  0
 61138  1  0  0  0
 61139  1  0  0  0
 62140  1  0  0  0
 62141  1  0  0  0
 62142  1  0  0  0
 63 65  1  0  0  0
 63143  1  0  0  0
 63144  1  0  0  0
 63145  1  0  0  0
 64146  1  0  0  0
 65147  1  0  0  0
 68 82  1  0  0  0
 71 73  2  0  0  0
 71 75  1  0  0  0
 71148  1  0  0  0
 72 73  1  0  0  0
 72 76  2  0  0  0
 72149  1  0  0  0
 73 84  1  0  0  0
 74 75  2  0  0  0
 74 76  1  0  0  0
 74 83  1  0  0  0
 75 85  1  0  0  0
 76 88  1  0  0  0
 77 82  1  0  0  0
 77 85  1  0  0  0
 77 87  2  0  0  0
 78 79  1  0  0  0
 78 80  1  0  0  0
 78150  1  0  0  0
 78151  1  0  0  0
 79 81  1  0  0  0
 79152  1  0  0  0
 79153  1  0  0  0
 80 82  1  0  0  0
 80154  1  0  0  0
 80155  1  0  0  0
 81 85  1  0  0  0
 81156  1  0  0  0
 81157  1  0  0  0
 82158  1  0  0  0
 83159  1  0  0  0
 83160  1  0  0  0
 83161  1  0  0  0
 84 86  1  0  0  0
 84162  1  0  0  0
 84163  1  0  0  0
 86164  1  0  0  0
M  ISO  4   1 100  68 101  82 101  86 100
M  END
> <chiral flag>
0

> <version>
0

> <s_m_source_file>
/data/baiqing/PycharmProjects/Reinvent-master-3.2/result/LINK_invent/BTK/process_docking_weight1_custom_product_contain_oxygen_bond_distance_aromatic_linkinvent_7_9_3/rearranged_h_0043.sdf

> <i_m_source_file_index>
60

> <r_mmod_Potential_Energy-OPLS-2005>
309.855102539062

> <r_mmod_Stretch_Energy-OPLS-2005>
141.890975952148

> <r_mmod_Bend_Energy-OPLS-2005>
178.595428466797

> <r_mmod_Torsional_Energy-OPLS-2005>
288.888244628906

> <r_mmod_Improper_Torsional_Energy-OPLS-2005>
6.17829942703247

> <r_mmod_Van_der_Waal_Energy-OPLS-2005>
167.705963134766

> <r_mmod_Electrostatic_Energy-OPLS-2005>
-332.169891357422

> <r_mmod_Solvation_Energy-OPLS-2005>
-225.047225952148

> <b_mmod_Minimization_Converged-OPLS-2005>
0

> <r_mmod_RMS_Derivative-OPLS-2005>
3.59419417381287

$$$$
60
                    3D
 Structure written by MMmdl.
161170  0  0  1  0            999 V2000
  -30.6221  -14.5536   20.5498 C   0  0  0  0  0  0
  -30.4266  -12.3487   19.4456 C   0  0  0  0  0  0
  -29.4995  -12.5285   18.2205 C   0  0  0  0  0  0
  -28.0138  -12.4064   18.6220 C   0  0  0  0  0  0
  -27.6553  -13.2216   19.8916 C   0  0  2  0  0  0
  -28.6935  -13.0040   21.0124 C   0  0  0  0  0  0
  -25.2528  -13.8202   20.5754 C   0  0  0  0  0  0
  -24.1780  -13.0427   20.9290 C   0  0  0  0  0  0
  -24.6390  -11.6916   20.8847 C   0  0  0  0  0  0
  -23.9077  -10.4264   21.0440 C   0  0  0  0  0  0
  -24.3635   -9.4173   21.9191 C   0  0  0  0  0  0
  -23.6268   -8.2236   22.0770 C   0  0  0  0  0  0
  -22.4241   -8.0297   21.3569 C   0  0  0  0  0  0
  -21.9890   -9.0286   20.4687 C   0  0  0  0  0  0
  -22.7274  -10.2127   20.3072 C   0  0  0  0  0  0
  -21.6833   -6.0759   22.5302 C   0  0  0  0  0  0
  -21.4035   -6.5639   23.8251 C   0  0  0  0  0  0
  -21.3631   -5.6781   24.9196 C   0  0  0  0  0  0
  -21.6007   -4.3050   24.7252 C   0  0  0  0  0  0
  -21.8796   -3.8164   23.4365 C   0  0  0  0  0  0
  -21.9190   -4.6988   22.3428 C   0  0  0  0  0  0
  -22.7797  -13.5230   21.1893 C   0  0  0  0  0  0
  -22.1650   -4.2160   21.1015 F   0  0  0  0  0  0
  -21.5576   -3.4528   25.7766 F   0  0  0  0  0  0
  -30.0136  -13.3369   20.4580 N   0  0  0  0  0  0
  -26.2965  -12.9395   20.3488 N   0  0  0  0  0  0
  -25.9307  -11.6533   20.5893 N   0  0  0  0  0  0
  -22.0430  -12.8200   22.0455 N   0  0  0  0  0  0
  -25.4223  -15.1910   20.4091 N   0  0  0  0  0  0
  -31.7619  -14.7519   20.1162 O   0  0  0  0  0  0
  -21.6600   -6.8910   21.4273 O   0  0  0  0  0  0
  -22.3506  -14.5525   20.6744 O   0  0  0  0  0  0
  -24.6203  -31.8644   23.2012 C   0  0  0  0  0  0
  -25.9083  -32.4785   23.8331 C   0  0  1  0  0  0
  -27.2416  -27.3719   20.1474 C   0  0  0  0  0  0
  -25.5926  -33.8577   24.2296 N   0  0  0  0  0  0
  -23.4095  -30.4819   21.5473 C   0  0  2  0  0  0
  -24.8600  -28.9309   20.1133 C   0  0  0  0  0  0
  -22.7404  -29.4663   22.5018 C   0  0  0  0  0  0
  -18.0264  -28.1371   22.8550 C   0  0  0  0  0  0
  -24.1485  -36.7270   23.2636 C   0  0  0  0  0  0
  -25.9364  -30.8192   21.3537 C   0  0  0  0  0  0
  -26.0158  -29.4438   20.7109 C   0  0  0  0  0  0
  -27.2007  -28.6707   20.7198 C   0  0  0  0  0  0
  -26.0720  -26.8836   19.5226 C   0  0  0  0  0  0
  -24.8869  -27.6561   19.5137 C   0  0  0  0  0  0
  -23.6196  -29.7993   20.1666 C   0  0  0  0  0  0
  -25.4107  -36.3072   24.0328 C   0  0  1  0  0  0
  -20.5853  -28.3680   23.1337 C   0  0  2  0  0  0
  -20.6744  -26.9411   22.5450 C   0  0  0  0  0  0
  -19.5721  -26.6390   21.5250 C   0  0  0  0  0  0
  -18.1898  -26.7932   22.1658 C   0  0  0  0  0  0
  -19.1507  -28.8846   23.2942 C   0  0  0  0  0  0
  -18.9437  -30.1446   23.8967 C   0  0  0  0  0  0
  -17.6437  -30.6599   24.0573 C   0  0  0  0  0  0
  -25.9051  -34.9445   23.5115 C   0  0  0  0  0  0
  -16.5338  -29.9103   23.6303 C   0  0  0  0  0  0
  -16.7251  -28.6485   23.0399 C   0  0  0  0  0  0
  -26.4501  -31.6564   25.0668 C   0  0  0  0  0  0
  -25.3752  -31.3728   26.1408 C   0  0  0  0  0  0
  -27.0319  -30.3005   24.6032 C   0  0  0  0  0  0
  -27.6081  -32.4263   25.7448 C   0  0  0  0  0  0
  -27.5568  -37.1792   24.8452 C   0  0  0  0  0  0
  -21.4121  -29.3036   22.3722 N   0  0  0  0  0  0
  -26.4278  -37.3767   23.9408 N   0  0  0  0  0  0
  -24.6750  -31.0696   22.0943 N   0  0  0  0  0  0
  -23.4152  -28.8224   23.3087 O   0  0  0  0  0  0
  -28.4318  -26.6687   20.2691 O   0  0  0  0  0  0
  -26.5600  -34.8915   22.4671 O   0  0  0  0  0  0
  -23.5388  -32.1421   23.7383 O   0  0  0  0  0  0
  -29.5658  -19.4728   21.0515 C   0  0  0  0  0  0
  -28.1329  -20.2415   22.8652 C   0  0  0  0  0  0
  -28.4170  -17.8398   22.4484 C   0  0  0  0  0  0
  -29.0105  -20.5465   21.7997 C   0  0  0  0  0  0
  -29.3009  -18.1128   21.3746 C   0  0  0  0  0  0
  -27.8271  -18.8982   23.1770 C   0  0  0  0  0  0
  -28.3735  -24.1189   20.8827 C   0  0  0  0  0  0
  -29.4928  -23.5996   18.2197 C   0  0  0  0  0  0
  -28.6417  -24.8681   18.4216 C   0  0  0  0  0  0
  -29.0992  -22.4539   19.1826 C   0  0  0  0  0  0
  -28.7144  -25.2832   19.8930 C   0  0  1  0  0  0
  -29.5143  -21.9941   21.5989 C   0  0  0  0  0  0
  -30.0097  -17.0096   20.5541 C   0  0  0  0  0  0
  -28.8940  -22.8850   20.5796 N   0  0  0  0  0  0
  -29.8146  -15.5834   20.9205 N   0  0  0  0  0  0
  -27.8070  -24.3571   21.9535 O   0  0  0  0  0  0
  -26.7658  -18.5495   24.4949 Cl  0  0  0  0  0  0
  -31.4731  -12.4692   19.1573 H   0  0  0  0  0  0
  -30.3398  -11.3385   19.8547 H   0  0  0  0  0  0
  -29.7335  -11.7873   17.4555 H   0  0  0  0  0  0
  -29.6722  -13.5033   17.7616 H   0  0  0  0  0  0
  -27.8048  -11.3525   18.7926 H   0  0  0  0  0  0
  -27.3691  -12.7122   17.7959 H   0  0  0  0  0  0
  -27.6955  -14.2712   19.5998 H   0  0  0  0  0  0
  -28.6699  -11.9629   21.3486 H   0  0  0  0  0  0
  -28.4571  -13.6086   21.8911 H   0  0  0  0  0  0
  -25.2793   -9.5568   22.4768 H   0  0  0  0  0  0
  -23.9959   -7.4603   22.7455 H   0  0  0  0  0  0
  -21.0831   -8.8872   19.8979 H   0  0  0  0  0  0
  -22.3795  -10.9685   19.6174 H   0  0  0  0  0  0
  -21.2050   -7.6158   23.9780 H   0  0  0  0  0  0
  -21.1458   -6.0495   25.9100 H   0  0  0  0  0  0
  -22.0589   -2.7622   23.2897 H   0  0  0  0  0  0
  -22.4040  -11.9810   22.4747 H   0  0  0  0  0  0
  -21.1097  -13.1323   22.2743 H   0  0  0  0  0  0
  -24.6561  -15.8467   20.5181 H   0  0  0  0  0  0
  -26.2715  -15.6301   20.0714 H   0  0  0  0  0  0
  -26.7161  -32.5528   23.1098 H   0  0  0  0  0  0
  -25.0084  -33.9716   25.0450 H   0  0  0  0  0  0
  -22.7004  -31.2981   21.3994 H   0  0  0  0  0  0
  -23.3733  -35.9618   23.3342 H   0  0  0  0  0  0
  -24.3568  -36.8846   22.2039 H   0  0  0  0  0  0
  -23.7246  -37.6489   23.6633 H   0  0  0  0  0  0
  -26.0358  -31.5791   20.5778 H   0  0  0  0  0  0
  -26.8265  -30.8886   21.9666 H   0  0  0  0  0  0
  -28.0916  -29.0591   21.1954 H   0  0  0  0  0  0
  -26.0547  -25.9074   19.0626 H   0  0  0  0  0  0
  -23.9912  -27.2586   19.0584 H   0  0  0  0  0  0
  -23.7185  -30.5656   19.3985 H   0  0  0  0  0  0
  -22.7445  -29.2122   19.8848 H   0  0  0  0  0  0
  -25.1288  -36.1916   25.0813 H   0  0  0  0  0  0
  -20.9959  -28.3265   24.1453 H   0  0  0  0  0  0
  -20.5646  -26.2299   23.3652 H   0  0  0  0  0  0
  -21.6619  -26.7452   22.1255 H   0  0  0  0  0  0
  -19.6885  -25.6305   21.1263 H   0  0  0  0  0  0
  -19.6645  -27.3216   20.6800 H   0  0  0  0  0  0
  -17.4178  -26.6723   21.4044 H   0  0  0  0  0  0
  -18.0266  -26.0043   22.9020 H   0  0  0  0  0  0
  -19.7913  -30.7219   24.2407 H   0  0  0  0  0  0
  -17.5004  -31.6304   24.5128 H   0  0  0  0  0  0
  -15.5340  -30.3045   23.7575 H   0  0  0  0  0  0
  -15.8645  -28.0788   22.7171 H   0  0  0  0  0  0
  -24.5898  -30.7097   25.7749 H   0  0  0  0  0  0
  -24.8975  -32.2935   26.4783 H   0  0  0  0  0  0
  -25.8061  -30.8925   27.0209 H   0  0  0  0  0  0
  -26.2871  -29.6760   24.1076 H   0  0  0  0  0  0
  -27.4103  -29.7214   25.4465 H   0  0  0  0  0  0
  -27.8689  -30.4302   23.9158 H   0  0  0  0  0  0
  -27.2690  -33.3518   26.2113 H   0  0  0  0  0  0
  -28.3862  -32.6902   25.0272 H   0  0  0  0  0  0
  -28.0804  -31.8342   26.5299 H   0  0  0  0  0  0
  -28.2591  -38.0084   24.7497 H   0  0  0  0  0  0
  -28.1062  -36.2616   24.6291 H   0  0  0  0  0  0
  -27.2292  -37.1458   25.8856 H   0  0  0  0  0  0
  -20.9285  -29.8726   21.6918 H   0  0  0  0  0  0
  -26.0155  -38.2840   24.1422 H   0  0  0  0  0  0
  -30.2502  -19.7016   20.2453 H   0  0  0  0  0  0
  -27.7290  -21.0288   23.4872 H   0  0  0  0  0  0
  -28.2033  -16.8248   22.7528 H   0  0  0  0  0  0
  -30.5390  -23.8588   18.3925 H   0  0  0  0  0  0
  -29.4501  -23.2577   17.1850 H   0  0  0  0  0  0
  -27.6189  -24.6868   18.0965 H   0  0  0  0  0  0
  -29.0480  -25.6705   17.8060 H   0  0  0  0  0  0
  -29.8758  -21.6906   19.1143 H   0  0  0  0  0  0
  -28.1907  -21.9525   18.8483 H   0  0  0  0  0  0
  -29.7866  -25.3275   20.0848 H   0  0  0  0  0  0
  -30.5605  -21.8923   21.3052 H   0  0  0  0  0  0
  -29.5685  -22.4908   22.5649 H   0  0  0  0  0  0
  -31.0740  -17.2546   20.5197 H   0  0  0  0  0  0
  -29.6427  -17.1237   19.5313 H   0  0  0  0  0  0
  -28.8946  -15.3312   21.2451 H   0  0  0  0  0  0
  1 25  1  0  0  0
  1 30  2  0  0  0
  1 85  1  0  0  0
  2  3  1  0  0  0
  2 25  1  0  0  0
  2 88  1  0  0  0
  2 89  1  0  0  0
  3  4  1  0  0  0
  3 90  1  0  0  0
  3 91  1  0  0  0
  4  5  1  0  0  0
  4 92  1  0  0  0
  4 93  1  0  0  0
  5  6  1  0  0  0
  5 26  1  0  0  0
  5 94  1  0  0  0
  6 25  1  0  0  0
  6 95  1  0  0  0
  6 96  1  0  0  0
  7  8  2  0  0  0
  7 26  1  0  0  0
  7 29  1  0  0  0
  8  9  1  0  0  0
  8 22  1  0  0  0
  9 10  1  0  0  0
  9 27  2  0  0  0
 10 11  2  0  0  0
 10 15  1  0  0  0
 11 12  1  0  0  0
 11 97  1  0  0  0
 12 13  2  0  0  0
 12 98  1  0  0  0
 13 14  1  0  0  0
 13 31  1  0  0  0
 14 15  2  0  0  0
 14 99  1  0  0  0
 15100  1  0  0  0
 16 17  2  0  0  0
 16 21  1  0  0  0
 16 31  1  0  0  0
 17 18  1  0  0  0
 17101  1  0  0  0
 18 19  2  0  0  0
 18102  1  0  0  0
 19 20  1  0  0  0
 19 24  1  0  0  0
 20 21  2  0  0  0
 20103  1  0  0  0
 21 23  1  0  0  0
 22 28  1  0  0  0
 22 32  2  0  0  0
 26 27  1  0  0  0
 28104  1  0  0  0
 28105  1  0  0  0
 29106  1  0  0  0
 29107  1  0  0  0
 33 34  1  0  0  0
 33 66  1  0  0  0
 33 70  2  0  0  0
 34 36  1  0  0  0
 34 59  1  0  0  0
 34108  1  0  0  0
 35 44  2  0  0  0
 35 45  1  0  0  0
 35 68  1  0  0  0
 36 56  1  0  0  0
 36109  1  0  0  0
 37 39  1  0  0  0
 37 47  1  0  0  0
 37 66  1  0  0  0
 37110  1  0  0  0
 38 43  2  0  0  0
 38 46  1  0  0  0
 38 47  1  0  0  0
 39 64  1  0  0  0
 39 67  2  0  0  0
 40 52  1  0  0  0
 40 53  2  0  0  0
 40 58  1  0  0  0
 41111  1  0  0  0
 41112  1  0  0  0
 41113  1  0  0  0
 41 48  1  0  0  0
 42 43  1  0  0  0
 42 66  1  0  0  0
 42114  1  0  0  0
 42115  1  0  0  0
 43 44  1  0  0  0
 44116  1  0  0  0
 45 46  2  0  0  0
 45117  1  0  0  0
 46118  1  0  0  0
 47119  1  0  0  0
 47120  1  0  0  0
 48 56  1  0  0  0
 48 65  1  0  0  0
 48121  1  0  0  0
 49 50  1  0  0  0
 49 53  1  0  0  0
 49 64  1  0  0  0
 49122  1  0  0  0
 50 51  1  0  0  0
 50123  1  0  0  0
 50124  1  0  0  0
 51 52  1  0  0  0
 51125  1  0  0  0
 51126  1  0  0  0
 52127  1  0  0  0
 52128  1  0  0  0
 53 54  1  0  0  0
 54 55  2  0  0  0
 54129  1  0  0  0
 55 57  1  0  0  0
 55130  1  0  0  0
 56 69  2  0  0  0
 57 58  2  0  0  0
 57131  1  0  0  0
 58132  1  0  0  0
 59 60  1  0  0  0
 59 61  1  0  0  0
 59 62  1  0  0  0
 60133  1  0  0  0
 60134  1  0  0  0
 60135  1  0  0  0
 61136  1  0  0  0
 61137  1  0  0  0
 61138  1  0  0  0
 62139  1  0  0  0
 62140  1  0  0  0
 62141  1  0  0  0
 63 65  1  0  0  0
 63142  1  0  0  0
 63143  1  0  0  0
 63144  1  0  0  0
 64145  1  0  0  0
 65146  1  0  0  0
 68 81  1  0  0  0
 71 74  2  0  0  0
 71 75  1  0  0  0
 71147  1  0  0  0
 72 74  1  0  0  0
 72 76  2  0  0  0
 72148  1  0  0  0
 73 75  2  0  0  0
 73 76  1  0  0  0
 73149  1  0  0  0
 74 82  1  0  0  0
 75 83  1  0  0  0
 76 87  1  0  0  0
 77 81  1  0  0  0
 77 84  1  0  0  0
 77 86  2  0  0  0
 78 79  1  0  0  0
 78 80  1  0  0  0
 78150  1  0  0  0
 78151  1  0  0  0
 79 81  1  0  0  0
 79152  1  0  0  0
 79153  1  0  0  0
 80 84  1  0  0  0
 80154  1  0  0  0
 80155  1  0  0  0
 81156  1  0  0  0
 82 84  1  0  0  0
 82157  1  0  0  0
 82158  1  0  0  0
 83 85  1  0  0  0
 83159  1  0  0  0
 83160  1  0  0  0
 85161  1  0  0  0
M  ISO  4   1 100  68 101  81 101  85 100
M  END
> <chiral flag>
0

> <version>
0

> <s_m_source_file>
/data/baiqing/PycharmProjects/Reinvent-master-3.2/result/LINK_invent/BTK/process_docking_weight1_custom_product_contain_oxygen_bond_distance_aromatic_linkinvent_7_9_3/rearranged_h_0043.sdf

> <i_m_source_file_index>
61

> <r_mmod_Potential_Energy-OPLS-2005>
48.8161697387695

> <r_mmod_Stretch_Energy-OPLS-2005>
55.3049354553223

> <r_mmod_Bend_Energy-OPLS-2005>
174.38102722168

> <r_mmod_Torsional_Energy-OPLS-2005>
240.886077880859

> <r_mmod_Improper_Torsional_Energy-OPLS-2005>
9.89593029022217

> <r_mmod_Van_der_Waal_Energy-OPLS-2005>
144.043090820312

> <r_mmod_Electrostatic_Energy-OPLS-2005>
-367.709533691406

> <r_mmod_Solvation_Energy-OPLS-2005>
-237.03662109375

> <b_mmod_Minimization_Converged-OPLS-2005>
0

> <r_mmod_RMS_Derivative-OPLS-2005>
7.39715623855591

$$$$
61
                    3D
 Structure written by MMmdl.
159167  0  0  1  0            999 V2000
  -31.7018  -14.6362   20.0589 C   0  0  0  0  0  0
  -30.3941  -12.4587   20.0467 C   0  0  0  0  0  0
  -29.0598  -11.8900   18.9688 C   0  0  0  0  0  0
  -27.5447  -12.6718   18.4356 C   0  0  0  0  0  0
  -26.9347  -14.2807   19.1815 C   0  0  2  0  0  0
  -29.7098  -15.3212   20.8972 C   0  0  0  0  0  0
  -24.8290  -14.0677   20.4776 C   0  0  0  0  0  0
  -23.9819  -13.1302   20.9529 C   0  0  0  0  0  0
  -24.5884  -11.8423   20.8261 C   0  0  0  0  0  0
  -23.9514  -10.4977   21.0015 C   0  0  0  0  0  0
  -24.4030   -9.4861   21.8890 C   0  0  0  0  0  0
  -23.6730   -8.2787   22.0603 C   0  0  0  0  0  0
  -22.4666   -8.0611   21.3542 C   0  0  0  0  0  0
  -22.0373   -9.0438   20.4478 C   0  0  0  0  0  0
  -22.7673  -10.2342   20.2684 C   0  0  0  0  0  0
  -21.7095   -6.0918   22.5340 C   0  0  0  0  0  0
  -21.4201   -6.5703   23.8327 C   0  0  0  0  0  0
  -21.3735   -5.6780   24.9187 C   0  0  0  0  0  0
  -21.6031   -4.3060   24.7184 C   0  0  0  0  0  0
  -21.8765   -3.8195   23.4281 C   0  0  0  0  0  0
  -21.9246   -4.7096   22.3362 C   0  0  0  0  0  0
  -22.5829  -13.4840   21.2703 C   0  0  0  0  0  0
  -22.1632   -4.2293   21.0961 F   0  0  0  0  0  0
  -21.5593   -3.4486   25.7681 F   0  0  0  0  0  0
  -30.7292  -13.9877   20.6952 N   0  0  0  0  0  0
  -25.8605  -13.4293   19.9492 N   0  0  0  0  0  0
  -25.8260  -12.0574   20.3371 N   0  0  0  0  0  0
  -21.9408  -12.7298   22.1482 N   0  0  0  0  0  0
  -24.7651  -15.4363   20.3236 N   0  0  0  0  0  0
  -32.8179  -14.3883   20.3631 O   0  0  0  0  0  0
  -21.7001   -6.9121   21.4333 O   0  0  0  0  0  0
  -22.0813  -14.4857   20.7617 O   0  0  0  0  0  0
  -24.6816  -31.8027   23.1584 C   0  0  0  0  0  0
  -25.9449  -32.4435   23.8101 C   0  0  1  0  0  0
  -27.0052  -26.6333   20.2946 C   0  0  0  0  0  0
  -25.6040  -33.8279   24.1992 N   0  0  0  0  0  0
  -23.4948  -30.4251   21.5164 C   0  0  2  0  0  0
  -24.9115  -28.7715   20.1126 C   0  0  0  0  0  0
  -22.7704  -29.4381   22.4753 C   0  0  0  0  0  0
  -18.0338  -28.1392   22.8466 C   0  0  0  0  0  0
  -24.1502  -36.7134   23.2658 C   0  0  0  0  0  0
  -26.0748  -30.5198   21.4229 C   0  0  0  0  0  0
  -26.0998  -29.0805   20.7814 C   0  0  0  0  0  0
  -27.1564  -28.0380   20.8286 C   0  0  0  0  0  0
  -25.8348  -26.5505   19.5234 C   0  0  0  0  0  0
  -24.8265  -27.5445   19.4397 C   0  0  0  0  0  0
  -23.7343  -29.7457   20.1387 C   0  0  0  0  0  0
  -25.4148  -36.2896   24.0310 C   0  0  1  0  0  0
  -20.5946  -28.3754   23.1164 C   0  0  2  0  0  0
  -20.6799  -26.9435   22.5388 C   0  0  0  0  0  0
  -19.5765  -26.6371   21.5210 C   0  0  0  0  0  0
  -18.1959  -26.7928   22.1625 C   0  0  0  0  0  0
  -19.1590  -28.8913   23.2789 C   0  0  0  0  0  0
  -18.9502  -30.1502   23.8843 C   0  0  0  0  0  0
  -17.6486  -30.6591   24.0559 C   0  0  0  0  0  0
  -25.9141  -34.9263   23.4979 C   0  0  0  0  0  0
  -16.5387  -29.9083   23.6318 C   0  0  0  0  0  0
  -16.7321  -28.6486   23.0377 C   0  0  0  0  0  0
  -26.4611  -31.6423   25.0682 C   0  0  0  0  0  0
  -25.3685  -31.3696   26.1284 C   0  0  0  0  0  0
  -27.0505  -30.2762   24.6535 C   0  0  0  0  0  0
  -27.6107  -32.4231   25.7463 C   0  0  0  0  0  0
  -27.5561  -37.1721   24.8477 C   0  0  0  0  0  0
  -21.4377  -29.3017   22.3470 N   0  0  0  0  0  0
  -26.4271  -37.3652   23.9425 N   0  0  0  0  0  0
  -24.7771  -30.9512   22.0835 N   0  0  0  0  0  0
  -23.4176  -28.7935   23.3039 O   0  0  0  0  0  0
  -27.8212  -25.3315   20.3428 O   0  0  0  0  0  0
  -26.5749  -34.8835   22.4581 O   0  0  0  0  0  0
  -23.5867  -32.1169   23.6565 O   0  0  0  0  0  0
  -29.0964  -14.3577   19.0288 C   0  0  0  0  0  0
  -28.2009  -13.8075   20.8340 C   0  0  0  0  0  0
  -28.2718  -16.8393   19.2413 C   0  0  0  0  0  0
  -27.5723  -16.8658   20.5518 C   0  0  0  0  0  0
  -29.0389  -15.7571   18.5675 C   0  0  0  0  0  0
  -27.4215  -15.3511   21.3177 C   0  0  0  0  0  0
  -27.1514  -18.6025   20.8517 C   0  0  0  0  0  0
  -26.7377  -15.3721   22.6757 C   0  0  0  0  0  0
  -30.4569  -16.0376   18.0825 C   0  0  0  0  0  0
  -27.1634  -21.8053   20.2930 C   0  0  0  0  0  0
  -27.5326  -23.6438   20.8293 C   0  0  0  0  0  0
  -26.0174  -18.7350   21.5405 N   0  0  0  0  0  0
  -31.5410  -15.5613   19.0309 N   0  0  0  0  0  0
  -27.6444  -20.0683   20.5458 N   0  3  0  0  0  0
  -31.3260  -12.1119   19.5998 H   0  0  0  0  0  0
  -30.3206  -11.8462   20.9427 H   0  0  0  0  0  0
  -28.7295  -10.9673   19.4483 H   0  0  0  0  0  0
  -29.5401  -11.5257   18.0576 H   0  0  0  0  0  0
  -26.7796  -11.9320   18.1724 H   0  0  0  0  0  0
  -27.7718  -12.9657   17.4042 H   0  0  0  0  0  0
  -26.4774  -14.9512   18.4385 H   0  0  0  0  0  0
  -29.6628  -15.3588   22.0003 H   0  0  0  0  0  0
  -30.1084  -16.3355   20.7756 H   0  0  0  0  0  0
  -25.3157   -9.6442   22.4482 H   0  0  0  0  0  0
  -24.0445   -7.5271   22.7430 H   0  0  0  0  0  0
  -21.1323   -8.8811   19.8813 H   0  0  0  0  0  0
  -22.4005  -10.9642   19.5612 H   0  0  0  0  0  0
  -21.2263   -7.6224   23.9882 H   0  0  0  0  0  0
  -21.1594   -6.0465   25.9124 H   0  0  0  0  0  0
  -22.0442   -2.7686   23.2693 H   0  0  0  0  0  0
  -22.3932  -11.9323   22.5701 H   0  0  0  0  0  0
  -20.9918  -12.9574   22.4081 H   0  0  0  0  0  0
  -24.3535  -15.8552   21.1424 H   0  0  0  0  0  0
  -24.0245  -15.5739   19.6403 H   0  0  0  0  0  0
  -26.7465  -32.4866   23.0743 H   0  0  0  0  0  0
  -25.0123  -33.9302   25.0109 H   0  0  0  0  0  0
  -22.8221  -31.2654   21.3445 H   0  0  0  0  0  0
  -23.3784  -35.9435   23.3276 H   0  0  0  0  0  0
  -24.3587  -36.8836   22.2074 H   0  0  0  0  0  0
  -23.7216  -37.6293   23.6758 H   0  0  0  0  0  0
  -26.2892  -31.2355   20.6278 H   0  0  0  0  0  0
  -26.9287  -30.5712   22.0864 H   0  0  0  0  0  0
  -28.0578  -28.2700   21.3813 H   0  0  0  0  0  0
  -25.6451  -25.6212   19.0075 H   0  0  0  0  0  0
  -23.9387  -27.3186   18.8718 H   0  0  0  0  0  0
  -23.9289  -30.5130   19.3885 H   0  0  0  0  0  0
  -22.8295  -29.2351   19.8038 H   0  0  0  0  0  0
  -25.1345  -36.1671   25.0802 H   0  0  0  0  0  0
  -21.0062  -28.3382   24.1279 H   0  0  0  0  0  0
  -20.5672  -26.2395   23.3640 H   0  0  0  0  0  0
  -21.6661  -26.7383   22.1188 H   0  0  0  0  0  0
  -19.6910  -25.6273   21.1265 H   0  0  0  0  0  0
  -19.6679  -27.3163   20.6725 H   0  0  0  0  0  0
  -17.4208  -26.6682   21.4047 H   0  0  0  0  0  0
  -18.0355  -26.0094   22.9042 H   0  0  0  0  0  0
  -19.8001  -30.7327   24.2184 H   0  0  0  0  0  0
  -17.5059  -31.6277   24.5170 H   0  0  0  0  0  0
  -15.5387  -30.2967   23.7704 H   0  0  0  0  0  0
  -15.8720  -28.0794   22.7132 H   0  0  0  0  0  0
  -24.5905  -30.7014   25.7543 H   0  0  0  0  0  0
  -24.8825  -32.2887   26.4567 H   0  0  0  0  0  0
  -25.7869  -30.8923   27.0149 H   0  0  0  0  0  0
  -26.3179  -29.6359   24.1586 H   0  0  0  0  0  0
  -27.3965  -29.7193   25.5244 H   0  0  0  0  0  0
  -27.9187  -30.3858   24.0030 H   0  0  0  0  0  0
  -27.2693  -33.3562   26.1939 H   0  0  0  0  0  0
  -28.3951  -32.6705   25.0302 H   0  0  0  0  0  0
  -28.0724  -31.8408   26.5436 H   0  0  0  0  0  0
  -28.2556  -38.0034   24.7531 H   0  0  0  0  0  0
  -28.1080  -36.2559   24.6320 H   0  0  0  0  0  0
  -27.2276  -37.1372   25.8877 H   0  0  0  0  0  0
  -20.9683  -29.8707   21.6566 H   0  0  0  0  0  0
  -26.0103  -38.2704   24.1451 H   0  0  0  0  0  0
  -29.7485  -13.8528   18.3254 H   0  0  0  0  0  0
  -28.1821  -12.8644   21.3570 H   0  0  0  0  0  0
  -28.4191  -17.8184   18.7919 H   0  0  0  0  0  0
  -27.4809  -15.2702   23.4634 H   0  0  0  0  0  0
  -26.0004  -14.5752   22.7721 H   0  0  0  0  0  0
  -26.2263  -16.3205   22.8324 H   0  0  0  0  0  0
  -30.6299  -15.5033   17.1493 H   0  0  0  0  0  0
  -30.5766  -17.0995   17.8440 H   0  0  0  0  0  0
  -27.2692  -21.8965   19.2092 H   0  0  0  0  0  0
  -26.0796  -21.7523   20.4210 H   0  0  0  0  0  0
  -28.3741  -23.5065   21.5064 H   0  0  0  0  0  0
  -26.7057  -23.8112   21.5259 H   0  0  0  0  0  0
  -25.6780  -19.6426   21.8048 H   0  0  0  0  0  0
  -25.5533  -17.9154   21.9000 H   0  0  0  0  0  0
  -32.4383  -15.9654   18.7964 H   0  0  0  0  0  0
  -28.5936  -20.0014   20.1855 H   0  0  0  0  0  0
  1 25  1  0  0  0
  1 30  2  0  0  0
  1 83  1  0  0  0
  2  3  1  0  0  0
  2 25  1  0  0  0
  2 85  1  0  0  0
  2 86  1  0  0  0
  3  4  1  0  0  0
  3 87  1  0  0  0
  3 88  1  0  0  0
  4  5  1  0  0  0
  4 89  1  0  0  0
  4 90  1  0  0  0
  5  6  1  0  0  0
  5 26  1  0  0  0
  5 91  1  0  0  0
  6 25  1  0  0  0
  6 92  1  0  0  0
  6 93  1  0  0  0
  7  8  2  0  0  0
  7 26  1  0  0  0
  7 29  1  0  0  0
  8  9  1  0  0  0
  8 22  1  0  0  0
  9 10  1  0  0  0
  9 27  2  0  0  0
 10 11  2  0  0  0
 10 15  1  0  0  0
 11 12  1  0  0  0
 11 94  1  0  0  0
 12 13  2  0  0  0
 12 95  1  0  0  0
 13 14  1  0  0  0
 13 31  1  0  0  0
 14 15  2  0  0  0
 14 96  1  0  0  0
 15 97  1  0  0  0
 16 17  2  0  0  0
 16 21  1  0  0  0
 16 31  1  0  0  0
 17 18  1  0  0  0
 17 98  1  0  0  0
 18 19  2  0  0  0
 18 99  1  0  0  0
 19 20  1  0  0  0
 19 24  1  0  0  0
 20 21  2  0  0  0
 20100  1  0  0  0
 21 23  1  0  0  0
 22 28  1  0  0  0
 22 32  2  0  0  0
 26 27  1  0  0  0
 28101  1  0  0  0
 28102  1  0  0  0
 29103  1  0  0  0
 29104  1  0  0  0
 33 34  1  0  0  0
 33 66  1  0  0  0
 33 70  2  0  0  0
 34 36  1  0  0  0
 34 59  1  0  0  0
 34105  1  0  0  0
 35 44  2  0  0  0
 35 45  1  0  0  0
 35 68  1  0  0  0
 36 56  1  0  0  0
 36106  1  0  0  0
 37 39  1  0  0  0
 37 47  1  0  0  0
 37 66  1  0  0  0
 37107  1  0  0  0
 38 43  2  0  0  0
 38 46  1  0  0  0
 38 47  1  0  0  0
 39 64  1  0  0  0
 39 67  2  0  0  0
 40 52  1  0  0  0
 40 53  2  0  0  0
 40 58  1  0  0  0
 41108  1  0  0  0
 41109  1  0  0  0
 41110  1  0  0  0
 41 48  1  0  0  0
 42 43  1  0  0  0
 42 66  1  0  0  0
 42111  1  0  0  0
 42112  1  0  0  0
 43 44  1  0  0  0
 44113  1  0  0  0
 45 46  2  0  0  0
 45114  1  0  0  0
 46115  1  0  0  0
 47116  1  0  0  0
 47117  1  0  0  0
 48 56  1  0  0  0
 48 65  1  0  0  0
 48118  1  0  0  0
 49 50  1  0  0  0
 49 53  1  0  0  0
 49 64  1  0  0  0
 49119  1  0  0  0
 50 51  1  0  0  0
 50120  1  0  0  0
 50121  1  0  0  0
 51 52  1  0  0  0
 51122  1  0  0  0
 51123  1  0  0  0
 52124  1  0  0  0
 52125  1  0  0  0
 53 54  1  0  0  0
 54 55  2  0  0  0
 54126  1  0  0  0
 55 57  1  0  0  0
 55127  1  0  0  0
 56 69  2  0  0  0
 57 58  2  0  0  0
 57128  1  0  0  0
 58129  1  0  0  0
 59 60  1  0  0  0
 59 61  1  0  0  0
 59 62  1  0  0  0
 60130  1  0  0  0
 60131  1  0  0  0
 60132  1  0  0  0
 61133  1  0  0  0
 61134  1  0  0  0
 61135  1  0  0  0
 62136  1  0  0  0
 62137  1  0  0  0
 62138  1  0  0  0
 63 65  1  0  0  0
 63139  1  0  0  0
 63140  1  0  0  0
 63141  1  0  0  0
 64142  1  0  0  0
 65143  1  0  0  0
 68 81  1  0  0  0
 71 72  2  0  0  0
 71 75  1  0  0  0
 71144  1  0  0  0
 72 76  1  0  0  0
 72145  1  0  0  0
 73 74  1  0  0  0
 73 75  2  0  0  0
 73146  1  0  0  0
 74 76  2  0  0  0
 74 77  1  0  0  0
 75 79  1  0  0  0
 76 78  1  0  0  0
 77 82  1  0  0  0
 77 84  2  0  0  0
 78147  1  0  0  0
 78148  1  0  0  0
 78149  1  0  0  0
 79 83  1  0  0  0
 79150  1  0  0  0
 79151  1  0  0  0
 80 81  1  0  0  0
 80 84  1  0  0  0
 80152  1  0  0  0
 80153  1  0  0  0
 81154  1  0  0  0
 81155  1  0  0  0
 82156  1  0  0  0
 82157  1  0  0  0
 83158  1  0  0  0
 84159  1  0  0  0
M  CHG  1  84   1
M  ISO  4   1 100  68 101  81 101  83 100
M  END
> <chiral flag>
0

> <version>
0

> <s_m_source_file>
/data/baiqing/PycharmProjects/Reinvent-master-3.2/result/LINK_invent/BTK/process_docking_weight1_custom_product_contain_oxygen_bond_distance_aromatic_linkinvent_7_9_3/rearranged_h_0043.sdf

> <i_m_source_file_index>
62

> <r_mmod_Potential_Energy-OPLS-2005>
12611.25390625

> <r_mmod_Stretch_Energy-OPLS-2005>
7005.78759765625

> <r_mmod_Bend_Energy-OPLS-2005>
1044.20166015625

> <r_mmod_Torsional_Energy-OPLS-2005>
468.855865478516

> <r_mmod_Improper_Torsional_Energy-OPLS-2005>
29.8338623046875

> <r_mmod_Van_der_Waal_Energy-OPLS-2005>
2791.6298828125

> <r_mmod_Electrostatic_Energy-OPLS-2005>
-419.410705566406

> <r_mmod_Solvation_Energy-OPLS-2005>
-415.229888916016

> <b_mmod_Minimization_Converged-OPLS-2005>
0

> <r_mmod_RMS_Derivative-OPLS-2005>
19.0654258728027

$$$$
62
                    3D
 Structure written by MMmdl.
161170  0  0  1  0            999 V2000
  -31.2657  -14.7236   19.5170 C   0  0  0  0  0  0
  -30.6046  -12.8198   20.6301 C   0  0  0  0  0  0
  -29.2823  -11.5771   20.1304 C   0  0  0  0  0  0
  -27.8332  -11.9095   19.1411 C   0  0  0  0  0  0
  -27.2159  -13.6160   19.1204 C   0  0  2  0  0  0
  -28.6083  -15.2519   19.4054 C   0  0  0  0  0  0
  -25.0054  -14.0002   20.3910 C   0  0  0  0  0  0
  -24.0521  -13.1647   20.9069 C   0  0  0  0  0  0
  -24.5637  -11.8380   20.9046 C   0  0  0  0  0  0
  -23.9006  -10.5084   21.0620 C   0  0  0  0  0  0
  -24.3834   -9.4931   21.9258 C   0  0  0  0  0  0
  -23.6707   -8.2789   22.0785 C   0  0  0  0  0  0
  -22.4619   -8.0676   21.3652 C   0  0  0  0  0  0
  -22.0117   -9.0616   20.4748 C   0  0  0  0  0  0
  -22.7271  -10.2624   20.3229 C   0  0  0  0  0  0
  -21.7171   -6.0944   22.5251 C   0  0  0  0  0  0
  -21.4214   -6.5830   23.8149 C   0  0  0  0  0  0
  -21.3601   -5.6940   24.9042 C   0  0  0  0  0  0
  -21.5982   -4.3190   24.7101 C   0  0  0  0  0  0
  -21.8804   -3.8318   23.4187 C   0  0  0  0  0  0
  -21.9320   -4.7175   22.3304 C   0  0  0  0  0  0
  -22.6636  -13.5771   21.2076 C   0  0  0  0  0  0
  -22.1781   -4.2327   21.0897 F   0  0  0  0  0  0
  -21.5499   -3.4624   25.7600 F   0  0  0  0  0  0
  -30.3089  -14.6271   20.2714 N   0  0  0  0  0  0
  -26.0515  -13.2291   20.0541 N   0  0  0  0  0  0
  -25.8188  -11.9431   20.5780 N   0  0  0  0  0  0
  -21.9892  -12.8365   22.0682 N   0  0  0  0  0  0
  -25.0617  -15.3605   20.1238 N   0  0  0  0  0  0
  -32.4073  -14.9327   19.8562 O   0  0  0  0  0  0
  -21.7121   -6.9144   21.4196 O   0  0  0  0  0  0
  -22.1942  -14.6030   20.7178 O   0  0  0  0  0  0
  -24.6880  -31.7925   23.1548 C   0  0  0  0  0  0
  -25.9448  -32.4425   23.8084 C   0  0  1  0  0  0
  -27.0390  -26.5189   20.4292 C   0  0  0  0  0  0
  -25.6017  -33.8266   24.1937 N   0  0  0  0  0  0
  -23.5159  -30.3994   21.5012 C   0  0  2  0  0  0
  -24.9505  -28.7173   20.1314 C   0  0  0  0  0  0
  -22.7781  -29.4260   22.4651 C   0  0  0  0  0  0
  -18.0339  -28.1429   22.8446 C   0  0  0  0  0  0
  -24.1477  -36.7153   23.2651 C   0  0  0  0  0  0
  -26.0973  -30.4729   21.4468 C   0  0  0  0  0  0
  -26.1236  -29.0196   20.8332 C   0  0  0  0  0  0
  -27.1652  -27.9467   20.9395 C   0  0  0  0  0  0
  -25.8971  -26.4775   19.5879 C   0  0  0  0  0  0
  -24.8936  -27.4858   19.4625 C   0  0  0  0  0  0
  -23.7757  -29.7121   20.1296 C   0  0  0  0  0  0
  -25.4134  -36.2895   24.0282 C   0  0  1  0  0  0
  -20.5980  -28.3796   23.1129 C   0  0  2  0  0  0
  -20.6801  -26.9452   22.5413 C   0  0  0  0  0  0
  -19.5781  -26.6357   21.5222 C   0  0  0  0  0  0
  -18.1954  -26.7953   22.1605 C   0  0  0  0  0  0
  -19.1613  -28.8933   23.2759 C   0  0  0  0  0  0
  -18.9506  -30.1507   23.8814 C   0  0  0  0  0  0
  -17.6496  -30.6610   24.0544 C   0  0  0  0  0  0
  -25.9133  -34.9273   23.4961 C   0  0  0  0  0  0
  -16.5385  -29.9091   23.6353 C   0  0  0  0  0  0
  -16.7309  -28.6514   23.0364 C   0  0  0  0  0  0
  -26.4583  -31.6540   25.0780 C   0  0  0  0  0  0
  -25.3615  -31.3932   26.1392 C   0  0  0  0  0  0
  -27.0521  -30.2848   24.6811 C   0  0  0  0  0  0
  -27.6009  -32.4447   25.7598 C   0  0  0  0  0  0
  -27.5556  -37.1739   24.8460 C   0  0  0  0  0  0
  -21.4419  -29.3028   22.3437 N   0  0  0  0  0  0
  -26.4252  -37.3663   23.9418 N   0  0  0  0  0  0
  -24.7929  -30.9276   22.0852 N   0  0  0  0  0  0
  -23.4206  -28.7855   23.3027 O   0  0  0  0  0  0
  -27.8345  -25.1781   20.6163 O   0  0  0  0  0  0
  -26.5767  -34.8851   22.4575 O   0  0  0  0  0  0
  -23.5888  -32.1064   23.6438 O   0  0  0  0  0  0
  -29.2053  -16.3744   22.7714 C   0  0  0  0  0  0
  -28.9948  -13.7844   22.4867 C   0  0  0  0  0  0
  -28.1578  -16.7461   21.8505 C   0  0  0  0  0  0
  -28.3782  -13.8062   21.1587 C   0  0  0  0  0  0
  -29.5166  -14.9849   23.1502 C   0  0  0  0  0  0
  -27.6110  -15.2429   21.6191 C   0  0  0  0  0  0
  -27.9286  -21.7005   20.7855 C   0  0  0  0  0  0
  -26.4305  -22.0597   23.0960 C   0  0  0  0  0  0
  -27.1621  -23.3764   22.6241 C   0  0  0  0  0  0
  -27.1580  -20.6613   22.8978 C   0  0  0  0  0  0
  -27.3729  -23.4798   21.0941 C   0  0  1  0  0  0
  -27.7194  -18.5301   21.2712 C   0  0  0  0  0  0
  -29.5506  -13.3904   18.6671 C   0  0  0  0  0  0
  -27.7329  -20.3425   21.5601 N   0  0  0  0  0  0
  -30.8100  -14.1699   18.4130 N   0  0  0  0  0  0
  -28.4970  -21.5717   19.6984 O   0  0  0  0  0  0
  -30.5737  -14.7339   24.4893 Cl  0  0  0  0  0  0
  -26.4063  -14.9915   22.8666 Cl  0  0  0  0  0  0
  -31.4920  -12.4283   20.1195 H   0  0  0  0  0  0
  -30.9581  -12.6396   21.6391 H   0  0  0  0  0  0
  -28.8759  -11.1752   21.0601 H   0  0  0  0  0  0
  -29.7858  -10.7081   19.6933 H   0  0  0  0  0  0
  -27.1663  -11.0441   19.0653 H   0  0  0  0  0  0
  -28.0845  -11.6964   18.1023 H   0  0  0  0  0  0
  -26.7469  -13.7659   18.1574 H   0  0  0  0  0  0
  -28.1992  -16.2369   19.5828 H   0  0  0  0  0  0
  -28.8640  -15.6398   18.4150 H   0  0  0  0  0  0
  -25.2887   -9.6652   22.4819 H   0  0  0  0  0  0
  -24.0624   -7.5223   22.7469 H   0  0  0  0  0  0
  -21.1022   -8.9028   19.9086 H   0  0  0  0  0  0
  -22.3462  -11.0172   19.6461 H   0  0  0  0  0  0
  -21.2362   -7.6345   23.9636 H   0  0  0  0  0  0
  -21.1364   -6.0671   25.8893 H   0  0  0  0  0  0
  -22.0638   -2.7807   23.2629 H   0  0  0  0  0  0
  -22.4233  -12.0251   22.4692 H   0  0  0  0  0  0
  -21.0400  -13.0659   22.3191 H   0  0  0  0  0  0
  -24.2097  -15.9031   20.1906 H   0  0  0  0  0  0
  -25.7475  -15.7781   19.5021 H   0  0  0  0  0  0
  -26.7541  -32.4813   23.0795 H   0  0  0  0  0  0
  -25.0088  -33.9290   25.0041 H   0  0  0  0  0  0
  -22.8476  -31.2405   21.3202 H   0  0  0  0  0  0
  -23.3784  -35.9427   23.3198 H   0  0  0  0  0  0
  -24.3562  -36.8941   22.2090 H   0  0  0  0  0  0
  -23.7162  -37.6267   23.6806 H   0  0  0  0  0  0
  -26.3179  -31.1624   20.6309 H   0  0  0  0  0  0
  -26.9484  -30.5463   22.1083 H   0  0  0  0  0  0
  -28.0297  -28.1671   21.5471 H   0  0  0  0  0  0
  -25.6940  -25.5441   19.0844 H   0  0  0  0  0  0
  -24.0190  -27.2590   18.8667 H   0  0  0  0  0  0
  -23.9953  -30.4767   19.3849 H   0  0  0  0  0  0
  -22.8727  -29.2075   19.7850 H   0  0  0  0  0  0
  -25.1328  -36.1665   25.0765 H   0  0  0  0  0  0
  -21.0032  -28.3418   24.1260 H   0  0  0  0  0  0
  -20.5662  -26.2409   23.3673 H   0  0  0  0  0  0
  -21.6657  -26.7370   22.1236 H   0  0  0  0  0  0
  -19.6943  -25.6239   21.1311 H   0  0  0  0  0  0
  -19.6747  -27.3112   20.6712 H   0  0  0  0  0  0
  -17.4235  -26.6689   21.3998 H   0  0  0  0  0  0
  -18.0335  -26.0117   22.9019 H   0  0  0  0  0  0
  -19.7979  -30.7339   24.2148 H   0  0  0  0  0  0
  -17.5052  -31.6282   24.5171 H   0  0  0  0  0  0
  -15.5389  -30.2968   23.7738 H   0  0  0  0  0  0
  -15.8692  -28.0804   22.7139 H   0  0  0  0  0  0
  -24.5878  -30.7160   25.7773 H   0  0  0  0  0  0
  -24.8702  -32.3162   26.4480 H   0  0  0  0  0  0
  -25.7780  -30.9396   27.0396 H   0  0  0  0  0  0
  -26.3249  -29.6437   24.1826 H   0  0  0  0  0  0
  -27.3877  -29.7378   25.5636 H   0  0  0  0  0  0
  -27.9271  -30.3942   24.0406 H   0  0  0  0  0  0
  -27.2556  -33.3896   26.1811 H   0  0  0  0  0  0
  -28.4001  -32.6764   25.0550 H   0  0  0  0  0  0
  -28.0454  -31.8820   26.5819 H   0  0  0  0  0  0
  -28.2523  -38.0083   24.7538 H   0  0  0  0  0  0
  -28.1103  -36.2610   24.6245 H   0  0  0  0  0  0
  -27.2285  -37.1329   25.8863 H   0  0  0  0  0  0
  -20.9736  -29.8691   21.6498 H   0  0  0  0  0  0
  -26.0082  -38.2706   24.1449 H   0  0  0  0  0  0
  -29.7480  -17.1599   23.2752 H   0  0  0  0  0  0
  -29.3365  -12.8335   22.8790 H   0  0  0  0  0  0
  -25.4597  -22.0081   22.5932 H   0  0  0  0  0  0
  -26.1924  -22.1744   24.1594 H   0  0  0  0  0  0
  -28.1216  -23.4626   23.1314 H   0  0  0  0  0  0
  -26.5704  -24.2416   22.9400 H   0  0  0  0  0  0
  -26.4449  -19.8720   23.1469 H   0  0  0  0  0  0
  -27.9435  -20.5544   23.6441 H   0  0  0  0  0  0
  -26.3822  -23.4247   20.6405 H   0  0  0  0  0  0
  -26.6460  -18.3879   21.1898 H   0  0  0  0  0  0
  -28.0399  -18.5144   20.2294 H   0  0  0  0  0  0
  -29.0164  -13.6710   17.7440 H   0  0  0  0  0  0
  -30.0019  -12.4857   18.2548 H   0  0  0  0  0  0
  -31.4205  -13.9441   17.6404 H   0  0  0  0  0  0
  1 25  1  0  0  0
  1 30  2  0  0  0
  1 85  1  0  0  0
  2  3  1  0  0  0
  2 25  1  0  0  0
  2 89  1  0  0  0
  2 90  1  0  0  0
  3  4  1  0  0  0
  3 91  1  0  0  0
  3 92  1  0  0  0
  4  5  1  0  0  0
  4 93  1  0  0  0
  4 94  1  0  0  0
  5  6  1  0  0  0
  5 26  1  0  0  0
  5 95  1  0  0  0
  6 25  1  0  0  0
  6 96  1  0  0  0
  6 97  1  0  0  0
  7  8  2  0  0  0
  7 26  1  0  0  0
  7 29  1  0  0  0
  8  9  1  0  0  0
  8 22  1  0  0  0
  9 10  1  0  0  0
  9 27  2  0  0  0
 10 11  2  0  0  0
 10 15  1  0  0  0
 11 12  1  0  0  0
 11 98  1  0  0  0
 12 13  2  0  0  0
 12 99  1  0  0  0
 13 14  1  0  0  0
 13 31  1  0  0  0
 14 15  2  0  0  0
 14100  1  0  0  0
 15101  1  0  0  0
 16 17  2  0  0  0
 16 21  1  0  0  0
 16 31  1  0  0  0
 17 18  1  0  0  0
 17102  1  0  0  0
 18 19  2  0  0  0
 18103  1  0  0  0
 19 20  1  0  0  0
 19 24  1  0  0  0
 20 21  2  0  0  0
 20104  1  0  0  0
 21 23  1  0  0  0
 22 28  1  0  0  0
 22 32  2  0  0  0
 26 27  1  0  0  0
 28105  1  0  0  0
 28106  1  0  0  0
 29107  1  0  0  0
 29108  1  0  0  0
 33 34  1  0  0  0
 33 66  1  0  0  0
 33 70  2  0  0  0
 34 36  1  0  0  0
 34 59  1  0  0  0
 34109  1  0  0  0
 35 44  2  0  0  0
 35 45  1  0  0  0
 35 68  1  0  0  0
 36 56  1  0  0  0
 36110  1  0  0  0
 37 39  1  0  0  0
 37 47  1  0  0  0
 37 66  1  0  0  0
 37111  1  0  0  0
 38 43  2  0  0  0
 38 46  1  0  0  0
 38 47  1  0  0  0
 39 64  1  0  0  0
 39 67  2  0  0  0
 40 52  1  0  0  0
 40 53  2  0  0  0
 40 58  1  0  0  0
 41112  1  0  0  0
 41113  1  0  0  0
 41114  1  0  0  0
 41 48  1  0  0  0
 42 43  1  0  0  0
 42 66  1  0  0  0
 42115  1  0  0  0
 42116  1  0  0  0
 43 44  1  0  0  0
 44117  1  0  0  0
 45 46  2  0  0  0
 45118  1  0  0  0
 46119  1  0  0  0
 47120  1  0  0  0
 47121  1  0  0  0
 48 56  1  0  0  0
 48 65  1  0  0  0
 48122  1  0  0  0
 49 50  1  0  0  0
 49 53  1  0  0  0
 49 64  1  0  0  0
 49123  1  0  0  0
 50 51  1  0  0  0
 50124  1  0  0  0
 50125  1  0  0  0
 51 52  1  0  0  0
 51126  1  0  0  0
 51127  1  0  0  0
 52128  1  0  0  0
 52129  1  0  0  0
 53 54  1  0  0  0
 54 55  2  0  0  0
 54130  1  0  0  0
 55 57  1  0  0  0
 55131  1  0  0  0
 56 69  2  0  0  0
 57 58  2  0  0  0
 57132  1  0  0  0
 58133  1  0  0  0
 59 60  1  0  0  0
 59 61  1  0  0  0
 59 62  1  0  0  0
 60134  1  0  0  0
 60135  1  0  0  0
 60136  1  0  0  0
 61137  1  0  0  0
 61138  1  0  0  0
 61139  1  0  0  0
 62140  1  0  0  0
 62141  1  0  0  0
 62142  1  0  0  0
 63 65  1  0  0  0
 63143  1  0  0  0
 63144  1  0  0  0
 63145  1  0  0  0
 64146  1  0  0  0
 65147  1  0  0  0
 68 81  1  0  0  0
 71 73  2  0  0  0
 71 75  1  0  0  0
 71148  1  0  0  0
 72 74  1  0  0  0
 72 75  2  0  0  0
 72149  1  0  0  0
 73 76  1  0  0  0
 73 82  1  0  0  0
 74 76  2  0  0  0
 74 83  1  0  0  0
 75 87  1  0  0  0
 76 88  1  0  0  0
 77 81  1  0  0  0
 77 84  1  0  0  0
 77 86  2  0  0  0
 78 79  1  0  0  0
 78 80  1  0  0  0
 78150  1  0  0  0
 78151  1  0  0  0
 79 81  1  0  0  0
 79152  1  0  0  0
 79153  1  0  0  0
 80 84  1  0  0  0
 80154  1  0  0  0
 80155  1  0  0  0
 81156  1  0  0  0
 82 84  1  0  0  0
 82157  1  0  0  0
 82158  1  0  0  0
 83 85  1  0  0  0
 83159  1  0  0  0
 83160  1  0  0  0
 85161  1  0  0  0
M  ISO  4   1 100  68 101  81 101  85 100
M  END
> <chiral flag>
0

> <version>
0

> <s_m_source_file>
/data/baiqing/PycharmProjects/Reinvent-master-3.2/result/LINK_invent/BTK/process_docking_weight1_custom_product_contain_oxygen_bond_distance_aromatic_linkinvent_7_9_3/rearranged_h_0043.sdf

> <i_m_source_file_index>
63

> <r_mmod_Potential_Energy-OPLS-2005>
11143.1845703125

> <r_mmod_Stretch_Energy-OPLS-2005>
5102.33642578125

> <r_mmod_Bend_Energy-OPLS-2005>
1092.42858886719

> <r_mmod_Torsional_Energy-OPLS-2005>
653.02294921875

> <r_mmod_Improper_Torsional_Energy-OPLS-2005>
56.7843170166016

> <r_mmod_Van_der_Waal_Energy-OPLS-2005>
2122.07934570312

> <r_mmod_Electrostatic_Energy-OPLS-2005>
-361.356597900391

> <r_mmod_Solvation_Energy-OPLS-2005>
-246.989944458008

> <b_mmod_Minimization_Converged-OPLS-2005>
0

> <r_mmod_RMS_Derivative-OPLS-2005>
19.7255802154541

$$$$
63
                    3D
 Structure written by MMmdl.
157165  0  0  1  0            999 V2000
  -30.7455  -14.4052   20.6999 C   0  0  0  0  0  0
  -30.4283  -12.3409   19.3793 C   0  0  0  0  0  0
  -29.4762  -12.5459   18.1838 C   0  0  0  0  0  0
  -28.0069  -12.3747   18.6133 C   0  0  0  0  0  0
  -27.6640  -13.1945   19.8837 C   0  0  2  0  0  0
  -28.7083  -12.9269   20.9896 C   0  0  0  0  0  0
  -25.2609  -13.8115   20.5697 C   0  0  0  0  0  0
  -24.1843  -13.0412   20.9166 C   0  0  0  0  0  0
  -24.6377  -11.6878   20.8749 C   0  0  0  0  0  0
  -23.9036  -10.4279   21.0422 C   0  0  0  0  0  0
  -24.3590   -9.4201   21.9209 C   0  0  0  0  0  0
  -23.6269   -8.2236   22.0769 C   0  0  0  0  0  0
  -22.4263   -8.0267   21.3534 C   0  0  0  0  0  0
  -21.9888   -9.0244   20.4646 C   0  0  0  0  0  0
  -22.7207  -10.2131   20.3067 C   0  0  0  0  0  0
  -21.6844   -6.0728   22.5275 C   0  0  0  0  0  0
  -21.4010   -6.5629   23.8211 C   0  0  0  0  0  0
  -21.3652   -5.6779   24.9166 C   0  0  0  0  0  0
  -21.6054   -4.3049   24.7222 C   0  0  0  0  0  0
  -21.8809   -3.8136   23.4343 C   0  0  0  0  0  0
  -21.9190   -4.6955   22.3400 C   0  0  0  0  0  0
  -22.7877  -13.5237   21.1830 C   0  0  0  0  0  0
  -22.1657   -4.2135   21.0985 F   0  0  0  0  0  0
  -21.5640   -3.4544   25.7743 F   0  0  0  0  0  0
  -30.0376  -13.2696   20.4538 N   0  0  0  0  0  0
  -26.3043  -12.9267   20.3416 N   0  0  0  0  0  0
  -25.9302  -11.6430   20.5772 N   0  0  0  0  0  0
  -22.0480  -12.8258   22.0372 N   0  0  0  0  0  0
  -25.4322  -15.1841   20.4146 N   0  0  0  0  0  0
  -31.7887  -14.6850   20.1015 O   0  0  0  0  0  0
  -21.6624   -6.8863   21.4232 O   0  0  0  0  0  0
  -22.3581  -14.5532   20.6652 O   0  0  0  0  0  0
  -24.6136  -31.8700   23.2082 C   0  0  0  0  0  0
  -25.9023  -32.4833   23.8390 C   0  0  1  0  0  0
  -27.2211  -27.4319   20.1093 C   0  0  0  0  0  0
  -25.5901  -33.8640   24.2329 N   0  0  0  0  0  0
  -23.4013  -30.4898   21.5485 C   0  0  2  0  0  0
  -24.8462  -28.9531   20.1148 C   0  0  0  0  0  0
  -22.7368  -29.4694   22.5024 C   0  0  0  0  0  0
  -18.0296  -28.1356   22.8431 C   0  0  0  0  0  0
  -24.1489  -36.7328   23.2637 C   0  0  0  0  0  0
  -25.9264  -30.8332   21.3600 C   0  0  0  0  0  0
  -26.0052  -29.4650   20.7153 C   0  0  0  0  0  0
  -27.2006  -28.7114   20.7074 C   0  0  0  0  0  0
  -26.0575  -26.9356   19.4895 C   0  0  0  0  0  0
  -24.8685  -27.6912   19.4956 C   0  0  0  0  0  0
  -23.6087  -29.8179   20.1636 C   0  0  0  0  0  0
  -25.4108  -36.3119   24.0325 C   0  0  1  0  0  0
  -20.5870  -28.3664   23.1356 C   0  0  2  0  0  0
  -20.6803  -26.9397   22.5465 C   0  0  0  0  0  0
  -19.5886  -26.6453   21.5164 C   0  0  0  0  0  0
  -18.2024  -26.7925   22.1536 C   0  0  0  0  0  0
  -19.1537  -28.8794   23.2907 C   0  0  0  0  0  0
  -18.9430  -30.1401   23.8932 C   0  0  0  0  0  0
  -17.6420  -30.6544   24.0547 C   0  0  0  0  0  0
  -25.9036  -34.9476   23.5135 C   0  0  0  0  0  0
  -16.5327  -29.9060   23.6256 C   0  0  0  0  0  0
  -16.7264  -28.6495   23.0221 C   0  0  0  0  0  0
  -26.4449  -31.6622   25.0730 C   0  0  0  0  0  0
  -25.3708  -31.3722   26.1475 C   0  0  0  0  0  0
  -27.0282  -30.3069   24.6072 C   0  0  0  0  0  0
  -27.6023  -32.4339   25.7486 C   0  0  0  0  0  0
  -27.5581  -37.1815   24.8460 C   0  0  0  0  0  0
  -21.4106  -29.3085   22.3779 N   0  0  0  0  0  0
  -26.4294  -37.3786   23.9402 N   0  0  0  0  0  0
  -24.6655  -31.0767   22.0999 N   0  0  0  0  0  0
  -23.4161  -28.8268   23.3076 O   0  0  0  0  0  0
  -28.3523  -26.6516   20.1190 O   0  0  0  0  0  0
  -26.5596  -34.8920   22.4701 O   0  0  0  0  0  0
  -23.5337  -32.1471   23.7487 O   0  0  0  0  0  0
  -29.0572  -18.4720   21.1577 C   0  0  0  0  0  0
  -29.7502  -20.1984   22.7319 C   0  0  0  0  0  0
  -30.0042  -17.8334   23.3081 C   0  0  0  0  0  0
  -29.1785  -19.8407   21.4887 C   0  0  0  0  0  0
  -29.4363  -17.4630   22.0688 C   0  0  0  0  0  0
  -30.1691  -19.1971   23.6321 C   0  0  0  0  0  0
  -28.7200  -23.3400   20.9970 C   0  0  0  0  0  0
  -28.7037  -20.8881   20.4824 C   0  0  0  0  0  0
  -29.1652  -15.9989   21.7409 C   0  0  0  0  0  0
  -27.8731  -24.5540   21.4419 C   0  0  0  0  0  0
  -28.5680  -25.9492   21.3545 C   0  0  0  0  0  0
  -28.1454  -22.1240   21.0505 N   0  0  0  0  0  0
  -30.3621  -15.1546   21.7480 N   0  0  0  0  0  0
  -29.8766  -23.4896   20.6052 O   0  0  0  0  0  0
  -30.8582  -19.6405   25.1506 Cl  0  0  0  0  0  0
  -31.4627  -12.4863   19.0584 H   0  0  0  0  0  0
  -30.3719  -11.3143   19.7426 H   0  0  0  0  0  0
  -29.7187  -11.8436   17.3850 H   0  0  0  0  0  0
  -29.6176  -13.5429   17.7628 H   0  0  0  0  0  0
  -27.8359  -11.3143   18.8008 H   0  0  0  0  0  0
  -27.3381  -12.6546   17.7969 H   0  0  0  0  0  0
  -27.7128  -14.2457   19.6050 H   0  0  0  0  0  0
  -28.7051  -11.8699   21.2594 H   0  0  0  0  0  0
  -28.4544  -13.4465   21.9123 H   0  0  0  0  0  0
  -25.2742   -9.5679   22.4775 H   0  0  0  0  0  0
  -23.9972   -7.4627   22.7507 H   0  0  0  0  0  0
  -21.0807   -8.8736   19.8968 H   0  0  0  0  0  0
  -22.3648  -10.9656   19.6169 H   0  0  0  0  0  0
  -21.1987   -7.6138   23.9694 H   0  0  0  0  0  0
  -21.1494   -6.0527   25.9065 H   0  0  0  0  0  0
  -22.0601   -2.7602   23.2849 H   0  0  0  0  0  0
  -22.4062  -11.9945   22.4812 H   0  0  0  0  0  0
  -21.1112  -13.1329   22.2541 H   0  0  0  0  0  0
  -24.6655  -15.8380   20.5308 H   0  0  0  0  0  0
  -26.2810  -15.6285   20.0887 H   0  0  0  0  0  0
  -26.7107  -32.5531   23.1165 H   0  0  0  0  0  0
  -25.0040  -33.9806   25.0461 H   0  0  0  0  0  0
  -22.6901  -31.3070   21.4072 H   0  0  0  0  0  0
  -23.3738  -35.9679   23.3323 H   0  0  0  0  0  0
  -24.3563  -36.8921   22.2050 H   0  0  0  0  0  0
  -23.7253  -37.6543   23.6642 H   0  0  0  0  0  0
  -26.0320  -31.5947   20.5858 H   0  0  0  0  0  0
  -26.8218  -30.8951   21.9687 H   0  0  0  0  0  0
  -28.1012  -29.0983   21.1628 H   0  0  0  0  0  0
  -26.0682  -25.9618   19.0197 H   0  0  0  0  0  0
  -23.9831  -27.2993   19.0175 H   0  0  0  0  0  0
  -23.7134  -30.5907   19.4007 H   0  0  0  0  0  0
  -22.7316  -29.2337   19.8764 H   0  0  0  0  0  0
  -25.1287  -36.1984   25.0810 H   0  0  0  0  0  0
  -20.9898  -28.3186   24.1476 H   0  0  0  0  0  0
  -20.5590  -26.2297   23.3661 H   0  0  0  0  0  0
  -21.6703  -26.7405   22.1358 H   0  0  0  0  0  0
  -19.7129  -25.6394   21.1101 H   0  0  0  0  0  0
  -19.6838  -27.3378   20.6790 H   0  0  0  0  0  0
  -17.4385  -26.6598   21.3847 H   0  0  0  0  0  0
  -18.0446  -26.0036   22.8882 H   0  0  0  0  0  0
  -19.7928  -30.7158   24.2347 H   0  0  0  0  0  0
  -17.4971  -31.6190   24.5215 H   0  0  0  0  0  0
  -15.5321  -30.2893   23.7537 H   0  0  0  0  0  0
  -15.8695  -28.0847   22.6746 H   0  0  0  0  0  0
  -24.5858  -30.7093   25.7790 H   0  0  0  0  0  0
  -24.8932  -32.2899   26.4930 H   0  0  0  0  0  0
  -25.8061  -30.8865   27.0226 H   0  0  0  0  0  0
  -26.2835  -29.6827   24.1110 H   0  0  0  0  0  0
  -27.4071  -29.7268   25.4499 H   0  0  0  0  0  0
  -27.8656  -30.4397   23.9211 H   0  0  0  0  0  0
  -27.2623  -33.3615   26.2093 H   0  0  0  0  0  0
  -28.3807  -32.6939   25.0303 H   0  0  0  0  0  0
  -28.0714  -31.8453   26.5367 H   0  0  0  0  0  0
  -28.2607  -38.0108   24.7485 H   0  0  0  0  0  0
  -28.1072  -36.2628   24.6321 H   0  0  0  0  0  0
  -27.2289  -37.1496   25.8862 H   0  0  0  0  0  0
  -20.9271  -29.8846   21.7006 H   0  0  0  0  0  0
  -26.0201  -38.2875   24.1383 H   0  0  0  0  0  0
  -28.6350  -18.1953   20.2016 H   0  0  0  0  0  0
  -29.8616  -21.2371   23.0021 H   0  0  0  0  0  0
  -30.2886  -17.0782   24.0306 H   0  0  0  0  0  0
  -27.9257  -20.4354   19.8675 H   0  0  0  0  0  0
  -29.5265  -21.0998   19.7961 H   0  0  0  0  0  0
  -28.6574  -15.9419   20.7770 H   0  0  0  0  0  0
  -28.4538  -15.6309   22.4805 H   0  0  0  0  0  0
  -27.6016  -24.3780   22.4824 H   0  0  0  0  0  0
  -26.9338  -24.5637   20.8875 H   0  0  0  0  0  0
  -29.6451  -25.8575   21.4994 H   0  0  0  0  0  0
  -28.2361  -26.5602   22.1977 H   0  0  0  0  0  0
  -27.1915  -22.0641   21.3878 H   0  0  0  0  0  0
  -31.1423  -15.6331   22.1681 H   0  0  0  0  0  0
  1 25  1  0  0  0
  1 30  2  0  0  0
  1 83  1  0  0  0
  2  3  1  0  0  0
  2 25  1  0  0  0
  2 86  1  0  0  0
  2 87  1  0  0  0
  3  4  1  0  0  0
  3 88  1  0  0  0
  3 89  1  0  0  0
  4  5  1  0  0  0
  4 90  1  0  0  0
  4 91  1  0  0  0
  5  6  1  0  0  0
  5 26  1  0  0  0
  5 92  1  0  0  0
  6 25  1  0  0  0
  6 93  1  0  0  0
  6 94  1  0  0  0
  7  8  2  0  0  0
  7 26  1  0  0  0
  7 29  1  0  0  0
  8  9  1  0  0  0
  8 22  1  0  0  0
  9 10  1  0  0  0
  9 27  2  0  0  0
 10 11  2  0  0  0
 10 15  1  0  0  0
 11 12  1  0  0  0
 11 95  1  0  0  0
 12 13  2  0  0  0
 12 96  1  0  0  0
 13 14  1  0  0  0
 13 31  1  0  0  0
 14 15  2  0  0  0
 14 97  1  0  0  0
 15 98  1  0  0  0
 16 17  2  0  0  0
 16 21  1  0  0  0
 16 31  1  0  0  0
 17 18  1  0  0  0
 17 99  1  0  0  0
 18 19  2  0  0  0
 18100  1  0  0  0
 19 20  1  0  0  0
 19 24  1  0  0  0
 20 21  2  0  0  0
 20101  1  0  0  0
 21 23  1  0  0  0
 22 28  1  0  0  0
 22 32  2  0  0  0
 26 27  1  0  0  0
 28102  1  0  0  0
 28103  1  0  0  0
 29104  1  0  0  0
 29105  1  0  0  0
 33 34  1  0  0  0
 33 66  1  0  0  0
 33 70  2  0  0  0
 34 36  1  0  0  0
 34 59  1  0  0  0
 34106  1  0  0  0
 35 44  2  0  0  0
 35 45  1  0  0  0
 35 68  1  0  0  0
 36 56  1  0  0  0
 36107  1  0  0  0
 37 39  1  0  0  0
 37 47  1  0  0  0
 37 66  1  0  0  0
 37108  1  0  0  0
 38 43  2  0  0  0
 38 46  1  0  0  0
 38 47  1  0  0  0
 39 64  1  0  0  0
 39 67  2  0  0  0
 40 52  1  0  0  0
 40 53  2  0  0  0
 40 58  1  0  0  0
 41109  1  0  0  0
 41110  1  0  0  0
 41111  1  0  0  0
 41 48  1  0  0  0
 42 43  1  0  0  0
 42 66  1  0  0  0
 42112  1  0  0  0
 42113  1  0  0  0
 43 44  1  0  0  0
 44114  1  0  0  0
 45 46  2  0  0  0
 45115  1  0  0  0
 46116  1  0  0  0
 47117  1  0  0  0
 47118  1  0  0  0
 48 56  1  0  0  0
 48 65  1  0  0  0
 48119  1  0  0  0
 49 50  1  0  0  0
 49 53  1  0  0  0
 49 64  1  0  0  0
 49120  1  0  0  0
 50 51  1  0  0  0
 50121  1  0  0  0
 50122  1  0  0  0
 51 52  1  0  0  0
 51123  1  0  0  0
 51124  1  0  0  0
 52125  1  0  0  0
 52126  1  0  0  0
 53 54  1  0  0  0
 54 55  2  0  0  0
 54127  1  0  0  0
 55 57  1  0  0  0
 55128  1  0  0  0
 56 69  2  0  0  0
 57 58  2  0  0  0
 57129  1  0  0  0
 58130  1  0  0  0
 59 60  1  0  0  0
 59 61  1  0  0  0
 59 62  1  0  0  0
 60131  1  0  0  0
 60132  1  0  0  0
 60133  1  0  0  0
 61134  1  0  0  0
 61135  1  0  0  0
 61136  1  0  0  0
 62137  1  0  0  0
 62138  1  0  0  0
 62139  1  0  0  0
 63 65  1  0  0  0
 63140  1  0  0  0
 63141  1  0  0  0
 63142  1  0  0  0
 64143  1  0  0  0
 65144  1  0  0  0
 68 81  1  0  0  0
 71 74  2  0  0  0
 71 75  1  0  0  0
 71145  1  0  0  0
 72 74  1  0  0  0
 72 76  2  0  0  0
 72146  1  0  0  0
 73 75  2  0  0  0
 73 76  1  0  0  0
 73147  1  0  0  0
 74 78  1  0  0  0
 75 79  1  0  0  0
 76 85  1  0  0  0
 77 80  1  0  0  0
 77 82  1  0  0  0
 77 84  2  0  0  0
 78 82  1  0  0  0
 78148  1  0  0  0
 78149  1  0  0  0
 79 83  1  0  0  0
 79150  1  0  0  0
 79151  1  0  0  0
 80 81  1  0  0  0
 80152  1  0  0  0
 80153  1  0  0  0
 81154  1  0  0  0
 81155  1  0  0  0
 82156  1  0  0  0
 83157  1  0  0  0
M  ISO  4   1 100  68 101  81 101  83 100
M  END
> <chiral flag>
0

> <version>
0

> <s_m_source_file>
/data/baiqing/PycharmProjects/Reinvent-master-3.2/result/LINK_invent/BTK/process_docking_weight1_custom_product_contain_oxygen_bond_distance_aromatic_linkinvent_7_9_3/rearranged_h_0043.sdf

> <i_m_source_file_index>
64

> <r_mmod_Potential_Energy-OPLS-2005>
-162.074554443359

> <r_mmod_Stretch_Energy-OPLS-2005>
35.9500923156738

> <r_mmod_Bend_Energy-OPLS-2005>
98.0889434814453

> <r_mmod_Torsional_Energy-OPLS-2005>
265.381561279297

> <r_mmod_Improper_Torsional_Energy-OPLS-2005>
7.45641660690308

> <r_mmod_Van_der_Waal_Energy-OPLS-2005>
145.145309448242

> <r_mmod_Electrostatic_Energy-OPLS-2005>
-482.750610351562

> <r_mmod_Solvation_Energy-OPLS-2005>
-242.631378173828

> <b_mmod_Minimization_Converged-OPLS-2005>
0

> <r_mmod_RMS_Derivative-OPLS-2005>
5.59062767028809

$$$$
64
                    3D
 Structure written by MMmdl.
151159  0  0  1  0            999 V2000
  -30.6274  -14.6528   20.4898 C   0  0  0  0  0  0
  -30.4387  -12.3985   19.4577 C   0  0  0  0  0  0
  -29.5085  -12.5023   18.2285 C   0  0  0  0  0  0
  -28.0307  -12.3471   18.6396 C   0  0  0  0  0  0
  -27.6528  -13.2211   19.8656 C   0  0  2  0  0  0
  -28.6989  -13.0867   20.9957 C   0  0  0  0  0  0
  -25.2533  -13.8164   20.5662 C   0  0  0  0  0  0
  -24.1813  -13.0426   20.9181 C   0  0  0  0  0  0
  -24.6398  -11.6907   20.8748 C   0  0  0  0  0  0
  -23.9069  -10.4289   21.0413 C   0  0  0  0  0  0
  -24.3620   -9.4205   21.9190 C   0  0  0  0  0  0
  -23.6297   -8.2239   22.0754 C   0  0  0  0  0  0
  -22.4281   -8.0278   21.3543 C   0  0  0  0  0  0
  -21.9916   -9.0252   20.4647 C   0  0  0  0  0  0
  -22.7241  -10.2132   20.3061 C   0  0  0  0  0  0
  -21.6852   -6.0740   22.5278 C   0  0  0  0  0  0
  -21.4010   -6.5644   23.8212 C   0  0  0  0  0  0
  -21.3658   -5.6795   24.9173 C   0  0  0  0  0  0
  -21.6045   -4.3056   24.7222 C   0  0  0  0  0  0
  -21.8819   -3.8152   23.4341 C   0  0  0  0  0  0
  -21.9194   -4.6971   22.3399 C   0  0  0  0  0  0
  -22.7837  -13.5218   21.1852 C   0  0  0  0  0  0
  -22.1663   -4.2158   21.0976 F   0  0  0  0  0  0
  -21.5632   -3.4537   25.7733 F   0  0  0  0  0  0
  -30.0141  -13.4270   20.4294 N   0  0  0  0  0  0
  -26.2989  -12.9367   20.3345 N   0  0  0  0  0  0
  -25.9335  -11.6517   20.5790 N   0  0  0  0  0  0
  -22.0488  -12.8210   22.0417 N   0  0  0  0  0  0
  -25.4200  -15.1872   20.4033 N   0  0  0  0  0  0
  -31.7909  -14.7992   20.1055 O   0  0  0  0  0  0
  -21.6641   -6.8879   21.4239 O   0  0  0  0  0  0
  -22.3516  -14.5532   20.6718 O   0  0  0  0  0  0
  -24.6269  -31.8595   23.2036 C   0  0  0  0  0  0
  -25.9110  -32.4776   23.8362 C   0  0  1  0  0  0
  -27.2222  -27.3161   20.1090 C   0  0  0  0  0  0
  -25.5929  -33.8578   24.2285 N   0  0  0  0  0  0
  -23.4207  -30.4853   21.5457 C   0  0  2  0  0  0
  -24.8653  -28.9433   20.1100 C   0  0  0  0  0  0
  -22.7482  -29.4624   22.4928 C   0  0  0  0  0  0
  -18.0288  -28.1379   22.8501 C   0  0  0  0  0  0
  -24.1487  -36.7283   23.2637 C   0  0  0  0  0  0
  -25.9629  -30.7901   21.3752 C   0  0  0  0  0  0
  -26.0365  -29.4184   20.7141 C   0  0  0  0  0  0
  -27.2176  -28.6168   20.7037 C   0  0  0  0  0  0
  -26.0233  -26.8974   19.4833 C   0  0  0  0  0  0
  -24.8610  -27.6878   19.4873 C   0  0  0  0  0  0
  -23.6350  -29.8246   20.1596 C   0  0  0  0  0  0
  -25.4111  -36.3079   24.0333 C   0  0  1  0  0  0
  -20.5895  -28.3677   23.1283 C   0  0  2  0  0  0
  -20.6772  -26.9398   22.5408 C   0  0  0  0  0  0
  -19.5744  -26.6381   21.5211 C   0  0  0  0  0  0
  -18.1926  -26.7931   22.1627 C   0  0  0  0  0  0
  -19.1546  -28.8846   23.2890 C   0  0  0  0  0  0
  -18.9470  -30.1453   23.8895 C   0  0  0  0  0  0
  -17.6470  -30.6585   24.0568 C   0  0  0  0  0  0
  -25.9045  -34.9451   23.5107 C   0  0  0  0  0  0
  -16.5357  -29.9088   23.6335 C   0  0  0  0  0  0
  -16.7276  -28.6505   23.0357 C   0  0  0  0  0  0
  -26.4490  -31.6590   25.0732 C   0  0  0  0  0  0
  -25.3729  -31.3760   26.1464 C   0  0  0  0  0  0
  -27.0307  -30.3003   24.6189 C   0  0  0  0  0  0
  -27.6056  -32.4313   25.7497 C   0  0  0  0  0  0
  -27.5580  -37.1793   24.8468 C   0  0  0  0  0  0
  -21.4190  -29.3040   22.3680 N   0  0  0  0  0  0
  -26.4287  -37.3777   23.9417 N   0  0  0  0  0  0
  -24.6887  -31.0620   22.0978 N   0  0  0  0  0  0
  -23.4212  -28.8152   23.2996 O   0  0  0  0  0  0
  -28.3351  -26.4571   20.1566 O   0  0  0  0  0  0
  -26.5607  -34.8924   22.4671 O   0  0  0  0  0  0
  -23.5431  -32.1377   23.7371 O   0  0  0  0  0  0
  -31.0272  -19.2558   19.8666 C   0  0  0  0  0  0
  -30.9911  -17.8333   19.9798 C   0  0  0  0  0  0
  -28.9746  -19.4383   21.0979 C   0  0  0  0  0  0
  -30.0326  -20.1046   20.4305 C   0  0  0  0  0  0
  -29.9477  -17.1664   20.6754 C   0  0  0  0  0  0
  -28.9350  -18.0133   21.2171 C   0  0  0  0  0  0
  -29.2808  -24.0285   20.3287 C   0  0  0  0  0  0
  -30.2428  -21.6676   20.4292 C   0  0  0  0  0  0
  -28.0857  -25.0000   19.9888 C   0  0  0  0  0  0
  -29.8330  -15.7113   20.8475 N   0  0  0  0  0  0
  -29.1334  -22.6622   20.2403 N   0  0  0  0  0  0
  -30.3630  -24.5199   20.6608 O   0  0  0  0  0  0
  -27.6192  -17.3017   22.0804 Cl  0  0  0  0  0  0
  -31.4789  -12.5242   19.1530 H   0  0  0  0  0  0
  -30.3778  -11.4065   19.9071 H   0  0  0  0  0  0
  -29.7702  -11.7406   17.4926 H   0  0  0  0  0  0
  -29.6535  -13.4658   17.7369 H   0  0  0  0  0  0
  -27.8639  -11.2950   18.8725 H   0  0  0  0  0  0
  -27.3772  -12.5776   17.7970 H   0  0  0  0  0  0
  -27.6667  -14.2559   19.5222 H   0  0  0  0  0  0
  -28.7118  -12.0690   21.3887 H   0  0  0  0  0  0
  -28.4440  -13.7277   21.8414 H   0  0  0  0  0  0
  -25.2762   -9.5683   22.4769 H   0  0  0  0  0  0
  -24.0009   -7.4626   22.7468 H   0  0  0  0  0  0
  -21.0850   -8.8768   19.8948 H   0  0  0  0  0  0
  -22.3698  -10.9674   19.6174 H   0  0  0  0  0  0
  -21.1996   -7.6152   23.9715 H   0  0  0  0  0  0
  -21.1482   -6.0525   25.9076 H   0  0  0  0  0  0
  -22.0601   -2.7615   23.2834 H   0  0  0  0  0  0
  -22.4107  -11.9869   22.4798 H   0  0  0  0  0  0
  -21.1108  -13.1236   22.2635 H   0  0  0  0  0  0
  -24.6611  -15.8429   20.5475 H   0  0  0  0  0  0
  -26.2852  -15.6381   20.1376 H   0  0  0  0  0  0
  -26.7181  -32.5436   23.1112 H   0  0  0  0  0  0
  -25.0090  -33.9725   25.0444 H   0  0  0  0  0  0
  -22.7147  -31.3064   21.4053 H   0  0  0  0  0  0
  -23.3753  -35.9608   23.3283 H   0  0  0  0  0  0
  -24.3588  -36.8911   22.2054 H   0  0  0  0  0  0
  -23.7233  -37.6485   23.6662 H   0  0  0  0  0  0
  -26.0994  -31.5566   20.6113 H   0  0  0  0  0  0
  -26.8425  -30.8340   22.0060 H   0  0  0  0  0  0
  -28.1167  -28.9772   21.1853 H   0  0  0  0  0  0
  -25.9480  -25.9410   18.9892 H   0  0  0  0  0  0
  -23.9638  -27.3181   19.0098 H   0  0  0  0  0  0
  -23.7572  -30.6035   19.4056 H   0  0  0  0  0  0
  -22.7541  -29.2567   19.8547 H   0  0  0  0  0  0
  -25.1292  -36.1918   25.0825 H   0  0  0  0  0  0
  -20.9999  -28.3235   24.1398 H   0  0  0  0  0  0
  -20.5658  -26.2281   23.3603 H   0  0  0  0  0  0
  -21.6637  -26.7410   22.1203 H   0  0  0  0  0  0
  -19.6893  -25.6297   21.1224 H   0  0  0  0  0  0
  -19.6680  -27.3206   20.6755 H   0  0  0  0  0  0
  -17.4196  -26.6688   21.4027 H   0  0  0  0  0  0
  -18.0317  -26.0073   22.9018 H   0  0  0  0  0  0
  -19.7942  -30.7278   24.2251 H   0  0  0  0  0  0
  -17.5021  -31.6264   24.5166 H   0  0  0  0  0  0
  -15.5360  -30.2986   23.7663 H   0  0  0  0  0  0
  -15.8673  -28.0824   22.7068 H   0  0  0  0  0  0
  -24.5914  -30.7078   25.7828 H   0  0  0  0  0  0
  -24.8905  -32.2934   26.4839 H   0  0  0  0  0  0
  -25.8055  -30.8999   27.0266 H   0  0  0  0  0  0
  -26.2869  -29.6773   24.1202 H   0  0  0  0  0  0
  -27.3980  -29.7246   25.4695 H   0  0  0  0  0  0
  -27.8759  -30.4276   23.9422 H   0  0  0  0  0  0
  -27.2691  -33.3649   26.2015 H   0  0  0  0  0  0
  -28.3900  -32.6792   25.0335 H   0  0  0  0  0  0
  -28.0666  -31.8455   26.5459 H   0  0  0  0  0  0
  -28.2588  -38.0099   24.7518 H   0  0  0  0  0  0
  -28.1079  -36.2630   24.6276 H   0  0  0  0  0  0
  -27.2302  -37.1422   25.8872 H   0  0  0  0  0  0
  -20.9349  -29.8795   21.6928 H   0  0  0  0  0  0
  -26.0157  -38.2843   24.1436 H   0  0  0  0  0  0
  -31.8685  -19.7024   19.3537 H   0  0  0  0  0  0
  -31.7926  -17.2647   19.5308 H   0  0  0  0  0  0
  -28.1979  -20.0230   21.5687 H   0  0  0  0  0  0
  -30.9964  -21.8960   19.6728 H   0  0  0  0  0  0
  -30.7241  -21.9018   21.3809 H   0  0  0  0  0  0
  -27.2429  -24.7013   20.6146 H   0  0  0  0  0  0
  -27.8086  -24.8008   18.9535 H   0  0  0  0  0  0
  -28.9444  -15.4257   21.2313 H   0  0  0  0  0  0
  -28.2335  -22.3028   19.9509 H   0  0  0  0  0  0
  1 25  1  0  0  0
  1 30  2  0  0  0
  1 80  1  0  0  0
  2  3  1  0  0  0
  2 25  1  0  0  0
  2 84  1  0  0  0
  2 85  1  0  0  0
  3  4  1  0  0  0
  3 86  1  0  0  0
  3 87  1  0  0  0
  4  5  1  0  0  0
  4 88  1  0  0  0
  4 89  1  0  0  0
  5  6  1  0  0  0
  5 26  1  0  0  0
  5 90  1  0  0  0
  6 25  1  0  0  0
  6 91  1  0  0  0
  6 92  1  0  0  0
  7  8  2  0  0  0
  7 26  1  0  0  0
  7 29  1  0  0  0
  8  9  1  0  0  0
  8 22  1  0  0  0
  9 10  1  0  0  0
  9 27  2  0  0  0
 10 11  2  0  0  0
 10 15  1  0  0  0
 11 12  1  0  0  0
 11 93  1  0  0  0
 12 13  2  0  0  0
 12 94  1  0  0  0
 13 14  1  0  0  0
 13 31  1  0  0  0
 14 15  2  0  0  0
 14 95  1  0  0  0
 15 96  1  0  0  0
 16 17  2  0  0  0
 16 21  1  0  0  0
 16 31  1  0  0  0
 17 18  1  0  0  0
 17 97  1  0  0  0
 18 19  2  0  0  0
 18 98  1  0  0  0
 19 20  1  0  0  0
 19 24  1  0  0  0
 20 21  2  0  0  0
 20 99  1  0  0  0
 21 23  1  0  0  0
 22 28  1  0  0  0
 22 32  2  0  0  0
 26 27  1  0  0  0
 28100  1  0  0  0
 28101  1  0  0  0
 29102  1  0  0  0
 29103  1  0  0  0
 33 34  1  0  0  0
 33 66  1  0  0  0
 33 70  2  0  0  0
 34 36  1  0  0  0
 34 59  1  0  0  0
 34104  1  0  0  0
 35 44  2  0  0  0
 35 45  1  0  0  0
 35 68  1  0  0  0
 36 56  1  0  0  0
 36105  1  0  0  0
 37 39  1  0  0  0
 37 47  1  0  0  0
 37 66  1  0  0  0
 37106  1  0  0  0
 38 43  2  0  0  0
 38 46  1  0  0  0
 38 47  1  0  0  0
 39 64  1  0  0  0
 39 67  2  0  0  0
 40 52  1  0  0  0
 40 53  2  0  0  0
 40 58  1  0  0  0
 41107  1  0  0  0
 41108  1  0  0  0
 41109  1  0  0  0
 41 48  1  0  0  0
 42 43  1  0  0  0
 42 66  1  0  0  0
 42110  1  0  0  0
 42111  1  0  0  0
 43 44  1  0  0  0
 44112  1  0  0  0
 45 46  2  0  0  0
 45113  1  0  0  0
 46114  1  0  0  0
 47115  1  0  0  0
 47116  1  0  0  0
 48 56  1  0  0  0
 48 65  1  0  0  0
 48117  1  0  0  0
 49 50  1  0  0  0
 49 53  1  0  0  0
 49 64  1  0  0  0
 49118  1  0  0  0
 50 51  1  0  0  0
 50119  1  0  0  0
 50120  1  0  0  0
 51 52  1  0  0  0
 51121  1  0  0  0
 51122  1  0  0  0
 52123  1  0  0  0
 52124  1  0  0  0
 53 54  1  0  0  0
 54 55  2  0  0  0
 54125  1  0  0  0
 55 57  1  0  0  0
 55126  1  0  0  0
 56 69  2  0  0  0
 57 58  2  0  0  0
 57127  1  0  0  0
 58128  1  0  0  0
 59 60  1  0  0  0
 59 61  1  0  0  0
 59 62  1  0  0  0
 60129  1  0  0  0
 60130  1  0  0  0
 60131  1  0  0  0
 61132  1  0  0  0
 61133  1  0  0  0
 61134  1  0  0  0
 62135  1  0  0  0
 62136  1  0  0  0
 62137  1  0  0  0
 63 65  1  0  0  0
 63138  1  0  0  0
 63139  1  0  0  0
 63140  1  0  0  0
 64141  1  0  0  0
 65142  1  0  0  0
 68 79  1  0  0  0
 71 72  2  0  0  0
 71 74  1  0  0  0
 71143  1  0  0  0
 72 75  1  0  0  0
 72144  1  0  0  0
 73 74  2  0  0  0
 73 76  1  0  0  0
 73145  1  0  0  0
 74 78  1  0  0  0
 75 76  2  0  0  0
 75 80  1  0  0  0
 76 83  1  0  0  0
 77 79  1  0  0  0
 77 81  1  0  0  0
 77 82  2  0  0  0
 78 81  1  0  0  0
 78146  1  0  0  0
 78147  1  0  0  0
 79148  1  0  0  0
 79149  1  0  0  0
 80150  1  0  0  0
 81151  1  0  0  0
M  ISO  4   1 100  68 101  79 101  80 100
M  END
> <chiral flag>
0

> <version>
0

> <s_m_source_file>
/data/baiqing/PycharmProjects/Reinvent-master-3.2/result/LINK_invent/BTK/process_docking_weight1_custom_product_contain_oxygen_bond_distance_aromatic_linkinvent_7_9_3/rearranged_h_0043.sdf

> <i_m_source_file_index>
65

> <r_mmod_Potential_Energy-OPLS-2005>
-49.6568298339844

> <r_mmod_Stretch_Energy-OPLS-2005>
80.3001174926758

> <r_mmod_Bend_Energy-OPLS-2005>
138.464584350586

> <r_mmod_Torsional_Energy-OPLS-2005>
209.864715576172

> <r_mmod_Improper_Torsional_Energy-OPLS-2005>
4.20687389373779

> <r_mmod_Van_der_Waal_Energy-OPLS-2005>
143.980575561523

> <r_mmod_Electrostatic_Energy-OPLS-2005>
-436.524932861328

> <r_mmod_Solvation_Energy-OPLS-2005>
-241.606506347656

> <b_mmod_Minimization_Converged-OPLS-2005>
0

> <r_mmod_RMS_Derivative-OPLS-2005>
1.29782569408417

$$$$
65
                    3D
 Structure written by MMmdl.
156164  0  0  1  0            999 V2000
  -30.5791  -14.7846   20.4042 C   0  0  0  0  0  0
  -30.4257  -12.4441   19.5077 C   0  0  0  0  0  0
  -29.5189  -12.4166   18.2548 C   0  0  0  0  0  0
  -28.0290  -12.3219   18.6427 C   0  0  0  0  0  0
  -27.6340  -13.2103   19.8557 C   0  0  2  0  0  0
  -28.6799  -13.1822   20.9887 C   0  0  0  0  0  0
  -25.2509  -13.8136   20.5694 C   0  0  0  0  0  0
  -24.1794  -13.0408   20.9223 C   0  0  0  0  0  0
  -24.6364  -11.6861   20.8827 C   0  0  0  0  0  0
  -23.9029  -10.4252   21.0458 C   0  0  0  0  0  0
  -24.3621   -9.4157   21.9188 C   0  0  0  0  0  0
  -23.6285   -8.2211   22.0749 C   0  0  0  0  0  0
  -22.4254   -8.0291   21.3549 C   0  0  0  0  0  0
  -21.9908   -9.0261   20.4646 C   0  0  0  0  0  0
  -22.7240  -10.2121   20.3054 C   0  0  0  0  0  0
  -21.6850   -6.0738   22.5271 C   0  0  0  0  0  0
  -21.4019   -6.5648   23.8206 C   0  0  0  0  0  0
  -21.3660   -5.6817   24.9174 C   0  0  0  0  0  0
  -21.6049   -4.3066   24.7236 C   0  0  0  0  0  0
  -21.8822   -3.8157   23.4344 C   0  0  0  0  0  0
  -21.9187   -4.6967   22.3410 C   0  0  0  0  0  0
  -22.7811  -13.5195   21.1849 C   0  0  0  0  0  0
  -22.1656   -4.2171   21.0974 F   0  0  0  0  0  0
  -21.5618   -3.4538   25.7724 F   0  0  0  0  0  0
  -29.9716  -13.5408   20.4009 N   0  0  0  0  0  0
  -26.2900  -12.9276   20.3352 N   0  0  0  0  0  0
  -25.9271  -11.6424   20.5833 N   0  0  0  0  0  0
  -22.0483  -12.8241   22.0454 N   0  0  0  0  0  0
  -25.4237  -15.1864   20.4038 N   0  0  0  0  0  0
  -31.7502  -14.8716   20.0274 O   0  0  0  0  0  0
  -21.6631   -6.8878   21.4220 O   0  0  0  0  0  0
  -22.3509  -14.5513   20.6693 O   0  0  0  0  0  0
  -24.6366  -31.8490   23.1936 C   0  0  0  0  0  0
  -25.9172  -32.4744   23.8322 C   0  0  1  0  0  0
  -27.2309  -27.2216   20.1509 C   0  0  0  0  0  0
  -25.5941  -33.8551   24.2251 N   0  0  0  0  0  0
  -23.4411  -30.4683   21.5327 C   0  0  2  0  0  0
  -24.8892  -28.8940   20.1209 C   0  0  0  0  0  0
  -22.7500  -29.4609   22.4851 C   0  0  0  0  0  0
  -18.0262  -28.1302   22.8537 C   0  0  0  0  0  0
  -24.1477  -36.7279   23.2648 C   0  0  0  0  0  0
  -25.9869  -30.7487   21.3791 C   0  0  0  0  0  0
  -26.0633  -29.3644   20.7295 C   0  0  0  0  0  0
  -27.2387  -28.5401   20.7275 C   0  0  0  0  0  0
  -26.0366  -26.8206   19.5186 C   0  0  0  0  0  0
  -24.8831  -27.6312   19.5073 C   0  0  0  0  0  0
  -23.6655  -29.7892   20.1537 C   0  0  0  0  0  0
  -25.4110  -36.3087   24.0341 C   0  0  1  0  0  0
  -20.5882  -28.3711   23.1216 C   0  0  2  0  0  0
  -20.6721  -26.9402   22.5441 C   0  0  0  0  0  0
  -19.5685  -26.6348   21.5231 C   0  0  0  0  0  0
  -18.1889  -26.7821   22.1745 C   0  0  0  0  0  0
  -19.1513  -28.8854   23.2844 C   0  0  0  0  0  0
  -18.9383  -30.1461   23.8821 C   0  0  0  0  0  0
  -17.6357  -30.6514   24.0536 C   0  0  0  0  0  0
  -25.9056  -34.9455   23.5124 C   0  0  0  0  0  0
  -16.5279  -29.8965   23.6340 C   0  0  0  0  0  0
  -16.7243  -28.6395   23.0354 C   0  0  0  0  0  0
  -26.4528  -31.6610   25.0747 C   0  0  0  0  0  0
  -25.3747  -31.3733   26.1455 C   0  0  0  0  0  0
  -27.0365  -30.3020   24.6269 C   0  0  0  0  0  0
  -27.6058  -32.4372   25.7533 C   0  0  0  0  0  0
  -27.5566  -37.1808   24.8475 C   0  0  0  0  0  0
  -21.4214  -29.3067   22.3617 N   0  0  0  0  0  0
  -26.4283  -37.3780   23.9410 N   0  0  0  0  0  0
  -24.7067  -31.0426   22.0909 N   0  0  0  0  0  0
  -23.4163  -28.8163   23.2986 O   0  0  0  0  0  0
  -28.3208  -26.3145   20.1529 O   0  0  0  0  0  0
  -26.5626  -34.8957   22.4688 O   0  0  0  0  0  0
  -23.5505  -32.1326   23.7210 O   0  0  0  0  0  0
  -27.8127  -16.6982   17.5842 C   0  0  0  0  0  0
  -28.7568  -16.1923   18.4855 C   0  0  0  0  0  0
  -27.1996  -17.9197   17.8467 C   0  0  0  0  0  0
  -28.6606  -18.2611   19.8284 C   0  0  0  0  0  0
  -29.1463  -16.8598   19.6776 C   0  0  0  0  0  0
  -27.5977  -18.6756   18.9561 C   0  0  0  0  0  0
  -29.2064  -19.4285   20.7726 C   0  0  0  0  0  0
  -28.6912  -23.5351   19.9900 C   0  0  0  0  0  0
  -28.7877  -22.1245   20.8326 C   0  0  0  0  0  0
  -28.1477  -24.9057   20.6988 C   0  0  0  0  0  0
  -29.8378  -15.9547   20.6452 N   0  0  0  0  0  0
  -29.3184  -20.8459   20.1438 N   0  3  0  0  0  0
  -26.6828  -20.1300   19.1853 Cl  0  0  0  0  0  0
  -31.4740  -12.5409   19.2243 H   0  0  0  0  0  0
  -30.3561  -11.4877   20.0301 H   0  0  0  0  0  0
  -29.7704  -11.5520   17.6345 H   0  0  0  0  0  0
  -29.7152  -13.2807   17.6253 H   0  0  0  0  0  0
  -27.8289  -11.2763   18.8772 H   0  0  0  0  0  0
  -27.3992  -12.5578   17.7816 H   0  0  0  0  0  0
  -27.5881  -14.2208   19.4756 H   0  0  0  0  0  0
  -28.7270  -12.2003   21.4626 H   0  0  0  0  0  0
  -28.4130  -13.8872   21.7749 H   0  0  0  0  0  0
  -25.2761   -9.5653   22.4756 H   0  0  0  0  0  0
  -24.0006   -7.4607   22.7478 H   0  0  0  0  0  0
  -21.0837   -8.8806   19.8951 H   0  0  0  0  0  0
  -22.3720  -10.9691   19.6194 H   0  0  0  0  0  0
  -21.2016   -7.6161   23.9735 H   0  0  0  0  0  0
  -21.1475   -6.0521   25.9090 H   0  0  0  0  0  0
  -22.0590   -2.7609   23.2836 H   0  0  0  0  0  0
  -22.4134  -11.9921   22.4879 H   0  0  0  0  0  0
  -21.1098  -13.1272   22.2657 H   0  0  0  0  0  0
  -24.6457  -15.8337   20.4825 H   0  0  0  0  0  0
  -26.2615  -15.6156   20.0357 H   0  0  0  0  0  0
  -26.7244  -32.5427   23.1062 H   0  0  0  0  0  0
  -25.0062  -33.9646   25.0392 H   0  0  0  0  0  0
  -22.7374  -31.2907   21.3787 H   0  0  0  0  0  0
  -23.3752  -35.9597   23.3346 H   0  0  0  0  0  0
  -24.3547  -36.8879   22.2049 H   0  0  0  0  0  0
  -23.7219  -37.6482   23.6662 H   0  0  0  0  0  0
  -26.1277  -31.5066   20.6103 H   0  0  0  0  0  0
  -26.8614  -30.8074   22.0169 H   0  0  0  0  0  0
  -28.1432  -28.8925   21.2071 H   0  0  0  0  0  0
  -25.9964  -25.8528   19.0366 H   0  0  0  0  0  0
  -23.9868  -27.2632   19.0272 H   0  0  0  0  0  0
  -23.8099  -30.5591   19.3942 H   0  0  0  0  0  0
  -22.7828  -29.2274   19.8430 H   0  0  0  0  0  0
  -25.1290  -36.1920   25.0823 H   0  0  0  0  0  0
  -20.9973  -28.3289   24.1357 H   0  0  0  0  0  0
  -20.5505  -26.2344   23.3688 H   0  0  0  0  0  0
  -21.6602  -26.7398   22.1283 H   0  0  0  0  0  0
  -19.7038  -25.6271   21.1257 H   0  0  0  0  0  0
  -19.6513  -27.3167   20.6761 H   0  0  0  0  0  0
  -17.4167  -26.6526   21.4155 H   0  0  0  0  0  0
  -18.0305  -25.9927   22.9125 H   0  0  0  0  0  0
  -19.7861  -30.7340   24.2134 H   0  0  0  0  0  0
  -17.4839  -31.6215   24.5135 H   0  0  0  0  0  0
  -15.5247  -30.2792   23.7668 H   0  0  0  0  0  0
  -15.8614  -28.0728   22.7002 H   0  0  0  0  0  0
  -24.5932  -30.7072   25.7765 H   0  0  0  0  0  0
  -24.8942  -32.2883   26.4921 H   0  0  0  0  0  0
  -25.8066  -30.8874   27.0214 H   0  0  0  0  0  0
  -26.2919  -29.6792   24.1280 H   0  0  0  0  0  0
  -27.3968  -29.7265   25.4814 H   0  0  0  0  0  0
  -27.8866  -30.4273   23.9555 H   0  0  0  0  0  0
  -27.2618  -33.3650   26.2100 H   0  0  0  0  0  0
  -28.3858  -32.6963   25.0371 H   0  0  0  0  0  0
  -28.0741  -31.8534   26.5463 H   0  0  0  0  0  0
  -28.2617  -38.0066   24.7473 H   0  0  0  0  0  0
  -28.1025  -36.2602   24.6367 H   0  0  0  0  0  0
  -27.2282  -37.1531   25.8877 H   0  0  0  0  0  0
  -20.9440  -29.8808   21.6820 H   0  0  0  0  0  0
  -26.0177  -38.2861   24.1388 H   0  0  0  0  0  0
  -27.5085  -16.1304   16.7168 H   0  0  0  0  0  0
  -29.1087  -15.2045   18.2681 H   0  0  0  0  0  0
  -26.4341  -18.2946   17.1823 H   0  0  0  0  0  0
  -30.2148  -19.1195   21.0577 H   0  0  0  0  0  0
  -28.6402  -19.4743   21.7050 H   0  0  0  0  0  0
  -28.0771  -23.3446   19.1103 H   0  0  0  0  0  0
  -29.6840  -23.7504   19.5974 H   0  0  0  0  0  0
  -27.8010  -21.8844   21.2309 H   0  0  0  0  0  0
  -29.4191  -22.3009   21.7041 H   0  0  0  0  0  0
  -28.6677  -24.9307   21.6578 H   0  0  0  0  0  0
  -27.1015  -24.7515   20.9752 H   0  0  0  0  0  0
  -29.4327  -15.9816   21.5713 H   0  0  0  0  0  0
  -28.8087  -20.7628   19.2798 H   0  0  0  0  0  0
  -30.2867  -20.9918   19.8960 H   0  0  0  0  0  0
  1 25  1  0  0  0
  1 30  2  0  0  0
  1 81  1  0  0  0
  2  3  1  0  0  0
  2 25  1  0  0  0
  2 84  1  0  0  0
  2 85  1  0  0  0
  3  4  1  0  0  0
  3 86  1  0  0  0
  3 87  1  0  0  0
  4  5  1  0  0  0
  4 88  1  0  0  0
  4 89  1  0  0  0
  5  6  1  0  0  0
  5 26  1  0  0  0
  5 90  1  0  0  0
  6 25  1  0  0  0
  6 91  1  0  0  0
  6 92  1  0  0  0
  7  8  2  0  0  0
  7 26  1  0  0  0
  7 29  1  0  0  0
  8  9  1  0  0  0
  8 22  1  0  0  0
  9 10  1  0  0  0
  9 27  2  0  0  0
 10 11  2  0  0  0
 10 15  1  0  0  0
 11 12  1  0  0  0
 11 93  1  0  0  0
 12 13  2  0  0  0
 12 94  1  0  0  0
 13 14  1  0  0  0
 13 31  1  0  0  0
 14 15  2  0  0  0
 14 95  1  0  0  0
 15 96  1  0  0  0
 16 17  2  0  0  0
 16 21  1  0  0  0
 16 31  1  0  0  0
 17 18  1  0  0  0
 17 97  1  0  0  0
 18 19  2  0  0  0
 18 98  1  0  0  0
 19 20  1  0  0  0
 19 24  1  0  0  0
 20 21  2  0  0  0
 20 99  1  0  0  0
 21 23  1  0  0  0
 22 28  1  0  0  0
 22 32  2  0  0  0
 26 27  1  0  0  0
 28100  1  0  0  0
 28101  1  0  0  0
 29102  1  0  0  0
 29103  1  0  0  0
 33 34  1  0  0  0
 33 66  1  0  0  0
 33 70  2  0  0  0
 34 36  1  0  0  0
 34 59  1  0  0  0
 34104  1  0  0  0
 35 44  2  0  0  0
 35 45  1  0  0  0
 35 68  1  0  0  0
 36 56  1  0  0  0
 36105  1  0  0  0
 37 39  1  0  0  0
 37 47  1  0  0  0
 37 66  1  0  0  0
 37106  1  0  0  0
 38 43  2  0  0  0
 38 46  1  0  0  0
 38 47  1  0  0  0
 39 64  1  0  0  0
 39 67  2  0  0  0
 40 52  1  0  0  0
 40 53  2  0  0  0
 40 58  1  0  0  0
 41107  1  0  0  0
 41108  1  0  0  0
 41109  1  0  0  0
 41 48  1  0  0  0
 42 43  1  0  0  0
 42 66  1  0  0  0
 42110  1  0  0  0
 42111  1  0  0  0
 43 44  1  0  0  0
 44112  1  0  0  0
 45 46  2  0  0  0
 45113  1  0  0  0
 46114  1  0  0  0
 47115  1  0  0  0
 47116  1  0  0  0
 48 56  1  0  0  0
 48 65  1  0  0  0
 48117  1  0  0  0
 49 50  1  0  0  0
 49 53  1  0  0  0
 49 64  1  0  0  0
 49118  1  0  0  0
 50 51  1  0  0  0
 50119  1  0  0  0
 50120  1  0  0  0
 51 52  1  0  0  0
 51121  1  0  0  0
 51122  1  0  0  0
 52123  1  0  0  0
 52124  1  0  0  0
 53 54  1  0  0  0
 54 55  2  0  0  0
 54125  1  0  0  0
 55 57  1  0  0  0
 55126  1  0  0  0
 56 69  2  0  0  0
 57 58  2  0  0  0
 57127  1  0  0  0
 58128  1  0  0  0
 59 60  1  0  0  0
 59 61  1  0  0  0
 59 62  1  0  0  0
 60129  1  0  0  0
 60130  1  0  0  0
 60131  1  0  0  0
 61132  1  0  0  0
 61133  1  0  0  0
 61134  1  0  0  0
 62135  1  0  0  0
 62136  1  0  0  0
 62137  1  0  0  0
 63 65  1  0  0  0
 63138  1  0  0  0
 63139  1  0  0  0
 63140  1  0  0  0
 64141  1  0  0  0
 65142  1  0  0  0
 68 80  1  0  0  0
 71 72  2  0  0  0
 71 73  1  0  0  0
 71143  1  0  0  0
 72 75  1  0  0  0
 72144  1  0  0  0
 73 76  2  0  0  0
 73145  1  0  0  0
 74 75  2  0  0  0
 74 76  1  0  0  0
 74 77  1  0  0  0
 75 81  1  0  0  0
 76 83  1  0  0  0
 77 82  1  0  0  0
 77146  1  0  0  0
 77147  1  0  0  0
 78 79  1  0  0  0
 78 80  1  0  0  0
 78148  1  0  0  0
 78149  1  0  0  0
 79 82  1  0  0  0
 79150  1  0  0  0
 79151  1  0  0  0
 80152  1  0  0  0
 80153  1  0  0  0
 81154  1  0  0  0
 82155  1  0  0  0
 82156  1  0  0  0
M  CHG  1  82   1
M  ISO  4   1 100  68 101  80 101  81 100
M  END
> <chiral flag>
0

> <version>
0

> <s_m_source_file>
/data/baiqing/PycharmProjects/Reinvent-master-3.2/result/LINK_invent/BTK/process_docking_weight1_custom_product_contain_oxygen_bond_distance_aromatic_linkinvent_7_9_3/rearranged_h_0043.sdf

> <i_m_source_file_index>
66

> <r_mmod_Potential_Energy-OPLS-2005>
181.474517822266

> <r_mmod_Stretch_Energy-OPLS-2005>
163.709182739258

> <r_mmod_Bend_Energy-OPLS-2005>
206.796401977539

> <r_mmod_Torsional_Energy-OPLS-2005>
322.39892578125

> <r_mmod_Improper_Torsional_Energy-OPLS-2005>
6.94853687286377

> <r_mmod_Van_der_Waal_Energy-OPLS-2005>
144.330780029297

> <r_mmod_Electrostatic_Energy-OPLS-2005>
-293.425537109375

> <r_mmod_Solvation_Energy-OPLS-2005>
-476.807495117188

> <b_mmod_Minimization_Converged-OPLS-2005>
0

> <r_mmod_RMS_Derivative-OPLS-2005>
7.68174266815186

$$$$
66
                    3D
 Structure written by MMmdl.
154162  0  0  1  0            999 V2000
  -30.5904  -14.7568   20.4177 C   0  0  0  0  0  0
  -30.4331  -12.4526   19.4549 C   0  0  0  0  0  0
  -29.5080  -12.4875   18.2184 C   0  0  0  0  0  0
  -28.0362  -12.2967   18.6455 C   0  0  0  0  0  0
  -27.6359  -13.2191   19.8297 C   0  0  2  0  0  0
  -28.6833  -13.1913   20.9610 C   0  0  0  0  0  0
  -25.2560  -13.8160   20.5683 C   0  0  0  0  0  0
  -24.1833  -13.0441   20.9174 C   0  0  0  0  0  0
  -24.6392  -11.6893   20.8717 C   0  0  0  0  0  0
  -23.9069  -10.4290   21.0389 C   0  0  0  0  0  0
  -24.3645   -9.4215   21.9172 C   0  0  0  0  0  0
  -23.6311   -8.2248   22.0738 C   0  0  0  0  0  0
  -22.4278   -8.0293   21.3521 C   0  0  0  0  0  0
  -21.9915   -9.0263   20.4611 C   0  0  0  0  0  0
  -22.7245  -10.2136   20.3034 C   0  0  0  0  0  0
  -21.6863   -6.0733   22.5275 C   0  0  0  0  0  0
  -21.4004   -6.5640   23.8207 C   0  0  0  0  0  0
  -21.3655   -5.6801   24.9177 C   0  0  0  0  0  0
  -21.6062   -4.3066   24.7236 C   0  0  0  0  0  0
  -21.8819   -3.8142   23.4360 C   0  0  0  0  0  0
  -21.9193   -4.6953   22.3408 C   0  0  0  0  0  0
  -22.7847  -13.5198   21.1886 C   0  0  0  0  0  0
  -22.1665   -4.2133   21.0984 F   0  0  0  0  0  0
  -21.5654   -3.4562   25.7757 F   0  0  0  0  0  0
  -29.9721  -13.5331   20.3517 N   0  0  0  0  0  0
  -26.2938  -12.9335   20.3206 N   0  0  0  0  0  0
  -25.9327  -11.6489   20.5713 N   0  0  0  0  0  0
  -22.0499  -12.8124   22.0395 N   0  0  0  0  0  0
  -25.4387  -15.1883   20.4080 N   0  0  0  0  0  0
  -31.8122  -14.8283   20.2613 O   0  0  0  0  0  0
  -21.6656   -6.8879   21.4227 O   0  0  0  0  0  0
  -22.3516  -14.5531   20.6783 O   0  0  0  0  0  0
  -24.6348  -31.8468   23.1954 C   0  0  0  0  0  0
  -25.9167  -32.4689   23.8341 C   0  0  1  0  0  0
  -27.2251  -27.2206   20.1382 C   0  0  0  0  0  0
  -25.5904  -33.8509   24.2221 N   0  0  0  0  0  0
  -23.4404  -30.4693   21.5311 C   0  0  2  0  0  0
  -24.8922  -28.9084   20.1039 C   0  0  0  0  0  0
  -22.7561  -29.4593   22.4833 C   0  0  0  0  0  0
  -18.0358  -28.1365   22.8510 C   0  0  0  0  0  0
  -24.1500  -36.7282   23.2652 C   0  0  0  0  0  0
  -25.9886  -30.7409   21.3940 C   0  0  0  0  0  0
  -26.0615  -29.3618   20.7301 C   0  0  0  0  0  0
  -27.2305  -28.5308   20.7370 C   0  0  0  0  0  0
  -26.0395  -26.8449   19.4744 C   0  0  0  0  0  0
  -24.8952  -27.6655   19.4510 C   0  0  0  0  0  0
  -23.6619  -29.7976   20.1498 C   0  0  0  0  0  0
  -25.4123  -36.3049   24.0328 C   0  0  1  0  0  0
  -20.5965  -28.3721   23.1219 C   0  0  2  0  0  0
  -20.6850  -26.9420   22.5374 C   0  0  0  0  0  0
  -19.5780  -26.6388   21.5231 C   0  0  0  0  0  0
  -18.1986  -26.7880   22.1709 C   0  0  0  0  0  0
  -19.1603  -28.8901   23.2848 C   0  0  0  0  0  0
  -18.9468  -30.1506   23.8822 C   0  0  0  0  0  0
  -17.6433  -30.6581   24.0504 C   0  0  0  0  0  0
  -25.9044  -34.9404   23.5065 C   0  0  0  0  0  0
  -16.5358  -29.9018   23.6298 C   0  0  0  0  0  0
  -16.7328  -28.6425   23.0360 C   0  0  0  0  0  0
  -26.4528  -31.6580   25.0792 C   0  0  0  0  0  0
  -25.3716  -31.3767   26.1484 C   0  0  0  0  0  0
  -27.0399  -30.2970   24.6376 C   0  0  0  0  0  0
  -27.6030  -32.4396   25.7570 C   0  0  0  0  0  0
  -27.5563  -37.1820   24.8460 C   0  0  0  0  0  0
  -21.4261  -29.3055   22.3572 N   0  0  0  0  0  0
  -26.4307  -37.3739   23.9364 N   0  0  0  0  0  0
  -24.7058  -31.0404   22.0951 N   0  0  0  0  0  0
  -23.4246  -28.8107   23.2946 O   0  0  0  0  0  0
  -28.3044  -26.3010   20.2028 O   0  0  0  0  0  0
  -26.5648  -34.8876   22.4659 O   0  0  0  0  0  0
  -23.5475  -32.1292   23.7229 O   0  0  0  0  0  0
  -28.6950  -18.2607   22.7139 C   0  0  0  0  0  0
  -29.1091  -17.0924   22.0499 C   0  0  0  0  0  0
  -29.0771  -19.7018   20.7206 C   0  0  0  0  0  0
  -28.6826  -19.5319   22.0871 C   0  0  0  0  0  0
  -29.5194  -17.1421   20.7112 C   0  0  0  0  0  0
  -29.4797  -18.4510   20.0588 C   0  0  0  0  0  0
  -29.4814  -22.4631   20.6918 C   0  0  0  0  0  0
  -29.1476  -23.8264   20.7091 C   0  0  0  0  0  0
  -29.0197  -21.1378   20.0423 C   0  0  0  0  0  0
  -28.1535  -20.6799   22.9350 C   0  0  0  0  0  0
  -28.0483  -24.8038   20.1090 C   0  0  0  0  0  0
  -28.6174  -21.2562   18.8498 N   0  0  0  0  0  0
  -29.8334  -15.8596   20.0389 N   0  0  0  0  0  0
  -29.8310  -18.4914   18.7507 F   0  0  0  0  0  0
  -31.4777  -12.5766   19.1602 H   0  0  0  0  0  0
  -30.3677  -11.4858   19.9561 H   0  0  0  0  0  0
  -29.7944  -11.7153   17.5055 H   0  0  0  0  0  0
  -29.6211  -13.4374   17.6904 H   0  0  0  0  0  0
  -27.9172  -11.2523   18.9412 H   0  0  0  0  0  0
  -27.3708  -12.4508   17.7962 H   0  0  0  0  0  0
  -27.6187  -14.2277   19.4224 H   0  0  0  0  0  0
  -28.7216  -12.2139   21.4432 H   0  0  0  0  0  0
  -28.4275  -13.9202   21.7300 H   0  0  0  0  0  0
  -25.2800   -9.5704   22.4729 H   0  0  0  0  0  0
  -24.0038   -7.4632   22.7445 H   0  0  0  0  0  0
  -21.0859   -8.8772   19.8896 H   0  0  0  0  0  0
  -22.3713  -10.9686   19.6139 H   0  0  0  0  0  0
  -21.1972   -7.6141   23.9720 H   0  0  0  0  0  0
  -21.1487   -6.0518   25.9084 H   0  0  0  0  0  0
  -22.0597   -2.7601   23.2877 H   0  0  0  0  0  0
  -22.4161  -11.9778   22.4747 H   0  0  0  0  0  0
  -21.1117  -13.1100   22.2688 H   0  0  0  0  0  0
  -24.6924  -15.8650   20.5234 H   0  0  0  0  0  0
  -26.3164  -15.6054   20.1307 H   0  0  0  0  0  0
  -26.7236  -32.5296   23.1071 H   0  0  0  0  0  0
  -25.0008  -33.9637   25.0329 H   0  0  0  0  0  0
  -22.7444  -31.2955   21.3795 H   0  0  0  0  0  0
  -23.3715  -35.9664   23.3356 H   0  0  0  0  0  0
  -24.3560  -36.8876   22.2062 H   0  0  0  0  0  0
  -23.7349  -37.6526   23.6653 H   0  0  0  0  0  0
  -26.1523  -31.4993   20.6283 H   0  0  0  0  0  0
  -26.8540  -30.7756   22.0424 H   0  0  0  0  0  0
  -28.1186  -28.8682   21.2549 H   0  0  0  0  0  0
  -25.9790  -25.8919   18.9678 H   0  0  0  0  0  0
  -24.0166  -27.3198   18.9239 H   0  0  0  0  0  0
  -23.7906  -30.5680   19.3902 H   0  0  0  0  0  0
  -22.7808  -29.2298   19.8453 H   0  0  0  0  0  0
  -25.1337  -36.1892   25.0835 H   0  0  0  0  0  0
  -21.0100  -28.3343   24.1324 H   0  0  0  0  0  0
  -20.5851  -26.2287   23.3566 H   0  0  0  0  0  0
  -21.6700  -26.7511   22.1091 H   0  0  0  0  0  0
  -19.7016  -25.6363   21.1111 H   0  0  0  0  0  0
  -19.6636  -27.3286   20.6819 H   0  0  0  0  0  0
  -17.4191  -26.6534   21.4214 H   0  0  0  0  0  0
  -18.0563  -26.0063   22.9213 H   0  0  0  0  0  0
  -19.7921  -30.7413   24.2144 H   0  0  0  0  0  0
  -17.4941  -31.6276   24.5072 H   0  0  0  0  0  0
  -15.5362  -30.2899   23.7563 H   0  0  0  0  0  0
  -15.8809  -28.0676   22.7057 H   0  0  0  0  0  0
  -24.5828  -30.7196   25.7808 H   0  0  0  0  0  0
  -24.8960  -32.2944   26.4956 H   0  0  0  0  0  0
  -25.7990  -30.8889   27.0251 H   0  0  0  0  0  0
  -26.3030  -29.6699   24.1317 H   0  0  0  0  0  0
  -27.3926  -29.7287   25.5005 H   0  0  0  0  0  0
  -27.8985  -30.4210   23.9766 H   0  0  0  0  0  0
  -27.2555  -33.3649   26.2177 H   0  0  0  0  0  0
  -28.3806  -32.7068   25.0407 H   0  0  0  0  0  0
  -28.0730  -31.8535   26.5472 H   0  0  0  0  0  0
  -28.2639  -38.0060   24.7369 H   0  0  0  0  0  0
  -28.1008  -36.2567   24.6453 H   0  0  0  0  0  0
  -27.2222  -37.1669   25.8857 H   0  0  0  0  0  0
  -20.9437  -29.8752   21.6778 H   0  0  0  0  0  0
  -26.0167  -38.2821   24.1292 H   0  0  0  0  0  0
  -28.3498  -18.1516   23.7329 H   0  0  0  0  0  0
  -29.0545  -16.1458   22.5676 H   0  0  0  0  0  0
  -30.3488  -22.2372   21.3020 H   0  0  0  0  0  0
  -29.8185  -24.3968   21.3353 H   0  0  0  0  0  0
  -28.9762  -21.2589   23.3548 H   0  0  0  0  0  0
  -27.5685  -20.3025   23.7767 H   0  0  0  0  0  0
  -27.4960  -21.3395   22.3676 H   0  0  0  0  0  0
  -27.1446  -24.5923   20.6841 H   0  0  0  0  0  0
  -27.8287  -24.5072   19.0818 H   0  0  0  0  0  0
  -28.3604  -20.3660   18.4376 H   0  0  0  0  0  0
  -29.8706  -15.9683   19.0357 H   0  0  0  0  0  0
  1 25  1  0  0  0
  1 30  2  0  0  0
  1 83  1  0  0  0
  2  3  1  0  0  0
  2 25  1  0  0  0
  2 85  1  0  0  0
  2 86  1  0  0  0
  3  4  1  0  0  0
  3 87  1  0  0  0
  3 88  1  0  0  0
  4  5  1  0  0  0
  4 89  1  0  0  0
  4 90  1  0  0  0
  5  6  1  0  0  0
  5 26  1  0  0  0
  5 91  1  0  0  0
  6 25  1  0  0  0
  6 92  1  0  0  0
  6 93  1  0  0  0
  7  8  2  0  0  0
  7 26  1  0  0  0
  7 29  1  0  0  0
  8  9  1  0  0  0
  8 22  1  0  0  0
  9 10  1  0  0  0
  9 27  2  0  0  0
 10 11  2  0  0  0
 10 15  1  0  0  0
 11 12  1  0  0  0
 11 94  1  0  0  0
 12 13  2  0  0  0
 12 95  1  0  0  0
 13 14  1  0  0  0
 13 31  1  0  0  0
 14 15  2  0  0  0
 14 96  1  0  0  0
 15 97  1  0  0  0
 16 17  2  0  0  0
 16 21  1  0  0  0
 16 31  1  0  0  0
 17 18  1  0  0  0
 17 98  1  0  0  0
 18 19  2  0  0  0
 18 99  1  0  0  0
 19 20  1  0  0  0
 19 24  1  0  0  0
 20 21  2  0  0  0
 20100  1  0  0  0
 21 23  1  0  0  0
 22 28  1  0  0  0
 22 32  2  0  0  0
 26 27  1  0  0  0
 28101  1  0  0  0
 28102  1  0  0  0
 29103  1  0  0  0
 29104  1  0  0  0
 33 34  1  0  0  0
 33 66  1  0  0  0
 33 70  2  0  0  0
 34 36  1  0  0  0
 34 59  1  0  0  0
 34105  1  0  0  0
 35 44  2  0  0  0
 35 45  1  0  0  0
 35 68  1  0  0  0
 36 56  1  0  0  0
 36106  1  0  0  0
 37 39  1  0  0  0
 37 47  1  0  0  0
 37 66  1  0  0  0
 37107  1  0  0  0
 38 43  2  0  0  0
 38 46  1  0  0  0
 38 47  1  0  0  0
 39 64  1  0  0  0
 39 67  2  0  0  0
 40 52  1  0  0  0
 40 53  2  0  0  0
 40 58  1  0  0  0
 41108  1  0  0  0
 41109  1  0  0  0
 41110  1  0  0  0
 41 48  1  0  0  0
 42 43  1  0  0  0
 42 66  1  0  0  0
 42111  1  0  0  0
 42112  1  0  0  0
 43 44  1  0  0  0
 44113  1  0  0  0
 45 46  2  0  0  0
 45114  1  0  0  0
 46115  1  0  0  0
 47116  1  0  0  0
 47117  1  0  0  0
 48 56  1  0  0  0
 48 65  1  0  0  0
 48118  1  0  0  0
 49 50  1  0  0  0
 49 53  1  0  0  0
 49 64  1  0  0  0
 49119  1  0  0  0
 50 51  1  0  0  0
 50120  1  0  0  0
 50121  1  0  0  0
 51 52  1  0  0  0
 51122  1  0  0  0
 51123  1  0  0  0
 52124  1  0  0  0
 52125  1  0  0  0
 53 54  1  0  0  0
 54 55  2  0  0  0
 54126  1  0  0  0
 55 57  1  0  0  0
 55127  1  0  0  0
 56 69  2  0  0  0
 57 58  2  0  0  0
 57128  1  0  0  0
 58129  1  0  0  0
 59 60  1  0  0  0
 59 61  1  0  0  0
 59 62  1  0  0  0
 60130  1  0  0  0
 60131  1  0  0  0
 60132  1  0  0  0
 61133  1  0  0  0
 61134  1  0  0  0
 61135  1  0  0  0
 62136  1  0  0  0
 62137  1  0  0  0
 62138  1  0  0  0
 63 65  1  0  0  0
 63139  1  0  0  0
 63140  1  0  0  0
 63141  1  0  0  0
 64142  1  0  0  0
 65143  1  0  0  0
 68 81  1  0  0  0
 71 72  2  0  0  0
 71 74  1  0  0  0
 71144  1  0  0  0
 72 75  1  0  0  0
 72145  1  0  0  0
 73 74  2  0  0  0
 73 76  1  0  0  0
 73 79  1  0  0  0
 74 80  1  0  0  0
 75 76  2  0  0  0
 75 83  1  0  0  0
 76 84  1  0  0  0
 77 78  2  0  0  0
 77 79  1  0  0  0
 77146  1  0  0  0
 78 81  1  0  0  0
 78147  1  0  0  0
 79 82  2  0  0  0
 80148  1  0  0  0
 80149  1  0  0  0
 80150  1  0  0  0
 81151  1  0  0  0
 81152  1  0  0  0
 82153  1  0  0  0
 83154  1  0  0  0
M  ISO  4   1 100  68 101  81 101  83 100
M  END
> <chiral flag>
0

> <version>
0

> <s_m_source_file>
/data/baiqing/PycharmProjects/Reinvent-master-3.2/result/LINK_invent/BTK/process_docking_weight1_custom_product_contain_oxygen_bond_distance_aromatic_linkinvent_7_9_3/rearranged_h_0043.sdf

> <i_m_source_file_index>
67

> <r_mmod_Potential_Energy-OPLS-2005>
340.672119140625

> <r_mmod_Stretch_Energy-OPLS-2005>
143.535095214844

> <r_mmod_Bend_Energy-OPLS-2005>
204.942810058594

> <r_mmod_Torsional_Energy-OPLS-2005>
312.094818115234

> <r_mmod_Improper_Torsional_Energy-OPLS-2005>
24.5963554382324

> <r_mmod_Van_der_Waal_Energy-OPLS-2005>
133.594909667969

> <r_mmod_Electrostatic_Energy-OPLS-2005>
-376.914031982422

> <r_mmod_Solvation_Energy-OPLS-2005>
-210.994934082031

> <b_mmod_Minimization_Converged-OPLS-2005>
0

> <r_mmod_RMS_Derivative-OPLS-2005>
6.61463260650635

$$$$
67
                    3D
 Structure written by MMmdl.
162170  0  0  1  0            999 V2000
  -30.7038  -14.4259   20.6429 C   0  0  0  0  0  0
  -30.4376  -12.3109   19.3927 C   0  0  0  0  0  0
  -29.4897  -12.5309   18.1950 C   0  0  0  0  0  0
  -28.0132  -12.3939   18.6131 C   0  0  0  0  0  0
  -27.6749  -13.2015   19.8916 C   0  0  2  0  0  0
  -28.7160  -12.9182   20.9971 C   0  0  0  0  0  0
  -25.2675  -13.8157   20.5736 C   0  0  0  0  0  0
  -24.1889  -13.0455   20.9176 C   0  0  0  0  0  0
  -24.6425  -11.6908   20.8745 C   0  0  0  0  0  0
  -23.9086  -10.4298   21.0415 C   0  0  0  0  0  0
  -24.3624   -9.4210   21.9202 C   0  0  0  0  0  0
  -23.6301   -8.2241   22.0756 C   0  0  0  0  0  0
  -22.4277   -8.0292   21.3554 C   0  0  0  0  0  0
  -21.9923   -9.0268   20.4649 C   0  0  0  0  0  0
  -22.7250  -10.2153   20.3074 C   0  0  0  0  0  0
  -21.6847   -6.0735   22.5283 C   0  0  0  0  0  0
  -21.4005   -6.5643   23.8214 C   0  0  0  0  0  0
  -21.3661   -5.6803   24.9180 C   0  0  0  0  0  0
  -21.6041   -4.3059   24.7235 C   0  0  0  0  0  0
  -21.8814   -3.8149   23.4357 C   0  0  0  0  0  0
  -21.9196   -4.6965   22.3410 C   0  0  0  0  0  0
  -22.7912  -13.5261   21.1822 C   0  0  0  0  0  0
  -22.1660   -4.2152   21.0986 F   0  0  0  0  0  0
  -21.5635   -3.4539   25.7747 F   0  0  0  0  0  0
  -30.0561  -13.2431   20.4658 N   0  0  0  0  0  0
  -26.3112  -12.9316   20.3466 N   0  0  0  0  0  0
  -25.9360  -11.6469   20.5804 N   0  0  0  0  0  0
  -22.0540  -12.8271   22.0377 N   0  0  0  0  0  0
  -25.4488  -15.1859   20.4202 N   0  0  0  0  0  0
  -31.7525  -14.7188   20.0574 O   0  0  0  0  0  0
  -21.6641   -6.8884   21.4249 O   0  0  0  0  0  0
  -22.3622  -14.5589   20.6696 O   0  0  0  0  0  0
  -24.6113  -31.8682   23.2132 C   0  0  0  0  0  0
  -25.9014  -32.4830   23.8422 C   0  0  1  0  0  0
  -27.2359  -27.4622   20.0943 C   0  0  0  0  0  0
  -25.5888  -33.8641   24.2349 N   0  0  0  0  0  0
  -23.3988  -30.4925   21.5511 C   0  0  2  0  0  0
  -24.8486  -28.9664   20.1099 C   0  0  0  0  0  0
  -22.7402  -29.4653   22.4985 C   0  0  0  0  0  0
  -18.0302  -28.1365   22.8484 C   0  0  0  0  0  0
  -24.1485  -36.7319   23.2642 C   0  0  0  0  0  0
  -25.9258  -30.8463   21.3612 C   0  0  0  0  0  0
  -26.0072  -29.4836   20.7064 C   0  0  0  0  0  0
  -27.2069  -28.7376   20.6960 C   0  0  0  0  0  0
  -26.0671  -26.9548   19.4913 C   0  0  0  0  0  0
  -24.8727  -27.6993   19.4999 C   0  0  0  0  0  0
  -23.6068  -29.8267   20.1640 C   0  0  0  0  0  0
  -25.4105  -36.3120   24.0336 C   0  0  1  0  0  0
  -20.5881  -28.3667   23.1351 C   0  0  2  0  0  0
  -20.6782  -26.9390   22.5486 C   0  0  0  0  0  0
  -19.5810  -26.6413   21.5215 C   0  0  0  0  0  0
  -18.1958  -26.7929   22.1574 C   0  0  0  0  0  0
  -19.1528  -28.8830   23.2927 C   0  0  0  0  0  0
  -18.9447  -30.1444   23.8932 C   0  0  0  0  0  0
  -17.6446  -30.6582   24.0567 C   0  0  0  0  0  0
  -25.9025  -34.9479   23.5125 C   0  0  0  0  0  0
  -16.5349  -29.9068   23.6325 C   0  0  0  0  0  0
  -16.7278  -28.6485   23.0355 C   0  0  0  0  0  0
  -26.4450  -31.6609   25.0734 C   0  0  0  0  0  0
  -25.3735  -31.3710   26.1505 C   0  0  0  0  0  0
  -27.0285  -30.3057   24.6095 C   0  0  0  0  0  0
  -27.6027  -32.4317   25.7496 C   0  0  0  0  0  0
  -27.5573  -37.1818   24.8461 C   0  0  0  0  0  0
  -21.4134  -29.3005   22.3715 N   0  0  0  0  0  0
  -26.4298  -37.3792   23.9394 N   0  0  0  0  0  0
  -24.6627  -31.0835   22.1005 N   0  0  0  0  0  0
  -23.4198  -28.8193   23.3013 O   0  0  0  0  0  0
  -28.3729  -26.6923   20.1115 O   0  0  0  0  0  0
  -26.5593  -34.8919   22.4691 O   0  0  0  0  0  0
  -23.5303  -32.1417   23.7538 O   0  0  0  0  0  0
  -28.5960  -18.5390   22.3620 C   0  0  0  0  0  0
  -30.2806  -17.4697   20.3961 C   0  0  0  0  0  0
  -29.0096  -19.3685   21.2975 C   0  0  0  0  0  0
  -29.0004  -17.1920   22.4502 C   0  0  0  0  0  0
  -29.8880  -18.8319   20.3148 C   0  0  0  0  0  0
  -29.8330  -16.6324   21.4516 C   0  0  0  0  0  0
  -28.4274  -20.7239   21.2650 C   0  0  0  0  0  0
  -28.5005  -16.3558   23.6186 C   0  0  0  0  0  0
  -30.3876  -19.6636   19.1417 C   0  0  0  0  0  0
  -28.9308  -24.3172   20.6193 C   0  0  0  0  0  0
  -28.6999  -23.2080   21.6714 C   0  0  0  0  0  0
  -28.3082  -25.6499   21.0941 C   0  0  0  0  0  0
  -27.1012  -20.8243   21.2626 N   0  0  0  0  0  0
  -30.1226  -15.2377   21.5401 N   0  0  0  0  0  0
  -29.1672  -21.8491   21.2881 N   0  3  0  0  0  0
  -31.4724  -12.4481   19.0738 H   0  0  0  0  0  0
  -30.3745  -11.2824   19.7482 H   0  0  0  0  0  0
  -29.7190  -11.8197   17.4002 H   0  0  0  0  0  0
  -29.6571  -13.5211   17.7718 H   0  0  0  0  0  0
  -27.8080  -11.3369   18.7779 H   0  0  0  0  0  0
  -27.3629  -12.7067   17.7961 H   0  0  0  0  0  0
  -27.7391  -14.2604   19.6370 H   0  0  0  0  0  0
  -28.6901  -11.8640   21.2772 H   0  0  0  0  0  0
  -28.4631  -13.4540   21.9130 H   0  0  0  0  0  0
  -25.2764   -9.5675   22.4772 H   0  0  0  0  0  0
  -24.0001   -7.4628   22.7471 H   0  0  0  0  0  0
  -21.0848   -8.8787   19.8962 H   0  0  0  0  0  0
  -22.3703  -10.9695   19.6180 H   0  0  0  0  0  0
  -21.1982   -7.6147   23.9718 H   0  0  0  0  0  0
  -21.1490   -6.0532   25.9087 H   0  0  0  0  0  0
  -22.0597   -2.7614   23.2856 H   0  0  0  0  0  0
  -22.4137  -11.9914   22.4729 H   0  0  0  0  0  0
  -21.1186  -13.1334   22.2594 H   0  0  0  0  0  0
  -24.7011  -15.8572   20.5550 H   0  0  0  0  0  0
  -26.3191  -15.6159   20.1319 H   0  0  0  0  0  0
  -26.7095  -32.5553   23.1202 H   0  0  0  0  0  0
  -25.0045  -33.9814   25.0496 H   0  0  0  0  0  0
  -22.6867  -31.3087   21.4143 H   0  0  0  0  0  0
  -23.3734  -35.9664   23.3324 H   0  0  0  0  0  0
  -24.3586  -36.8913   22.2052 H   0  0  0  0  0  0
  -23.7255  -37.6536   23.6646 H   0  0  0  0  0  0
  -26.0389  -31.6190   20.5995 H   0  0  0  0  0  0
  -26.8151  -30.8987   21.9793 H   0  0  0  0  0  0
  -28.1011  -29.1314   21.1595 H   0  0  0  0  0  0
  -26.0803  -25.9798   19.0262 H   0  0  0  0  0  0
  -23.9824  -27.2966   19.0384 H   0  0  0  0  0  0
  -23.7056  -30.6044   19.4054 H   0  0  0  0  0  0
  -22.7321  -29.2430   19.8692 H   0  0  0  0  0  0
  -25.1284  -36.1984   25.0832 H   0  0  0  0  0  0
  -20.9976  -28.3252   24.1468 H   0  0  0  0  0  0
  -20.5617  -26.2271   23.3668 H   0  0  0  0  0  0
  -21.6680  -26.7381   22.1357 H   0  0  0  0  0  0
  -19.6995  -25.6347   21.1183 H   0  0  0  0  0  0
  -19.6795  -27.3279   20.6783 H   0  0  0  0  0  0
  -17.4276  -26.6737   21.3920 H   0  0  0  0  0  0
  -18.0323  -26.0034   22.8925 H   0  0  0  0  0  0
  -19.7922  -30.7245   24.2326 H   0  0  0  0  0  0
  -17.4985  -31.6268   24.5127 H   0  0  0  0  0  0
  -15.5332  -30.2971   23.7621 H   0  0  0  0  0  0
  -15.8686  -28.0802   22.7053 H   0  0  0  0  0  0
  -24.5875  -30.7098   25.7850 H   0  0  0  0  0  0
  -24.8972  -32.2871   26.5002 H   0  0  0  0  0  0
  -25.8093  -30.8836   27.0235 H   0  0  0  0  0  0
  -26.2837  -29.6837   24.1122 H   0  0  0  0  0  0
  -27.4050  -29.7266   25.4538 H   0  0  0  0  0  0
  -27.8666  -30.4400   23.9253 H   0  0  0  0  0  0
  -27.2655  -33.3597   26.2124 H   0  0  0  0  0  0
  -28.3816  -32.6916   25.0318 H   0  0  0  0  0  0
  -28.0735  -31.8425   26.5375 H   0  0  0  0  0  0
  -28.2603  -38.0104   24.7485 H   0  0  0  0  0  0
  -28.1055  -36.2628   24.6309 H   0  0  0  0  0  0
  -27.2289  -37.1493   25.8869 H   0  0  0  0  0  0
  -20.9279  -29.8695   21.6913 H   0  0  0  0  0  0
  -26.0173  -38.2867   24.1399 H   0  0  0  0  0  0
  -27.9451  -18.9487   23.1251 H   0  0  0  0  0  0
  -30.9107  -17.0625   19.6190 H   0  0  0  0  0  0
  -28.0202  -16.9778   24.3747 H   0  0  0  0  0  0
  -29.3231  -15.8337   24.1086 H   0  0  0  0  0  0
  -27.7697  -15.6202   23.2814 H   0  0  0  0  0  0
  -30.8535  -19.0333   18.3834 H   0  0  0  0  0  0
  -31.1339  -20.3891   19.4690 H   0  0  0  0  0  0
  -29.5724  -20.1998   18.6550 H   0  0  0  0  0  0
  -28.4918  -24.0281   19.6637 H   0  0  0  0  0  0
  -29.9990  -24.4549   20.4479 H   0  0  0  0  0  0
  -27.6396  -23.1876   21.9268 H   0  0  0  0  0  0
  -29.2078  -23.4849   22.5967 H   0  0  0  0  0  0
  -28.8247  -25.9969   21.9899 H   0  0  0  0  0  0
  -27.2772  -25.4570   21.4026 H   0  0  0  0  0  0
  -26.5569  -19.9757   21.2365 H   0  0  0  0  0  0
  -26.6284  -21.6990   21.1106 H   0  0  0  0  0  0
  -29.5082  -14.7384   22.1648 H   0  0  0  0  0  0
  -30.1704  -21.7126   21.2520 H   0  0  0  0  0  0
  1 25  1  0  0  0
  1 30  2  0  0  0
  1 84  1  0  0  0
  2  3  1  0  0  0
  2 25  1  0  0  0
  2 86  1  0  0  0
  2 87  1  0  0  0
  3  4  1  0  0  0
  3 88  1  0  0  0
  3 89  1  0  0  0
  4  5  1  0  0  0
  4 90  1  0  0  0
  4 91  1  0  0  0
  5  6  1  0  0  0
  5 26  1  0  0  0
  5 92  1  0  0  0
  6 25  1  0  0  0
  6 93  1  0  0  0
  6 94  1  0  0  0
  7  8  2  0  0  0
  7 26  1  0  0  0
  7 29  1  0  0  0
  8  9  1  0  0  0
  8 22  1  0  0  0
  9 10  1  0  0  0
  9 27  2  0  0  0
 10 11  2  0  0  0
 10 15  1  0  0  0
 11 12  1  0  0  0
 11 95  1  0  0  0
 12 13  2  0  0  0
 12 96  1  0  0  0
 13 14  1  0  0  0
 13 31  1  0  0  0
 14 15  2  0  0  0
 14 97  1  0  0  0
 15 98  1  0  0  0
 16 17  2  0  0  0
 16 21  1  0  0  0
 16 31  1  0  0  0
 17 18  1  0  0  0
 17 99  1  0  0  0
 18 19  2  0  0  0
 18100  1  0  0  0
 19 20  1  0  0  0
 19 24  1  0  0  0
 20 21  2  0  0  0
 20101  1  0  0  0
 21 23  1  0  0  0
 22 28  1  0  0  0
 22 32  2  0  0  0
 26 27  1  0  0  0
 28102  1  0  0  0
 28103  1  0  0  0
 29104  1  0  0  0
 29105  1  0  0  0
 33 34  1  0  0  0
 33 66  1  0  0  0
 33 70  2  0  0  0
 34 36  1  0  0  0
 34 59  1  0  0  0
 34106  1  0  0  0
 35 44  2  0  0  0
 35 45  1  0  0  0
 35 68  1  0  0  0
 36 56  1  0  0  0
 36107  1  0  0  0
 37 39  1  0  0  0
 37 47  1  0  0  0
 37 66  1  0  0  0
 37108  1  0  0  0
 38 43  2  0  0  0
 38 46  1  0  0  0
 38 47  1  0  0  0
 39 64  1  0  0  0
 39 67  2  0  0  0
 40 52  1  0  0  0
 40 53  2  0  0  0
 40 58  1  0  0  0
 41109  1  0  0  0
 41110  1  0  0  0
 41111  1  0  0  0
 41 48  1  0  0  0
 42 43  1  0  0  0
 42 66  1  0  0  0
 42112  1  0  0  0
 42113  1  0  0  0
 43 44  1  0  0  0
 44114  1  0  0  0
 45 46  2  0  0  0
 45115  1  0  0  0
 46116  1  0  0  0
 47117  1  0  0  0
 47118  1  0  0  0
 48 56  1  0  0  0
 48 65  1  0  0  0
 48119  1  0  0  0
 49 50  1  0  0  0
 49 53  1  0  0  0
 49 64  1  0  0  0
 49120  1  0  0  0
 50 51  1  0  0  0
 50121  1  0  0  0
 50122  1  0  0  0
 51 52  1  0  0  0
 51123  1  0  0  0
 51124  1  0  0  0
 52125  1  0  0  0
 52126  1  0  0  0
 53 54  1  0  0  0
 54 55  2  0  0  0
 54127  1  0  0  0
 55 57  1  0  0  0
 55128  1  0  0  0
 56 69  2  0  0  0
 57 58  2  0  0  0
 57129  1  0  0  0
 58130  1  0  0  0
 59 60  1  0  0  0
 59 61  1  0  0  0
 59 62  1  0  0  0
 60131  1  0  0  0
 60132  1  0  0  0
 60133  1  0  0  0
 61134  1  0  0  0
 61135  1  0  0  0
 61136  1  0  0  0
 62137  1  0  0  0
 62138  1  0  0  0
 62139  1  0  0  0
 63 65  1  0  0  0
 63140  1  0  0  0
 63141  1  0  0  0
 63142  1  0  0  0
 64143  1  0  0  0
 65144  1  0  0  0
 68 82  1  0  0  0
 71 73  2  0  0  0
 71 74  1  0  0  0
 71145  1  0  0  0
 72 75  2  0  0  0
 72 76  1  0  0  0
 72146  1  0  0  0
 73 75  1  0  0  0
 73 77  1  0  0  0
 74 76  2  0  0  0
 74 78  1  0  0  0
 75 79  1  0  0  0
 76 84  1  0  0  0
 77 83  1  0  0  0
 77 85  2  0  0  0
 78147  1  0  0  0
 78148  1  0  0  0
 78149  1  0  0  0
 79150  1  0  0  0
 79151  1  0  0  0
 79152  1  0  0  0
 80 81  1  0  0  0
 80 82  1  0  0  0
 80153  1  0  0  0
 80154  1  0  0  0
 81 85  1  0  0  0
 81155  1  0  0  0
 81156  1  0  0  0
 82157  1  0  0  0
 82158  1  0  0  0
 83159  1  0  0  0
 83160  1  0  0  0
 84161  1  0  0  0
 85162  1  0  0  0
M  CHG  1  85   1
M  ISO  4   1 100  68 101  82 101  84 100
M  END
> <chiral flag>
0

> <version>
0

> <s_m_source_file>
/data/baiqing/PycharmProjects/Reinvent-master-3.2/result/LINK_invent/BTK/process_docking_weight1_custom_product_contain_oxygen_bond_distance_aromatic_linkinvent_7_9_3/rearranged_h_0043.sdf

> <i_m_source_file_index>
68

> <r_mmod_Potential_Energy-OPLS-2005>
-207.400588989258

> <r_mmod_Stretch_Energy-OPLS-2005>
37.5108451843262

> <r_mmod_Bend_Energy-OPLS-2005>
101.452201843262

> <r_mmod_Torsional_Energy-OPLS-2005>
257.962463378906

> <r_mmod_Improper_Torsional_Energy-OPLS-2005>
4.99117040634155

> <r_mmod_Van_der_Waal_Energy-OPLS-2005>
156.262969970703

> <r_mmod_Electrostatic_Energy-OPLS-2005>
-371.459716796875

> <r_mmod_Solvation_Energy-OPLS-2005>
-403.478820800781

> <b_mmod_Minimization_Converged-OPLS-2005>
0

> <r_mmod_RMS_Derivative-OPLS-2005>
3.47488451004028

$$$$
68
                    3D
 Structure written by MMmdl.
164173  0  0  1  0            999 V2000
  -30.5999  -14.7650   20.3708 C   0  0  0  0  0  0
  -30.4292  -12.4399   19.4667 C   0  0  0  0  0  0
  -29.5044  -12.4340   18.2307 C   0  0  0  0  0  0
  -28.0218  -12.3148   18.6495 C   0  0  0  0  0  0
  -27.6320  -13.2215   19.8509 C   0  0  2  0  0  0
  -28.6916  -13.1821   20.9702 C   0  0  0  0  0  0
  -25.2499  -13.8157   20.5774 C   0  0  0  0  0  0
  -24.1763  -13.0411   20.9243 C   0  0  0  0  0  0
  -24.6350  -11.6896   20.8771 C   0  0  0  0  0  0
  -23.9032  -10.4275   21.0410 C   0  0  0  0  0  0
  -24.3590   -9.4192   21.9182 C   0  0  0  0  0  0
  -23.6277   -8.2220   22.0737 C   0  0  0  0  0  0
  -22.4274   -8.0247   21.3518 C   0  0  0  0  0  0
  -21.9899   -9.0219   20.4625 C   0  0  0  0  0  0
  -22.7210  -10.2111   20.3046 C   0  0  0  0  0  0
  -21.6849   -6.0723   22.5269 C   0  0  0  0  0  0
  -21.4018   -6.5624   23.8207 C   0  0  0  0  0  0
  -21.3652   -5.6777   24.9171 C   0  0  0  0  0  0
  -21.6038   -4.3038   24.7224 C   0  0  0  0  0  0
  -21.8818   -3.8130   23.4348 C   0  0  0  0  0  0
  -21.9199   -4.6951   22.3405 C   0  0  0  0  0  0
  -22.7785  -13.5208   21.1866 C   0  0  0  0  0  0
  -22.1666   -4.2129   21.0983 F   0  0  0  0  0  0
  -21.5627   -3.4532   25.7740 F   0  0  0  0  0  0
  -29.9737  -13.5355   20.3495 N   0  0  0  0  0  0
  -26.2898  -12.9333   20.3380 N   0  0  0  0  0  0
  -25.9283  -11.6490   20.5856 N   0  0  0  0  0  0
  -22.0436  -12.8192   22.0428 N   0  0  0  0  0  0
  -25.4228  -15.1878   20.4206 N   0  0  0  0  0  0
  -31.8275  -14.8143   20.2507 O   0  0  0  0  0  0
  -21.6626   -6.8857   21.4222 O   0  0  0  0  0  0
  -22.3472  -14.5506   20.6700 O   0  0  0  0  0  0
  -24.6295  -31.8564   23.1988 C   0  0  0  0  0  0
  -25.9145  -32.4753   23.8313 C   0  0  1  0  0  0
  -27.2250  -27.2779   20.1382 C   0  0  0  0  0  0
  -25.5943  -33.8550   24.2247 N   0  0  0  0  0  0
  -23.4232  -30.4782   21.5421 C   0  0  2  0  0  0
  -24.8699  -28.9142   20.1217 C   0  0  0  0  0  0
  -22.7477  -29.4631   22.4936 C   0  0  0  0  0  0
  -18.0297  -28.1365   22.8492 C   0  0  0  0  0  0
  -24.1501  -36.7285   23.2638 C   0  0  0  0  0  0
  -25.9655  -30.7748   21.3725 C   0  0  0  0  0  0
  -26.0410  -29.3942   20.7229 C   0  0  0  0  0  0
  -27.2236  -28.5909   20.7136 C   0  0  0  0  0  0
  -26.0300  -26.8457   19.5282 C   0  0  0  0  0  0
  -24.8670  -27.6452   19.5169 C   0  0  0  0  0  0
  -23.6401  -29.8034   20.1613 C   0  0  0  0  0  0
  -25.4132  -36.3069   24.0319 C   0  0  1  0  0  0
  -20.5895  -28.3712   23.1292 C   0  0  2  0  0  0
  -20.6814  -26.9446   22.5408 C   0  0  0  0  0  0
  -19.5799  -26.6392   21.5217 C   0  0  0  0  0  0
  -18.1959  -26.7925   22.1600 C   0  0  0  0  0  0
  -19.1541  -28.8859   23.2872 C   0  0  0  0  0  0
  -18.9445  -30.1472   23.8865 C   0  0  0  0  0  0
  -17.6444  -30.6590   24.0511 C   0  0  0  0  0  0
  -25.9076  -34.9435   23.5086 C   0  0  0  0  0  0
  -16.5345  -29.9052   23.6314 C   0  0  0  0  0  0
  -16.7280  -28.6449   23.0379 C   0  0  0  0  0  0
  -26.4514  -31.6565   25.0692 C   0  0  0  0  0  0
  -25.3744  -31.3707   26.1415 C   0  0  0  0  0  0
  -27.0374  -30.2982   24.6174 C   0  0  0  0  0  0
  -27.6064  -32.4296   25.7484 C   0  0  0  0  0  0
  -27.5586  -37.1800   24.8465 C   0  0  0  0  0  0
  -21.4180  -29.3086   22.3686 N   0  0  0  0  0  0
  -26.4305  -37.3766   23.9403 N   0  0  0  0  0  0
  -24.6914  -31.0535   22.0953 N   0  0  0  0  0  0
  -23.4189  -28.8165   23.3019 O   0  0  0  0  0  0
  -28.3528  -26.4371   20.0802 O   0  0  0  0  0  0
  -26.5643  -34.8903   22.4658 O   0  0  0  0  0  0
  -23.5460  -32.1397   23.7304 O   0  0  0  0  0  0
  -28.1935  -19.3708   21.9094 C   0  0  0  0  0  0
  -28.7715  -16.9828   21.8655 C   0  0  0  0  0  0
  -29.0240  -19.6841   20.8032 C   0  0  0  0  0  0
  -29.7045  -18.5244   20.2163 C   0  0  0  0  0  0
  -29.5212  -17.1396   20.6858 C   0  0  0  0  0  0
  -28.1166  -18.0755   22.4590 C   0  0  0  0  0  0
  -28.7101  -23.7598   20.1058 C   0  0  0  0  0  0
  -27.9395  -23.8434   22.8996 C   0  0  0  0  0  0
  -27.4633  -24.9984   22.0156 C   0  0  0  0  0  0
  -28.0513  -22.5056   22.1395 C   0  0  0  0  0  0
  -28.4484  -25.1582   20.8587 C   0  0  2  0  0  0
  -30.6838  -18.8014   19.0808 C   0  0  0  0  0  0
  -29.6554  -15.9450   18.4941 C   0  0  0  0  0  0
  -29.1566  -21.1912   20.2073 C   0  0  0  0  0  0
  -28.6439  -22.5367   20.7899 N   0  0  0  0  0  0
  -29.8580  -15.8817   19.9539 N   0  0  0  0  0  0
  -29.0571  -23.8013   18.9216 O   0  0  0  0  0  0
  -27.1556  -17.8113   23.8679 Cl  0  0  0  0  0  0
  -31.4706  -12.5594   19.1614 H   0  0  0  0  0  0
  -30.3752  -11.4809   19.9841 H   0  0  0  0  0  0
  -29.7676  -11.6064   17.5698 H   0  0  0  0  0  0
  -29.6647  -13.3272   17.6319 H   0  0  0  0  0  0
  -27.8516  -11.2723   18.9190 H   0  0  0  0  0  0
  -27.3704  -12.5135   17.7986 H   0  0  0  0  0  0
  -27.5988  -14.2408   19.4783 H   0  0  0  0  0  0
  -28.7378  -12.1950   21.4349 H   0  0  0  0  0  0
  -28.4394  -13.8813   21.7655 H   0  0  0  0  0  0
  -25.2719   -9.5692   22.4774 H   0  0  0  0  0  0
  -23.9979   -7.4621   22.7458 H   0  0  0  0  0  0
  -21.0828   -8.8723   19.8939 H   0  0  0  0  0  0
  -22.3639  -10.9649   19.6172 H   0  0  0  0  0  0
  -21.2010   -7.6134   23.9702 H   0  0  0  0  0  0
  -21.1481   -6.0515   25.9072 H   0  0  0  0  0  0
  -22.0618   -2.7589   23.2856 H   0  0  0  0  0  0
  -22.4072  -11.9866   22.4819 H   0  0  0  0  0  0
  -21.1044  -13.1184   22.2632 H   0  0  0  0  0  0
  -24.6637  -15.8481   20.5442 H   0  0  0  0  0  0
  -26.2851  -15.6225   20.1194 H   0  0  0  0  0  0
  -26.7201  -32.5417   23.1046 H   0  0  0  0  0  0
  -25.0054  -33.9667   25.0364 H   0  0  0  0  0  0
  -22.7194  -31.2999   21.3961 H   0  0  0  0  0  0
  -23.3760  -35.9623   23.3312 H   0  0  0  0  0  0
  -24.3581  -36.8902   22.2051 H   0  0  0  0  0  0
  -23.7255  -37.6481   23.6666 H   0  0  0  0  0  0
  -26.1003  -31.5353   20.6021 H   0  0  0  0  0  0
  -26.8430  -30.8254   22.0046 H   0  0  0  0  0  0
  -28.1275  -28.9637   21.1721 H   0  0  0  0  0  0
  -25.9952  -25.8701   19.0644 H   0  0  0  0  0  0
  -23.9664  -27.2697   19.0519 H   0  0  0  0  0  0
  -23.7636  -30.5774   19.4023 H   0  0  0  0  0  0
  -22.7574  -29.2362   19.8586 H   0  0  0  0  0  0
  -25.1317  -36.1913   25.0808 H   0  0  0  0  0  0
  -20.9976  -28.3264   24.1418 H   0  0  0  0  0  0
  -20.5768  -26.2316   23.3599 H   0  0  0  0  0  0
  -21.6681  -26.7537   22.1167 H   0  0  0  0  0  0
  -19.6969  -25.6300   21.1260 H   0  0  0  0  0  0
  -19.6753  -27.3197   20.6751 H   0  0  0  0  0  0
  -18.0288  -26.0025   22.8945 H   0  0  0  0  0  0
  -17.4277  -26.6701   21.3957 H   0  0  0  0  0  0
  -19.7896  -30.7338   24.2207 H   0  0  0  0  0  0
  -17.4996  -31.6299   24.5051 H   0  0  0  0  0  0
  -15.5339  -30.2940   23.7631 H   0  0  0  0  0  0
  -15.8694  -28.0723   22.7125 H   0  0  0  0  0  0
  -24.5926  -30.7047   25.7729 H   0  0  0  0  0  0
  -24.8941  -32.2884   26.4822 H   0  0  0  0  0  0
  -25.8067  -30.8887   27.0193 H   0  0  0  0  0  0
  -26.2953  -29.6703   24.1221 H   0  0  0  0  0  0
  -27.4083  -29.7256   25.4682 H   0  0  0  0  0  0
  -27.8814  -30.4250   23.9390 H   0  0  0  0  0  0
  -27.2667  -33.3591   26.2059 H   0  0  0  0  0  0
  -28.3891  -32.6856   25.0331 H   0  0  0  0  0  0
  -28.0712  -31.8416   26.5406 H   0  0  0  0  0  0
  -28.2605  -38.0093   24.7507 H   0  0  0  0  0  0
  -28.1073  -36.2619   24.6311 H   0  0  0  0  0  0
  -27.2288  -37.1467   25.8859 H   0  0  0  0  0  0
  -20.9336  -29.8783   21.6902 H   0  0  0  0  0  0
  -26.0185  -38.2837   24.1394 H   0  0  0  0  0  0
  -27.5760  -20.0994   22.3961 H   0  0  0  0  0  0
  -28.6228  -16.0049   22.2945 H   0  0  0  0  0  0
  -27.2683  -23.7256   23.7515 H   0  0  0  0  0  0
  -28.9142  -24.0934   23.3201 H   0  0  0  0  0  0
  -27.4368  -25.9135   22.6055 H   0  0  0  0  0  0
  -26.4522  -24.8222   21.6469 H   0  0  0  0  0  0
  -27.0446  -22.0991   22.0440 H   0  0  0  0  0  0
  -28.6485  -21.8465   22.7675 H   0  0  0  0  0  0
  -29.4136  -25.3173   21.3434 H   0  0  0  0  0  0
  -31.3658  -19.6110   19.3393 H   0  0  0  0  0  0
  -30.1597  -19.0730   18.1639 H   0  0  0  0  0  0
  -31.3215  -17.9432   18.8745 H   0  0  0  0  0  0
  -28.8977  -15.2426   18.1668 H   0  0  0  0  0  0
  -29.2735  -16.9045   18.1562 H   0  0  0  0  0  0
  -30.5694  -15.7330   17.9361 H   0  0  0  0  0  0
  -28.7686  -21.1325   19.1894 H   0  0  0  0  0  0
  -30.2254  -21.3598   20.0875 H   0  0  0  0  0  0
  1 25  1  0  0  0
  1 30  2  0  0  0
  1 86  1  0  0  0
  2  3  1  0  0  0
  2 25  1  0  0  0
  2 89  1  0  0  0
  2 90  1  0  0  0
  3  4  1  0  0  0
  3 91  1  0  0  0
  3 92  1  0  0  0
  4  5  1  0  0  0
  4 93  1  0  0  0
  4 94  1  0  0  0
  5  6  1  0  0  0
  5 26  1  0  0  0
  5 95  1  0  0  0
  6 25  1  0  0  0
  6 96  1  0  0  0
  6 97  1  0  0  0
  7  8  2  0  0  0
  7 26  1  0  0  0
  7 29  1  0  0  0
  8  9  1  0  0  0
  8 22  1  0  0  0
  9 10  1  0  0  0
  9 27  2  0  0  0
 10 11  2  0  0  0
 10 15  1  0  0  0
 11 12  1  0  0  0
 11 98  1  0  0  0
 12 13  2  0  0  0
 12 99  1  0  0  0
 13 14  1  0  0  0
 13 31  1  0  0  0
 14 15  2  0  0  0
 14100  1  0  0  0
 15101  1  0  0  0
 16 17  2  0  0  0
 16 21  1  0  0  0
 16 31  1  0  0  0
 17 18  1  0  0  0
 17102  1  0  0  0
 18 19  2  0  0  0
 18103  1  0  0  0
 19 20  1  0  0  0
 19 24  1  0  0  0
 20 21  2  0  0  0
 20104  1  0  0  0
 21 23  1  0  0  0
 22 28  1  0  0  0
 22 32  2  0  0  0
 26 27  1  0  0  0
 28105  1  0  0  0
 28106  1  0  0  0
 29107  1  0  0  0
 29108  1  0  0  0
 33 34  1  0  0  0
 33 66  1  0  0  0
 33 70  2  0  0  0
 34 36  1  0  0  0
 34 59  1  0  0  0
 34109  1  0  0  0
 35 44  2  0  0  0
 35 45  1  0  0  0
 35 68  1  0  0  0
 36 56  1  0  0  0
 36110  1  0  0  0
 37 39  1  0  0  0
 37 47  1  0  0  0
 37 66  1  0  0  0
 37111  1  0  0  0
 38 43  2  0  0  0
 38 46  1  0  0  0
 38 47  1  0  0  0
 39 64  1  0  0  0
 39 67  2  0  0  0
 40 52  1  0  0  0
 40 53  2  0  0  0
 40 58  1  0  0  0
 41112  1  0  0  0
 41113  1  0  0  0
 41114  1  0  0  0
 41 48  1  0  0  0
 42 43  1  0  0  0
 42 66  1  0  0  0
 42115  1  0  0  0
 42116  1  0  0  0
 43 44  1  0  0  0
 44117  1  0  0  0
 45 46  2  0  0  0
 45118  1  0  0  0
 46119  1  0  0  0
 47120  1  0  0  0
 47121  1  0  0  0
 48 56  1  0  0  0
 48 65  1  0  0  0
 48122  1  0  0  0
 49 50  1  0  0  0
 49 53  1  0  0  0
 49 64  1  0  0  0
 49123  1  0  0  0
 50 51  1  0  0  0
 50124  1  0  0  0
 50125  1  0  0  0
 51 52  1  0  0  0
 51126  1  0  0  0
 51127  1  0  0  0
 52128  1  0  0  0
 52129  1  0  0  0
 53 54  1  0  0  0
 54 55  2  0  0  0
 54130  1  0  0  0
 55 57  1  0  0  0
 55131  1  0  0  0
 56 69  2  0  0  0
 57 58  2  0  0  0
 57132  1  0  0  0
 58133  1  0  0  0
 59 60  1  0  0  0
 59 61  1  0  0  0
 59 62  1  0  0  0
 60134  1  0  0  0
 60135  1  0  0  0
 60136  1  0  0  0
 61137  1  0  0  0
 61138  1  0  0  0
 61139  1  0  0  0
 62140  1  0  0  0
 62141  1  0  0  0
 62142  1  0  0  0
 63 65  1  0  0  0
 63143  1  0  0  0
 63144  1  0  0  0
 63145  1  0  0  0
 64146  1  0  0  0
 65147  1  0  0  0
 68 81  1  0  0  0
 71 73  2  0  0  0
 71 76  1  0  0  0
 71148  1  0  0  0
 72 75  1  0  0  0
 72 76  2  0  0  0
 72149  1  0  0  0
 73 74  1  0  0  0
 73 84  1  0  0  0
 74 75  2  0  0  0
 74 82  1  0  0  0
 75 86  1  0  0  0
 76 88  1  0  0  0
 77 81  1  0  0  0
 77 85  1  0  0  0
 77 87  2  0  0  0
 78 79  1  0  0  0
 78 80  1  0  0  0
 78150  1  0  0  0
 78151  1  0  0  0
 79 81  1  0  0  0
 79152  1  0  0  0
 79153  1  0  0  0
 80 85  1  0  0  0
 80154  1  0  0  0
 80155  1  0  0  0
 81156  1  0  0  0
 82157  1  0  0  0
 82158  1  0  0  0
 82159  1  0  0  0
 83 86  1  0  0  0
 83160  1  0  0  0
 83161  1  0  0  0
 83162  1  0  0  0
 84 85  1  0  0  0
 84163  1  0  0  0
 84164  1  0  0  0
M  ISO  4   1 100  68 101  81 101  86 100
M  END
> <chiral flag>
0

> <version>
0

> <s_m_source_file>
/data/baiqing/PycharmProjects/Reinvent-master-3.2/result/LINK_invent/BTK/process_docking_weight1_custom_product_contain_oxygen_bond_distance_aromatic_linkinvent_7_9_3/rearranged_h_0043.sdf

> <i_m_source_file_index>
69

> <r_mmod_Potential_Energy-OPLS-2005>
499.225952148438

> <r_mmod_Stretch_Energy-OPLS-2005>
149.466934204102

> <r_mmod_Bend_Energy-OPLS-2005>
211.045608520508

> <r_mmod_Torsional_Energy-OPLS-2005>
369.166870117188

> <r_mmod_Improper_Torsional_Energy-OPLS-2005>
21.6272029876709

> <r_mmod_Van_der_Waal_Energy-OPLS-2005>
152.283554077148

> <r_mmod_Electrostatic_Energy-OPLS-2005>
-273.079620361328

> <r_mmod_Solvation_Energy-OPLS-2005>
-219.338027954102

> <b_mmod_Minimization_Converged-OPLS-2005>
0

> <r_mmod_RMS_Derivative-OPLS-2005>
2.85143375396729

$$$$
69
                    3D
 Structure written by MMmdl.
153161  0  0  1  0            999 V2000
  -30.6240  -14.8297   20.3862 C   0  0  0  0  0  0
  -30.4280  -12.5186   19.4283 C   0  0  0  0  0  0
  -29.4890  -12.4259   18.2079 C   0  0  0  0  0  0
  -28.0123  -12.3130   18.6441 C   0  0  0  0  0  0
  -27.6202  -13.2248   19.8407 C   0  0  2  0  0  0
  -28.6927  -13.2468   20.9451 C   0  0  0  0  0  0
  -25.2500  -13.8176   20.5900 C   0  0  0  0  0  0
  -24.1762  -13.0420   20.9297 C   0  0  0  0  0  0
  -24.6349  -11.6899   20.8833 C   0  0  0  0  0  0
  -23.9024  -10.4280   21.0443 C   0  0  0  0  0  0
  -24.3595   -9.4206   21.9213 C   0  0  0  0  0  0
  -23.6288   -8.2229   22.0760 C   0  0  0  0  0  0
  -22.4282   -8.0263   21.3530 C   0  0  0  0  0  0
  -21.9900   -9.0238   20.4645 C   0  0  0  0  0  0
  -22.7207  -10.2129   20.3072 C   0  0  0  0  0  0
  -21.6859   -6.0731   22.5266 C   0  0  0  0  0  0
  -21.4000   -6.5621   23.8200 C   0  0  0  0  0  0
  -21.3664   -5.6777   24.9158 C   0  0  0  0  0  0
  -21.6049   -4.3040   24.7226 C   0  0  0  0  0  0
  -21.8823   -3.8140   23.4341 C   0  0  0  0  0  0
  -21.9205   -4.6955   22.3398 C   0  0  0  0  0  0
  -22.7784  -13.5240   21.1884 C   0  0  0  0  0  0
  -22.1677   -4.2127   21.0985 F   0  0  0  0  0  0
  -21.5652   -3.4536   25.7753 F   0  0  0  0  0  0
  -29.9516  -13.6252   20.2947 N   0  0  0  0  0  0
  -26.2881  -12.9326   20.3453 N   0  0  0  0  0  0
  -25.9286  -11.6479   20.5891 N   0  0  0  0  0  0
  -22.0404  -12.8225   22.0417 N   0  0  0  0  0  0
  -25.4190  -15.1903   20.4429 N   0  0  0  0  0  0
  -31.8409  -14.8313   20.1895 O   0  0  0  0  0  0
  -21.6635   -6.8864   21.4229 O   0  0  0  0  0  0
  -22.3468  -14.5552   20.6726 O   0  0  0  0  0  0
  -24.6336  -31.8526   23.1972 C   0  0  0  0  0  0
  -25.9150  -32.4736   23.8326 C   0  0  1  0  0  0
  -27.2138  -27.2246   20.1349 C   0  0  0  0  0  0
  -25.5952  -33.8538   24.2228 N   0  0  0  0  0  0
  -23.4352  -30.4732   21.5394 C   0  0  2  0  0  0
  -24.8795  -28.9093   20.1157 C   0  0  0  0  0  0
  -22.7497  -29.4617   22.4900 C   0  0  0  0  0  0
  -18.0313  -28.1351   22.8506 C   0  0  0  0  0  0
  -24.1485  -36.7281   23.2641 C   0  0  0  0  0  0
  -25.9815  -30.7483   21.3878 C   0  0  0  0  0  0
  -26.0510  -29.3658   20.7331 C   0  0  0  0  0  0
  -27.2217  -28.5351   20.7350 C   0  0  0  0  0  0
  -26.0241  -26.8536   19.4733 C   0  0  0  0  0  0
  -24.8716  -27.6614   19.4741 C   0  0  0  0  0  0
  -23.6581  -29.8056   20.1582 C   0  0  0  0  0  0
  -25.4112  -36.3044   24.0307 C   0  0  1  0  0  0
  -20.5899  -28.3739   23.1267 C   0  0  2  0  0  0
  -20.6796  -26.9437   22.5437 C   0  0  0  0  0  0
  -19.5757  -26.6299   21.5280 C   0  0  0  0  0  0
  -18.1928  -26.7883   22.1685 C   0  0  0  0  0  0
  -19.1543  -28.8862   23.2877 C   0  0  0  0  0  0
  -18.9453  -30.1477   23.8842 C   0  0  0  0  0  0
  -17.6444  -30.6601   24.0518 C   0  0  0  0  0  0
  -25.9061  -34.9432   23.5082 C   0  0  0  0  0  0
  -16.5345  -29.9075   23.6321 C   0  0  0  0  0  0
  -16.7277  -28.6485   23.0394 C   0  0  0  0  0  0
  -26.4506  -31.6582   25.0734 C   0  0  0  0  0  0
  -25.3721  -31.3766   26.1454 C   0  0  0  0  0  0
  -27.0362  -30.2979   24.6274 C   0  0  0  0  0  0
  -27.6027  -32.4353   25.7532 C   0  0  0  0  0  0
  -27.5563  -37.1805   24.8460 C   0  0  0  0  0  0
  -21.4204  -29.3104   22.3665 N   0  0  0  0  0  0
  -26.4277  -37.3749   23.9398 N   0  0  0  0  0  0
  -24.7012  -31.0454   22.0964 N   0  0  0  0  0  0
  -23.4174  -28.8149   23.3036 O   0  0  0  0  0  0
  -28.2910  -26.2997   20.1508 O   0  0  0  0  0  0
  -26.5623  -34.8919   22.4651 O   0  0  0  0  0  0
  -23.5474  -32.1374   23.7247 O   0  0  0  0  0  0
  -28.1240  -18.7675   18.2670 C   0  0  0  0  0  0
  -27.6979  -17.9203   17.2353 C   0  0  0  0  0  0
  -28.8261  -16.0971   18.3305 C   0  0  0  0  0  0
  -28.8902  -18.3279   19.3830 C   0  0  0  0  0  0
  -29.2456  -16.8752   19.4384 C   0  0  0  0  0  0
  -28.0582  -16.5746   17.2661 C   0  0  0  0  0  0
  -28.6905  -22.0575   20.3442 C   0  0  0  0  0  0
  -29.1242  -19.5325   20.4070 C   0  0  0  0  0  0
  -28.9390  -23.5989   19.8977 C   0  0  0  0  0  0
  -28.0263  -24.8321   20.4633 C   0  0  0  0  0  0
  -29.2741  -20.9686   19.8562 N   0  0  0  0  0  0
  -29.9720  -16.0764   20.4719 N   0  0  0  0  0  0
  -27.5463  -15.4948   16.0222 Cl  0  0  0  0  0  0
  -31.4507  -12.6757   19.0749 H   0  0  0  0  0  0
  -30.4301  -11.5778   19.9801 H   0  0  0  0  0  0
  -29.7470  -11.5444   17.6202 H   0  0  0  0  0  0
  -29.6375  -13.2608   17.5243 H   0  0  0  0  0  0
  -27.8498  -11.2733   18.9228 H   0  0  0  0  0  0
  -27.3510  -12.4960   17.7965 H   0  0  0  0  0  0
  -27.5489  -14.2305   19.4523 H   0  0  0  0  0  0
  -28.7868  -12.2722   21.4238 H   0  0  0  0  0  0
  -28.4341  -13.9583   21.7316 H   0  0  0  0  0  0
  -25.2734   -9.5687   22.4787 H   0  0  0  0  0  0
  -24.0010   -7.4608   22.7460 H   0  0  0  0  0  0
  -21.0836   -8.8743   19.8948 H   0  0  0  0  0  0
  -22.3653  -10.9679   19.6189 H   0  0  0  0  0  0
  -21.1954   -7.6123   23.9688 H   0  0  0  0  0  0
  -21.1488   -6.0510   25.9057 H   0  0  0  0  0  0
  -22.0601   -2.7601   23.2850 H   0  0  0  0  0  0
  -22.4039  -11.9921   22.4835 H   0  0  0  0  0  0
  -21.0997  -13.1195   22.2613 H   0  0  0  0  0  0
  -24.6594  -15.8507   20.5645 H   0  0  0  0  0  0
  -26.2903  -15.6328   20.1792 H   0  0  0  0  0  0
  -26.7217  -32.5372   23.1079 H   0  0  0  0  0  0
  -25.0103  -33.9670   25.0367 H   0  0  0  0  0  0
  -22.7317  -31.2930   21.3919 H   0  0  0  0  0  0
  -23.3737  -35.9630   23.3301 H   0  0  0  0  0  0
  -24.3569  -36.8912   22.2057 H   0  0  0  0  0  0
  -23.7266  -37.6486   23.6680 H   0  0  0  0  0  0
  -26.1270  -31.5031   20.6121 H   0  0  0  0  0  0
  -26.8548  -30.7938   22.0298 H   0  0  0  0  0  0
  -28.1144  -28.8725   21.2429 H   0  0  0  0  0  0
  -25.9708  -25.9128   18.9469 H   0  0  0  0  0  0
  -23.9812  -27.3090   18.9715 H   0  0  0  0  0  0
  -23.7989  -30.5789   19.4043 H   0  0  0  0  0  0
  -22.7734  -29.2501   19.8437 H   0  0  0  0  0  0
  -25.1312  -36.1875   25.0791 H   0  0  0  0  0  0
  -21.0001  -28.3342   24.1394 H   0  0  0  0  0  0
  -20.5748  -26.2378   23.3690 H   0  0  0  0  0  0
  -21.6663  -26.7454   22.1225 H   0  0  0  0  0  0
  -19.6943  -25.6179   21.1385 H   0  0  0  0  0  0
  -19.6686  -27.3018   20.6755 H   0  0  0  0  0  0
  -17.4205  -26.6586   21.4075 H   0  0  0  0  0  0
  -18.0329  -26.0050   22.9120 H   0  0  0  0  0  0
  -19.7921  -30.7330   24.2156 H   0  0  0  0  0  0
  -17.4987  -31.6320   24.5019 H   0  0  0  0  0  0
  -15.5344  -30.2989   23.7609 H   0  0  0  0  0  0
  -15.8686  -28.0798   22.7145 H   0  0  0  0  0  0
  -24.5903  -30.7097   25.7816 H   0  0  0  0  0  0
  -24.8931  -32.2952   26.4842 H   0  0  0  0  0  0
  -25.8049  -30.8995   27.0259 H   0  0  0  0  0  0
  -26.2968  -29.6732   24.1256 H   0  0  0  0  0  0
  -27.3943  -29.7244   25.4841 H   0  0  0  0  0  0
  -27.8891  -30.4215   23.9596 H   0  0  0  0  0  0
  -27.2578  -33.3653   26.2075 H   0  0  0  0  0  0
  -28.3874  -32.6923   25.0401 H   0  0  0  0  0  0
  -28.0657  -31.8517   26.5502 H   0  0  0  0  0  0
  -28.2581  -38.0093   24.7486 H   0  0  0  0  0  0
  -28.1055  -36.2635   24.6320 H   0  0  0  0  0  0
  -27.2287  -37.1492   25.8860 H   0  0  0  0  0  0
  -20.9428  -29.8752   21.6779 H   0  0  0  0  0  0
  -26.0145  -38.2817   24.1402 H   0  0  0  0  0  0
  -27.8091  -19.7974   18.1898 H   0  0  0  0  0  0
  -27.1013  -18.2995   16.4183 H   0  0  0  0  0  0
  -29.0783  -15.0607   18.2684 H   0  0  0  0  0  0
  -27.9694  -21.9718   21.1638 H   0  0  0  0  0  0
  -30.0047  -19.2828   20.9977 H   0  0  0  0  0  0
  -28.2909  -19.4906   21.1059 H   0  0  0  0  0  0
  -28.9206  -23.6324   18.8066 H   0  0  0  0  0  0
  -29.9704  -23.8227   20.1637 H   0  0  0  0  0  0
  -28.0945  -24.7741   21.5488 H   0  0  0  0  0  0
  -26.9866  -24.5760   20.2622 H   0  0  0  0  0  0
  -30.5528  -16.6943   21.0199 H   0  0  0  0  0  0
  1 25  1  0  0  0
  1 30  2  0  0  0
  1 82  1  0  0  0
  2  3  1  0  0  0
  2 25  1  0  0  0
  2 84  1  0  0  0
  2 85  1  0  0  0
  3  4  1  0  0  0
  3 86  1  0  0  0
  3 87  1  0  0  0
  4  5  1  0  0  0
  4 88  1  0  0  0
  4 89  1  0  0  0
  5  6  1  0  0  0
  5 26  1  0  0  0
  5 90  1  0  0  0
  6 25  1  0  0  0
  6 91  1  0  0  0
  6 92  1  0  0  0
  7  8  2  0  0  0
  7 26  1  0  0  0
  7 29  1  0  0  0
  8  9  1  0  0  0
  8 22  1  0  0  0
  9 10  1  0  0  0
  9 27  2  0  0  0
 10 11  2  0  0  0
 10 15  1  0  0  0
 11 12  1  0  0  0
 11 93  1  0  0  0
 12 13  2  0  0  0
 12 94  1  0  0  0
 13 14  1  0  0  0
 13 31  1  0  0  0
 14 15  2  0  0  0
 14 95  1  0  0  0
 15 96  1  0  0  0
 16 17  2  0  0  0
 16 21  1  0  0  0
 16 31  1  0  0  0
 17 18  1  0  0  0
 17 97  1  0  0  0
 18 19  2  0  0  0
 18 98  1  0  0  0
 19 20  1  0  0  0
 19 24  1  0  0  0
 20 21  2  0  0  0
 20 99  1  0  0  0
 21 23  1  0  0  0
 22 28  1  0  0  0
 22 32  2  0  0  0
 26 27  1  0  0  0
 28100  1  0  0  0
 28101  1  0  0  0
 29102  1  0  0  0
 29103  1  0  0  0
 33 34  1  0  0  0
 33 66  1  0  0  0
 33 70  2  0  0  0
 34 36  1  0  0  0
 34 59  1  0  0  0
 34104  1  0  0  0
 35 44  2  0  0  0
 35 45  1  0  0  0
 35 68  1  0  0  0
 36 56  1  0  0  0
 36105  1  0  0  0
 37 39  1  0  0  0
 37 47  1  0  0  0
 37 66  1  0  0  0
 37106  1  0  0  0
 38 43  2  0  0  0
 38 46  1  0  0  0
 38 47  1  0  0  0
 39 64  1  0  0  0
 39 67  2  0  0  0
 40 52  1  0  0  0
 40 53  2  0  0  0
 40 58  1  0  0  0
 41107  1  0  0  0
 41108  1  0  0  0
 41109  1  0  0  0
 41 48  1  0  0  0
 42 43  1  0  0  0
 42 66  1  0  0  0
 42110  1  0  0  0
 42111  1  0  0  0
 43 44  1  0  0  0
 44112  1  0  0  0
 45 46  2  0  0  0
 45113  1  0  0  0
 46114  1  0  0  0
 47115  1  0  0  0
 47116  1  0  0  0
 48 56  1  0  0  0
 48 65  1  0  0  0
 48117  1  0  0  0
 49 50  1  0  0  0
 49 53  1  0  0  0
 49 64  1  0  0  0
 49118  1  0  0  0
 50 51  1  0  0  0
 50119  1  0  0  0
 50120  1  0  0  0
 51 52  1  0  0  0
 51121  1  0  0  0
 51122  1  0  0  0
 52123  1  0  0  0
 52124  1  0  0  0
 53 54  1  0  0  0
 54 55  2  0  0  0
 54125  1  0  0  0
 55 57  1  0  0  0
 55126  1  0  0  0
 56 69  2  0  0  0
 57 58  2  0  0  0
 57127  1  0  0  0
 58128  1  0  0  0
 59 60  1  0  0  0
 59 61  1  0  0  0
 59 62  1  0  0  0
 60129  1  0  0  0
 60130  1  0  0  0
 60131  1  0  0  0
 61132  1  0  0  0
 61133  1  0  0  0
 61134  1  0  0  0
 62135  1  0  0  0
 62136  1  0  0  0
 62137  1  0  0  0
 63 65  1  0  0  0
 63138  1  0  0  0
 63139  1  0  0  0
 63140  1  0  0  0
 64141  1  0  0  0
 65142  1  0  0  0
 68 80  1  0  0  0
 71 72  2  0  0  0
 71 74  1  0  0  0
 71143  1  0  0  0
 72 76  1  0  0  0
 72144  1  0  0  0
 73 75  1  0  0  0
 73 76  2  0  0  0
 73145  1  0  0  0
 74 75  2  0  0  0
 74 78  1  0  0  0
 75 82  1  0  0  0
 76 83  1  0  0  0
 77 79  1  0  0  0
 77 81  2  0  0  0
 77146  1  0  0  0
 78 81  1  0  0  0
 78147  1  0  0  0
 78148  1  0  0  0
 79 80  1  0  0  0
 79149  1  0  0  0
 79150  1  0  0  0
 80151  1  0  0  0
 80152  1  0  0  0
 82153  1  0  0  0
M  ISO  4   1 100  68 101  80 101  82 100
M  END
> <chiral flag>
0

> <version>
0

> <s_m_source_file>
/data/baiqing/PycharmProjects/Reinvent-master-3.2/result/LINK_invent/BTK/process_docking_weight1_custom_product_contain_oxygen_bond_distance_aromatic_linkinvent_7_9_3/rearranged_h_0043.sdf

> <i_m_source_file_index>
70

> <r_mmod_Potential_Energy-OPLS-2005>
375.102447509766

> <r_mmod_Stretch_Energy-OPLS-2005>
170.609375

> <r_mmod_Bend_Energy-OPLS-2005>
231.916900634766

> <r_mmod_Torsional_Energy-OPLS-2005>
261.808685302734

> <r_mmod_Improper_Torsional_Energy-OPLS-2005>
8.33412647247314

> <r_mmod_Van_der_Waal_Energy-OPLS-2005>
143.54362487793

> <r_mmod_Electrostatic_Energy-OPLS-2005>
-355.135925292969

> <r_mmod_Solvation_Energy-OPLS-2005>
-212.529205322266

> <b_mmod_Minimization_Converged-OPLS-2005>
0

> <r_mmod_RMS_Derivative-OPLS-2005>
5.07270336151123

$$$$
70
                    3D
 Structure written by MMmdl.
155163  0  0  1  0            999 V2000
  -30.7315  -14.4900   20.5497 C   0  0  0  0  0  0
  -30.4072  -12.3097   19.4385 C   0  0  0  0  0  0
  -29.4953  -12.5034   18.2101 C   0  0  0  0  0  0
  -28.0132  -12.3793   18.6157 C   0  0  0  0  0  0
  -27.6559  -13.2233   19.8697 C   0  0  2  0  0  0
  -28.6995  -13.0445   20.9967 C   0  0  0  0  0  0
  -25.2534  -13.8195   20.5692 C   0  0  0  0  0  0
  -24.1804  -13.0446   20.9191 C   0  0  0  0  0  0
  -24.6389  -11.6920   20.8734 C   0  0  0  0  0  0
  -23.9055  -10.4292   21.0398 C   0  0  0  0  0  0
  -24.3612   -9.4206   21.9170 C   0  0  0  0  0  0
  -23.6290   -8.2237   22.0745 C   0  0  0  0  0  0
  -22.4264   -8.0272   21.3541 C   0  0  0  0  0  0
  -21.9891   -9.0245   20.4647 C   0  0  0  0  0  0
  -22.7221  -10.2126   20.3052 C   0  0  0  0  0  0
  -21.6846   -6.0727   22.5276 C   0  0  0  0  0  0
  -21.4015   -6.5632   23.8209 C   0  0  0  0  0  0
  -21.3663   -5.6785   24.9175 C   0  0  0  0  0  0
  -21.6041   -4.3044   24.7225 C   0  0  0  0  0  0
  -21.8818   -3.8138   23.4346 C   0  0  0  0  0  0
  -21.9185   -4.6955   22.3402 C   0  0  0  0  0  0
  -22.7822  -13.5224   21.1867 C   0  0  0  0  0  0
  -22.1657   -4.2141   21.0978 F   0  0  0  0  0  0
  -21.5634   -3.4530   25.7741 F   0  0  0  0  0  0
  -30.0271  -13.3290   20.4335 N   0  0  0  0  0  0
  -26.2990  -12.9405   20.3351 N   0  0  0  0  0  0
  -25.9319  -11.6547   20.5748 N   0  0  0  0  0  0
  -22.0468  -12.8213   22.0426 N   0  0  0  0  0  0
  -25.4230  -15.1921   20.4133 N   0  0  0  0  0  0
  -31.8732  -14.5939   20.0950 O   0  0  0  0  0  0
  -21.6633   -6.8864   21.4237 O   0  0  0  0  0  0
  -22.3491  -14.5521   20.6703 O   0  0  0  0  0  0
  -24.6199  -31.8664   23.2100 C   0  0  0  0  0  0
  -25.9081  -32.4806   23.8405 C   0  0  1  0  0  0
  -27.2166  -27.3961   20.0897 C   0  0  0  0  0  0
  -25.5916  -33.8608   24.2324 N   0  0  0  0  0  0
  -23.4073  -30.4962   21.5513 C   0  0  2  0  0  0
  -24.8473  -28.9653   20.1094 C   0  0  0  0  0  0
  -22.7444  -29.4657   22.4955 C   0  0  0  0  0  0
  -18.0278  -28.1369   22.8485 C   0  0  0  0  0  0
  -24.1484  -36.7324   23.2634 C   0  0  0  0  0  0
  -25.9436  -30.8176   21.3710 C   0  0  0  0  0  0
  -26.0137  -29.4542   20.7100 C   0  0  0  0  0  0
  -27.2018  -28.6788   20.6951 C   0  0  0  0  0  0
  -26.0272  -26.9446   19.4665 C   0  0  0  0  0  0
  -24.8509  -27.7118   19.4826 C   0  0  0  0  0  0
  -23.6161  -29.8407   20.1619 C   0  0  0  0  0  0
  -25.4099  -36.3101   24.0335 C   0  0  1  0  0  0
  -20.5873  -28.3667   23.1290 C   0  0  2  0  0  0
  -20.6755  -26.9397   22.5407 C   0  0  0  0  0  0
  -19.5731  -26.6373   21.5203 C   0  0  0  0  0  0
  -18.1916  -26.7913   22.1627 C   0  0  0  0  0  0
  -19.1530  -28.8836   23.2884 C   0  0  0  0  0  0
  -18.9459  -30.1436   23.8900 C   0  0  0  0  0  0
  -17.6460  -30.6573   24.0564 C   0  0  0  0  0  0
  -25.9042  -34.9468   23.5131 C   0  0  0  0  0  0
  -16.5351  -29.9078   23.6314 C   0  0  0  0  0  0
  -16.7268  -28.6496   23.0338 C   0  0  0  0  0  0
  -26.4482  -31.6583   25.0748 C   0  0  0  0  0  0
  -25.3745  -31.3720   26.1501 C   0  0  0  0  0  0
  -27.0306  -30.3005   24.6160 C   0  0  0  0  0  0
  -27.6036  -32.4317   25.7521 C   0  0  0  0  0  0
  -27.5581  -37.1813   24.8460 C   0  0  0  0  0  0
  -21.4166  -29.3040   22.3707 N   0  0  0  0  0  0
  -26.4278  -37.3792   23.9420 N   0  0  0  0  0  0
  -24.6755  -31.0754   22.1008 N   0  0  0  0  0  0
  -23.4211  -28.8180   23.2986 O   0  0  0  0  0  0
  -28.3620  -26.6065   20.1293 O   0  0  0  0  0  0
  -26.5623  -34.8922   22.4703 O   0  0  0  0  0  0
  -23.5382  -32.1427   23.7481 O   0  0  0  0  0  0
  -32.4654  -18.4566   21.3814 C   0  0  0  0  0  0
  -31.9152  -17.1687   21.4700 C   0  0  0  0  0  0
  -29.7913  -18.0376   20.6769 C   0  0  0  0  0  0
  -30.3269  -19.3611   20.5842 C   0  0  0  0  0  0
  -31.7083  -19.5438   20.9003 C   0  0  0  0  0  0
  -30.5882  -16.9227   21.0596 C   0  0  0  0  0  0
  -29.0678  -22.7690   19.9952 C   0  0  0  0  0  0
  -29.4437  -20.4882   20.0533 C   0  0  0  0  0  0
  -32.4509  -20.8623   20.7201 C   0  0  0  0  0  0
  -29.3149  -24.2485   20.3460 C   0  0  0  0  0  0
  -28.1898  -25.1928   19.8444 C   0  0  0  0  0  0
  -29.6572  -21.7765   20.5653 N   0  0  0  0  0  0
  -30.0718  -15.5766   21.0245 N   0  0  0  0  0  0
  -28.5807  -20.1773   19.2267 O   0  0  0  0  0  0
  -31.4577  -12.3693   19.1477 H   0  0  0  0  0  0
  -30.2745  -11.3100   19.8551 H   0  0  0  0  0  0
  -29.7344  -11.7680   17.4407 H   0  0  0  0  0  0
  -29.6743  -13.4834   17.7637 H   0  0  0  0  0  0
  -27.8091  -11.3257   18.8075 H   0  0  0  0  0  0
  -27.3704  -12.6624   17.7805 H   0  0  0  0  0  0
  -27.6885  -14.2673   19.5591 H   0  0  0  0  0  0
  -28.6739  -12.0240   21.3810 H   0  0  0  0  0  0
  -28.4697  -13.6863   21.8479 H   0  0  0  0  0  0
  -25.2771   -9.5678   22.4723 H   0  0  0  0  0  0
  -24.0011   -7.4621   22.7450 H   0  0  0  0  0  0
  -21.0822   -8.8755   19.8960 H   0  0  0  0  0  0
  -22.3674  -10.9653   19.6155 H   0  0  0  0  0  0
  -21.2014   -7.6141   23.9710 H   0  0  0  0  0  0
  -21.1491   -6.0515   25.9069 H   0  0  0  0  0  0
  -22.0597   -2.7606   23.2843 H   0  0  0  0  0  0
  -22.4094  -11.9887   22.4835 H   0  0  0  0  0  0
  -21.1088  -13.1237   22.2643 H   0  0  0  0  0  0
  -24.6562  -15.8468   20.5212 H   0  0  0  0  0  0
  -26.2735  -15.6313   20.0843 H   0  0  0  0  0  0
  -26.7157  -32.5490   23.1166 H   0  0  0  0  0  0
  -25.0043  -33.9760   25.0453 H   0  0  0  0  0  0
  -22.6972  -31.3149   21.4185 H   0  0  0  0  0  0
  -23.3726  -35.9675   23.3286 H   0  0  0  0  0  0
  -24.3588  -36.8954   22.2052 H   0  0  0  0  0  0
  -23.7247  -37.6531   23.6661 H   0  0  0  0  0  0
  -26.0737  -31.5841   20.6058 H   0  0  0  0  0  0
  -26.8257  -30.8589   21.9981 H   0  0  0  0  0  0
  -28.0981  -29.0538   21.1685 H   0  0  0  0  0  0
  -25.9722  -25.9932   18.9601 H   0  0  0  0  0  0
  -23.9559  -27.3335   19.0078 H   0  0  0  0  0  0
  -23.7394  -30.6227   19.4118 H   0  0  0  0  0  0
  -22.7347  -29.2747   19.8548 H   0  0  0  0  0  0
  -25.1257  -36.1971   25.0823 H   0  0  0  0  0  0
  -20.9964  -28.3229   24.1409 H   0  0  0  0  0  0
  -20.5633  -26.2285   23.3607 H   0  0  0  0  0  0
  -21.6630  -26.7413   22.1221 H   0  0  0  0  0  0
  -19.6890  -25.6281   21.1234 H   0  0  0  0  0  0
  -19.6655  -27.3179   20.6729 H   0  0  0  0  0  0
  -17.4183  -26.6649   21.4033 H   0  0  0  0  0  0
  -18.0330  -26.0049   22.9023 H   0  0  0  0  0  0
  -19.7935  -30.7249   24.2266 H   0  0  0  0  0  0
  -17.5018  -31.6251   24.5171 H   0  0  0  0  0  0
  -15.5353  -30.2997   23.7608 H   0  0  0  0  0  0
  -15.8668  -28.0826   22.7033 H   0  0  0  0  0  0
  -24.5900  -30.7073   25.7870 H   0  0  0  0  0  0
  -24.8963  -32.2890   26.4953 H   0  0  0  0  0  0
  -25.8102  -30.8904   27.0263 H   0  0  0  0  0  0
  -26.2869  -29.6786   24.1162 H   0  0  0  0  0  0
  -27.3982  -29.7224   25.4649 H   0  0  0  0  0  0
  -27.8751  -30.4288   23.9384 H   0  0  0  0  0  0
  -27.2617  -33.3595   26.2122 H   0  0  0  0  0  0
  -28.3833  -32.6915   25.0351 H   0  0  0  0  0  0
  -28.0716  -31.8442   26.5429 H   0  0  0  0  0  0
  -28.2579  -38.0130   24.7519 H   0  0  0  0  0  0
  -28.1095  -36.2662   24.6244 H   0  0  0  0  0  0
  -27.2330  -37.1423   25.8873 H   0  0  0  0  0  0
  -20.9327  -29.8831   21.6989 H   0  0  0  0  0  0
  -26.0165  -38.2872   24.1412 H   0  0  0  0  0  0
  -33.5031  -18.5918   21.6527 H   0  0  0  0  0  0
  -32.5491  -16.3631   21.8152 H   0  0  0  0  0  0
  -28.7626  -17.8683   20.3885 H   0  0  0  0  0  0
  -28.3464  -22.6419   19.1811 H   0  0  0  0  0  0
  -33.5322  -20.7204   20.7419 H   0  0  0  0  0  0
  -32.1946  -21.5590   21.5182 H   0  0  0  0  0  0
  -32.2158  -21.3193   19.7585 H   0  0  0  0  0  0
  -30.2668  -24.5490   19.9104 H   0  0  0  0  0  0
  -29.4174  -24.3447   21.4261 H   0  0  0  0  0  0
  -27.2691  -24.8315   20.3068 H   0  0  0  0  0  0
  -28.0799  -25.0749   18.7641 H   0  0  0  0  0  0
  -29.0927  -15.4480   21.2283 H   0  0  0  0  0  0
  1 25  1  0  0  0
  1 30  2  0  0  0
  1 83  1  0  0  0
  2  3  1  0  0  0
  2 25  1  0  0  0
  2 85  1  0  0  0
  2 86  1  0  0  0
  3  4  1  0  0  0
  3 87  1  0  0  0
  3 88  1  0  0  0
  4  5  1  0  0  0
  4 89  1  0  0  0
  4 90  1  0  0  0
  5  6  1  0  0  0
  5 26  1  0  0  0
  5 91  1  0  0  0
  6 25  1  0  0  0
  6 92  1  0  0  0
  6 93  1  0  0  0
  7  8  2  0  0  0
  7 26  1  0  0  0
  7 29  1  0  0  0
  8  9  1  0  0  0
  8 22  1  0  0  0
  9 10  1  0  0  0
  9 27  2  0  0  0
 10 11  2  0  0  0
 10 15  1  0  0  0
 11 12  1  0  0  0
 11 94  1  0  0  0
 12 13  2  0  0  0
 12 95  1  0  0  0
 13 14  1  0  0  0
 13 31  1  0  0  0
 14 15  2  0  0  0
 14 96  1  0  0  0
 15 97  1  0  0  0
 16 17  2  0  0  0
 16 21  1  0  0  0
 16 31  1  0  0  0
 17 18  1  0  0  0
 17 98  1  0  0  0
 18 19  2  0  0  0
 18 99  1  0  0  0
 19 20  1  0  0  0
 19 24  1  0  0  0
 20 21  2  0  0  0
 20100  1  0  0  0
 21 23  1  0  0  0
 22 28  1  0  0  0
 22 32  2  0  0  0
 26 27  1  0  0  0
 28101  1  0  0  0
 28102  1  0  0  0
 29103  1  0  0  0
 29104  1  0  0  0
 33 34  1  0  0  0
 33 66  1  0  0  0
 33 70  2  0  0  0
 34 36  1  0  0  0
 34 59  1  0  0  0
 34105  1  0  0  0
 35 44  2  0  0  0
 35 45  1  0  0  0
 35 68  1  0  0  0
 36 56  1  0  0  0
 36106  1  0  0  0
 37 39  1  0  0  0
 37 47  1  0  0  0
 37 66  1  0  0  0
 37107  1  0  0  0
 38 43  2  0  0  0
 38 46  1  0  0  0
 38 47  1  0  0  0
 39 64  1  0  0  0
 39 67  2  0  0  0
 40 52  1  0  0  0
 40 53  2  0  0  0
 40 58  1  0  0  0
 41108  1  0  0  0
 41109  1  0  0  0
 41110  1  0  0  0
 41 48  1  0  0  0
 42 43  1  0  0  0
 42 66  1  0  0  0
 42111  1  0  0  0
 42112  1  0  0  0
 43 44  1  0  0  0
 44113  1  0  0  0
 45 46  2  0  0  0
 45114  1  0  0  0
 46115  1  0  0  0
 47116  1  0  0  0
 47117  1  0  0  0
 48 56  1  0  0  0
 48 65  1  0  0  0
 48118  1  0  0  0
 49 50  1  0  0  0
 49 53  1  0  0  0
 49 64  1  0  0  0
 49119  1  0  0  0
 50 51  1  0  0  0
 50120  1  0  0  0
 50121  1  0  0  0
 51 52  1  0  0  0
 51122  1  0  0  0
 51123  1  0  0  0
 52124  1  0  0  0
 52125  1  0  0  0
 53 54  1  0  0  0
 54 55  2  0  0  0
 54126  1  0  0  0
 55 57  1  0  0  0
 55127  1  0  0  0
 56 69  2  0  0  0
 57 58  2  0  0  0
 57128  1  0  0  0
 58129  1  0  0  0
 59 60  1  0  0  0
 59 61  1  0  0  0
 59 62  1  0  0  0
 60130  1  0  0  0
 60131  1  0  0  0
 60132  1  0  0  0
 61133  1  0  0  0
 61134  1  0  0  0
 61135  1  0  0  0
 62136  1  0  0  0
 62137  1  0  0  0
 62138  1  0  0  0
 63 65  1  0  0  0
 63139  1  0  0  0
 63140  1  0  0  0
 63141  1  0  0  0
 64142  1  0  0  0
 65143  1  0  0  0
 68 81  1  0  0  0
 71 72  2  0  0  0
 71 75  1  0  0  0
 71144  1  0  0  0
 72 76  1  0  0  0
 72145  1  0  0  0
 73 74  1  0  0  0
 73 76  2  0  0  0
 73146  1  0  0  0
 74 75  2  0  0  0
 74 78  1  0  0  0
 75 79  1  0  0  0
 76 83  1  0  0  0
 77 80  1  0  0  0
 77 82  2  0  0  0
 77147  1  0  0  0
 78 82  1  0  0  0
 78 84  2  0  0  0
 79148  1  0  0  0
 79149  1  0  0  0
 79150  1  0  0  0
 80 81  1  0  0  0
 80151  1  0  0  0
 80152  1  0  0  0
 81153  1  0  0  0
 81154  1  0  0  0
 83155  1  0  0  0
M  ISO  4   1 100  68 101  81 101  83 100
M  END
> <chiral flag>
0

> <version>
0

> <s_m_source_file>
/data/baiqing/PycharmProjects/Reinvent-master-3.2/result/LINK_invent/BTK/process_docking_weight1_custom_product_contain_oxygen_bond_distance_aromatic_linkinvent_7_9_3/rearranged_h_0043.sdf

> <i_m_source_file_index>
71

> <r_mmod_Potential_Energy-OPLS-2005>
-27.4904842376709

> <r_mmod_Stretch_Energy-OPLS-2005>
50.6503868103027

> <r_mmod_Bend_Energy-OPLS-2005>
105.234909057617

> <r_mmod_Torsional_Energy-OPLS-2005>
216.942810058594

> <r_mmod_Improper_Torsional_Energy-OPLS-2005>
4.33877468109131

> <r_mmod_Van_der_Waal_Energy-OPLS-2005>
179.882888793945

> <r_mmod_Electrostatic_Energy-OPLS-2005>
-393.329406738281

> <r_mmod_Solvation_Energy-OPLS-2005>
-212.239837646484

> <b_mmod_Minimization_Converged-OPLS-2005>
0

> <r_mmod_RMS_Derivative-OPLS-2005>
1.84278881549835

$$$$
71
                    3D
 Structure written by MMmdl.
164173  0  0  1  0            999 V2000
  -30.6025  -14.7367   20.4994 C   0  0  0  0  0  0
  -30.4399  -12.4486   19.4844 C   0  0  0  0  0  0
  -29.5227  -12.5226   18.2424 C   0  0  0  0  0  0
  -28.0438  -12.3624   18.6405 C   0  0  0  0  0  0
  -27.6498  -13.2285   19.8664 C   0  0  2  0  0  0
  -28.6932  -13.1275   21.0036 C   0  0  0  0  0  0
  -25.2558  -13.8182   20.5722 C   0  0  0  0  0  0
  -24.1832  -13.0422   20.9205 C   0  0  0  0  0  0
  -24.6403  -11.6909   20.8730 C   0  0  0  0  0  0
  -23.9076  -10.4302   21.0393 C   0  0  0  0  0  0
  -24.3644   -9.4222   21.9177 C   0  0  0  0  0  0
  -23.6330   -8.2258   22.0736 C   0  0  0  0  0  0
  -22.4310   -8.0303   21.3538 C   0  0  0  0  0  0
  -21.9944   -9.0262   20.4646 C   0  0  0  0  0  0
  -22.7255  -10.2141   20.3050 C   0  0  0  0  0  0
  -21.6869   -6.0752   22.5299 C   0  0  0  0  0  0
  -21.4012   -6.5639   23.8225 C   0  0  0  0  0  0
  -21.3674   -5.6790   24.9188 C   0  0  0  0  0  0
  -21.6050   -4.3043   24.7233 C   0  0  0  0  0  0
  -21.8830   -3.8152   23.4338 C   0  0  0  0  0  0
  -21.9199   -4.6984   22.3409 C   0  0  0  0  0  0
  -22.7863  -13.5228   21.1881 C   0  0  0  0  0  0
  -22.1676   -4.2178   21.0980 F   0  0  0  0  0  0
  -21.5645   -3.4519   25.7725 F   0  0  0  0  0  0
  -30.0034  -13.4928   20.4482 N   0  0  0  0  0  0
  -26.2981  -12.9367   20.3335 N   0  0  0  0  0  0
  -25.9334  -11.6515   20.5735 N   0  0  0  0  0  0
  -22.0511  -12.8211   22.0433 N   0  0  0  0  0  0
  -25.4228  -15.1898   20.4224 N   0  0  0  0  0  0
  -31.7395  -14.8863   20.0395 O   0  0  0  0  0  0
  -21.6662   -6.8888   21.4257 O   0  0  0  0  0  0
  -22.3580  -14.5558   20.6739 O   0  0  0  0  0  0
  -24.6329  -31.8545   23.2005 C   0  0  0  0  0  0
  -25.9153  -32.4733   23.8347 C   0  0  1  0  0  0
  -27.2123  -27.2429   20.1503 C   0  0  0  0  0  0
  -25.5946  -33.8540   24.2263 N   0  0  0  0  0  0
  -23.4304  -30.4773   21.5427 C   0  0  2  0  0  0
  -24.8800  -28.9310   20.1065 C   0  0  0  0  0  0
  -22.7513  -29.4595   22.4904 C   0  0  0  0  0  0
  -18.0293  -28.1400   22.8480 C   0  0  0  0  0  0
  -24.1481  -36.7272   23.2639 C   0  0  0  0  0  0
  -25.9799  -30.7599   21.3892 C   0  0  0  0  0  0
  -26.0517  -29.3854   20.7260 C   0  0  0  0  0  0
  -27.2212  -28.5546   20.7380 C   0  0  0  0  0  0
  -26.0274  -26.8792   19.4675 C   0  0  0  0  0  0
  -24.8768  -27.6879   19.4594 C   0  0  0  0  0  0
  -23.6509  -29.8180   20.1565 C   0  0  0  0  0  0
  -25.4111  -36.3050   24.0323 C   0  0  1  0  0  0
  -20.5894  -28.3716   23.1247 C   0  0  2  0  0  0
  -20.6787  -26.9430   22.5397 C   0  0  0  0  0  0
  -19.5760  -26.6392   21.5210 C   0  0  0  0  0  0
  -18.1936  -26.7943   22.1620 C   0  0  0  0  0  0
  -19.1549  -28.8880   23.2858 C   0  0  0  0  0  0
  -18.9468  -30.1486   23.8872 C   0  0  0  0  0  0
  -17.6465  -30.6590   24.0565 C   0  0  0  0  0  0
  -25.9064  -34.9422   23.5098 C   0  0  0  0  0  0
  -16.5362  -29.9087   23.6341 C   0  0  0  0  0  0
  -16.7279  -28.6512   23.0358 C   0  0  0  0  0  0
  -26.4509  -31.6580   25.0762 C   0  0  0  0  0  0
  -25.3729  -31.3740   26.1485 C   0  0  0  0  0  0
  -27.0397  -30.2987   24.6326 C   0  0  0  0  0  0
  -27.6052  -32.4350   25.7540 C   0  0  0  0  0  0
  -27.5574  -37.1785   24.8456 C   0  0  0  0  0  0
  -21.4218  -29.3050   22.3632 N   0  0  0  0  0  0
  -26.4273  -37.3759   23.9414 N   0  0  0  0  0  0
  -24.6996  -31.0487   22.0999 N   0  0  0  0  0  0
  -23.4202  -28.8137   23.3018 O   0  0  0  0  0  0
  -28.2663  -26.2959   20.2651 O   0  0  0  0  0  0
  -26.5629  -34.8895   22.4663 O   0  0  0  0  0  0
  -23.5468  -32.1382   23.7278 O   0  0  0  0  0  0
  -28.7587  -17.0964   19.2680 C   0  0  0  0  0  0
  -29.8131  -18.4623   20.9645 C   0  0  0  0  0  0
  -28.2160  -18.2613   18.6868 C   0  0  0  0  0  0
  -29.3055  -19.7042   20.3731 C   0  0  0  0  0  0
  -28.5089  -19.5564   19.2019 C   0  0  0  0  0  0
  -29.5673  -17.1318   20.4172 C   0  0  0  0  0  0
  -29.0151  -23.6870   20.4315 C   0  0  0  0  0  0
  -26.5562  -23.2363   21.9011 C   0  0  0  0  0  0
  -27.0521  -24.6783   21.7570 C   0  0  0  0  0  0
  -27.7230  -22.2359   21.9781 C   0  0  0  0  0  0
  -27.8857  -24.8383   20.4709 C   0  0  1  0  0  0
  -27.2965  -18.0677   17.4879 C   0  0  0  0  0  0
  -27.9837  -20.7891   18.4743 C   0  0  0  0  0  0
  -29.6995  -21.1706   20.9119 C   0  0  0  0  0  0
  -28.7659  -22.4015   20.9487 N   0  0  0  0  0  0
  -29.8956  -15.8114   21.0225 N   0  0  0  0  0  0
  -30.0823  -23.9471   19.8680 O   0  0  0  0  0  0
  -31.4870  -12.5660   19.1920 H   0  0  0  0  0  0
  -30.3776  -11.4595   19.9433 H   0  0  0  0  0  0
  -29.8028  -11.7497   17.5232 H   0  0  0  0  0  0
  -29.6705  -13.4777   17.7342 H   0  0  0  0  0  0
  -27.8764  -11.3074   18.8608 H   0  0  0  0  0  0
  -27.3990  -12.6039   17.7949 H   0  0  0  0  0  0
  -27.6455  -14.2554   19.5132 H   0  0  0  0  0  0
  -28.7240  -12.1140   21.4034 H   0  0  0  0  0  0
  -28.4183  -13.7646   21.8451 H   0  0  0  0  0  0
  -25.2811   -9.5705   22.4723 H   0  0  0  0  0  0
  -24.0073   -7.4639   22.7426 H   0  0  0  0  0  0
  -21.0882   -8.8758   19.8953 H   0  0  0  0  0  0
  -22.3719  -10.9668   19.6142 H   0  0  0  0  0  0
  -21.1976   -7.6148   23.9733 H   0  0  0  0  0  0
  -21.1495   -6.0510   25.9088 H   0  0  0  0  0  0
  -22.0591   -2.7626   23.2815 H   0  0  0  0  0  0
  -22.4180  -11.9877   22.4797 H   0  0  0  0  0  0
  -21.1110  -13.1201   22.2632 H   0  0  0  0  0  0
  -24.6505  -15.8370   20.5400 H   0  0  0  0  0  0
  -26.2764  -15.6472   20.1298 H   0  0  0  0  0  0
  -26.7224  -32.5366   23.1084 H   0  0  0  0  0  0
  -25.0077  -33.9672   25.0393 H   0  0  0  0  0  0
  -22.7275  -31.3004   21.3985 H   0  0  0  0  0  0
  -23.3749  -35.9595   23.3272 H   0  0  0  0  0  0
  -24.3575  -36.8937   22.2061 H   0  0  0  0  0  0
  -23.7227  -37.6457   23.6697 H   0  0  0  0  0  0
  -26.1331  -31.5232   20.6240 H   0  0  0  0  0  0
  -26.8500  -30.7965   22.0334 H   0  0  0  0  0  0
  -28.1069  -28.8921   21.2586 H   0  0  0  0  0  0
  -25.9445  -25.9381   18.9489 H   0  0  0  0  0  0
  -23.9875  -27.3400   18.9531 H   0  0  0  0  0  0
  -23.7712  -30.5985   19.4037 H   0  0  0  0  0  0
  -22.7702  -29.2491   19.8527 H   0  0  0  0  0  0
  -25.1289  -36.1882   25.0814 H   0  0  0  0  0  0
  -20.9979  -28.3306   24.1376 H   0  0  0  0  0  0
  -20.5704  -26.2328   23.3612 H   0  0  0  0  0  0
  -21.6654  -26.7467   22.1184 H   0  0  0  0  0  0
  -19.6923  -25.6304   21.1254 H   0  0  0  0  0  0
  -19.6696  -27.3190   20.6734 H   0  0  0  0  0  0
  -17.4208  -26.6687   21.4024 H   0  0  0  0  0  0
  -18.0340  -26.0095   22.9030 H   0  0  0  0  0  0
  -19.7949  -30.7318   24.2216 H   0  0  0  0  0  0
  -17.5019  -31.6267   24.5189 H   0  0  0  0  0  0
  -15.5360  -30.2982   23.7691 H   0  0  0  0  0  0
  -15.8681  -28.0826   22.7084 H   0  0  0  0  0  0
  -24.5866  -30.7142   25.7796 H   0  0  0  0  0  0
  -24.8972  -32.2927   26.4940 H   0  0  0  0  0  0
  -25.8029  -30.8873   27.0250 H   0  0  0  0  0  0
  -26.3035  -29.6703   24.1304 H   0  0  0  0  0  0
  -27.3995  -29.7280   25.4897 H   0  0  0  0  0  0
  -27.8935  -30.4239   23.9663 H   0  0  0  0  0  0
  -27.2630  -33.3633   26.2125 H   0  0  0  0  0  0
  -28.3850  -32.6956   25.0374 H   0  0  0  0  0  0
  -28.0748  -31.8501   26.5454 H   0  0  0  0  0  0
  -28.2556  -38.0114   24.7543 H   0  0  0  0  0  0
  -28.1107  -36.2651   24.6230 H   0  0  0  0  0  0
  -27.2302  -37.1364   25.8858 H   0  0  0  0  0  0
  -20.9420  -29.8745   21.6799 H   0  0  0  0  0  0
  -26.0142  -38.2819   24.1450 H   0  0  0  0  0  0
  -28.5237  -16.1414   18.8241 H   0  0  0  0  0  0
  -30.4105  -18.5378   21.8616 H   0  0  0  0  0  0
  -25.9104  -22.9849   21.0578 H   0  0  0  0  0  0
  -25.9320  -23.1423   22.7908 H   0  0  0  0  0  0
  -27.6459  -24.9692   22.6244 H   0  0  0  0  0  0
  -26.1834  -25.3382   21.7441 H   0  0  0  0  0  0
  -27.3203  -21.2218   21.9576 H   0  0  0  0  0  0
  -28.2150  -22.3499   22.9458 H   0  0  0  0  0  0
  -27.2677  -24.5349   19.6288 H   0  0  0  0  0  0
  -26.8986  -17.0520   17.4522 H   0  0  0  0  0  0
  -27.8372  -18.2438   16.5608 H   0  0  0  0  0  0
  -26.4325  -18.7341   17.5322 H   0  0  0  0  0  0
  -27.7018  -20.5944   17.4418 H   0  0  0  0  0  0
  -28.7492  -21.5627   18.4191 H   0  0  0  0  0  0
  -27.1104  -21.1874   18.9914 H   0  0  0  0  0  0
  -30.5892  -21.4518   20.3480 H   0  0  0  0  0  0
  -30.0662  -21.0381   21.9320 H   0  0  0  0  0  0
  -29.1530  -15.4785   21.6206 H   0  0  0  0  0  0
  1 25  1  0  0  0
  1 30  2  0  0  0
  1 86  1  0  0  0
  2  3  1  0  0  0
  2 25  1  0  0  0
  2 88  1  0  0  0
  2 89  1  0  0  0
  3  4  1  0  0  0
  3 90  1  0  0  0
  3 91  1  0  0  0
  4  5  1  0  0  0
  4 92  1  0  0  0
  4 93  1  0  0  0
  5  6  1  0  0  0
  5 26  1  0  0  0
  5 94  1  0  0  0
  6 25  1  0  0  0
  6 95  1  0  0  0
  6 96  1  0  0  0
  7  8  2  0  0  0
  7 26  1  0  0  0
  7 29  1  0  0  0
  8  9  1  0  0  0
  8 22  1  0  0  0
  9 10  1  0  0  0
  9 27  2  0  0  0
 10 11  2  0  0  0
 10 15  1  0  0  0
 11 12  1  0  0  0
 11 97  1  0  0  0
 12 13  2  0  0  0
 12 98  1  0  0  0
 13 14  1  0  0  0
 13 31  1  0  0  0
 14 15  2  0  0  0
 14 99  1  0  0  0
 15100  1  0  0  0
 16 17  2  0  0  0
 16 21  1  0  0  0
 16 31  1  0  0  0
 17 18  1  0  0  0
 17101  1  0  0  0
 18 19  2  0  0  0
 18102  1  0  0  0
 19 20  1  0  0  0
 19 24  1  0  0  0
 20 21  2  0  0  0
 20103  1  0  0  0
 21 23  1  0  0  0
 22 28  1  0  0  0
 22 32  2  0  0  0
 26 27  1  0  0  0
 28104  1  0  0  0
 28105  1  0  0  0
 29106  1  0  0  0
 29107  1  0  0  0
 33 34  1  0  0  0
 33 66  1  0  0  0
 33 70  2  0  0  0
 34 36  1  0  0  0
 34 59  1  0  0  0
 34108  1  0  0  0
 35 44  2  0  0  0
 35 45  1  0  0  0
 35 68  1  0  0  0
 36 56  1  0  0  0
 36109  1  0  0  0
 37 39  1  0  0  0
 37 47  1  0  0  0
 37 66  1  0  0  0
 37110  1  0  0  0
 38 43  2  0  0  0
 38 46  1  0  0  0
 38 47  1  0  0  0
 39 64  1  0  0  0
 39 67  2  0  0  0
 40 52  1  0  0  0
 40 53  2  0  0  0
 40 58  1  0  0  0
 41111  1  0  0  0
 41112  1  0  0  0
 41113  1  0  0  0
 41 48  1  0  0  0
 42 43  1  0  0  0
 42 66  1  0  0  0
 42114  1  0  0  0
 42115  1  0  0  0
 43 44  1  0  0  0
 44116  1  0  0  0
 45 46  2  0  0  0
 45117  1  0  0  0
 46118  1  0  0  0
 47119  1  0  0  0
 47120  1  0  0  0
 48 56  1  0  0  0
 48 65  1  0  0  0
 48121  1  0  0  0
 49 50  1  0  0  0
 49 53  1  0  0  0
 49 64  1  0  0  0
 49122  1  0  0  0
 50 51  1  0  0  0
 50123  1  0  0  0
 50124  1  0  0  0
 51 52  1  0  0  0
 51125  1  0  0  0
 51126  1  0  0  0
 52127  1  0  0  0
 52128  1  0  0  0
 53 54  1  0  0  0
 54 55  2  0  0  0
 54129  1  0  0  0
 55 57  1  0  0  0
 55130  1  0  0  0
 56 69  2  0  0  0
 57 58  2  0  0  0
 57131  1  0  0  0
 58132  1  0  0  0
 59 60  1  0  0  0
 59 61  1  0  0  0
 59 62  1  0  0  0
 60133  1  0  0  0
 60134  1  0  0  0
 60135  1  0  0  0
 61136  1  0  0  0
 61137  1  0  0  0
 61138  1  0  0  0
 62139  1  0  0  0
 62140  1  0  0  0
 62141  1  0  0  0
 63 65  1  0  0  0
 63142  1  0  0  0
 63143  1  0  0  0
 63144  1  0  0  0
 64145  1  0  0  0
 65146  1  0  0  0
 68 81  1  0  0  0
 71 73  2  0  0  0
 71 76  1  0  0  0
 71147  1  0  0  0
 72 74  1  0  0  0
 72 76  2  0  0  0
 72148  1  0  0  0
 73 75  1  0  0  0
 73 82  1  0  0  0
 74 75  2  0  0  0
 74 84  1  0  0  0
 75 83  1  0  0  0
 76 86  1  0  0  0
 77 81  1  0  0  0
 77 85  1  0  0  0
 77 87  2  0  0  0
 78 79  1  0  0  0
 78 80  1  0  0  0
 78149  1  0  0  0
 78150  1  0  0  0
 79 81  1  0  0  0
 79151  1  0  0  0
 79152  1  0  0  0
 80 85  1  0  0  0
 80153  1  0  0  0
 80154  1  0  0  0
 81155  1  0  0  0
 82156  1  0  0  0
 82157  1  0  0  0
 82158  1  0  0  0
 83159  1  0  0  0
 83160  1  0  0  0
 83161  1  0  0  0
 84 85  1  0  0  0
 84162  1  0  0  0
 84163  1  0  0  0
 86164  1  0  0  0
M  ISO  4   1 100  68 101  81 101  86 100
M  END
> <chiral flag>
0

> <version>
0

> <s_m_source_file>
/data/baiqing/PycharmProjects/Reinvent-master-3.2/result/LINK_invent/BTK/process_docking_weight1_custom_product_contain_oxygen_bond_distance_aromatic_linkinvent_7_9_3/rearranged_h_0043.sdf

> <i_m_source_file_index>
72

> <r_mmod_Potential_Energy-OPLS-2005>
277.243682861328

> <r_mmod_Stretch_Energy-OPLS-2005>
147.767684936523

> <r_mmod_Bend_Energy-OPLS-2005>
178.92463684082

> <r_mmod_Torsional_Energy-OPLS-2005>
279.871124267578

> <r_mmod_Improper_Torsional_Energy-OPLS-2005>
7.52315902709961

> <r_mmod_Van_der_Waal_Energy-OPLS-2005>
146.163803100586

> <r_mmod_Electrostatic_Energy-OPLS-2005>
-344.910766601562

> <r_mmod_Solvation_Energy-OPLS-2005>
-231.772521972656

> <b_mmod_Minimization_Converged-OPLS-2005>
0

> <r_mmod_RMS_Derivative-OPLS-2005>
3.60487508773804

$$$$
72
                    3D
 Structure written by MMmdl.
158166  0  0  1  0            999 V2000
  -30.7539  -14.4711   20.5679 C   0  0  0  0  0  0
  -30.4034  -12.3112   19.4335 C   0  0  0  0  0  0
  -29.4870  -12.5033   18.2098 C   0  0  0  0  0  0
  -28.0095  -12.3747   18.6196 C   0  0  0  0  0  0
  -27.6542  -13.2252   19.8703 C   0  0  2  0  0  0
  -28.6978  -13.0420   20.9972 C   0  0  0  0  0  0
  -25.2507  -13.8237   20.5693 C   0  0  0  0  0  0
  -24.1798  -13.0485   20.9240 C   0  0  0  0  0  0
  -24.6379  -11.6951   20.8785 C   0  0  0  0  0  0
  -23.9054  -10.4312   21.0422 C   0  0  0  0  0  0
  -24.3605   -9.4225   21.9199 C   0  0  0  0  0  0
  -23.6288   -8.2251   22.0758 C   0  0  0  0  0  0
  -22.4282   -8.0277   21.3532 C   0  0  0  0  0  0
  -21.9911   -9.0261   20.4651 C   0  0  0  0  0  0
  -22.7232  -10.2150   20.3059 C   0  0  0  0  0  0
  -21.6837   -6.0737   22.5275 C   0  0  0  0  0  0
  -21.4024   -6.5640   23.8218 C   0  0  0  0  0  0
  -21.3658   -5.6787   24.9170 C   0  0  0  0  0  0
  -21.6031   -4.3048   24.7216 C   0  0  0  0  0  0
  -21.8823   -3.8148   23.4337 C   0  0  0  0  0  0
  -21.9201   -4.6966   22.3402 C   0  0  0  0  0  0
  -22.7805  -13.5261   21.1871 C   0  0  0  0  0  0
  -22.1664   -4.2158   21.0970 F   0  0  0  0  0  0
  -21.5613   -3.4532   25.7725 F   0  0  0  0  0  0
  -30.0309  -13.3216   20.4407 N   0  0  0  0  0  0
  -26.2964  -12.9448   20.3363 N   0  0  0  0  0  0
  -25.9300  -11.6585   20.5767 N   0  0  0  0  0  0
  -22.0403  -12.8280   22.0415 N   0  0  0  0  0  0
  -25.4176  -15.1954   20.4042 N   0  0  0  0  0  0
  -31.8794  -14.5562   20.0761 O   0  0  0  0  0  0
  -21.6626   -6.8881   21.4242 O   0  0  0  0  0  0
  -22.3476  -14.5526   20.6643 O   0  0  0  0  0  0
  -24.6115  -31.8684   23.2064 C   0  0  0  0  0  0
  -25.9021  -32.4812   23.8360 C   0  0  1  0  0  0
  -27.2369  -27.4422   20.0977 C   0  0  0  0  0  0
  -25.5891  -33.8616   24.2296 N   0  0  0  0  0  0
  -23.3994  -30.4873   21.5485 C   0  0  2  0  0  0
  -24.8504  -28.9512   20.1102 C   0  0  0  0  0  0
  -22.7376  -29.4687   22.5025 C   0  0  0  0  0  0
  -18.0279  -28.1309   22.8403 C   0  0  0  0  0  0
  -24.1500  -36.7325   23.2634 C   0  0  0  0  0  0
  -25.9235  -30.8335   21.3576 C   0  0  0  0  0  0
  -26.0050  -29.4650   20.7139 C   0  0  0  0  0  0
  -27.2007  -28.7121   20.7146 C   0  0  0  0  0  0
  -26.0769  -26.9480   19.4682 C   0  0  0  0  0  0
  -24.8812  -27.6931   19.4804 C   0  0  0  0  0  0
  -23.6035  -29.8078   20.1659 C   0  0  0  0  0  0
  -25.4121  -36.3101   24.0319 C   0  0  1  0  0  0
  -20.5875  -28.3590   23.1288 C   0  0  2  0  0  0
  -20.6822  -26.9372   22.5289 C   0  0  0  0  0  0
  -19.5771  -26.6258   21.5129 C   0  0  0  0  0  0
  -18.1925  -26.7864   22.1491 C   0  0  0  0  0  0
  -19.1525  -28.8737   23.2871 C   0  0  0  0  0  0
  -18.9444  -30.1346   23.8897 C   0  0  0  0  0  0
  -17.6456  -30.6509   24.0522 C   0  0  0  0  0  0
  -25.9033  -34.9472   23.5113 C   0  0  0  0  0  0
  -16.5357  -29.9020   23.6262 C   0  0  0  0  0  0
  -16.7269  -28.6456   23.0263 C   0  0  0  0  0  0
  -26.4457  -31.6574   25.0689 C   0  0  0  0  0  0
  -25.3736  -31.3678   26.1452 C   0  0  0  0  0  0
  -27.0314  -30.3042   24.6022 C   0  0  0  0  0  0
  -27.6025  -32.4301   25.7453 C   0  0  0  0  0  0
  -27.5590  -37.1811   24.8464 C   0  0  0  0  0  0
  -21.4111  -29.2991   22.3698 N   0  0  0  0  0  0
  -26.4315  -37.3775   23.9389 N   0  0  0  0  0  0
  -24.6630  -31.0778   22.0966 N   0  0  0  0  0  0
  -23.4145  -28.8302   23.3131 O   0  0  0  0  0  0
  -28.3721  -26.6658   20.1082 O   0  0  0  0  0  0
  -26.5594  -34.8918   22.4676 O   0  0  0  0  0  0
  -23.5310  -32.1445   23.7455 O   0  0  0  0  0  0
  -32.0856  -18.7503   20.5560 C   0  0  0  0  0  0
  -31.2867  -19.6850   21.2213 C   0  0  0  0  0  0
  -31.7247  -17.3971   20.5432 C   0  0  0  0  0  0
  -30.1048  -19.2770   21.8717 C   0  0  0  0  0  0
  -29.7347  -17.8926   21.8631 C   0  0  0  0  0  0
  -30.5486  -16.9259   21.1923 C   0  0  0  0  0  0
  -28.2596  -23.5255   21.0842 C   0  0  0  0  0  0
  -29.0891  -24.5838   21.2018 C   0  0  0  0  0  0
  -28.7014  -22.1438   20.9909 C   0  0  0  0  0  0
  -28.4535  -17.4676   22.5769 C   0  0  0  0  0  0
  -29.2715  -20.3404   22.6045 C   0  0  0  0  0  0
  -28.5944  -26.0170   21.3642 C   0  0  0  0  0  0
  -30.1516  -15.5300   21.1631 N   0  0  0  0  0  0
  -29.3310  -21.7219   22.0972 N   0  0  0  0  0  0
  -28.4057  -21.3853   20.0671 O   0  0  0  0  0  0
  -31.4485  -12.3747   19.1252 H   0  0  0  0  0  0
  -30.2811  -11.3080   19.8443 H   0  0  0  0  0  0
  -29.7228  -11.7654   17.4411 H   0  0  0  0  0  0
  -29.6641  -13.4804   17.7566 H   0  0  0  0  0  0
  -27.8136  -11.3203   18.8166 H   0  0  0  0  0  0
  -27.3610  -12.6535   17.7861 H   0  0  0  0  0  0
  -27.6881  -14.2716   19.5626 H   0  0  0  0  0  0
  -28.6674  -12.0187   21.3762 H   0  0  0  0  0  0
  -28.4622  -13.6800   21.8496 H   0  0  0  0  0  0
  -25.2743   -9.5697   22.4795 H   0  0  0  0  0  0
  -23.9978   -7.4641   22.7487 H   0  0  0  0  0  0
  -21.0835   -8.8795   19.8973 H   0  0  0  0  0  0
  -22.3688  -10.9688   19.6165 H   0  0  0  0  0  0
  -21.2027   -7.6151   23.9710 H   0  0  0  0  0  0
  -21.1462   -6.0521   25.9069 H   0  0  0  0  0  0
  -22.0608   -2.7612   23.2826 H   0  0  0  0  0  0
  -22.3978  -11.9952   22.4860 H   0  0  0  0  0  0
  -21.0984  -13.1309   22.2497 H   0  0  0  0  0  0
  -24.6394  -15.8404   20.4855 H   0  0  0  0  0  0
  -26.2509  -15.6295   20.0273 H   0  0  0  0  0  0
  -26.7097  -32.5536   23.1122 H   0  0  0  0  0  0
  -25.0127  -33.9808   25.0493 H   0  0  0  0  0  0
  -22.6835  -31.2966   21.4047 H   0  0  0  0  0  0
  -23.3742  -35.9677   23.3304 H   0  0  0  0  0  0
  -24.3590  -36.8951   22.2052 H   0  0  0  0  0  0
  -23.7290  -37.6542   23.6659 H   0  0  0  0  0  0
  -26.0265  -31.5935   20.5801 H   0  0  0  0  0  0
  -26.8152  -30.8952   21.9687 H   0  0  0  0  0  0
  -28.0922  -29.0990   21.1889 H   0  0  0  0  0  0
  -26.0955  -25.9833   18.9782 H   0  0  0  0  0  0
  -23.9964  -27.2961   18.9998 H   0  0  0  0  0  0
  -23.6800  -30.5693   19.3893 H   0  0  0  0  0  0
  -22.7335  -29.2052   19.8953 H   0  0  0  0  0  0
  -25.1297  -36.1958   25.0809 H   0  0  0  0  0  0
  -21.0005  -28.3073   24.1404 H   0  0  0  0  0  0
  -20.5986  -26.2163   23.3427 H   0  0  0  0  0  0
  -21.6649  -26.7575   22.0902 H   0  0  0  0  0  0
  -19.6969  -25.6124   21.1256 H   0  0  0  0  0  0
  -19.6746  -27.2961   20.6592 H   0  0  0  0  0  0
  -17.4281  -26.6710   21.3785 H   0  0  0  0  0  0
  -18.0171  -25.9960   22.8795 H   0  0  0  0  0  0
  -19.7929  -30.7111   24.2283 H   0  0  0  0  0  0
  -17.5006  -31.6220   24.5069 H   0  0  0  0  0  0
  -15.5352  -30.2919   23.7526 H   0  0  0  0  0  0
  -15.8661  -28.0835   22.6928 H   0  0  0  0  0  0
  -24.5870  -30.7072   25.7784 H   0  0  0  0  0  0
  -24.8985  -32.2857   26.4924 H   0  0  0  0  0  0
  -25.8098  -30.8822   27.0189 H   0  0  0  0  0  0
  -26.2870  -29.6771   24.1117 H   0  0  0  0  0  0
  -27.4198  -29.7278   25.4418 H   0  0  0  0  0  0
  -27.8618  -30.4410   23.9096 H   0  0  0  0  0  0
  -27.2613  -33.3572   26.2061 H   0  0  0  0  0  0
  -28.3800  -32.6909   25.0262 H   0  0  0  0  0  0
  -28.0713  -31.8422   26.5351 H   0  0  0  0  0  0
  -28.2591  -38.0115   24.7480 H   0  0  0  0  0  0
  -28.1101  -36.2647   24.6314 H   0  0  0  0  0  0
  -27.2309  -37.1471   25.8867 H   0  0  0  0  0  0
  -20.9294  -29.8528   21.6764 H   0  0  0  0  0  0
  -26.0200  -38.2859   24.1347 H   0  0  0  0  0  0
  -32.9839  -19.0701   20.0459 H   0  0  0  0  0  0
  -31.5904  -20.7233   21.2241 H   0  0  0  0  0  0
  -32.3958  -16.7559   20.0003 H   0  0  0  0  0  0
  -27.1932  -23.6997   21.0670 H   0  0  0  0  0  0
  -30.1626  -24.4457   21.1947 H   0  0  0  0  0  0
  -27.5824  -17.9004   22.0849 H   0  0  0  0  0  0
  -28.4652  -17.8169   23.6111 H   0  0  0  0  0  0
  -28.2956  -16.3914   22.6125 H   0  0  0  0  0  0
  -29.5967  -20.3516   23.6458 H   0  0  0  0  0  0
  -28.2190  -20.0626   22.6224 H   0  0  0  0  0  0
  -29.3208  -26.5845   21.9470 H   0  0  0  0  0  0
  -27.6833  -25.9947   21.9678 H   0  0  0  0  0  0
  -29.2531  -15.3245   21.5736 H   0  0  0  0  0  0
  -29.5795  -22.4324   22.7720 H   0  0  0  0  0  0
  1 25  1  0  0  0
  1 30  2  0  0  0
  1 83  1  0  0  0
  2  3  1  0  0  0
  2 25  1  0  0  0
  2 86  1  0  0  0
  2 87  1  0  0  0
  3  4  1  0  0  0
  3 88  1  0  0  0
  3 89  1  0  0  0
  4  5  1  0  0  0
  4 90  1  0  0  0
  4 91  1  0  0  0
  5  6  1  0  0  0
  5 26  1  0  0  0
  5 92  1  0  0  0
  6 25  1  0  0  0
  6 93  1  0  0  0
  6 94  1  0  0  0
  7  8  2  0  0  0
  7 26  1  0  0  0
  7 29  1  0  0  0
  8  9  1  0  0  0
  8 22  1  0  0  0
  9 10  1  0  0  0
  9 27  2  0  0  0
 10 11  2  0  0  0
 10 15  1  0  0  0
 11 12  1  0  0  0
 11 95  1  0  0  0
 12 13  2  0  0  0
 12 96  1  0  0  0
 13 14  1  0  0  0
 13 31  1  0  0  0
 14 15  2  0  0  0
 14 97  1  0  0  0
 15 98  1  0  0  0
 16 17  2  0  0  0
 16 21  1  0  0  0
 16 31  1  0  0  0
 17 18  1  0  0  0
 17 99  1  0  0  0
 18 19  2  0  0  0
 18100  1  0  0  0
 19 20  1  0  0  0
 19 24  1  0  0  0
 20 21  2  0  0  0
 20101  1  0  0  0
 21 23  1  0  0  0
 22 28  1  0  0  0
 22 32  2  0  0  0
 26 27  1  0  0  0
 28102  1  0  0  0
 28103  1  0  0  0
 29104  1  0  0  0
 29105  1  0  0  0
 33 34  1  0  0  0
 33 66  1  0  0  0
 33 70  2  0  0  0
 34 36  1  0  0  0
 34 59  1  0  0  0
 34106  1  0  0  0
 35 44  2  0  0  0
 35 45  1  0  0  0
 35 68  1  0  0  0
 36 56  1  0  0  0
 36107  1  0  0  0
 37 39  1  0  0  0
 37 47  1  0  0  0
 37 66  1  0  0  0
 37108  1  0  0  0
 38 43  2  0  0  0
 38 46  1  0  0  0
 38 47  1  0  0  0
 39 64  1  0  0  0
 39 67  2  0  0  0
 40 52  1  0  0  0
 40 53  2  0  0  0
 40 58  1  0  0  0
 41109  1  0  0  0
 41110  1  0  0  0
 41111  1  0  0  0
 41 48  1  0  0  0
 42 43  1  0  0  0
 42 66  1  0  0  0
 42112  1  0  0  0
 42113  1  0  0  0
 43 44  1  0  0  0
 44114  1  0  0  0
 45 46  2  0  0  0
 45115  1  0  0  0
 46116  1  0  0  0
 47117  1  0  0  0
 47118  1  0  0  0
 48 56  1  0  0  0
 48 65  1  0  0  0
 48119  1  0  0  0
 49 50  1  0  0  0
 49 53  1  0  0  0
 49 64  1  0  0  0
 49120  1  0  0  0
 50 51  1  0  0  0
 50121  1  0  0  0
 50122  1  0  0  0
 51 52  1  0  0  0
 51123  1  0  0  0
 51124  1  0  0  0
 52125  1  0  0  0
 52126  1  0  0  0
 53 54  1  0  0  0
 54 55  2  0  0  0
 54127  1  0  0  0
 55 57  1  0  0  0
 55128  1  0  0  0
 56 69  2  0  0  0
 57 58  2  0  0  0
 57129  1  0  0  0
 58130  1  0  0  0
 59 60  1  0  0  0
 59 61  1  0  0  0
 59 62  1  0  0  0
 60131  1  0  0  0
 60132  1  0  0  0
 60133  1  0  0  0
 61134  1  0  0  0
 61135  1  0  0  0
 61136  1  0  0  0
 62137  1  0  0  0
 62138  1  0  0  0
 62139  1  0  0  0
 63 65  1  0  0  0
 63140  1  0  0  0
 63141  1  0  0  0
 63142  1  0  0  0
 64143  1  0  0  0
 65144  1  0  0  0
 68 82  1  0  0  0
 71 72  2  0  0  0
 71 73  1  0  0  0
 71145  1  0  0  0
 72 74  1  0  0  0
 72146  1  0  0  0
 73 76  2  0  0  0
 73147  1  0  0  0
 74 75  2  0  0  0
 74 81  1  0  0  0
 75 76  1  0  0  0
 75 80  1  0  0  0
 76 83  1  0  0  0
 77 78  2  0  0  0
 77 79  1  0  0  0
 77148  1  0  0  0
 78 82  1  0  0  0
 78149  1  0  0  0
 79 84  1  0  0  0
 79 85  2  0  0  0
 80150  1  0  0  0
 80151  1  0  0  0
 80152  1  0  0  0
 81 84  1  0  0  0
 81153  1  0  0  0
 81154  1  0  0  0
 82155  1  0  0  0
 82156  1  0  0  0
 83157  1  0  0  0
 84158  1  0  0  0
M  ISO  4   1 100  68 101  82 101  83 100
M  END
> <chiral flag>
0

> <version>
0

> <s_m_source_file>
/data/baiqing/PycharmProjects/Reinvent-master-3.2/result/LINK_invent/BTK/process_docking_weight1_custom_product_contain_oxygen_bond_distance_aromatic_linkinvent_7_9_3/rearranged_h_0043.sdf

> <i_m_source_file_index>
73

> <r_mmod_Potential_Energy-OPLS-2005>
-138.256576538086

> <r_mmod_Stretch_Energy-OPLS-2005>
43.0620918273926

> <r_mmod_Bend_Energy-OPLS-2005>
101.990440368652

> <r_mmod_Torsional_Energy-OPLS-2005>
258.691192626953

> <r_mmod_Improper_Torsional_Energy-OPLS-2005>
5.47321176528931

> <r_mmod_Van_der_Waal_Energy-OPLS-2005>
162.219619750977

> <r_mmod_Electrostatic_Energy-OPLS-2005>
-485.885772705078

> <r_mmod_Solvation_Energy-OPLS-2005>
-239.69108581543

> <b_mmod_Minimization_Converged-OPLS-2005>
0

> <r_mmod_RMS_Derivative-OPLS-2005>
4.49102258682251

$$$$
73
                    3D
 Structure written by MMmdl.
159167  0  0  1  0            999 V2000
  -30.6937  -14.4166   20.6496 C   0  0  0  0  0  0
  -30.4308  -12.2950   19.3921 C   0  0  0  0  0  0
  -29.4976  -12.5357   18.1866 C   0  0  0  0  0  0
  -28.0187  -12.3818   18.6005 C   0  0  0  0  0  0
  -27.6708  -13.1935   19.8767 C   0  0  2  0  0  0
  -28.7070  -12.9041   20.9839 C   0  0  0  0  0  0
  -25.2641  -13.8140   20.5649 C   0  0  0  0  0  0
  -24.1885  -13.0432   20.9138 C   0  0  0  0  0  0
  -24.6407  -11.6888   20.8669 C   0  0  0  0  0  0
  -23.9073  -10.4280   21.0364 C   0  0  0  0  0  0
  -24.3615   -9.4207   21.9151 C   0  0  0  0  0  0
  -23.6276   -8.2253   22.0752 C   0  0  0  0  0  0
  -22.4244   -8.0293   21.3557 C   0  0  0  0  0  0
  -21.9894   -9.0269   20.4648 C   0  0  0  0  0  0
  -22.7236  -10.2121   20.3031 C   0  0  0  0  0  0
  -21.6853   -6.0730   22.5294 C   0  0  0  0  0  0
  -21.4012   -6.5642   23.8234 C   0  0  0  0  0  0
  -21.3661   -5.6787   24.9190 C   0  0  0  0  0  0
  -21.6047   -4.3062   24.7236 C   0  0  0  0  0  0
  -21.8812   -3.8140   23.4361 C   0  0  0  0  0  0
  -21.9188   -4.6957   22.3416 C   0  0  0  0  0  0
  -22.7919  -13.5231   21.1845 C   0  0  0  0  0  0
  -22.1660   -4.2150   21.0992 F   0  0  0  0  0  0
  -21.5627   -3.4550   25.7751 F   0  0  0  0  0  0
  -30.0519  -13.2307   20.4598 N   0  0  0  0  0  0
  -26.3070  -12.9286   20.3306 N   0  0  0  0  0  0
  -25.9321  -11.6446   20.5671 N   0  0  0  0  0  0
  -22.0555  -12.8224   22.0390 N   0  0  0  0  0  0
  -25.4373  -15.1875   20.4133 N   0  0  0  0  0  0
  -31.7427  -14.7259   20.0705 O   0  0  0  0  0  0
  -21.6634   -6.8872   21.4251 O   0  0  0  0  0  0
  -22.3624  -14.5554   20.6717 O   0  0  0  0  0  0
  -24.6142  -31.8684   23.2100 C   0  0  0  0  0  0
  -25.9018  -32.4838   23.8430 C   0  0  1  0  0  0
  -27.2417  -27.4447   20.0982 C   0  0  0  0  0  0
  -25.5870  -33.8631   24.2359 N   0  0  0  0  0  0
  -23.4043  -30.4887   21.5499 C   0  0  2  0  0  0
  -24.8529  -28.9505   20.1204 C   0  0  0  0  0  0
  -22.7414  -29.4660   22.5013 C   0  0  0  0  0  0
  -18.0274  -28.1402   22.8508 C   0  0  0  0  0  0
  -24.1461  -36.7311   23.2643 C   0  0  0  0  0  0
  -25.9303  -30.8375   21.3604 C   0  0  0  0  0  0
  -26.0116  -29.4673   20.7152 C   0  0  0  0  0  0
  -27.2142  -28.7236   20.6985 C   0  0  0  0  0  0
  -26.0723  -26.9351   19.4997 C   0  0  0  0  0  0
  -24.8771  -27.6813   19.5126 C   0  0  0  0  0  0
  -23.6133  -29.8161   20.1661 C   0  0  0  0  0  0
  -25.4085  -36.3134   24.0361 C   0  0  1  0  0  0
  -20.5853  -28.3679   23.1331 C   0  0  2  0  0  0
  -20.6753  -26.9418   22.5425 C   0  0  0  0  0  0
  -19.5724  -26.6413   21.5220 C   0  0  0  0  0  0
  -18.1906  -26.7944   22.1641 C   0  0  0  0  0  0
  -19.1519  -28.8862   23.2914 C   0  0  0  0  0  0
  -18.9444  -30.1468   23.8945 C   0  0  0  0  0  0
  -17.6440  -30.6595   24.0578 C   0  0  0  0  0  0
  -25.9013  -34.9487   23.5160 C   0  0  0  0  0  0
  -16.5334  -29.9107   23.6323 C   0  0  0  0  0  0
  -16.7266  -28.6516   23.0357 C   0  0  0  0  0  0
  -26.4443  -31.6614   25.0749 C   0  0  0  0  0  0
  -25.3722  -31.3693   26.1506 C   0  0  0  0  0  0
  -27.0269  -30.3070   24.6093 C   0  0  0  0  0  0
  -27.6049  -32.4320   25.7483 C   0  0  0  0  0  0
  -27.5573  -37.1811   24.8476 C   0  0  0  0  0  0
  -21.4140  -29.3029   22.3731 N   0  0  0  0  0  0
  -26.4286  -37.3813   23.9427 N   0  0  0  0  0  0
  -24.6689  -31.0796   22.0998 N   0  0  0  0  0  0
  -23.4176  -28.8218   23.3073 O   0  0  0  0  0  0
  -28.3924  -26.6918   20.0714 O   0  0  0  0  0  0
  -26.5571  -34.8945   22.4717 O   0  0  0  0  0  0
  -23.5336  -32.1445   23.7464 O   0  0  0  0  0  0
  -30.5045  -18.9635   21.2771 C   0  0  0  0  0  0
  -30.7841  -17.5835   21.0970 C   0  0  0  0  0  0
  -28.7094  -17.0341   22.2287 C   0  0  0  0  0  0
  -29.3419  -19.3918   21.9630 C   0  0  0  0  0  0
  -28.4219  -18.4028   22.4148 C   0  0  0  0  0  0
  -29.8912  -16.6050   21.5942 C   0  0  0  0  0  0
  -29.1579  -20.8256   22.2969 C   0  0  0  0  0  0
  -27.1131  -18.7523   23.1128 C   0  0  0  0  0  0
  -28.7825  -24.2629   20.5638 C   0  0  0  0  0  0
  -28.8381  -23.2487   21.7361 C   0  0  0  0  0  0
  -28.4608  -25.6859   21.0927 C   0  0  0  0  0  0
  -29.0157  -21.1481   23.5823 N   0  0  0  0  0  0
  -30.0936  -15.1964   21.5591 N   0  0  0  0  0  0
  -29.1109  -21.8261   21.3897 N   0  3  0  0  0  0
  -31.4770  -12.3988   19.1022 H   0  0  0  0  0  0
  -30.3199  -11.2675   19.7434 H   0  0  0  0  0  0
  -29.7321  -11.8386   17.3820 H   0  0  0  0  0  0
  -29.6675  -13.5338   17.7786 H   0  0  0  0  0  0
  -27.8365  -11.3205   18.7768 H   0  0  0  0  0  0
  -27.3629  -12.6681   17.7769 H   0  0  0  0  0  0
  -27.7362  -14.2498   19.6162 H   0  0  0  0  0  0
  -28.6726  -11.8472   21.2535 H   0  0  0  0  0  0
  -28.4391  -13.4282   21.9001 H   0  0  0  0  0  0
  -25.2769   -9.5692   22.4712 H   0  0  0  0  0  0
  -24.0004   -7.4643   22.7475 H   0  0  0  0  0  0
  -21.0828   -8.8754   19.8965 H   0  0  0  0  0  0
  -22.3693  -10.9635   19.6130 H   0  0  0  0  0  0
  -21.2005   -7.6152   23.9747 H   0  0  0  0  0  0
  -21.1492   -6.0517   25.9102 H   0  0  0  0  0  0
  -22.0578   -2.7607   23.2860 H   0  0  0  0  0  0
  -22.4141  -11.9849   22.4742 H   0  0  0  0  0  0
  -21.1186  -13.1266   22.2609 H   0  0  0  0  0  0
  -24.6597  -15.8316   20.5109 H   0  0  0  0  0  0
  -26.2906  -15.6367   20.1067 H   0  0  0  0  0  0
  -26.7086  -32.5573   23.1208 H   0  0  0  0  0  0
  -25.0043  -33.9792   25.0527 H   0  0  0  0  0  0
  -22.6935  -31.3051   21.4073 H   0  0  0  0  0  0
  -23.3728  -35.9638   23.3338 H   0  0  0  0  0  0
  -24.3548  -36.8878   22.2047 H   0  0  0  0  0  0
  -23.7194  -37.6530   23.6617 H   0  0  0  0  0  0
  -26.0305  -31.6010   20.5869 H   0  0  0  0  0  0
  -26.8199  -30.9017   21.9749 H   0  0  0  0  0  0
  -28.1130  -29.1223   21.1509 H   0  0  0  0  0  0
  -26.0932  -25.9648   19.0228 H   0  0  0  0  0  0
  -23.9899  -27.2714   19.0524 H   0  0  0  0  0  0
  -23.7207  -30.5878   19.4017 H   0  0  0  0  0  0
  -22.7406  -29.2293   19.8739 H   0  0  0  0  0  0
  -25.1250  -36.2031   25.0859 H   0  0  0  0  0  0
  -20.9954  -28.3232   24.1445 H   0  0  0  0  0  0
  -20.5647  -26.2288   23.3610 H   0  0  0  0  0  0
  -21.6625  -26.7451   22.1216 H   0  0  0  0  0  0
  -19.6867  -25.6330   21.1234 H   0  0  0  0  0  0
  -19.6654  -27.3237   20.6759 H   0  0  0  0  0  0
  -17.4170  -26.6708   21.4041 H   0  0  0  0  0  0
  -18.0307  -26.0082   22.9047 H   0  0  0  0  0  0
  -19.7924  -30.7271   24.2330 H   0  0  0  0  0  0
  -17.5004  -31.6285   24.5173 H   0  0  0  0  0  0
  -15.5339  -30.3027   23.7632 H   0  0  0  0  0  0
  -15.8665  -28.0859   22.7055 H   0  0  0  0  0  0
  -24.5913  -30.7007   25.7855 H   0  0  0  0  0  0
  -24.8877  -32.2822   26.4980 H   0  0  0  0  0  0
  -25.8101  -30.8873   27.0253 H   0  0  0  0  0  0
  -26.2805  -29.6848   24.1127 H   0  0  0  0  0  0
  -27.4033  -29.7291   25.4543 H   0  0  0  0  0  0
  -27.8650  -30.4412   23.9242 H   0  0  0  0  0  0
  -27.2701  -33.3610   26.2106 H   0  0  0  0  0  0
  -28.3822  -32.6883   25.0273 H   0  0  0  0  0  0
  -28.0751  -31.8409   26.5351 H   0  0  0  0  0  0
  -28.2629  -38.0075   24.7524 H   0  0  0  0  0  0
  -28.1036  -36.2619   24.6309 H   0  0  0  0  0  0
  -27.2299  -37.1477   25.8882 H   0  0  0  0  0  0
  -20.9314  -29.8757   21.6951 H   0  0  0  0  0  0
  -26.0188  -38.2904   24.1428 H   0  0  0  0  0  0
  -31.2256  -19.6982   20.9384 H   0  0  0  0  0  0
  -31.7085  -17.2965   20.6160 H   0  0  0  0  0  0
  -28.0119  -16.2973   22.5996 H   0  0  0  0  0  0
  -26.3974  -17.9325   23.0406 H   0  0  0  0  0  0
  -26.6393  -19.6288   22.6691 H   0  0  0  0  0  0
  -27.2834  -18.9445   24.1724 H   0  0  0  0  0  0
  -28.0223  -23.9614   19.8424 H   0  0  0  0  0  0
  -29.7345  -24.2832   20.0336 H   0  0  0  0  0  0
  -27.8799  -23.2839   22.2578 H   0  0  0  0  0  0
  -29.5875  -23.5831   22.4544 H   0  0  0  0  0  0
  -29.2355  -25.9947   21.7949 H   0  0  0  0  0  0
  -27.5365  -25.6441   21.6715 H   0  0  0  0  0  0
  -28.9055  -22.0963   23.8954 H   0  0  0  0  0  0
  -29.0839  -20.4181   24.2738 H   0  0  0  0  0  0
  -29.3813  -14.6783   22.0479 H   0  0  0  0  0  0
  -29.1413  -21.5644   20.4130 H   0  0  0  0  0  0
  1 25  1  0  0  0
  1 30  2  0  0  0
  1 83  1  0  0  0
  2  3  1  0  0  0
  2 25  1  0  0  0
  2 85  1  0  0  0
  2 86  1  0  0  0
  3  4  1  0  0  0
  3 87  1  0  0  0
  3 88  1  0  0  0
  4  5  1  0  0  0
  4 89  1  0  0  0
  4 90  1  0  0  0
  5  6  1  0  0  0
  5 26  1  0  0  0
  5 91  1  0  0  0
  6 25  1  0  0  0
  6 92  1  0  0  0
  6 93  1  0  0  0
  7  8  2  0  0  0
  7 26  1  0  0  0
  7 29  1  0  0  0
  8  9  1  0  0  0
  8 22  1  0  0  0
  9 10  1  0  0  0
  9 27  2  0  0  0
 10 11  2  0  0  0
 10 15  1  0  0  0
 11 12  1  0  0  0
 11 94  1  0  0  0
 12 13  2  0  0  0
 12 95  1  0  0  0
 13 14  1  0  0  0
 13 31  1  0  0  0
 14 15  2  0  0  0
 14 96  1  0  0  0
 15 97  1  0  0  0
 16 17  2  0  0  0
 16 21  1  0  0  0
 16 31  1  0  0  0
 17 18  1  0  0  0
 17 98  1  0  0  0
 18 19  2  0  0  0
 18 99  1  0  0  0
 19 20  1  0  0  0
 19 24  1  0  0  0
 20 21  2  0  0  0
 20100  1  0  0  0
 21 23  1  0  0  0
 22 28  1  0  0  0
 22 32  2  0  0  0
 26 27  1  0  0  0
 28101  1  0  0  0
 28102  1  0  0  0
 29103  1  0  0  0
 29104  1  0  0  0
 33 34  1  0  0  0
 33 66  1  0  0  0
 33 70  2  0  0  0
 34 36  1  0  0  0
 34 59  1  0  0  0
 34105  1  0  0  0
 35 44  2  0  0  0
 35 45  1  0  0  0
 35 68  1  0  0  0
 36 56  1  0  0  0
 36106  1  0  0  0
 37 39  1  0  0  0
 37 47  1  0  0  0
 37 66  1  0  0  0
 37107  1  0  0  0
 38 43  2  0  0  0
 38 46  1  0  0  0
 38 47  1  0  0  0
 39 64  1  0  0  0
 39 67  2  0  0  0
 40 52  1  0  0  0
 40 53  2  0  0  0
 40 58  1  0  0  0
 41108  1  0  0  0
 41109  1  0  0  0
 41110  1  0  0  0
 41 48  1  0  0  0
 42 43  1  0  0  0
 42 66  1  0  0  0
 42111  1  0  0  0
 42112  1  0  0  0
 43 44  1  0  0  0
 44113  1  0  0  0
 45 46  2  0  0  0
 45114  1  0  0  0
 46115  1  0  0  0
 47116  1  0  0  0
 47117  1  0  0  0
 48 56  1  0  0  0
 48 65  1  0  0  0
 48118  1  0  0  0
 49 50  1  0  0  0
 49 53  1  0  0  0
 49 64  1  0  0  0
 49119  1  0  0  0
 50 51  1  0  0  0
 50120  1  0  0  0
 50121  1  0  0  0
 51 52  1  0  0  0
 51122  1  0  0  0
 51123  1  0  0  0
 52124  1  0  0  0
 52125  1  0  0  0
 53 54  1  0  0  0
 54 55  2  0  0  0
 54126  1  0  0  0
 55 57  1  0  0  0
 55127  1  0  0  0
 56 69  2  0  0  0
 57 58  2  0  0  0
 57128  1  0  0  0
 58129  1  0  0  0
 59 60  1  0  0  0
 59 61  1  0  0  0
 59 62  1  0  0  0
 60130  1  0  0  0
 60131  1  0  0  0
 60132  1  0  0  0
 61133  1  0  0  0
 61134  1  0  0  0
 61135  1  0  0  0
 62136  1  0  0  0
 62137  1  0  0  0
 62138  1  0  0  0
 63 65  1  0  0  0
 63139  1  0  0  0
 63140  1  0  0  0
 63141  1  0  0  0
 64142  1  0  0  0
 65143  1  0  0  0
 68 81  1  0  0  0
 71 72  2  0  0  0
 71 74  1  0  0  0
 71144  1  0  0  0
 72 76  1  0  0  0
 72145  1  0  0  0
 73 75  1  0  0  0
 73 76  2  0  0  0
 73146  1  0  0  0
 74 75  2  0  0  0
 74 77  1  0  0  0
 75 78  1  0  0  0
 76 83  1  0  0  0
 77 82  1  0  0  0
 77 84  2  0  0  0
 78147  1  0  0  0
 78148  1  0  0  0
 78149  1  0  0  0
 79 80  1  0  0  0
 79 81  1  0  0  0
 79150  1  0  0  0
 79151  1  0  0  0
 80 84  1  0  0  0
 80152  1  0  0  0
 80153  1  0  0  0
 81154  1  0  0  0
 81155  1  0  0  0
 82156  1  0  0  0
 82157  1  0  0  0
 83158  1  0  0  0
 84159  1  0  0  0
M  CHG  1  84   1
M  ISO  4   1 100  68 101  81 101  83 100
M  END
> <chiral flag>
0

> <version>
0

> <s_m_source_file>
/data/baiqing/PycharmProjects/Reinvent-master-3.2/result/LINK_invent/BTK/process_docking_weight1_custom_product_contain_oxygen_bond_distance_aromatic_linkinvent_7_9_3/rearranged_h_0043.sdf

> <i_m_source_file_index>
74

> <r_mmod_Potential_Energy-OPLS-2005>
-191.636672973633

> <r_mmod_Stretch_Energy-OPLS-2005>
39.1005096435547

> <r_mmod_Bend_Energy-OPLS-2005>
108.052299499512

> <r_mmod_Torsional_Energy-OPLS-2005>
246.857391357422

> <r_mmod_Improper_Torsional_Energy-OPLS-2005>
4.65801048278809

> <r_mmod_Van_der_Waal_Energy-OPLS-2005>
154.224746704102

> <r_mmod_Electrostatic_Energy-OPLS-2005>
-343.782440185547

> <r_mmod_Solvation_Energy-OPLS-2005>
-410.002166748047

> <b_mmod_Minimization_Converged-OPLS-2005>
0

> <r_mmod_RMS_Derivative-OPLS-2005>
4.38591241836548

$$$$
74
                    3D
 Structure written by MMmdl.
161170  0  0  1  0            999 V2000
  -30.5980  -14.6509   20.5141 C   0  0  0  0  0  0
  -30.4466  -12.4042   19.4478 C   0  0  0  0  0  0
  -29.5125  -12.5249   18.2211 C   0  0  0  0  0  0
  -28.0329  -12.3608   18.6268 C   0  0  0  0  0  0
  -27.6567  -13.2164   19.8655 C   0  0  2  0  0  0
  -28.7000  -13.0424   20.9917 C   0  0  0  0  0  0
  -25.2563  -13.8167   20.5678 C   0  0  0  0  0  0
  -24.1818  -13.0428   20.9150 C   0  0  0  0  0  0
  -24.6386  -11.6902   20.8691 C   0  0  0  0  0  0
  -23.9050  -10.4287   21.0371 C   0  0  0  0  0  0
  -24.3604   -9.4206   21.9150 C   0  0  0  0  0  0
  -23.6286   -8.2238   22.0730 C   0  0  0  0  0  0
  -22.4266   -8.0268   21.3534 C   0  0  0  0  0  0
  -21.9892   -9.0233   20.4634 C   0  0  0  0  0  0
  -22.7215  -10.2115   20.3035 C   0  0  0  0  0  0
  -21.6853   -6.0720   22.5275 C   0  0  0  0  0  0
  -21.4021   -6.5626   23.8205 C   0  0  0  0  0  0
  -21.3660   -5.6780   24.9168 C   0  0  0  0  0  0
  -21.6045   -4.3042   24.7225 C   0  0  0  0  0  0
  -21.8822   -3.8132   23.4346 C   0  0  0  0  0  0
  -21.9192   -4.6950   22.3402 C   0  0  0  0  0  0
  -22.7839  -13.5217   21.1825 C   0  0  0  0  0  0
  -22.1661   -4.2133   21.0980 F   0  0  0  0  0  0
  -21.5628   -3.4528   25.7738 F   0  0  0  0  0  0
  -30.0165  -13.4090   20.4423 N   0  0  0  0  0  0
  -26.3000  -12.9348   20.3305 N   0  0  0  0  0  0
  -25.9319  -11.6499   20.5700 N   0  0  0  0  0  0
  -22.0493  -12.8224   22.0402 N   0  0  0  0  0  0
  -25.4285  -15.1888   20.4147 N   0  0  0  0  0  0
  -31.7311  -14.8553   20.0658 O   0  0  0  0  0  0
  -21.6637   -6.8862   21.4235 O   0  0  0  0  0  0
  -22.3510  -14.5511   20.6657 O   0  0  0  0  0  0
  -24.6264  -31.8570   23.1987 C   0  0  0  0  0  0
  -25.9114  -32.4753   23.8314 C   0  0  1  0  0  0
  -27.2366  -27.3075   20.1108 C   0  0  0  0  0  0
  -25.5928  -33.8557   24.2241 N   0  0  0  0  0  0
  -23.4206  -30.4774   21.5398 C   0  0  2  0  0  0
  -24.8694  -28.9258   20.1066 C   0  0  0  0  0  0
  -22.7476  -29.4603   22.4914 C   0  0  0  0  0  0
  -18.0288  -28.1385   22.8482 C   0  0  0  0  0  0
  -24.1487  -36.7274   23.2645 C   0  0  0  0  0  0
  -25.9610  -30.7808   21.3735 C   0  0  0  0  0  0
  -26.0341  -29.4067   20.7150 C   0  0  0  0  0  0
  -27.2137  -28.6059   20.7121 C   0  0  0  0  0  0
  -26.0446  -26.8719   19.4900 C   0  0  0  0  0  0
  -24.8764  -27.6630   19.4879 C   0  0  0  0  0  0
  -23.6365  -29.8071   20.1556 C   0  0  0  0  0  0
  -25.4116  -36.3063   24.0324 C   0  0  1  0  0  0
  -20.5886  -28.3683   23.1279 C   0  0  2  0  0  0
  -20.6768  -26.9402   22.5418 C   0  0  0  0  0  0
  -19.5752  -26.6378   21.5211 C   0  0  0  0  0  0
  -18.1930  -26.7930   22.1615 C   0  0  0  0  0  0
  -19.1541  -28.8853   23.2877 C   0  0  0  0  0  0
  -18.9468  -30.1456   23.8888 C   0  0  0  0  0  0
  -17.6471  -30.6592   24.0556 C   0  0  0  0  0  0
  -25.9056  -34.9437   23.5086 C   0  0  0  0  0  0
  -16.5360  -29.9089   23.6329 C   0  0  0  0  0  0
  -16.7277  -28.6508   23.0348 C   0  0  0  0  0  0
  -26.4503  -31.6580   25.0698 C   0  0  0  0  0  0
  -25.3751  -31.3723   26.1438 C   0  0  0  0  0  0
  -27.0357  -30.3004   24.6169 C   0  0  0  0  0  0
  -27.6042  -32.4341   25.7479 C   0  0  0  0  0  0
  -27.5571  -37.1796   24.8462 C   0  0  0  0  0  0
  -21.4188  -29.3027   22.3664 N   0  0  0  0  0  0
  -26.4281  -37.3767   23.9409 N   0  0  0  0  0  0
  -24.6876  -31.0566   22.0934 N   0  0  0  0  0  0
  -23.4196  -28.8160   23.3013 O   0  0  0  0  0  0
  -28.3841  -26.4973   20.1926 O   0  0  0  0  0  0
  -26.5630  -34.8916   22.4652 O   0  0  0  0  0  0
  -23.5429  -32.1375   23.7313 O   0  0  0  0  0  0
  -29.3607  -19.3276   21.8994 C   0  0  0  0  0  0
  -29.6953  -17.9462   21.9949 C   0  0  0  0  0  0
  -29.5471  -17.7490   19.6080 C   0  0  0  0  0  0
  -29.0421  -19.9627   20.6688 C   0  0  0  0  0  0
  -29.1814  -19.1360   19.5078 C   0  0  0  0  0  0
  -29.7699  -17.1035   20.8569 C   0  0  0  0  0  0
  -28.1332  -23.8776   20.2741 C   0  0  0  0  0  0
  -30.8858  -24.0340   19.6517 C   0  0  0  0  0  0
  -30.0341  -25.1365   18.9990 C   0  0  0  0  0  0
  -30.1839  -22.6688   19.5505 C   0  0  0  0  0  0
  -28.5624  -25.1980   19.4879 C   0  0  2  0  0  0
  -28.8664  -19.6889   18.1286 C   0  0  0  0  0  0
  -28.3224  -21.3808   20.7113 C   0  0  0  0  0  0
  -28.8528  -22.6915   20.1652 N   0  0  0  0  0  0
  -29.8176  -15.6486   21.0385 N   0  0  0  0  0  0
  -27.0946  -23.9237   20.9407 O   0  0  0  0  0  0
  -31.4863  -12.5431   19.1456 H   0  0  0  0  0  0
  -30.3948  -11.4017   19.8763 H   0  0  0  0  0  0
  -29.7798  -11.7822   17.4682 H   0  0  0  0  0  0
  -29.6523  -13.4977   17.7472 H   0  0  0  0  0  0
  -27.8619  -11.3055   18.8412 H   0  0  0  0  0  0
  -27.3819  -12.6072   17.7862 H   0  0  0  0  0  0
  -27.6827  -14.2577   19.5418 H   0  0  0  0  0  0
  -28.7139  -12.0068   21.3348 H   0  0  0  0  0  0
  -28.4375  -13.6344   21.8685 H   0  0  0  0  0  0
  -25.2763   -9.5686   22.4696 H   0  0  0  0  0  0
  -24.0004   -7.4638   22.7455 H   0  0  0  0  0  0
  -21.0815   -8.8745   19.8955 H   0  0  0  0  0  0
  -22.3665  -10.9634   19.6129 H   0  0  0  0  0  0
  -21.2025   -7.6137   23.9709 H   0  0  0  0  0  0
  -21.1477   -6.0506   25.9066 H   0  0  0  0  0  0
  -22.0607   -2.7597   23.2846 H   0  0  0  0  0  0
  -22.4137  -11.9925   22.4845 H   0  0  0  0  0  0
  -21.1090  -13.1210   22.2574 H   0  0  0  0  0  0
  -24.6665  -15.8474   20.5367 H   0  0  0  0  0  0
  -26.2903  -15.6314   20.1211 H   0  0  0  0  0  0
  -26.7177  -32.5412   23.1051 H   0  0  0  0  0  0
  -25.0065  -33.9689   25.0380 H   0  0  0  0  0  0
  -22.7150  -31.2976   21.3935 H   0  0  0  0  0  0
  -23.3747  -35.9608   23.3315 H   0  0  0  0  0  0
  -24.3571  -36.8891   22.2056 H   0  0  0  0  0  0
  -23.7249  -37.6478   23.6669 H   0  0  0  0  0  0
  -26.0997  -31.5457   20.6084 H   0  0  0  0  0  0
  -26.8391  -30.8248   22.0061 H   0  0  0  0  0  0
  -28.1061  -28.9687   21.2018 H   0  0  0  0  0  0
  -25.9796  -25.8975   19.0305 H   0  0  0  0  0  0
  -23.9797  -27.2828   19.0180 H   0  0  0  0  0  0
  -23.7557  -30.5813   19.3968 H   0  0  0  0  0  0
  -22.7566  -29.2362   19.8539 H   0  0  0  0  0  0
  -25.1305  -36.1894   25.0817 H   0  0  0  0  0  0
  -20.9972  -28.3269   24.1402 H   0  0  0  0  0  0
  -20.5646  -26.2303   23.3626 H   0  0  0  0  0  0
  -21.6645  -26.7420   22.1232 H   0  0  0  0  0  0
  -19.6908  -25.6287   21.1250 H   0  0  0  0  0  0
  -19.6692  -27.3183   20.6736 H   0  0  0  0  0  0
  -17.4199  -26.6674   21.4016 H   0  0  0  0  0  0
  -18.0322  -26.0078   22.9018 H   0  0  0  0  0  0
  -19.7953  -30.7266   24.2250 H   0  0  0  0  0  0
  -17.5036  -31.6269   24.5163 H   0  0  0  0  0  0
  -15.5362  -30.2988   23.7665 H   0  0  0  0  0  0
  -15.8675  -28.0828   22.7057 H   0  0  0  0  0  0
  -24.5912  -30.7084   25.7779 H   0  0  0  0  0  0
  -24.8968  -32.2897   26.4883 H   0  0  0  0  0  0
  -25.8101  -30.8892   27.0198 H   0  0  0  0  0  0
  -26.2933  -29.6747   24.1206 H   0  0  0  0  0  0
  -27.4062  -29.7270   25.4674 H   0  0  0  0  0  0
  -27.8799  -30.4280   23.9390 H   0  0  0  0  0  0
  -27.2617  -33.3631   26.2048 H   0  0  0  0  0  0
  -28.3861  -32.6926   25.0327 H   0  0  0  0  0  0
  -28.0707  -31.8488   26.5411 H   0  0  0  0  0  0
  -28.2593  -38.0089   24.7502 H   0  0  0  0  0  0
  -28.1063  -36.2620   24.6293 H   0  0  0  0  0  0
  -27.2293  -37.1457   25.8867 H   0  0  0  0  0  0
  -20.9369  -29.8741   21.6865 H   0  0  0  0  0  0
  -26.0152  -38.2835   24.1416 H   0  0  0  0  0  0
  -29.2609  -19.8891   22.8186 H   0  0  0  0  0  0
  -29.8360  -17.5200   22.9790 H   0  0  0  0  0  0
  -29.5657  -17.1519   18.7065 H   0  0  0  0  0  0
  -31.0706  -24.2785   20.6996 H   0  0  0  0  0  0
  -31.8654  -23.9850   19.1738 H   0  0  0  0  0  0
  -30.0365  -24.9769   17.9195 H   0  0  0  0  0  0
  -30.5214  -26.1000   19.1496 H   0  0  0  0  0  0
  -30.8072  -21.9144   20.0310 H   0  0  0  0  0  0
  -30.0871  -22.3760   18.5044 H   0  0  0  0  0  0
  -27.9603  -25.2202   18.5804 H   0  0  0  0  0  0
  -28.5713  -18.8932   17.4435 H   0  0  0  0  0  0
  -29.7469  -20.1745   17.7082 H   0  0  0  0  0  0
  -28.0522  -20.4118   18.1551 H   0  0  0  0  0  0
  -28.0869  -21.5739   21.7588 H   0  0  0  0  0  0
  -27.3459  -21.2270   20.2507 H   0  0  0  0  0  0
  -29.0291  -15.2803   21.5494 H   0  0  0  0  0  0
  1 25  1  0  0  0
  1 30  2  0  0  0
  1 85  1  0  0  0
  2  3  1  0  0  0
  2 25  1  0  0  0
  2 87  1  0  0  0
  2 88  1  0  0  0
  3  4  1  0  0  0
  3 89  1  0  0  0
  3 90  1  0  0  0
  4  5  1  0  0  0
  4 91  1  0  0  0
  4 92  1  0  0  0
  5  6  1  0  0  0
  5 26  1  0  0  0
  5 93  1  0  0  0
  6 25  1  0  0  0
  6 94  1  0  0  0
  6 95  1  0  0  0
  7  8  2  0  0  0
  7 26  1  0  0  0
  7 29  1  0  0  0
  8  9  1  0  0  0
  8 22  1  0  0  0
  9 10  1  0  0  0
  9 27  2  0  0  0
 10 11  2  0  0  0
 10 15  1  0  0  0
 11 12  1  0  0  0
 11 96  1  0  0  0
 12 13  2  0  0  0
 12 97  1  0  0  0
 13 14  1  0  0  0
 13 31  1  0  0  0
 14 15  2  0  0  0
 14 98  1  0  0  0
 15 99  1  0  0  0
 16 17  2  0  0  0
 16 21  1  0  0  0
 16 31  1  0  0  0
 17 18  1  0  0  0
 17100  1  0  0  0
 18 19  2  0  0  0
 18101  1  0  0  0
 19 20  1  0  0  0
 19 24  1  0  0  0
 20 21  2  0  0  0
 20102  1  0  0  0
 21 23  1  0  0  0
 22 28  1  0  0  0
 22 32  2  0  0  0
 26 27  1  0  0  0
 28103  1  0  0  0
 28104  1  0  0  0
 29105  1  0  0  0
 29106  1  0  0  0
 33 34  1  0  0  0
 33 66  1  0  0  0
 33 70  2  0  0  0
 34 36  1  0  0  0
 34 59  1  0  0  0
 34107  1  0  0  0
 35 44  2  0  0  0
 35 45  1  0  0  0
 35 68  1  0  0  0
 36 56  1  0  0  0
 36108  1  0  0  0
 37 39  1  0  0  0
 37 47  1  0  0  0
 37 66  1  0  0  0
 37109  1  0  0  0
 38 43  2  0  0  0
 38 46  1  0  0  0
 38 47  1  0  0  0
 39 64  1  0  0  0
 39 67  2  0  0  0
 40 52  1  0  0  0
 40 53  2  0  0  0
 40 58  1  0  0  0
 41110  1  0  0  0
 41111  1  0  0  0
 41112  1  0  0  0
 41 48  1  0  0  0
 42 43  1  0  0  0
 42 66  1  0  0  0
 42113  1  0  0  0
 42114  1  0  0  0
 43 44  1  0  0  0
 44115  1  0  0  0
 45 46  2  0  0  0
 45116  1  0  0  0
 46117  1  0  0  0
 47118  1  0  0  0
 47119  1  0  0  0
 48 56  1  0  0  0
 48 65  1  0  0  0
 48120  1  0  0  0
 49 50  1  0  0  0
 49 53  1  0  0  0
 49 64  1  0  0  0
 49121  1  0  0  0
 50 51  1  0  0  0
 50122  1  0  0  0
 50123  1  0  0  0
 51 52  1  0  0  0
 51124  1  0  0  0
 51125  1  0  0  0
 52126  1  0  0  0
 52127  1  0  0  0
 53 54  1  0  0  0
 54 55  2  0  0  0
 54128  1  0  0  0
 55 57  1  0  0  0
 55129  1  0  0  0
 56 69  2  0  0  0
 57 58  2  0  0  0
 57130  1  0  0  0
 58131  1  0  0  0
 59 60  1  0  0  0
 59 61  1  0  0  0
 59 62  1  0  0  0
 60132  1  0  0  0
 60133  1  0  0  0
 60134  1  0  0  0
 61135  1  0  0  0
 61136  1  0  0  0
 61137  1  0  0  0
 62138  1  0  0  0
 62139  1  0  0  0
 62140  1  0  0  0
 63 65  1  0  0  0
 63141  1  0  0  0
 63142  1  0  0  0
 63143  1  0  0  0
 64144  1  0  0  0
 65145  1  0  0  0
 68 81  1  0  0  0
 71 72  2  0  0  0
 71 74  1  0  0  0
 71146  1  0  0  0
 72 76  1  0  0  0
 72147  1  0  0  0
 73 75  1  0  0  0
 73 76  2  0  0  0
 73148  1  0  0  0
 74 75  2  0  0  0
 74 83  1  0  0  0
 75 82  1  0  0  0
 76 85  1  0  0  0
 77 81  1  0  0  0
 77 84  1  0  0  0
 77 86  2  0  0  0
 78 79  1  0  0  0
 78 80  1  0  0  0
 78149  1  0  0  0
 78150  1  0  0  0
 79 81  1  0  0  0
 79151  1  0  0  0
 79152  1  0  0  0
 80 84  1  0  0  0
 80153  1  0  0  0
 80154  1  0  0  0
 81155  1  0  0  0
 82156  1  0  0  0
 82157  1  0  0  0
 82158  1  0  0  0
 83 84  1  0  0  0
 83159  1  0  0  0
 83160  1  0  0  0
 85161  1  0  0  0
M  ISO  4   1 100  68 101  81 101  85 100
M  END
> <chiral flag>
0

> <version>
0

> <s_m_source_file>
/data/baiqing/PycharmProjects/Reinvent-master-3.2/result/LINK_invent/BTK/process_docking_weight1_custom_product_contain_oxygen_bond_distance_aromatic_linkinvent_7_9_3/rearranged_h_0043.sdf

> <i_m_source_file_index>
75

> <r_mmod_Potential_Energy-OPLS-2005>
173.306228637695

> <r_mmod_Stretch_Energy-OPLS-2005>
94.7043380737305

> <r_mmod_Bend_Energy-OPLS-2005>
168.754257202148

> <r_mmod_Torsional_Energy-OPLS-2005>
274.311218261719

> <r_mmod_Improper_Torsional_Energy-OPLS-2005>
6.43611001968384

> <r_mmod_Van_der_Waal_Energy-OPLS-2005>
146.141632080078

> <r_mmod_Electrostatic_Energy-OPLS-2005>
-336.319671630859

> <r_mmod_Solvation_Energy-OPLS-2005>
-232.14079284668

> <b_mmod_Minimization_Converged-OPLS-2005>
0

> <r_mmod_RMS_Derivative-OPLS-2005>
1.53249526023865

$$$$
75
                    3D
 Structure written by MMmdl.
154162  0  0  1  0            999 V2000
  -30.6037  -14.6577   20.5004 C   0  0  0  0  0  0
  -30.4467  -12.4017   19.4542 C   0  0  0  0  0  0
  -29.5130  -12.5054   18.2270 C   0  0  0  0  0  0
  -28.0346  -12.3412   18.6383 C   0  0  0  0  0  0
  -27.6560  -13.2119   19.8658 C   0  0  2  0  0  0
  -28.7019  -13.0659   20.9954 C   0  0  0  0  0  0
  -25.2601  -13.8162   20.5695 C   0  0  0  0  0  0
  -24.1858  -13.0437   20.9216 C   0  0  0  0  0  0
  -24.6408  -11.6907   20.8748 C   0  0  0  0  0  0
  -23.9067  -10.4288   21.0409 C   0  0  0  0  0  0
  -24.3613   -9.4199   21.9190 C   0  0  0  0  0  0
  -23.6289   -8.2232   22.0757 C   0  0  0  0  0  0
  -22.4276   -8.0275   21.3539 C   0  0  0  0  0  0
  -21.9900   -9.0248   20.4646 C   0  0  0  0  0  0
  -22.7235  -10.2129   20.3059 C   0  0  0  0  0  0
  -21.6846   -6.0730   22.5275 C   0  0  0  0  0  0
  -21.4008   -6.5632   23.8208 C   0  0  0  0  0  0
  -21.3666   -5.6786   24.9171 C   0  0  0  0  0  0
  -21.6044   -4.3049   24.7218 C   0  0  0  0  0  0
  -21.8825   -3.8143   23.4339 C   0  0  0  0  0  0
  -21.9187   -4.6959   22.3395 C   0  0  0  0  0  0
  -22.7878  -13.5235   21.1865 C   0  0  0  0  0  0
  -22.1658   -4.2150   21.0973 F   0  0  0  0  0  0
  -21.5632   -3.4529   25.7727 F   0  0  0  0  0  0
  -30.0165  -13.4195   20.4333 N   0  0  0  0  0  0
  -26.3013  -12.9331   20.3327 N   0  0  0  0  0  0
  -25.9333  -11.6494   20.5755 N   0  0  0  0  0  0
  -22.0514  -12.8235   22.0424 N   0  0  0  0  0  0
  -25.4312  -15.1876   20.4071 N   0  0  0  0  0  0
  -31.7665  -14.8396   20.1272 O   0  0  0  0  0  0
  -21.6636   -6.8874   21.4237 O   0  0  0  0  0  0
  -22.3568  -14.5525   20.6684 O   0  0  0  0  0  0
  -24.6261  -31.8582   23.2057 C   0  0  0  0  0  0
  -25.9132  -32.4764   23.8360 C   0  0  1  0  0  0
  -27.2282  -27.3261   20.0948 C   0  0  0  0  0  0
  -25.5968  -33.8571   24.2305 N   0  0  0  0  0  0
  -23.4180  -30.4863   21.5464 C   0  0  2  0  0  0
  -24.8618  -28.9427   20.1115 C   0  0  0  0  0  0
  -22.7465  -29.4634   22.4938 C   0  0  0  0  0  0
  -18.0287  -28.1383   22.8487 C   0  0  0  0  0  0
  -24.1493  -36.7276   23.2638 C   0  0  0  0  0  0
  -25.9581  -30.7907   21.3757 C   0  0  0  0  0  0
  -26.0298  -29.4196   20.7152 C   0  0  0  0  0  0
  -27.2100  -28.6206   20.7028 C   0  0  0  0  0  0
  -26.0251  -26.8959   19.4836 C   0  0  0  0  0  0
  -24.8598  -27.6850   19.4922 C   0  0  0  0  0  0
  -23.6312  -29.8231   20.1608 C   0  0  0  0  0  0
  -25.4114  -36.3084   24.0343 C   0  0  1  0  0  0
  -20.5888  -28.3686   23.1291 C   0  0  2  0  0  0
  -20.6782  -26.9409   22.5415 C   0  0  0  0  0  0
  -19.5765  -26.6382   21.5214 C   0  0  0  0  0  0
  -18.1938  -26.7929   22.1614 C   0  0  0  0  0  0
  -19.1538  -28.8847   23.2892 C   0  0  0  0  0  0
  -18.9459  -30.1448   23.8910 C   0  0  0  0  0  0
  -17.6460  -30.6582   24.0558 C   0  0  0  0  0  0
  -25.9051  -34.9446   23.5117 C   0  0  0  0  0  0
  -16.5352  -29.9081   23.6323 C   0  0  0  0  0  0
  -16.7275  -28.6501   23.0346 C   0  0  0  0  0  0
  -26.4525  -31.6566   25.0710 C   0  0  0  0  0  0
  -25.3785  -31.3666   26.1449 C   0  0  0  0  0  0
  -27.0356  -30.2990   24.6147 C   0  0  0  0  0  0
  -27.6101  -32.4282   25.7461 C   0  0  0  0  0  0
  -27.5587  -37.1790   24.8465 C   0  0  0  0  0  0
  -21.4181  -29.3046   22.3680 N   0  0  0  0  0  0
  -26.4289  -37.3783   23.9427 N   0  0  0  0  0  0
  -24.6861  -31.0616   22.0997 N   0  0  0  0  0  0
  -23.4185  -28.8162   23.3016 O   0  0  0  0  0  0
  -28.3842  -26.5291   20.1393 O   0  0  0  0  0  0
  -26.5592  -34.8918   22.4660 O   0  0  0  0  0  0
  -23.5439  -32.1361   23.7420 O   0  0  0  0  0  0
  -30.8444  -19.3859   20.5296 C   0  0  0  0  0  0
  -30.9284  -17.9557   20.5234 C   0  0  0  0  0  0
  -28.5497  -17.8499   20.8508 C   0  0  0  0  0  0
  -29.6202  -20.0882   20.7240 C   0  0  0  0  0  0
  -29.7771  -17.1433   20.7149 C   0  0  0  0  0  0
  -28.4635  -19.2741   20.8529 C   0  0  0  0  0  0
  -28.8638  -24.0060   20.5178 C   0  0  0  0  0  0
  -28.9952  -22.2813   18.6927 C   0  0  0  0  0  0
  -29.6070  -21.6379   21.0311 C   0  0  0  0  0  0
  -28.4745  -25.1777   19.5289 C   0  0  0  0  0  0
  -29.7498  -15.6799   20.8348 N   0  0  0  0  0  0
  -29.0945  -22.7041   20.0917 N   0  0  0  0  0  0
  -28.9795  -24.3007   21.7124 O   0  0  0  0  0  0
  -26.9162  -20.0044   21.0921 Cl  0  0  0  0  0  0
  -31.4848  -12.5433   19.1491 H   0  0  0  0  0  0
  -30.3975  -11.4053   19.8969 H   0  0  0  0  0  0
  -29.7805  -11.7500   17.4865 H   0  0  0  0  0  0
  -29.6555  -13.4734   17.7441 H   0  0  0  0  0  0
  -27.8757  -11.2887   18.8729 H   0  0  0  0  0  0
  -27.3785  -12.5657   17.7968 H   0  0  0  0  0  0
  -27.6720  -14.2461   19.5234 H   0  0  0  0  0  0
  -28.7193  -12.0432   21.3768 H   0  0  0  0  0  0
  -28.4453  -13.6954   21.8503 H   0  0  0  0  0  0
  -25.2757   -9.5660   22.4770 H   0  0  0  0  0  0
  -23.9986   -7.4618   22.7472 H   0  0  0  0  0  0
  -21.0827   -8.8762   19.8957 H   0  0  0  0  0  0
  -22.3689  -10.9667   19.6160 H   0  0  0  0  0  0
  -21.2007   -7.6142   23.9712 H   0  0  0  0  0  0
  -21.1488   -6.0518   25.9079 H   0  0  0  0  0  0
  -22.0604   -2.7607   23.2830 H   0  0  0  0  0  0
  -22.4095  -11.9867   22.4794 H   0  0  0  0  0  0
  -21.1139  -13.1273   22.2631 H   0  0  0  0  0  0
  -24.6559  -15.8339   20.5112 H   0  0  0  0  0  0
  -26.2417  -15.6094   19.9738 H   0  0  0  0  0  0
  -26.7185  -32.5415   23.1095 H   0  0  0  0  0  0
  -25.0194  -33.9713   25.0506 H   0  0  0  0  0  0
  -22.7130  -31.3079   21.4070 H   0  0  0  0  0  0
  -23.3777  -35.9585   23.3275 H   0  0  0  0  0  0
  -24.3600  -36.8897   22.2056 H   0  0  0  0  0  0
  -23.7206  -37.6461   23.6654 H   0  0  0  0  0  0
  -26.0922  -31.5576   20.6109 H   0  0  0  0  0  0
  -26.8391  -30.8336   22.0053 H   0  0  0  0  0  0
  -28.1070  -28.9893   21.1818 H   0  0  0  0  0  0
  -25.9235  -25.9417   18.9961 H   0  0  0  0  0  0
  -23.9591  -27.3146   19.0218 H   0  0  0  0  0  0
  -23.7534  -30.5993   19.4045 H   0  0  0  0  0  0
  -22.7493  -29.2555   19.8572 H   0  0  0  0  0  0
  -25.1292  -36.1932   25.0836 H   0  0  0  0  0  0
  -20.9987  -28.3265   24.1415 H   0  0  0  0  0  0
  -20.5675  -26.2301   23.3620 H   0  0  0  0  0  0
  -21.6651  -26.7437   22.1214 H   0  0  0  0  0  0
  -19.6913  -25.6295   21.1240 H   0  0  0  0  0  0
  -19.6702  -27.3202   20.6755 H   0  0  0  0  0  0
  -17.4215  -26.6698   21.4003 H   0  0  0  0  0  0
  -18.0318  -26.0061   22.8995 H   0  0  0  0  0  0
  -19.7932  -30.7257   24.2290 H   0  0  0  0  0  0
  -17.5012  -31.6263   24.5155 H   0  0  0  0  0  0
  -15.5352  -30.2979   23.7644 H   0  0  0  0  0  0
  -15.8681  -28.0816   22.7054 H   0  0  0  0  0  0
  -24.6013  -30.6945   25.7786 H   0  0  0  0  0  0
  -24.8919  -32.2801   26.4865 H   0  0  0  0  0  0
  -25.8153  -30.8864   27.0213 H   0  0  0  0  0  0
  -26.2900  -29.6727   24.1223 H   0  0  0  0  0  0
  -27.4113  -29.7258   25.4632 H   0  0  0  0  0  0
  -27.8762  -30.4274   23.9325 H   0  0  0  0  0  0
  -27.2749  -33.3597   26.2034 H   0  0  0  0  0  0
  -28.3914  -32.6794   25.0278 H   0  0  0  0  0  0
  -28.0773  -31.8388   26.5363 H   0  0  0  0  0  0
  -28.2587  -38.0110   24.7568 H   0  0  0  0  0  0
  -28.1102  -36.2639   24.6228 H   0  0  0  0  0  0
  -27.2312  -37.1371   25.8870 H   0  0  0  0  0  0
  -20.9352  -29.8761   21.6886 H   0  0  0  0  0  0
  -26.0164  -38.2846   24.1463 H   0  0  0  0  0  0
  -31.7585  -19.9579   20.4442 H   0  0  0  0  0  0
  -31.8986  -17.4935   20.4145 H   0  0  0  0  0  0
  -27.6336  -17.2951   20.9940 H   0  0  0  0  0  0
  -28.6573  -23.0623   18.0145 H   0  0  0  0  0  0
  -28.2875  -21.4572   18.6005 H   0  0  0  0  0  0
  -29.9661  -21.9359   18.3342 H   0  0  0  0  0  0
  -30.6308  -21.9206   21.2783 H   0  0  0  0  0  0
  -29.0551  -21.7422   21.9664 H   0  0  0  0  0  0
  -27.5983  -24.8682   18.9728 H   0  0  0  0  0  0
  -29.2721  -25.2404   18.7876 H   0  0  0  0  0  0
  -28.8545  -15.3139   21.1177 H   0  0  0  0  0  0
  1 25  1  0  0  0
  1 30  2  0  0  0
  1 81  1  0  0  0
  2  3  1  0  0  0
  2 25  1  0  0  0
  2 85  1  0  0  0
  2 86  1  0  0  0
  3  4  1  0  0  0
  3 87  1  0  0  0
  3 88  1  0  0  0
  4  5  1  0  0  0
  4 89  1  0  0  0
  4 90  1  0  0  0
  5  6  1  0  0  0
  5 26  1  0  0  0
  5 91  1  0  0  0
  6 25  1  0  0  0
  6 92  1  0  0  0
  6 93  1  0  0  0
  7  8  2  0  0  0
  7 26  1  0  0  0
  7 29  1  0  0  0
  8  9  1  0  0  0
  8 22  1  0  0  0
  9 10  1  0  0  0
  9 27  2  0  0  0
 10 11  2  0  0  0
 10 15  1  0  0  0
 11 12  1  0  0  0
 11 94  1  0  0  0
 12 13  2  0  0  0
 12 95  1  0  0  0
 13 14  1  0  0  0
 13 31  1  0  0  0
 14 15  2  0  0  0
 14 96  1  0  0  0
 15 97  1  0  0  0
 16 17  2  0  0  0
 16 21  1  0  0  0
 16 31  1  0  0  0
 17 18  1  0  0  0
 17 98  1  0  0  0
 18 19  2  0  0  0
 18 99  1  0  0  0
 19 20  1  0  0  0
 19 24  1  0  0  0
 20 21  2  0  0  0
 20100  1  0  0  0
 21 23  1  0  0  0
 22 28  1  0  0  0
 22 32  2  0  0  0
 26 27  1  0  0  0
 28101  1  0  0  0
 28102  1  0  0  0
 29103  1  0  0  0
 29104  1  0  0  0
 33 34  1  0  0  0
 33 66  1  0  0  0
 33 70  2  0  0  0
 34 36  1  0  0  0
 34 59  1  0  0  0
 34105  1  0  0  0
 35 44  2  0  0  0
 35 45  1  0  0  0
 35 68  1  0  0  0
 36 56  1  0  0  0
 36106  1  0  0  0
 37 39  1  0  0  0
 37 47  1  0  0  0
 37 66  1  0  0  0
 37107  1  0  0  0
 38 43  2  0  0  0
 38 46  1  0  0  0
 38 47  1  0  0  0
 39 64  1  0  0  0
 39 67  2  0  0  0
 40 52  1  0  0  0
 40 53  2  0  0  0
 40 58  1  0  0  0
 41108  1  0  0  0
 41109  1  0  0  0
 41110  1  0  0  0
 41 48  1  0  0  0
 42 43  1  0  0  0
 42 66  1  0  0  0
 42111  1  0  0  0
 42112  1  0  0  0
 43 44  1  0  0  0
 44113  1  0  0  0
 45 46  2  0  0  0
 45114  1  0  0  0
 46115  1  0  0  0
 47116  1  0  0  0
 47117  1  0  0  0
 48 56  1  0  0  0
 48 65  1  0  0  0
 48118  1  0  0  0
 49 50  1  0  0  0
 49 53  1  0  0  0
 49 64  1  0  0  0
 49119  1  0  0  0
 50 51  1  0  0  0
 50120  1  0  0  0
 50121  1  0  0  0
 51 52  1  0  0  0
 51122  1  0  0  0
 51123  1  0  0  0
 52124  1  0  0  0
 52125  1  0  0  0
 53 54  1  0  0  0
 54 55  2  0  0  0
 54126  1  0  0  0
 55 57  1  0  0  0
 55127  1  0  0  0
 56 69  2  0  0  0
 57 58  2  0  0  0
 57128  1  0  0  0
 58129  1  0  0  0
 59 60  1  0  0  0
 59 61  1  0  0  0
 59 62  1  0  0  0
 60130  1  0  0  0
 60131  1  0  0  0
 60132  1  0  0  0
 61133  1  0  0  0
 61134  1  0  0  0
 61135  1  0  0  0
 62136  1  0  0  0
 62137  1  0  0  0
 62138  1  0  0  0
 63 65  1  0  0  0
 63139  1  0  0  0
 63140  1  0  0  0
 63141  1  0  0  0
 64142  1  0  0  0
 65143  1  0  0  0
 68 80  1  0  0  0
 71 72  2  0  0  0
 71 74  1  0  0  0
 71144  1  0  0  0
 72 75  1  0  0  0
 72145  1  0  0  0
 73 75  2  0  0  0
 73 76  1  0  0  0
 73146  1  0  0  0
 74 76  2  0  0  0
 74 79  1  0  0  0
 75 81  1  0  0  0
 76 84  1  0  0  0
 77 80  1  0  0  0
 77 82  1  0  0  0
 77 83  2  0  0  0
 78 82  1  0  0  0
 78147  1  0  0  0
 78148  1  0  0  0
 78149  1  0  0  0
 79 82  1  0  0  0
 79150  1  0  0  0
 79151  1  0  0  0
 80152  1  0  0  0
 80153  1  0  0  0
 81154  1  0  0  0
M  ISO  4   1 100  68 101  80 101  81 100
M  END
> <chiral flag>
0

> <version>
0

> <s_m_source_file>
/data/baiqing/PycharmProjects/Reinvent-master-3.2/result/LINK_invent/BTK/process_docking_weight1_custom_product_contain_oxygen_bond_distance_aromatic_linkinvent_7_9_3/rearranged_h_0043.sdf

> <i_m_source_file_index>
76

> <r_mmod_Potential_Energy-OPLS-2005>
108.092468261719

> <r_mmod_Stretch_Energy-OPLS-2005>
85.3096618652344

> <r_mmod_Bend_Energy-OPLS-2005>
160.214340209961

> <r_mmod_Torsional_Energy-OPLS-2005>
228.462875366211

> <r_mmod_Improper_Torsional_Energy-OPLS-2005>
6.29713535308838

> <r_mmod_Van_der_Waal_Energy-OPLS-2005>
145.265182495117

> <r_mmod_Electrostatic_Energy-OPLS-2005>
-329.593109130859

> <r_mmod_Solvation_Energy-OPLS-2005>
-235.690689086914

> <b_mmod_Minimization_Converged-OPLS-2005>
0

> <r_mmod_RMS_Derivative-OPLS-2005>
2.09384846687317

$$$$
76
                    3D
 Structure written by MMmdl.
167176  0  0  1  0            999 V2000
  -30.5591  -14.7612   20.4629 C   0  0  0  0  0  0
  -30.4462  -12.4694   19.4479 C   0  0  0  0  0  0
  -29.5070  -12.4958   18.2202 C   0  0  0  0  0  0
  -28.0319  -12.3206   18.6384 C   0  0  0  0  0  0
  -27.6353  -13.2175   19.8405 C   0  0  2  0  0  0
  -28.6874  -13.1433   20.9664 C   0  0  0  0  0  0
  -25.2505  -13.8144   20.5706 C   0  0  0  0  0  0
  -24.1779  -13.0405   20.9187 C   0  0  0  0  0  0
  -24.6349  -11.6878   20.8707 C   0  0  0  0  0  0
  -23.9035  -10.4271   21.0398 C   0  0  0  0  0  0
  -24.3590   -9.4189   21.9175 C   0  0  0  0  0  0
  -23.6270   -8.2224   22.0751 C   0  0  0  0  0  0
  -22.4255   -8.0249   21.3544 C   0  0  0  0  0  0
  -21.9881   -9.0222   20.4650 C   0  0  0  0  0  0
  -22.7203  -10.2110   20.3054 C   0  0  0  0  0  0
  -21.6847   -6.0708   22.5272 C   0  0  0  0  0  0
  -21.4010   -6.5624   23.8197 C   0  0  0  0  0  0
  -21.3663   -5.6786   24.9166 C   0  0  0  0  0  0
  -21.6049   -4.3051   24.7219 C   0  0  0  0  0  0
  -21.8817   -3.8127   23.4346 C   0  0  0  0  0  0
  -21.9191   -4.6940   22.3394 C   0  0  0  0  0  0
  -22.7820  -13.5200   21.1854 C   0  0  0  0  0  0
  -22.1666   -4.2118   21.0980 F   0  0  0  0  0  0
  -21.5636   -3.4540   25.7746 F   0  0  0  0  0  0
  -29.9753  -13.5204   20.3722 N   0  0  0  0  0  0
  -26.2889  -12.9317   20.3237 N   0  0  0  0  0  0
  -25.9267  -11.6473   20.5705 N   0  0  0  0  0  0
  -22.0500  -12.8192   22.0428 N   0  0  0  0  0  0
  -25.4222  -15.1867   20.4151 N   0  0  0  0  0  0
  -31.7748  -14.8923   20.2946 O   0  0  0  0  0  0
  -21.6634   -6.8845   21.4232 O   0  0  0  0  0  0
  -22.3525  -14.5511   20.6721 O   0  0  0  0  0  0
  -24.6331  -31.8564   23.2037 C   0  0  0  0  0  0
  -25.9159  -32.4750   23.8357 C   0  0  1  0  0  0
  -27.2073  -27.2374   20.1242 C   0  0  0  0  0  0
  -25.5968  -33.8560   24.2298 N   0  0  0  0  0  0
  -23.4296  -30.4837   21.5495 C   0  0  2  0  0  0
  -24.8723  -28.9412   20.1109 C   0  0  0  0  0  0
  -22.7562  -29.4567   22.4919 C   0  0  0  0  0  0
  -18.0365  -28.1294   22.8519 C   0  0  0  0  0  0
  -24.1500  -36.7288   23.2648 C   0  0  0  0  0  0
  -25.9782  -30.7695   21.3848 C   0  0  0  0  0  0
  -26.0475  -29.3905   20.7217 C   0  0  0  0  0  0
  -27.2157  -28.5542   20.7120 C   0  0  0  0  0  0
  -25.9883  -26.8631   19.5157 C   0  0  0  0  0  0
  -24.8498  -27.6859   19.4954 C   0  0  0  0  0  0
  -23.6494  -29.8353   20.1593 C   0  0  0  0  0  0
  -25.4128  -36.3062   24.0328 C   0  0  1  0  0  0
  -20.5965  -28.3613   23.1233 C   0  0  2  0  0  0
  -20.6894  -26.9362   22.5347 C   0  0  0  0  0  0
  -19.5852  -26.6231   21.5236 C   0  0  0  0  0  0
  -18.2026  -26.7833   22.1667 C   0  0  0  0  0  0
  -19.1613  -28.8770   23.2858 C   0  0  0  0  0  0
  -18.9584  -30.1344   23.8877 C   0  0  0  0  0  0
  -17.6601  -30.6519   24.0566 C   0  0  0  0  0  0
  -25.9061  -34.9431   23.5116 C   0  0  0  0  0  0
  -16.5468  -29.9041   23.6398 C   0  0  0  0  0  0
  -16.7353  -28.6436   23.0422 C   0  0  0  0  0  0
  -26.4546  -31.6552   25.0725 C   0  0  0  0  0  0
  -25.3801  -31.3672   26.1464 C   0  0  0  0  0  0
  -27.0382  -30.2968   24.6185 C   0  0  0  0  0  0
  -27.6089  -32.4292   25.7524 C   0  0  0  0  0  0
  -27.5579  -37.1798   24.8467 C   0  0  0  0  0  0
  -21.4269  -29.3021   22.3702 N   0  0  0  0  0  0
  -26.4290  -37.3766   23.9413 N   0  0  0  0  0  0
  -24.6996  -31.0521   22.1022 N   0  0  0  0  0  0
  -23.4295  -28.8069   23.2961 O   0  0  0  0  0  0
  -28.3236  -26.3558   20.1985 O   0  0  0  0  0  0
  -26.5604  -34.8909   22.4662 O   0  0  0  0  0  0
  -23.5483  -32.1353   23.7335 O   0  0  0  0  0  0
  -29.7467  -18.4666   20.4537 C   0  0  0  0  0  0
  -28.5411  -17.0703   22.0177 C   0  0  0  0  0  0
  -29.1930  -19.6929   21.0287 C   0  0  0  0  0  0
  -27.9430  -18.2239   22.5769 C   0  0  0  0  0  0
  -28.2821  -19.5284   22.1105 C   0  0  0  0  0  0
  -29.4422  -17.1281   20.9391 C   0  0  0  0  0  0
  -28.8363  -23.6869   20.5762 C   0  0  0  0  0  0
  -28.4609  -23.5070   17.4558 C   0  0  0  0  0  0
  -27.9489  -22.1061   17.8349 C   0  0  0  0  0  0
  -27.7786  -24.6217   18.2627 C   0  0  0  0  0  0
  -27.6168  -21.9093   19.3241 C   0  0  0  0  0  0
  -28.4606  -24.9486   19.6180 C   0  0  1  0  0  0
  -27.6702  -20.7570   22.7821 C   0  0  0  0  0  0
  -29.6452  -21.1712   20.5826 C   0  0  0  0  0  0
  -26.9070  -18.0193   23.6817 C   0  0  0  0  0  0
  -28.7016  -22.3336   20.2102 N   0  0  0  0  0  0
  -29.6964  -15.8331   20.2668 N   0  0  0  0  0  0
  -29.4108  -23.9591   21.6342 O   0  0  0  0  0  0
  -27.4680  -18.1957   24.8795 F   0  0  0  0  0  0
  -26.3551  -16.8035   23.6394 F   0  0  0  0  0  0
  -31.4816  -12.6294   19.1428 H   0  0  0  0  0  0
  -30.4266  -11.4932   19.9361 H   0  0  0  0  0  0
  -29.7892  -11.7158   17.5114 H   0  0  0  0  0  0
  -29.6284  -13.4394   17.6893 H   0  0  0  0  0  0
  -27.8856  -11.2723   18.8966 H   0  0  0  0  0  0
  -27.3758  -12.5162   17.7882 H   0  0  0  0  0  0
  -27.6230  -14.2376   19.4568 H   0  0  0  0  0  0
  -28.7325  -12.1371   21.3864 H   0  0  0  0  0  0
  -28.4263  -13.8117   21.7895 H   0  0  0  0  0  0
  -25.2739   -9.5675   22.4741 H   0  0  0  0  0  0
  -23.9983   -7.4621   22.7469 H   0  0  0  0  0  0
  -21.0810   -8.8704   19.8957 H   0  0  0  0  0  0
  -22.3632  -10.9627   19.6148 H   0  0  0  0  0  0
  -21.2007   -7.6132   23.9684 H   0  0  0  0  0  0
  -21.1503   -6.0528   25.9067 H   0  0  0  0  0  0
  -22.0600   -2.7583   23.2854 H   0  0  0  0  0  0
  -22.4159  -11.9848   22.4778 H   0  0  0  0  0  0
  -21.1124  -13.1179   22.2676 H   0  0  0  0  0  0
  -24.6607  -15.8398   20.5550 H   0  0  0  0  0  0
  -26.2746  -15.6382   20.1115 H   0  0  0  0  0  0
  -26.7201  -32.5400   23.1077 H   0  0  0  0  0  0
  -25.0119  -33.9711   25.0453 H   0  0  0  0  0  0
  -22.7234  -31.3054   21.4147 H   0  0  0  0  0  0
  -23.3748  -35.9624   23.3284 H   0  0  0  0  0  0
  -24.3589  -36.8928   22.2058 H   0  0  0  0  0  0
  -23.7244  -37.6493   23.6680 H   0  0  0  0  0  0
  -26.1172  -31.5328   20.6178 H   0  0  0  0  0  0
  -26.8581  -30.8171   22.0141 H   0  0  0  0  0  0
  -28.1190  -28.9036   21.1928 H   0  0  0  0  0  0
  -25.8307  -25.9078   19.0718 H   0  0  0  0  0  0
  -23.9450  -27.3315   19.0201 H   0  0  0  0  0  0
  -23.7884  -30.6241   19.4186 H   0  0  0  0  0  0
  -22.7622  -29.2846   19.8390 H   0  0  0  0  0  0
  -25.1296  -36.1921   25.0805 H   0  0  0  0  0  0
  -21.0057  -28.3102   24.1352 H   0  0  0  0  0  0
  -20.5946  -26.2228   23.3532 H   0  0  0  0  0  0
  -21.6731  -26.7486   22.1017 H   0  0  0  0  0  0
  -19.6861  -27.2920   20.6658 H   0  0  0  0  0  0
  -19.7078  -25.6068   21.1471 H   0  0  0  0  0  0
  -17.4272  -26.6526   21.4086 H   0  0  0  0  0  0
  -18.0444  -25.9963   22.9064 H   0  0  0  0  0  0
  -19.8094  -30.7133   24.2222 H   0  0  0  0  0  0
  -17.5241  -31.6259   24.5069 H   0  0  0  0  0  0
  -15.5477  -30.2987   23.7734 H   0  0  0  0  0  0
  -15.8726  -28.0757   22.7203 H   0  0  0  0  0  0
  -24.5995  -30.6996   25.7817 H   0  0  0  0  0  0
  -24.8984  -32.2821   26.4920 H   0  0  0  0  0  0
  -25.8172  -30.8842   27.0216 H   0  0  0  0  0  0
  -26.2942  -29.6715   24.1232 H   0  0  0  0  0  0
  -27.4102  -29.7231   25.4690 H   0  0  0  0  0  0
  -27.8822  -30.4242   23.9398 H   0  0  0  0  0  0
  -27.2683  -33.3596   26.2092 H   0  0  0  0  0  0
  -28.3934  -32.6839   25.0385 H   0  0  0  0  0  0
  -28.0721  -31.8405   26.5457 H   0  0  0  0  0  0
  -28.2586  -38.0107   24.7507 H   0  0  0  0  0  0
  -28.1078  -36.2627   24.6298 H   0  0  0  0  0  0
  -27.2283  -37.1451   25.8868 H   0  0  0  0  0  0
  -20.9385  -29.8907   21.7095 H   0  0  0  0  0  0
  -26.0159  -38.2832   24.1438 H   0  0  0  0  0  0
  -30.4019  -18.5516   19.6012 H   0  0  0  0  0  0
  -28.2490  -16.1018   22.3980 H   0  0  0  0  0  0
  -28.2664  -23.6625   16.3928 H   0  0  0  0  0  0
  -29.5454  -23.5588   17.5633 H   0  0  0  0  0  0
  -28.6804  -21.3570   17.5245 H   0  0  0  0  0  0
  -27.0510  -21.8850   17.2553 H   0  0  0  0  0  0
  -26.7445  -24.3182   18.3901 H   0  0  0  0  0  0
  -27.7720  -25.5275   17.6582 H   0  0  0  0  0  0
  -27.3751  -20.8622   19.5006 H   0  0  0  0  0  0
  -26.6989  -22.4354   19.5876 H   0  0  0  0  0  0
  -29.4755  -25.1132   19.2551 H   0  0  0  0  0  0
  -26.8719  -21.1671   22.1628 H   0  0  0  0  0  0
  -28.4208  -21.5342   22.9346 H   0  0  0  0  0  0
  -27.2559  -20.5608   23.7704 H   0  0  0  0  0  0
  -30.3126  -21.0528   19.7300 H   0  0  0  0  0  0
  -30.2921  -21.5245   21.3828 H   0  0  0  0  0  0
  -26.0746  -18.7130   23.5797 H   0  0  0  0  0  0
  -28.8313  -15.4484   19.9216 H   0  0  0  0  0  0
  1 25  1  0  0  0
  1 30  2  0  0  0
  1 87  1  0  0  0
  2  3  1  0  0  0
  2 25  1  0  0  0
  2 91  1  0  0  0
  2 92  1  0  0  0
  3  4  1  0  0  0
  3 93  1  0  0  0
  3 94  1  0  0  0
  4  5  1  0  0  0
  4 95  1  0  0  0
  4 96  1  0  0  0
  5  6  1  0  0  0
  5 26  1  0  0  0
  5 97  1  0  0  0
  6 25  1  0  0  0
  6 98  1  0  0  0
  6 99  1  0  0  0
  7  8  2  0  0  0
  7 26  1  0  0  0
  7 29  1  0  0  0
  8  9  1  0  0  0
  8 22  1  0  0  0
  9 10  1  0  0  0
  9 27  2  0  0  0
 10 11  2  0  0  0
 10 15  1  0  0  0
 11 12  1  0  0  0
 11100  1  0  0  0
 12 13  2  0  0  0
 12101  1  0  0  0
 13 14  1  0  0  0
 13 31  1  0  0  0
 14 15  2  0  0  0
 14102  1  0  0  0
 15103  1  0  0  0
 16 17  2  0  0  0
 16 21  1  0  0  0
 16 31  1  0  0  0
 17 18  1  0  0  0
 17104  1  0  0  0
 18 19  2  0  0  0
 18105  1  0  0  0
 19 20  1  0  0  0
 19 24  1  0  0  0
 20 21  2  0  0  0
 20106  1  0  0  0
 21 23  1  0  0  0
 22 28  1  0  0  0
 22 32  2  0  0  0
 26 27  1  0  0  0
 28107  1  0  0  0
 28108  1  0  0  0
 29109  1  0  0  0
 29110  1  0  0  0
 33 34  1  0  0  0
 33 66  1  0  0  0
 33 70  2  0  0  0
 34 36  1  0  0  0
 34 59  1  0  0  0
 34111  1  0  0  0
 35 44  2  0  0  0
 35 45  1  0  0  0
 35 68  1  0  0  0
 36 56  1  0  0  0
 36112  1  0  0  0
 37 39  1  0  0  0
 37 47  1  0  0  0
 37 66  1  0  0  0
 37113  1  0  0  0
 38 43  2  0  0  0
 38 46  1  0  0  0
 38 47  1  0  0  0
 39 64  1  0  0  0
 39 67  2  0  0  0
 40 52  1  0  0  0
 40 53  2  0  0  0
 40 58  1  0  0  0
 41114  1  0  0  0
 41115  1  0  0  0
 41116  1  0  0  0
 41 48  1  0  0  0
 42 43  1  0  0  0
 42 66  1  0  0  0
 42117  1  0  0  0
 42118  1  0  0  0
 43 44  1  0  0  0
 44119  1  0  0  0
 45 46  2  0  0  0
 45120  1  0  0  0
 46121  1  0  0  0
 47122  1  0  0  0
 47123  1  0  0  0
 48 56  1  0  0  0
 48 65  1  0  0  0
 48124  1  0  0  0
 49 50  1  0  0  0
 49 53  1  0  0  0
 49 64  1  0  0  0
 49125  1  0  0  0
 50 51  1  0  0  0
 50126  1  0  0  0
 50127  1  0  0  0
 51 52  1  0  0  0
 51128  1  0  0  0
 51129  1  0  0  0
 52130  1  0  0  0
 52131  1  0  0  0
 53 54  1  0  0  0
 54 55  2  0  0  0
 54132  1  0  0  0
 55 57  1  0  0  0
 55133  1  0  0  0
 56 69  2  0  0  0
 57 58  2  0  0  0
 57134  1  0  0  0
 58135  1  0  0  0
 59 60  1  0  0  0
 59 61  1  0  0  0
 59 62  1  0  0  0
 60136  1  0  0  0
 60137  1  0  0  0
 60138  1  0  0  0
 61139  1  0  0  0
 61140  1  0  0  0
 61141  1  0  0  0
 62142  1  0  0  0
 62143  1  0  0  0
 62144  1  0  0  0
 63 65  1  0  0  0
 63145  1  0  0  0
 63146  1  0  0  0
 63147  1  0  0  0
 64148  1  0  0  0
 65149  1  0  0  0
 68 82  1  0  0  0
 71 73  2  0  0  0
 71 76  1  0  0  0
 71150  1  0  0  0
 72 74  1  0  0  0
 72 76  2  0  0  0
 72151  1  0  0  0
 73 75  1  0  0  0
 73 84  1  0  0  0
 74 75  2  0  0  0
 74 85  1  0  0  0
 75 83  1  0  0  0
 76 87  1  0  0  0
 77 82  1  0  0  0
 77 86  1  0  0  0
 77 88  2  0  0  0
 78 79  1  0  0  0
 78 80  1  0  0  0
 78152  1  0  0  0
 78153  1  0  0  0
 79 81  1  0  0  0
 79154  1  0  0  0
 79155  1  0  0  0
 80 82  1  0  0  0
 80156  1  0  0  0
 80157  1  0  0  0
 81 86  1  0  0  0
 81158  1  0  0  0
 81159  1  0  0  0
 82160  1  0  0  0
 83161  1  0  0  0
 83162  1  0  0  0
 83163  1  0  0  0
 84 86  1  0  0  0
 84164  1  0  0  0
 84165  1  0  0  0
 85 89  1  0  0  0
 85 90  1  0  0  0
 85166  1  0  0  0
 87167  1  0  0  0
M  ISO  4   1 100  68 101  82 101  87 100
M  END
> <chiral flag>
0

> <version>
0

> <s_m_source_file>
/data/baiqing/PycharmProjects/Reinvent-master-3.2/result/LINK_invent/BTK/process_docking_weight1_custom_product_contain_oxygen_bond_distance_aromatic_linkinvent_7_9_3/rearranged_h_0043.sdf

> <i_m_source_file_index>
77

> <r_mmod_Potential_Energy-OPLS-2005>
440.381500244141

> <r_mmod_Stretch_Energy-OPLS-2005>
149.249755859375

> <r_mmod_Bend_Energy-OPLS-2005>
251.944000244141

> <r_mmod_Torsional_Energy-OPLS-2005>
322.87109375

> <r_mmod_Improper_Torsional_Energy-OPLS-2005>
21.4869079589844

> <r_mmod_Van_der_Waal_Energy-OPLS-2005>
146.285934448242

> <r_mmod_Electrostatic_Energy-OPLS-2005>
-323.860900878906

> <r_mmod_Solvation_Energy-OPLS-2005>
-227.526473999023

> <b_mmod_Minimization_Converged-OPLS-2005>
0

> <r_mmod_RMS_Derivative-OPLS-2005>
4.99462032318115

$$$$
77
                    3D
 Structure written by MMmdl.
167175  0  0  1  0            999 V2000
  -30.7232  -14.3759   20.7082 C   0  0  0  0  0  0
  -30.4287  -12.3086   19.3805 C   0  0  0  0  0  0
  -29.4879  -12.5460   18.1825 C   0  0  0  0  0  0
  -28.0089  -12.3900   18.5939 C   0  0  0  0  0  0
  -27.6632  -13.1947   19.8745 C   0  0  2  0  0  0
  -28.6974  -12.9016   20.9799 C   0  0  0  0  0  0
  -25.2588  -13.8129   20.5650 C   0  0  0  0  0  0
  -24.1830  -13.0430   20.9141 C   0  0  0  0  0  0
  -24.6350  -11.6890   20.8695 C   0  0  0  0  0  0
  -23.9013  -10.4295   21.0392 C   0  0  0  0  0  0
  -24.3588   -9.4217   21.9168 C   0  0  0  0  0  0
  -23.6281   -8.2245   22.0746 C   0  0  0  0  0  0
  -22.4260   -8.0272   21.3547 C   0  0  0  0  0  0
  -21.9880   -9.0233   20.4647 C   0  0  0  0  0  0
  -22.7186  -10.2118   20.3046 C   0  0  0  0  0  0
  -21.6854   -6.0718   22.5274 C   0  0  0  0  0  0
  -21.4017   -6.5628   23.8204 C   0  0  0  0  0  0
  -21.3666   -5.6784   24.9168 C   0  0  0  0  0  0
  -21.6046   -4.3045   24.7221 C   0  0  0  0  0  0
  -21.8820   -3.8133   23.4342 C   0  0  0  0  0  0
  -21.9195   -4.6947   22.3398 C   0  0  0  0  0  0
  -22.7861  -13.5251   21.1821 C   0  0  0  0  0  0
  -22.1673   -4.2131   21.0976 F   0  0  0  0  0  0
  -21.5626   -3.4536   25.7739 F   0  0  0  0  0  0
  -30.0368  -13.2327   20.4524 N   0  0  0  0  0  0
  -26.3011  -12.9270   20.3312 N   0  0  0  0  0  0
  -25.9264  -11.6436   20.5682 N   0  0  0  0  0  0
  -22.0495  -12.8270   22.0386 N   0  0  0  0  0  0
  -25.4304  -15.1849   20.4077 N   0  0  0  0  0  0
  -31.7809  -14.6803   20.1434 O   0  0  0  0  0  0
  -21.6637   -6.8861   21.4237 O   0  0  0  0  0  0
  -22.3559  -14.5568   20.6656 O   0  0  0  0  0  0
  -24.6095  -31.8719   23.2138 C   0  0  0  0  0  0
  -25.9032  -32.4826   23.8396 C   0  0  1  0  0  0
  -27.2295  -27.4901   20.0819 C   0  0  0  0  0  0
  -25.5912  -33.8620   24.2345 N   0  0  0  0  0  0
  -23.3923  -30.4991   21.5539 C   0  0  2  0  0  0
  -24.8354  -28.9688   20.1142 C   0  0  0  0  0  0
  -22.7377  -29.4693   22.4996 C   0  0  0  0  0  0
  -18.0300  -28.1319   22.8499 C   0  0  0  0  0  0
  -24.1471  -36.7314   23.2638 C   0  0  0  0  0  0
  -25.9140  -30.8501   21.3599 C   0  0  0  0  0  0
  -25.9886  -29.4869   20.7151 C   0  0  0  0  0  0
  -27.1898  -28.7516   20.7052 C   0  0  0  0  0  0
  -26.0689  -26.9751   19.4708 C   0  0  0  0  0  0
  -24.8664  -27.7076   19.4931 C   0  0  0  0  0  0
  -23.5965  -29.8336   20.1648 C   0  0  0  0  0  0
  -25.4100  -36.3130   24.0348 C   0  0  1  0  0  0
  -20.5888  -28.3664   23.1323 C   0  0  2  0  0  0
  -20.6830  -26.9389   22.5468 C   0  0  0  0  0  0
  -19.5807  -26.6335   21.5258 C   0  0  0  0  0  0
  -18.2010  -26.7808   22.1747 C   0  0  0  0  0  0
  -19.1525  -28.8832   23.2873 C   0  0  0  0  0  0
  -18.9423  -30.1479   23.8797 C   0  0  0  0  0  0
  -17.6397  -30.6578   24.0452 C   0  0  0  0  0  0
  -25.9035  -34.9493   23.5146 C   0  0  0  0  0  0
  -16.5316  -29.9017   23.6250 C   0  0  0  0  0  0
  -16.7274  -28.6423   23.0311 C   0  0  0  0  0  0
  -26.4492  -31.6578   25.0689 C   0  0  0  0  0  0
  -25.3770  -31.3658   26.1436 C   0  0  0  0  0  0
  -27.0292  -30.3022   24.6002 C   0  0  0  0  0  0
  -27.6092  -32.4257   25.7441 C   0  0  0  0  0  0
  -27.5575  -37.1814   24.8476 C   0  0  0  0  0  0
  -21.4128  -29.3010   22.3714 N   0  0  0  0  0  0
  -26.4293  -37.3812   23.9421 N   0  0  0  0  0  0
  -24.6563  -31.0877   22.1015 N   0  0  0  0  0  0
  -23.4188  -28.8232   23.3008 O   0  0  0  0  0  0
  -28.4113  -26.8058   20.0105 O   0  0  0  0  0  0
  -26.5581  -34.8957   22.4691 O   0  0  0  0  0  0
  -23.5303  -32.1446   23.7568 O   0  0  0  0  0  0
  -31.7102  -16.6180   24.6359 C   0  0  0  0  0  0
  -31.7277  -17.9865   24.3045 C   0  0  0  0  0  0
  -31.2020  -15.6796   23.7173 C   0  0  0  0  0  0
  -30.7401  -17.4767   22.1286 C   0  0  0  0  0  0
  -31.2436  -18.4190   23.0527 C   0  0  0  0  0  0
  -30.7277  -16.1055   22.4585 C   0  0  0  0  0  0
  -28.2301  -21.9750   23.3144 C   0  0  0  0  0  0
  -28.0511  -23.3094   23.3142 C   0  0  0  0  0  0
  -29.5296  -21.4397   23.6639 C   0  0  0  0  0  0
  -25.9989  -23.1380   20.7105 C   0  0  0  0  0  0
  -31.2322  -19.8973   22.7172 C   0  0  0  0  0  0
  -26.7871  -24.0280   22.8744 C   0  0  0  0  0  0
  -28.0205  -24.5300   20.7106 C   0  0  0  0  0  0
  -28.6358  -25.8928   21.0746 C   0  0  0  0  0  0
  -30.1134  -15.1737   21.5964 N   0  0  0  0  0  0
  -29.8952  -20.4679   22.8226 N   0  0  0  0  0  0
  -26.7241  -24.2339   21.3951 N   0  3  1  0  0  0
  -30.2550  -21.8621   24.5664 O   0  0  0  0  0  0
  -31.4698  -12.4396   19.0767 H   0  0  0  0  0  0
  -30.3517  -11.2781   19.7312 H   0  0  0  0  0  0
  -29.7288  -11.8578   17.3714 H   0  0  0  0  0  0
  -29.6495  -13.5492   17.7858 H   0  0  0  0  0  0
  -27.8181  -11.3294   18.7596 H   0  0  0  0  0  0
  -27.3565  -12.6905   17.7719 H   0  0  0  0  0  0
  -27.7288  -14.2528   19.6181 H   0  0  0  0  0  0
  -28.6667  -11.8431   21.2465 H   0  0  0  0  0  0
  -28.4313  -13.4262   21.8971 H   0  0  0  0  0  0
  -25.2730   -9.5716   22.4726 H   0  0  0  0  0  0
  -23.9999   -7.4646   22.7467 H   0  0  0  0  0  0
  -21.0804   -8.8732   19.8970 H   0  0  0  0  0  0
  -22.3627  -10.9644   19.6150 H   0  0  0  0  0  0
  -21.2017   -7.6134   23.9708 H   0  0  0  0  0  0
  -21.1494   -6.0511   25.9072 H   0  0  0  0  0  0
  -22.0593   -2.7595   23.2842 H   0  0  0  0  0  0
  -22.4096  -11.9960   22.4845 H   0  0  0  0  0  0
  -21.1102  -13.1308   22.2553 H   0  0  0  0  0  0
  -24.6600  -15.8362   20.5091 H   0  0  0  0  0  0
  -26.2832  -15.6280   20.0889 H   0  0  0  0  0  0
  -26.7118  -32.5582   23.1185 H   0  0  0  0  0  0
  -25.0120  -33.9774   25.0529 H   0  0  0  0  0  0
  -22.6791  -31.3152   21.4209 H   0  0  0  0  0  0
  -23.3739  -35.9638   23.3309 H   0  0  0  0  0  0
  -24.3569  -36.8878   22.2046 H   0  0  0  0  0  0
  -23.7205  -37.6525   23.6615 H   0  0  0  0  0  0
  -26.0220  -31.6163   20.5903 H   0  0  0  0  0  0
  -26.8050  -30.9036   21.9723 H   0  0  0  0  0  0
  -28.0864  -29.1567   21.1528 H   0  0  0  0  0  0
  -26.0964  -26.0286   18.9497 H   0  0  0  0  0  0
  -23.9828  -27.3125   19.0097 H   0  0  0  0  0  0
  -23.7019  -30.6062   19.4030 H   0  0  0  0  0  0
  -22.7188  -29.2535   19.8735 H   0  0  0  0  0  0
  -25.1267  -36.2004   25.0836 H   0  0  0  0  0  0
  -20.9978  -28.3284   24.1455 H   0  0  0  0  0  0
  -20.5697  -26.2287   23.3687 H   0  0  0  0  0  0
  -21.6713  -26.7403   22.1283 H   0  0  0  0  0  0
  -19.7010  -25.6246   21.1300 H   0  0  0  0  0  0
  -19.6708  -27.3145   20.6795 H   0  0  0  0  0  0
  -17.4224  -26.6359   21.4244 H   0  0  0  0  0  0
  -18.0583  -26.0018   22.9257 H   0  0  0  0  0  0
  -19.7889  -30.7373   24.2079 H   0  0  0  0  0  0
  -17.4916  -31.6290   24.4991 H   0  0  0  0  0  0
  -15.5305  -30.2886   23.7538 H   0  0  0  0  0  0
  -15.8709  -28.0682   22.7027 H   0  0  0  0  0  0
  -24.6012  -30.6921   25.7786 H   0  0  0  0  0  0
  -24.8901  -32.2788   26.4857 H   0  0  0  0  0  0
  -25.8159  -30.8883   27.0202 H   0  0  0  0  0  0
  -26.2800  -29.6794   24.1096 H   0  0  0  0  0  0
  -27.4127  -29.7244   25.4422 H   0  0  0  0  0  0
  -27.8616  -30.4355   23.9087 H   0  0  0  0  0  0
  -27.2769  -33.3567   26.2045 H   0  0  0  0  0  0
  -28.3905  -32.6760   25.0254 H   0  0  0  0  0  0
  -28.0752  -31.8338   26.5327 H   0  0  0  0  0  0
  -28.2626  -38.0087   24.7518 H   0  0  0  0  0  0
  -28.1041  -36.2621   24.6312 H   0  0  0  0  0  0
  -27.2296  -37.1467   25.8883 H   0  0  0  0  0  0
  -20.9288  -29.8717   21.6920 H   0  0  0  0  0  0
  -26.0180  -38.2885   24.1433 H   0  0  0  0  0  0
  -32.0643  -16.2913   25.6035 H   0  0  0  0  0  0
  -32.0965  -18.7062   25.0219 H   0  0  0  0  0  0
  -31.1607  -14.6350   23.9941 H   0  0  0  0  0  0
  -30.3435  -17.8115   21.1802 H   0  0  0  0  0  0
  -27.4255  -21.3094   23.0383 H   0  0  0  0  0  0
  -28.8681  -23.9552   23.6061 H   0  0  0  0  0  0
  -26.5777  -22.2152   20.7182 H   0  0  0  0  0  0
  -25.8002  -23.3967   19.6696 H   0  0  0  0  0  0
  -25.0352  -22.9401   21.1809 H   0  0  0  0  0  0
  -31.5900  -20.0286   21.6963 H   0  0  0  0  0  0
  -31.9513  -20.4318   23.3413 H   0  0  0  0  0  0
  -26.7624  -24.9987   23.3713 H   0  0  0  0  0  0
  -25.9032  -23.4943   23.2278 H   0  0  0  0  0  0
  -28.7481  -23.7436   20.9032 H   0  0  0  0  0  0
  -27.8874  -24.4948   19.6280 H   0  0  0  0  0  0
  -29.7159  -25.7816   21.1703 H   0  0  0  0  0  0
  -28.2914  -26.2807   22.0336 H   0  0  0  0  0  0
  -29.2211  -14.8177   21.9042 H   0  0  0  0  0  0
  -29.2286  -20.1910   22.1167 H   0  0  0  0  0  0
  -26.1273  -25.0410   21.2711 H   0  0  0  0  0  0
  1 25  1  0  0  0
  1 30  2  0  0  0
  1 85  1  0  0  0
  2  3  1  0  0  0
  2 25  1  0  0  0
  2 89  1  0  0  0
  2 90  1  0  0  0
  3  4  1  0  0  0
  3 91  1  0  0  0
  3 92  1  0  0  0
  4  5  1  0  0  0
  4 93  1  0  0  0
  4 94  1  0  0  0
  5  6  1  0  0  0
  5 26  1  0  0  0
  5 95  1  0  0  0
  6 25  1  0  0  0
  6 96  1  0  0  0
  6 97  1  0  0  0
  7  8  2  0  0  0
  7 26  1  0  0  0
  7 29  1  0  0  0
  8  9  1  0  0  0
  8 22  1  0  0  0
  9 10  1  0  0  0
  9 27  2  0  0  0
 10 11  2  0  0  0
 10 15  1  0  0  0
 11 12  1  0  0  0
 11 98  1  0  0  0
 12 13  2  0  0  0
 12 99  1  0  0  0
 13 14  1  0  0  0
 13 31  1  0  0  0
 14 15  2  0  0  0
 14100  1  0  0  0
 15101  1  0  0  0
 16 17  2  0  0  0
 16 21  1  0  0  0
 16 31  1  0  0  0
 17 18  1  0  0  0
 17102  1  0  0  0
 18 19  2  0  0  0
 18103  1  0  0  0
 19 20  1  0  0  0
 19 24  1  0  0  0
 20 21  2  0  0  0
 20104  1  0  0  0
 21 23  1  0  0  0
 22 28  1  0  0  0
 22 32  2  0  0  0
 26 27  1  0  0  0
 28105  1  0  0  0
 28106  1  0  0  0
 29107  1  0  0  0
 29108  1  0  0  0
 33 34  1  0  0  0
 33 66  1  0  0  0
 33 70  2  0  0  0
 34 36  1  0  0  0
 34 59  1  0  0  0
 34109  1  0  0  0
 35 44  2  0  0  0
 35 45  1  0  0  0
 35 68  1  0  0  0
 36 56  1  0  0  0
 36110  1  0  0  0
 37 39  1  0  0  0
 37 47  1  0  0  0
 37 66  1  0  0  0
 37111  1  0  0  0
 38 43  2  0  0  0
 38 46  1  0  0  0
 38 47  1  0  0  0
 39 64  1  0  0  0
 39 67  2  0  0  0
 40 52  1  0  0  0
 40 53  2  0  0  0
 40 58  1  0  0  0
 41112  1  0  0  0
 41113  1  0  0  0
 41114  1  0  0  0
 41 48  1  0  0  0
 42 43  1  0  0  0
 42 66  1  0  0  0
 42115  1  0  0  0
 42116  1  0  0  0
 43 44  1  0  0  0
 44117  1  0  0  0
 45 46  2  0  0  0
 45118  1  0  0  0
 46119  1  0  0  0
 47120  1  0  0  0
 47121  1  0  0  0
 48 56  1  0  0  0
 48 65  1  0  0  0
 48122  1  0  0  0
 49 50  1  0  0  0
 49 53  1  0  0  0
 49 64  1  0  0  0
 49123  1  0  0  0
 50 51  1  0  0  0
 50124  1  0  0  0
 50125  1  0  0  0
 51 52  1  0  0  0
 51126  1  0  0  0
 51127  1  0  0  0
 52128  1  0  0  0
 52129  1  0  0  0
 53 54  1  0  0  0
 54 55  2  0  0  0
 54130  1  0  0  0
 55 57  1  0  0  0
 55131  1  0  0  0
 56 69  2  0  0  0
 57 58  2  0  0  0
 57132  1  0  0  0
 58133  1  0  0  0
 59 60  1  0  0  0
 59 61  1  0  0  0
 59 62  1  0  0  0
 60134  1  0  0  0
 60135  1  0  0  0
 60136  1  0  0  0
 61137  1  0  0  0
 61138  1  0  0  0
 61139  1  0  0  0
 62140  1  0  0  0
 62141  1  0  0  0
 62142  1  0  0  0
 63 65  1  0  0  0
 63143  1  0  0  0
 63144  1  0  0  0
 63145  1  0  0  0
 64146  1  0  0  0
 65147  1  0  0  0
 68 84  1  0  0  0
 71 72  2  0  0  0
 71 73  1  0  0  0
 71148  1  0  0  0
 72 75  1  0  0  0
 72149  1  0  0  0
 73 76  2  0  0  0
 73150  1  0  0  0
 74 75  2  0  0  0
 74 76  1  0  0  0
 74151  1  0  0  0
 75 81  1  0  0  0
 76 85  1  0  0  0
 77 78  2  0  0  0
 77 79  1  0  0  0
 77152  1  0  0  0
 78 82  1  0  0  0
 78153  1  0  0  0
 79 86  1  0  0  0
 79 88  2  0  0  0
 80154  1  0  0  0
 80155  1  0  0  0
 80156  1  0  0  0
 80 87  1  0  0  0
 81 86  1  0  0  0
 81157  1  0  0  0
 81158  1  0  0  0
 82 87  1  0  0  0
 82159  1  0  0  0
 82160  1  0  0  0
 83 84  1  0  0  0
 83 87  1  0  0  0
 83161  1  0  0  0
 83162  1  0  0  0
 84163  1  0  0  0
 84164  1  0  0  0
 85165  1  0  0  0
 86166  1  0  0  0
 87167  1  0  0  0
M  CHG  1  87   1
M  ISO  4   1 100  68 101  84 101  85 100
M  END
> <chiral flag>
0

> <version>
0

> <s_m_source_file>
/data/baiqing/PycharmProjects/Reinvent-master-3.2/result/LINK_invent/BTK/process_docking_weight1_custom_product_contain_oxygen_bond_distance_aromatic_linkinvent_7_9_3/rearranged_h_0043.sdf

> <i_m_source_file_index>
78

> <r_mmod_Potential_Energy-OPLS-2005>
-222.451065063477

> <r_mmod_Stretch_Energy-OPLS-2005>
31.7131195068359

> <r_mmod_Bend_Energy-OPLS-2005>
92.3467559814453

> <r_mmod_Torsional_Energy-OPLS-2005>
290.897186279297

> <r_mmod_Improper_Torsional_Energy-OPLS-2005>
4.84370136260986

> <r_mmod_Van_der_Waal_Energy-OPLS-2005>
152.360397338867

> <r_mmod_Electrostatic_Energy-OPLS-2005>
-348.895568847656

> <r_mmod_Solvation_Energy-OPLS-2005>
-454.236022949219

> <b_mmod_Minimization_Converged-OPLS-2005>
0

> <r_mmod_RMS_Derivative-OPLS-2005>
3.24133443832397

$$$$
78
                    3D
 Structure written by MMmdl.
154162  0  0  1  0            999 V2000
  -30.6119  -14.6437   20.4979 C   0  0  0  0  0  0
  -30.4403  -12.3940   19.4515 C   0  0  0  0  0  0
  -29.5094  -12.5113   18.2238 C   0  0  0  0  0  0
  -28.0320  -12.3481   18.6345 C   0  0  0  0  0  0
  -27.6553  -13.2156   19.8650 C   0  0  2  0  0  0
  -28.6990  -13.0631   20.9942 C   0  0  0  0  0  0
  -25.2572  -13.8167   20.5682 C   0  0  0  0  0  0
  -24.1836  -13.0437   20.9189 C   0  0  0  0  0  0
  -24.6400  -11.6905   20.8733 C   0  0  0  0  0  0
  -23.9064  -10.4291   21.0407 C   0  0  0  0  0  0
  -24.3616   -9.4207   21.9187 C   0  0  0  0  0  0
  -23.6293   -8.2243   22.0755 C   0  0  0  0  0  0
  -22.4276   -8.0283   21.3544 C   0  0  0  0  0  0
  -21.9910   -9.0255   20.4646 C   0  0  0  0  0  0
  -22.7236  -10.2135   20.3056 C   0  0  0  0  0  0
  -21.6853   -6.0739   22.5282 C   0  0  0  0  0  0
  -21.4013   -6.5642   23.8215 C   0  0  0  0  0  0
  -21.3658   -5.6793   24.9178 C   0  0  0  0  0  0
  -21.6045   -4.3057   24.7226 C   0  0  0  0  0  0
  -21.8817   -3.8149   23.4346 C   0  0  0  0  0  0
  -21.9193   -4.6966   22.3405 C   0  0  0  0  0  0
  -22.7857  -13.5236   21.1852 C   0  0  0  0  0  0
  -22.1663   -4.2153   21.0981 F   0  0  0  0  0  0
  -21.5628   -3.4541   25.7738 F   0  0  0  0  0  0
  -30.0145  -13.4110   20.4334 N   0  0  0  0  0  0
  -26.3002  -12.9346   20.3322 N   0  0  0  0  0  0
  -25.9330  -11.6499   20.5748 N   0  0  0  0  0  0
  -22.0495  -12.8227   22.0403 N   0  0  0  0  0  0
  -25.4287  -15.1886   20.4102 N   0  0  0  0  0  0
  -31.7689  -14.8178   20.1040 O   0  0  0  0  0  0
  -21.6639   -6.8881   21.4242 O   0  0  0  0  0  0
  -22.3544  -14.5549   20.6710 O   0  0  0  0  0  0
  -24.6273  -31.8595   23.2018 C   0  0  0  0  0  0
  -25.9118  -32.4776   23.8352 C   0  0  1  0  0  0
  -27.2219  -27.3120   20.1124 C   0  0  0  0  0  0
  -25.5938  -33.8576   24.2284 N   0  0  0  0  0  0
  -23.4208  -30.4851   21.5452 C   0  0  2  0  0  0
  -24.8667  -28.9419   20.1103 C   0  0  0  0  0  0
  -22.7481  -29.4628   22.4926 C   0  0  0  0  0  0
  -18.0291  -28.1391   22.8491 C   0  0  0  0  0  0
  -24.1493  -36.7290   23.2636 C   0  0  0  0  0  0
  -25.9637  -30.7891   21.3735 C   0  0  0  0  0  0
  -26.0375  -29.4163   20.7150 C   0  0  0  0  0  0
  -27.2186  -28.6135   20.7063 C   0  0  0  0  0  0
  -26.0253  -26.8968   19.4805 C   0  0  0  0  0  0
  -24.8632  -27.6879   19.4844 C   0  0  0  0  0  0
  -23.6354  -29.8221   20.1601 C   0  0  0  0  0  0
  -25.4114  -36.3080   24.0332 C   0  0  1  0  0  0
  -20.5895  -28.3697   23.1279 C   0  0  2  0  0  0
  -20.6782  -26.9420   22.5407 C   0  0  0  0  0  0
  -19.5752  -26.6396   21.5215 C   0  0  0  0  0  0
  -18.1935  -26.7935   22.1628 C   0  0  0  0  0  0
  -19.1546  -28.8859   23.2883 C   0  0  0  0  0  0
  -18.9461  -30.1461   23.8900 C   0  0  0  0  0  0
  -17.6461  -30.6591   24.0567 C   0  0  0  0  0  0
  -25.9050  -34.9451   23.5103 C   0  0  0  0  0  0
  -16.5355  -29.9090   23.6331 C   0  0  0  0  0  0
  -16.7277  -28.6506   23.0354 C   0  0  0  0  0  0
  -26.4498  -31.6581   25.0720 C   0  0  0  0  0  0
  -25.3728  -31.3721   26.1445 C   0  0  0  0  0  0
  -27.0336  -30.3001   24.6172 C   0  0  0  0  0  0
  -27.6055  -32.4312   25.7495 C   0  0  0  0  0  0
  -27.5587  -37.1798   24.8457 C   0  0  0  0  0  0
  -21.4194  -29.3048   22.3669 N   0  0  0  0  0  0
  -26.4288  -37.3779   23.9418 N   0  0  0  0  0  0
  -24.6897  -31.0613   22.0969 N   0  0  0  0  0  0
  -23.4203  -28.8162   23.3002 O   0  0  0  0  0  0
  -28.3323  -26.4487   20.1653 O   0  0  0  0  0  0
  -26.5616  -34.8914   22.4669 O   0  0  0  0  0  0
  -23.5434  -32.1399   23.7344 O   0  0  0  0  0  0
  -29.7847  -19.3942   21.7939 C   0  0  0  0  0  0
  -29.9941  -19.2279   19.4083 C   0  0  0  0  0  0
  -29.9084  -20.0682   20.5518 C   0  0  0  0  0  0
  -29.7845  -17.9688   21.8996 C   0  0  0  0  0  0
  -29.9171  -17.1295   20.7548 C   0  0  0  0  0  0
  -29.9890  -17.8002   19.4965 C   0  0  0  0  0  0
  -29.2544  -24.0058   20.3439 C   0  0  0  0  0  0
  -29.6588  -17.3409   23.2776 C   0  0  0  0  0  0
  -30.1672  -21.6223   20.4838 C   0  0  0  0  0  0
  -28.0805  -24.9939   19.9735 C   0  0  0  0  0  0
  -29.8067  -15.6750   20.9007 N   0  0  0  0  0  0
  -29.0824  -22.6413   20.2731 N   0  0  0  0  0  0
  -30.3417  -24.4822   20.6804 O   0  0  0  0  0  0
  -30.0243  -16.8954   18.0231 Cl  0  0  0  0  0  0
  -31.4813  -12.5229   19.1501 H   0  0  0  0  0  0
  -30.3778  -11.3964   19.8891 H   0  0  0  0  0  0
  -29.7744  -11.7627   17.4763 H   0  0  0  0  0  0
  -29.6515  -13.4821   17.7465 H   0  0  0  0  0  0
  -27.8676  -11.2945   18.8634 H   0  0  0  0  0  0
  -27.3782  -12.5817   17.7935 H   0  0  0  0  0  0
  -27.6760  -14.2523   19.5284 H   0  0  0  0  0  0
  -28.7103  -12.0385   21.3687 H   0  0  0  0  0  0
  -28.4417  -13.6862   21.8518 H   0  0  0  0  0  0
  -25.2764   -9.5688   22.4760 H   0  0  0  0  0  0
  -24.0008   -7.4634   22.7475 H   0  0  0  0  0  0
  -21.0841   -8.8770   19.8952 H   0  0  0  0  0  0
  -22.3695  -10.9672   19.6163 H   0  0  0  0  0  0
  -21.2004   -7.6149   23.9718 H   0  0  0  0  0  0
  -21.1483   -6.0525   25.9080 H   0  0  0  0  0  0
  -22.0597   -2.7612   23.2845 H   0  0  0  0  0  0
  -22.4098  -11.9879   22.4781 H   0  0  0  0  0  0
  -21.1117  -13.1259   22.2613 H   0  0  0  0  0  0
  -24.6598  -15.8418   20.5155 H   0  0  0  0  0  0
  -26.2763  -15.6270   20.0728 H   0  0  0  0  0  0
  -26.7188  -32.5445   23.1103 H   0  0  0  0  0  0
  -25.0088  -33.9717   25.0432 H   0  0  0  0  0  0
  -22.7152  -31.3062   21.4030 H   0  0  0  0  0  0
  -23.3752  -35.9622   23.3283 H   0  0  0  0  0  0
  -24.3586  -36.8917   22.2051 H   0  0  0  0  0  0
  -23.7238  -37.6489   23.6656 H   0  0  0  0  0  0
  -26.0975  -31.5523   20.6054 H   0  0  0  0  0  0
  -26.8431  -30.8369   22.0038 H   0  0  0  0  0  0
  -28.1163  -28.9728   21.1906 H   0  0  0  0  0  0
  -25.9510  -25.9427   18.9820 H   0  0  0  0  0  0
  -23.9670  -27.3206   19.0036 H   0  0  0  0  0  0
  -23.7548  -30.5985   19.4035 H   0  0  0  0  0  0
  -22.7549  -29.2524   19.8575 H   0  0  0  0  0  0
  -25.1288  -36.1934   25.0824 H   0  0  0  0  0  0
  -20.9999  -28.3276   24.1394 H   0  0  0  0  0  0
  -20.5694  -26.2302   23.3603 H   0  0  0  0  0  0
  -21.6649  -26.7455   22.1198 H   0  0  0  0  0  0
  -19.6908  -25.6307   21.1240 H   0  0  0  0  0  0
  -19.6690  -27.3208   20.6745 H   0  0  0  0  0  0
  -17.4209  -26.6686   21.4029 H   0  0  0  0  0  0
  -18.0332  -26.0074   22.9021 H   0  0  0  0  0  0
  -19.7932  -30.7283   24.2273 H   0  0  0  0  0  0
  -17.5010  -31.6267   24.5177 H   0  0  0  0  0  0
  -15.5354  -30.2993   23.7643 H   0  0  0  0  0  0
  -15.8676  -28.0824   22.7071 H   0  0  0  0  0  0
  -24.5917  -30.7050   25.7784 H   0  0  0  0  0  0
  -24.8903  -32.2886   26.4854 H   0  0  0  0  0  0
  -25.8059  -30.8925   27.0232 H   0  0  0  0  0  0
  -26.2911  -29.6757   24.1191 H   0  0  0  0  0  0
  -27.4023  -29.7253   25.4677 H   0  0  0  0  0  0
  -27.8783  -30.4279   23.9398 H   0  0  0  0  0  0
  -27.2669  -33.3614   26.2073 H   0  0  0  0  0  0
  -28.3872  -32.6873   25.0331 H   0  0  0  0  0  0
  -28.0714  -31.8435   26.5415 H   0  0  0  0  0  0
  -28.2581  -38.0123   24.7554 H   0  0  0  0  0  0
  -28.1113  -36.2657   24.6221 H   0  0  0  0  0  0
  -27.2315  -37.1376   25.8861 H   0  0  0  0  0  0
  -20.9368  -29.8772   21.6883 H   0  0  0  0  0  0
  -26.0164  -38.2848   24.1438 H   0  0  0  0  0  0
  -29.7322  -19.9882   22.6966 H   0  0  0  0  0  0
  -30.0971  -19.6832   18.4336 H   0  0  0  0  0  0
  -29.6942  -18.0911   24.0678 H   0  0  0  0  0  0
  -30.4737  -16.6379   23.4531 H   0  0  0  0  0  0
  -28.7160  -16.8010   23.3671 H   0  0  0  0  0  0
  -30.9041  -21.7843   19.6954 H   0  0  0  0  0  0
  -30.6875  -21.8905   21.4047 H   0  0  0  0  0  0
  -27.2128  -24.6911   20.5612 H   0  0  0  0  0  0
  -27.8451  -24.8133   18.9246 H   0  0  0  0  0  0
  -28.9434  -15.3639   21.3172 H   0  0  0  0  0  0
  -28.1727  -22.2953   19.9985 H   0  0  0  0  0  0
  1 25  1  0  0  0
  1 30  2  0  0  0
  1 81  1  0  0  0
  2  3  1  0  0  0
  2 25  1  0  0  0
  2 85  1  0  0  0
  2 86  1  0  0  0
  3  4  1  0  0  0
  3 87  1  0  0  0
  3 88  1  0  0  0
  4  5  1  0  0  0
  4 89  1  0  0  0
  4 90  1  0  0  0
  5  6  1  0  0  0
  5 26  1  0  0  0
  5 91  1  0  0  0
  6 25  1  0  0  0
  6 92  1  0  0  0
  6 93  1  0  0  0
  7  8  2  0  0  0
  7 26  1  0  0  0
  7 29  1  0  0  0
  8  9  1  0  0  0
  8 22  1  0  0  0
  9 10  1  0  0  0
  9 27  2  0  0  0
 10 11  2  0  0  0
 10 15  1  0  0  0
 11 12  1  0  0  0
 11 94  1  0  0  0
 12 13  2  0  0  0
 12 95  1  0  0  0
 13 14  1  0  0  0
 13 31  1  0  0  0
 14 15  2  0  0  0
 14 96  1  0  0  0
 15 97  1  0  0  0
 16 17  2  0  0  0
 16 21  1  0  0  0
 16 31  1  0  0  0
 17 18  1  0  0  0
 17 98  1  0  0  0
 18 19  2  0  0  0
 18 99  1  0  0  0
 19 20  1  0  0  0
 19 24  1  0  0  0
 20 21  2  0  0  0
 20100  1  0  0  0
 21 23  1  0  0  0
 22 28  1  0  0  0
 22 32  2  0  0  0
 26 27  1  0  0  0
 28101  1  0  0  0
 28102  1  0  0  0
 29103  1  0  0  0
 29104  1  0  0  0
 33 34  1  0  0  0
 33 66  1  0  0  0
 33 70  2  0  0  0
 34 36  1  0  0  0
 34 59  1  0  0  0
 34105  1  0  0  0
 35 44  2  0  0  0
 35 45  1  0  0  0
 35 68  1  0  0  0
 36 56  1  0  0  0
 36106  1  0  0  0
 37 39  1  0  0  0
 37 47  1  0  0  0
 37 66  1  0  0  0
 37107  1  0  0  0
 38 43  2  0  0  0
 38 46  1  0  0  0
 38 47  1  0  0  0
 39 64  1  0  0  0
 39 67  2  0  0  0
 40 52  1  0  0  0
 40 53  2  0  0  0
 40 58  1  0  0  0
 41108  1  0  0  0
 41109  1  0  0  0
 41110  1  0  0  0
 41 48  1  0  0  0
 42 43  1  0  0  0
 42 66  1  0  0  0
 42111  1  0  0  0
 42112  1  0  0  0
 43 44  1  0  0  0
 44113  1  0  0  0
 45 46  2  0  0  0
 45114  1  0  0  0
 46115  1  0  0  0
 47116  1  0  0  0
 47117  1  0  0  0
 48 56  1  0  0  0
 48 65  1  0  0  0
 48118  1  0  0  0
 49 50  1  0  0  0
 49 53  1  0  0  0
 49 64  1  0  0  0
 49119  1  0  0  0
 50 51  1  0  0  0
 50120  1  0  0  0
 50121  1  0  0  0
 51 52  1  0  0  0
 51122  1  0  0  0
 51123  1  0  0  0
 52124  1  0  0  0
 52125  1  0  0  0
 53 54  1  0  0  0
 54 55  2  0  0  0
 54126  1  0  0  0
 55 57  1  0  0  0
 55127  1  0  0  0
 56 69  2  0  0  0
 57 58  2  0  0  0
 57128  1  0  0  0
 58129  1  0  0  0
 59 60  1  0  0  0
 59 61  1  0  0  0
 59 62  1  0  0  0
 60130  1  0  0  0
 60131  1  0  0  0
 60132  1  0  0  0
 61133  1  0  0  0
 61134  1  0  0  0
 61135  1  0  0  0
 62136  1  0  0  0
 62137  1  0  0  0
 62138  1  0  0  0
 63 65  1  0  0  0
 63139  1  0  0  0
 63140  1  0  0  0
 63141  1  0  0  0
 64142  1  0  0  0
 65143  1  0  0  0
 68 80  1  0  0  0
 71 73  2  0  0  0
 71 74  1  0  0  0
 71144  1  0  0  0
 72 73  1  0  0  0
 72 76  2  0  0  0
 72145  1  0  0  0
 73 79  1  0  0  0
 74 75  2  0  0  0
 74 78  1  0  0  0
 75 76  1  0  0  0
 75 81  1  0  0  0
 76 84  1  0  0  0
 77 80  1  0  0  0
 77 82  1  0  0  0
 77 83  2  0  0  0
 78146  1  0  0  0
 78147  1  0  0  0
 78148  1  0  0  0
 79 82  1  0  0  0
 79149  1  0  0  0
 79150  1  0  0  0
 80151  1  0  0  0
 80152  1  0  0  0
 81153  1  0  0  0
 82154  1  0  0  0
M  ISO  4   1 100  68 101  80 101  81 100
M  END
> <chiral flag>
0

> <version>
0

> <s_m_source_file>
/data/baiqing/PycharmProjects/Reinvent-master-3.2/result/LINK_invent/BTK/process_docking_weight1_custom_product_contain_oxygen_bond_distance_aromatic_linkinvent_7_9_3/rearranged_h_0043.sdf

> <i_m_source_file_index>
79

> <r_mmod_Potential_Energy-OPLS-2005>
-41.1504745483398

> <r_mmod_Stretch_Energy-OPLS-2005>
81.0010604858398

> <r_mmod_Bend_Energy-OPLS-2005>
132.125564575195

> <r_mmod_Torsional_Energy-OPLS-2005>
238.992340087891

> <r_mmod_Improper_Torsional_Energy-OPLS-2005>
5.04323720932007

> <r_mmod_Van_der_Waal_Energy-OPLS-2005>
142.125686645508

> <r_mmod_Electrostatic_Energy-OPLS-2005>
-441.619171142578

> <r_mmod_Solvation_Energy-OPLS-2005>
-250.109649658203

> <b_mmod_Minimization_Converged-OPLS-2005>
0

> <r_mmod_RMS_Derivative-OPLS-2005>
0.892560303211212

$$$$
79
                    3D
 Structure written by MMmdl.
156164  0  0  1  0            999 V2000
  -30.6241  -14.7256   20.4171 C   0  0  0  0  0  0
  -30.4160  -12.4300   19.4739 C   0  0  0  0  0  0
  -29.5145  -12.5241   18.2232 C   0  0  0  0  0  0
  -28.0298  -12.3615   18.6158 C   0  0  0  0  0  0
  -27.6378  -13.2436   19.8330 C   0  0  2  0  0  0
  -28.6788  -13.1909   20.9726 C   0  0  0  0  0  0
  -25.2516  -13.8248   20.5648 C   0  0  0  0  0  0
  -24.1835  -13.0456   20.9162 C   0  0  0  0  0  0
  -24.6466  -11.6940   20.8740 C   0  0  0  0  0  0
  -23.9166  -10.4301   21.0384 C   0  0  0  0  0  0
  -24.3700   -9.4219   21.9174 C   0  0  0  0  0  0
  -23.6359   -8.2267   22.0753 C   0  0  0  0  0  0
  -22.4329   -8.0312   21.3560 C   0  0  0  0  0  0
  -21.9989   -9.0283   20.4647 C   0  0  0  0  0  0
  -22.7332  -10.2145   20.3043 C   0  0  0  0  0  0
  -21.6864   -6.0799   22.5292 C   0  0  0  0  0  0
  -21.4018   -6.5690   23.8234 C   0  0  0  0  0  0
  -21.3657   -5.6812   24.9183 C   0  0  0  0  0  0
  -21.6043   -4.3091   24.7202 C   0  0  0  0  0  0
  -21.8809   -3.8196   23.4327 C   0  0  0  0  0  0
  -21.9187   -4.7030   22.3389 C   0  0  0  0  0  0
  -22.7860  -13.5222   21.1809 C   0  0  0  0  0  0
  -22.1659   -4.2226   21.0959 F   0  0  0  0  0  0
  -21.5627   -3.4560   25.7709 F   0  0  0  0  0  0
  -29.9869  -13.5053   20.3932 N   0  0  0  0  0  0
  -26.2944  -12.9476   20.3165 N   0  0  0  0  0  0
  -25.9391  -11.6610   20.5683 N   0  0  0  0  0  0
  -22.0543  -12.8190   22.0370 N   0  0  0  0  0  0
  -25.4126  -15.1972   20.4130 N   0  0  0  0  0  0
  -31.8344  -14.7877   20.1995 O   0  0  0  0  0  0
  -21.6655   -6.8943   21.4248 O   0  0  0  0  0  0
  -22.3510  -14.5503   20.6621 O   0  0  0  0  0  0
  -24.6370  -31.8494   23.2033 C   0  0  0  0  0  0
  -25.9197  -32.4720   23.8356 C   0  0  1  0  0  0
  -27.2116  -27.2696   20.1078 C   0  0  0  0  0  0
  -25.5988  -33.8531   24.2250 N   0  0  0  0  0  0
  -23.4283  -30.4820   21.5446 C   0  0  2  0  0  0
  -24.8657  -28.9302   20.1080 C   0  0  0  0  0  0
  -22.7498  -29.4576   22.4867 C   0  0  0  0  0  0
  -18.0293  -28.1402   22.8477 C   0  0  0  0  0  0
  -24.1470  -36.7318   23.2627 C   0  0  0  0  0  0
  -25.9752  -30.7687   21.3762 C   0  0  0  0  0  0
  -26.0405  -29.3960   20.7078 C   0  0  0  0  0  0
  -27.2138  -28.5810   20.6910 C   0  0  0  0  0  0
  -26.0042  -26.8602   19.4934 C   0  0  0  0  0  0
  -24.8495  -27.6691   19.4946 C   0  0  0  0  0  0
  -23.6442  -29.8262   20.1552 C   0  0  0  0  0  0
  -25.4099  -36.3043   24.0291 C   0  0  1  0  0  0
  -20.5907  -28.3697   23.1253 C   0  0  2  0  0  0
  -20.6755  -26.9403   22.5400 C   0  0  0  0  0  0
  -19.5724  -26.6379   21.5197 C   0  0  0  0  0  0
  -18.1915  -26.7948   22.1608 C   0  0  0  0  0  0
  -19.1549  -28.8874   23.2856 C   0  0  0  0  0  0
  -18.9456  -30.1495   23.8844 C   0  0  0  0  0  0
  -17.6442  -30.6572   24.0591 C   0  0  0  0  0  0
  -25.9072  -34.9416   23.5062 C   0  0  0  0  0  0
  -16.5347  -29.9067   23.6340 C   0  0  0  0  0  0
  -16.7275  -28.6509   23.0321 C   0  0  0  0  0  0
  -26.4564  -31.6611   25.0805 C   0  0  0  0  0  0
  -25.3819  -31.3792   26.1568 C   0  0  0  0  0  0
  -27.0436  -30.3024   24.6367 C   0  0  0  0  0  0
  -27.6037  -32.4444   25.7627 C   0  0  0  0  0  0
  -27.5572  -37.1796   24.8425 C   0  0  0  0  0  0
  -21.4200  -29.3057   22.3653 N   0  0  0  0  0  0
  -26.4247  -37.3767   23.9415 N   0  0  0  0  0  0
  -24.7017  -31.0503   22.0975 N   0  0  0  0  0  0
  -23.4220  -28.8037   23.2876 O   0  0  0  0  0  0
  -28.3423  -26.4269   20.1852 O   0  0  0  0  0  0
  -26.5607  -34.8876   22.4618 O   0  0  0  0  0  0
  -23.5526  -32.1298   23.7352 O   0  0  0  0  0  0
  -31.0770  -18.7858   18.3429 C   0  0  0  0  0  0
  -29.5802  -18.4629   20.6633 C   0  0  0  0  0  0
  -29.7932  -19.8242   20.1595 C   0  0  0  0  0  0
  -30.0979  -17.2609   20.0074 C   0  0  0  0  0  0
  -30.6461  -19.9318   19.0290 C   0  0  0  0  0  0
  -30.7772  -17.4820   18.7758 C   0  0  0  0  0  0
  -28.7959  -18.3087   21.9568 C   0  0  0  0  0  0
  -29.1862  -21.1450   20.8448 C   0  0  0  0  0  0
  -28.6381  -23.7672   20.6917 C   0  0  0  0  0  0
  -28.3760  -25.0081   19.6997 C   0  0  0  0  0  0
  -29.8421  -15.8710   20.4854 N   0  0  0  0  0  0
  -28.9746  -22.4224   20.0234 N   0  3  0  0  0  0
  -31.2210  -21.4485   18.4235 Cl  0  0  0  0  0  0
  -31.1965  -16.2161   17.6695 Cl  0  0  0  0  0  0
  -31.4678  -12.5121   19.1946 H   0  0  0  0  0  0
  -30.3066  -11.4539   19.9497 H   0  0  0  0  0  0
  -29.8033  -11.7765   17.4825 H   0  0  0  0  0  0
  -29.6611  -13.4929   17.7414 H   0  0  0  0  0  0
  -27.8467  -11.3084   18.8305 H   0  0  0  0  0  0
  -27.3945  -12.6060   17.7633 H   0  0  0  0  0  0
  -27.6283  -14.2669   19.4562 H   0  0  0  0  0  0
  -28.6982  -12.2152   21.4561 H   0  0  0  0  0  0
  -28.4253  -13.9182   21.7469 H   0  0  0  0  0  0
  -25.2859   -9.5701   22.4745 H   0  0  0  0  0  0
  -24.0088   -7.4652   22.7466 H   0  0  0  0  0  0
  -21.0941   -8.8821   19.8930 H   0  0  0  0  0  0
  -22.3828  -10.9699   19.6153 H   0  0  0  0  0  0
  -21.2026   -7.6196   23.9772 H   0  0  0  0  0  0
  -21.1477   -6.0527   25.9079 H   0  0  0  0  0  0
  -22.0586   -2.7670   23.2772 H   0  0  0  0  0  0
  -22.4213  -11.9883   22.4766 H   0  0  0  0  0  0
  -21.1132  -13.1170   22.2561 H   0  0  0  0  0  0
  -24.6337  -15.8375   20.5135 H   0  0  0  0  0  0
  -26.2591  -15.6602   20.1103 H   0  0  0  0  0  0
  -26.7248  -32.5339   23.1073 H   0  0  0  0  0  0
  -25.0207  -33.9638   25.0443 H   0  0  0  0  0  0
  -22.7293  -31.3106   21.4062 H   0  0  0  0  0  0
  -23.3684  -35.9697   23.3229 H   0  0  0  0  0  0
  -24.3538  -36.9061   22.2057 H   0  0  0  0  0  0
  -23.7264  -37.6505   23.6719 H   0  0  0  0  0  0
  -26.1222  -31.5311   20.6109 H   0  0  0  0  0  0
  -26.8512  -30.8024   22.0135 H   0  0  0  0  0  0
  -28.1199  -28.9374   21.1589 H   0  0  0  0  0  0
  -25.8873  -25.8985   19.0213 H   0  0  0  0  0  0
  -23.9441  -27.3025   19.0281 H   0  0  0  0  0  0
  -23.7849  -30.6147   19.4138 H   0  0  0  0  0  0
  -22.7581  -29.2807   19.8267 H   0  0  0  0  0  0
  -25.1260  -36.1864   25.0771 H   0  0  0  0  0  0
  -21.0001  -28.3268   24.1373 H   0  0  0  0  0  0
  -20.5605  -26.2289   23.3603 H   0  0  0  0  0  0
  -21.6615  -26.7375   22.1219 H   0  0  0  0  0  0
  -19.6838  -25.6265   21.1264 H   0  0  0  0  0  0
  -19.6690  -27.3140   20.6693 H   0  0  0  0  0  0
  -17.4190  -26.6728   21.4024 H   0  0  0  0  0  0
  -18.0307  -26.0105   22.9009 H   0  0  0  0  0  0
  -19.7936  -30.7374   24.2131 H   0  0  0  0  0  0
  -17.4975  -31.6218   24.5260 H   0  0  0  0  0  0
  -15.5324  -30.2928   23.7712 H   0  0  0  0  0  0
  -15.8690  -28.0828   22.6990 H   0  0  0  0  0  0
  -24.5845  -30.7306   25.7936 H   0  0  0  0  0  0
  -24.9208  -32.2988   26.5175 H   0  0  0  0  0  0
  -25.8182  -30.8827   27.0252 H   0  0  0  0  0  0
  -26.3030  -29.6766   24.1378 H   0  0  0  0  0  0
  -27.4023  -29.7346   25.4966 H   0  0  0  0  0  0
  -27.8953  -30.4243   23.9675 H   0  0  0  0  0  0
  -27.2472  -33.3627   26.2300 H   0  0  0  0  0  0
  -28.3824  -32.7262   25.0533 H   0  0  0  0  0  0
  -28.0747  -31.8599   26.5531 H   0  0  0  0  0  0
  -28.2504  -38.0170   24.7525 H   0  0  0  0  0  0
  -28.1150  -36.2699   24.6137 H   0  0  0  0  0  0
  -27.2321  -37.1341   25.8835 H   0  0  0  0  0  0
  -20.9338  -29.8903   21.6998 H   0  0  0  0  0  0
  -26.0105  -38.2824   24.1483 H   0  0  0  0  0  0
  -31.6487  -18.9113   17.4354 H   0  0  0  0  0  0
  -27.7805  -18.6755   21.8103 H   0  0  0  0  0  0
  -29.2630  -18.8904   22.7547 H   0  0  0  0  0  0
  -28.7238  -17.2801   22.3085 H   0  0  0  0  0  0
  -29.7958  -21.3901   21.7160 H   0  0  0  0  0  0
  -28.2023  -20.8890   21.2366 H   0  0  0  0  0  0
  -27.7632  -23.6372   21.3289 H   0  0  0  0  0  0
  -29.4582  -24.0224   21.3608 H   0  0  0  0  0  0
  -27.5156  -24.7496   19.0890 H   0  0  0  0  0  0
  -29.1955  -24.9976   18.9796 H   0  0  0  0  0  0
  -28.8915  -15.6974   20.7719 H   0  0  0  0  0  0
  -28.2623  -22.2118   19.3410 H   0  0  0  0  0  0
  -29.8376  -22.5492   19.5124 H   0  0  0  0  0  0
  1 25  1  0  0  0
  1 30  2  0  0  0
  1 81  1  0  0  0
  2  3  1  0  0  0
  2 25  1  0  0  0
  2 85  1  0  0  0
  2 86  1  0  0  0
  3  4  1  0  0  0
  3 87  1  0  0  0
  3 88  1  0  0  0
  4  5  1  0  0  0
  4 89  1  0  0  0
  4 90  1  0  0  0
  5  6  1  0  0  0
  5 26  1  0  0  0
  5 91  1  0  0  0
  6 25  1  0  0  0
  6 92  1  0  0  0
  6 93  1  0  0  0
  7  8  2  0  0  0
  7 26  1  0  0  0
  7 29  1  0  0  0
  8  9  1  0  0  0
  8 22  1  0  0  0
  9 10  1  0  0  0
  9 27  2  0  0  0
 10 11  2  0  0  0
 10 15  1  0  0  0
 11 12  1  0  0  0
 11 94  1  0  0  0
 12 13  2  0  0  0
 12 95  1  0  0  0
 13 14  1  0  0  0
 13 31  1  0  0  0
 14 15  2  0  0  0
 14 96  1  0  0  0
 15 97  1  0  0  0
 16 17  2  0  0  0
 16 21  1  0  0  0
 16 31  1  0  0  0
 17 18  1  0  0  0
 17 98  1  0  0  0
 18 19  2  0  0  0
 18 99  1  0  0  0
 19 20  1  0  0  0
 19 24  1  0  0  0
 20 21  2  0  0  0
 20100  1  0  0  0
 21 23  1  0  0  0
 22 28  1  0  0  0
 22 32  2  0  0  0
 26 27  1  0  0  0
 28101  1  0  0  0
 28102  1  0  0  0
 29103  1  0  0  0
 29104  1  0  0  0
 33 34  1  0  0  0
 33 66  1  0  0  0
 33 70  2  0  0  0
 34 36  1  0  0  0
 34 59  1  0  0  0
 34105  1  0  0  0
 35 44  2  0  0  0
 35 45  1  0  0  0
 35 68  1  0  0  0
 36 56  1  0  0  0
 36106  1  0  0  0
 37 39  1  0  0  0
 37 47  1  0  0  0
 37 66  1  0  0  0
 37107  1  0  0  0
 38 43  2  0  0  0
 38 46  1  0  0  0
 38 47  1  0  0  0
 39 64  1  0  0  0
 39 67  2  0  0  0
 40 52  1  0  0  0
 40 53  2  0  0  0
 40 58  1  0  0  0
 41108  1  0  0  0
 41109  1  0  0  0
 41110  1  0  0  0
 41 48  1  0  0  0
 42 43  1  0  0  0
 42 66  1  0  0  0
 42111  1  0  0  0
 42112  1  0  0  0
 43 44  1  0  0  0
 44113  1  0  0  0
 45 46  2  0  0  0
 45114  1  0  0  0
 46115  1  0  0  0
 47116  1  0  0  0
 47117  1  0  0  0
 48 56  1  0  0  0
 48 65  1  0  0  0
 48118  1  0  0  0
 49 50  1  0  0  0
 49 53  1  0  0  0
 49 64  1  0  0  0
 49119  1  0  0  0
 50 51  1  0  0  0
 50120  1  0  0  0
 50121  1  0  0  0
 51 52  1  0  0  0
 51122  1  0  0  0
 51123  1  0  0  0
 52124  1  0  0  0
 52125  1  0  0  0
 53 54  1  0  0  0
 54 55  2  0  0  0
 54126  1  0  0  0
 55 57  1  0  0  0
 55127  1  0  0  0
 56 69  2  0  0  0
 57 58  2  0  0  0
 57128  1  0  0  0
 58129  1  0  0  0
 59 60  1  0  0  0
 59 61  1  0  0  0
 59 62  1  0  0  0
 60130  1  0  0  0
 60131  1  0  0  0
 60132  1  0  0  0
 61133  1  0  0  0
 61134  1  0  0  0
 61135  1  0  0  0
 62136  1  0  0  0
 62137  1  0  0  0
 62138  1  0  0  0
 63 65  1  0  0  0
 63139  1  0  0  0
 63140  1  0  0  0
 63141  1  0  0  0
 64142  1  0  0  0
 65143  1  0  0  0
 68 80  1  0  0  0
 71 75  2  0  0  0
 71 76  1  0  0  0
 71144  1  0  0  0
 72 73  2  0  0  0
 72 74  1  0  0  0
 72 77  1  0  0  0
 73 75  1  0  0  0
 73 78  1  0  0  0
 74 76  2  0  0  0
 74 81  1  0  0  0
 75 83  1  0  0  0
 76 84  1  0  0  0
 77145  1  0  0  0
 77146  1  0  0  0
 77147  1  0  0  0
 78 82  1  0  0  0
 78148  1  0  0  0
 78149  1  0  0  0
 79 80  1  0  0  0
 79 82  1  0  0  0
 79150  1  0  0  0
 79151  1  0  0  0
 80152  1  0  0  0
 80153  1  0  0  0
 81154  1  0  0  0
 82155  1  0  0  0
 82156  1  0  0  0
M  CHG  1  82   1
M  ISO  4   1 100  68 101  80 101  81 100
M  END
> <chiral flag>
0

> <version>
0

> <s_m_source_file>
/data/baiqing/PycharmProjects/Reinvent-master-3.2/result/LINK_invent/BTK/process_docking_weight1_custom_product_contain_oxygen_bond_distance_aromatic_linkinvent_7_9_3/rearranged_h_0043.sdf

> <i_m_source_file_index>
80

> <r_mmod_Potential_Energy-OPLS-2005>
-37.9642219543457

> <r_mmod_Stretch_Energy-OPLS-2005>
122.098335266113

> <r_mmod_Bend_Energy-OPLS-2005>
167.404342651367

> <r_mmod_Torsional_Energy-OPLS-2005>
233.281829833984

> <r_mmod_Improper_Torsional_Energy-OPLS-2005>
5.37329578399658

> <r_mmod_Van_der_Waal_Energy-OPLS-2005>
152.183654785156

> <r_mmod_Electrostatic_Energy-OPLS-2005>
-323.539672851562

> <r_mmod_Solvation_Energy-OPLS-2005>
-475.298431396484

> <b_mmod_Minimization_Converged-OPLS-2005>
0

> <r_mmod_RMS_Derivative-OPLS-2005>
5.2341947555542

$$$$
80
                    3D
 Structure written by MMmdl.
164173  0  0  1  0            999 V2000
  -30.6168  -14.6447   20.4894 C   0  0  0  0  0  0
  -30.4363  -12.3915   19.4565 C   0  0  0  0  0  0
  -29.5081  -12.5074   18.2263 C   0  0  0  0  0  0
  -28.0305  -12.3457   18.6365 C   0  0  0  0  0  0
  -27.6526  -13.2168   19.8642 C   0  0  2  0  0  0
  -28.6961  -13.0738   20.9949 C   0  0  0  0  0  0
  -25.2553  -13.8175   20.5685 C   0  0  0  0  0  0
  -24.1824  -13.0440   20.9196 C   0  0  0  0  0  0
  -24.6393  -11.6911   20.8740 C   0  0  0  0  0  0
  -23.9063  -10.4294   21.0405 C   0  0  0  0  0  0
  -24.3615   -9.4210   21.9183 C   0  0  0  0  0  0
  -23.6291   -8.2246   22.0754 C   0  0  0  0  0  0
  -22.4273   -8.0286   21.3546 C   0  0  0  0  0  0
  -21.9908   -9.0257   20.4648 C   0  0  0  0  0  0
  -22.7235  -10.2136   20.3056 C   0  0  0  0  0  0
  -21.6854   -6.0737   22.5280 C   0  0  0  0  0  0
  -21.4013   -6.5639   23.8213 C   0  0  0  0  0  0
  -21.3662   -5.6792   24.9176 C   0  0  0  0  0  0
  -21.6045   -4.3054   24.7226 C   0  0  0  0  0  0
  -21.8819   -3.8147   23.4347 C   0  0  0  0  0  0
  -21.9193   -4.6965   22.3403 C   0  0  0  0  0  0
  -22.7847  -13.5232   21.1859 C   0  0  0  0  0  0
  -22.1660   -4.2151   21.0980 F   0  0  0  0  0  0
  -21.5633   -3.4536   25.7738 F   0  0  0  0  0  0
  -30.0117  -13.4153   20.4324 N   0  0  0  0  0  0
  -26.2982  -12.9357   20.3320 N   0  0  0  0  0  0
  -25.9322  -11.6512   20.5756 N   0  0  0  0  0  0
  -22.0490  -12.8222   22.0416 N   0  0  0  0  0  0
  -25.4257  -15.1898   20.4086 N   0  0  0  0  0  0
  -31.7818  -14.7952   20.1100 O   0  0  0  0  0  0
  -21.6641   -6.8880   21.4241 O   0  0  0  0  0  0
  -22.3529  -14.5537   20.6708 O   0  0  0  0  0  0
  -24.6249  -31.8602   23.2028 C   0  0  0  0  0  0
  -25.9099  -32.4781   23.8355 C   0  0  1  0  0  0
  -27.2222  -27.3266   20.1247 C   0  0  0  0  0  0
  -25.5917  -33.8582   24.2282 N   0  0  0  0  0  0
  -23.4186  -30.4834   21.5452 C   0  0  2  0  0  0
  -24.8658  -28.9371   20.1134 C   0  0  0  0  0  0
  -22.7468  -29.4626   22.4942 C   0  0  0  0  0  0
  -18.0284  -28.1384   22.8488 C   0  0  0  0  0  0
  -24.1489  -36.7297   23.2640 C   0  0  0  0  0  0
  -25.9583  -30.7937   21.3729 C   0  0  0  0  0  0
  -26.0337  -29.4205   20.7179 C   0  0  0  0  0  0
  -27.2181  -28.6272   20.7124 C   0  0  0  0  0  0
  -26.0379  -26.8952   19.4900 C   0  0  0  0  0  0
  -24.8689  -27.6792   19.4900 C   0  0  0  0  0  0
  -23.6334  -29.8166   20.1609 C   0  0  0  0  0  0
  -25.4114  -36.3087   24.0330 C   0  0  1  0  0  0
  -20.5884  -28.3687   23.1287 C   0  0  2  0  0  0
  -20.6775  -26.9411   22.5412 C   0  0  0  0  0  0
  -19.5751  -26.6385   21.5213 C   0  0  0  0  0  0
  -18.1930  -26.7928   22.1624 C   0  0  0  0  0  0
  -19.1537  -28.8852   23.2883 C   0  0  0  0  0  0
  -18.9460  -30.1454   23.8900 C   0  0  0  0  0  0
  -17.6461  -30.6587   24.0565 C   0  0  0  0  0  0
  -25.9049  -34.9455   23.5108 C   0  0  0  0  0  0
  -16.5352  -29.9087   23.6329 C   0  0  0  0  0  0
  -16.7272  -28.6504   23.0351 C   0  0  0  0  0  0
  -26.4489  -31.6587   25.0722 C   0  0  0  0  0  0
  -25.3725  -31.3723   26.1452 C   0  0  0  0  0  0
  -27.0328  -30.3011   24.6168 C   0  0  0  0  0  0
  -27.6050  -32.4321   25.7492 C   0  0  0  0  0  0
  -27.5580  -37.1805   24.8465 C   0  0  0  0  0  0
  -21.4183  -29.3042   22.3683 N   0  0  0  0  0  0
  -26.4294  -37.3780   23.9407 N   0  0  0  0  0  0
  -24.6859  -31.0621   22.0976 N   0  0  0  0  0  0
  -23.4194  -28.8167   23.3021 O   0  0  0  0  0  0
  -28.3352  -26.4786   20.1369 O   0  0  0  0  0  0
  -26.5618  -34.8920   22.4676 O   0  0  0  0  0  0
  -23.5415  -32.1397   23.7362 O   0  0  0  0  0  0
  -28.7754  -19.3845   20.7513 C   0  0  0  0  0  0
  -28.7997  -17.9790   21.0028 C   0  0  0  0  0  0
  -30.9372  -17.8092   19.9384 C   0  0  0  0  0  0
  -29.8327  -20.0558   20.0810 C   0  0  0  0  0  0
  -30.9255  -19.2158   19.6628 C   0  0  0  0  0  0
  -29.8761  -17.1434   20.5989 C   0  0  0  0  0  0
  -28.8693  -23.9505   19.8391 C   0  0  0  0  0  0
  -29.1263  -23.7544   22.6623 C   0  0  0  0  0  0
  -28.4934  -25.0703   22.1569 C   0  0  0  0  0  0
  -28.7183  -22.5212   21.8303 C   0  0  0  0  0  0
  -28.1407  -25.0969   20.6498 C   0  0  1  0  0  0
  -33.1746  -20.4044   19.8269 C   0  0  0  0  0  0
  -29.7788  -21.5943   19.6862 C   0  0  0  0  0  0
  -32.1325  -19.7747   18.8924 C   0  0  0  0  0  0
  -29.0422  -22.6999   20.4090 N   0  0  0  0  0  0
  -29.8076  -15.6967   20.8425 N   0  0  0  0  0  0
  -29.2523  -24.1986   18.6909 O   0  0  0  0  0  0
  -31.7598  -20.6584   17.9671 F   0  0  0  0  0  0
  -32.7533  -18.7974   18.2294 F   0  0  0  0  0  0
  -31.4782  -12.5137   19.1557 H   0  0  0  0  0  0
  -30.3685  -11.3966   19.8993 H   0  0  0  0  0  0
  -29.7733  -11.7556   17.4819 H   0  0  0  0  0  0
  -29.6518  -13.4766   17.7456 H   0  0  0  0  0  0
  -27.8667  -11.2925   18.8675 H   0  0  0  0  0  0
  -27.3768  -12.5759   17.7943 H   0  0  0  0  0  0
  -27.6702  -14.2521   19.5232 H   0  0  0  0  0  0
  -28.7067  -12.0534   21.3801 H   0  0  0  0  0  0
  -28.4411  -13.7087   21.8448 H   0  0  0  0  0  0
  -25.2763   -9.5687   22.4751 H   0  0  0  0  0  0
  -24.0006   -7.4635   22.7466 H   0  0  0  0  0  0
  -21.0842   -8.8768   19.8950 H   0  0  0  0  0  0
  -22.3694  -10.9670   19.6160 H   0  0  0  0  0  0
  -21.2004   -7.6146   23.9718 H   0  0  0  0  0  0
  -21.1483   -6.0522   25.9079 H   0  0  0  0  0  0
  -22.0597   -2.7608   23.2846 H   0  0  0  0  0  0
  -22.4104  -11.9880   22.4799 H   0  0  0  0  0  0
  -21.1110  -13.1247   22.2624 H   0  0  0  0  0  0
  -24.6542  -15.8405   20.5089 H   0  0  0  0  0  0
  -26.2676  -15.6273   20.0566 H   0  0  0  0  0  0
  -26.7169  -32.5457   23.1107 H   0  0  0  0  0  0
  -25.0058  -33.9729   25.0422 H   0  0  0  0  0  0
  -22.7120  -31.3036   21.4016 H   0  0  0  0  0  0
  -23.3750  -35.9632   23.3307 H   0  0  0  0  0  0
  -24.3578  -36.8912   22.2053 H   0  0  0  0  0  0
  -23.7245  -37.6502   23.6657 H   0  0  0  0  0  0
  -26.0873  -31.5566   20.6037 H   0  0  0  0  0  0
  -26.8395  -30.8440   22.0007 H   0  0  0  0  0  0
  -28.1167  -28.9937   21.1888 H   0  0  0  0  0  0
  -26.0080  -25.9364   18.9920 H   0  0  0  0  0  0
  -23.9759  -27.3059   19.0076 H   0  0  0  0  0  0
  -23.7519  -30.5922   19.4035 H   0  0  0  0  0  0
  -22.7537  -29.2450   19.8593 H   0  0  0  0  0  0
  -25.1296  -36.1942   25.0824 H   0  0  0  0  0  0
  -20.9976  -28.3260   24.1407 H   0  0  0  0  0  0
  -20.5676  -26.2297   23.3610 H   0  0  0  0  0  0
  -21.6644  -26.7442   22.1205 H   0  0  0  0  0  0
  -19.6913  -25.6295   21.1243 H   0  0  0  0  0  0
  -19.6689  -27.3196   20.6743 H   0  0  0  0  0  0
  -17.4200  -26.6674   21.4027 H   0  0  0  0  0  0
  -18.0332  -26.0068   22.9020 H   0  0  0  0  0  0
  -19.7937  -30.7270   24.2270 H   0  0  0  0  0  0
  -17.5016  -31.6268   24.5165 H   0  0  0  0  0  0
  -15.5353  -30.2991   23.7651 H   0  0  0  0  0  0
  -15.8671  -28.0825   22.7064 H   0  0  0  0  0  0
  -24.5897  -30.7076   25.7781 H   0  0  0  0  0  0
  -24.8919  -32.2889   26.4884 H   0  0  0  0  0  0
  -25.8051  -30.8895   27.0223 H   0  0  0  0  0  0
  -26.2899  -29.6767   24.1192 H   0  0  0  0  0  0
  -27.4027  -29.7262   25.4668 H   0  0  0  0  0  0
  -27.8768  -30.4300   23.9388 H   0  0  0  0  0  0
  -27.2660  -33.3616   26.2077 H   0  0  0  0  0  0
  -28.3856  -32.6888   25.0318 H   0  0  0  0  0  0
  -28.0723  -31.8441   26.5402 H   0  0  0  0  0  0
  -28.2603  -38.0097   24.7506 H   0  0  0  0  0  0
  -28.1070  -36.2628   24.6299 H   0  0  0  0  0  0
  -27.2297  -37.1464   25.8868 H   0  0  0  0  0  0
  -20.9358  -29.8763   21.6894 H   0  0  0  0  0  0
  -26.0177  -38.2858   24.1401 H   0  0  0  0  0  0
  -27.9044  -19.9451   21.0599 H   0  0  0  0  0  0
  -27.9492  -17.5394   21.5055 H   0  0  0  0  0  0
  -31.7818  -17.2236   19.6089 H   0  0  0  0  0  0
  -28.8800  -23.6018   23.7143 H   0  0  0  0  0  0
  -30.2130  -23.8492   22.6254 H   0  0  0  0  0  0
  -29.1658  -25.8947   22.3962 H   0  0  0  0  0  0
  -27.5808  -25.2665   22.7216 H   0  0  0  0  0  0
  -27.6489  -22.3303   21.9321 H   0  0  0  0  0  0
  -29.2338  -21.6507   22.2353 H   0  0  0  0  0  0
  -27.0912  -24.8123   20.5816 H   0  0  0  0  0  0
  -32.7630  -21.2246   20.4129 H   0  0  0  0  0  0
  -34.0201  -20.7945   19.2604 H   0  0  0  0  0  0
  -33.5606  -19.6657   20.5290 H   0  0  0  0  0  0
  -29.4299  -21.6033   18.6521 H   0  0  0  0  0  0
  -30.7988  -21.9679   19.6539 H   0  0  0  0  0  0
  -28.9245  -15.3836   21.2149 H   0  0  0  0  0  0
  1 25  1  0  0  0
  1 30  2  0  0  0
  1 86  1  0  0  0
  2  3  1  0  0  0
  2 25  1  0  0  0
  2 90  1  0  0  0
  2 91  1  0  0  0
  3  4  1  0  0  0
  3 92  1  0  0  0
  3 93  1  0  0  0
  4  5  1  0  0  0
  4 94  1  0  0  0
  4 95  1  0  0  0
  5  6  1  0  0  0
  5 26  1  0  0  0
  5 96  1  0  0  0
  6 25  1  0  0  0
  6 97  1  0  0  0
  6 98  1  0  0  0
  7  8  2  0  0  0
  7 26  1  0  0  0
  7 29  1  0  0  0
  8  9  1  0  0  0
  8 22  1  0  0  0
  9 10  1  0  0  0
  9 27  2  0  0  0
 10 11  2  0  0  0
 10 15  1  0  0  0
 11 12  1  0  0  0
 11 99  1  0  0  0
 12 13  2  0  0  0
 12100  1  0  0  0
 13 14  1  0  0  0
 13 31  1  0  0  0
 14 15  2  0  0  0
 14101  1  0  0  0
 15102  1  0  0  0
 16 17  2  0  0  0
 16 21  1  0  0  0
 16 31  1  0  0  0
 17 18  1  0  0  0
 17103  1  0  0  0
 18 19  2  0  0  0
 18104  1  0  0  0
 19 20  1  0  0  0
 19 24  1  0  0  0
 20 21  2  0  0  0
 20105  1  0  0  0
 21 23  1  0  0  0
 22 28  1  0  0  0
 22 32  2  0  0  0
 26 27  1  0  0  0
 28106  1  0  0  0
 28107  1  0  0  0
 29108  1  0  0  0
 29109  1  0  0  0
 33 34  1  0  0  0
 33 66  1  0  0  0
 33 70  2  0  0  0
 34 36  1  0  0  0
 34 59  1  0  0  0
 34110  1  0  0  0
 35 44  2  0  0  0
 35 45  1  0  0  0
 35 68  1  0  0  0
 36 56  1  0  0  0
 36111  1  0  0  0
 37 39  1  0  0  0
 37 47  1  0  0  0
 37 66  1  0  0  0
 37112  1  0  0  0
 38 43  2  0  0  0
 38 46  1  0  0  0
 38 47  1  0  0  0
 39 64  1  0  0  0
 39 67  2  0  0  0
 40 52  1  0  0  0
 40 53  2  0  0  0
 40 58  1  0  0  0
 41113  1  0  0  0
 41114  1  0  0  0
 41115  1  0  0  0
 41 48  1  0  0  0
 42 43  1  0  0  0
 42 66  1  0  0  0
 42116  1  0  0  0
 42117  1  0  0  0
 43 44  1  0  0  0
 44118  1  0  0  0
 45 46  2  0  0  0
 45119  1  0  0  0
 46120  1  0  0  0
 47121  1  0  0  0
 47122  1  0  0  0
 48 56  1  0  0  0
 48 65  1  0  0  0
 48123  1  0  0  0
 49 50  1  0  0  0
 49 53  1  0  0  0
 49 64  1  0  0  0
 49124  1  0  0  0
 50 51  1  0  0  0
 50125  1  0  0  0
 50126  1  0  0  0
 51 52  1  0  0  0
 51127  1  0  0  0
 51128  1  0  0  0
 52129  1  0  0  0
 52130  1  0  0  0
 53 54  1  0  0  0
 54 55  2  0  0  0
 54131  1  0  0  0
 55 57  1  0  0  0
 55132  1  0  0  0
 56 69  2  0  0  0
 57 58  2  0  0  0
 57133  1  0  0  0
 58134  1  0  0  0
 59 60  1  0  0  0
 59 61  1  0  0  0
 59 62  1  0  0  0
 60135  1  0  0  0
 60136  1  0  0  0
 60137  1  0  0  0
 61138  1  0  0  0
 61139  1  0  0  0
 61140  1  0  0  0
 62141  1  0  0  0
 62142  1  0  0  0
 62143  1  0  0  0
 63 65  1  0  0  0
 63144  1  0  0  0
 63145  1  0  0  0
 63146  1  0  0  0
 64147  1  0  0  0
 65148  1  0  0  0
 68 81  1  0  0  0
 71 72  2  0  0  0
 71 74  1  0  0  0
 71149  1  0  0  0
 72 76  1  0  0  0
 72150  1  0  0  0
 73 75  1  0  0  0
 73 76  2  0  0  0
 73151  1  0  0  0
 74 75  2  0  0  0
 74 83  1  0  0  0
 75 84  1  0  0  0
 76 86  1  0  0  0
 77 81  1  0  0  0
 77 85  1  0  0  0
 77 87  2  0  0  0
 78 79  1  0  0  0
 78 80  1  0  0  0
 78152  1  0  0  0
 78153  1  0  0  0
 79 81  1  0  0  0
 79154  1  0  0  0
 79155  1  0  0  0
 80 85  1  0  0  0
 80156  1  0  0  0
 80157  1  0  0  0
 81158  1  0  0  0
 82159  1  0  0  0
 82160  1  0  0  0
 82161  1  0  0  0
 82 84  1  0  0  0
 83 85  1  0  0  0
 83162  1  0  0  0
 83163  1  0  0  0
 84 88  1  0  0  0
 84 89  1  0  0  0
 86164  1  0  0  0
M  ISO  4   1 100  68 101  81 101  86 100
M  END
> <chiral flag>
0

> <version>
0

> <s_m_source_file>
/data/baiqing/PycharmProjects/Reinvent-master-3.2/result/LINK_invent/BTK/process_docking_weight1_custom_product_contain_oxygen_bond_distance_aromatic_linkinvent_7_9_3/rearranged_h_0043.sdf

> <i_m_source_file_index>
81

> <r_mmod_Potential_Energy-OPLS-2005>
123.741416931152

> <r_mmod_Stretch_Energy-OPLS-2005>
89.0120010375977

> <r_mmod_Bend_Energy-OPLS-2005>
152.114791870117

> <r_mmod_Torsional_Energy-OPLS-2005>
258.640899658203

> <r_mmod_Improper_Torsional_Energy-OPLS-2005>
4.63303565979004

> <r_mmod_Van_der_Waal_Energy-OPLS-2005>
161.394226074219

> <r_mmod_Electrostatic_Energy-OPLS-2005>
-359.7421875

> <r_mmod_Solvation_Energy-OPLS-2005>
-229.603927612305

> <b_mmod_Minimization_Converged-OPLS-2005>
0

> <r_mmod_RMS_Derivative-OPLS-2005>
0.513035476207733

$$$$
81
                    3D
 Structure written by MMmdl.
163171  0  0  1  0            999 V2000
  -30.6380  -14.4602   20.5612 C   0  0  0  0  0  0
  -30.4088  -12.2816   19.4159 C   0  0  0  0  0  0
  -29.4850  -12.5195   18.2006 C   0  0  0  0  0  0
  -28.0058  -12.3671   18.6136 C   0  0  0  0  0  0
  -27.6491  -13.1924   19.8797 C   0  0  2  0  0  0
  -28.6925  -12.9550   20.9966 C   0  0  0  0  0  0
  -25.2475  -13.8099   20.5677 C   0  0  0  0  0  0
  -24.1759  -13.0377   20.9195 C   0  0  0  0  0  0
  -24.6321  -11.6844   20.8793 C   0  0  0  0  0  0
  -23.8994  -10.4235   21.0478 C   0  0  0  0  0  0
  -24.3573   -9.4119   21.9226 C   0  0  0  0  0  0
  -23.6260   -8.2158   22.0762 C   0  0  0  0  0  0
  -22.4262   -8.0214   21.3519 C   0  0  0  0  0  0
  -21.9874   -9.0195   20.4639 C   0  0  0  0  0  0
  -22.7189  -10.2075   20.3072 C   0  0  0  0  0  0
  -21.6858   -6.0685   22.5268 C   0  0  0  0  0  0
  -21.4050   -6.5590   23.8205 C   0  0  0  0  0  0
  -21.3684   -5.6736   24.9171 C   0  0  0  0  0  0
  -21.6064   -4.3004   24.7228 C   0  0  0  0  0  0
  -21.8787   -3.8084   23.4348 C   0  0  0  0  0  0
  -21.9194   -4.6913   22.3401 C   0  0  0  0  0  0
  -22.7783  -13.5203   21.1880 C   0  0  0  0  0  0
  -22.1645   -4.2078   21.0993 F   0  0  0  0  0  0
  -21.5639   -3.4488   25.7754 F   0  0  0  0  0  0
  -30.0180  -13.2623   20.4335 N   0  0  0  0  0  0
  -26.2907  -12.9266   20.3400 N   0  0  0  0  0  0
  -25.9239  -11.6414   20.5789 N   0  0  0  0  0  0
  -22.0462  -12.8215   22.0491 N   0  0  0  0  0  0
  -25.4042  -15.1830   20.4051 N   0  0  0  0  0  0
  -31.8081  -14.6686   20.2185 O   0  0  0  0  0  0
  -21.6596   -6.8828   21.4249 O   0  0  0  0  0  0
  -22.3475  -14.5511   20.6747 O   0  0  0  0  0  0
  -24.6129  -31.8665   23.2103 C   0  0  0  0  0  0
  -25.9060  -32.4790   23.8386 C   0  0  1  0  0  0
  -27.2049  -27.4260   20.1169 C   0  0  0  0  0  0
  -25.5951  -33.8591   24.2331 N   0  0  0  0  0  0
  -23.3989  -30.4935   21.5429 C   0  0  2  0  0  0
  -24.8464  -28.9666   20.1068 C   0  0  0  0  0  0
  -22.7383  -29.4664   22.4913 C   0  0  0  0  0  0
  -18.0262  -28.1337   22.8487 C   0  0  0  0  0  0
  -24.1493  -36.7318   23.2605 C   0  0  0  0  0  0
  -25.9281  -30.8353   21.3631 C   0  0  0  0  0  0
  -26.0038  -29.4686   20.7162 C   0  0  0  0  0  0
  -27.1913  -28.7026   20.7242 C   0  0  0  0  0  0
  -26.0460  -26.9580   19.4668 C   0  0  0  0  0  0
  -24.8601  -27.7103   19.4797 C   0  0  0  0  0  0
  -23.6101  -29.8298   20.1545 C   0  0  0  0  0  0
  -25.4121  -36.3086   24.0291 C   0  0  1  0  0  0
  -20.5858  -28.3658   23.1311 C   0  0  2  0  0  0
  -20.6822  -26.9378   22.5399 C   0  0  0  0  0  0
  -19.5763  -26.6256   21.5271 C   0  0  0  0  0  0
  -18.1918  -26.7885   22.1630 C   0  0  0  0  0  0
  -19.1508  -28.8798   23.2892 C   0  0  0  0  0  0
  -18.9455  -30.1397   23.8923 C   0  0  0  0  0  0
  -17.6443  -30.6532   24.0567 C   0  0  0  0  0  0
  -25.9059  -34.9456   23.5110 C   0  0  0  0  0  0
  -16.5339  -29.9070   23.6259 C   0  0  0  0  0  0
  -16.7258  -28.6479   23.0332 C   0  0  0  0  0  0
  -26.4508  -31.6554   25.0683 C   0  0  0  0  0  0
  -25.3805  -31.3715   26.1445 C   0  0  0  0  0  0
  -27.0284  -30.2967   24.6035 C   0  0  0  0  0  0
  -27.6044  -32.4296   25.7478 C   0  0  0  0  0  0
  -27.5571  -37.1812   24.8443 C   0  0  0  0  0  0
  -21.4096  -29.3072   22.3745 N   0  0  0  0  0  0
  -26.4298  -37.3781   23.9381 N   0  0  0  0  0  0
  -24.6637  -31.0820   22.0969 N   0  0  0  0  0  0
  -23.4216  -28.8161   23.2894 O   0  0  0  0  0  0
  -28.3257  -26.6323   20.1356 O   0  0  0  0  0  0
  -26.5597  -34.8921   22.4658 O   0  0  0  0  0  0
  -23.5343  -32.1390   23.7511 O   0  0  0  0  0  0
  -30.9402  -18.0386   23.2497 C   0  0  0  0  0  0
  -31.0031  -16.9714   22.3275 C   0  0  0  0  0  0
  -28.6610  -17.3261   21.7862 C   0  0  0  0  0  0
  -28.5817  -18.4067   22.6912 C   0  0  0  0  0  0
  -29.7282  -18.7405   23.4707 C   0  0  0  0  0  0
  -29.8466  -16.5914   21.6148 C   0  0  0  0  0  0
  -27.2432  -19.0889   22.8176 C   0  0  0  0  0  0
  -26.0562  -21.2656   22.4718 C   0  0  0  0  0  0
  -29.6893  -19.7825   24.5843 C   0  0  0  0  0  0
  -27.1832  -24.6052   21.1710 C   0  0  0  0  0  0
  -27.3738  -23.4165   22.1391 C   0  0  0  0  0  0
  -28.3564  -25.6195   21.1653 C   0  0  0  0  0  0
  -24.8090  -20.7689   22.5478 N   0  0  0  0  0  0
  -29.7636  -15.4583   20.7705 N   0  0  0  0  0  0
  -27.1800  -20.5081   22.5837 N   0  0  0  0  0  0
  -26.1454  -22.5958   22.2545 N   0  3  0  0  0  0
  -26.2167  -18.4220   23.0095 O   0  0  0  0  0  0
  -31.4580  -12.3804   19.1362 H   0  0  0  0  0  0
  -30.2795  -11.2680   19.8024 H   0  0  0  0  0  0
  -29.7219  -11.8378   17.3828 H   0  0  0  0  0  0
  -29.6608  -13.5242   17.8101 H   0  0  0  0  0  0
  -27.8156  -11.3111   18.8054 H   0  0  0  0  0  0
  -27.3546  -12.6494   17.7864 H   0  0  0  0  0  0
  -27.6805  -14.2340   19.5713 H   0  0  0  0  0  0
  -28.6696  -11.9110   21.3142 H   0  0  0  0  0  0
  -28.4721  -13.5454   21.8941 H   0  0  0  0  0  0
  -25.2730   -9.5558   22.4792 H   0  0  0  0  0  0
  -23.9923   -7.4523   22.7488 H   0  0  0  0  0  0
  -21.0773   -8.8723   19.8970 H   0  0  0  0  0  0
  -22.3663  -10.9619   19.6151 H   0  0  0  0  0  0
  -21.2054   -7.6099   23.9693 H   0  0  0  0  0  0
  -21.1588   -6.0487   25.9068 H   0  0  0  0  0  0
  -22.0570   -2.7542   23.2873 H   0  0  0  0  0  0
  -22.3994  -11.9823   22.4835 H   0  0  0  0  0  0
  -21.1089  -13.1268   22.2690 H   0  0  0  0  0  0
  -24.5988  -15.7955   20.4821 H   0  0  0  0  0  0
  -26.2078  -15.6406   19.9976 H   0  0  0  0  0  0
  -26.7115  -32.5476   23.1144 H   0  0  0  0  0  0
  -25.0189  -33.9745   25.0542 H   0  0  0  0  0  0
  -22.6803  -31.3038   21.4029 H   0  0  0  0  0  0
  -23.3720  -35.9687   23.3276 H   0  0  0  0  0  0
  -24.3592  -36.8928   22.2022 H   0  0  0  0  0  0
  -23.7314  -37.6546   23.6639 H   0  0  0  0  0  0
  -26.0375  -31.5976   20.5900 H   0  0  0  0  0  0
  -26.8201  -30.8907   21.9754 H   0  0  0  0  0  0
  -28.0847  -29.0745   21.2078 H   0  0  0  0  0  0
  -26.0510  -26.0030   18.9641 H   0  0  0  0  0  0
  -23.9704  -27.3207   19.0051 H   0  0  0  0  0  0
  -23.7177  -30.5978   19.3851 H   0  0  0  0  0  0
  -22.7358  -29.2405   19.8683 H   0  0  0  0  0  0
  -25.1308  -36.1914   25.0781 H   0  0  0  0  0  0
  -20.9961  -28.3145   24.1429 H   0  0  0  0  0  0
  -20.5931  -26.2199   23.3555 H   0  0  0  0  0  0
  -21.6679  -26.7547   22.1085 H   0  0  0  0  0  0
  -19.6902  -25.6110   21.1445 H   0  0  0  0  0  0
  -19.6734  -27.2928   20.6676 H   0  0  0  0  0  0
  -17.4264  -26.6718   21.3936 H   0  0  0  0  0  0
  -18.0200  -25.9995   22.8963 H   0  0  0  0  0  0
  -19.7905  -30.7165   24.2365 H   0  0  0  0  0  0
  -17.4975  -31.6158   24.5235 H   0  0  0  0  0  0
  -15.5337  -30.3023   23.7524 H   0  0  0  0  0  0
  -15.8610  -28.0777   22.7116 H   0  0  0  0  0  0
  -24.5993  -30.7004   25.7843 H   0  0  0  0  0  0
  -24.9004  -32.2909   26.4807 H   0  0  0  0  0  0
  -25.8200  -30.8986   27.0238 H   0  0  0  0  0  0
  -26.2784  -29.6765   24.1089 H   0  0  0  0  0  0
  -27.4023  -29.7135   25.4462 H   0  0  0  0  0  0
  -27.8656  -30.4215   23.9159 H   0  0  0  0  0  0
  -27.2603  -33.3577   26.2076 H   0  0  0  0  0  0
  -28.3899  -32.6909   25.0364 H   0  0  0  0  0  0
  -28.0687  -31.8428   26.5420 H   0  0  0  0  0  0
  -28.2578  -38.0105   24.7489 H   0  0  0  0  0  0
  -28.1068  -36.2645   24.6287 H   0  0  0  0  0  0
  -27.2269  -37.1483   25.8830 H   0  0  0  0  0  0
  -20.9180  -29.8891   21.7081 H   0  0  0  0  0  0
  -26.0133  -38.2813   24.1454 H   0  0  0  0  0  0
  -31.8341  -18.2847   23.8097 H   0  0  0  0  0  0
  -31.9269  -16.4255   22.2068 H   0  0  0  0  0  0
  -27.7740  -17.0544   21.2283 H   0  0  0  0  0  0
  -30.3980  -19.5340   25.3779 H   0  0  0  0  0  0
  -28.7143  -19.8261   25.0729 H   0  0  0  0  0  0
  -29.9486  -20.7754   24.2145 H   0  0  0  0  0  0
  -26.2609  -25.1261   21.4258 H   0  0  0  0  0  0
  -27.0552  -24.2074   20.1650 H   0  0  0  0  0  0
  -27.6584  -23.7727   23.1326 H   0  0  0  0  0  0
  -28.1965  -22.7962   21.7847 H   0  0  0  0  0  0
  -29.2806  -25.0580   21.0291 H   0  0  0  0  0  0
  -28.4294  -26.0932   22.1430 H   0  0  0  0  0  0
  -24.6769  -19.7772   22.7386 H   0  0  0  0  0  0
  -23.9829  -21.3019   22.3200 H   0  0  0  0  0  0
  -28.8169  -15.1785   20.5713 H   0  0  0  0  0  0
  -28.0311  -21.0159   22.4208 H   0  0  0  0  0  0
  -25.2832  -23.1259   22.2466 H   0  0  0  0  0  0
  1 25  1  0  0  0
  1 30  2  0  0  0
  1 84  1  0  0  0
  2  3  1  0  0  0
  2 25  1  0  0  0
  2 88  1  0  0  0
  2 89  1  0  0  0
  3  4  1  0  0  0
  3 90  1  0  0  0
  3 91  1  0  0  0
  4  5  1  0  0  0
  4 92  1  0  0  0
  4 93  1  0  0  0
  5  6  1  0  0  0
  5 26  1  0  0  0
  5 94  1  0  0  0
  6 25  1  0  0  0
  6 95  1  0  0  0
  6 96  1  0  0  0
  7  8  2  0  0  0
  7 26  1  0  0  0
  7 29  1  0  0  0
  8  9  1  0  0  0
  8 22  1  0  0  0
  9 10  1  0  0  0
  9 27  2  0  0  0
 10 11  2  0  0  0
 10 15  1  0  0  0
 11 12  1  0  0  0
 11 97  1  0  0  0
 12 13  2  0  0  0
 12 98  1  0  0  0
 13 14  1  0  0  0
 13 31  1  0  0  0
 14 15  2  0  0  0
 14 99  1  0  0  0
 15100  1  0  0  0
 16 17  2  0  0  0
 16 21  1  0  0  0
 16 31  1  0  0  0
 17 18  1  0  0  0
 17101  1  0  0  0
 18 19  2  0  0  0
 18102  1  0  0  0
 19 20  1  0  0  0
 19 24  1  0  0  0
 20 21  2  0  0  0
 20103  1  0  0  0
 21 23  1  0  0  0
 22 28  1  0  0  0
 22 32  2  0  0  0
 26 27  1  0  0  0
 28104  1  0  0  0
 28105  1  0  0  0
 29106  1  0  0  0
 29107  1  0  0  0
 33 34  1  0  0  0
 33 66  1  0  0  0
 33 70  2  0  0  0
 34 36  1  0  0  0
 34 59  1  0  0  0
 34108  1  0  0  0
 35 44  2  0  0  0
 35 45  1  0  0  0
 35 68  1  0  0  0
 36 56  1  0  0  0
 36109  1  0  0  0
 37 39  1  0  0  0
 37 47  1  0  0  0
 37 66  1  0  0  0
 37110  1  0  0  0
 38 43  2  0  0  0
 38 46  1  0  0  0
 38 47  1  0  0  0
 39 64  1  0  0  0
 39 67  2  0  0  0
 40 52  1  0  0  0
 40 53  2  0  0  0
 40 58  1  0  0  0
 41111  1  0  0  0
 41112  1  0  0  0
 41113  1  0  0  0
 41 48  1  0  0  0
 42 43  1  0  0  0
 42 66  1  0  0  0
 42114  1  0  0  0
 42115  1  0  0  0
 43 44  1  0  0  0
 44116  1  0  0  0
 45 46  2  0  0  0
 45117  1  0  0  0
 46118  1  0  0  0
 47119  1  0  0  0
 47120  1  0  0  0
 48 56  1  0  0  0
 48 65  1  0  0  0
 48121  1  0  0  0
 49 50  1  0  0  0
 49 53  1  0  0  0
 49 64  1  0  0  0
 49122  1  0  0  0
 50 51  1  0  0  0
 50123  1  0  0  0
 50124  1  0  0  0
 51 52  1  0  0  0
 51125  1  0  0  0
 51126  1  0  0  0
 52127  1  0  0  0
 52128  1  0  0  0
 53 54  1  0  0  0
 54 55  2  0  0  0
 54129  1  0  0  0
 55 57  1  0  0  0
 55130  1  0  0  0
 56 69  2  0  0  0
 57 58  2  0  0  0
 57131  1  0  0  0
 58132  1  0  0  0
 59 60  1  0  0  0
 59 61  1  0  0  0
 59 62  1  0  0  0
 60133  1  0  0  0
 60134  1  0  0  0
 60135  1  0  0  0
 61136  1  0  0  0
 61137  1  0  0  0
 61138  1  0  0  0
 62139  1  0  0  0
 62140  1  0  0  0
 62141  1  0  0  0
 63 65  1  0  0  0
 63142  1  0  0  0
 63143  1  0  0  0
 63144  1  0  0  0
 64145  1  0  0  0
 65146  1  0  0  0
 68 82  1  0  0  0
 71 72  2  0  0  0
 71 75  1  0  0  0
 71147  1  0  0  0
 72 76  1  0  0  0
 72148  1  0  0  0
 73 74  1  0  0  0
 73 76  2  0  0  0
 73149  1  0  0  0
 74 75  2  0  0  0
 74 77  1  0  0  0
 75 79  1  0  0  0
 76 84  1  0  0  0
 77 85  1  0  0  0
 77 87  2  0  0  0
 78 83  1  0  0  0
 78 85  1  0  0  0
 78 86  2  0  0  0
 79150  1  0  0  0
 79151  1  0  0  0
 79152  1  0  0  0
 80 81  1  0  0  0
 80 82  1  0  0  0
 80153  1  0  0  0
 80154  1  0  0  0
 81 86  1  0  0  0
 81155  1  0  0  0
 81156  1  0  0  0
 82157  1  0  0  0
 82158  1  0  0  0
 83159  1  0  0  0
 83160  1  0  0  0
 84161  1  0  0  0
 85162  1  0  0  0
 86163  1  0  0  0
M  CHG  1  86   1
M  ISO  4   1 100  68 101  82 101  84 100
M  END
> <chiral flag>
0

> <version>
0

> <s_m_source_file>
/data/baiqing/PycharmProjects/Reinvent-master-3.2/result/LINK_invent/BTK/process_docking_weight1_custom_product_contain_oxygen_bond_distance_aromatic_linkinvent_7_9_3/rearranged_h_0043.sdf

> <i_m_source_file_index>
82

> <r_mmod_Potential_Energy-OPLS-2005>
-134.73193359375

> <r_mmod_Stretch_Energy-OPLS-2005>
37.6642150878906

> <r_mmod_Bend_Energy-OPLS-2005>
116.900260925293

> <r_mmod_Torsional_Energy-OPLS-2005>
268.609313964844

> <r_mmod_Improper_Torsional_Energy-OPLS-2005>
11.964259147644

> <r_mmod_Van_der_Waal_Energy-OPLS-2005>
157.469024658203

> <r_mmod_Electrostatic_Energy-OPLS-2005>
-287.34130859375

> <r_mmod_Solvation_Energy-OPLS-2005>
-458.259735107422

> <b_mmod_Minimization_Converged-OPLS-2005>
0

> <r_mmod_RMS_Derivative-OPLS-2005>
6.61286020278931

$$$$
82
                    3D
 Structure written by MMmdl.
155163  0  0  1  0            999 V2000
  -30.7231  -14.4269   20.6365 C   0  0  0  0  0  0
  -30.4235  -12.3023   19.4097 C   0  0  0  0  0  0
  -29.4918  -12.5206   18.2006 C   0  0  0  0  0  0
  -28.0136  -12.3769   18.6132 C   0  0  0  0  0  0
  -27.6654  -13.2031   19.8799 C   0  0  2  0  0  0
  -28.7040  -12.9508   20.9955 C   0  0  0  0  0  0
  -25.2603  -13.8154   20.5675 C   0  0  0  0  0  0
  -24.1845  -13.0438   20.9164 C   0  0  0  0  0  0
  -24.6396  -11.6901   20.8728 C   0  0  0  0  0  0
  -23.9060  -10.4289   21.0403 C   0  0  0  0  0  0
  -24.3611   -9.4206   21.9181 C   0  0  0  0  0  0
  -23.6288   -8.2242   22.0754 C   0  0  0  0  0  0
  -22.4270   -8.0279   21.3546 C   0  0  0  0  0  0
  -21.9904   -9.0253   20.4649 C   0  0  0  0  0  0
  -22.7233  -10.2132   20.3053 C   0  0  0  0  0  0
  -21.6850   -6.0734   22.5280 C   0  0  0  0  0  0
  -21.4016   -6.5637   23.8213 C   0  0  0  0  0  0
  -21.3658   -5.6791   24.9176 C   0  0  0  0  0  0
  -21.6042   -4.3054   24.7227 C   0  0  0  0  0  0
  -21.8820   -3.8145   23.4349 C   0  0  0  0  0  0
  -21.9194   -4.6962   22.3405 C   0  0  0  0  0  0
  -22.7869  -13.5240   21.1832 C   0  0  0  0  0  0
  -22.1661   -4.2146   21.0982 F   0  0  0  0  0  0
  -21.5627   -3.4537   25.7741 F   0  0  0  0  0  0
  -30.0417  -13.2627   20.4564 N   0  0  0  0  0  0
  -26.3040  -12.9315   20.3377 N   0  0  0  0  0  0
  -25.9321  -11.6478   20.5758 N   0  0  0  0  0  0
  -22.0507  -12.8238   22.0392 N   0  0  0  0  0  0
  -25.4340  -15.1870   20.4082 N   0  0  0  0  0  0
  -31.8033  -14.6506   20.0819 O   0  0  0  0  0  0
  -21.6636   -6.8876   21.4242 O   0  0  0  0  0  0
  -22.3557  -14.5548   20.6683 O   0  0  0  0  0  0
  -24.6103  -31.8708   23.2120 C   0  0  0  0  0  0
  -25.9009  -32.4839   23.8412 C   0  0  1  0  0  0
  -27.2423  -27.4614   20.1004 C   0  0  0  0  0  0
  -25.5881  -33.8636   24.2349 N   0  0  0  0  0  0
  -23.3989  -30.4923   21.5513 C   0  0  2  0  0  0
  -24.8503  -28.9597   20.1173 C   0  0  0  0  0  0
  -22.7391  -29.4667   22.5003 C   0  0  0  0  0  0
  -18.0266  -28.1382   22.8495 C   0  0  0  0  0  0
  -24.1486  -36.7322   23.2636 C   0  0  0  0  0  0
  -25.9233  -30.8432   21.3638 C   0  0  0  0  0  0
  -26.0042  -29.4758   20.7210 C   0  0  0  0  0  0
  -27.2028  -28.7299   20.7218 C   0  0  0  0  0  0
  -26.0806  -26.9587   19.4837 C   0  0  0  0  0  0
  -24.8805  -27.6960   19.4992 C   0  0  0  0  0  0
  -23.6087  -29.8212   20.1665 C   0  0  0  0  0  0
  -25.4107  -36.3127   24.0342 C   0  0  1  0  0  0
  -20.5856  -28.3663   23.1330 C   0  0  2  0  0  0
  -20.6760  -26.9404   22.5423 C   0  0  0  0  0  0
  -19.5740  -26.6395   21.5214 C   0  0  0  0  0  0
  -18.1918  -26.7927   22.1628 C   0  0  0  0  0  0
  -19.1516  -28.8839   23.2911 C   0  0  0  0  0  0
  -18.9447  -30.1447   23.8919 C   0  0  0  0  0  0
  -17.6453  -30.6589   24.0571 C   0  0  0  0  0  0
  -25.9029  -34.9487   23.5146 C   0  0  0  0  0  0
  -16.5346  -29.9095   23.6326 C   0  0  0  0  0  0
  -16.7258  -28.6511   23.0348 C   0  0  0  0  0  0
  -26.4453  -31.6598   25.0720 C   0  0  0  0  0  0
  -25.3728  -31.3696   26.1476 C   0  0  0  0  0  0
  -27.0279  -30.3046   24.6067 C   0  0  0  0  0  0
  -27.6045  -32.4302   25.7472 C   0  0  0  0  0  0
  -27.5586  -37.1817   24.8467 C   0  0  0  0  0  0
  -21.4123  -29.3030   22.3735 N   0  0  0  0  0  0
  -26.4298  -37.3809   23.9411 N   0  0  0  0  0  0
  -24.6617  -31.0831   22.1012 N   0  0  0  0  0  0
  -23.4169  -28.8217   23.3045 O   0  0  0  0  0  0
  -28.3799  -26.6910   20.0620 O   0  0  0  0  0  0
  -26.5593  -34.8928   22.4709 O   0  0  0  0  0  0
  -23.5303  -32.1448   23.7528 O   0  0  0  0  0  0
  -31.7727  -18.7241   21.6324 C   0  0  0  0  0  0
  -31.5439  -17.3835   21.2598 C   0  0  0  0  0  0
  -29.4819  -17.3920   22.5415 C   0  0  0  0  0  0
  -30.8716  -19.4098   22.4752 C   0  0  0  0  0  0
  -30.3971  -16.6919   21.7225 C   0  0  0  0  0  0
  -29.7107  -18.7329   22.9210 C   0  0  0  0  0  0
  -29.6656  -24.0144   21.8668 C   0  0  0  0  0  0
  -29.8745  -25.2005   21.2569 C   0  0  0  0  0  0
  -30.6474  -22.9428   21.7831 C   0  0  0  0  0  0
  -31.2276  -20.8178   22.9558 C   0  0  0  0  0  0
  -28.9395  -26.3947   21.3375 C   0  0  0  0  0  0
  -30.0975  -15.3239   21.4246 N   0  0  0  0  0  0
  -30.3165  -21.8899   22.5436 N   0  0  0  0  0  0
  -31.7034  -22.9962   21.1482 O   0  0  0  0  0  0
  -28.5706  -19.5098   23.9639 Cl  0  0  0  0  0  0
  -31.4669  -12.4052   19.1059 H   0  0  0  0  0  0
  -30.3268  -11.2835   19.7874 H   0  0  0  0  0  0
  -29.7291  -11.8096   17.4082 H   0  0  0  0  0  0
  -29.6606  -13.5136   17.7808 H   0  0  0  0  0  0
  -27.8212  -11.3191   18.7975 H   0  0  0  0  0  0
  -27.3619  -12.6638   17.7870 H   0  0  0  0  0  0
  -27.7203  -14.2561   19.6024 H   0  0  0  0  0  0
  -28.6767  -11.9039   21.3020 H   0  0  0  0  0  0
  -28.4524  -13.5136   21.8947 H   0  0  0  0  0  0
  -25.2758   -9.5678   22.4752 H   0  0  0  0  0  0
  -23.9997   -7.4631   22.7472 H   0  0  0  0  0  0
  -21.0832   -8.8775   19.8955 H   0  0  0  0  0  0
  -22.3696  -10.9670   19.6158 H   0  0  0  0  0  0
  -21.2009   -7.6144   23.9717 H   0  0  0  0  0  0
  -21.1477   -6.0520   25.9078 H   0  0  0  0  0  0
  -22.0601   -2.7607   23.2852 H   0  0  0  0  0  0
  -22.4115  -11.9895   22.4777 H   0  0  0  0  0  0
  -21.1129  -13.1273   22.2599 H   0  0  0  0  0  0
  -24.6699  -15.8456   20.5150 H   0  0  0  0  0  0
  -26.2915  -15.6237   20.0928 H   0  0  0  0  0  0
  -26.7080  -32.5582   23.1186 H   0  0  0  0  0  0
  -25.0029  -33.9803   25.0490 H   0  0  0  0  0  0
  -22.6863  -31.3077   21.4115 H   0  0  0  0  0  0
  -23.3744  -35.9660   23.3320 H   0  0  0  0  0  0
  -24.3574  -36.8914   22.2046 H   0  0  0  0  0  0
  -23.7236  -37.6535   23.6627 H   0  0  0  0  0  0
  -26.0290  -31.6042   20.5897 H   0  0  0  0  0  0
  -26.8132  -30.9046   21.9779 H   0  0  0  0  0  0
  -28.0917  -29.1331   21.1860 H   0  0  0  0  0  0
  -26.1053  -25.9903   19.0033 H   0  0  0  0  0  0
  -23.9943  -27.2924   19.0292 H   0  0  0  0  0  0
  -23.7125  -30.5940   19.4043 H   0  0  0  0  0  0
  -22.7348  -29.2365   19.8735 H   0  0  0  0  0  0
  -25.1279  -36.2004   25.0836 H   0  0  0  0  0  0
  -20.9955  -28.3229   24.1446 H   0  0  0  0  0  0
  -20.5674  -26.2267   23.3606 H   0  0  0  0  0  0
  -21.6634  -26.7457   22.1216 H   0  0  0  0  0  0
  -19.6904  -25.6312   21.1227 H   0  0  0  0  0  0
  -19.6680  -27.3218   20.6754 H   0  0  0  0  0  0
  -17.4195  -26.6676   21.4024 H   0  0  0  0  0  0
  -18.0322  -26.0062   22.9017 H   0  0  0  0  0  0
  -19.7927  -30.7253   24.2299 H   0  0  0  0  0  0
  -17.5013  -31.6268   24.5174 H   0  0  0  0  0  0
  -15.5350  -30.3013   23.7631 H   0  0  0  0  0  0
  -15.8654  -28.0838   22.7057 H   0  0  0  0  0  0
  -24.5897  -30.7046   25.7814 H   0  0  0  0  0  0
  -24.8919  -32.2850   26.4938 H   0  0  0  0  0  0
  -25.8091  -30.8856   27.0222 H   0  0  0  0  0  0
  -26.2819  -29.6821   24.1113 H   0  0  0  0  0  0
  -27.4053  -29.7264   25.4510 H   0  0  0  0  0  0
  -27.8649  -30.4378   23.9210 H   0  0  0  0  0  0
  -27.2685  -33.3597   26.2081 H   0  0  0  0  0  0
  -28.3837  -32.6867   25.0282 H   0  0  0  0  0  0
  -28.0725  -31.8394   26.5358 H   0  0  0  0  0  0
  -28.2623  -38.0098   24.7517 H   0  0  0  0  0  0
  -28.1065  -36.2633   24.6294 H   0  0  0  0  0  0
  -27.2301  -37.1479   25.8868 H   0  0  0  0  0  0
  -20.9277  -29.8745   21.6954 H   0  0  0  0  0  0
  -26.0194  -38.2893   24.1401 H   0  0  0  0  0  0
  -32.6691  -19.2186   21.2847 H   0  0  0  0  0  0
  -32.2811  -16.9110   20.6291 H   0  0  0  0  0  0
  -28.5934  -16.8972   22.9072 H   0  0  0  0  0  0
  -28.7601  -23.8712   22.4399 H   0  0  0  0  0  0
  -30.7691  -25.3576   20.6697 H   0  0  0  0  0  0
  -32.2562  -21.0484   22.6720 H   0  0  0  0  0  0
  -31.2389  -20.8004   24.0463 H   0  0  0  0  0  0
  -29.5029  -27.2521   21.7074 H   0  0  0  0  0  0
  -28.1499  -26.1859   22.0631 H   0  0  0  0  0  0
  -29.2370  -14.9734   21.8173 H   0  0  0  0  0  0
  -29.4213  -21.9171   23.0117 H   0  0  0  0  0  0
  1 25  1  0  0  0
  1 30  2  0  0  0
  1 82  1  0  0  0
  2  3  1  0  0  0
  2 25  1  0  0  0
  2 86  1  0  0  0
  2 87  1  0  0  0
  3  4  1  0  0  0
  3 88  1  0  0  0
  3 89  1  0  0  0
  4  5  1  0  0  0
  4 90  1  0  0  0
  4 91  1  0  0  0
  5  6  1  0  0  0
  5 26  1  0  0  0
  5 92  1  0  0  0
  6 25  1  0  0  0
  6 93  1  0  0  0
  6 94  1  0  0  0
  7  8  2  0  0  0
  7 26  1  0  0  0
  7 29  1  0  0  0
  8  9  1  0  0  0
  8 22  1  0  0  0
  9 10  1  0  0  0
  9 27  2  0  0  0
 10 11  2  0  0  0
 10 15  1  0  0  0
 11 12  1  0  0  0
 11 95  1  0  0  0
 12 13  2  0  0  0
 12 96  1  0  0  0
 13 14  1  0  0  0
 13 31  1  0  0  0
 14 15  2  0  0  0
 14 97  1  0  0  0
 15 98  1  0  0  0
 16 17  2  0  0  0
 16 21  1  0  0  0
 16 31  1  0  0  0
 17 18  1  0  0  0
 17 99  1  0  0  0
 18 19  2  0  0  0
 18100  1  0  0  0
 19 20  1  0  0  0
 19 24  1  0  0  0
 20 21  2  0  0  0
 20101  1  0  0  0
 21 23  1  0  0  0
 22 28  1  0  0  0
 22 32  2  0  0  0
 26 27  1  0  0  0
 28102  1  0  0  0
 28103  1  0  0  0
 29104  1  0  0  0
 29105  1  0  0  0
 33 34  1  0  0  0
 33 66  1  0  0  0
 33 70  2  0  0  0
 34 36  1  0  0  0
 34 59  1  0  0  0
 34106  1  0  0  0
 35 44  2  0  0  0
 35 45  1  0  0  0
 35 68  1  0  0  0
 36 56  1  0  0  0
 36107  1  0  0  0
 37 39  1  0  0  0
 37 47  1  0  0  0
 37 66  1  0  0  0
 37108  1  0  0  0
 38 43  2  0  0  0
 38 46  1  0  0  0
 38 47  1  0  0  0
 39 64  1  0  0  0
 39 67  2  0  0  0
 40 52  1  0  0  0
 40 53  2  0  0  0
 40 58  1  0  0  0
 41109  1  0  0  0
 41110  1  0  0  0
 41111  1  0  0  0
 41 48  1  0  0  0
 42 43  1  0  0  0
 42 66  1  0  0  0
 42112  1  0  0  0
 42113  1  0  0  0
 43 44  1  0  0  0
 44114  1  0  0  0
 45 46  2  0  0  0
 45115  1  0  0  0
 46116  1  0  0  0
 47117  1  0  0  0
 47118  1  0  0  0
 48 56  1  0  0  0
 48 65  1  0  0  0
 48119  1  0  0  0
 49 50  1  0  0  0
 49 53  1  0  0  0
 49 64  1  0  0  0
 49120  1  0  0  0
 50 51  1  0  0  0
 50121  1  0  0  0
 50122  1  0  0  0
 51 52  1  0  0  0
 51123  1  0  0  0
 51124  1  0  0  0
 52125  1  0  0  0
 52126  1  0  0  0
 53 54  1  0  0  0
 54 55  2  0  0  0
 54127  1  0  0  0
 55 57  1  0  0  0
 55128  1  0  0  0
 56 69  2  0  0  0
 57 58  2  0  0  0
 57129  1  0  0  0
 58130  1  0  0  0
 59 60  1  0  0  0
 59 61  1  0  0  0
 59 62  1  0  0  0
 60131  1  0  0  0
 60132  1  0  0  0
 60133  1  0  0  0
 61134  1  0  0  0
 61135  1  0  0  0
 61136  1  0  0  0
 62137  1  0  0  0
 62138  1  0  0  0
 62139  1  0  0  0
 63 65  1  0  0  0
 63140  1  0  0  0
 63141  1  0  0  0
 63142  1  0  0  0
 64143  1  0  0  0
 65144  1  0  0  0
 68 81  1  0  0  0
 71 72  2  0  0  0
 71 74  1  0  0  0
 71145  1  0  0  0
 72 75  1  0  0  0
 72146  1  0  0  0
 73 75  2  0  0  0
 73 76  1  0  0  0
 73147  1  0  0  0
 74 76  2  0  0  0
 74 80  1  0  0  0
 75 82  1  0  0  0
 76 85  1  0  0  0
 77 78  2  0  0  0
 77 79  1  0  0  0
 77148  1  0  0  0
 78 81  1  0  0  0
 78149  1  0  0  0
 79 83  1  0  0  0
 79 84  2  0  0  0
 80 83  1  0  0  0
 80150  1  0  0  0
 80151  1  0  0  0
 81152  1  0  0  0
 81153  1  0  0  0
 82154  1  0  0  0
 83155  1  0  0  0
M  ISO  4   1 100  68 101  81 101  82 100
M  END
> <chiral flag>
0

> <version>
0

> <s_m_source_file>
/data/baiqing/PycharmProjects/Reinvent-master-3.2/result/LINK_invent/BTK/process_docking_weight1_custom_product_contain_oxygen_bond_distance_aromatic_linkinvent_7_9_3/rearranged_h_0043.sdf

> <i_m_source_file_index>
83

> <r_mmod_Potential_Energy-OPLS-2005>
-159.387878417969

> <r_mmod_Stretch_Energy-OPLS-2005>
34.4998397827148

> <r_mmod_Bend_Energy-OPLS-2005>
96.9961090087891

> <r_mmod_Torsional_Energy-OPLS-2005>
216.686447143555

> <r_mmod_Improper_Torsional_Energy-OPLS-2005>
2.97712802886963

> <r_mmod_Van_der_Waal_Energy-OPLS-2005>
158.662475585938

> <r_mmod_Electrostatic_Energy-OPLS-2005>
-447.052062988281

> <r_mmod_Solvation_Energy-OPLS-2005>
-230.010650634766

> <b_mmod_Minimization_Converged-OPLS-2005>
0

> <r_mmod_RMS_Derivative-OPLS-2005>
0.815310001373291

$$$$
83
                    3D
 Structure written by MMmdl.
160168  0  0  1  0            999 V2000
  -30.6837  -14.4984   20.5050 C   0  0  0  0  0  0
  -30.4194  -12.3002   19.4399 C   0  0  0  0  0  0
  -29.5006  -12.4919   18.2148 C   0  0  0  0  0  0
  -28.0200  -12.3539   18.6221 C   0  0  0  0  0  0
  -27.6583  -13.2081   19.8672 C   0  0  2  0  0  0
  -28.6987  -13.0200   20.9959 C   0  0  0  0  0  0
  -25.2590  -13.8164   20.5665 C   0  0  0  0  0  0
  -24.1844  -13.0440   20.9165 C   0  0  0  0  0  0
  -24.6392  -11.6906   20.8712 C   0  0  0  0  0  0
  -23.9058  -10.4298   21.0395 C   0  0  0  0  0  0
  -24.3616   -9.4214   21.9170 C   0  0  0  0  0  0
  -23.6295   -8.2252   22.0750 C   0  0  0  0  0  0
  -22.4276   -8.0280   21.3545 C   0  0  0  0  0  0
  -21.9904   -9.0253   20.4651 C   0  0  0  0  0  0
  -22.7229  -10.2136   20.3057 C   0  0  0  0  0  0
  -21.6857   -6.0731   22.5276 C   0  0  0  0  0  0
  -21.4019   -6.5637   23.8212 C   0  0  0  0  0  0
  -21.3668   -5.6789   24.9170 C   0  0  0  0  0  0
  -21.6051   -4.3048   24.7222 C   0  0  0  0  0  0
  -21.8824   -3.8143   23.4347 C   0  0  0  0  0  0
  -21.9201   -4.6961   22.3400 C   0  0  0  0  0  0
  -22.7869  -13.5234   21.1835 C   0  0  0  0  0  0
  -22.1666   -4.2146   21.0976 F   0  0  0  0  0  0
  -21.5633   -3.4529   25.7738 F   0  0  0  0  0  0
  -30.0303  -13.3065   20.4415 N   0  0  0  0  0  0
  -26.3012  -12.9327   20.3328 N   0  0  0  0  0  0
  -25.9321  -11.6487   20.5746 N   0  0  0  0  0  0
  -22.0522  -12.8230   22.0397 N   0  0  0  0  0  0
  -25.4324  -15.1882   20.4082 N   0  0  0  0  0  0
  -31.8536  -14.6319   20.1332 O   0  0  0  0  0  0
  -21.6644   -6.8875   21.4242 O   0  0  0  0  0  0
  -22.3555  -14.5536   20.6679 O   0  0  0  0  0  0
  -24.6149  -31.8680   23.2101 C   0  0  0  0  0  0
  -25.9037  -32.4829   23.8405 C   0  0  1  0  0  0
  -27.2250  -27.4323   20.1013 C   0  0  0  0  0  0
  -25.5892  -33.8628   24.2329 N   0  0  0  0  0  0
  -23.4041  -30.4912   21.5512 C   0  0  2  0  0  0
  -24.8500  -28.9602   20.1113 C   0  0  0  0  0  0
  -22.7422  -29.4655   22.4996 C   0  0  0  0  0  0
  -18.0272  -28.1381   22.8488 C   0  0  0  0  0  0
  -24.1485  -36.7323   23.2635 C   0  0  0  0  0  0
  -25.9337  -30.8334   21.3645 C   0  0  0  0  0  0
  -26.0113  -29.4694   20.7083 C   0  0  0  0  0  0
  -27.2062  -28.7131   20.6982 C   0  0  0  0  0  0
  -26.0542  -26.9419   19.4874 C   0  0  0  0  0  0
  -24.8670  -27.6967   19.4953 C   0  0  0  0  0  0
  -23.6122  -29.8261   20.1645 C   0  0  0  0  0  0
  -25.4105  -36.3122   24.0339 C   0  0  1  0  0  0
  -20.5863  -28.3665   23.1323 C   0  0  2  0  0  0
  -20.6763  -26.9398   22.5421 C   0  0  0  0  0  0
  -19.5742  -26.6387   21.5219 C   0  0  0  0  0  0
  -18.1918  -26.7924   22.1628 C   0  0  0  0  0  0
  -19.1521  -28.8841   23.2900 C   0  0  0  0  0  0
  -18.9449  -30.1448   23.8909 C   0  0  0  0  0  0
  -17.6451  -30.6585   24.0567 C   0  0  0  0  0  0
  -25.9036  -34.9483   23.5136 C   0  0  0  0  0  0
  -16.5342  -29.9090   23.6322 C   0  0  0  0  0  0
  -16.7263  -28.6511   23.0338 C   0  0  0  0  0  0
  -26.4443  -31.6608   25.0738 C   0  0  0  0  0  0
  -25.3698  -31.3734   26.1485 C   0  0  0  0  0  0
  -27.0254  -30.3042   24.6124 C   0  0  0  0  0  0
  -27.6031  -32.4318   25.7491 C   0  0  0  0  0  0
  -27.5586  -37.1813   24.8458 C   0  0  0  0  0  0
  -21.4149  -29.3032   22.3735 N   0  0  0  0  0  0
  -26.4292  -37.3807   23.9414 N   0  0  0  0  0  0
  -24.6693  -31.0784   22.1001 N   0  0  0  0  0  0
  -23.4190  -28.8195   23.3038 O   0  0  0  0  0  0
  -28.3556  -26.6476   20.1279 O   0  0  0  0  0  0
  -26.5600  -34.8930   22.4700 O   0  0  0  0  0  0
  -23.5338  -32.1433   23.7489 O   0  0  0  0  0  0
  -30.4907  -18.2616   18.2317 C   0  0  0  0  0  0
  -30.5365  -17.0237   18.8894 C   0  0  0  0  0  0
  -29.3637  -17.9968   20.7778 C   0  0  0  0  0  0
  -29.3197  -19.2698   20.1342 C   0  0  0  0  0  0
  -29.8724  -19.3821   18.8219 C   0  0  0  0  0  0
  -29.9676  -16.8624   20.1734 C   0  0  0  0  0  0
  -28.6121  -20.4217   20.8309 C   0  0  0  0  0  0
  -29.8085  -20.6494   17.9764 C   0  0  0  0  0  0
  -30.3416  -24.3520   20.0745 C   0  0  0  0  0  0
  -28.4909  -22.9145   21.1317 C   0  0  0  0  0  0
  -28.2097  -25.4537   20.9243 C   0  0  0  0  0  0
  -28.8267  -24.1801   20.2845 C   0  0  1  0  0  0
  -29.9223  -15.5734   20.8139 N   0  0  0  0  0  0
  -29.0740  -21.6674   20.6127 N   0  0  0  0  0  0
  -27.6730  -20.1997   21.5975 O   0  0  0  0  0  0
  -31.4667  -12.3836   19.1431 H   0  0  0  0  0  0
  -30.3043  -11.2962   19.8520 H   0  0  0  0  0  0
  -29.7442  -11.7622   17.4412 H   0  0  0  0  0  0
  -29.6740  -13.4744   17.7722 H   0  0  0  0  0  0
  -27.8353  -11.2998   18.8297 H   0  0  0  0  0  0
  -27.3719  -12.6136   17.7839 H   0  0  0  0  0  0
  -27.6927  -14.2499   19.5483 H   0  0  0  0  0  0
  -28.6733  -11.9959   21.3712 H   0  0  0  0  0  0
  -28.4659  -13.6558   21.8515 H   0  0  0  0  0  0
  -25.2773   -9.5681   22.4722 H   0  0  0  0  0  0
  -24.0005   -7.4647   22.7469 H   0  0  0  0  0  0
  -21.0839   -8.8775   19.8957 H   0  0  0  0  0  0
  -22.3695  -10.9666   19.6154 H   0  0  0  0  0  0
  -21.2011   -7.6145   23.9709 H   0  0  0  0  0  0
  -21.1480   -6.0515   25.9070 H   0  0  0  0  0  0
  -22.0599   -2.7605   23.2842 H   0  0  0  0  0  0
  -22.4157  -11.9897   22.4778 H   0  0  0  0  0  0
  -21.1148  -13.1263   22.2624 H   0  0  0  0  0  0
  -24.6665  -15.8434   20.5163 H   0  0  0  0  0  0
  -26.2869  -15.6280   20.0888 H   0  0  0  0  0  0
  -26.7117  -32.5533   23.1179 H   0  0  0  0  0  0
  -25.0034  -33.9792   25.0468 H   0  0  0  0  0  0
  -22.6933  -31.3078   21.4136 H   0  0  0  0  0  0
  -23.3754  -35.9650   23.3292 H   0  0  0  0  0  0
  -24.3583  -36.8941   22.2050 H   0  0  0  0  0  0
  -23.7224  -37.6524   23.6645 H   0  0  0  0  0  0
  -26.0480  -31.6009   20.5979 H   0  0  0  0  0  0
  -26.8204  -30.8840   21.9851 H   0  0  0  0  0  0
  -28.1015  -29.0953   21.1681 H   0  0  0  0  0  0
  -26.0599  -25.9687   19.0160 H   0  0  0  0  0  0
  -23.9757  -27.3005   19.0287 H   0  0  0  0  0  0
  -23.7196  -30.6026   19.4062 H   0  0  0  0  0  0
  -22.7364  -29.2457   19.8680 H   0  0  0  0  0  0
  -25.1280  -36.1994   25.0833 H   0  0  0  0  0  0
  -20.9946  -28.3225   24.1448 H   0  0  0  0  0  0
  -20.5682  -26.2271   23.3612 H   0  0  0  0  0  0
  -21.6636  -26.7455   22.1205 H   0  0  0  0  0  0
  -19.6905  -25.6301   21.1240 H   0  0  0  0  0  0
  -19.6679  -27.3209   20.6756 H   0  0  0  0  0  0
  -17.4191  -26.6676   21.4022 H   0  0  0  0  0  0
  -18.0311  -26.0064   22.9025 H   0  0  0  0  0  0
  -19.7925  -30.7259   24.2286 H   0  0  0  0  0  0
  -17.5007  -31.6264   24.5171 H   0  0  0  0  0  0
  -15.5343  -30.3001   23.7637 H   0  0  0  0  0  0
  -15.8663  -28.0845   22.7034 H   0  0  0  0  0  0
  -24.5888  -30.7054   25.7834 H   0  0  0  0  0  0
  -24.8861  -32.2891   26.4896 H   0  0  0  0  0  0
  -25.8040  -30.8944   27.0269 H   0  0  0  0  0  0
  -26.2807  -29.6853   24.1108 H   0  0  0  0  0  0
  -27.3927  -29.7235   25.4597 H   0  0  0  0  0  0
  -27.8685  -30.4352   23.9337 H   0  0  0  0  0  0
  -27.2658  -33.3602   26.2113 H   0  0  0  0  0  0
  -28.3802  -32.6907   25.0287 H   0  0  0  0  0  0
  -28.0737  -31.8415   26.5363 H   0  0  0  0  0  0
  -28.2602  -38.0112   24.7526 H   0  0  0  0  0  0
  -28.1080  -36.2650   24.6251 H   0  0  0  0  0  0
  -27.2311  -37.1430   25.8861 H   0  0  0  0  0  0
  -20.9317  -29.8759   21.6954 H   0  0  0  0  0  0
  -26.0187  -38.2888   24.1424 H   0  0  0  0  0  0
  -30.9160  -18.3342   17.2406 H   0  0  0  0  0  0
  -30.9889  -16.1955   18.3639 H   0  0  0  0  0  0
  -28.9115  -17.8934   21.7547 H   0  0  0  0  0  0
  -30.0178  -20.4383   16.9278 H   0  0  0  0  0  0
  -30.5465  -21.3784   18.3104 H   0  0  0  0  0  0
  -28.8187  -21.1057   18.0073 H   0  0  0  0  0  0
  -30.7708  -23.5201   19.5188 H   0  0  0  0  0  0
  -30.8683  -24.4281   21.0266 H   0  0  0  0  0  0
  -30.5560  -25.2567   19.5050 H   0  0  0  0  0  0
  -27.4055  -22.8067   21.1924 H   0  0  0  0  0  0
  -28.8398  -23.0496   22.1567 H   0  0  0  0  0  0
  -28.6794  -25.6425   21.8900 H   0  0  0  0  0  0
  -27.1621  -25.2464   21.1551 H   0  0  0  0  0  0
  -28.3659  -24.0539   19.3035 H   0  0  0  0  0  0
  -29.0770  -15.3693   21.3262 H   0  0  0  0  0  0
  -29.8786  -21.7463   20.0084 H   0  0  0  0  0  0
  1 25  1  0  0  0
  1 30  2  0  0  0
  1 83  1  0  0  0
  2  3  1  0  0  0
  2 25  1  0  0  0
  2 86  1  0  0  0
  2 87  1  0  0  0
  3  4  1  0  0  0
  3 88  1  0  0  0
  3 89  1  0  0  0
  4  5  1  0  0  0
  4 90  1  0  0  0
  4 91  1  0  0  0
  5  6  1  0  0  0
  5 26  1  0  0  0
  5 92  1  0  0  0
  6 25  1  0  0  0
  6 93  1  0  0  0
  6 94  1  0  0  0
  7  8  2  0  0  0
  7 26  1  0  0  0
  7 29  1  0  0  0
  8  9  1  0  0  0
  8 22  1  0  0  0
  9 10  1  0  0  0
  9 27  2  0  0  0
 10 11  2  0  0  0
 10 15  1  0  0  0
 11 12  1  0  0  0
 11 95  1  0  0  0
 12 13  2  0  0  0
 12 96  1  0  0  0
 13 14  1  0  0  0
 13 31  1  0  0  0
 14 15  2  0  0  0
 14 97  1  0  0  0
 15 98  1  0  0  0
 16 17  2  0  0  0
 16 21  1  0  0  0
 16 31  1  0  0  0
 17 18  1  0  0  0
 17 99  1  0  0  0
 18 19  2  0  0  0
 18100  1  0  0  0
 19 20  1  0  0  0
 19 24  1  0  0  0
 20 21  2  0  0  0
 20101  1  0  0  0
 21 23  1  0  0  0
 22 28  1  0  0  0
 22 32  2  0  0  0
 26 27  1  0  0  0
 28102  1  0  0  0
 28103  1  0  0  0
 29104  1  0  0  0
 29105  1  0  0  0
 33 34  1  0  0  0
 33 66  1  0  0  0
 33 70  2  0  0  0
 34 36  1  0  0  0
 34 59  1  0  0  0
 34106  1  0  0  0
 35 44  2  0  0  0
 35 45  1  0  0  0
 35 68  1  0  0  0
 36 56  1  0  0  0
 36107  1  0  0  0
 37 39  1  0  0  0
 37 47  1  0  0  0
 37 66  1  0  0  0
 37108  1  0  0  0
 38 43  2  0  0  0
 38 46  1  0  0  0
 38 47  1  0  0  0
 39 64  1  0  0  0
 39 67  2  0  0  0
 40 52  1  0  0  0
 40 53  2  0  0  0
 40 58  1  0  0  0
 41109  1  0  0  0
 41110  1  0  0  0
 41111  1  0  0  0
 41 48  1  0  0  0
 42 43  1  0  0  0
 42 66  1  0  0  0
 42112  1  0  0  0
 42113  1  0  0  0
 43 44  1  0  0  0
 44114  1  0  0  0
 45 46  2  0  0  0
 45115  1  0  0  0
 46116  1  0  0  0
 47117  1  0  0  0
 47118  1  0  0  0
 48 56  1  0  0  0
 48 65  1  0  0  0
 48119  1  0  0  0
 49 50  1  0  0  0
 49 53  1  0  0  0
 49 64  1  0  0  0
 49120  1  0  0  0
 50 51  1  0  0  0
 50121  1  0  0  0
 50122  1  0  0  0
 51 52  1  0  0  0
 51123  1  0  0  0
 51124  1  0  0  0
 52125  1  0  0  0
 52126  1  0  0  0
 53 54  1  0  0  0
 54 55  2  0  0  0
 54127  1  0  0  0
 55 57  1  0  0  0
 55128  1  0  0  0
 56 69  2  0  0  0
 57 58  2  0  0  0
 57129  1  0  0  0
 58130  1  0  0  0
 59 60  1  0  0  0
 59 61  1  0  0  0
 59 62  1  0  0  0
 60131  1  0  0  0
 60132  1  0  0  0
 60133  1  0  0  0
 61134  1  0  0  0
 61135  1  0  0  0
 61136  1  0  0  0
 62137  1  0  0  0
 62138  1  0  0  0
 62139  1  0  0  0
 63 65  1  0  0  0
 63140  1  0  0  0
 63141  1  0  0  0
 63142  1  0  0  0
 64143  1  0  0  0
 65144  1  0  0  0
 68 81  1  0  0  0
 71 72  2  0  0  0
 71 75  1  0  0  0
 71145  1  0  0  0
 72 76  1  0  0  0
 72146  1  0  0  0
 73 74  1  0  0  0
 73 76  2  0  0  0
 73147  1  0  0  0
 74 75  2  0  0  0
 74 77  1  0  0  0
 75 78  1  0  0  0
 76 83  1  0  0  0
 77 84  1  0  0  0
 77 85  2  0  0  0
 78148  1  0  0  0
 78149  1  0  0  0
 78150  1  0  0  0
 79151  1  0  0  0
 79152  1  0  0  0
 79153  1  0  0  0
 79 82  1  0  0  0
 80 82  1  0  0  0
 80 84  1  0  0  0
 80154  1  0  0  0
 80155  1  0  0  0
 81 82  1  0  0  0
 81156  1  0  0  0
 81157  1  0  0  0
 82158  1  0  0  0
 83159  1  0  0  0
 84160  1  0  0  0
M  ISO  4   1 100  68 101  81 101  83 100
M  END
> <chiral flag>
0

> <version>
0

> <s_m_source_file>
/data/baiqing/PycharmProjects/Reinvent-master-3.2/result/LINK_invent/BTK/process_docking_weight1_custom_product_contain_oxygen_bond_distance_aromatic_linkinvent_7_9_3/rearranged_h_0043.sdf

> <i_m_source_file_index>
84

> <r_mmod_Potential_Energy-OPLS-2005>
-59.443042755127

> <r_mmod_Stretch_Energy-OPLS-2005>
42.3403968811035

> <r_mmod_Bend_Energy-OPLS-2005>
95.9944076538086

> <r_mmod_Torsional_Energy-OPLS-2005>
268.244140625

> <r_mmod_Improper_Torsional_Energy-OPLS-2005>
5.88033246994019

> <r_mmod_Van_der_Waal_Energy-OPLS-2005>
160.294235229492

> <r_mmod_Electrostatic_Energy-OPLS-2005>
-430.162384033203

> <r_mmod_Solvation_Energy-OPLS-2005>
-220.495880126953

> <b_mmod_Minimization_Converged-OPLS-2005>
0

> <r_mmod_RMS_Derivative-OPLS-2005>
1.38446605205536

$$$$
84
                    3D
 Structure written by MMmdl.
170179  0  0  1  0            999 V2000
  -30.6138  -14.7153   20.3755 C   0  0  0  0  0  0
  -30.4407  -12.4061   19.4643 C   0  0  0  0  0  0
  -29.5100  -12.3736   18.2313 C   0  0  0  0  0  0
  -28.0214  -12.2938   18.6451 C   0  0  0  0  0  0
  -27.6344  -13.2064   19.8444 C   0  0  2  0  0  0
  -28.6925  -13.1685   20.9650 C   0  0  0  0  0  0
  -25.2501  -13.8108   20.5703 C   0  0  0  0  0  0
  -24.1767  -13.0406   20.9226 C   0  0  0  0  0  0
  -24.6324  -11.6873   20.8786 C   0  0  0  0  0  0
  -23.8999  -10.4274   21.0429 C   0  0  0  0  0  0
  -24.3583   -9.4203   21.9196 C   0  0  0  0  0  0
  -23.6285   -8.2221   22.0762 C   0  0  0  0  0  0
  -22.4266   -8.0254   21.3551 C   0  0  0  0  0  0
  -21.9884   -9.0217   20.4654 C   0  0  0  0  0  0
  -22.7182  -10.2111   20.3074 C   0  0  0  0  0  0
  -21.6836   -6.0733   22.5286 C   0  0  0  0  0  0
  -21.3994   -6.5646   23.8214 C   0  0  0  0  0  0
  -21.3657   -5.6805   24.9180 C   0  0  0  0  0  0
  -21.6045   -4.3063   24.7229 C   0  0  0  0  0  0
  -21.8811   -3.8151   23.4345 C   0  0  0  0  0  0
  -21.9187   -4.6968   22.3404 C   0  0  0  0  0  0
  -22.7799  -13.5222   21.1865 C   0  0  0  0  0  0
  -22.1647   -4.2159   21.0976 F   0  0  0  0  0  0
  -21.5650   -3.4550   25.7736 F   0  0  0  0  0  0
  -29.9820  -13.4962   20.3462 N   0  0  0  0  0  0
  -26.2898  -12.9253   20.3320 N   0  0  0  0  0  0
  -25.9248  -11.6432   20.5830 N   0  0  0  0  0  0
  -22.0433  -12.8223   22.0422 N   0  0  0  0  0  0
  -25.4230  -15.1809   20.4044 N   0  0  0  0  0  0
  -31.8438  -14.7741   20.2910 O   0  0  0  0  0  0
  -21.6627   -6.8864   21.4244 O   0  0  0  0  0  0
  -22.3499  -14.5533   20.6703 O   0  0  0  0  0  0
  -24.6275  -31.8588   23.1993 C   0  0  0  0  0  0
  -25.9121  -32.4767   23.8334 C   0  0  1  0  0  0
  -27.2342  -27.3074   20.1168 C   0  0  0  0  0  0
  -25.5933  -33.8568   24.2268 N   0  0  0  0  0  0
  -23.4208  -30.4773   21.5434 C   0  0  2  0  0  0
  -24.8652  -28.9265   20.1120 C   0  0  0  0  0  0
  -22.7491  -29.4608   22.4964 C   0  0  0  0  0  0
  -18.0279  -28.1394   22.8483 C   0  0  0  0  0  0
  -24.1483  -36.7286   23.2638 C   0  0  0  0  0  0
  -25.9596  -30.7858   21.3679 C   0  0  0  0  0  0
  -26.0318  -29.4102   20.7135 C   0  0  0  0  0  0
  -27.2119  -28.6135   20.7029 C   0  0  0  0  0  0
  -26.0364  -26.8672   19.5123 C   0  0  0  0  0  0
  -24.8713  -27.6610   19.5015 C   0  0  0  0  0  0
  -23.6334  -29.8069   20.1598 C   0  0  0  0  0  0
  -25.4105  -36.3081   24.0337 C   0  0  1  0  0  0
  -20.5876  -28.3693   23.1298 C   0  0  2  0  0  0
  -20.6767  -26.9418   22.5416 C   0  0  0  0  0  0
  -19.5741  -26.6390   21.5218 C   0  0  0  0  0  0
  -18.1923  -26.7934   22.1626 C   0  0  0  0  0  0
  -19.1528  -28.8861   23.2881 C   0  0  0  0  0  0
  -18.9451  -30.1462   23.8892 C   0  0  0  0  0  0
  -17.6448  -30.6587   24.0559 C   0  0  0  0  0  0
  -25.9059  -34.9452   23.5108 C   0  0  0  0  0  0
  -16.5341  -29.9086   23.6325 C   0  0  0  0  0  0
  -16.7266  -28.6509   23.0345 C   0  0  0  0  0  0
  -26.4508  -31.6586   25.0708 C   0  0  0  0  0  0
  -25.3766  -31.3686   26.1454 C   0  0  0  0  0  0
  -27.0342  -30.3014   24.6142 C   0  0  0  0  0  0
  -27.6066  -32.4331   25.7470 C   0  0  0  0  0  0
  -27.5586  -37.1779   24.8457 C   0  0  0  0  0  0
  -21.4201  -29.3032   22.3702 N   0  0  0  0  0  0
  -26.4275  -37.3785   23.9438 N   0  0  0  0  0  0
  -24.6885  -31.0589   22.0934 N   0  0  0  0  0  0
  -23.4219  -28.8168   23.3062 O   0  0  0  0  0  0
  -28.4109  -26.5414   20.1739 O   0  0  0  0  0  0
  -26.5623  -34.8928   22.4672 O   0  0  0  0  0  0
  -23.5441  -32.1381   23.7316 O   0  0  0  0  0  0
  -30.8494  -18.0585   20.5741 C   0  0  0  0  0  0
  -28.4815  -17.7295   20.7487 C   0  0  0  0  0  0
  -30.6738  -19.4631   20.8007 C   0  0  0  0  0  0
  -29.3787  -20.0417   21.0101 C   0  0  0  0  0  0
  -29.7611  -17.1492   20.5354 C   0  0  0  0  0  0
  -28.2901  -19.1229   20.9754 C   0  0  0  0  0  0
  -28.6755  -23.9822   20.7935 C   0  0  0  0  0  0
  -28.8954  -23.3752   17.9443 C   0  0  0  0  0  0
  -28.1059  -24.6246   18.3684 C   0  0  0  0  0  0
  -28.8227  -22.2408   18.9953 C   0  0  0  0  0  0
  -28.6462  -25.1383   19.7137 C   0  0  1  0  0  0
  -31.9316  -20.3162   20.7838 C   0  0  0  0  0  0
  -30.4993  -16.2278   16.1338 C   0  0  0  0  0  0
  -29.1481  -21.5626   21.4050 C   0  0  0  0  0  0
  -30.8539  -15.9841   17.6037 C   0  0  0  0  0  0
  -29.5936  -15.8958   18.4917 C   0  0  0  0  0  0
  -28.9141  -22.6710   20.4019 N   0  0  0  0  0  0
  -29.8610  -15.8073   19.9476 N   0  0  0  0  0  0
  -28.5597  -24.2879   21.9844 O   0  0  0  0  0  0
  -26.6679  -19.6873   21.1765 Cl  0  0  0  0  0  0
  -31.4783  -12.5412   19.1498 H   0  0  0  0  0  0
  -30.4048  -11.4560   19.9999 H   0  0  0  0  0  0
  -29.7582  -11.5066   17.6183 H   0  0  0  0  0  0
  -29.6949  -13.2236   17.5809 H   0  0  0  0  0  0
  -27.8270  -11.2542   18.9082 H   0  0  0  0  0  0
  -27.3795  -12.5029   17.7888 H   0  0  0  0  0  0
  -27.5968  -14.2210   19.4627 H   0  0  0  0  0  0
  -28.7276  -12.1857   21.4390 H   0  0  0  0  0  0
  -28.4500  -13.8882   21.7497 H   0  0  0  0  0  0
  -25.2720   -9.5697   22.4776 H   0  0  0  0  0  0
  -24.0015   -7.4609   22.7470 H   0  0  0  0  0  0
  -21.0819   -8.8697   19.8960 H   0  0  0  0  0  0
  -22.3607  -10.9648   19.6199 H   0  0  0  0  0  0
  -21.1960   -7.6152   23.9711 H   0  0  0  0  0  0
  -21.1496   -6.0539   25.9088 H   0  0  0  0  0  0
  -22.0592   -2.7616   23.2823 H   0  0  0  0  0  0
  -22.4032  -11.9875   22.4787 H   0  0  0  0  0  0
  -21.1048  -13.1250   22.2625 H   0  0  0  0  0  0
  -24.6551  -15.8362   20.4995 H   0  0  0  0  0  0
  -26.2664  -15.6031   20.0418 H   0  0  0  0  0  0
  -26.7194  -32.5429   23.1084 H   0  0  0  0  0  0
  -25.0091  -33.9701   25.0425 H   0  0  0  0  0  0
  -22.7144  -31.2968   21.3996 H   0  0  0  0  0  0
  -23.3763  -35.9600   23.3262 H   0  0  0  0  0  0
  -24.3579  -36.8943   22.2061 H   0  0  0  0  0  0
  -23.7212  -37.6467   23.6683 H   0  0  0  0  0  0
  -26.0908  -31.5457   20.5975 H   0  0  0  0  0  0
  -26.8408  -30.8357   21.9960 H   0  0  0  0  0  0
  -28.1122  -28.9866   21.1706 H   0  0  0  0  0  0
  -25.9521  -25.9013   19.0558 H   0  0  0  0  0  0
  -23.9753  -27.2815   19.0302 H   0  0  0  0  0  0
  -23.7514  -30.5793   19.3998 H   0  0  0  0  0  0
  -22.7532  -29.2360   19.8608 H   0  0  0  0  0  0
  -25.1279  -36.1919   25.0827 H   0  0  0  0  0  0
  -20.9947  -28.3250   24.1428 H   0  0  0  0  0  0
  -20.5676  -26.2304   23.3611 H   0  0  0  0  0  0
  -21.6641  -26.7458   22.1203 H   0  0  0  0  0  0
  -19.6903  -25.6305   21.1245 H   0  0  0  0  0  0
  -19.6671  -27.3202   20.6746 H   0  0  0  0  0  0
  -17.4198  -26.6680   21.4024 H   0  0  0  0  0  0
  -18.0308  -26.0083   22.9024 H   0  0  0  0  0  0
  -19.7930  -30.7277   24.2268 H   0  0  0  0  0  0
  -17.5006  -31.6264   24.5171 H   0  0  0  0  0  0
  -15.5344  -30.2982   23.7661 H   0  0  0  0  0  0
  -15.8669  -28.0829   22.7056 H   0  0  0  0  0  0
  -24.5945  -30.7027   25.7783 H   0  0  0  0  0  0
  -24.8957  -32.2832   26.4935 H   0  0  0  0  0  0
  -25.8131  -30.8832   27.0200 H   0  0  0  0  0  0
  -26.2880  -29.6754   24.1228 H   0  0  0  0  0  0
  -27.4114  -29.7272   25.4619 H   0  0  0  0  0  0
  -27.8736  -30.4291   23.9295 H   0  0  0  0  0  0
  -27.2670  -33.3628   26.2045 H   0  0  0  0  0  0
  -28.3870  -32.6902   25.0295 H   0  0  0  0  0  0
  -28.0764  -31.8480   26.5387 H   0  0  0  0  0  0
  -28.2562  -38.0117   24.7587 H   0  0  0  0  0  0
  -28.1120  -36.2659   24.6172 H   0  0  0  0  0  0
  -27.2327  -37.1303   25.8860 H   0  0  0  0  0  0
  -20.9409  -29.8755   21.6894 H   0  0  0  0  0  0
  -26.0151  -38.2853   24.1479 H   0  0  0  0  0  0
  -31.8411  -17.6845   20.3567 H   0  0  0  0  0  0
  -27.6046  -17.1046   20.6714 H   0  0  0  0  0  0
  -29.9387  -23.6448   17.7701 H   0  0  0  0  0  0
  -28.5250  -23.0039   16.9875 H   0  0  0  0  0  0
  -27.0617  -24.3309   18.4429 H   0  0  0  0  0  0
  -28.1863  -25.3962   17.6037 H   0  0  0  0  0  0
  -29.6127  -21.5208   18.7766 H   0  0  0  0  0  0
  -27.8812  -21.7008   18.8848 H   0  0  0  0  0  0
  -29.7148  -25.2346   19.5150 H   0  0  0  0  0  0
  -32.5833  -20.0398   21.6131 H   0  0  0  0  0  0
  -31.7399  -21.3856   20.8448 H   0  0  0  0  0  0
  -32.4832  -20.1457   19.8593 H   0  0  0  0  0  0
  -31.3988  -16.2960   15.5213 H   0  0  0  0  0  0
  -29.9431  -17.1581   16.0124 H   0  0  0  0  0  0
  -29.8877  -15.4170   15.7361 H   0  0  0  0  0  0
  -29.9795  -21.8647   22.0401 H   0  0  0  0  0  0
  -28.3056  -21.5913   22.0960 H   0  0  0  0  0  0
  -31.5054  -16.7858   17.9536 H   0  0  0  0  0  0
  -31.4359  -15.0631   17.6652 H   0  0  0  0  0  0
  -28.9621  -15.0879   18.1493 H   0  0  0  0  0  0
  -28.9871  -16.7785   18.2832 H   0  0  0  0  0  0
  1 25  1  0  0  0
  1 30  2  0  0  0
  1 88  1  0  0  0
  2  3  1  0  0  0
  2 25  1  0  0  0
  2 91  1  0  0  0
  2 92  1  0  0  0
  3  4  1  0  0  0
  3 93  1  0  0  0
  3 94  1  0  0  0
  4  5  1  0  0  0
  4 95  1  0  0  0
  4 96  1  0  0  0
  5  6  1  0  0  0
  5 26  1  0  0  0
  5 97  1  0  0  0
  6 25  1  0  0  0
  6 98  1  0  0  0
  6 99  1  0  0  0
  7  8  2  0  0  0
  7 26  1  0  0  0
  7 29  1  0  0  0
  8  9  1  0  0  0
  8 22  1  0  0  0
  9 10  1  0  0  0
  9 27  2  0  0  0
 10 11  2  0  0  0
 10 15  1  0  0  0
 11 12  1  0  0  0
 11100  1  0  0  0
 12 13  2  0  0  0
 12101  1  0  0  0
 13 14  1  0  0  0
 13 31  1  0  0  0
 14 15  2  0  0  0
 14102  1  0  0  0
 15103  1  0  0  0
 16 17  2  0  0  0
 16 21  1  0  0  0
 16 31  1  0  0  0
 17 18  1  0  0  0
 17104  1  0  0  0
 18 19  2  0  0  0
 18105  1  0  0  0
 19 20  1  0  0  0
 19 24  1  0  0  0
 20 21  2  0  0  0
 20106  1  0  0  0
 21 23  1  0  0  0
 22 28  1  0  0  0
 22 32  2  0  0  0
 26 27  1  0  0  0
 28107  1  0  0  0
 28108  1  0  0  0
 29109  1  0  0  0
 29110  1  0  0  0
 33 34  1  0  0  0
 33 66  1  0  0  0
 33 70  2  0  0  0
 34 36  1  0  0  0
 34 59  1  0  0  0
 34111  1  0  0  0
 35 44  2  0  0  0
 35 45  1  0  0  0
 35 68  1  0  0  0
 36 56  1  0  0  0
 36112  1  0  0  0
 37 39  1  0  0  0
 37 47  1  0  0  0
 37 66  1  0  0  0
 37113  1  0  0  0
 38 43  2  0  0  0
 38 46  1  0  0  0
 38 47  1  0  0  0
 39 64  1  0  0  0
 39 67  2  0  0  0
 40 52  1  0  0  0
 40 53  2  0  0  0
 40 58  1  0  0  0
 41114  1  0  0  0
 41115  1  0  0  0
 41116  1  0  0  0
 41 48  1  0  0  0
 42 43  1  0  0  0
 42 66  1  0  0  0
 42117  1  0  0  0
 42118  1  0  0  0
 43 44  1  0  0  0
 44119  1  0  0  0
 45 46  2  0  0  0
 45120  1  0  0  0
 46121  1  0  0  0
 47122  1  0  0  0
 47123  1  0  0  0
 48 56  1  0  0  0
 48 65  1  0  0  0
 48124  1  0  0  0
 49 50  1  0  0  0
 49 53  1  0  0  0
 49 64  1  0  0  0
 49125  1  0  0  0
 50 51  1  0  0  0
 50126  1  0  0  0
 50127  1  0  0  0
 51 52  1  0  0  0
 51128  1  0  0  0
 51129  1  0  0  0
 52130  1  0  0  0
 52131  1  0  0  0
 53 54  1  0  0  0
 54 55  2  0  0  0
 54132  1  0  0  0
 55 57  1  0  0  0
 55133  1  0  0  0
 56 69  2  0  0  0
 57 58  2  0  0  0
 57134  1  0  0  0
 58135  1  0  0  0
 59 60  1  0  0  0
 59 61  1  0  0  0
 59 62  1  0  0  0
 60136  1  0  0  0
 60137  1  0  0  0
 60138  1  0  0  0
 61139  1  0  0  0
 61140  1  0  0  0
 61141  1  0  0  0
 62142  1  0  0  0
 62143  1  0  0  0
 62144  1  0  0  0
 63 65  1  0  0  0
 63145  1  0  0  0
 63146  1  0  0  0
 63147  1  0  0  0
 64148  1  0  0  0
 65149  1  0  0  0
 68 81  1  0  0  0
 71 73  2  0  0  0
 71 75  1  0  0  0
 71150  1  0  0  0
 72 75  2  0  0  0
 72 76  1  0  0  0
 72151  1  0  0  0
 73 74  1  0  0  0
 73 82  1  0  0  0
 74 76  2  0  0  0
 74 84  1  0  0  0
 75 88  1  0  0  0
 76 90  1  0  0  0
 77 81  1  0  0  0
 77 87  1  0  0  0
 77 89  2  0  0  0
 78 79  1  0  0  0
 78 80  1  0  0  0
 78152  1  0  0  0
 78153  1  0  0  0
 79 81  1  0  0  0
 79154  1  0  0  0
 79155  1  0  0  0
 80 87  1  0  0  0
 80156  1  0  0  0
 80157  1  0  0  0
 81158  1  0  0  0
 82159  1  0  0  0
 82160  1  0  0  0
 82161  1  0  0  0
 83 85  1  0  0  0
 83162  1  0  0  0
 83163  1  0  0  0
 83164  1  0  0  0
 84 87  1  0  0  0
 84165  1  0  0  0
 84166  1  0  0  0
 85 86  1  0  0  0
 85167  1  0  0  0
 85168  1  0  0  0
 86 88  1  0  0  0
 86169  1  0  0  0
 86170  1  0  0  0
M  ISO  4   1 100  68 101  81 101  88 100
M  END
> <chiral flag>
0

> <version>
0

> <s_m_source_file>
/data/baiqing/PycharmProjects/Reinvent-master-3.2/result/LINK_invent/BTK/process_docking_weight1_custom_product_contain_oxygen_bond_distance_aromatic_linkinvent_7_9_3/rearranged_h_0043.sdf

> <i_m_source_file_index>
85

> <r_mmod_Potential_Energy-OPLS-2005>
468.274566650391

> <r_mmod_Stretch_Energy-OPLS-2005>
97.8897933959961

> <r_mmod_Bend_Energy-OPLS-2005>
208.957672119141

> <r_mmod_Torsional_Energy-OPLS-2005>
356.381256103516

> <r_mmod_Improper_Torsional_Energy-OPLS-2005>
24.2680568695068

> <r_mmod_Van_der_Waal_Energy-OPLS-2005>
143.640533447266

> <r_mmod_Electrostatic_Energy-OPLS-2005>
-232.213394165039

> <r_mmod_Solvation_Energy-OPLS-2005>
-205.97900390625

> <b_mmod_Minimization_Converged-OPLS-2005>
0

> <r_mmod_RMS_Derivative-OPLS-2005>
2.4380054473877

$$$$
85
                    3D
 Structure written by MMmdl.
154162  0  0  1  0            999 V2000
  -30.6037  -14.6577   20.5004 C   0  0  0  0  0  0
  -30.4467  -12.4017   19.4542 C   0  0  0  0  0  0
  -29.5130  -12.5054   18.2270 C   0  0  0  0  0  0
  -28.0346  -12.3412   18.6383 C   0  0  0  0  0  0
  -27.6560  -13.2119   19.8658 C   0  0  2  0  0  0
  -28.7019  -13.0659   20.9954 C   0  0  0  0  0  0
  -25.2601  -13.8162   20.5695 C   0  0  0  0  0  0
  -24.1858  -13.0437   20.9216 C   0  0  0  0  0  0
  -24.6408  -11.6907   20.8748 C   0  0  0  0  0  0
  -23.9067  -10.4288   21.0409 C   0  0  0  0  0  0
  -24.3613   -9.4199   21.9190 C   0  0  0  0  0  0
  -23.6289   -8.2232   22.0757 C   0  0  0  0  0  0
  -22.4276   -8.0275   21.3539 C   0  0  0  0  0  0
  -21.9900   -9.0248   20.4646 C   0  0  0  0  0  0
  -22.7235  -10.2129   20.3059 C   0  0  0  0  0  0
  -21.6846   -6.0730   22.5275 C   0  0  0  0  0  0
  -21.4008   -6.5632   23.8208 C   0  0  0  0  0  0
  -21.3666   -5.6786   24.9171 C   0  0  0  0  0  0
  -21.6044   -4.3049   24.7218 C   0  0  0  0  0  0
  -21.8825   -3.8143   23.4339 C   0  0  0  0  0  0
  -21.9187   -4.6959   22.3395 C   0  0  0  0  0  0
  -22.7878  -13.5235   21.1865 C   0  0  0  0  0  0
  -22.1658   -4.2150   21.0973 F   0  0  0  0  0  0
  -21.5632   -3.4529   25.7727 F   0  0  0  0  0  0
  -30.0165  -13.4195   20.4333 N   0  0  0  0  0  0
  -26.3013  -12.9331   20.3327 N   0  0  0  0  0  0
  -25.9333  -11.6494   20.5755 N   0  0  0  0  0  0
  -22.0514  -12.8235   22.0424 N   0  0  0  0  0  0
  -25.4312  -15.1876   20.4071 N   0  0  0  0  0  0
  -31.7665  -14.8396   20.1272 O   0  0  0  0  0  0
  -21.6636   -6.8874   21.4237 O   0  0  0  0  0  0
  -22.3568  -14.5525   20.6684 O   0  0  0  0  0  0
  -24.6261  -31.8582   23.2057 C   0  0  0  0  0  0
  -25.9132  -32.4764   23.8360 C   0  0  1  0  0  0
  -27.2282  -27.3261   20.0948 C   0  0  0  0  0  0
  -25.5968  -33.8571   24.2305 N   0  0  0  0  0  0
  -23.4180  -30.4863   21.5464 C   0  0  2  0  0  0
  -24.8618  -28.9427   20.1115 C   0  0  0  0  0  0
  -22.7465  -29.4634   22.4938 C   0  0  0  0  0  0
  -18.0287  -28.1383   22.8487 C   0  0  0  0  0  0
  -24.1493  -36.7276   23.2638 C   0  0  0  0  0  0
  -25.9581  -30.7907   21.3757 C   0  0  0  0  0  0
  -26.0298  -29.4196   20.7152 C   0  0  0  0  0  0
  -27.2100  -28.6206   20.7028 C   0  0  0  0  0  0
  -26.0251  -26.8959   19.4836 C   0  0  0  0  0  0
  -24.8598  -27.6850   19.4922 C   0  0  0  0  0  0
  -23.6312  -29.8231   20.1608 C   0  0  0  0  0  0
  -25.4114  -36.3084   24.0343 C   0  0  1  0  0  0
  -20.5888  -28.3686   23.1291 C   0  0  2  0  0  0
  -20.6782  -26.9409   22.5415 C   0  0  0  0  0  0
  -19.5765  -26.6382   21.5214 C   0  0  0  0  0  0
  -18.1938  -26.7929   22.1614 C   0  0  0  0  0  0
  -19.1538  -28.8847   23.2892 C   0  0  0  0  0  0
  -18.9459  -30.1448   23.8910 C   0  0  0  0  0  0
  -17.6460  -30.6582   24.0558 C   0  0  0  0  0  0
  -25.9051  -34.9446   23.5117 C   0  0  0  0  0  0
  -16.5352  -29.9081   23.6323 C   0  0  0  0  0  0
  -16.7275  -28.6501   23.0346 C   0  0  0  0  0  0
  -26.4525  -31.6566   25.0710 C   0  0  0  0  0  0
  -25.3785  -31.3666   26.1449 C   0  0  0  0  0  0
  -27.0356  -30.2990   24.6147 C   0  0  0  0  0  0
  -27.6101  -32.4282   25.7461 C   0  0  0  0  0  0
  -27.5587  -37.1790   24.8465 C   0  0  0  0  0  0
  -21.4181  -29.3046   22.3680 N   0  0  0  0  0  0
  -26.4289  -37.3783   23.9427 N   0  0  0  0  0  0
  -24.6861  -31.0616   22.0997 N   0  0  0  0  0  0
  -23.4185  -28.8162   23.3016 O   0  0  0  0  0  0
  -28.3842  -26.5291   20.1393 O   0  0  0  0  0  0
  -26.5592  -34.8918   22.4660 O   0  0  0  0  0  0
  -23.5439  -32.1361   23.7420 O   0  0  0  0  0  0
  -30.8444  -19.3859   20.5296 C   0  0  0  0  0  0
  -30.9284  -17.9557   20.5234 C   0  0  0  0  0  0
  -28.5497  -17.8499   20.8508 C   0  0  0  0  0  0
  -29.6202  -20.0882   20.7240 C   0  0  0  0  0  0
  -29.7771  -17.1433   20.7149 C   0  0  0  0  0  0
  -28.4635  -19.2741   20.8529 C   0  0  0  0  0  0
  -28.8638  -24.0060   20.5178 C   0  0  0  0  0  0
  -28.9952  -22.2813   18.6927 C   0  0  0  0  0  0
  -29.6070  -21.6379   21.0311 C   0  0  0  0  0  0
  -28.4745  -25.1777   19.5289 C   0  0  0  0  0  0
  -29.7498  -15.6799   20.8348 N   0  0  0  0  0  0
  -29.0945  -22.7041   20.0917 N   0  0  0  0  0  0
  -28.9795  -24.3007   21.7124 O   0  0  0  0  0  0
  -26.9162  -20.0044   21.0921 Cl  0  0  0  0  0  0
  -31.4848  -12.5433   19.1491 H   0  0  0  0  0  0
  -30.3975  -11.4053   19.8969 H   0  0  0  0  0  0
  -29.7805  -11.7500   17.4865 H   0  0  0  0  0  0
  -29.6555  -13.4734   17.7441 H   0  0  0  0  0  0
  -27.8757  -11.2887   18.8729 H   0  0  0  0  0  0
  -27.3785  -12.5657   17.7968 H   0  0  0  0  0  0
  -27.6720  -14.2461   19.5234 H   0  0  0  0  0  0
  -28.7193  -12.0432   21.3768 H   0  0  0  0  0  0
  -28.4453  -13.6954   21.8503 H   0  0  0  0  0  0
  -25.2757   -9.5660   22.4770 H   0  0  0  0  0  0
  -23.9986   -7.4618   22.7472 H   0  0  0  0  0  0
  -21.0827   -8.8762   19.8957 H   0  0  0  0  0  0
  -22.3689  -10.9667   19.6160 H   0  0  0  0  0  0
  -21.2007   -7.6142   23.9712 H   0  0  0  0  0  0
  -21.1488   -6.0518   25.9079 H   0  0  0  0  0  0
  -22.0604   -2.7607   23.2830 H   0  0  0  0  0  0
  -22.4095  -11.9867   22.4794 H   0  0  0  0  0  0
  -21.1139  -13.1273   22.2631 H   0  0  0  0  0  0
  -24.6559  -15.8339   20.5112 H   0  0  0  0  0  0
  -26.2417  -15.6094   19.9738 H   0  0  0  0  0  0
  -26.7185  -32.5415   23.1095 H   0  0  0  0  0  0
  -25.0194  -33.9713   25.0506 H   0  0  0  0  0  0
  -22.7130  -31.3079   21.4070 H   0  0  0  0  0  0
  -23.3777  -35.9585   23.3275 H   0  0  0  0  0  0
  -24.3600  -36.8897   22.2056 H   0  0  0  0  0  0
  -23.7206  -37.6461   23.6654 H   0  0  0  0  0  0
  -26.0922  -31.5576   20.6109 H   0  0  0  0  0  0
  -26.8391  -30.8336   22.0053 H   0  0  0  0  0  0
  -28.1070  -28.9893   21.1818 H   0  0  0  0  0  0
  -25.9235  -25.9417   18.9961 H   0  0  0  0  0  0
  -23.9591  -27.3146   19.0218 H   0  0  0  0  0  0
  -23.7534  -30.5993   19.4045 H   0  0  0  0  0  0
  -22.7493  -29.2555   19.8572 H   0  0  0  0  0  0
  -25.1292  -36.1932   25.0836 H   0  0  0  0  0  0
  -20.9987  -28.3265   24.1415 H   0  0  0  0  0  0
  -20.5675  -26.2301   23.3620 H   0  0  0  0  0  0
  -21.6651  -26.7437   22.1214 H   0  0  0  0  0  0
  -19.6913  -25.6295   21.1240 H   0  0  0  0  0  0
  -19.6702  -27.3202   20.6755 H   0  0  0  0  0  0
  -17.4215  -26.6698   21.4003 H   0  0  0  0  0  0
  -18.0318  -26.0061   22.8995 H   0  0  0  0  0  0
  -19.7932  -30.7257   24.2290 H   0  0  0  0  0  0
  -17.5012  -31.6263   24.5155 H   0  0  0  0  0  0
  -15.5352  -30.2979   23.7644 H   0  0  0  0  0  0
  -15.8681  -28.0816   22.7054 H   0  0  0  0  0  0
  -24.6013  -30.6945   25.7786 H   0  0  0  0  0  0
  -24.8919  -32.2801   26.4865 H   0  0  0  0  0  0
  -25.8153  -30.8864   27.0213 H   0  0  0  0  0  0
  -26.2900  -29.6727   24.1223 H   0  0  0  0  0  0
  -27.4113  -29.7258   25.4632 H   0  0  0  0  0  0
  -27.8762  -30.4274   23.9325 H   0  0  0  0  0  0
  -27.2749  -33.3597   26.2034 H   0  0  0  0  0  0
  -28.3914  -32.6794   25.0278 H   0  0  0  0  0  0
  -28.0773  -31.8388   26.5363 H   0  0  0  0  0  0
  -28.2587  -38.0110   24.7568 H   0  0  0  0  0  0
  -28.1102  -36.2639   24.6228 H   0  0  0  0  0  0
  -27.2312  -37.1371   25.8870 H   0  0  0  0  0  0
  -20.9352  -29.8761   21.6886 H   0  0  0  0  0  0
  -26.0164  -38.2846   24.1463 H   0  0  0  0  0  0
  -31.7585  -19.9579   20.4442 H   0  0  0  0  0  0
  -31.8986  -17.4935   20.4145 H   0  0  0  0  0  0
  -27.6336  -17.2951   20.9940 H   0  0  0  0  0  0
  -28.6573  -23.0623   18.0145 H   0  0  0  0  0  0
  -28.2875  -21.4572   18.6005 H   0  0  0  0  0  0
  -29.9661  -21.9359   18.3342 H   0  0  0  0  0  0
  -30.6308  -21.9206   21.2783 H   0  0  0  0  0  0
  -29.0551  -21.7422   21.9664 H   0  0  0  0  0  0
  -27.5983  -24.8682   18.9728 H   0  0  0  0  0  0
  -29.2721  -25.2404   18.7876 H   0  0  0  0  0  0
  -28.8545  -15.3139   21.1177 H   0  0  0  0  0  0
  1 25  1  0  0  0
  1 30  2  0  0  0
  1 81  1  0  0  0
  2  3  1  0  0  0
  2 25  1  0  0  0
  2 85  1  0  0  0
  2 86  1  0  0  0
  3  4  1  0  0  0
  3 87  1  0  0  0
  3 88  1  0  0  0
  4  5  1  0  0  0
  4 89  1  0  0  0
  4 90  1  0  0  0
  5  6  1  0  0  0
  5 26  1  0  0  0
  5 91  1  0  0  0
  6 25  1  0  0  0
  6 92  1  0  0  0
  6 93  1  0  0  0
  7  8  2  0  0  0
  7 26  1  0  0  0
  7 29  1  0  0  0
  8  9  1  0  0  0
  8 22  1  0  0  0
  9 10  1  0  0  0
  9 27  2  0  0  0
 10 11  2  0  0  0
 10 15  1  0  0  0
 11 12  1  0  0  0
 11 94  1  0  0  0
 12 13  2  0  0  0
 12 95  1  0  0  0
 13 14  1  0  0  0
 13 31  1  0  0  0
 14 15  2  0  0  0
 14 96  1  0  0  0
 15 97  1  0  0  0
 16 17  2  0  0  0
 16 21  1  0  0  0
 16 31  1  0  0  0
 17 18  1  0  0  0
 17 98  1  0  0  0
 18 19  2  0  0  0
 18 99  1  0  0  0
 19 20  1  0  0  0
 19 24  1  0  0  0
 20 21  2  0  0  0
 20100  1  0  0  0
 21 23  1  0  0  0
 22 28  1  0  0  0
 22 32  2  0  0  0
 26 27  1  0  0  0
 28101  1  0  0  0
 28102  1  0  0  0
 29103  1  0  0  0
 29104  1  0  0  0
 33 34  1  0  0  0
 33 66  1  0  0  0
 33 70  2  0  0  0
 34 36  1  0  0  0
 34 59  1  0  0  0
 34105  1  0  0  0
 35 44  2  0  0  0
 35 45  1  0  0  0
 35 68  1  0  0  0
 36 56  1  0  0  0
 36106  1  0  0  0
 37 39  1  0  0  0
 37 47  1  0  0  0
 37 66  1  0  0  0
 37107  1  0  0  0
 38 43  2  0  0  0
 38 46  1  0  0  0
 38 47  1  0  0  0
 39 64  1  0  0  0
 39 67  2  0  0  0
 40 52  1  0  0  0
 40 53  2  0  0  0
 40 58  1  0  0  0
 41108  1  0  0  0
 41109  1  0  0  0
 41110  1  0  0  0
 41 48  1  0  0  0
 42 43  1  0  0  0
 42 66  1  0  0  0
 42111  1  0  0  0
 42112  1  0  0  0
 43 44  1  0  0  0
 44113  1  0  0  0
 45 46  2  0  0  0
 45114  1  0  0  0
 46115  1  0  0  0
 47116  1  0  0  0
 47117  1  0  0  0
 48 56  1  0  0  0
 48 65  1  0  0  0
 48118  1  0  0  0
 49 50  1  0  0  0
 49 53  1  0  0  0
 49 64  1  0  0  0
 49119  1  0  0  0
 50 51  1  0  0  0
 50120  1  0  0  0
 50121  1  0  0  0
 51 52  1  0  0  0
 51122  1  0  0  0
 51123  1  0  0  0
 52124  1  0  0  0
 52125  1  0  0  0
 53 54  1  0  0  0
 54 55  2  0  0  0
 54126  1  0  0  0
 55 57  1  0  0  0
 55127  1  0  0  0
 56 69  2  0  0  0
 57 58  2  0  0  0
 57128  1  0  0  0
 58129  1  0  0  0
 59 60  1  0  0  0
 59 61  1  0  0  0
 59 62  1  0  0  0
 60130  1  0  0  0
 60131  1  0  0  0
 60132  1  0  0  0
 61133  1  0  0  0
 61134  1  0  0  0
 61135  1  0  0  0
 62136  1  0  0  0
 62137  1  0  0  0
 62138  1  0  0  0
 63 65  1  0  0  0
 63139  1  0  0  0
 63140  1  0  0  0
 63141  1  0  0  0
 64142  1  0  0  0
 65143  1  0  0  0
 68 80  1  0  0  0
 71 72  2  0  0  0
 71 74  1  0  0  0
 71144  1  0  0  0
 72 75  1  0  0  0
 72145  1  0  0  0
 73 75  2  0  0  0
 73 76  1  0  0  0
 73146  1  0  0  0
 74 76  2  0  0  0
 74 79  1  0  0  0
 75 81  1  0  0  0
 76 84  1  0  0  0
 77 80  1  0  0  0
 77 82  1  0  0  0
 77 83  2  0  0  0
 78 82  1  0  0  0
 78147  1  0  0  0
 78148  1  0  0  0
 78149  1  0  0  0
 79 82  1  0  0  0
 79150  1  0  0  0
 79151  1  0  0  0
 80152  1  0  0  0
 80153  1  0  0  0
 81154  1  0  0  0
M  ISO  4   1 100  68 101  80 101  81 100
M  END
> <chiral flag>
0

> <version>
0

> <s_m_source_file>
/data/baiqing/PycharmProjects/Reinvent-master-3.2/result/LINK_invent/BTK/process_docking_weight1_custom_product_contain_oxygen_bond_distance_aromatic_linkinvent_7_9_3/rearranged_h_0043.sdf

> <i_m_source_file_index>
86

> <r_mmod_Potential_Energy-OPLS-2005>
108.092468261719

> <r_mmod_Stretch_Energy-OPLS-2005>
85.3096618652344

> <r_mmod_Bend_Energy-OPLS-2005>
160.214340209961

> <r_mmod_Torsional_Energy-OPLS-2005>
228.462875366211

> <r_mmod_Improper_Torsional_Energy-OPLS-2005>
6.29713535308838

> <r_mmod_Van_der_Waal_Energy-OPLS-2005>
145.265182495117

> <r_mmod_Electrostatic_Energy-OPLS-2005>
-329.593109130859

> <r_mmod_Solvation_Energy-OPLS-2005>
-235.690689086914

> <b_mmod_Minimization_Converged-OPLS-2005>
0

> <r_mmod_RMS_Derivative-OPLS-2005>
2.09384846687317

$$$$
86
                    3D
 Structure written by MMmdl.
155164  0  0  1  0            999 V2000
  -30.5029  -15.0571   20.4017 C   0  0  0  0  0  0
  -30.4472  -12.6676   19.4956 C   0  0  0  0  0  0
  -29.5283  -12.5331   18.2582 C   0  0  0  0  0  0
  -28.0648  -12.3030   18.6820 C   0  0  0  0  0  0
  -27.6224  -13.2557   19.8230 C   0  0  2  0  0  0
  -28.6650  -13.3381   20.9564 C   0  0  0  0  0  0
  -25.2437  -13.8212   20.5695 C   0  0  0  0  0  0
  -24.1775  -13.0426   20.9242 C   0  0  0  0  0  0
  -24.6416  -11.6919   20.8779 C   0  0  0  0  0  0
  -23.9114  -10.4289   21.0437 C   0  0  0  0  0  0
  -24.3653   -9.4197   21.9214 C   0  0  0  0  0  0
  -23.6307   -8.2242   22.0776 C   0  0  0  0  0  0
  -22.4281   -8.0298   21.3571 C   0  0  0  0  0  0
  -21.9935   -9.0283   20.4676 C   0  0  0  0  0  0
  -22.7284  -10.2151   20.3086 C   0  0  0  0  0  0
  -21.6844   -6.0758   22.5299 C   0  0  0  0  0  0
  -21.4009   -6.5656   23.8237 C   0  0  0  0  0  0
  -21.3655   -5.6804   24.9195 C   0  0  0  0  0  0
  -21.6034   -4.3064   24.7239 C   0  0  0  0  0  0
  -21.8813   -3.8165   23.4354 C   0  0  0  0  0  0
  -21.9184   -4.6988   22.3415 C   0  0  0  0  0  0
  -22.7798  -13.5207   21.1879 C   0  0  0  0  0  0
  -22.1658   -4.2178   21.0995 F   0  0  0  0  0  0
  -21.5625   -3.4542   25.7750 F   0  0  0  0  0  0
  -29.9201  -13.7842   20.3382 N   0  0  0  0  0  0
  -26.2868  -12.9466   20.3196 N   0  0  0  0  0  0
  -25.9346  -11.6590   20.5730 N   0  0  0  0  0  0
  -22.0427  -12.8234   22.0437 N   0  0  0  0  0  0
  -25.4014  -15.1950   20.4113 N   0  0  0  0  0  0
  -31.7252  -15.0910   20.2093 O   0  0  0  0  0  0
  -21.6623   -6.8905   21.4266 O   0  0  0  0  0  0
  -22.3503  -14.5515   20.6712 O   0  0  0  0  0  0
  -24.6515  -31.8386   23.1832 C   0  0  0  0  0  0
  -25.9246  -32.4676   23.8239 C   0  0  1  0  0  0
  -27.2135  -27.0574   20.1486 C   0  0  0  0  0  0
  -25.5957  -33.8479   24.2162 N   0  0  0  0  0  0
  -23.4592  -30.4581   21.5318 C   0  0  2  0  0  0
  -24.9071  -28.8745   20.1126 C   0  0  0  0  0  0
  -22.7595  -29.4540   22.4831 C   0  0  0  0  0  0
  -18.0303  -28.1418   22.8475 C   0  0  0  0  0  0
  -24.1503  -36.7241   23.2645 C   0  0  0  0  0  0
  -26.0217  -30.6889   21.3918 C   0  0  0  0  0  0
  -26.0926  -29.2933   20.7296 C   0  0  0  0  0  0
  -27.2448  -28.4040   20.7266 C   0  0  0  0  0  0
  -25.9885  -26.7607   19.5083 C   0  0  0  0  0  0
  -24.8730  -27.6230   19.4863 C   0  0  0  0  0  0
  -23.6901  -29.7880   20.1530 C   0  0  0  0  0  0
  -25.4140  -36.3030   24.0316 C   0  0  1  0  0  0
  -20.5920  -28.3765   23.1208 C   0  0  2  0  0  0
  -20.6783  -26.9458   22.5407 C   0  0  0  0  0  0
  -19.5756  -26.6401   21.5215 C   0  0  0  0  0  0
  -18.1937  -26.7949   22.1635 C   0  0  0  0  0  0
  -19.1560  -28.8907   23.2835 C   0  0  0  0  0  0
  -18.9476  -30.1488   23.8885 C   0  0  0  0  0  0
  -17.6473  -30.6608   24.0567 C   0  0  0  0  0  0
  -25.9093  -34.9402   23.5061 C   0  0  0  0  0  0
  -16.5363  -29.9105   23.6333 C   0  0  0  0  0  0
  -16.7287  -28.6520   23.0362 C   0  0  0  0  0  0
  -26.4524  -31.6547   25.0699 C   0  0  0  0  0  0
  -25.3688  -31.3755   26.1382 C   0  0  0  0  0  0
  -27.0387  -30.2934   24.6326 C   0  0  0  0  0  0
  -27.6058  -32.4297   25.7483 C   0  0  0  0  0  0
  -27.5578  -37.1806   24.8474 C   0  0  0  0  0  0
  -21.4279  -29.3075   22.3564 N   0  0  0  0  0  0
  -26.4304  -37.3742   23.9389 N   0  0  0  0  0  0
  -24.7315  -31.0173   22.0907 N   0  0  0  0  0  0
  -23.4197  -28.8092   23.3020 O   0  0  0  0  0  0
  -28.2400  -26.0132   20.2123 O   0  0  0  0  0  0
  -26.5702  -34.8905   22.4657 O   0  0  0  0  0  0
  -23.5616  -32.1288   23.7011 O   0  0  0  0  0  0
  -29.1540  -19.0080   20.2207 C   0  0  0  0  0  0
  -30.7212  -20.6024   21.1412 C   0  0  0  0  0  0
  -31.1948  -18.1576   21.2127 C   0  0  0  0  0  0
  -29.4785  -20.4653   20.4789 C   0  0  0  0  0  0
  -29.9895  -17.7980   20.5742 C   0  0  0  0  0  0
  -31.5431  -19.5016   21.4883 C   0  0  0  0  0  0
  -28.8209  -23.1600   20.5410 C   0  0  0  0  0  0
  -27.1332  -22.8003   18.2518 C   0  0  0  0  0  0
  -27.8556  -24.1502   18.4293 C   0  0  0  0  0  0
  -27.8748  -21.5767   18.8639 C   0  0  0  0  0  0
  -27.9516  -24.4665   19.9284 C   0  0  2  0  0  0
  -28.7237  -21.7853   20.0574 N   0  0  0  0  0  0
  -29.7082  -16.2666   20.4128 N   0  0  0  0  0  0
  -29.5523  -23.4246   21.4990 O   0  0  0  0  0  0
  -33.0482  -19.8150   22.2715 Cl  0  0  0  0  0  0
  -31.4714  -12.8561   19.1702 H   0  0  0  0  0  0
  -30.4832  -11.7370   20.0636 H   0  0  0  0  0  0
  -29.8679  -11.7140   17.6225 H   0  0  0  0  0  0
  -29.5985  -13.4388   17.6537 H   0  0  0  0  0  0
  -27.9796  -11.2673   19.0137 H   0  0  0  0  0  0
  -27.4000  -12.4020   17.8229 H   0  0  0  0  0  0
  -27.5647  -14.2436   19.3652 H   0  0  0  0  0  0
  -28.7847  -12.3783   21.4606 H   0  0  0  0  0  0
  -28.3456  -14.0527   21.7169 H   0  0  0  0  0  0
  -25.2790   -9.5651   22.4808 H   0  0  0  0  0  0
  -23.9990   -7.4629   22.7502 H   0  0  0  0  0  0
  -21.0853   -8.8830   19.9001 H   0  0  0  0  0  0
  -22.3744  -10.9708   19.6213 H   0  0  0  0  0  0
  -21.1999   -7.6164   23.9755 H   0  0  0  0  0  0
  -21.1481   -6.0530   25.9102 H   0  0  0  0  0  0
  -22.0585   -2.7628   23.2848 H   0  0  0  0  0  0
  -22.3971  -11.9873   22.4838 H   0  0  0  0  0  0
  -21.1088  -13.1356   22.2667 H   0  0  0  0  0  0
  -24.6146  -15.8263   20.5147 H   0  0  0  0  0  0
  -26.2267  -15.6528   20.0498 H   0  0  0  0  0  0
  -26.7308  -32.5258   23.0957 H   0  0  0  0  0  0
  -24.9976  -33.9560   25.0226 H   0  0  0  0  0  0
  -22.7681  -31.2886   21.3727 H   0  0  0  0  0  0
  -23.3778  -35.9563   23.3312 H   0  0  0  0  0  0
  -24.3576  -36.8876   22.2060 H   0  0  0  0  0  0
  -23.7259  -37.6436   23.6679 H   0  0  0  0  0  0
  -26.1864  -31.4432   20.6213 H   0  0  0  0  0  0
  -26.8888  -30.7402   22.0385 H   0  0  0  0  0  0
  -28.1466  -28.7227   21.2296 H   0  0  0  0  0  0
  -25.8308  -25.8007   19.0467 H   0  0  0  0  0  0
  -23.9655  -27.2911   19.0009 H   0  0  0  0  0  0
  -23.8376  -30.5630   19.3991 H   0  0  0  0  0  0
  -22.8011  -29.2395   19.8361 H   0  0  0  0  0  0
  -25.1344  -36.1857   25.0812 H   0  0  0  0  0  0
  -21.0013  -28.3380   24.1329 H   0  0  0  0  0  0
  -20.5653  -26.2393   23.3644 H   0  0  0  0  0  0
  -21.6648  -26.7439   22.1219 H   0  0  0  0  0  0
  -19.6912  -25.6301   21.1268 H   0  0  0  0  0  0
  -19.6681  -27.3192   20.6723 H   0  0  0  0  0  0
  -17.4196  -26.6687   21.4046 H   0  0  0  0  0  0
  -18.0345  -26.0097   22.9045 H   0  0  0  0  0  0
  -19.7951  -30.7299   24.2264 H   0  0  0  0  0  0
  -17.5028  -31.6285   24.5183 H   0  0  0  0  0  0
  -15.5362  -30.3015   23.7657 H   0  0  0  0  0  0
  -15.8685  -28.0834   22.7096 H   0  0  0  0  0  0
  -24.5883  -30.7083   25.7701 H   0  0  0  0  0  0
  -24.8848  -32.2936   26.4717 H   0  0  0  0  0  0
  -25.7954  -30.8987   27.0216 H   0  0  0  0  0  0
  -26.3039  -29.6672   24.1253 H   0  0  0  0  0  0
  -27.3884  -29.7214   25.4929 H   0  0  0  0  0  0
  -27.8990  -30.4147   23.9743 H   0  0  0  0  0  0
  -27.2666  -33.3619   26.2006 H   0  0  0  0  0  0
  -28.3894  -32.6820   25.0328 H   0  0  0  0  0  0
  -28.0687  -31.8444   26.5437 H   0  0  0  0  0  0
  -28.2637  -38.0058   24.7449 H   0  0  0  0  0  0
  -28.1038  -36.2591   24.6406 H   0  0  0  0  0  0
  -27.2276  -37.1579   25.8873 H   0  0  0  0  0  0
  -20.9503  -29.8780   21.6728 H   0  0  0  0  0  0
  -26.0178  -38.2822   24.1344 H   0  0  0  0  0  0
  -28.2162  -18.8063   19.7241 H   0  0  0  0  0  0
  -31.1079  -21.5826   21.3690 H   0  0  0  0  0  0
  -31.8835  -17.3871   21.5253 H   0  0  0  0  0  0
  -26.9584  -22.6186   17.1903 H   0  0  0  0  0  0
  -26.1388  -22.8724   18.6951 H   0  0  0  0  0  0
  -27.3344  -24.9270   17.8761 H   0  0  0  0  0  0
  -28.8521  -24.1040   17.9878 H   0  0  0  0  0  0
  -28.5265  -21.1643   18.0920 H   0  0  0  0  0  0
  -27.1434  -20.7952   19.0781 H   0  0  0  0  0  0
  -26.9637  -24.3138   20.3639 H   0  0  0  0  0  0
  -28.7258  -16.0513   20.3299 H   0  0  0  0  0  0
  1 25  1  0  0  0
  1 30  2  0  0  0
  1 83  1  0  0  0
  2  3  1  0  0  0
  2 25  1  0  0  0
  2 86  1  0  0  0
  2 87  1  0  0  0
  3  4  1  0  0  0
  3 88  1  0  0  0
  3 89  1  0  0  0
  4  5  1  0  0  0
  4 90  1  0  0  0
  4 91  1  0  0  0
  5  6  1  0  0  0
  5 26  1  0  0  0
  5 92  1  0  0  0
  6 25  1  0  0  0
  6 93  1  0  0  0
  6 94  1  0  0  0
  7  8  2  0  0  0
  7 26  1  0  0  0
  7 29  1  0  0  0
  8  9  1  0  0  0
  8 22  1  0  0  0
  9 10  1  0  0  0
  9 27  2  0  0  0
 10 11  2  0  0  0
 10 15  1  0  0  0
 11 12  1  0  0  0
 11 95  1  0  0  0
 12 13  2  0  0  0
 12 96  1  0  0  0
 13 14  1  0  0  0
 13 31  1  0  0  0
 14 15  2  0  0  0
 14 97  1  0  0  0
 15 98  1  0  0  0
 16 17  2  0  0  0
 16 21  1  0  0  0
 16 31  1  0  0  0
 17 18  1  0  0  0
 17 99  1  0  0  0
 18 19  2  0  0  0
 18100  1  0  0  0
 19 20  1  0  0  0
 19 24  1  0  0  0
 20 21  2  0  0  0
 20101  1  0  0  0
 21 23  1  0  0  0
 22 28  1  0  0  0
 22 32  2  0  0  0
 26 27  1  0  0  0
 28102  1  0  0  0
 28103  1  0  0  0
 29104  1  0  0  0
 29105  1  0  0  0
 33 34  1  0  0  0
 33 66  1  0  0  0
 33 70  2  0  0  0
 34 36  1  0  0  0
 34 59  1  0  0  0
 34106  1  0  0  0
 35 44  2  0  0  0
 35 45  1  0  0  0
 35 68  1  0  0  0
 36 56  1  0  0  0
 36107  1  0  0  0
 37 39  1  0  0  0
 37 47  1  0  0  0
 37 66  1  0  0  0
 37108  1  0  0  0
 38 43  2  0  0  0
 38 46  1  0  0  0
 38 47  1  0  0  0
 39 64  1  0  0  0
 39 67  2  0  0  0
 40 52  1  0  0  0
 40 53  2  0  0  0
 40 58  1  0  0  0
 41109  1  0  0  0
 41110  1  0  0  0
 41111  1  0  0  0
 41 48  1  0  0  0
 42 43  1  0  0  0
 42 66  1  0  0  0
 42112  1  0  0  0
 42113  1  0  0  0
 43 44  1  0  0  0
 44114  1  0  0  0
 45 46  2  0  0  0
 45115  1  0  0  0
 46116  1  0  0  0
 47117  1  0  0  0
 47118  1  0  0  0
 48 56  1  0  0  0
 48 65  1  0  0  0
 48119  1  0  0  0
 49 50  1  0  0  0
 49 53  1  0  0  0
 49 64  1  0  0  0
 49120  1  0  0  0
 50 51  1  0  0  0
 50121  1  0  0  0
 50122  1  0  0  0
 51 52  1  0  0  0
 51123  1  0  0  0
 51124  1  0  0  0
 52125  1  0  0  0
 52126  1  0  0  0
 53 54  1  0  0  0
 54 55  2  0  0  0
 54127  1  0  0  0
 55 57  1  0  0  0
 55128  1  0  0  0
 56 69  2  0  0  0
 57 58  2  0  0  0
 57129  1  0  0  0
 58130  1  0  0  0
 59 60  1  0  0  0
 59 61  1  0  0  0
 59 62  1  0  0  0
 60131  1  0  0  0
 60132  1  0  0  0
 60133  1  0  0  0
 61134  1  0  0  0
 61135  1  0  0  0
 61136  1  0  0  0
 62137  1  0  0  0
 62138  1  0  0  0
 62139  1  0  0  0
 63 65  1  0  0  0
 63140  1  0  0  0
 63141  1  0  0  0
 63142  1  0  0  0
 64143  1  0  0  0
 65144  1  0  0  0
 68 81  1  0  0  0
 71 74  2  0  0  0
 71 75  1  0  0  0
 71145  1  0  0  0
 72 74  1  0  0  0
 72 76  2  0  0  0
 72146  1  0  0  0
 73 75  2  0  0  0
 73 76  1  0  0  0
 73147  1  0  0  0
 74 82  1  0  0  0
 75 83  1  0  0  0
 76 85  1  0  0  0
 77 81  1  0  0  0
 77 82  1  0  0  0
 77 84  2  0  0  0
 78 79  1  0  0  0
 78 80  1  0  0  0
 78148  1  0  0  0
 78149  1  0  0  0
 79 81  1  0  0  0
 79150  1  0  0  0
 79151  1  0  0  0
 80 82  1  0  0  0
 80152  1  0  0  0
 80153  1  0  0  0
 81154  1  0  0  0
 83155  1  0  0  0
M  ISO  4   1 100  68 101  81 101  83 100
M  END
> <chiral flag>
0

> <version>
0

> <s_m_source_file>
/data/baiqing/PycharmProjects/Reinvent-master-3.2/result/LINK_invent/BTK/process_docking_weight1_custom_product_contain_oxygen_bond_distance_aromatic_linkinvent_7_9_3/rearranged_h_0043.sdf

> <i_m_source_file_index>
87

> <r_mmod_Potential_Energy-OPLS-2005>
818.30712890625

> <r_mmod_Stretch_Energy-OPLS-2005>
358.527954101562

> <r_mmod_Bend_Energy-OPLS-2005>
285.802795410156

> <r_mmod_Torsional_Energy-OPLS-2005>
260.159149169922

> <r_mmod_Improper_Torsional_Energy-OPLS-2005>
6.84224700927734

> <r_mmod_Van_der_Waal_Energy-OPLS-2005>
142.008926391602

> <r_mmod_Electrostatic_Energy-OPLS-2005>
-277.058746337891

> <r_mmod_Solvation_Energy-OPLS-2005>
-234.2216796875

> <b_mmod_Minimization_Converged-OPLS-2005>
0

> <r_mmod_RMS_Derivative-OPLS-2005>
1.96808278560638

$$$$
87
                    3D
 Structure written by MMmdl.
167175  0  0  1  0            999 V2000
  -30.6262  -14.5875   20.5958 C   0  0  0  0  0  0
  -30.4275  -12.3754   19.4651 C   0  0  0  0  0  0
  -29.5008  -12.5172   18.2336 C   0  0  0  0  0  0
  -28.0252  -12.3566   18.6437 C   0  0  0  0  0  0
  -27.6570  -13.2094   19.8835 C   0  0  2  0  0  0
  -28.6905  -13.0178   21.0173 C   0  0  0  0  0  0
  -25.2571  -13.8147   20.5727 C   0  0  0  0  0  0
  -24.1843  -13.0437   20.9218 C   0  0  0  0  0  0
  -24.6359  -11.6886   20.8703 C   0  0  0  0  0  0
  -23.9016  -10.4279   21.0367 C   0  0  0  0  0  0
  -24.3571   -9.4204   21.9153 C   0  0  0  0  0  0
  -23.6276   -8.2239   22.0728 C   0  0  0  0  0  0
  -22.4262   -8.0269   21.3522 C   0  0  0  0  0  0
  -21.9881   -9.0233   20.4614 C   0  0  0  0  0  0
  -22.7185  -10.2121   20.3023 C   0  0  0  0  0  0
  -21.6860   -6.0731   22.5288 C   0  0  0  0  0  0
  -21.4022   -6.5633   23.8217 C   0  0  0  0  0  0
  -21.3652   -5.6797   24.9166 C   0  0  0  0  0  0
  -21.6025   -4.3070   24.7239 C   0  0  0  0  0  0
  -21.8814   -3.8151   23.4368 C   0  0  0  0  0  0
  -21.9186   -4.6957   22.3405 C   0  0  0  0  0  0
  -22.7856  -13.5204   21.1916 C   0  0  0  0  0  0
  -22.1668   -4.2136   21.0999 F   0  0  0  0  0  0
  -21.5589   -3.4547   25.7756 F   0  0  0  0  0  0
  -30.0184  -13.3644   20.4876 N   0  0  0  0  0  0
  -26.3002  -12.9312   20.3405 N   0  0  0  0  0  0
  -25.9285  -11.6459   20.5763 N   0  0  0  0  0  0
  -22.0520  -12.8175   22.0467 N   0  0  0  0  0  0
  -25.4321  -15.1875   20.4110 N   0  0  0  0  0  0
  -31.7041  -14.8315   20.0452 O   0  0  0  0  0  0
  -21.6620   -6.8872   21.4255 O   0  0  0  0  0  0
  -22.3545  -14.5536   20.6796 O   0  0  0  0  0  0
  -24.6218  -31.8630   23.2094 C   0  0  0  0  0  0
  -25.9112  -32.4811   23.8351 C   0  0  1  0  0  0
  -27.2174  -27.3844   20.0986 C   0  0  0  0  0  0
  -25.5922  -33.8603   24.2268 N   0  0  0  0  0  0
  -23.4065  -30.4949   21.5515 C   0  0  2  0  0  0
  -24.8429  -28.9493   20.1161 C   0  0  0  0  0  0
  -22.7428  -29.4679   22.4966 C   0  0  0  0  0  0
  -18.0284  -28.1399   22.8494 C   0  0  0  0  0  0
  -24.1468  -36.7323   23.2644 C   0  0  0  0  0  0
  -25.9402  -30.8148   21.3628 C   0  0  0  0  0  0
  -26.0104  -29.4452   20.7124 C   0  0  0  0  0  0
  -27.1999  -28.6733   20.6971 C   0  0  0  0  0  0
  -26.0342  -26.9195   19.4867 C   0  0  0  0  0  0
  -24.8514  -27.6873   19.4988 C   0  0  0  0  0  0
  -23.6091  -29.8302   20.1651 C   0  0  0  0  0  0
  -25.4110  -36.3134   24.0329 C   0  0  1  0  0  0
  -20.5876  -28.3700   23.1293 C   0  0  2  0  0  0
  -20.6773  -26.9419   22.5428 C   0  0  0  0  0  0
  -19.5742  -26.6403   21.5226 C   0  0  0  0  0  0
  -18.1918  -26.7946   22.1631 C   0  0  0  0  0  0
  -19.1536  -28.8863   23.2900 C   0  0  0  0  0  0
  -18.9462  -30.1467   23.8918 C   0  0  0  0  0  0
  -17.6467  -30.6606   24.0576 C   0  0  0  0  0  0
  -25.9050  -34.9501   23.5109 C   0  0  0  0  0  0
  -16.5350  -29.9110   23.6347 C   0  0  0  0  0  0
  -16.7280  -28.6538   23.0337 C   0  0  0  0  0  0
  -26.4507  -31.6613   25.0715 C   0  0  0  0  0  0
  -25.3746  -31.3691   26.1433 C   0  0  0  0  0  0
  -27.0321  -30.3055   24.6130 C   0  0  0  0  0  0
  -27.6088  -32.4308   25.7472 C   0  0  0  0  0  0
  -27.5581  -37.1820   24.8464 C   0  0  0  0  0  0
  -21.4149  -29.3059   22.3689 N   0  0  0  0  0  0
  -26.4301  -37.3836   23.9408 N   0  0  0  0  0  0
  -24.6759  -31.0719   22.1003 N   0  0  0  0  0  0
  -23.4178  -28.8200   23.3018 O   0  0  0  0  0  0
  -28.3736  -26.6125   20.0981 O   0  0  0  0  0  0
  -26.5636  -34.8974   22.4678 O   0  0  0  0  0  0
  -23.5410  -32.1366   23.7494 O   0  0  0  0  0  0
  -31.7589  -19.7270   21.2294 C   0  0  0  0  0  0
  -31.2167  -18.4301   21.1518 C   0  0  0  0  0  0
  -30.9836  -20.8757   20.9691 C   0  0  0  0  0  0
  -29.8663  -18.2394   20.8170 C   0  0  0  0  0  0
  -29.0553  -19.4195   20.5958 C   0  0  0  0  0  0
  -29.6005  -20.7624   20.6573 C   0  0  0  0  0  0
  -31.2831  -23.2030   17.5158 C   0  0  0  0  0  0
  -30.2573  -22.3886   17.2035 C   0  0  0  0  0  0
  -28.5235  -24.2684   19.1658 C   0  0  0  0  0  0
  -31.6846  -22.2229   21.0551 C   0  0  0  0  0  0
  -27.5681  -19.2249   20.3211 C   0  0  0  0  0  0
  -29.3162  -16.7810   20.6372 C   0  0  0  0  0  0
  -28.7452  -22.0866   20.5081 C   0  0  0  0  0  0
  -28.9701  -22.1518   18.0007 C   0  0  0  0  0  0
  -28.2719  -25.1825   20.4037 C   0  0  0  0  0  0
  -29.9301  -15.5573   21.2538 N   0  0  0  0  0  0
  -28.8221  -22.9219   19.2616 N   0  0  0  0  0  0
  -28.4481  -24.8264   18.0634 O   0  0  0  0  0  0
  -31.4679  -12.5019   19.1644 H   0  0  0  0  0  0
  -30.3549  -11.3680   19.8772 H   0  0  0  0  0  0
  -29.7534  -11.7611   17.4877 H   0  0  0  0  0  0
  -29.6493  -13.4865   17.7562 H   0  0  0  0  0  0
  -27.8641  -11.3027   18.8690 H   0  0  0  0  0  0
  -27.3623  -12.5868   17.8059 H   0  0  0  0  0  0
  -27.6901  -14.2536   19.5711 H   0  0  0  0  0  0
  -28.6883  -11.9816   21.3589 H   0  0  0  0  0  0
  -28.4156  -13.6099   21.8908 H   0  0  0  0  0  0
  -25.2684   -9.5703   22.4753 H   0  0  0  0  0  0
  -23.9972   -7.4617   22.7443 H   0  0  0  0  0  0
  -21.0799   -8.8713   19.8925 H   0  0  0  0  0  0
  -22.3584  -10.9655   19.6157 H   0  0  0  0  0  0
  -21.2048   -7.6152   23.9730 H   0  0  0  0  0  0
  -21.1471   -6.0521   25.9067 H   0  0  0  0  0  0
  -22.0599   -2.7624   23.2870 H   0  0  0  0  0  0
  -22.4152  -11.9778   22.4755 H   0  0  0  0  0  0
  -21.1153  -13.1188   22.2716 H   0  0  0  0  0  0
  -24.6674  -15.8461   20.5078 H   0  0  0  0  0  0
  -26.2761  -15.6052   20.0416 H   0  0  0  0  0  0
  -26.7194  -32.5503   23.1093 H   0  0  0  0  0  0
  -24.9972  -33.9668   25.0352 H   0  0  0  0  0  0
  -22.7079  -31.3235   21.4209 H   0  0  0  0  0  0
  -23.3737  -35.9646   23.3320 H   0  0  0  0  0  0
  -24.3553  -36.8933   22.2060 H   0  0  0  0  0  0
  -23.7206  -37.6533   23.6640 H   0  0  0  0  0  0
  -26.0580  -31.5748   20.5893 H   0  0  0  0  0  0
  -26.8327  -30.8673   21.9778 H   0  0  0  0  0  0
  -28.1016  -29.0523   21.1559 H   0  0  0  0  0  0
  -26.0207  -25.9605   18.9918 H   0  0  0  0  0  0
  -23.9566  -27.3081   19.0252 H   0  0  0  0  0  0
  -23.7280  -30.6111   19.4123 H   0  0  0  0  0  0
  -22.7237  -29.2641   19.8674 H   0  0  0  0  0  0
  -25.1281  -36.1991   25.0826 H   0  0  0  0  0  0
  -20.9998  -28.3299   24.1393 H   0  0  0  0  0  0
  -20.5670  -26.2303   23.3615 H   0  0  0  0  0  0
  -21.6640  -26.7435   22.1208 H   0  0  0  0  0  0
  -19.6892  -25.6317   21.1246 H   0  0  0  0  0  0
  -19.6712  -27.3211   20.6745 H   0  0  0  0  0  0
  -17.4181  -26.6695   21.4033 H   0  0  0  0  0  0
  -18.0347  -26.0086   22.9037 H   0  0  0  0  0  0
  -19.7937  -30.7295   24.2277 H   0  0  0  0  0  0
  -17.5019  -31.6288   24.5164 H   0  0  0  0  0  0
  -15.5349  -30.3005   23.7694 H   0  0  0  0  0  0
  -15.8671  -28.0891   22.6993 H   0  0  0  0  0  0
  -24.5915  -30.7069   25.7713 H   0  0  0  0  0  0
  -24.8931  -32.2828   26.4940 H   0  0  0  0  0  0
  -25.8070  -30.8784   27.0161 H   0  0  0  0  0  0
  -26.2855  -29.6820   24.1208 H   0  0  0  0  0  0
  -27.4084  -29.7320   25.4609 H   0  0  0  0  0  0
  -27.8701  -30.4348   23.9275 H   0  0  0  0  0  0
  -27.2732  -33.3571   26.2139 H   0  0  0  0  0  0
  -28.3864  -32.6920   25.0282 H   0  0  0  0  0  0
  -28.0808  -31.8372   26.5312 H   0  0  0  0  0  0
  -28.2625  -38.0100   24.7537 H   0  0  0  0  0  0
  -28.1049  -36.2639   24.6252 H   0  0  0  0  0  0
  -27.2295  -37.1448   25.8871 H   0  0  0  0  0  0
  -20.9292  -29.8797   21.6927 H   0  0  0  0  0  0
  -26.0181  -38.2905   24.1463 H   0  0  0  0  0  0
  -32.8049  -19.8371   21.4867 H   0  0  0  0  0  0
  -31.8538  -17.5789   21.3474 H   0  0  0  0  0  0
  -32.1531  -23.2818   16.8782 H   0  0  0  0  0  0
  -31.2891  -23.8144   18.4012 H   0  0  0  0  0  0
  -30.3272  -21.8304   16.2788 H   0  0  0  0  0  0
  -32.7543  -22.1112   20.8680 H   0  0  0  0  0  0
  -31.5558  -22.6770   22.0373 H   0  0  0  0  0  0
  -31.3100  -22.9250   20.3192 H   0  0  0  0  0  0
  -27.0416  -19.0285   21.2554 H   0  0  0  0  0  0
  -27.4024  -18.3817   19.6559 H   0  0  0  0  0  0
  -27.0901  -20.0760   19.8401 H   0  0  0  0  0  0
  -28.3056  -16.7759   21.0410 H   0  0  0  0  0  0
  -29.2138  -16.6038   19.5632 H   0  0  0  0  0  0
  -29.0193  -22.7174   21.3501 H   0  0  0  0  0  0
  -27.6899  -21.8990   20.6920 H   0  0  0  0  0  0
  -28.8961  -21.0826   18.1867 H   0  0  0  0  0  0
  -28.1204  -22.3706   17.3476 H   0  0  0  0  0  0
  -27.3085  -24.9455   20.8555 H   0  0  0  0  0  0
  -29.0336  -24.9618   21.1510 H   0  0  0  0  0  0
  -29.3214  -15.1515   21.9503 H   0  0  0  0  0  0
  1 25  1  0  0  0
  1 30  2  0  0  0
  1 86  1  0  0  0
  2  3  1  0  0  0
  2 25  1  0  0  0
  2 89  1  0  0  0
  2 90  1  0  0  0
  3  4  1  0  0  0
  3 91  1  0  0  0
  3 92  1  0  0  0
  4  5  1  0  0  0
  4 93  1  0  0  0
  4 94  1  0  0  0
  5  6  1  0  0  0
  5 26  1  0  0  0
  5 95  1  0  0  0
  6 25  1  0  0  0
  6 96  1  0  0  0
  6 97  1  0  0  0
  7  8  2  0  0  0
  7 26  1  0  0  0
  7 29  1  0  0  0
  8  9  1  0  0  0
  8 22  1  0  0  0
  9 10  1  0  0  0
  9 27  2  0  0  0
 10 11  2  0  0  0
 10 15  1  0  0  0
 11 12  1  0  0  0
 11 98  1  0  0  0
 12 13  2  0  0  0
 12 99  1  0  0  0
 13 14  1  0  0  0
 13 31  1  0  0  0
 14 15  2  0  0  0
 14100  1  0  0  0
 15101  1  0  0  0
 16 17  2  0  0  0
 16 21  1  0  0  0
 16 31  1  0  0  0
 17 18  1  0  0  0
 17102  1  0  0  0
 18 19  2  0  0  0
 18103  1  0  0  0
 19 20  1  0  0  0
 19 24  1  0  0  0
 20 21  2  0  0  0
 20104  1  0  0  0
 21 23  1  0  0  0
 22 28  1  0  0  0
 22 32  2  0  0  0
 26 27  1  0  0  0
 28105  1  0  0  0
 28106  1  0  0  0
 29107  1  0  0  0
 29108  1  0  0  0
 33 34  1  0  0  0
 33 66  1  0  0  0
 33 70  2  0  0  0
 34 36  1  0  0  0
 34 59  1  0  0  0
 34109  1  0  0  0
 35 44  2  0  0  0
 35 45  1  0  0  0
 35 68  1  0  0  0
 36 56  1  0  0  0
 36110  1  0  0  0
 37 39  1  0  0  0
 37 47  1  0  0  0
 37 66  1  0  0  0
 37111  1  0  0  0
 38 43  2  0  0  0
 38 46  1  0  0  0
 38 47  1  0  0  0
 39 64  1  0  0  0
 39 67  2  0  0  0
 40 52  1  0  0  0
 40 53  2  0  0  0
 40 58  1  0  0  0
 41112  1  0  0  0
 41113  1  0  0  0
 41114  1  0  0  0
 41 48  1  0  0  0
 42 43  1  0  0  0
 42 66  1  0  0  0
 42115  1  0  0  0
 42116  1  0  0  0
 43 44  1  0  0  0
 44117  1  0  0  0
 45 46  2  0  0  0
 45118  1  0  0  0
 46119  1  0  0  0
 47120  1  0  0  0
 47121  1  0  0  0
 48 56  1  0  0  0
 48 65  1  0  0  0
 48122  1  0  0  0
 49 50  1  0  0  0
 49 53  1  0  0  0
 49 64  1  0  0  0
 49123  1  0  0  0
 50 51  1  0  0  0
 50124  1  0  0  0
 50125  1  0  0  0
 51 52  1  0  0  0
 51126  1  0  0  0
 51127  1  0  0  0
 52128  1  0  0  0
 52129  1  0  0  0
 53 54  1  0  0  0
 54 55  2  0  0  0
 54130  1  0  0  0
 55 57  1  0  0  0
 55131  1  0  0  0
 56 69  2  0  0  0
 57 58  2  0  0  0
 57132  1  0  0  0
 58133  1  0  0  0
 59 60  1  0  0  0
 59 61  1  0  0  0
 59 62  1  0  0  0
 60134  1  0  0  0
 60135  1  0  0  0
 60136  1  0  0  0
 61137  1  0  0  0
 61138  1  0  0  0
 61139  1  0  0  0
 62140  1  0  0  0
 62141  1  0  0  0
 62142  1  0  0  0
 63 65  1  0  0  0
 63143  1  0  0  0
 63144  1  0  0  0
 63145  1  0  0  0
 64146  1  0  0  0
 65147  1  0  0  0
 68 85  1  0  0  0
 71 72  2  0  0  0
 71 73  1  0  0  0
 71148  1  0  0  0
 72 74  1  0  0  0
 72149  1  0  0  0
 73 76  2  0  0  0
 73 80  1  0  0  0
 74 75  2  0  0  0
 74 82  1  0  0  0
 75 76  1  0  0  0
 75 81  1  0  0  0
 76 83  1  0  0  0
 77 78  2  0  0  0
 77150  1  0  0  0
 77151  1  0  0  0
 78 84  1  0  0  0
 78152  1  0  0  0
 79 85  1  0  0  0
 79 87  1  0  0  0
 79 88  2  0  0  0
 80153  1  0  0  0
 80154  1  0  0  0
 80155  1  0  0  0
 81156  1  0  0  0
 81157  1  0  0  0
 81158  1  0  0  0
 82 86  1  0  0  0
 82159  1  0  0  0
 82160  1  0  0  0
 83 87  1  0  0  0
 83161  1  0  0  0
 83162  1  0  0  0
 84 87  1  0  0  0
 84163  1  0  0  0
 84164  1  0  0  0
 85165  1  0  0  0
 85166  1  0  0  0
 86167  1  0  0  0
M  ISO  4   1 100  68 101  85 101  86 100
M  END
> <chiral flag>
0

> <version>
0

> <s_m_source_file>
/data/baiqing/PycharmProjects/Reinvent-master-3.2/result/LINK_invent/BTK/process_docking_weight1_custom_product_contain_oxygen_bond_distance_aromatic_linkinvent_7_9_3/rearranged_h_0043.sdf

> <i_m_source_file_index>
88

> <r_mmod_Potential_Energy-OPLS-2005>
52.2692794799805

> <r_mmod_Stretch_Energy-OPLS-2005>
79.5980682373047

> <r_mmod_Bend_Energy-OPLS-2005>
146.33203125

> <r_mmod_Torsional_Energy-OPLS-2005>
261.428680419922

> <r_mmod_Improper_Torsional_Energy-OPLS-2005>
7.39659738540649

> <r_mmod_Van_der_Waal_Energy-OPLS-2005>
151.759002685547

> <r_mmod_Electrostatic_Energy-OPLS-2005>
-379.402618408203

> <r_mmod_Solvation_Energy-OPLS-2005>
-243.776443481445

> <b_mmod_Minimization_Converged-OPLS-2005>
0

> <r_mmod_RMS_Derivative-OPLS-2005>
5.8098087310791

$$$$
88
                    3D
 Structure written by MMmdl.
171180  0  0  1  0            999 V2000
  -30.6696  -14.5340   20.5703 C   0  0  0  0  0  0
  -30.4341  -12.3480   19.4235 C   0  0  0  0  0  0
  -29.4985  -12.5042   18.2064 C   0  0  0  0  0  0
  -28.0217  -12.3481   18.6234 C   0  0  0  0  0  0
  -27.6568  -13.2060   19.8643 C   0  0  2  0  0  0
  -28.7002  -13.0126   20.9860 C   0  0  0  0  0  0
  -25.2573  -13.8154   20.5654 C   0  0  0  0  0  0
  -24.1829  -13.0439   20.9182 C   0  0  0  0  0  0
  -24.6381  -11.6906   20.8741 C   0  0  0  0  0  0
  -23.9043  -10.4291   21.0412 C   0  0  0  0  0  0
  -24.3596   -9.4210   21.9188 C   0  0  0  0  0  0
  -23.6283   -8.2242   22.0752 C   0  0  0  0  0  0
  -22.4265   -8.0269   21.3541 C   0  0  0  0  0  0
  -21.9901   -9.0236   20.4636 C   0  0  0  0  0  0
  -22.7224  -10.2124   20.3051 C   0  0  0  0  0  0
  -21.6846   -6.0722   22.5283 C   0  0  0  0  0  0
  -21.4001   -6.5629   23.8214 C   0  0  0  0  0  0
  -21.3657   -5.6784   24.9173 C   0  0  0  0  0  0
  -21.6051   -4.3047   24.7226 C   0  0  0  0  0  0
  -21.8819   -3.8141   23.4351 C   0  0  0  0  0  0
  -21.9190   -4.6954   22.3406 C   0  0  0  0  0  0
  -22.7853  -13.5245   21.1860 C   0  0  0  0  0  0
  -22.1660   -4.2139   21.0988 F   0  0  0  0  0  0
  -21.5635   -3.4539   25.7742 F   0  0  0  0  0  0
  -30.0216  -13.3427   20.4266 N   0  0  0  0  0  0
  -26.2999  -12.9322   20.3319 N   0  0  0  0  0  0
  -25.9307  -11.6491   20.5746 N   0  0  0  0  0  0
  -22.0484  -12.8225   22.0400 N   0  0  0  0  0  0
  -25.4327  -15.1864   20.4039 N   0  0  0  0  0  0
  -31.8258  -14.7121   20.1782 O   0  0  0  0  0  0
  -21.6634   -6.8868   21.4243 O   0  0  0  0  0  0
  -22.3555  -14.5566   20.6722 O   0  0  0  0  0  0
  -24.6243  -31.8608   23.2050 C   0  0  0  0  0  0
  -25.9121  -32.4774   23.8356 C   0  0  1  0  0  0
  -27.2105  -27.3489   20.0958 C   0  0  0  0  0  0
  -25.5987  -33.8578   24.2282 N   0  0  0  0  0  0
  -23.4113  -30.4898   21.5465 C   0  0  2  0  0  0
  -24.8489  -28.9504   20.1107 C   0  0  0  0  0  0
  -22.7459  -29.4634   22.4938 C   0  0  0  0  0  0
  -18.0267  -28.1392   22.8476 C   0  0  0  0  0  0
  -24.1439  -36.7219   23.2653 C   0  0  0  0  0  0
  -25.9524  -30.7985   21.3709 C   0  0  0  0  0  0
  -26.0182  -29.4311   20.7104 C   0  0  0  0  0  0
  -27.1971  -28.6372   20.6991 C   0  0  0  0  0  0
  -26.0030  -26.8977   19.5056 C   0  0  0  0  0  0
  -24.8398  -27.6858   19.5087 C   0  0  0  0  0  0
  -23.6208  -29.8320   20.1591 C   0  0  0  0  0  0
  -25.4081  -36.3054   24.0333 C   0  0  1  0  0  0
  -20.5869  -28.3664   23.1282 C   0  0  2  0  0  0
  -20.6760  -26.9396   22.5387 C   0  0  0  0  0  0
  -19.5731  -26.6371   21.5206 C   0  0  0  0  0  0
  -18.1908  -26.7932   22.1614 C   0  0  0  0  0  0
  -19.1522  -28.8853   23.2863 C   0  0  0  0  0  0
  -18.9476  -30.1478   23.8842 C   0  0  0  0  0  0
  -17.6479  -30.6603   24.0585 C   0  0  0  0  0  0
  -25.9056  -34.9444   23.5085 C   0  0  0  0  0  0
  -16.5365  -29.9110   23.6379 C   0  0  0  0  0  0
  -16.7257  -28.6535   23.0366 C   0  0  0  0  0  0
  -26.4529  -31.6612   25.0730 C   0  0  0  0  0  0
  -25.3793  -31.3722   26.1481 C   0  0  0  0  0  0
  -27.0450  -30.3078   24.6178 C   0  0  0  0  0  0
  -27.6055  -32.4406   25.7500 C   0  0  0  0  0  0
  -27.5524  -37.1762   24.8497 C   0  0  0  0  0  0
  -21.4172  -29.3034   22.3695 N   0  0  0  0  0  0
  -26.4234  -37.3774   23.9446 N   0  0  0  0  0  0
  -24.6812  -31.0667   22.0965 N   0  0  0  0  0  0
  -23.4200  -28.8173   23.2996 O   0  0  0  0  0  0
  -28.3716  -26.5682   20.1249 O   0  0  0  0  0  0
  -26.5598  -34.8905   22.4632 O   0  0  0  0  0  0
  -23.5425  -32.1410   23.7411 O   0  0  0  0  0  0
  -29.9038  -19.3950   20.8163 C   0  0  0  0  0  0
  -30.8399  -17.8467   19.1775 C   0  0  0  0  0  0
  -30.6921  -20.2328   18.6780 C   0  0  0  0  0  0
  -30.3090  -18.0668   20.4634 C   0  0  0  0  0  0
  -30.0724  -20.4992   19.9222 C   0  0  0  0  0  0
  -31.0344  -18.9235   18.2943 C   0  0  0  0  0  0
  -28.1219  -24.0016   20.2779 C   0  0  0  0  0  0
  -27.4439  -23.9894   21.4467 C   0  0  0  0  0  0
  -26.9694  -22.7899   22.1209 C   0  0  0  0  0  0
  -26.4715  -22.7857   23.3688 C   0  0  0  0  0  0
  -29.8639  -23.9153   17.8139 C   0  0  0  0  0  0
  -29.8185  -25.1370   18.7582 C   0  0  0  0  0  0
  -28.8034  -22.8415   18.1579 C   0  0  0  0  0  0
  -28.4484  -25.2778   19.4354 C   0  0  2  0  0  0
  -25.8865  -21.5592   24.0407 C   0  0  0  0  0  0
  -30.2917  -16.9103   21.4890 C   0  0  0  0  0  0
  -29.7392  -21.9699   20.3317 C   0  0  0  0  0  0
  -29.9082  -15.5488   21.0402 N   0  0  0  0  0  0
  -28.6121  -22.6927   19.6246 N   0  3  1  0  0  0
  -31.7331  -18.6409   16.7424 Cl  0  0  0  0  0  0
  -31.4763  -12.4695   19.1228 H   0  0  0  0  0  0
  -30.3592  -11.3428   19.8406 H   0  0  0  0  0  0
  -29.7509  -11.7681   17.4419 H   0  0  0  0  0  0
  -29.6488  -13.4840   17.7503 H   0  0  0  0  0  0
  -27.8526  -11.2933   18.8446 H   0  0  0  0  0  0
  -27.3651  -12.5907   17.7879 H   0  0  0  0  0  0
  -27.6909  -14.2481   19.5459 H   0  0  0  0  0  0
  -28.6957  -11.9787   21.3328 H   0  0  0  0  0  0
  -28.4546  -13.6151   21.8618 H   0  0  0  0  0  0
  -25.2730   -9.5691   22.4767 H   0  0  0  0  0  0
  -23.9986   -7.4629   22.7469 H   0  0  0  0  0  0
  -21.0839   -8.8745   19.8932 H   0  0  0  0  0  0
  -22.3681  -10.9653   19.6151 H   0  0  0  0  0  0
  -21.1979   -7.6133   23.9713 H   0  0  0  0  0  0
  -21.1481   -6.0514   25.9076 H   0  0  0  0  0  0
  -22.0598   -2.7603   23.2858 H   0  0  0  0  0  0
  -22.4067  -11.9854   22.4762 H   0  0  0  0  0  0
  -21.1101  -13.1254   22.2604 H   0  0  0  0  0  0
  -24.6671  -15.8449   20.4959 H   0  0  0  0  0  0
  -26.2811  -15.6168   20.0579 H   0  0  0  0  0  0
  -26.7163  -32.5404   23.1071 H   0  0  0  0  0  0
  -25.0322  -33.9753   25.0555 H   0  0  0  0  0  0
  -22.7049  -31.3107   21.4069 H   0  0  0  0  0  0
  -23.3742  -35.9527   23.3370 H   0  0  0  0  0  0
  -24.3494  -36.8787   22.2058 H   0  0  0  0  0  0
  -23.7139  -37.6398   23.6659 H   0  0  0  0  0  0
  -26.0950  -31.5684   20.6124 H   0  0  0  0  0  0
  -26.8316  -30.8327   22.0029 H   0  0  0  0  0  0
  -28.0940  -29.0027   21.1770 H   0  0  0  0  0  0
  -25.8988  -25.9251   19.0532 H   0  0  0  0  0  0
  -23.9343  -27.3070   19.0535 H   0  0  0  0  0  0
  -23.7427  -30.6135   19.4067 H   0  0  0  0  0  0
  -22.7390  -29.2657   19.8515 H   0  0  0  0  0  0
  -25.1262  -36.1883   25.0826 H   0  0  0  0  0  0
  -20.9949  -28.3220   24.1408 H   0  0  0  0  0  0
  -20.5692  -26.2277   23.3575 H   0  0  0  0  0  0
  -21.6621  -26.7448   22.1151 H   0  0  0  0  0  0
  -19.6912  -25.6288   21.1238 H   0  0  0  0  0  0
  -19.6683  -27.3197   20.6752 H   0  0  0  0  0  0
  -17.4172  -26.6694   21.4012 H   0  0  0  0  0  0
  -18.0299  -26.0081   22.9006 H   0  0  0  0  0  0
  -19.7963  -30.7333   24.2112 H   0  0  0  0  0  0
  -17.5053  -31.6273   24.5219 H   0  0  0  0  0  0
  -15.5381  -30.3033   23.7730 H   0  0  0  0  0  0
  -15.8629  -28.0883   22.7096 H   0  0  0  0  0  0
  -24.5960  -30.7068   25.7828 H   0  0  0  0  0  0
  -24.9014  -32.2892   26.4954 H   0  0  0  0  0  0
  -25.8165  -30.8876   27.0227 H   0  0  0  0  0  0
  -26.3049  -29.6747   24.1272 H   0  0  0  0  0  0
  -27.4291  -29.7394   25.4665 H   0  0  0  0  0  0
  -27.8834  -30.4435   23.9340 H   0  0  0  0  0  0
  -27.2631  -33.3733   26.1991 H   0  0  0  0  0  0
  -28.3904  -32.6937   25.0364 H   0  0  0  0  0  0
  -28.0686  -31.8606   26.5490 H   0  0  0  0  0  0
  -28.2582  -38.0029   24.7558 H   0  0  0  0  0  0
  -28.0972  -36.2559   24.6328 H   0  0  0  0  0  0
  -27.2242  -37.1407   25.8905 H   0  0  0  0  0  0
  -20.9338  -29.8759   21.6913 H   0  0  0  0  0  0
  -26.0100  -38.2821   24.1554 H   0  0  0  0  0  0
  -29.5119  -19.5763   21.8087 H   0  0  0  0  0  0
  -31.1551  -16.8599   18.8731 H   0  0  0  0  0  0
  -30.9338  -21.0356   17.9976 H   0  0  0  0  0  0
  -27.1384  -24.9455   21.8499 H   0  0  0  0  0  0
  -26.9674  -21.8481   21.5892 H   0  0  0  0  0  0
  -26.4594  -23.6961   23.9536 H   0  0  0  0  0  0
  -30.8655  -23.4876   17.8320 H   0  0  0  0  0  0
  -29.6997  -24.2369   16.7833 H   0  0  0  0  0  0
  -30.0602  -26.0402   18.1973 H   0  0  0  0  0  0
  -30.5884  -25.0449   19.5253 H   0  0  0  0  0  0
  -29.0031  -21.8959   17.6603 H   0  0  0  0  0  0
  -27.8433  -23.1378   17.7355 H   0  0  0  0  0  0
  -27.7595  -25.2901   18.5959 H   0  0  0  0  0  0
  -25.9557  -20.6775   23.4005 H   0  0  0  0  0  0
  -24.8319  -21.7307   24.2658 H   0  0  0  0  0  0
  -26.4039  -21.3420   24.9766 H   0  0  0  0  0  0
  -29.6017  -17.1810   22.2893 H   0  0  0  0  0  0
  -31.2760  -16.8602   21.9582 H   0  0  0  0  0  0
  -30.6460  -22.5687   20.2376 H   0  0  0  0  0  0
  -29.5204  -21.9586   21.3994 H   0  0  0  0  0  0
  -28.9566  -15.2903   21.2492 H   0  0  0  0  0  0
  -27.8446  -22.0418   19.6886 H   0  0  0  0  0  0
  1 25  1  0  0  0
  1 30  2  0  0  0
  1 88  1  0  0  0
  2  3  1  0  0  0
  2 25  1  0  0  0
  2 91  1  0  0  0
  2 92  1  0  0  0
  3  4  1  0  0  0
  3 93  1  0  0  0
  3 94  1  0  0  0
  4  5  1  0  0  0
  4 95  1  0  0  0
  4 96  1  0  0  0
  5  6  1  0  0  0
  5 26  1  0  0  0
  5 97  1  0  0  0
  6 25  1  0  0  0
  6 98  1  0  0  0
  6 99  1  0  0  0
  7  8  2  0  0  0
  7 26  1  0  0  0
  7 29  1  0  0  0
  8  9  1  0  0  0
  8 22  1  0  0  0
  9 10  1  0  0  0
  9 27  2  0  0  0
 10 11  2  0  0  0
 10 15  1  0  0  0
 11 12  1  0  0  0
 11100  1  0  0  0
 12 13  2  0  0  0
 12101  1  0  0  0
 13 14  1  0  0  0
 13 31  1  0  0  0
 14 15  2  0  0  0
 14102  1  0  0  0
 15103  1  0  0  0
 16 17  2  0  0  0
 16 21  1  0  0  0
 16 31  1  0  0  0
 17 18  1  0  0  0
 17104  1  0  0  0
 18 19  2  0  0  0
 18105  1  0  0  0
 19 20  1  0  0  0
 19 24  1  0  0  0
 20 21  2  0  0  0
 20106  1  0  0  0
 21 23  1  0  0  0
 22 28  1  0  0  0
 22 32  2  0  0  0
 26 27  1  0  0  0
 28107  1  0  0  0
 28108  1  0  0  0
 29109  1  0  0  0
 29110  1  0  0  0
 33 34  1  0  0  0
 33 66  1  0  0  0
 33 70  2  0  0  0
 34 36  1  0  0  0
 34 59  1  0  0  0
 34111  1  0  0  0
 35 44  2  0  0  0
 35 45  1  0  0  0
 35 68  1  0  0  0
 36 56  1  0  0  0
 36112  1  0  0  0
 37 39  1  0  0  0
 37 47  1  0  0  0
 37 66  1  0  0  0
 37113  1  0  0  0
 38 43  2  0  0  0
 38 46  1  0  0  0
 38 47  1  0  0  0
 39 64  1  0  0  0
 39 67  2  0  0  0
 40 52  1  0  0  0
 40 53  2  0  0  0
 40 58  1  0  0  0
 41114  1  0  0  0
 41115  1  0  0  0
 41116  1  0  0  0
 41 48  1  0  0  0
 42 43  1  0  0  0
 42 66  1  0  0  0
 42117  1  0  0  0
 42118  1  0  0  0
 43 44  1  0  0  0
 44119  1  0  0  0
 45 46  2  0  0  0
 45120  1  0  0  0
 46121  1  0  0  0
 47122  1  0  0  0
 47123  1  0  0  0
 48 56  1  0  0  0
 48 65  1  0  0  0
 48124  1  0  0  0
 49 50  1  0  0  0
 49 53  1  0  0  0
 49 64  1  0  0  0
 49125  1  0  0  0
 50 51  1  0  0  0
 50126  1  0  0  0
 50127  1  0  0  0
 51 52  1  0  0  0
 51128  1  0  0  0
 51129  1  0  0  0
 52130  1  0  0  0
 52131  1  0  0  0
 53 54  1  0  0  0
 54 55  2  0  0  0
 54132  1  0  0  0
 55 57  1  0  0  0
 55133  1  0  0  0
 56 69  2  0  0  0
 57 58  2  0  0  0
 57134  1  0  0  0
 58135  1  0  0  0
 59 60  1  0  0  0
 59 61  1  0  0  0
 59 62  1  0  0  0
 60136  1  0  0  0
 60137  1  0  0  0
 60138  1  0  0  0
 61139  1  0  0  0
 61140  1  0  0  0
 61141  1  0  0  0
 62142  1  0  0  0
 62143  1  0  0  0
 62144  1  0  0  0
 63 65  1  0  0  0
 63145  1  0  0  0
 63146  1  0  0  0
 63147  1  0  0  0
 64148  1  0  0  0
 65149  1  0  0  0
 68 84  1  0  0  0
 71 74  2  0  0  0
 71 75  1  0  0  0
 71150  1  0  0  0
 72 74  1  0  0  0
 72 76  2  0  0  0
 72151  1  0  0  0
 73 75  2  0  0  0
 73 76  1  0  0  0
 73152  1  0  0  0
 74 86  1  0  0  0
 75 87  1  0  0  0
 76 90  1  0  0  0
 77 78  2  0  0  0
 77 84  1  0  0  0
 77 89  1  0  0  0
 78 79  1  0  0  0
 78153  1  0  0  0
 79 80  2  0  0  0
 79154  1  0  0  0
 80 85  1  0  0  0
 80155  1  0  0  0
 81 82  1  0  0  0
 81 83  1  0  0  0
 81156  1  0  0  0
 81157  1  0  0  0
 82 84  1  0  0  0
 82158  1  0  0  0
 82159  1  0  0  0
 83 89  1  0  0  0
 83160  1  0  0  0
 83161  1  0  0  0
 84162  1  0  0  0
 85163  1  0  0  0
 85164  1  0  0  0
 85165  1  0  0  0
 86 88  1  0  0  0
 86166  1  0  0  0
 86167  1  0  0  0
 87168  1  0  0  0
 87169  1  0  0  0
 87 89  1  0  0  0
 88170  1  0  0  0
 89171  1  0  0  0
M  CHG  1  89   1
M  ISO  4   1 100  68 101  84 101  88 100
M  END
> <chiral flag>
0

> <version>
0

> <s_m_source_file>
/data/baiqing/PycharmProjects/Reinvent-master-3.2/result/LINK_invent/BTK/process_docking_weight1_custom_product_contain_oxygen_bond_distance_aromatic_linkinvent_7_9_3/rearranged_h_0043.sdf

> <i_m_source_file_index>
89

> <r_mmod_Potential_Energy-OPLS-2005>
-151.054351806641

> <r_mmod_Stretch_Energy-OPLS-2005>
64.8096160888672

> <r_mmod_Bend_Energy-OPLS-2005>
134.058227539062

> <r_mmod_Torsional_Energy-OPLS-2005>
215.039398193359

> <r_mmod_Improper_Torsional_Energy-OPLS-2005>
4.63440608978271

> <r_mmod_Van_der_Waal_Energy-OPLS-2005>
154.573120117188

> <r_mmod_Electrostatic_Energy-OPLS-2005>
-311.586761474609

> <r_mmod_Solvation_Energy-OPLS-2005>
-440.944580078125

> <b_mmod_Minimization_Converged-OPLS-2005>
0

> <r_mmod_RMS_Derivative-OPLS-2005>
3.28002119064331

$$$$
89
                    3D
 Structure written by MMmdl.
170179  0  0  1  0            999 V2000
  -30.6318  -14.7616   20.4678 C   0  0  0  0  0  0
  -30.4233  -12.4721   19.4633 C   0  0  0  0  0  0
  -29.5032  -12.5027   18.2256 C   0  0  0  0  0  0
  -28.0349  -12.3135   18.6540 C   0  0  0  0  0  0
  -27.6314  -13.2357   19.8344 C   0  0  2  0  0  0
  -28.6770  -13.2119   20.9680 C   0  0  0  0  0  0
  -25.2449  -13.8194   20.5702 C   0  0  0  0  0  0
  -24.1752  -13.0442   20.9222 C   0  0  0  0  0  0
  -24.6363  -11.6919   20.8745 C   0  0  0  0  0  0
  -23.9043  -10.4302   21.0393 C   0  0  0  0  0  0
  -24.3600   -9.4217   21.9174 C   0  0  0  0  0  0
  -23.6287   -8.2251   22.0738 C   0  0  0  0  0  0
  -22.4265   -8.0275   21.3533 C   0  0  0  0  0  0
  -21.9899   -9.0237   20.4626 C   0  0  0  0  0  0
  -22.7222  -10.2123   20.3048 C   0  0  0  0  0  0
  -21.6843   -6.0728   22.5280 C   0  0  0  0  0  0
  -21.4005   -6.5631   23.8205 C   0  0  0  0  0  0
  -21.3667   -5.6790   24.9171 C   0  0  0  0  0  0
  -21.6057   -4.3058   24.7228 C   0  0  0  0  0  0
  -21.8812   -3.8144   23.4352 C   0  0  0  0  0  0
  -21.9185   -4.6951   22.3404 C   0  0  0  0  0  0
  -22.7773  -13.5190   21.1928 C   0  0  0  0  0  0
  -22.1654   -4.2137   21.0978 F   0  0  0  0  0  0
  -21.5637   -3.4541   25.7736 F   0  0  0  0  0  0
  -29.9721  -13.5563   20.3683 N   0  0  0  0  0  0
  -26.2862  -12.9415   20.3205 N   0  0  0  0  0  0
  -25.9276  -11.6550   20.5715 N   0  0  0  0  0  0
  -22.0451  -12.8147   22.0482 N   0  0  0  0  0  0
  -25.4123  -15.1946   20.4143 N   0  0  0  0  0  0
  -31.8402  -14.8056   20.2180 O   0  0  0  0  0  0
  -21.6636   -6.8869   21.4229 O   0  0  0  0  0  0
  -22.3433  -14.5500   20.6803 O   0  0  0  0  0  0
  -24.6329  -31.8504   23.1972 C   0  0  0  0  0  0
  -25.9147  -32.4707   23.8314 C   0  0  1  0  0  0
  -27.2346  -27.2385   20.1213 C   0  0  0  0  0  0
  -25.5919  -33.8512   24.2205 N   0  0  0  0  0  0
  -23.4314  -30.4722   21.5396 C   0  0  2  0  0  0
  -24.8833  -28.9203   20.1017 C   0  0  0  0  0  0
  -22.7509  -29.4579   22.4900 C   0  0  0  0  0  0
  -18.0295  -28.1383   22.8460 C   0  0  0  0  0  0
  -24.1505  -36.7298   23.2651 C   0  0  0  0  0  0
  -25.9800  -30.7522   21.3884 C   0  0  0  0  0  0
  -26.0517  -29.3762   20.7223 C   0  0  0  0  0  0
  -27.2219  -28.5452   20.7275 C   0  0  0  0  0  0
  -26.0452  -26.8703   19.4462 C   0  0  0  0  0  0
  -24.8884  -27.6779   19.4500 C   0  0  0  0  0  0
  -23.6503  -29.8060   20.1549 C   0  0  0  0  0  0
  -25.4128  -36.3028   24.0310 C   0  0  1  0  0  0
  -20.5886  -28.3700   23.1241 C   0  0  2  0  0  0
  -20.6774  -26.9406   22.5403 C   0  0  0  0  0  0
  -19.5763  -26.6370   21.5193 C   0  0  0  0  0  0
  -18.1950  -26.7920   22.1610 C   0  0  0  0  0  0
  -19.1544  -28.8862   23.2837 C   0  0  0  0  0  0
  -18.9464  -30.1457   23.8850 C   0  0  0  0  0  0
  -17.6463  -30.6571   24.0545 C   0  0  0  0  0  0
  -25.9067  -34.9397   23.5059 C   0  0  0  0  0  0
  -16.5353  -29.9064   23.6327 C   0  0  0  0  0  0
  -16.7282  -28.6492   23.0328 C   0  0  0  0  0  0
  -26.4523  -31.6557   25.0722 C   0  0  0  0  0  0
  -25.3745  -31.3729   26.1445 C   0  0  0  0  0  0
  -27.0419  -30.2955   24.6306 C   0  0  0  0  0  0
  -27.6041  -32.4370   25.7473 C   0  0  0  0  0  0
  -27.5576  -37.1815   24.8449 C   0  0  0  0  0  0
  -21.4212  -29.3038   22.3633 N   0  0  0  0  0  0
  -26.4291  -37.3726   23.9380 N   0  0  0  0  0  0
  -24.6991  -31.0446   22.0972 N   0  0  0  0  0  0
  -23.4187  -28.8125   23.3019 O   0  0  0  0  0  0
  -28.3416  -26.3438   20.2150 O   0  0  0  0  0  0
  -26.5662  -34.8887   22.4640 O   0  0  0  0  0  0
  -23.5474  -32.1357   23.7249 O   0  0  0  0  0  0
  -31.2326  -17.1829   22.1871 C   0  0  0  0  0  0
  -29.8035  -18.6107   20.8119 C   0  0  0  0  0  0
  -31.6305  -18.2997   22.9268 C   0  0  0  0  0  0
  -30.2387  -19.8225   21.5198 C   0  0  0  0  0  0
  -31.1627  -19.6005   22.6012 C   0  0  0  0  0  0
  -30.3087  -17.2652   21.1335 C   0  0  0  0  0  0
  -29.0749  -21.8776   18.9179 C   0  0  0  0  0  0
  -30.0775  -21.1697   18.3671 C   0  0  0  0  0  0
  -27.8556  -22.3879   18.1645 C   0  0  0  0  0  0
  -28.0824  -23.7571   17.4963 C   0  0  0  0  0  0
  -28.8018  -24.7996   18.3738 C   0  0  0  0  0  0
  -29.0296  -23.7398   20.7071 C   0  0  0  0  0  0
  -28.2701  -24.8769   19.8203 C   0  0  1  0  0  0
  -32.5682  -18.0338   24.0967 C   0  0  0  0  0  0
  -31.6923  -20.7773   23.4410 C   0  0  0  0  0  0
  -29.9025  -21.4036   21.3064 C   0  0  0  0  0  0
  -29.8989  -15.9475   20.5722 N   0  0  0  0  0  0
  -28.9741  -22.2061   20.3782 N   0  3  1  0  0  0
  -31.4670  -12.5807   19.1634 H   0  0  0  0  0  0
  -30.3552  -11.5055   19.9630 H   0  0  0  0  0  0
  -29.6193  -13.4530   17.7036 H   0  0  0  0  0  0
  -29.7906  -11.7243   17.5164 H   0  0  0  0  0  0
  -27.9235  -11.2712   18.9547 H   0  0  0  0  0  0
  -27.3654  -12.4627   17.8081 H   0  0  0  0  0  0
  -27.6120  -14.2480   19.4302 H   0  0  0  0  0  0
  -28.7105  -12.2329   21.4448 H   0  0  0  0  0  0
  -28.4090  -13.9264   21.7491 H   0  0  0  0  0  0
  -25.2744   -9.5688   22.4738 H   0  0  0  0  0  0
  -24.0002   -7.4629   22.7449 H   0  0  0  0  0  0
  -21.0837   -8.8747   19.8918 H   0  0  0  0  0  0
  -22.3680  -10.9656   19.6153 H   0  0  0  0  0  0
  -21.1990   -7.6140   23.9697 H   0  0  0  0  0  0
  -21.1498   -6.0525   25.9067 H   0  0  0  0  0  0
  -22.0587   -2.7609   23.2857 H   0  0  0  0  0  0
  -22.4101  -11.9796   22.4847 H   0  0  0  0  0  0
  -21.1067  -13.1118   22.2759 H   0  0  0  0  0  0
  -24.6374  -15.8421   20.4935 H   0  0  0  0  0  0
  -26.2576  -15.6348   20.0766 H   0  0  0  0  0  0
  -26.7210  -32.5343   23.1049 H   0  0  0  0  0  0
  -24.9945  -33.9644   25.0266 H   0  0  0  0  0  0
  -22.7286  -31.2948   21.3947 H   0  0  0  0  0  0
  -23.3721  -35.9673   23.3290 H   0  0  0  0  0  0
  -24.3598  -36.8968   22.2071 H   0  0  0  0  0  0
  -23.7321  -37.6515   23.6715 H   0  0  0  0  0  0
  -26.1309  -31.5228   20.6306 H   0  0  0  0  0  0
  -26.8472  -30.7878   22.0344 H   0  0  0  0  0  0
  -28.1081  -28.8840   21.2442 H   0  0  0  0  0  0
  -25.9714  -25.9399   18.9053 H   0  0  0  0  0  0
  -23.9998  -27.3328   18.9378 H   0  0  0  0  0  0
  -23.7653  -30.5832   19.3989 H   0  0  0  0  0  0
  -22.7699  -29.2371   19.8537 H   0  0  0  0  0  0
  -25.1328  -36.1839   25.0805 H   0  0  0  0  0  0
  -20.9958  -28.3284   24.1368 H   0  0  0  0  0  0
  -20.5643  -26.2318   23.3625 H   0  0  0  0  0  0
  -21.6654  -26.7432   22.1209 H   0  0  0  0  0  0
  -19.6933  -25.6279   21.1237 H   0  0  0  0  0  0
  -19.6687  -27.3168   20.6710 H   0  0  0  0  0  0
  -17.4202  -26.6615   21.4025 H   0  0  0  0  0  0
  -18.0371  -26.0085   22.9036 H   0  0  0  0  0  0
  -19.7946  -30.7280   24.2193 H   0  0  0  0  0  0
  -17.5024  -31.6247   24.5153 H   0  0  0  0  0  0
  -15.5351  -30.2939   23.7699 H   0  0  0  0  0  0
  -15.8685  -28.0805   22.7043 H   0  0  0  0  0  0
  -24.5814  -30.7236   25.7720 H   0  0  0  0  0  0
  -24.9098  -32.2936   26.4982 H   0  0  0  0  0  0
  -25.8028  -30.8747   27.0150 H   0  0  0  0  0  0
  -26.3046  -29.6634   24.1349 H   0  0  0  0  0  0
  -27.4072  -29.7287   25.4885 H   0  0  0  0  0  0
  -27.8929  -30.4196   23.9598 H   0  0  0  0  0  0
  -27.2550  -33.3592   26.2127 H   0  0  0  0  0  0
  -28.3747  -32.7089   25.0243 H   0  0  0  0  0  0
  -28.0840  -31.8506   26.5321 H   0  0  0  0  0  0
  -28.2572  -38.0124   24.7431 H   0  0  0  0  0  0
  -28.1084  -36.2644   24.6318 H   0  0  0  0  0  0
  -27.2300  -37.1514   25.8855 H   0  0  0  0  0  0
  -20.9415  -29.8748   21.6813 H   0  0  0  0  0  0
  -26.0151  -38.2790   24.1347 H   0  0  0  0  0  0
  -31.6255  -16.2206   22.4833 H   0  0  0  0  0  0
  -29.0856  -18.7149   20.0116 H   0  0  0  0  0  0
  -30.0650  -20.9425   17.3119 H   0  0  0  0  0  0
  -30.9165  -20.7955   18.9338 H   0  0  0  0  0  0
  -26.9967  -22.4338   18.8336 H   0  0  0  0  0  0
  -27.5800  -21.6615   17.3977 H   0  0  0  0  0  0
  -27.1163  -24.1594   17.1857 H   0  0  0  0  0  0
  -28.6506  -23.6204   16.5742 H   0  0  0  0  0  0
  -28.7259  -25.7735   17.8902 H   0  0  0  0  0  0
  -29.8722  -24.5781   18.3912 H   0  0  0  0  0  0
  -28.6549  -23.8515   21.7250 H   0  0  0  0  0  0
  -30.0816  -24.0207   20.7602 H   0  0  0  0  0  0
  -27.2247  -24.5817   19.8405 H   0  0  0  0  0  0
  -32.1183  -18.3725   25.0304 H   0  0  0  0  0  0
  -33.5289  -18.5292   23.9533 H   0  0  0  0  0  0
  -32.7687  -16.9688   24.2244 H   0  0  0  0  0  0
  -30.8828  -21.3561   23.8844 H   0  0  0  0  0  0
  -32.3083  -21.4441   22.8358 H   0  0  0  0  0  0
  -32.3083  -20.4903   24.2921 H   0  0  0  0  0  0
  -30.8760  -21.8728   21.1600 H   0  0  0  0  0  0
  -29.5453  -21.7383   22.2763 H   0  0  0  0  0  0
  -28.9112  -15.8521   20.3925 H   0  0  0  0  0  0
  -28.0502  -21.9139   20.6637 H   0  0  0  0  0  0
  1 25  1  0  0  0
  1 30  2  0  0  0
  1 87  1  0  0  0
  2  3  1  0  0  0
  2 25  1  0  0  0
  2 89  1  0  0  0
  2 90  1  0  0  0
  3  4  1  0  0  0
  3 91  1  0  0  0
  3 92  1  0  0  0
  4  5  1  0  0  0
  4 93  1  0  0  0
  4 94  1  0  0  0
  5  6  1  0  0  0
  5 26  1  0  0  0
  5 95  1  0  0  0
  6 25  1  0  0  0
  6 96  1  0  0  0
  6 97  1  0  0  0
  7  8  2  0  0  0
  7 26  1  0  0  0
  7 29  1  0  0  0
  8  9  1  0  0  0
  8 22  1  0  0  0
  9 10  1  0  0  0
  9 27  2  0  0  0
 10 11  2  0  0  0
 10 15  1  0  0  0
 11 12  1  0  0  0
 11 98  1  0  0  0
 12 13  2  0  0  0
 12 99  1  0  0  0
 13 14  1  0  0  0
 13 31  1  0  0  0
 14 15  2  0  0  0
 14100  1  0  0  0
 15101  1  0  0  0
 16 17  2  0  0  0
 16 21  1  0  0  0
 16 31  1  0  0  0
 17 18  1  0  0  0
 17102  1  0  0  0
 18 19  2  0  0  0
 18103  1  0  0  0
 19 20  1  0  0  0
 19 24  1  0  0  0
 20 21  2  0  0  0
 20104  1  0  0  0
 21 23  1  0  0  0
 22 28  1  0  0  0
 22 32  2  0  0  0
 26 27  1  0  0  0
 28105  1  0  0  0
 28106  1  0  0  0
 29107  1  0  0  0
 29108  1  0  0  0
 33 34  1  0  0  0
 33 66  1  0  0  0
 33 70  2  0  0  0
 34 36  1  0  0  0
 34 59  1  0  0  0
 34109  1  0  0  0
 35 44  2  0  0  0
 35 45  1  0  0  0
 35 68  1  0  0  0
 36 56  1  0  0  0
 36110  1  0  0  0
 37 39  1  0  0  0
 37 47  1  0  0  0
 37 66  1  0  0  0
 37111  1  0  0  0
 38 43  2  0  0  0
 38 46  1  0  0  0
 38 47  1  0  0  0
 39 64  1  0  0  0
 39 67  2  0  0  0
 40 52  1  0  0  0
 40 53  2  0  0  0
 40 58  1  0  0  0
 41112  1  0  0  0
 41113  1  0  0  0
 41114  1  0  0  0
 41 48  1  0  0  0
 42 43  1  0  0  0
 42 66  1  0  0  0
 42115  1  0  0  0
 42116  1  0  0  0
 43 44  1  0  0  0
 44117  1  0  0  0
 45 46  2  0  0  0
 45118  1  0  0  0
 46119  1  0  0  0
 47120  1  0  0  0
 47121  1  0  0  0
 48 56  1  0  0  0
 48 65  1  0  0  0
 48122  1  0  0  0
 49 50  1  0  0  0
 49 53  1  0  0  0
 49 64  1  0  0  0
 49123  1  0  0  0
 50 51  1  0  0  0
 50124  1  0  0  0
 50125  1  0  0  0
 51 52  1  0  0  0
 51126  1  0  0  0
 51127  1  0  0  0
 52128  1  0  0  0
 52129  1  0  0  0
 53 54  1  0  0  0
 54 55  2  0  0  0
 54130  1  0  0  0
 55 57  1  0  0  0
 55131  1  0  0  0
 56 69  2  0  0  0
 57 58  2  0  0  0
 57132  1  0  0  0
 58133  1  0  0  0
 59 60  1  0  0  0
 59 61  1  0  0  0
 59 62  1  0  0  0
 60134  1  0  0  0
 60135  1  0  0  0
 60136  1  0  0  0
 61137  1  0  0  0
 61138  1  0  0  0
 61139  1  0  0  0
 62140  1  0  0  0
 62141  1  0  0  0
 62142  1  0  0  0
 63 65  1  0  0  0
 63143  1  0  0  0
 63144  1  0  0  0
 63145  1  0  0  0
 64146  1  0  0  0
 65147  1  0  0  0
 68 83  1  0  0  0
 71 73  2  0  0  0
 71 76  1  0  0  0
 71148  1  0  0  0
 72 74  1  0  0  0
 72 76  2  0  0  0
 72149  1  0  0  0
 73 75  1  0  0  0
 73 84  1  0  0  0
 74 75  2  0  0  0
 74 86  1  0  0  0
 75 85  1  0  0  0
 76 87  1  0  0  0
 77 78  2  0  0  0
 77 79  1  0  0  0
 77 88  1  0  0  0
 78150  1  0  0  0
 78151  1  0  0  0
 79 80  1  0  0  0
 79152  1  0  0  0
 79153  1  0  0  0
 80 81  1  0  0  0
 80154  1  0  0  0
 80155  1  0  0  0
 81 83  1  0  0  0
 81156  1  0  0  0
 81157  1  0  0  0
 82 83  1  0  0  0
 82 88  1  0  0  0
 82158  1  0  0  0
 82159  1  0  0  0
 83160  1  0  0  0
 84161  1  0  0  0
 84162  1  0  0  0
 84163  1  0  0  0
 85164  1  0  0  0
 85165  1  0  0  0
 85166  1  0  0  0
 86167  1  0  0  0
 86168  1  0  0  0
 86 88  1  0  0  0
 87169  1  0  0  0
 88170  1  0  0  0
M  CHG  1  88   1
M  ISO  4   1 100  68 101  83 101  87 100
M  END
> <chiral flag>
0

> <version>
0

> <s_m_source_file>
/data/baiqing/PycharmProjects/Reinvent-master-3.2/result/LINK_invent/BTK/process_docking_weight1_custom_product_contain_oxygen_bond_distance_aromatic_linkinvent_7_9_3/rearranged_h_0043.sdf

> <i_m_source_file_index>
90

> <r_mmod_Potential_Energy-OPLS-2005>
257.779602050781

> <r_mmod_Stretch_Energy-OPLS-2005>
161.607955932617

> <r_mmod_Bend_Energy-OPLS-2005>
259.626312255859

> <r_mmod_Torsional_Energy-OPLS-2005>
255.916290283203

> <r_mmod_Improper_Torsional_Energy-OPLS-2005>
7.00969648361206

> <r_mmod_Van_der_Waal_Energy-OPLS-2005>
162.723388671875

> <r_mmod_Electrostatic_Energy-OPLS-2005>
-263.254791259766

> <r_mmod_Solvation_Energy-OPLS-2005>
-425.9248046875

> <b_mmod_Minimization_Converged-OPLS-2005>
0

> <r_mmod_RMS_Derivative-OPLS-2005>
3.90123462677002

$$$$
90
                    3D
 Structure written by MMmdl.
173182  0  0  1  0            999 V2000
  -30.5769  -14.6826   20.5164 C   0  0  0  0  0  0
  -30.4501  -12.4270   19.4497 C   0  0  0  0  0  0
  -29.5103  -12.5178   18.2243 C   0  0  0  0  0  0
  -28.0337  -12.3451   18.6371 C   0  0  0  0  0  0
  -27.6524  -13.2140   19.8649 C   0  0  2  0  0  0
  -28.6977  -13.0543   20.9924 C   0  0  0  0  0  0
  -25.2469  -13.8116   20.5515 C   0  0  0  0  0  0
  -24.1790  -13.0389   20.9173 C   0  0  0  0  0  0
  -24.6391  -11.6881   20.8771 C   0  0  0  0  0  0
  -23.9063  -10.4268   21.0421 C   0  0  0  0  0  0
  -24.3610   -9.4185   21.9200 C   0  0  0  0  0  0
  -23.6281   -8.2223   22.0762 C   0  0  0  0  0  0
  -22.4265   -8.0264   21.3547 C   0  0  0  0  0  0
  -21.9904   -9.0244   20.4651 C   0  0  0  0  0  0
  -22.7235  -10.2118   20.3067 C   0  0  0  0  0  0
  -21.6848   -6.0725   22.5284 C   0  0  0  0  0  0
  -21.4006   -6.5632   23.8210 C   0  0  0  0  0  0
  -21.3657   -5.6788   24.9178 C   0  0  0  0  0  0
  -21.6040   -4.3050   24.7228 C   0  0  0  0  0  0
  -21.8824   -3.8140   23.4351 C   0  0  0  0  0  0
  -21.9188   -4.6958   22.3402 C   0  0  0  0  0  0
  -22.7823  -13.5193   21.1848 C   0  0  0  0  0  0
  -22.1661   -4.2139   21.0986 F   0  0  0  0  0  0
  -21.5626   -3.4535   25.7746 F   0  0  0  0  0  0
  -30.0092  -13.4331   20.4383 N   0  0  0  0  0  0
  -26.2962  -12.9327   20.3302 N   0  0  0  0  0  0
  -25.9324  -11.6490   20.5803 N   0  0  0  0  0  0
  -22.0469  -12.8202   22.0424 N   0  0  0  0  0  0
  -25.3948  -15.1790   20.3587 N   0  0  0  0  0  0
  -31.7274  -14.8879   20.1144 O   0  0  0  0  0  0
  -21.6629   -6.8866   21.4243 O   0  0  0  0  0  0
  -22.3508  -14.5494   20.6693 O   0  0  0  0  0  0
  -24.6259  -31.8580   23.1999 C   0  0  0  0  0  0
  -25.9115  -32.4774   23.8317 C   0  0  1  0  0  0
  -27.2226  -27.3008   20.1400 C   0  0  0  0  0  0
  -25.5938  -33.8567   24.2250 N   0  0  0  0  0  0
  -23.4206  -30.4782   21.5425 C   0  0  2  0  0  0
  -24.8686  -28.9206   20.1203 C   0  0  0  0  0  0
  -22.7478  -29.4607   22.4945 C   0  0  0  0  0  0
  -18.0281  -28.1377   22.8466 C   0  0  0  0  0  0
  -24.1486  -36.7284   23.2639 C   0  0  0  0  0  0
  -25.9595  -30.7825   21.3737 C   0  0  0  0  0  0
  -26.0352  -29.4015   20.7305 C   0  0  0  0  0  0
  -27.2177  -28.6025   20.7310 C   0  0  0  0  0  0
  -26.0394  -26.8703   19.5051 C   0  0  0  0  0  0
  -24.8715  -27.6586   19.5014 C   0  0  0  0  0  0
  -23.6392  -29.8077   20.1602 C   0  0  0  0  0  0
  -25.4119  -36.3074   24.0327 C   0  0  1  0  0  0
  -20.5882  -28.3685   23.1279 C   0  0  2  0  0  0
  -20.6770  -26.9405   22.5416 C   0  0  0  0  0  0
  -19.5754  -26.6379   21.5204 C   0  0  0  0  0  0
  -18.1926  -26.7914   22.1607 C   0  0  0  0  0  0
  -19.1535  -28.8846   23.2858 C   0  0  0  0  0  0
  -18.9458  -30.1438   23.8884 C   0  0  0  0  0  0
  -17.6466  -30.6585   24.0554 C   0  0  0  0  0  0
  -25.9058  -34.9445   23.5089 C   0  0  0  0  0  0
  -16.5353  -29.9088   23.6329 C   0  0  0  0  0  0
  -16.7271  -28.6505   23.0345 C   0  0  0  0  0  0
  -26.4492  -31.6587   25.0697 C   0  0  0  0  0  0
  -25.3722  -31.3741   26.1420 C   0  0  0  0  0  0
  -27.0323  -30.3004   24.6156 C   0  0  0  0  0  0
  -27.6040  -32.4320   25.7482 C   0  0  0  0  0  0
  -27.5589  -37.1791   24.8462 C   0  0  0  0  0  0
  -21.4193  -29.3038   22.3688 N   0  0  0  0  0  0
  -26.4284  -37.3782   23.9425 N   0  0  0  0  0  0
  -24.6869  -31.0577   22.0957 N   0  0  0  0  0  0
  -23.4186  -28.8155   23.3043 O   0  0  0  0  0  0
  -28.3535  -26.4797   20.0607 O   0  0  0  0  0  0
  -26.5630  -34.8929   22.4660 O   0  0  0  0  0  0
  -23.5426  -32.1375   23.7335 O   0  0  0  0  0  0
  -30.4199  -19.4452   20.3117 C   0  0  0  0  0  0
  -30.5822  -18.0213   20.2893 C   0  0  0  0  0  0
  -29.3146  -20.1063   20.9303 C   0  0  0  0  0  0
  -28.3463  -19.2240   21.5147 C   0  0  0  0  0  0
  -28.5082  -17.7902   21.4882 C   0  0  0  0  0  0
  -29.6406  -17.1467   20.8930 C   0  0  0  0  0  0
  -26.5913  -23.6205   20.5325 C   0  0  0  0  0  0
  -27.9115  -23.8858   20.4898 C   0  0  0  0  0  0
  -25.9188  -22.3210   20.1398 C   0  0  0  0  0  0
  -25.4792  -22.3361   18.6756 C   0  0  0  0  0  0
  -26.6000  -21.9376   17.6978 C   0  0  0  0  0  0
  -27.8793  -22.8051   17.7372 C   0  0  0  0  0  0
  -28.9927  -22.3109   18.7030 C   0  0  0  0  0  0
  -27.1192  -19.7840   22.2386 C   0  0  0  0  0  0
  -27.4542  -16.9231   22.1798 C   0  0  0  0  0  0
  -29.3225  -21.6951   21.1564 C   0  0  0  0  0  0
  -28.5091  -25.2801   20.9182 C   0  0  0  0  0  0
  -29.7265  -15.6738   20.9504 N   0  0  0  0  0  0
  -28.9369  -22.7659   20.1257 N   0  3  2  0  0  0
  -31.4842  -12.5856   19.1399 H   0  0  0  0  0  0
  -30.4183  -11.4282   19.8853 H   0  0  0  0  0  0
  -29.7802  -11.7616   17.4850 H   0  0  0  0  0  0
  -29.6396  -13.4838   17.7328 H   0  0  0  0  0  0
  -27.8777  -11.2911   18.8705 H   0  0  0  0  0  0
  -27.3765  -12.5693   17.7957 H   0  0  0  0  0  0
  -27.6717  -14.2506   19.5294 H   0  0  0  0  0  0
  -28.7236  -12.0215   21.3445 H   0  0  0  0  0  0
  -28.4306  -13.6504   21.8654 H   0  0  0  0  0  0
  -25.2750   -9.5654   22.4781 H   0  0  0  0  0  0
  -23.9982   -7.4609   22.7483 H   0  0  0  0  0  0
  -21.0839   -8.8770   19.8953 H   0  0  0  0  0  0
  -22.3706  -10.9662   19.6175 H   0  0  0  0  0  0
  -21.2001   -7.6138   23.9715 H   0  0  0  0  0  0
  -21.1470   -6.0518   25.9082 H   0  0  0  0  0  0
  -22.0600   -2.7602   23.2862 H   0  0  0  0  0  0
  -22.4080  -11.9866   22.4824 H   0  0  0  0  0  0
  -21.1084  -13.1238   22.2624 H   0  0  0  0  0  0
  -24.6004  -15.8051   20.4298 H   0  0  0  0  0  0
  -26.2096  -15.6198   19.9530 H   0  0  0  0  0  0
  -26.7187  -32.5458   23.1069 H   0  0  0  0  0  0
  -25.0092  -33.9680   25.0397 H   0  0  0  0  0  0
  -22.7130  -31.2971   21.3972 H   0  0  0  0  0  0
  -23.3765  -35.9599   23.3280 H   0  0  0  0  0  0
  -24.3589  -36.8932   22.2057 H   0  0  0  0  0  0
  -23.7203  -37.6468   23.6673 H   0  0  0  0  0  0
  -26.0866  -31.5381   20.5961 H   0  0  0  0  0  0
  -26.8401  -30.8387   22.0016 H   0  0  0  0  0  0
  -28.1212  -28.9739   21.1954 H   0  0  0  0  0  0
  -26.0186  -25.9149   18.9997 H   0  0  0  0  0  0
  -23.9792  -27.2896   19.0141 H   0  0  0  0  0  0
  -23.7646  -30.5792   19.3987 H   0  0  0  0  0  0
  -22.7578  -29.2392   19.8601 H   0  0  0  0  0  0
  -25.1280  -36.1923   25.0817 H   0  0  0  0  0  0
  -20.9941  -28.3258   24.1412 H   0  0  0  0  0  0
  -20.5671  -26.2279   23.3612 H   0  0  0  0  0  0
  -21.6642  -26.7434   22.1220 H   0  0  0  0  0  0
  -19.6921  -25.6289   21.1237 H   0  0  0  0  0  0
  -19.6713  -27.3182   20.6729 H   0  0  0  0  0  0
  -17.4201  -26.6656   21.4004 H   0  0  0  0  0  0
  -18.0328  -26.0043   22.8992 H   0  0  0  0  0  0
  -19.7947  -30.7223   24.2279 H   0  0  0  0  0  0
  -17.5044  -31.6272   24.5144 H   0  0  0  0  0  0
  -15.5359  -30.2994   23.7669 H   0  0  0  0  0  0
  -15.8666  -28.0834   22.7074 H   0  0  0  0  0  0
  -24.5915  -30.7057   25.7765 H   0  0  0  0  0  0
  -24.8894  -32.2917   26.4793 H   0  0  0  0  0  0
  -25.8044  -30.8967   27.0224 H   0  0  0  0  0  0
  -26.2880  -29.6766   24.1188 H   0  0  0  0  0  0
  -27.4017  -29.7243   25.4650 H   0  0  0  0  0  0
  -27.8753  -30.4263   23.9358 H   0  0  0  0  0  0
  -27.2641  -33.3634   26.2011 H   0  0  0  0  0  0
  -28.3888  -32.6855   25.0349 H   0  0  0  0  0  0
  -28.0657  -31.8474   26.5444 H   0  0  0  0  0  0
  -28.2567  -38.0123   24.7566 H   0  0  0  0  0  0
  -28.1106  -36.2658   24.6198 H   0  0  0  0  0  0
  -27.2311  -37.1343   25.8859 H   0  0  0  0  0  0
  -20.9374  -29.8748   21.6888 H   0  0  0  0  0  0
  -26.0159  -38.2848   24.1478 H   0  0  0  0  0  0
  -31.2052  -20.0456   19.8745 H   0  0  0  0  0  0
  -31.4638  -17.6095   19.8187 H   0  0  0  0  0  0
  -25.9147  -24.4102   20.8327 H   0  0  0  0  0  0
  -25.0595  -22.1752   20.7975 H   0  0  0  0  0  0
  -26.5725  -21.4686   20.2942 H   0  0  0  0  0  0
  -25.0610  -23.3094   18.4129 H   0  0  0  0  0  0
  -24.6624  -21.6234   18.5541 H   0  0  0  0  0  0
  -26.1797  -21.9947   16.6928 H   0  0  0  0  0  0
  -26.8585  -20.8860   17.8315 H   0  0  0  0  0  0
  -27.6478  -23.8636   17.8596 H   0  0  0  0  0  0
  -28.3106  -22.7396   16.7375 H   0  0  0  0  0  0
  -29.9472  -22.6822   18.3274 H   0  0  0  0  0  0
  -29.0666  -21.2276   18.6251 H   0  0  0  0  0  0
  -27.0989  -20.8626   22.3522 H   0  0  0  0  0  0
  -27.0440  -19.3749   23.2468 H   0  0  0  0  0  0
  -26.2128  -19.5128   21.6958 H   0  0  0  0  0  0
  -26.4428  -17.2909   22.0113 H   0  0  0  0  0  0
  -27.6327  -16.9020   23.2546 H   0  0  0  0  0  0
  -27.4420  -15.8934   21.8351 H   0  0  0  0  0  0
  -30.3706  -21.9144   21.3571 H   0  0  0  0  0  0
  -28.8595  -21.9523   22.1068 H   0  0  0  0  0  0
  -29.5800  -25.1477   21.0711 H   0  0  0  0  0  0
  -28.1091  -25.5194   21.9046 H   0  0  0  0  0  0
  -28.8846  -15.2597   21.3158 H   0  0  0  0  0  0
  -29.8100  -23.2718   20.1462 H   0  0  0  0  0  0
  1 25  1  0  0  0
  1 30  2  0  0  0
  1 88  1  0  0  0
  2  3  1  0  0  0
  2 25  1  0  0  0
  2 90  1  0  0  0
  2 91  1  0  0  0
  3  4  1  0  0  0
  3 92  1  0  0  0
  3 93  1  0  0  0
  4  5  1  0  0  0
  4 94  1  0  0  0
  4 95  1  0  0  0
  5  6  1  0  0  0
  5 26  1  0  0  0
  5 96  1  0  0  0
  6 25  1  0  0  0
  6 97  1  0  0  0
  6 98  1  0  0  0
  7  8  2  0  0  0
  7 26  1  0  0  0
  7 29  1  0  0  0
  8  9  1  0  0  0
  8 22  1  0  0  0
  9 10  1  0  0  0
  9 27  2  0  0  0
 10 11  2  0  0  0
 10 15  1  0  0  0
 11 12  1  0  0  0
 11 99  1  0  0  0
 12 13  2  0  0  0
 12100  1  0  0  0
 13 14  1  0  0  0
 13 31  1  0  0  0
 14 15  2  0  0  0
 14101  1  0  0  0
 15102  1  0  0  0
 16 17  2  0  0  0
 16 21  1  0  0  0
 16 31  1  0  0  0
 17 18  1  0  0  0
 17103  1  0  0  0
 18 19  2  0  0  0
 18104  1  0  0  0
 19 20  1  0  0  0
 19 24  1  0  0  0
 20 21  2  0  0  0
 20105  1  0  0  0
 21 23  1  0  0  0
 22 28  1  0  0  0
 22 32  2  0  0  0
 26 27  1  0  0  0
 28106  1  0  0  0
 28107  1  0  0  0
 29108  1  0  0  0
 29109  1  0  0  0
 33 34  1  0  0  0
 33 66  1  0  0  0
 33 70  2  0  0  0
 34 36  1  0  0  0
 34 59  1  0  0  0
 34110  1  0  0  0
 35 44  2  0  0  0
 35 45  1  0  0  0
 35 68  1  0  0  0
 36 56  1  0  0  0
 36111  1  0  0  0
 37 39  1  0  0  0
 37 47  1  0  0  0
 37 66  1  0  0  0
 37112  1  0  0  0
 38 43  2  0  0  0
 38 46  1  0  0  0
 38 47  1  0  0  0
 39 64  1  0  0  0
 39 67  2  0  0  0
 40 52  1  0  0  0
 40 53  2  0  0  0
 40 58  1  0  0  0
 41113  1  0  0  0
 41114  1  0  0  0
 41115  1  0  0  0
 41 48  1  0  0  0
 42 43  1  0  0  0
 42 66  1  0  0  0
 42116  1  0  0  0
 42117  1  0  0  0
 43 44  1  0  0  0
 44118  1  0  0  0
 45 46  2  0  0  0
 45119  1  0  0  0
 46120  1  0  0  0
 47121  1  0  0  0
 47122  1  0  0  0
 48 56  1  0  0  0
 48 65  1  0  0  0
 48123  1  0  0  0
 49 50  1  0  0  0
 49 53  1  0  0  0
 49 64  1  0  0  0
 49124  1  0  0  0
 50 51  1  0  0  0
 50125  1  0  0  0
 50126  1  0  0  0
 51 52  1  0  0  0
 51127  1  0  0  0
 51128  1  0  0  0
 52129  1  0  0  0
 52130  1  0  0  0
 53 54  1  0  0  0
 54 55  2  0  0  0
 54131  1  0  0  0
 55 57  1  0  0  0
 55132  1  0  0  0
 56 69  2  0  0  0
 57 58  2  0  0  0
 57133  1  0  0  0
 58134  1  0  0  0
 59 60  1  0  0  0
 59 61  1  0  0  0
 59 62  1  0  0  0
 60135  1  0  0  0
 60136  1  0  0  0
 60137  1  0  0  0
 61138  1  0  0  0
 61139  1  0  0  0
 61140  1  0  0  0
 62141  1  0  0  0
 62142  1  0  0  0
 62143  1  0  0  0
 63 65  1  0  0  0
 63144  1  0  0  0
 63145  1  0  0  0
 63146  1  0  0  0
 64147  1  0  0  0
 65148  1  0  0  0
 68 87  1  0  0  0
 71 72  2  0  0  0
 71 73  1  0  0  0
 71149  1  0  0  0
 72 76  1  0  0  0
 72150  1  0  0  0
 73 74  2  0  0  0
 73 86  1  0  0  0
 74 75  1  0  0  0
 74 84  1  0  0  0
 75 76  2  0  0  0
 75 85  1  0  0  0
 76 88  1  0  0  0
 77 78  2  0  0  0
 77 79  1  0  0  0
 77151  1  0  0  0
 78 87  1  0  0  0
 78 89  1  0  0  0
 79 80  1  0  0  0
 79152  1  0  0  0
 79153  1  0  0  0
 80 81  1  0  0  0
 80154  1  0  0  0
 80155  1  0  0  0
 81 82  1  0  0  0
 81156  1  0  0  0
 81157  1  0  0  0
 82 83  1  0  0  0
 82158  1  0  0  0
 82159  1  0  0  0
 83 89  1  0  0  0
 83160  1  0  0  0
 83161  1  0  0  0
 84162  1  0  0  0
 84163  1  0  0  0
 84164  1  0  0  0
 85165  1  0  0  0
 85166  1  0  0  0
 85167  1  0  0  0
 86168  1  0  0  0
 86169  1  0  0  0
 86 89  1  0  0  0
 87170  1  0  0  0
 87171  1  0  0  0
 88172  1  0  0  0
 89173  1  0  0  0
M  CHG  1  89   1
M  ISO  4   1 100  68 101  87 101  88 100
M  END
> <chiral flag>
0

> <version>
0

> <s_m_source_file>
/data/baiqing/PycharmProjects/Reinvent-master-3.2/result/LINK_invent/BTK/process_docking_weight1_custom_product_contain_oxygen_bond_distance_aromatic_linkinvent_7_9_3/rearranged_h_0043.sdf

> <i_m_source_file_index>
91

> <r_mmod_Potential_Energy-OPLS-2005>
71.3499603271484

> <r_mmod_Stretch_Energy-OPLS-2005>
105.479644775391

> <r_mmod_Bend_Energy-OPLS-2005>
222.096618652344

> <r_mmod_Torsional_Energy-OPLS-2005>
268.56689453125

> <r_mmod_Improper_Torsional_Energy-OPLS-2005>
5.39432334899902

> <r_mmod_Van_der_Waal_Energy-OPLS-2005>
143.342163085938

> <r_mmod_Electrostatic_Energy-OPLS-2005>
-304.358734130859

> <r_mmod_Solvation_Energy-OPLS-2005>
-426.032409667969

> <b_mmod_Minimization_Converged-OPLS-2005>
0

> <r_mmod_RMS_Derivative-OPLS-2005>
2.23287582397461

$$$$
91
                    3D
 Structure written by MMmdl.
161170  0  0  1  0            999 V2000
  -30.6130  -14.6647   20.4679 C   0  0  0  0  0  0
  -30.4396  -12.4018   19.4471 C   0  0  0  0  0  0
  -29.5059  -12.5000   18.2196 C   0  0  0  0  0  0
  -28.0300  -12.3321   18.6360 C   0  0  0  0  0  0
  -27.6466  -13.2137   19.8539 C   0  0  2  0  0  0
  -28.6973  -13.0889   20.9809 C   0  0  0  0  0  0
  -25.2507  -13.8103   20.5740 C   0  0  0  0  0  0
  -24.1791  -13.0373   20.9228 C   0  0  0  0  0  0
  -24.6377  -11.6865   20.8717 C   0  0  0  0  0  0
  -23.9060  -10.4260   21.0380 C   0  0  0  0  0  0
  -24.3619   -9.4192   21.9164 C   0  0  0  0  0  0
  -23.6296   -8.2232   22.0744 C   0  0  0  0  0  0
  -22.4274   -8.0265   21.3536 C   0  0  0  0  0  0
  -21.9906   -9.0235   20.4637 C   0  0  0  0  0  0
  -22.7236  -10.2113   20.3034 C   0  0  0  0  0  0
  -21.6848   -6.0738   22.5282 C   0  0  0  0  0  0
  -21.4010   -6.5640   23.8219 C   0  0  0  0  0  0
  -21.3652   -5.6786   24.9176 C   0  0  0  0  0  0
  -21.6042   -4.3048   24.7222 C   0  0  0  0  0  0
  -21.8823   -3.8148   23.4338 C   0  0  0  0  0  0
  -21.9205   -4.6969   22.3397 C   0  0  0  0  0  0
  -22.7821  -13.5185   21.1883 C   0  0  0  0  0  0
  -22.1671   -4.2162   21.0970 F   0  0  0  0  0  0
  -21.5629   -3.4521   25.7729 F   0  0  0  0  0  0
  -30.0093  -13.4337   20.4090 N   0  0  0  0  0  0
  -26.2945  -12.9324   20.3283 N   0  0  0  0  0  0
  -25.9301  -11.6475   20.5716 N   0  0  0  0  0  0
  -22.0460  -12.8174   22.0435 N   0  0  0  0  0  0
  -25.4047  -15.1823   20.4253 N   0  0  0  0  0  0
  -31.7952  -14.8178   20.1493 O   0  0  0  0  0  0
  -21.6631   -6.8875   21.4241 O   0  0  0  0  0  0
  -22.3511  -14.5495   20.6734 O   0  0  0  0  0  0
  -24.6214  -31.8614   23.2011 C   0  0  0  0  0  0
  -25.9066  -32.4784   23.8338 C   0  0  1  0  0  0
  -27.2172  -27.3148   20.1303 C   0  0  0  0  0  0
  -25.5907  -33.8583   24.2278 N   0  0  0  0  0  0
  -23.4158  -30.4845   21.5426 C   0  0  2  0  0  0
  -24.8635  -28.9357   20.1152 C   0  0  0  0  0  0
  -22.7456  -29.4628   22.4909 C   0  0  0  0  0  0
  -18.0301  -28.1390   22.8517 C   0  0  0  0  0  0
  -24.1486  -36.7281   23.2640 C   0  0  0  0  0  0
  -25.9560  -30.7879   21.3761 C   0  0  0  0  0  0
  -26.0286  -29.4106   20.7298 C   0  0  0  0  0  0
  -27.2088  -28.6094   20.7359 C   0  0  0  0  0  0
  -26.0435  -26.9094   19.4600 C   0  0  0  0  0  0
  -24.8698  -27.6881   19.4740 C   0  0  0  0  0  0
  -23.6327  -29.8172   20.1582 C   0  0  0  0  0  0
  -25.4118  -36.3078   24.0332 C   0  0  1  0  0  0
  -20.5901  -28.3683   23.1292 C   0  0  2  0  0  0
  -20.6794  -26.9412   22.5409 C   0  0  0  0  0  0
  -19.5763  -26.6396   21.5214 C   0  0  0  0  0  0
  -18.1942  -26.7940   22.1626 C   0  0  0  0  0  0
  -19.1558  -28.8854   23.2904 C   0  0  0  0  0  0
  -18.9475  -30.1469   23.8899 C   0  0  0  0  0  0
  -17.6476  -30.6597   24.0586 C   0  0  0  0  0  0
  -25.9060  -34.9452   23.5105 C   0  0  0  0  0  0
  -16.5368  -29.9097   23.6342 C   0  0  0  0  0  0
  -16.7291  -28.6512   23.0368 C   0  0  0  0  0  0
  -26.4467  -31.6588   25.0693 C   0  0  0  0  0  0
  -25.3710  -31.3735   26.1429 C   0  0  0  0  0  0
  -27.0300  -30.3013   24.6109 C   0  0  0  0  0  0
  -27.6019  -32.4324   25.7475 C   0  0  0  0  0  0
  -27.5589  -37.1806   24.8474 C   0  0  0  0  0  0
  -21.4178  -29.3034   22.3669 N   0  0  0  0  0  0
  -26.4295  -37.3777   23.9418 N   0  0  0  0  0  0
  -24.6825  -31.0635   22.0957 N   0  0  0  0  0  0
  -23.4194  -28.8181   23.2981 O   0  0  0  0  0  0
  -28.3425  -26.4797   20.1074 O   0  0  0  0  0  0
  -26.5621  -34.8922   22.4668 O   0  0  0  0  0  0
  -23.5379  -32.1400   23.7352 O   0  0  0  0  0  0
  -30.9543  -17.9700   20.9655 C   0  0  0  0  0  0
  -28.8454  -19.2871   19.6815 C   0  0  0  0  0  0
  -30.9680  -19.3976   20.8103 C   0  0  0  0  0  0
  -29.9059  -20.0975   20.1530 C   0  0  0  0  0  0
  -29.8943  -17.1652   20.4704 C   0  0  0  0  0  0
  -28.8440  -17.8712   19.8204 C   0  0  0  0  0  0
  -29.1547  -24.0249   19.9595 C   0  0  0  0  0  0
  -27.0836  -23.1097   21.8091 C   0  0  0  0  0  0
  -26.9643  -24.4890   21.1113 C   0  0  0  0  0  0
  -28.4671  -22.4235   21.6835 C   0  0  0  0  0  0
  -28.3279  -25.1254   20.7407 C   0  0  2  0  0  0
  -32.1760  -20.1563   21.3348 C   0  0  0  0  0  0
  -29.9660  -21.6302   19.7593 C   0  0  0  0  0  0
  -29.1546  -22.7212   20.4208 N   0  0  0  0  0  0
  -29.7679  -15.7197   20.6845 N   0  0  0  0  0  0
  -29.7828  -24.3575   18.9498 O   0  0  0  0  0  0
  -27.5398  -17.0024   19.1039 Cl  0  0  0  0  0  0
  -31.4801  -12.5310   19.1433 H   0  0  0  0  0  0
  -30.3787  -11.4114   19.9006 H   0  0  0  0  0  0
  -29.7733  -11.7427   17.4817 H   0  0  0  0  0  0
  -29.6408  -13.4653   17.7281 H   0  0  0  0  0  0
  -27.8784  -11.2812   18.8845 H   0  0  0  0  0  0
  -27.3708  -12.5416   17.7927 H   0  0  0  0  0  0
  -27.6526  -14.2413   19.4958 H   0  0  0  0  0  0
  -28.7152  -12.0715   21.3732 H   0  0  0  0  0  0
  -28.4456  -13.7313   21.8264 H   0  0  0  0  0  0
  -25.2766   -9.5691   22.4732 H   0  0  0  0  0  0
  -24.0009   -7.4632   22.7465 H   0  0  0  0  0  0
  -21.0840   -8.8755   19.8944 H   0  0  0  0  0  0
  -22.3688  -10.9651   19.6140 H   0  0  0  0  0  0
  -21.1983   -7.6145   23.9730 H   0  0  0  0  0  0
  -21.1467   -6.0503   25.9084 H   0  0  0  0  0  0
  -22.0606   -2.7611   23.2824 H   0  0  0  0  0  0
  -22.4078  -11.9819   22.4792 H   0  0  0  0  0  0
  -21.1080  -13.1196   22.2655 H   0  0  0  0  0  0
  -24.6171  -15.8105   20.5321 H   0  0  0  0  0  0
  -26.2149  -15.6390   20.0209 H   0  0  0  0  0  0
  -26.7128  -32.5468   23.1092 H   0  0  0  0  0  0
  -25.0085  -33.9732   25.0440 H   0  0  0  0  0  0
  -22.7080  -31.3040   21.3994 H   0  0  0  0  0  0
  -23.3754  -35.9606   23.3303 H   0  0  0  0  0  0
  -24.3579  -36.8879   22.2049 H   0  0  0  0  0  0
  -23.7229  -37.6486   23.6648 H   0  0  0  0  0  0
  -26.0873  -31.5437   20.6001 H   0  0  0  0  0  0
  -26.8374  -30.8411   22.0034 H   0  0  0  0  0  0
  -28.1033  -28.9699   21.2262 H   0  0  0  0  0  0
  -26.0243  -25.9814   18.9106 H   0  0  0  0  0  0
  -23.9813  -27.3298   18.9710 H   0  0  0  0  0  0
  -23.7543  -30.5907   19.3978 H   0  0  0  0  0  0
  -22.7526  -29.2453   19.8579 H   0  0  0  0  0  0
  -25.1299  -36.1926   25.0821 H   0  0  0  0  0  0
  -21.0029  -28.3248   24.1395 H   0  0  0  0  0  0
  -20.5701  -26.2282   23.3595 H   0  0  0  0  0  0
  -21.6666  -26.7453   22.1193 H   0  0  0  0  0  0
  -19.6905  -25.6301   21.1242 H   0  0  0  0  0  0
  -19.6703  -27.3216   20.6752 H   0  0  0  0  0  0
  -17.4225  -26.6732   21.4013 H   0  0  0  0  0  0
  -18.0339  -26.0070   22.9008 H   0  0  0  0  0  0
  -19.7947  -30.7322   24.2225 H   0  0  0  0  0  0
  -17.5025  -31.6269   24.5208 H   0  0  0  0  0  0
  -15.5369  -30.3010   23.7646 H   0  0  0  0  0  0
  -15.8703  -28.0839   22.7058 H   0  0  0  0  0  0
  -24.5889  -30.7067   25.7789 H   0  0  0  0  0  0
  -24.8897  -32.2904   26.4831 H   0  0  0  0  0  0
  -25.8049  -30.8953   27.0217 H   0  0  0  0  0  0
  -26.2854  -29.6788   24.1125 H   0  0  0  0  0  0
  -27.4023  -29.7229   25.4575 H   0  0  0  0  0  0
  -27.8715  -30.4325   23.9304 H   0  0  0  0  0  0
  -27.2616  -33.3629   26.2036 H   0  0  0  0  0  0
  -28.3849  -32.6869   25.0322 H   0  0  0  0  0  0
  -28.0655  -31.8451   26.5411 H   0  0  0  0  0  0
  -28.2612  -38.0105   24.7541 H   0  0  0  0  0  0
  -28.1086  -36.2638   24.6283 H   0  0  0  0  0  0
  -27.2317  -37.1436   25.8881 H   0  0  0  0  0  0
  -20.9327  -29.8736   21.6894 H   0  0  0  0  0  0
  -26.0166  -38.2846   24.1426 H   0  0  0  0  0  0
  -31.7746  -17.4851   21.4767 H   0  0  0  0  0  0
  -28.0289  -19.7516   19.1471 H   0  0  0  0  0  0
  -26.3196  -22.4473   21.3967 H   0  0  0  0  0  0
  -26.8404  -23.2086   22.8683 H   0  0  0  0  0  0
  -26.3801  -25.1645   21.7385 H   0  0  0  0  0  0
  -26.3856  -24.3288   20.2041 H   0  0  0  0  0  0
  -28.3493  -21.3512   21.8368 H   0  0  0  0  0  0
  -29.1148  -22.7705   22.4911 H   0  0  0  0  0  0
  -28.8663  -25.2736   21.6791 H   0  0  0  0  0  0
  -32.6950  -19.5867   22.1070 H   0  0  0  0  0  0
  -31.8920  -21.1124   21.7748 H   0  0  0  0  0  0
  -32.8820  -20.3466   20.5257 H   0  0  0  0  0  0
  -29.6942  -21.6588   18.7027 H   0  0  0  0  0  0
  -31.0066  -21.9526   19.7661 H   0  0  0  0  0  0
  -28.8131  -15.4161   20.7958 H   0  0  0  0  0  0
  1 25  1  0  0  0
  1 30  2  0  0  0
  1 85  1  0  0  0
  2  3  1  0  0  0
  2 25  1  0  0  0
  2 88  1  0  0  0
  2 89  1  0  0  0
  3  4  1  0  0  0
  3 90  1  0  0  0
  3 91  1  0  0  0
  4  5  1  0  0  0
  4 92  1  0  0  0
  4 93  1  0  0  0
  5  6  1  0  0  0
  5 26  1  0  0  0
  5 94  1  0  0  0
  6 25  1  0  0  0
  6 95  1  0  0  0
  6 96  1  0  0  0
  7  8  2  0  0  0
  7 26  1  0  0  0
  7 29  1  0  0  0
  8  9  1  0  0  0
  8 22  1  0  0  0
  9 10  1  0  0  0
  9 27  2  0  0  0
 10 11  2  0  0  0
 10 15  1  0  0  0
 11 12  1  0  0  0
 11 97  1  0  0  0
 12 13  2  0  0  0
 12 98  1  0  0  0
 13 14  1  0  0  0
 13 31  1  0  0  0
 14 15  2  0  0  0
 14 99  1  0  0  0
 15100  1  0  0  0
 16 17  2  0  0  0
 16 21  1  0  0  0
 16 31  1  0  0  0
 17 18  1  0  0  0
 17101  1  0  0  0
 18 19  2  0  0  0
 18102  1  0  0  0
 19 20  1  0  0  0
 19 24  1  0  0  0
 20 21  2  0  0  0
 20103  1  0  0  0
 21 23  1  0  0  0
 22 28  1  0  0  0
 22 32  2  0  0  0
 26 27  1  0  0  0
 28104  1  0  0  0
 28105  1  0  0  0
 29106  1  0  0  0
 29107  1  0  0  0
 33 34  1  0  0  0
 33 66  1  0  0  0
 33 70  2  0  0  0
 34 36  1  0  0  0
 34 59  1  0  0  0
 34108  1  0  0  0
 35 44  2  0  0  0
 35 45  1  0  0  0
 35 68  1  0  0  0
 36 56  1  0  0  0
 36109  1  0  0  0
 37 39  1  0  0  0
 37 47  1  0  0  0
 37 66  1  0  0  0
 37110  1  0  0  0
 38 43  2  0  0  0
 38 46  1  0  0  0
 38 47  1  0  0  0
 39 64  1  0  0  0
 39 67  2  0  0  0
 40 52  1  0  0  0
 40 53  2  0  0  0
 40 58  1  0  0  0
 41111  1  0  0  0
 41112  1  0  0  0
 41113  1  0  0  0
 41 48  1  0  0  0
 42 43  1  0  0  0
 42 66  1  0  0  0
 42114  1  0  0  0
 42115  1  0  0  0
 43 44  1  0  0  0
 44116  1  0  0  0
 45 46  2  0  0  0
 45117  1  0  0  0
 46118  1  0  0  0
 47119  1  0  0  0
 47120  1  0  0  0
 48 56  1  0  0  0
 48 65  1  0  0  0
 48121  1  0  0  0
 49 50  1  0  0  0
 49 53  1  0  0  0
 49 64  1  0  0  0
 49122  1  0  0  0
 50 51  1  0  0  0
 50123  1  0  0  0
 50124  1  0  0  0
 51 52  1  0  0  0
 51125  1  0  0  0
 51126  1  0  0  0
 52127  1  0  0  0
 52128  1  0  0  0
 53 54  1  0  0  0
 54 55  2  0  0  0
 54129  1  0  0  0
 55 57  1  0  0  0
 55130  1  0  0  0
 56 69  2  0  0  0
 57 58  2  0  0  0
 57131  1  0  0  0
 58132  1  0  0  0
 59 60  1  0  0  0
 59 61  1  0  0  0
 59 62  1  0  0  0
 60133  1  0  0  0
 60134  1  0  0  0
 60135  1  0  0  0
 61136  1  0  0  0
 61137  1  0  0  0
 61138  1  0  0  0
 62139  1  0  0  0
 62140  1  0  0  0
 62141  1  0  0  0
 63 65  1  0  0  0
 63142  1  0  0  0
 63143  1  0  0  0
 63144  1  0  0  0
 64145  1  0  0  0
 65146  1  0  0  0
 68 81  1  0  0  0
 71 73  2  0  0  0
 71 75  1  0  0  0
 71147  1  0  0  0
 72 74  2  0  0  0
 72 76  1  0  0  0
 72148  1  0  0  0
 73 74  1  0  0  0
 73 82  1  0  0  0
 74 83  1  0  0  0
 75 76  2  0  0  0
 75 85  1  0  0  0
 76 87  1  0  0  0
 77 81  1  0  0  0
 77 84  1  0  0  0
 77 86  2  0  0  0
 78 79  1  0  0  0
 78 80  1  0  0  0
 78149  1  0  0  0
 78150  1  0  0  0
 79 81  1  0  0  0
 79151  1  0  0  0
 79152  1  0  0  0
 80 84  1  0  0  0
 80153  1  0  0  0
 80154  1  0  0  0
 81155  1  0  0  0
 82156  1  0  0  0
 82157  1  0  0  0
 82158  1  0  0  0
 83 84  1  0  0  0
 83159  1  0  0  0
 83160  1  0  0  0
 85161  1  0  0  0
M  ISO  4   1 100  68 101  81 101  85 100
M  END
> <chiral flag>
0

> <version>
0

> <s_m_source_file>
/data/baiqing/PycharmProjects/Reinvent-master-3.2/result/LINK_invent/BTK/process_docking_weight1_custom_product_contain_oxygen_bond_distance_aromatic_linkinvent_7_9_3/rearranged_h_0043.sdf

> <i_m_source_file_index>
92

> <r_mmod_Potential_Energy-OPLS-2005>
149.2333984375

> <r_mmod_Stretch_Energy-OPLS-2005>
87.0115585327148

> <r_mmod_Bend_Energy-OPLS-2005>
153.317169189453

> <r_mmod_Torsional_Energy-OPLS-2005>
289.293395996094

> <r_mmod_Improper_Torsional_Energy-OPLS-2005>
7.53814888000488

> <r_mmod_Van_der_Waal_Energy-OPLS-2005>
151.09375

> <r_mmod_Electrostatic_Energy-OPLS-2005>
-370.557159423828

> <r_mmod_Solvation_Energy-OPLS-2005>
-221.434555053711

> <b_mmod_Minimization_Converged-OPLS-2005>
0

> <r_mmod_RMS_Derivative-OPLS-2005>
2.55570578575134

$$$$
92
                    3D
 Structure written by MMmdl.
161170  0  0  1  0            999 V2000
  -30.6019  -14.6506   20.5036 C   0  0  0  0  0  0
  -30.4447  -12.3994   19.4537 C   0  0  0  0  0  0
  -29.5116  -12.5095   18.2262 C   0  0  0  0  0  0
  -28.0345  -12.3424   18.6368 C   0  0  0  0  0  0
  -27.6546  -13.2120   19.8643 C   0  0  2  0  0  0
  -28.6980  -13.0594   20.9942 C   0  0  0  0  0  0
  -25.2572  -13.8158   20.5672 C   0  0  0  0  0  0
  -24.1836  -13.0435   20.9198 C   0  0  0  0  0  0
  -24.6395  -11.6904   20.8742 C   0  0  0  0  0  0
  -23.9059  -10.4291   21.0403 C   0  0  0  0  0  0
  -24.3611   -9.4206   21.9180 C   0  0  0  0  0  0
  -23.6284   -8.2245   22.0753 C   0  0  0  0  0  0
  -22.4265   -8.0284   21.3546 C   0  0  0  0  0  0
  -21.9896   -9.0257   20.4649 C   0  0  0  0  0  0
  -22.7228  -10.2135   20.3057 C   0  0  0  0  0  0
  -21.6854   -6.0732   22.5277 C   0  0  0  0  0  0
  -21.4019   -6.5637   23.8211 C   0  0  0  0  0  0
  -21.3657   -5.6789   24.9172 C   0  0  0  0  0  0
  -21.6042   -4.3051   24.7222 C   0  0  0  0  0  0
  -21.8820   -3.8144   23.4343 C   0  0  0  0  0  0
  -21.9193   -4.6960   22.3398 C   0  0  0  0  0  0
  -22.7858  -13.5238   21.1850 C   0  0  0  0  0  0
  -22.1661   -4.2147   21.0974 F   0  0  0  0  0  0
  -21.5622   -3.4536   25.7735 F   0  0  0  0  0  0
  -30.0136  -13.4137   20.4366 N   0  0  0  0  0  0
  -26.2992  -12.9329   20.3302 N   0  0  0  0  0  0
  -25.9323  -11.6490   20.5757 N   0  0  0  0  0  0
  -22.0489  -12.8245   22.0407 N   0  0  0  0  0  0
  -25.4289  -15.1875   20.4054 N   0  0  0  0  0  0
  -31.7598  -14.8310   20.1129 O   0  0  0  0  0  0
  -21.6635   -6.8879   21.4242 O   0  0  0  0  0  0
  -22.3549  -14.5540   20.6684 O   0  0  0  0  0  0
  -24.6244  -31.8605   23.2024 C   0  0  0  0  0  0
  -25.9097  -32.4779   23.8351 C   0  0  1  0  0  0
  -27.2273  -27.3298   20.1265 C   0  0  0  0  0  0
  -25.5917  -33.8580   24.2280 N   0  0  0  0  0  0
  -23.4188  -30.4819   21.5444 C   0  0  2  0  0  0
  -24.8679  -28.9358   20.1126 C   0  0  0  0  0  0
  -22.7469  -29.4619   22.4940 C   0  0  0  0  0  0
  -18.0286  -28.1388   22.8482 C   0  0  0  0  0  0
  -24.1489  -36.7296   23.2638 C   0  0  0  0  0  0
  -25.9581  -30.7949   21.3721 C   0  0  0  0  0  0
  -26.0352  -29.4220   20.7167 C   0  0  0  0  0  0
  -27.2213  -28.6311   20.7119 C   0  0  0  0  0  0
  -26.0432  -26.8928   19.4958 C   0  0  0  0  0  0
  -24.8729  -27.6757   19.4926 C   0  0  0  0  0  0
  -23.6342  -29.8138   20.1604 C   0  0  0  0  0  0
  -25.4111  -36.3082   24.0332 C   0  0  1  0  0  0
  -20.5883  -28.3688   23.1288 C   0  0  2  0  0  0
  -20.6775  -26.9412   22.5416 C   0  0  0  0  0  0
  -19.5753  -26.6384   21.5215 C   0  0  0  0  0  0
  -18.1931  -26.7932   22.1620 C   0  0  0  0  0  0
  -19.1537  -28.8855   23.2879 C   0  0  0  0  0  0
  -18.9461  -30.1457   23.8898 C   0  0  0  0  0  0
  -17.6461  -30.6586   24.0568 C   0  0  0  0  0  0
  -25.9047  -34.9452   23.5106 C   0  0  0  0  0  0
  -16.5354  -29.9087   23.6330 C   0  0  0  0  0  0
  -16.7273  -28.6506   23.0347 C   0  0  0  0  0  0
  -26.4489  -31.6585   25.0717 C   0  0  0  0  0  0
  -25.3727  -31.3741   26.1453 C   0  0  0  0  0  0
  -27.0320  -30.3001   24.6168 C   0  0  0  0  0  0
  -27.6054  -32.4320   25.7478 C   0  0  0  0  0  0
  -27.5586  -37.1793   24.8455 C   0  0  0  0  0  0
  -21.4184  -29.3036   22.3677 N   0  0  0  0  0  0
  -26.4288  -37.3776   23.9414 N   0  0  0  0  0  0
  -24.6856  -31.0621   22.0968 N   0  0  0  0  0  0
  -23.4194  -28.8167   23.3026 O   0  0  0  0  0  0
  -28.3399  -26.4810   20.1434 O   0  0  0  0  0  0
  -26.5617  -34.8920   22.4673 O   0  0  0  0  0  0
  -23.5412  -32.1401   23.7356 O   0  0  0  0  0  0
  -30.8811  -17.9120   20.2677 C   0  0  0  0  0  0
  -28.5444  -17.8358   20.8111 C   0  0  0  0  0  0
  -30.7710  -19.3183   20.0112 C   0  0  0  0  0  0
  -29.5212  -20.0118   20.1068 C   0  0  0  0  0  0
  -29.7633  -17.1222   20.6482 C   0  0  0  0  0  0
  -28.4194  -19.2298   20.5389 C   0  0  0  0  0  0
  -28.6633  -23.9132   19.8235 C   0  0  0  0  0  0
  -28.5465  -23.6536   22.7102 C   0  0  0  0  0  0
  -28.7568  -25.0516   22.1100 C   0  0  0  0  0  0
  -29.1931  -22.5474   21.8493 C   0  0  0  0  0  0
  -28.1449  -25.1207   20.7051 C   0  0  1  0  0  0
  -32.0274  -20.0617   19.5906 C   0  0  0  0  0  0
  -29.3091  -21.4821   19.5546 C   0  0  0  0  0  0
  -28.9741  -22.6899   20.3999 N   0  0  0  0  0  0
  -29.7708  -15.6734   20.8862 N   0  0  0  0  0  0
  -28.7162  -24.0755   18.5993 O   0  0  0  0  0  0
  -27.2010  -19.8120   20.6497 F   0  0  0  0  0  0
  -31.4842  -12.5378   19.1506 H   0  0  0  0  0  0
  -30.3915  -11.4020   19.8919 H   0  0  0  0  0  0
  -29.7788  -11.7586   17.4815 H   0  0  0  0  0  0
  -29.6504  -13.4791   17.7447 H   0  0  0  0  0  0
  -27.8743  -11.2888   18.8689 H   0  0  0  0  0  0
  -27.3807  -12.5710   17.7947 H   0  0  0  0  0  0
  -27.6744  -14.2475   19.5248 H   0  0  0  0  0  0
  -28.7129  -12.0337   21.3646 H   0  0  0  0  0  0
  -28.4384  -13.6791   21.8542 H   0  0  0  0  0  0
  -25.2758   -9.5678   22.4755 H   0  0  0  0  0  0
  -23.9992   -7.4633   22.7469 H   0  0  0  0  0  0
  -21.0824   -8.8775   19.8958 H   0  0  0  0  0  0
  -22.3682  -10.9674   19.6169 H   0  0  0  0  0  0
  -21.2020   -7.6147   23.9711 H   0  0  0  0  0  0
  -21.1475   -6.0521   25.9073 H   0  0  0  0  0  0
  -22.0602   -2.7605   23.2841 H   0  0  0  0  0  0
  -22.4097  -11.9916   22.4821 H   0  0  0  0  0  0
  -21.1112  -13.1289   22.2604 H   0  0  0  0  0  0
  -24.6536  -15.8355   20.4964 H   0  0  0  0  0  0
  -26.2553  -15.6141   20.0084 H   0  0  0  0  0  0
  -26.7165  -32.5459   23.1104 H   0  0  0  0  0  0
  -25.0056  -33.9723   25.0419 H   0  0  0  0  0  0
  -22.7116  -31.3013   21.3999 H   0  0  0  0  0  0
  -23.3753  -35.9624   23.3283 H   0  0  0  0  0  0
  -24.3587  -36.8931   22.2055 H   0  0  0  0  0  0
  -23.7237  -37.6492   23.6670 H   0  0  0  0  0  0
  -26.0864  -31.5584   20.6035 H   0  0  0  0  0  0
  -26.8391  -30.8457   22.0003 H   0  0  0  0  0  0
  -28.1189  -28.9990   21.1891 H   0  0  0  0  0  0
  -26.0179  -25.9272   19.0106 H   0  0  0  0  0  0
  -23.9796  -27.2983   19.0138 H   0  0  0  0  0  0
  -23.7514  -30.5890   19.4020 H   0  0  0  0  0  0
  -22.7551  -29.2404   19.8599 H   0  0  0  0  0  0
  -25.1286  -36.1934   25.0823 H   0  0  0  0  0  0
  -20.9974  -28.3272   24.1410 H   0  0  0  0  0  0
  -20.5675  -26.2301   23.3614 H   0  0  0  0  0  0
  -21.6648  -26.7443   22.1216 H   0  0  0  0  0  0
  -19.6917  -25.6297   21.1240 H   0  0  0  0  0  0
  -19.6693  -27.3196   20.6748 H   0  0  0  0  0  0
  -17.4202  -26.6681   21.4021 H   0  0  0  0  0  0
  -18.0325  -26.0075   22.9014 H   0  0  0  0  0  0
  -19.7937  -30.7272   24.2266 H   0  0  0  0  0  0
  -17.5017  -31.6265   24.5173 H   0  0  0  0  0  0
  -15.5356  -30.2991   23.7654 H   0  0  0  0  0  0
  -15.8672  -28.0827   22.7061 H   0  0  0  0  0  0
  -24.5893  -30.7092   25.7798 H   0  0  0  0  0  0
  -24.8932  -32.2917   26.4873 H   0  0  0  0  0  0
  -25.8056  -30.8929   27.0230 H   0  0  0  0  0  0
  -26.2886  -29.6759   24.1192 H   0  0  0  0  0  0
  -27.4010  -29.7251   25.4671 H   0  0  0  0  0  0
  -27.8761  -30.4274   23.9386 H   0  0  0  0  0  0
  -27.2663  -33.3613   26.2067 H   0  0  0  0  0  0
  -28.3854  -32.6891   25.0299 H   0  0  0  0  0  0
  -28.0733  -31.8441   26.5384 H   0  0  0  0  0  0
  -28.2585  -38.0110   24.7530 H   0  0  0  0  0  0
  -28.1100  -36.2644   24.6233 H   0  0  0  0  0  0
  -27.2312  -37.1388   25.8859 H   0  0  0  0  0  0
  -20.9364  -29.8753   21.6880 H   0  0  0  0  0  0
  -26.0170  -38.2845   24.1437 H   0  0  0  0  0  0
  -31.8439  -17.4337   20.1510 H   0  0  0  0  0  0
  -27.6553  -17.3045   21.1168 H   0  0  0  0  0  0
  -27.4765  -23.4602   22.8033 H   0  0  0  0  0  0
  -28.9481  -23.6151   23.7238 H   0  0  0  0  0  0
  -29.8210  -25.2885   22.0679 H   0  0  0  0  0  0
  -28.2944  -25.8024   22.7514 H   0  0  0  0  0  0
  -28.8266  -21.5805   22.1936 H   0  0  0  0  0  0
  -30.2709  -22.5444   22.0187 H   0  0  0  0  0  0
  -27.0789  -24.9274   20.8282 H   0  0  0  0  0  0
  -32.9253  -19.4827   19.8086 H   0  0  0  0  0  0
  -32.1130  -21.0088   20.1249 H   0  0  0  0  0  0
  -32.0133  -20.2648   18.5195 H   0  0  0  0  0  0
  -28.4925  -21.3867   18.8369 H   0  0  0  0  0  0
  -30.1642  -21.7558   18.9379 H   0  0  0  0  0  0
  -28.8932  -15.3137   21.2298 H   0  0  0  0  0  0
  1 25  1  0  0  0
  1 30  2  0  0  0
  1 85  1  0  0  0
  2  3  1  0  0  0
  2 25  1  0  0  0
  2 88  1  0  0  0
  2 89  1  0  0  0
  3  4  1  0  0  0
  3 90  1  0  0  0
  3 91  1  0  0  0
  4  5  1  0  0  0
  4 92  1  0  0  0
  4 93  1  0  0  0
  5  6  1  0  0  0
  5 26  1  0  0  0
  5 94  1  0  0  0
  6 25  1  0  0  0
  6 95  1  0  0  0
  6 96  1  0  0  0
  7  8  2  0  0  0
  7 26  1  0  0  0
  7 29  1  0  0  0
  8  9  1  0  0  0
  8 22  1  0  0  0
  9 10  1  0  0  0
  9 27  2  0  0  0
 10 11  2  0  0  0
 10 15  1  0  0  0
 11 12  1  0  0  0
 11 97  1  0  0  0
 12 13  2  0  0  0
 12 98  1  0  0  0
 13 14  1  0  0  0
 13 31  1  0  0  0
 14 15  2  0  0  0
 14 99  1  0  0  0
 15100  1  0  0  0
 16 17  2  0  0  0
 16 21  1  0  0  0
 16 31  1  0  0  0
 17 18  1  0  0  0
 17101  1  0  0  0
 18 19  2  0  0  0
 18102  1  0  0  0
 19 20  1  0  0  0
 19 24  1  0  0  0
 20 21  2  0  0  0
 20103  1  0  0  0
 21 23  1  0  0  0
 22 28  1  0  0  0
 22 32  2  0  0  0
 26 27  1  0  0  0
 28104  1  0  0  0
 28105  1  0  0  0
 29106  1  0  0  0
 29107  1  0  0  0
 33 34  1  0  0  0
 33 66  1  0  0  0
 33 70  2  0  0  0
 34 36  1  0  0  0
 34 59  1  0  0  0
 34108  1  0  0  0
 35 44  2  0  0  0
 35 45  1  0  0  0
 35 68  1  0  0  0
 36 56  1  0  0  0
 36109  1  0  0  0
 37 39  1  0  0  0
 37 47  1  0  0  0
 37 66  1  0  0  0
 37110  1  0  0  0
 38 43  2  0  0  0
 38 46  1  0  0  0
 38 47  1  0  0  0
 39 64  1  0  0  0
 39 67  2  0  0  0
 40 52  1  0  0  0
 40 53  2  0  0  0
 40 58  1  0  0  0
 41111  1  0  0  0
 41112  1  0  0  0
 41113  1  0  0  0
 41 48  1  0  0  0
 42 43  1  0  0  0
 42 66  1  0  0  0
 42114  1  0  0  0
 42115  1  0  0  0
 43 44  1  0  0  0
 44116  1  0  0  0
 45 46  2  0  0  0
 45117  1  0  0  0
 46118  1  0  0  0
 47119  1  0  0  0
 47120  1  0  0  0
 48 56  1  0  0  0
 48 65  1  0  0  0
 48121  1  0  0  0
 49 50  1  0  0  0
 49 53  1  0  0  0
 49 64  1  0  0  0
 49122  1  0  0  0
 50 51  1  0  0  0
 50123  1  0  0  0
 50124  1  0  0  0
 51 52  1  0  0  0
 51125  1  0  0  0
 51126  1  0  0  0
 52127  1  0  0  0
 52128  1  0  0  0
 53 54  1  0  0  0
 54 55  2  0  0  0
 54129  1  0  0  0
 55 57  1  0  0  0
 55130  1  0  0  0
 56 69  2  0  0  0
 57 58  2  0  0  0
 57131  1  0  0  0
 58132  1  0  0  0
 59 60  1  0  0  0
 59 61  1  0  0  0
 59 62  1  0  0  0
 60133  1  0  0  0
 60134  1  0  0  0
 60135  1  0  0  0
 61136  1  0  0  0
 61137  1  0  0  0
 61138  1  0  0  0
 62139  1  0  0  0
 62140  1  0  0  0
 62141  1  0  0  0
 63 65  1  0  0  0
 63142  1  0  0  0
 63143  1  0  0  0
 63144  1  0  0  0
 64145  1  0  0  0
 65146  1  0  0  0
 68 81  1  0  0  0
 71 73  2  0  0  0
 71 75  1  0  0  0
 71147  1  0  0  0
 72 75  2  0  0  0
 72 76  1  0  0  0
 72148  1  0  0  0
 73 74  1  0  0  0
 73 82  1  0  0  0
 74 76  2  0  0  0
 74 83  1  0  0  0
 75 85  1  0  0  0
 76 87  1  0  0  0
 77 81  1  0  0  0
 77 84  1  0  0  0
 77 86  2  0  0  0
 78 79  1  0  0  0
 78 80  1  0  0  0
 78149  1  0  0  0
 78150  1  0  0  0
 79 81  1  0  0  0
 79151  1  0  0  0
 79152  1  0  0  0
 80 84  1  0  0  0
 80153  1  0  0  0
 80154  1  0  0  0
 81155  1  0  0  0
 82156  1  0  0  0
 82157  1  0  0  0
 82158  1  0  0  0
 83 84  1  0  0  0
 83159  1  0  0  0
 83160  1  0  0  0
 85161  1  0  0  0
M  ISO  4   1 100  68 101  81 101  85 100
M  END
> <chiral flag>
0

> <version>
0

> <s_m_source_file>
/data/baiqing/PycharmProjects/Reinvent-master-3.2/result/LINK_invent/BTK/process_docking_weight1_custom_product_contain_oxygen_bond_distance_aromatic_linkinvent_7_9_3/rearranged_h_0043.sdf

> <i_m_source_file_index>
93

> <r_mmod_Potential_Energy-OPLS-2005>
154.654235839844

> <r_mmod_Stretch_Energy-OPLS-2005>
85.7294464111328

> <r_mmod_Bend_Energy-OPLS-2005>
144.452331542969

> <r_mmod_Torsional_Energy-OPLS-2005>
260.925170898438

> <r_mmod_Improper_Torsional_Energy-OPLS-2005>
6.0554141998291

> <r_mmod_Van_der_Waal_Energy-OPLS-2005>
146.769195556641

> <r_mmod_Electrostatic_Energy-OPLS-2005>
-317.460357666016

> <r_mmod_Solvation_Energy-OPLS-2005>
-220.160736083984

> <b_mmod_Minimization_Converged-OPLS-2005>
0

> <r_mmod_RMS_Derivative-OPLS-2005>
0.843225181102753

$$$$
93
                    3D
 Structure written by MMmdl.
162170  0  0  1  0            999 V2000
  -30.6219  -14.5509   20.5320 C   0  0  0  0  0  0
  -30.4414  -12.3415   19.4264 C   0  0  0  0  0  0
  -29.5035  -12.4948   18.2082 C   0  0  0  0  0  0
  -28.0216  -12.3478   18.6184 C   0  0  0  0  0  0
  -27.6573  -13.1964   19.8655 C   0  0  2  0  0  0
  -28.7016  -12.9900   20.9849 C   0  0  0  0  0  0
  -25.2592  -13.8144   20.5678 C   0  0  0  0  0  0
  -24.1831  -13.0442   20.9196 C   0  0  0  0  0  0
  -24.6373  -11.6905   20.8760 C   0  0  0  0  0  0
  -23.9042  -10.4296   21.0426 C   0  0  0  0  0  0
  -24.3598   -9.4214   21.9196 C   0  0  0  0  0  0
  -23.6282   -8.2244   22.0755 C   0  0  0  0  0  0
  -22.4262   -8.0284   21.3555 C   0  0  0  0  0  0
  -21.9903   -9.0256   20.4650 C   0  0  0  0  0  0
  -22.7225  -10.2139   20.3066 C   0  0  0  0  0  0
  -21.6846   -6.0738   22.5274 C   0  0  0  0  0  0
  -21.4006   -6.5641   23.8212 C   0  0  0  0  0  0
  -21.3663   -5.6794   24.9177 C   0  0  0  0  0  0
  -21.6046   -4.3053   24.7224 C   0  0  0  0  0  0
  -21.8821   -3.8148   23.4343 C   0  0  0  0  0  0
  -21.9194   -4.6968   22.3400 C   0  0  0  0  0  0
  -22.7859  -13.5256   21.1873 C   0  0  0  0  0  0
  -22.1664   -4.2154   21.0977 F   0  0  0  0  0  0
  -21.5636   -3.4538   25.7739 F   0  0  0  0  0  0
  -30.0209  -13.3322   20.4263 N   0  0  0  0  0  0
  -26.2993  -12.9273   20.3313 N   0  0  0  0  0  0
  -25.9286  -11.6454   20.5758 N   0  0  0  0  0  0
  -22.0489  -12.8244   22.0410 N   0  0  0  0  0  0
  -25.4367  -15.1858   20.4078 N   0  0  0  0  0  0
  -31.7812  -14.7612   20.1612 O   0  0  0  0  0  0
  -21.6639   -6.8875   21.4235 O   0  0  0  0  0  0
  -22.3560  -14.5581   20.6739 O   0  0  0  0  0  0
  -24.6179  -31.8641   23.2061 C   0  0  0  0  0  0
  -25.9047  -32.4811   23.8373 C   0  0  1  0  0  0
  -27.2309  -27.3981   20.1082 C   0  0  0  0  0  0
  -25.5897  -33.8608   24.2314 N   0  0  0  0  0  0
  -23.4094  -30.4858   21.5488 C   0  0  2  0  0  0
  -24.8553  -28.9422   20.1170 C   0  0  0  0  0  0
  -22.7438  -29.4630   22.4993 C   0  0  0  0  0  0
  -18.0284  -28.1366   22.8497 C   0  0  0  0  0  0
  -24.1497  -36.7278   23.2646 C   0  0  0  0  0  0
  -25.9393  -30.8209   21.3597 C   0  0  0  0  0  0
  -26.0162  -29.4502   20.7117 C   0  0  0  0  0  0
  -27.2116  -28.6871   20.6985 C   0  0  0  0  0  0
  -26.0516  -26.9064   19.5134 C   0  0  0  0  0  0
  -24.8671  -27.6715   19.5137 C   0  0  0  0  0  0
  -23.6191  -29.8138   20.1651 C   0  0  0  0  0  0
  -25.4114  -36.3088   24.0352 C   0  0  1  0  0  0
  -20.5877  -28.3638   23.1333 C   0  0  2  0  0  0
  -20.6768  -26.9375   22.5418 C   0  0  0  0  0  0
  -19.5740  -26.6362   21.5220 C   0  0  0  0  0  0
  -18.1914  -26.7918   22.1625 C   0  0  0  0  0  0
  -19.1531  -28.8813   23.2918 C   0  0  0  0  0  0
  -18.9460  -30.1435   23.8905 C   0  0  0  0  0  0
  -17.6465  -30.6566   24.0567 C   0  0  0  0  0  0
  -25.9028  -34.9465   23.5119 C   0  0  0  0  0  0
  -16.5353  -29.9075   23.6325 C   0  0  0  0  0  0
  -16.7272  -28.6497   23.0340 C   0  0  0  0  0  0
  -26.4452  -31.6613   25.0713 C   0  0  0  0  0  0
  -25.3734  -31.3718   26.1466 C   0  0  0  0  0  0
  -27.0253  -30.3064   24.6048 C   0  0  0  0  0  0
  -27.6027  -32.4320   25.7480 C   0  0  0  0  0  0
  -27.5571  -37.1799   24.8479 C   0  0  0  0  0  0
  -21.4159  -29.3021   22.3752 N   0  0  0  0  0  0
  -26.4292  -37.3776   23.9418 N   0  0  0  0  0  0
  -24.6748  -31.0719   22.0974 N   0  0  0  0  0  0
  -23.4197  -28.8160   23.3035 O   0  0  0  0  0  0
  -28.3851  -26.6383   20.0747 O   0  0  0  0  0  0
  -26.5585  -34.8924   22.4678 O   0  0  0  0  0  0
  -23.5354  -32.1412   23.7423 O   0  0  0  0  0  0
  -30.1072  -18.3262   23.3017 C   0  0  0  0  0  0
  -29.9292  -18.0244   20.5266 C   0  0  0  0  0  0
  -30.0924  -19.4758   22.4838 C   0  0  0  0  0  0
  -30.0417  -17.0297   22.7557 C   0  0  0  0  0  0
  -29.9952  -19.3461   21.0718 C   0  0  0  0  0  0
  -29.9762  -16.8621   21.3525 C   0  0  0  0  0  0
  -30.1849  -20.8274   23.1713 C   0  0  0  0  0  0
  -30.0046  -15.8317   23.6945 C   0  0  0  0  0  0
  -30.0848  -20.5852   20.1358 C   0  0  0  0  0  0
  -28.4844  -24.0712   19.9294 C   0  0  0  0  0  0
  -28.9491  -22.8169   20.7529 C   0  0  0  0  0  0
  -28.3625  -25.3773   20.7870 C   0  0  0  0  0  0
  -29.7517  -15.5478   20.8280 N   0  0  0  0  0  0
  -28.8983  -21.4968   20.0354 N   0  3  0  0  0  0
  -31.4822  -12.4742   19.1268 H   0  0  0  0  0  0
  -30.3747  -11.3353   19.8431 H   0  0  0  0  0  0
  -29.7565  -11.7562   17.4465 H   0  0  0  0  0  0
  -29.6555  -13.4716   17.7463 H   0  0  0  0  0  0
  -27.8370  -11.2929   18.8235 H   0  0  0  0  0  0
  -27.3710  -12.6126   17.7832 H   0  0  0  0  0  0
  -27.6931  -14.2388   19.5509 H   0  0  0  0  0  0
  -28.6971  -11.9517   21.3210 H   0  0  0  0  0  0
  -28.4560  -13.5836   21.8663 H   0  0  0  0  0  0
  -25.2747   -9.5700   22.4767 H   0  0  0  0  0  0
  -24.0010   -7.4633   22.7458 H   0  0  0  0  0  0
  -21.0845   -8.8771   19.8936 H   0  0  0  0  0  0
  -22.3692  -10.9681   19.6170 H   0  0  0  0  0  0
  -21.1979   -7.6150   23.9721 H   0  0  0  0  0  0
  -21.1489   -6.0522   25.9086 H   0  0  0  0  0  0
  -22.0594   -2.7611   23.2843 H   0  0  0  0  0  0
  -22.4073  -11.9862   22.4747 H   0  0  0  0  0  0
  -21.1107  -13.1270   22.2621 H   0  0  0  0  0  0
  -24.6769  -15.8476   20.5197 H   0  0  0  0  0  0
  -26.2831  -15.6179   20.0587 H   0  0  0  0  0  0
  -26.7125  -32.5494   23.1139 H   0  0  0  0  0  0
  -25.0118  -33.9790   25.0497 H   0  0  0  0  0  0
  -22.7004  -31.3050   21.4048 H   0  0  0  0  0  0
  -23.3749  -35.9616   23.3321 H   0  0  0  0  0  0
  -24.3605  -36.8859   22.2063 H   0  0  0  0  0  0
  -23.7268  -37.6498   23.6637 H   0  0  0  0  0  0
  -26.0546  -31.5825   20.5876 H   0  0  0  0  0  0
  -26.8277  -30.8773   21.9766 H   0  0  0  0  0  0
  -28.1112  -29.0761   21.1532 H   0  0  0  0  0  0
  -26.0491  -25.9310   19.0484 H   0  0  0  0  0  0
  -23.9748  -27.2758   19.0492 H   0  0  0  0  0  0
  -23.7324  -30.5874   19.4050 H   0  0  0  0  0  0
  -22.7423  -29.2360   19.8688 H   0  0  0  0  0  0
  -25.1298  -36.1926   25.0852 H   0  0  0  0  0  0
  -20.9970  -28.3155   24.1457 H   0  0  0  0  0  0
  -20.5659  -26.2229   23.3592 H   0  0  0  0  0  0
  -21.6631  -26.7407   22.1212 H   0  0  0  0  0  0
  -19.6909  -25.6285   21.1211 H   0  0  0  0  0  0
  -19.6678  -27.3207   20.6778 H   0  0  0  0  0  0
  -17.4198  -26.6678   21.4014 H   0  0  0  0  0  0
  -18.0302  -26.0068   22.9017 H   0  0  0  0  0  0
  -19.7939  -30.7248   24.2246 H   0  0  0  0  0  0
  -17.5023  -31.6251   24.5158 H   0  0  0  0  0  0
  -15.5354  -30.2972   23.7654 H   0  0  0  0  0  0
  -15.8676  -28.0823   22.7028 H   0  0  0  0  0  0
  -24.5938  -30.7017   25.7830 H   0  0  0  0  0  0
  -24.8876  -32.2859   26.4879 H   0  0  0  0  0  0
  -25.8105  -30.8953   27.0244 H   0  0  0  0  0  0
  -26.2775  -29.6880   24.1068 H   0  0  0  0  0  0
  -27.4030  -29.7244   25.4462 H   0  0  0  0  0  0
  -27.8599  -30.4407   23.9168 H   0  0  0  0  0  0
  -27.2650  -33.3632   26.2036 H   0  0  0  0  0  0
  -28.3837  -32.6847   25.0301 H   0  0  0  0  0  0
  -28.0670  -31.8448   26.5418 H   0  0  0  0  0  0
  -28.2592  -38.0089   24.7477 H   0  0  0  0  0  0
  -28.1058  -36.2606   24.6331 H   0  0  0  0  0  0
  -27.2287  -37.1473   25.8888 H   0  0  0  0  0  0
  -20.9306  -29.8754   21.6996 H   0  0  0  0  0  0
  -26.0160  -38.2841   24.1411 H   0  0  0  0  0  0
  -30.1654  -18.4418   24.3755 H   0  0  0  0  0  0
  -29.8437  -17.8996   19.4548 H   0  0  0  0  0  0
  -29.2008  -21.2909   23.2271 H   0  0  0  0  0  0
  -30.8724  -21.5003   22.6610 H   0  0  0  0  0  0
  -30.5505  -20.7228   24.1928 H   0  0  0  0  0  0
  -30.0193  -16.1359   24.7404 H   0  0  0  0  0  0
  -30.8642  -15.1835   23.5246 H   0  0  0  0  0  0
  -29.0961  -15.2498   23.5370 H   0  0  0  0  0  0
  -30.2580  -20.2101   19.1260 H   0  0  0  0  0  0
  -30.9878  -21.1515   20.3658 H   0  0  0  0  0  0
  -27.5268  -23.8707   19.4478 H   0  0  0  0  0  0
  -29.2001  -24.2448   19.1251 H   0  0  0  0  0  0
  -28.3242  -22.7324   21.6421 H   0  0  0  0  0  0
  -29.9587  -23.0139   21.1137 H   0  0  0  0  0  0
  -29.2169  -25.4204   21.4628 H   0  0  0  0  0  0
  -27.4894  -25.3095   21.4404 H   0  0  0  0  0  0
  -28.8162  -15.2017   20.9742 H   0  0  0  0  0  0
  -28.0695  -20.9867   20.2935 H   0  0  0  0  0  0
  -28.8131  -21.7042   19.0544 H   0  0  0  0  0  0
  1 25  1  0  0  0
  1 30  2  0  0  0
  1 83  1  0  0  0
  2  3  1  0  0  0
  2 25  1  0  0  0
  2 85  1  0  0  0
  2 86  1  0  0  0
  3  4  1  0  0  0
  3 87  1  0  0  0
  3 88  1  0  0  0
  4  5  1  0  0  0
  4 89  1  0  0  0
  4 90  1  0  0  0
  5  6  1  0  0  0
  5 26  1  0  0  0
  5 91  1  0  0  0
  6 25  1  0  0  0
  6 92  1  0  0  0
  6 93  1  0  0  0
  7  8  2  0  0  0
  7 26  1  0  0  0
  7 29  1  0  0  0
  8  9  1  0  0  0
  8 22  1  0  0  0
  9 10  1  0  0  0
  9 27  2  0  0  0
 10 11  2  0  0  0
 10 15  1  0  0  0
 11 12  1  0  0  0
 11 94  1  0  0  0
 12 13  2  0  0  0
 12 95  1  0  0  0
 13 14  1  0  0  0
 13 31  1  0  0  0
 14 15  2  0  0  0
 14 96  1  0  0  0
 15 97  1  0  0  0
 16 17  2  0  0  0
 16 21  1  0  0  0
 16 31  1  0  0  0
 17 18  1  0  0  0
 17 98  1  0  0  0
 18 19  2  0  0  0
 18 99  1  0  0  0
 19 20  1  0  0  0
 19 24  1  0  0  0
 20 21  2  0  0  0
 20100  1  0  0  0
 21 23  1  0  0  0
 22 28  1  0  0  0
 22 32  2  0  0  0
 26 27  1  0  0  0
 28101  1  0  0  0
 28102  1  0  0  0
 29103  1  0  0  0
 29104  1  0  0  0
 33 34  1  0  0  0
 33 66  1  0  0  0
 33 70  2  0  0  0
 34 36  1  0  0  0
 34 59  1  0  0  0
 34105  1  0  0  0
 35 44  2  0  0  0
 35 45  1  0  0  0
 35 68  1  0  0  0
 36 56  1  0  0  0
 36106  1  0  0  0
 37 39  1  0  0  0
 37 47  1  0  0  0
 37 66  1  0  0  0
 37107  1  0  0  0
 38 43  2  0  0  0
 38 46  1  0  0  0
 38 47  1  0  0  0
 39 64  1  0  0  0
 39 67  2  0  0  0
 40 52  1  0  0  0
 40 53  2  0  0  0
 40 58  1  0  0  0
 41108  1  0  0  0
 41109  1  0  0  0
 41110  1  0  0  0
 41 48  1  0  0  0
 42 43  1  0  0  0
 42 66  1  0  0  0
 42111  1  0  0  0
 42112  1  0  0  0
 43 44  1  0  0  0
 44113  1  0  0  0
 45 46  2  0  0  0
 45114  1  0  0  0
 46115  1  0  0  0
 47116  1  0  0  0
 47117  1  0  0  0
 48 56  1  0  0  0
 48 65  1  0  0  0
 48118  1  0  0  0
 49 50  1  0  0  0
 49 53  1  0  0  0
 49 64  1  0  0  0
 49119  1  0  0  0
 50 51  1  0  0  0
 50120  1  0  0  0
 50121  1  0  0  0
 51 52  1  0  0  0
 51122  1  0  0  0
 51123  1  0  0  0
 52124  1  0  0  0
 52125  1  0  0  0
 53 54  1  0  0  0
 54 55  2  0  0  0
 54126  1  0  0  0
 55 57  1  0  0  0
 55127  1  0  0  0
 56 69  2  0  0  0
 57 58  2  0  0  0
 57128  1  0  0  0
 58129  1  0  0  0
 59 60  1  0  0  0
 59 61  1  0  0  0
 59 62  1  0  0  0
 60130  1  0  0  0
 60131  1  0  0  0
 60132  1  0  0  0
 61133  1  0  0  0
 61134  1  0  0  0
 61135  1  0  0  0
 62136  1  0  0  0
 62137  1  0  0  0
 62138  1  0  0  0
 63 65  1  0  0  0
 63139  1  0  0  0
 63140  1  0  0  0
 63141  1  0  0  0
 64142  1  0  0  0
 65143  1  0  0  0
 68 82  1  0  0  0
 71 73  2  0  0  0
 71 74  1  0  0  0
 71144  1  0  0  0
 72 75  2  0  0  0
 72 76  1  0  0  0
 72145  1  0  0  0
 73 75  1  0  0  0
 73 77  1  0  0  0
 74 76  2  0  0  0
 74 78  1  0  0  0
 75 79  1  0  0  0
 76 83  1  0  0  0
 77146  1  0  0  0
 77147  1  0  0  0
 77148  1  0  0  0
 78149  1  0  0  0
 78150  1  0  0  0
 78151  1  0  0  0
 79 84  1  0  0  0
 79152  1  0  0  0
 79153  1  0  0  0
 80 81  1  0  0  0
 80 82  1  0  0  0
 80154  1  0  0  0
 80155  1  0  0  0
 81 84  1  0  0  0
 81156  1  0  0  0
 81157  1  0  0  0
 82158  1  0  0  0
 82159  1  0  0  0
 83160  1  0  0  0
 84161  1  0  0  0
 84162  1  0  0  0
M  CHG  1  84   1
M  ISO  4   1 100  68 101  82 101  83 100
M  END
> <chiral flag>
0

> <version>
0

> <s_m_source_file>
/data/baiqing/PycharmProjects/Reinvent-master-3.2/result/LINK_invent/BTK/process_docking_weight1_custom_product_contain_oxygen_bond_distance_aromatic_linkinvent_7_9_3/rearranged_h_0043.sdf

> <i_m_source_file_index>
94

> <r_mmod_Potential_Energy-OPLS-2005>
-195.811370849609

> <r_mmod_Stretch_Energy-OPLS-2005>
49.3104667663574

> <r_mmod_Bend_Energy-OPLS-2005>
114.332252502441

> <r_mmod_Torsional_Energy-OPLS-2005>
270.138427734375

> <r_mmod_Improper_Torsional_Energy-OPLS-2005>
8.51552104949951

> <r_mmod_Van_der_Waal_Energy-OPLS-2005>
141.099960327148

> <r_mmod_Electrostatic_Energy-OPLS-2005>
-328.147674560547

> <r_mmod_Solvation_Energy-OPLS-2005>
-474.283569335938

> <b_mmod_Minimization_Converged-OPLS-2005>
0

> <r_mmod_RMS_Derivative-OPLS-2005>
2.62124252319336

$$$$
94
                    3D
 Structure written by MMmdl.
157165  0  0  1  0            999 V2000
  -30.6156  -14.6001   20.4316 C   0  0  0  0  0  0
  -30.4407  -12.3758   19.4101 C   0  0  0  0  0  0
  -29.5198  -12.5218   18.1788 C   0  0  0  0  0  0
  -28.0340  -12.3919   18.5793 C   0  0  0  0  0  0
  -27.6467  -13.2278   19.8306 C   0  0  2  0  0  0
  -28.6912  -13.1392   20.9684 C   0  0  0  0  0  0
  -25.2544  -13.8205   20.5639 C   0  0  0  0  0  0
  -24.1835  -13.0429   20.9130 C   0  0  0  0  0  0
  -24.6467  -11.6921   20.8695 C   0  0  0  0  0  0
  -23.9148  -10.4296   21.0377 C   0  0  0  0  0  0
  -24.3708   -9.4212   21.9154 C   0  0  0  0  0  0
  -23.6345   -8.2276   22.0777 C   0  0  0  0  0  0
  -22.4315   -8.0334   21.3583 C   0  0  0  0  0  0
  -21.9961   -9.0304   20.4667 C   0  0  0  0  0  0
  -22.7320  -10.2151   20.3030 C   0  0  0  0  0  0
  -21.6876   -6.0746   22.5281 C   0  0  0  0  0  0
  -21.4018   -6.5639   23.8214 C   0  0  0  0  0  0
  -21.3671   -5.6790   24.9177 C   0  0  0  0  0  0
  -21.6053   -4.3055   24.7232 C   0  0  0  0  0  0
  -21.8810   -3.8149   23.4355 C   0  0  0  0  0  0
  -21.9199   -4.6965   22.3409 C   0  0  0  0  0  0
  -22.7835  -13.5198   21.1850 C   0  0  0  0  0  0
  -22.1662   -4.2162   21.0984 F   0  0  0  0  0  0
  -21.5644   -3.4540   25.7738 F   0  0  0  0  0  0
  -30.0076  -13.3904   20.3780 N   0  0  0  0  0  0
  -26.2970  -12.9411   20.3091 N   0  0  0  0  0  0
  -25.9383  -11.6584   20.5604 N   0  0  0  0  0  0
  -22.0531  -12.8164   22.0426 N   0  0  0  0  0  0
  -25.4047  -15.1985   20.4229 N   0  0  0  0  0  0
  -31.8346  -14.7156   20.2868 O   0  0  0  0  0  0
  -21.6678   -6.8931   21.4265 O   0  0  0  0  0  0
  -22.3452  -14.5487   20.6693 O   0  0  0  0  0  0
  -24.6155  -31.8654   23.2100 C   0  0  0  0  0  0
  -25.9060  -32.4797   23.8250 C   0  0  1  0  0  0
  -27.1968  -27.3862   20.0676 C   0  0  0  0  0  0
  -25.5958  -33.8580   24.2265 N   0  0  0  0  0  0
  -23.4024  -30.5032   21.5441 C   0  0  2  0  0  0
  -24.8436  -28.9688   20.0917 C   0  0  0  0  0  0
  -22.7384  -29.4660   22.4846 C   0  0  0  0  0  0
  -17.9963  -28.1748   22.8485 C   0  0  0  0  0  0
  -24.1534  -36.7289   23.2613 C   0  0  0  0  0  0
  -25.9378  -30.8107   21.3669 C   0  0  0  0  0  0
  -26.0112  -29.4494   20.6940 C   0  0  0  0  0  0
  -27.2046  -28.6715   20.6765 C   0  0  0  0  0  0
  -26.0089  -26.9249   19.4764 C   0  0  0  0  0  0
  -24.8349  -27.7100   19.4716 C   0  0  0  0  0  0
  -23.6033  -29.8381   20.1559 C   0  0  0  0  0  0
  -25.4148  -36.3078   24.0303 C   0  0  1  0  0  0
  -20.5570  -28.4117   23.1477 C   0  0  2  0  0  0
  -20.6291  -26.9758   22.5756 C   0  0  0  0  0  0
  -19.5416  -26.6958   21.5312 C   0  0  0  0  0  0
  -18.1730  -26.8100   22.1860 C   0  0  0  0  0  0
  -19.1225  -28.9397   23.2790 C   0  0  0  0  0  0
  -18.8841  -30.2013   23.8684 C   0  0  0  0  0  0
  -17.5660  -30.6786   24.0528 C   0  0  0  0  0  0
  -25.9062  -34.9440   23.5054 C   0  0  0  0  0  0
  -16.4699  -29.9131   23.6252 C   0  0  0  0  0  0
  -16.6968  -28.6729   23.0058 C   0  0  0  0  0  0
  -26.4501  -31.6539   25.0525 C   0  0  0  0  0  0
  -25.3725  -31.3671   26.1251 C   0  0  0  0  0  0
  -27.0367  -30.2968   24.5949 C   0  0  0  0  0  0
  -27.6094  -32.4209   25.7358 C   0  0  0  0  0  0
  -27.5612  -37.1806   24.8465 C   0  0  0  0  0  0
  -21.4006  -29.3535   22.4062 N   0  0  0  0  0  0
  -26.4343  -37.3778   23.9389 N   0  0  0  0  0  0
  -24.6662  -31.0725   22.0936 N   0  0  0  0  0  0
  -23.4284  -28.7733   23.2412 O   0  0  0  0  0  0
  -28.3016  -26.5475   20.0597 O   0  0  0  0  0  0
  -26.5622  -34.8930   22.4629 O   0  0  0  0  0  0
  -23.5389  -32.1335   23.7453 O   0  0  0  0  0  0
  -28.2702  -18.1242   22.1771 C   0  0  0  0  0  0
  -27.2865  -19.1006   22.3397 C   0  0  0  0  0  0
  -28.7820  -19.0187   19.9674 C   0  0  0  0  0  0
  -29.0316  -18.0649   21.0004 C   0  0  0  0  0  0
  -27.0610  -20.0848   21.3486 C   0  0  0  0  0  0
  -27.7960  -20.0444   20.1345 C   0  0  0  0  0  0
  -28.4478  -24.5466   18.5804 C   0  0  0  0  0  0
  -28.5478  -25.8746   18.8733 C   0  0  0  0  0  0
  -27.6308  -22.4314   18.6884 C   0  0  0  0  0  0
  -26.0069  -21.1404   21.6318 C   0  0  0  0  0  0
  -27.3839  -20.9122   18.9127 C   0  0  0  0  0  0
  -30.1468  -17.0282   20.9248 C   0  0  0  0  0  0
  -28.1310  -23.4066   19.3649 N   0  0  0  0  0  0
  -29.7557  -15.6652   20.4927 N   0  0  0  0  0  0
  -31.4851  -12.5251   19.1135 H   0  0  0  0  0  0
  -30.3642  -11.3726   19.8380 H   0  0  0  0  0  0
  -29.7675  -11.7759   17.4200 H   0  0  0  0  0  0
  -29.6816  -13.4953   17.7057 H   0  0  0  0  0  0
  -27.8456  -11.3332   18.7575 H   0  0  0  0  0  0
  -27.4020  -12.6833   17.7395 H   0  0  0  0  0  0
  -27.6484  -14.2661   19.4915 H   0  0  0  0  0  0
  -28.6611  -12.2117   21.5341 H   0  0  0  0  0  0
  -28.4482  -13.9101   21.7025 H   0  0  0  0  0  0
  -25.2907   -9.5670   22.4670 H   0  0  0  0  0  0
  -24.0063   -7.4688   22.7508 H   0  0  0  0  0  0
  -21.0891   -8.8870   19.8978 H   0  0  0  0  0  0
  -22.3849  -10.9706   19.6122 H   0  0  0  0  0  0
  -21.1982   -7.6149   23.9722 H   0  0  0  0  0  0
  -21.1507   -6.0520   25.9082 H   0  0  0  0  0  0
  -22.0571   -2.7622   23.2847 H   0  0  0  0  0  0
  -22.4220  -11.9864   22.4818 H   0  0  0  0  0  0
  -21.1136  -13.1129   22.2628 H   0  0  0  0  0  0
  -24.6208  -15.8180   20.5932 H   0  0  0  0  0  0
  -26.2495  -15.7066   20.2033 H   0  0  0  0  0  0
  -26.6948  -32.5465   23.0873 H   0  0  0  0  0  0
  -25.0217  -33.9688   25.0478 H   0  0  0  0  0  0
  -22.7020  -31.3210   21.4037 H   0  0  0  0  0  0
  -23.3828  -35.9608   23.3269 H   0  0  0  0  0  0
  -24.3612  -36.8912   22.2032 H   0  0  0  0  0  0
  -23.7294  -37.6474   23.6653 H   0  0  0  0  0  0
  -26.0564  -31.5794   20.6007 H   0  0  0  0  0  0
  -26.8222  -30.8385   21.9989 H   0  0  0  0  0  0
  -28.1024  -29.0397   21.1464 H   0  0  0  0  0  0
  -25.9563  -25.9437   19.0186 H   0  0  0  0  0  0
  -23.9444  -27.3215   19.0109 H   0  0  0  0  0  0
  -23.7027  -30.6048   19.3881 H   0  0  0  0  0  0
  -22.7117  -29.2682   19.8620 H   0  0  0  0  0  0
  -25.1363  -36.1889   25.0802 H   0  0  0  0  0  0
  -20.9518  -28.4017   24.1764 H   0  0  0  0  0  0
  -20.4237  -26.2884   23.3934 H   0  0  0  0  0  0
  -21.6193  -26.7346   22.1857 H   0  0  0  0  0  0
  -19.6241  -27.4174   20.7136 H   0  0  0  0  0  0
  -19.6775  -25.7119   21.0906 H   0  0  0  0  0  0
  -17.3709  -26.6667   21.4525 H   0  0  0  0  0  0
  -18.0278  -26.0295   22.9341 H   0  0  0  0  0  0
  -19.6968  -30.8166   24.1913 H   0  0  0  0  0  0
  -17.4089  -31.6413   24.5302 H   0  0  0  0  0  0
  -15.4595  -30.2958   23.7501 H   0  0  0  0  0  0
  -15.8585  -28.1054   22.6325 H   0  0  0  0  0  0
  -24.5906  -30.7092   25.7499 H   0  0  0  0  0  0
  -24.8976  -32.2869   26.4656 H   0  0  0  0  0  0
  -25.7992  -30.8768   27.0016 H   0  0  0  0  0  0
  -26.2969  -29.6729   24.0974 H   0  0  0  0  0  0
  -27.4099  -29.7201   25.4426 H   0  0  0  0  0  0
  -27.8798  -30.4292   23.9169 H   0  0  0  0  0  0
  -27.2754  -33.3499   26.2026 H   0  0  0  0  0  0
  -28.3959  -32.6765   25.0224 H   0  0  0  0  0  0
  -28.0746  -31.8229   26.5233 H   0  0  0  0  0  0
  -28.2628  -38.0106   24.7541 H   0  0  0  0  0  0
  -28.1105  -36.2635   24.6303 H   0  0  0  0  0  0
  -27.2285  -37.1456   25.8850 H   0  0  0  0  0  0
  -20.9014  -30.0147   21.8273 H   0  0  0  0  0  0
  -26.0194  -38.2846   24.1426 H   0  0  0  0  0  0
  -28.4632  -17.3926   22.9641 H   0  0  0  0  0  0
  -26.6565  -19.0286   23.2125 H   0  0  0  0  0  0
  -29.3487  -18.9687   19.0476 H   0  0  0  0  0  0
  -28.6960  -24.3436   17.5356 H   0  0  0  0  0  0
  -28.8282  -26.5722   18.0901 H   0  0  0  0  0  0
  -27.2610  -22.6439   17.6811 H   0  0  0  0  0  0
  -26.4738  -22.0705   21.9727 H   0  0  0  0  0  0
  -25.3363  -20.8338   22.4393 H   0  0  0  0  0  0
  -25.3921  -21.3586   20.7575 H   0  0  0  0  0  0
  -26.3206  -20.7540   18.7693 H   0  0  0  0  0  0
  -27.8325  -20.4210   18.0476 H   0  0  0  0  0  0
  -30.9294  -17.4630   20.3016 H   0  0  0  0  0  0
  -30.5845  -16.9841   21.9326 H   0  0  0  0  0  0
  -28.7551  -15.4800   20.3886 H   0  0  0  0  0  0
  1 25  1  0  0  0
  1 30  2  0  0  0
  1 84  1  0  0  0
  2  3  1  0  0  0
  2 25  1  0  0  0
  2 85  1  0  0  0
  2 86  1  0  0  0
  3  4  1  0  0  0
  3 87  1  0  0  0
  3 88  1  0  0  0
  4  5  1  0  0  0
  4 89  1  0  0  0
  4 90  1  0  0  0
  5  6  1  0  0  0
  5 26  1  0  0  0
  5 91  1  0  0  0
  6 25  1  0  0  0
  6 92  1  0  0  0
  6 93  1  0  0  0
  7  8  2  0  0  0
  7 26  1  0  0  0
  7 29  1  0  0  0
  8  9  1  0  0  0
  8 22  1  0  0  0
  9 10  1  0  0  0
  9 27  2  0  0  0
 10 11  2  0  0  0
 10 15  1  0  0  0
 11 12  1  0  0  0
 11 94  1  0  0  0
 12 13  2  0  0  0
 12 95  1  0  0  0
 13 14  1  0  0  0
 13 31  1  0  0  0
 14 15  2  0  0  0
 14 96  1  0  0  0
 15 97  1  0  0  0
 16 17  2  0  0  0
 16 21  1  0  0  0
 16 31  1  0  0  0
 17 18  1  0  0  0
 17 98  1  0  0  0
 18 19  2  0  0  0
 18 99  1  0  0  0
 19 20  1  0  0  0
 19 24  1  0  0  0
 20 21  2  0  0  0
 20100  1  0  0  0
 21 23  1  0  0  0
 22 28  1  0  0  0
 22 32  2  0  0  0
 26 27  1  0  0  0
 28101  1  0  0  0
 28102  1  0  0  0
 29103  1  0  0  0
 29104  1  0  0  0
 33 34  1  0  0  0
 33 66  1  0  0  0
 33 70  2  0  0  0
 34 36  1  0  0  0
 34 59  1  0  0  0
 34105  1  0  0  0
 35 44  2  0  0  0
 35 45  1  0  0  0
 35 68  1  0  0  0
 36 56  1  0  0  0
 36106  1  0  0  0
 37 39  1  0  0  0
 37 47  1  0  0  0
 37 66  1  0  0  0
 37107  1  0  0  0
 38 43  2  0  0  0
 38 46  1  0  0  0
 38 47  1  0  0  0
 39 64  1  0  0  0
 39 67  2  0  0  0
 40 52  1  0  0  0
 40 53  2  0  0  0
 40 58  1  0  0  0
 41108  1  0  0  0
 41109  1  0  0  0
 41110  1  0  0  0
 41 48  1  0  0  0
 42 43  1  0  0  0
 42 66  1  0  0  0
 42111  1  0  0  0
 42112  1  0  0  0
 43 44  1  0  0  0
 44113  1  0  0  0
 45 46  2  0  0  0
 45114  1  0  0  0
 46115  1  0  0  0
 47116  1  0  0  0
 47117  1  0  0  0
 48 56  1  0  0  0
 48 65  1  0  0  0
 48118  1  0  0  0
 49 50  1  0  0  0
 49 53  1  0  0  0
 49 64  1  0  0  0
 49119  1  0  0  0
 50 51  1  0  0  0
 50120  1  0  0  0
 50121  1  0  0  0
 51 52  1  0  0  0
 51122  1  0  0  0
 51123  1  0  0  0
 52124  1  0  0  0
 52125  1  0  0  0
 53 54  1  0  0  0
 54 55  2  0  0  0
 54126  1  0  0  0
 55 57  1  0  0  0
 55127  1  0  0  0
 56 69  2  0  0  0
 57 58  2  0  0  0
 57128  1  0  0  0
 58129  1  0  0  0
 59 60  1  0  0  0
 59 61  1  0  0  0
 59 62  1  0  0  0
 60130  1  0  0  0
 60131  1  0  0  0
 60132  1  0  0  0
 61133  1  0  0  0
 61134  1  0  0  0
 61135  1  0  0  0
 62136  1  0  0  0
 62137  1  0  0  0
 62138  1  0  0  0
 63 65  1  0  0  0
 63139  1  0  0  0
 63140  1  0  0  0
 63141  1  0  0  0
 64142  1  0  0  0
 65143  1  0  0  0
 68 78  1  0  0  0
 71 72  2  0  0  0
 71 74  1  0  0  0
 71144  1  0  0  0
 72 75  1  0  0  0
 72145  1  0  0  0
 73 74  2  0  0  0
 73 76  1  0  0  0
 73146  1  0  0  0
 74 82  1  0  0  0
 75 76  2  0  0  0
 75 80  1  0  0  0
 76 81  1  0  0  0
 77 78  2  0  0  0
 77 83  1  0  0  0
 77147  1  0  0  0
 78148  1  0  0  0
 79 81  1  0  0  0
 79 83  2  0  0  0
 79149  1  0  0  0
 80150  1  0  0  0
 80151  1  0  0  0
 80152  1  0  0  0
 81153  1  0  0  0
 81154  1  0  0  0
 82 84  1  0  0  0
 82155  1  0  0  0
 82156  1  0  0  0
 84157  1  0  0  0
M  ISO  4   1 100  68 101  78 101  84 100
M  END
> <chiral flag>
0

> <version>
0

> <s_m_source_file>
/data/baiqing/PycharmProjects/Reinvent-master-3.2/result/LINK_invent/BTK/process_docking_weight1_custom_product_contain_oxygen_bond_distance_aromatic_linkinvent_7_9_3/rearranged_h_0043.sdf

> <i_m_source_file_index>
95

> <r_mmod_Potential_Energy-OPLS-2005>
72.4191818237305

> <r_mmod_Stretch_Energy-OPLS-2005>
55.5378608703613

> <r_mmod_Bend_Energy-OPLS-2005>
163.645172119141

> <r_mmod_Torsional_Energy-OPLS-2005>
250.989868164062

> <r_mmod_Improper_Torsional_Energy-OPLS-2005>
5.56840181350708

> <r_mmod_Van_der_Waal_Energy-OPLS-2005>
152.379272460938

> <r_mmod_Electrostatic_Energy-OPLS-2005>
-380.804016113281

> <r_mmod_Solvation_Energy-OPLS-2005>
-224.715866088867

> <b_mmod_Minimization_Converged-OPLS-2005>
0

> <r_mmod_RMS_Derivative-OPLS-2005>
22.4889545440674

$$$$
95
                    3D
 Structure written by MMmdl.
159167  0  0  1  0            999 V2000
  -31.7018  -14.6362   20.0589 C   0  0  0  0  0  0
  -30.3941  -12.4587   20.0467 C   0  0  0  0  0  0
  -29.0598  -11.8900   18.9688 C   0  0  0  0  0  0
  -27.5447  -12.6718   18.4356 C   0  0  0  0  0  0
  -26.9347  -14.2807   19.1815 C   0  0  2  0  0  0
  -29.7098  -15.3212   20.8972 C   0  0  0  0  0  0
  -24.8290  -14.0677   20.4776 C   0  0  0  0  0  0
  -23.9819  -13.1302   20.9529 C   0  0  0  0  0  0
  -24.5884  -11.8423   20.8261 C   0  0  0  0  0  0
  -23.9514  -10.4977   21.0015 C   0  0  0  0  0  0
  -24.4030   -9.4861   21.8890 C   0  0  0  0  0  0
  -23.6730   -8.2787   22.0603 C   0  0  0  0  0  0
  -22.4666   -8.0611   21.3542 C   0  0  0  0  0  0
  -22.0373   -9.0438   20.4478 C   0  0  0  0  0  0
  -22.7673  -10.2342   20.2684 C   0  0  0  0  0  0
  -21.7095   -6.0918   22.5340 C   0  0  0  0  0  0
  -21.4201   -6.5703   23.8327 C   0  0  0  0  0  0
  -21.3735   -5.6780   24.9187 C   0  0  0  0  0  0
  -21.6031   -4.3060   24.7184 C   0  0  0  0  0  0
  -21.8765   -3.8195   23.4281 C   0  0  0  0  0  0
  -21.9246   -4.7096   22.3362 C   0  0  0  0  0  0
  -22.5829  -13.4840   21.2703 C   0  0  0  0  0  0
  -22.1632   -4.2293   21.0961 F   0  0  0  0  0  0
  -21.5593   -3.4486   25.7681 F   0  0  0  0  0  0
  -30.7292  -13.9877   20.6952 N   0  0  0  0  0  0
  -25.8605  -13.4293   19.9492 N   0  0  0  0  0  0
  -25.8260  -12.0574   20.3371 N   0  0  0  0  0  0
  -21.9408  -12.7298   22.1482 N   0  0  0  0  0  0
  -24.7651  -15.4363   20.3236 N   0  0  0  0  0  0
  -32.8179  -14.3883   20.3631 O   0  0  0  0  0  0
  -21.7001   -6.9121   21.4333 O   0  0  0  0  0  0
  -22.0813  -14.4857   20.7617 O   0  0  0  0  0  0
  -24.6816  -31.8027   23.1584 C   0  0  0  0  0  0
  -25.9449  -32.4435   23.8101 C   0  0  1  0  0  0
  -27.0052  -26.6333   20.2946 C   0  0  0  0  0  0
  -25.6040  -33.8279   24.1992 N   0  0  0  0  0  0
  -23.4948  -30.4251   21.5164 C   0  0  2  0  0  0
  -24.9115  -28.7715   20.1126 C   0  0  0  0  0  0
  -22.7704  -29.4381   22.4753 C   0  0  0  0  0  0
  -18.0338  -28.1392   22.8466 C   0  0  0  0  0  0
  -24.1502  -36.7134   23.2658 C   0  0  0  0  0  0
  -26.0748  -30.5198   21.4229 C   0  0  0  0  0  0
  -26.0998  -29.0805   20.7814 C   0  0  0  0  0  0
  -27.1564  -28.0380   20.8286 C   0  0  0  0  0  0
  -25.8348  -26.5505   19.5234 C   0  0  0  0  0  0
  -24.8265  -27.5445   19.4397 C   0  0  0  0  0  0
  -23.7343  -29.7457   20.1387 C   0  0  0  0  0  0
  -25.4148  -36.2896   24.0310 C   0  0  1  0  0  0
  -20.5946  -28.3754   23.1164 C   0  0  2  0  0  0
  -20.6799  -26.9435   22.5388 C   0  0  0  0  0  0
  -19.5765  -26.6371   21.5210 C   0  0  0  0  0  0
  -18.1959  -26.7928   22.1625 C   0  0  0  0  0  0
  -19.1590  -28.8913   23.2789 C   0  0  0  0  0  0
  -18.9502  -30.1502   23.8843 C   0  0  0  0  0  0
  -17.6486  -30.6591   24.0559 C   0  0  0  0  0  0
  -25.9141  -34.9263   23.4979 C   0  0  0  0  0  0
  -16.5387  -29.9083   23.6318 C   0  0  0  0  0  0
  -16.7321  -28.6486   23.0377 C   0  0  0  0  0  0
  -26.4611  -31.6423   25.0682 C   0  0  0  0  0  0
  -25.3685  -31.3696   26.1284 C   0  0  0  0  0  0
  -27.0505  -30.2762   24.6535 C   0  0  0  0  0  0
  -27.6107  -32.4231   25.7463 C   0  0  0  0  0  0
  -27.5561  -37.1721   24.8477 C   0  0  0  0  0  0
  -21.4377  -29.3017   22.3470 N   0  0  0  0  0  0
  -26.4271  -37.3652   23.9425 N   0  0  0  0  0  0
  -24.7771  -30.9512   22.0835 N   0  0  0  0  0  0
  -23.4176  -28.7935   23.3039 O   0  0  0  0  0  0
  -27.8212  -25.3315   20.3428 O   0  0  0  0  0  0
  -26.5749  -34.8835   22.4581 O   0  0  0  0  0  0
  -23.5867  -32.1169   23.6565 O   0  0  0  0  0  0
  -29.0964  -14.3577   19.0288 C   0  0  0  0  0  0
  -28.2009  -13.8075   20.8340 C   0  0  0  0  0  0
  -28.2718  -16.8393   19.2413 C   0  0  0  0  0  0
  -27.5723  -16.8658   20.5518 C   0  0  0  0  0  0
  -29.0389  -15.7571   18.5675 C   0  0  0  0  0  0
  -27.4215  -15.3511   21.3177 C   0  0  0  0  0  0
  -27.1514  -18.6025   20.8517 C   0  0  0  0  0  0
  -26.7377  -15.3721   22.6757 C   0  0  0  0  0  0
  -30.4569  -16.0376   18.0825 C   0  0  0  0  0  0
  -27.1634  -21.8053   20.2930 C   0  0  0  0  0  0
  -27.5326  -23.6438   20.8293 C   0  0  0  0  0  0
  -26.0174  -18.7350   21.5405 N   0  0  0  0  0  0
  -31.5410  -15.5613   19.0309 N   0  0  0  0  0  0
  -27.6444  -20.0683   20.5458 N   0  3  0  0  0  0
  -31.3260  -12.1119   19.5998 H   0  0  0  0  0  0
  -30.3206  -11.8462   20.9427 H   0  0  0  0  0  0
  -28.7295  -10.9673   19.4483 H   0  0  0  0  0  0
  -29.5401  -11.5257   18.0576 H   0  0  0  0  0  0
  -26.7796  -11.9320   18.1724 H   0  0  0  0  0  0
  -27.7718  -12.9657   17.4042 H   0  0  0  0  0  0
  -26.4774  -14.9512   18.4385 H   0  0  0  0  0  0
  -29.6628  -15.3588   22.0003 H   0  0  0  0  0  0
  -30.1084  -16.3355   20.7756 H   0  0  0  0  0  0
  -25.3157   -9.6442   22.4482 H   0  0  0  0  0  0
  -24.0445   -7.5271   22.7430 H   0  0  0  0  0  0
  -21.1323   -8.8811   19.8813 H   0  0  0  0  0  0
  -22.4005  -10.9642   19.5612 H   0  0  0  0  0  0
  -21.2263   -7.6224   23.9882 H   0  0  0  0  0  0
  -21.1594   -6.0465   25.9124 H   0  0  0  0  0  0
  -22.0442   -2.7686   23.2693 H   0  0  0  0  0  0
  -22.3932  -11.9323   22.5701 H   0  0  0  0  0  0
  -20.9918  -12.9574   22.4081 H   0  0  0  0  0  0
  -24.3535  -15.8552   21.1424 H   0  0  0  0  0  0
  -24.0245  -15.5739   19.6403 H   0  0  0  0  0  0
  -26.7465  -32.4866   23.0743 H   0  0  0  0  0  0
  -25.0123  -33.9302   25.0109 H   0  0  0  0  0  0
  -22.8221  -31.2654   21.3445 H   0  0  0  0  0  0
  -23.3784  -35.9435   23.3276 H   0  0  0  0  0  0
  -24.3587  -36.8836   22.2074 H   0  0  0  0  0  0
  -23.7216  -37.6293   23.6758 H   0  0  0  0  0  0
  -26.2892  -31.2355   20.6278 H   0  0  0  0  0  0
  -26.9287  -30.5712   22.0864 H   0  0  0  0  0  0
  -28.0578  -28.2700   21.3813 H   0  0  0  0  0  0
  -25.6451  -25.6212   19.0075 H   0  0  0  0  0  0
  -23.9387  -27.3186   18.8718 H   0  0  0  0  0  0
  -23.9289  -30.5130   19.3885 H   0  0  0  0  0  0
  -22.8295  -29.2351   19.8038 H   0  0  0  0  0  0
  -25.1345  -36.1671   25.0802 H   0  0  0  0  0  0
  -21.0062  -28.3382   24.1279 H   0  0  0  0  0  0
  -20.5672  -26.2395   23.3640 H   0  0  0  0  0  0
  -21.6661  -26.7383   22.1188 H   0  0  0  0  0  0
  -19.6910  -25.6273   21.1265 H   0  0  0  0  0  0
  -19.6679  -27.3163   20.6725 H   0  0  0  0  0  0
  -17.4208  -26.6682   21.4047 H   0  0  0  0  0  0
  -18.0355  -26.0094   22.9042 H   0  0  0  0  0  0
  -19.8001  -30.7327   24.2184 H   0  0  0  0  0  0
  -17.5059  -31.6277   24.5170 H   0  0  0  0  0  0
  -15.5387  -30.2967   23.7704 H   0  0  0  0  0  0
  -15.8720  -28.0794   22.7132 H   0  0  0  0  0  0
  -24.5905  -30.7014   25.7543 H   0  0  0  0  0  0
  -24.8825  -32.2887   26.4567 H   0  0  0  0  0  0
  -25.7869  -30.8923   27.0149 H   0  0  0  0  0  0
  -26.3179  -29.6359   24.1586 H   0  0  0  0  0  0
  -27.3965  -29.7193   25.5244 H   0  0  0  0  0  0
  -27.9187  -30.3858   24.0030 H   0  0  0  0  0  0
  -27.2693  -33.3562   26.1939 H   0  0  0  0  0  0
  -28.3951  -32.6705   25.0302 H   0  0  0  0  0  0
  -28.0724  -31.8408   26.5436 H   0  0  0  0  0  0
  -28.2556  -38.0034   24.7531 H   0  0  0  0  0  0
  -28.1080  -36.2559   24.6320 H   0  0  0  0  0  0
  -27.2276  -37.1372   25.8877 H   0  0  0  0  0  0
  -20.9683  -29.8707   21.6566 H   0  0  0  0  0  0
  -26.0103  -38.2704   24.1451 H   0  0  0  0  0  0
  -29.7485  -13.8528   18.3254 H   0  0  0  0  0  0
  -28.1821  -12.8644   21.3570 H   0  0  0  0  0  0
  -28.4191  -17.8184   18.7919 H   0  0  0  0  0  0
  -27.4809  -15.2702   23.4634 H   0  0  0  0  0  0
  -26.0004  -14.5752   22.7721 H   0  0  0  0  0  0
  -26.2263  -16.3205   22.8324 H   0  0  0  0  0  0
  -30.6299  -15.5033   17.1493 H   0  0  0  0  0  0
  -30.5766  -17.0995   17.8440 H   0  0  0  0  0  0
  -27.2692  -21.8965   19.2092 H   0  0  0  0  0  0
  -26.0796  -21.7523   20.4210 H   0  0  0  0  0  0
  -28.3741  -23.5065   21.5064 H   0  0  0  0  0  0
  -26.7057  -23.8112   21.5259 H   0  0  0  0  0  0
  -25.6780  -19.6426   21.8048 H   0  0  0  0  0  0
  -25.5533  -17.9154   21.9000 H   0  0  0  0  0  0
  -32.4383  -15.9654   18.7964 H   0  0  0  0  0  0
  -28.5936  -20.0014   20.1855 H   0  0  0  0  0  0
  1 25  1  0  0  0
  1 30  2  0  0  0
  1 83  1  0  0  0
  2  3  1  0  0  0
  2 25  1  0  0  0
  2 85  1  0  0  0
  2 86  1  0  0  0
  3  4  1  0  0  0
  3 87  1  0  0  0
  3 88  1  0  0  0
  4  5  1  0  0  0
  4 89  1  0  0  0
  4 90  1  0  0  0
  5  6  1  0  0  0
  5 26  1  0  0  0
  5 91  1  0  0  0
  6 25  1  0  0  0
  6 92  1  0  0  0
  6 93  1  0  0  0
  7  8  2  0  0  0
  7 26  1  0  0  0
  7 29  1  0  0  0
  8  9  1  0  0  0
  8 22  1  0  0  0
  9 10  1  0  0  0
  9 27  2  0  0  0
 10 11  2  0  0  0
 10 15  1  0  0  0
 11 12  1  0  0  0
 11 94  1  0  0  0
 12 13  2  0  0  0
 12 95  1  0  0  0
 13 14  1  0  0  0
 13 31  1  0  0  0
 14 15  2  0  0  0
 14 96  1  0  0  0
 15 97  1  0  0  0
 16 17  2  0  0  0
 16 21  1  0  0  0
 16 31  1  0  0  0
 17 18  1  0  0  0
 17 98  1  0  0  0
 18 19  2  0  0  0
 18 99  1  0  0  0
 19 20  1  0  0  0
 19 24  1  0  0  0
 20 21  2  0  0  0
 20100  1  0  0  0
 21 23  1  0  0  0
 22 28  1  0  0  0
 22 32  2  0  0  0
 26 27  1  0  0  0
 28101  1  0  0  0
 28102  1  0  0  0
 29103  1  0  0  0
 29104  1  0  0  0
 33 34  1  0  0  0
 33 66  1  0  0  0
 33 70  2  0  0  0
 34 36  1  0  0  0
 34 59  1  0  0  0
 34105  1  0  0  0
 35 44  2  0  0  0
 35 45  1  0  0  0
 35 68  1  0  0  0
 36 56  1  0  0  0
 36106  1  0  0  0
 37 39  1  0  0  0
 37 47  1  0  0  0
 37 66  1  0  0  0
 37107  1  0  0  0
 38 43  2  0  0  0
 38 46  1  0  0  0
 38 47  1  0  0  0
 39 64  1  0  0  0
 39 67  2  0  0  0
 40 52  1  0  0  0
 40 53  2  0  0  0
 40 58  1  0  0  0
 41108  1  0  0  0
 41109  1  0  0  0
 41110  1  0  0  0
 41 48  1  0  0  0
 42 43  1  0  0  0
 42 66  1  0  0  0
 42111  1  0  0  0
 42112  1  0  0  0
 43 44  1  0  0  0
 44113  1  0  0  0
 45 46  2  0  0  0
 45114  1  0  0  0
 46115  1  0  0  0
 47116  1  0  0  0
 47117  1  0  0  0
 48 56  1  0  0  0
 48 65  1  0  0  0
 48118  1  0  0  0
 49 50  1  0  0  0
 49 53  1  0  0  0
 49 64  1  0  0  0
 49119  1  0  0  0
 50 51  1  0  0  0
 50120  1  0  0  0
 50121  1  0  0  0
 51 52  1  0  0  0
 51122  1  0  0  0
 51123  1  0  0  0
 52124  1  0  0  0
 52125  1  0  0  0
 53 54  1  0  0  0
 54 55  2  0  0  0
 54126  1  0  0  0
 55 57  1  0  0  0
 55127  1  0  0  0
 56 69  2  0  0  0
 57 58  2  0  0  0
 57128  1  0  0  0
 58129  1  0  0  0
 59 60  1  0  0  0
 59 61  1  0  0  0
 59 62  1  0  0  0
 60130  1  0  0  0
 60131  1  0  0  0
 60132  1  0  0  0
 61133  1  0  0  0
 61134  1  0  0  0
 61135  1  0  0  0
 62136  1  0  0  0
 62137  1  0  0  0
 62138  1  0  0  0
 63 65  1  0  0  0
 63139  1  0  0  0
 63140  1  0  0  0
 63141  1  0  0  0
 64142  1  0  0  0
 65143  1  0  0  0
 68 81  1  0  0  0
 71 72  2  0  0  0
 71 75  1  0  0  0
 71144  1  0  0  0
 72 76  1  0  0  0
 72145  1  0  0  0
 73 74  1  0  0  0
 73 75  2  0  0  0
 73146  1  0  0  0
 74 76  2  0  0  0
 74 77  1  0  0  0
 75 79  1  0  0  0
 76 78  1  0  0  0
 77 82  1  0  0  0
 77 84  2  0  0  0
 78147  1  0  0  0
 78148  1  0  0  0
 78149  1  0  0  0
 79 83  1  0  0  0
 79150  1  0  0  0
 79151  1  0  0  0
 80 81  1  0  0  0
 80 84  1  0  0  0
 80152  1  0  0  0
 80153  1  0  0  0
 81154  1  0  0  0
 81155  1  0  0  0
 82156  1  0  0  0
 82157  1  0  0  0
 83158  1  0  0  0
 84159  1  0  0  0
M  CHG  1  84   1
M  ISO  4   1 100  68 101  81 101  83 100
M  END
> <chiral flag>
0

> <version>
0

> <s_m_source_file>
/data/baiqing/PycharmProjects/Reinvent-master-3.2/result/LINK_invent/BTK/process_docking_weight1_custom_product_contain_oxygen_bond_distance_aromatic_linkinvent_7_9_3/rearranged_h_0043.sdf

> <i_m_source_file_index>
96

> <r_mmod_Potential_Energy-OPLS-2005>
12611.25390625

> <r_mmod_Stretch_Energy-OPLS-2005>
7005.78759765625

> <r_mmod_Bend_Energy-OPLS-2005>
1044.20166015625

> <r_mmod_Torsional_Energy-OPLS-2005>
468.855865478516

> <r_mmod_Improper_Torsional_Energy-OPLS-2005>
29.8338623046875

> <r_mmod_Van_der_Waal_Energy-OPLS-2005>
2791.6298828125

> <r_mmod_Electrostatic_Energy-OPLS-2005>
-419.410705566406

> <r_mmod_Solvation_Energy-OPLS-2005>
-415.229888916016

> <b_mmod_Minimization_Converged-OPLS-2005>
0

> <r_mmod_RMS_Derivative-OPLS-2005>
19.0654258728027

$$$$
