0
                    3D
 Structure written by MMmdl.
156164  0  0  1  0            999 V2000
  -30.7085  -14.4998   20.5720 C   0  0  0  0  0  0
  -30.4195  -12.3258   19.4325 C   0  0  0  0  0  0
  -29.4946  -12.5092   18.2120 C   0  0  0  0  0  0
  -28.0180  -12.3613   18.6254 C   0  0  0  0  0  0
  -27.6586  -13.2138   19.8718 C   0  0  2  0  0  0
  -28.7000  -13.0242   20.9981 C   0  0  0  0  0  0
  -25.2573  -13.8177   20.5678 C   0  0  0  0  0  0
  -24.1831  -13.0444   20.9181 C   0  0  0  0  0  0
  -24.6393  -11.6912   20.8736 C   0  0  0  0  0  0
  -23.9062  -10.4290   21.0407 C   0  0  0  0  0  0
  -24.3615   -9.4208   21.9187 C   0  0  0  0  0  0
  -23.6289   -8.2242   22.0758 C   0  0  0  0  0  0
  -22.4270   -8.0280   21.3550 C   0  0  0  0  0  0
  -21.9905   -9.0253   20.4650 C   0  0  0  0  0  0
  -22.7232  -10.2131   20.3057 C   0  0  0  0  0  0
  -21.6856   -6.0732   22.5281 C   0  0  0  0  0  0
  -21.4015   -6.5636   23.8212 C   0  0  0  0  0  0
  -21.3660   -5.6792   24.9175 C   0  0  0  0  0  0
  -21.6045   -4.3056   24.7231 C   0  0  0  0  0  0
  -21.8817   -3.8143   23.4355 C   0  0  0  0  0  0
  -21.9191   -4.6957   22.3406 C   0  0  0  0  0  0
  -22.7852  -13.5236   21.1846 C   0  0  0  0  0  0
  -22.1659   -4.2142   21.0986 F   0  0  0  0  0  0
  -21.5633   -3.4540   25.7745 F   0  0  0  0  0  0
  -30.0287  -13.3258   20.4412 N   0  0  0  0  0  0
  -26.3010  -12.9356   20.3353 N   0  0  0  0  0  0
  -25.9324  -11.6507   20.5763 N   0  0  0  0  0  0
  -22.0495  -12.8221   22.0402 N   0  0  0  0  0  0
  -25.4305  -15.1895   20.4085 N   0  0  0  0  0  0
  -31.8382  -14.6629   20.1059 O   0  0  0  0  0  0
  -21.6642   -6.8875   21.4243 O   0  0  0  0  0  0
  -22.3533  -14.5541   20.6695 O   0  0  0  0  0  0
  -24.6195  -31.8668   23.2101 C   0  0  0  0  0  0
  -25.9080  -32.4815   23.8396 C   0  0  1  0  0  0
  -27.2211  -27.3877   20.0961 C   0  0  0  0  0  0
  -25.5928  -33.8614   24.2323 N   0  0  0  0  0  0
  -23.4083  -30.4937   21.5528 C   0  0  2  0  0  0
  -24.8525  -28.9667   20.1101 C   0  0  0  0  0  0
  -22.7441  -29.4653   22.4980 C   0  0  0  0  0  0
  -18.0280  -28.1374   22.8495 C   0  0  0  0  0  0
  -24.1495  -36.7310   23.2634 C   0  0  0  0  0  0
  -25.9449  -30.8174   21.3741 C   0  0  0  0  0  0
  -26.0188  -29.4523   20.7142 C   0  0  0  0  0  0
  -27.2053  -28.6711   20.7061 C   0  0  0  0  0  0
  -26.0328  -26.9519   19.4572 C   0  0  0  0  0  0
  -24.8574  -27.7179   19.4761 C   0  0  0  0  0  0
  -23.6178  -29.8373   20.1645 C   0  0  0  0  0  0
  -25.4116  -36.3104   24.0331 C   0  0  1  0  0  0
  -20.5877  -28.3669   23.1315 C   0  0  2  0  0  0
  -20.6781  -26.9404   22.5417 C   0  0  0  0  0  0
  -19.5753  -26.6386   21.5220 C   0  0  0  0  0  0
  -18.1929  -26.7922   22.1627 C   0  0  0  0  0  0
  -19.1530  -28.8838   23.2900 C   0  0  0  0  0  0
  -18.9452  -30.1446   23.8905 C   0  0  0  0  0  0
  -17.6452  -30.6581   24.0563 C   0  0  0  0  0  0
  -25.9044  -34.9471   23.5119 C   0  0  0  0  0  0
  -16.5344  -29.9077   23.6330 C   0  0  0  0  0  0
  -16.7268  -28.6496   23.0351 C   0  0  0  0  0  0
  -26.4487  -31.6595   25.0732 C   0  0  0  0  0  0
  -25.3740  -31.3711   26.1468 C   0  0  0  0  0  0
  -27.0320  -30.3029   24.6133 C   0  0  0  0  0  0
  -27.6056  -32.4312   25.7503 C   0  0  0  0  0  0
  -27.5583  -37.1815   24.8462 C   0  0  0  0  0  0
  -21.4164  -29.3032   22.3717 N   0  0  0  0  0  0
  -26.4300  -37.3790   23.9400 N   0  0  0  0  0  0
  -24.6759  -31.0737   22.1029 N   0  0  0  0  0  0
  -23.4201  -28.8184   23.3022 O   0  0  0  0  0  0
  -28.3526  -26.5738   20.1510 O   0  0  0  0  0  0
  -26.5596  -34.8920   22.4674 O   0  0  0  0  0  0
  -23.5379  -32.1439   23.7472 O   0  0  0  0  0  0
  -28.9103  -18.8810   18.2882 C   0  0  0  0  0  0
  -29.4046  -17.7592   18.9810 C   0  0  0  0  0  0
  -29.9228  -18.0093   20.2803 C   0  0  0  0  0  0
  -29.4808  -20.2663   19.9961 C   0  0  0  0  0  0
  -30.5257  -16.9287   21.2109 C   0  0  0  0  0  0
  -28.8106  -22.6894   19.8923 C   0  0  0  0  0  0
  -28.1174  -25.1538   19.9310 C   0  0  0  0  0  0
  -29.1716  -24.1132   20.4245 C   0  0  1  0  0  0
  -28.9542  -20.1230   18.7947 N   0  0  0  0  0  0
  -29.9514  -19.2832   20.7614 N   0  0  0  0  0  0
  -29.3977  -16.5132   18.3424 N   0  0  0  0  0  0
  -29.5763  -21.5682   20.4691 N   0  0  0  0  0  0
  -30.0311  -15.5360   21.1018 N   0  0  0  0  0  0
  -29.1151  -24.0444   21.8401 O   0  0  0  0  0  0
  -31.4647  -12.4184   19.1319 H   0  0  0  0  0  0
  -30.3162  -11.3201   19.8428 H   0  0  0  0  0  0
  -29.7408  -11.7821   17.4375 H   0  0  0  0  0  0
  -29.6560  -13.4938   17.7701 H   0  0  0  0  0  0
  -27.8376  -11.3063   18.8348 H   0  0  0  0  0  0
  -27.3649  -12.6206   17.7914 H   0  0  0  0  0  0
  -27.6941  -14.2576   19.5583 H   0  0  0  0  0  0
  -28.6804  -11.9970   21.3654 H   0  0  0  0  0  0
  -28.4581  -13.6493   21.8593 H   0  0  0  0  0  0
  -25.2762   -9.5683   22.4760 H   0  0  0  0  0  0
  -23.9999   -7.4636   22.7477 H   0  0  0  0  0  0
  -21.0837   -8.8766   19.8958 H   0  0  0  0  0  0
  -22.3693  -10.9666   19.6161 H   0  0  0  0  0  0
  -21.2004   -7.6144   23.9710 H   0  0  0  0  0  0
  -21.1489   -6.0529   25.9080 H   0  0  0  0  0  0
  -22.0595   -2.7604   23.2861 H   0  0  0  0  0  0
  -22.4110  -11.9872   22.4774 H   0  0  0  0  0  0
  -21.1120  -13.1253   22.2618 H   0  0  0  0  0  0
  -24.6644  -15.8474   20.5019 H   0  0  0  0  0  0
  -26.2809  -15.6166   20.0608 H   0  0  0  0  0  0
  -26.7145  -32.5507   23.1149 H   0  0  0  0  0  0
  -25.0110  -33.9779   25.0489 H   0  0  0  0  0  0
  -22.6980  -31.3119   21.4180 H   0  0  0  0  0  0
  -23.3752  -35.9649   23.3307 H   0  0  0  0  0  0
  -24.3591  -36.8914   22.2046 H   0  0  0  0  0  0
  -23.7255  -37.6521   23.6641 H   0  0  0  0  0  0
  -26.0684  -31.5850   20.6090 H   0  0  0  0  0  0
  -26.8290  -30.8634   21.9980 H   0  0  0  0  0  0
  -28.0981  -29.0362   21.1936 H   0  0  0  0  0  0
  -25.9747  -26.0082   18.9364 H   0  0  0  0  0  0
  -23.9653  -27.3426   18.9936 H   0  0  0  0  0  0
  -23.7297  -30.6175   19.4108 H   0  0  0  0  0  0
  -22.7397  -29.2628   19.8637 H   0  0  0  0  0  0
  -25.1296  -36.1969   25.0825 H   0  0  0  0  0  0
  -20.9964  -28.3229   24.1438 H   0  0  0  0  0  0
  -20.5720  -26.2261   23.3598 H   0  0  0  0  0  0
  -21.6647  -26.7468   22.1182 H   0  0  0  0  0  0
  -19.6919  -25.6303   21.1233 H   0  0  0  0  0  0
  -19.6695  -27.3214   20.6764 H   0  0  0  0  0  0
  -17.4208  -26.6680   21.4020 H   0  0  0  0  0  0
  -18.0319  -26.0058   22.9015 H   0  0  0  0  0  0
  -19.7925  -30.7265   24.2274 H   0  0  0  0  0  0
  -17.5003  -31.6264   24.5160 H   0  0  0  0  0  0
  -15.5345  -30.2976   23.7654 H   0  0  0  0  0  0
  -15.8670  -28.0819   22.7057 H   0  0  0  0  0  0
  -24.5915  -30.7057   25.7800 H   0  0  0  0  0  0
  -24.8932  -32.2873   26.4908 H   0  0  0  0  0  0
  -25.8085  -30.8882   27.0230 H   0  0  0  0  0  0
  -26.2876  -29.6791   24.1170 H   0  0  0  0  0  0
  -27.4057  -29.7265   25.4605 H   0  0  0  0  0  0
  -27.8729  -30.4333   23.9317 H   0  0  0  0  0  0
  -27.2670  -33.3601   26.2103 H   0  0  0  0  0  0
  -28.3862  -32.6885   25.0332 H   0  0  0  0  0  0
  -28.0725  -31.8418   26.5404 H   0  0  0  0  0  0
  -28.2603  -38.0109   24.7505 H   0  0  0  0  0  0
  -28.1078  -36.2639   24.6300 H   0  0  0  0  0  0
  -27.2296  -37.1476   25.8864 H   0  0  0  0  0  0
  -20.9323  -29.8752   21.6940 H   0  0  0  0  0  0
  -26.0188  -38.2869   24.1392 H   0  0  0  0  0  0
  -28.5027  -18.7874   17.2922 H   0  0  0  0  0  0
  -30.3530  -17.2391   22.2414 H   0  0  0  0  0  0
  -31.6082  -16.9630   21.0834 H   0  0  0  0  0  0
  -28.9367  -22.6884   18.8083 H   0  0  0  0  0  0
  -27.7527  -22.4882   20.0699 H   0  0  0  0  0  0
  -27.1687  -24.8535   20.3805 H   0  0  0  0  0  0
  -28.0110  -25.0208   18.8532 H   0  0  0  0  0  0
  -30.1735  -24.3996   20.0997 H   0  0  0  0  0  0
  -29.2178  -16.5034   17.3411 H   0  0  0  0  0  0
  -30.1280  -15.8568   18.5985 H   0  0  0  0  0  0
  -29.8956  -21.6865   21.4239 H   0  0  0  0  0  0
  -29.0792  -15.3741   21.3881 H   0  0  0  0  0  0
  -29.2738  -24.9264   22.1654 H   0  0  0  0  0  0
  1 25  1  0  0  0
  1 30  2  0  0  0
  1 83  1  0  0  0
  2  3  1  0  0  0
  2 25  1  0  0  0
  2 85  1  0  0  0
  2 86  1  0  0  0
  3  4  1  0  0  0
  3 87  1  0  0  0
  3 88  1  0  0  0
  4  5  1  0  0  0
  4 89  1  0  0  0
  4 90  1  0  0  0
  5  6  1  0  0  0
  5 26  1  0  0  0
  5 91  1  0  0  0
  6 25  1  0  0  0
  6 92  1  0  0  0
  6 93  1  0  0  0
  7  8  2  0  0  0
  7 26  1  0  0  0
  7 29  1  0  0  0
  8  9  1  0  0  0
  8 22  1  0  0  0
  9 10  1  0  0  0
  9 27  2  0  0  0
 10 11  2  0  0  0
 10 15  1  0  0  0
 11 12  1  0  0  0
 11 94  1  0  0  0
 12 13  2  0  0  0
 12 95  1  0  0  0
 13 14  1  0  0  0
 13 31  1  0  0  0
 14 15  2  0  0  0
 14 96  1  0  0  0
 15 97  1  0  0  0
 16 17  2  0  0  0
 16 21  1  0  0  0
 16 31  1  0  0  0
 17 18  1  0  0  0
 17 98  1  0  0  0
 18 19  2  0  0  0
 18 99  1  0  0  0
 19 20  1  0  0  0
 19 24  1  0  0  0
 20 21  2  0  0  0
 20100  1  0  0  0
 21 23  1  0  0  0
 22 28  1  0  0  0
 22 32  2  0  0  0
 26 27  1  0  0  0
 28101  1  0  0  0
 28102  1  0  0  0
 29103  1  0  0  0
 29104  1  0  0  0
 33 34  1  0  0  0
 33 66  1  0  0  0
 33 70  2  0  0  0
 34 36  1  0  0  0
 34 59  1  0  0  0
 34105  1  0  0  0
 35 44  2  0  0  0
 35 45  1  0  0  0
 35 68  1  0  0  0
 36 56  1  0  0  0
 36106  1  0  0  0
 37 39  1  0  0  0
 37 47  1  0  0  0
 37 66  1  0  0  0
 37107  1  0  0  0
 38 43  2  0  0  0
 38 46  1  0  0  0
 38 47  1  0  0  0
 39 64  1  0  0  0
 39 67  2  0  0  0
 40 52  1  0  0  0
 40 53  2  0  0  0
 40 58  1  0  0  0
 41108  1  0  0  0
 41109  1  0  0  0
 41110  1  0  0  0
 41 48  1  0  0  0
 42 43  1  0  0  0
 42 66  1  0  0  0
 42111  1  0  0  0
 42112  1  0  0  0
 43 44  1  0  0  0
 44113  1  0  0  0
 45 46  2  0  0  0
 45114  1  0  0  0
 46115  1  0  0  0
 47116  1  0  0  0
 47117  1  0  0  0
 48 56  1  0  0  0
 48 65  1  0  0  0
 48118  1  0  0  0
 49 50  1  0  0  0
 49 53  1  0  0  0
 49 64  1  0  0  0
 49119  1  0  0  0
 50 51  1  0  0  0
 50120  1  0  0  0
 50121  1  0  0  0
 51 52  1  0  0  0
 51122  1  0  0  0
 51123  1  0  0  0
 52124  1  0  0  0
 52125  1  0  0  0
 53 54  1  0  0  0
 54 55  2  0  0  0
 54126  1  0  0  0
 55 57  1  0  0  0
 55127  1  0  0  0
 56 69  2  0  0  0
 57 58  2  0  0  0
 57128  1  0  0  0
 58129  1  0  0  0
 59 60  1  0  0  0
 59 61  1  0  0  0
 59 62  1  0  0  0
 60130  1  0  0  0
 60131  1  0  0  0
 60132  1  0  0  0
 61133  1  0  0  0
 61134  1  0  0  0
 61135  1  0  0  0
 62136  1  0  0  0
 62137  1  0  0  0
 62138  1  0  0  0
 63 65  1  0  0  0
 63139  1  0  0  0
 63140  1  0  0  0
 63141  1  0  0  0
 64142  1  0  0  0
 65143  1  0  0  0
 68 77  1  0  0  0
 71 72  2  0  0  0
 71 79  1  0  0  0
 71144  1  0  0  0
 72 73  1  0  0  0
 72 81  1  0  0  0
 73 75  1  0  0  0
 73 80  2  0  0  0
 74 79  2  0  0  0
 74 80  1  0  0  0
 74 82  1  0  0  0
 75 83  1  0  0  0
 75145  1  0  0  0
 75146  1  0  0  0
 76 78  1  0  0  0
 76 82  1  0  0  0
 76147  1  0  0  0
 76148  1  0  0  0
 77 78  1  0  0  0
 77149  1  0  0  0
 77150  1  0  0  0
 78 84  1  0  0  0
 78151  1  0  0  0
 81152  1  0  0  0
 81153  1  0  0  0
 82154  1  0  0  0
 83155  1  0  0  0
 84156  1  0  0  0
M  ISO  4   1 100  68 101  77 101  83 100
M  END
> <chiral flag>
0

> <version>
0

> <s_m_source_file>
/data/baiqing/PycharmProjects/Reinvent-master-3.2/result/LINK_invent/BTK/process_docking_weight1_custom_product_contain_oxygen_bond_distance_aromatic_linkinvent_7_9_3/rearranged_h_0194.sdf

> <i_m_source_file_index>
1

> <r_mmod_Potential_Energy-OPLS-2005>
-682.944458007812

> <r_mmod_Stretch_Energy-OPLS-2005>
45.7648506164551

> <r_mmod_Bend_Energy-OPLS-2005>
116.559600830078

> <r_mmod_Torsional_Energy-OPLS-2005>
217.362426757812

> <r_mmod_Improper_Torsional_Energy-OPLS-2005>
8.72024059295654

> <r_mmod_Van_der_Waal_Energy-OPLS-2005>
173.350845336914

> <r_mmod_Electrostatic_Energy-OPLS-2005>
-1013.19995117188

> <r_mmod_Solvation_Energy-OPLS-2005>
-253.042144775391

> <b_mmod_Minimization_Converged-OPLS-2005>
0

> <r_mmod_RMS_Derivative-OPLS-2005>
0.846407473087311

$$$$
1
                    3D
 Structure written by MMmdl.
163171  0  0  1  0            999 V2000
  -30.5940  -14.7541   20.4301 C   0  0  0  0  0  0
  -30.4333  -12.4492   19.4826 C   0  0  0  0  0  0
  -29.5182  -12.5024   18.2378 C   0  0  0  0  0  0
  -28.0401  -12.3378   18.6396 C   0  0  0  0  0  0
  -27.6414  -13.2332   19.8435 C   0  0  2  0  0  0
  -28.6821  -13.1619   20.9831 C   0  0  0  0  0  0
  -25.2493  -13.8192   20.5659 C   0  0  0  0  0  0
  -24.1784  -13.0441   20.9192 C   0  0  0  0  0  0
  -24.6380  -11.6929   20.8709 C   0  0  0  0  0  0
  -23.9055  -10.4299   21.0366 C   0  0  0  0  0  0
  -24.3612   -9.4220   21.9150 C   0  0  0  0  0  0
  -23.6293   -8.2257   22.0741 C   0  0  0  0  0  0
  -22.4273   -8.0276   21.3548 C   0  0  0  0  0  0
  -21.9896   -9.0238   20.4645 C   0  0  0  0  0  0
  -22.7222  -10.2119   20.3037 C   0  0  0  0  0  0
  -21.6860   -6.0722   22.5268 C   0  0  0  0  0  0
  -21.4008   -6.5627   23.8201 C   0  0  0  0  0  0
  -21.3669   -5.6768   24.9166 C   0  0  0  0  0  0
  -21.6054   -4.3033   24.7214 C   0  0  0  0  0  0
  -21.8822   -3.8130   23.4336 C   0  0  0  0  0  0
  -21.9199   -4.6948   22.3395 C   0  0  0  0  0  0
  -22.7797  -13.5211   21.1866 C   0  0  0  0  0  0
  -22.1664   -4.2135   21.0979 F   0  0  0  0  0  0
  -21.5648   -3.4532   25.7734 F   0  0  0  0  0  0
  -29.9917  -13.5124   20.4169 N   0  0  0  0  0  0
  -26.2921  -12.9407   20.3196 N   0  0  0  0  0  0
  -25.9302  -11.6554   20.5677 N   0  0  0  0  0  0
  -22.0432  -12.8222   22.0438 N   0  0  0  0  0  0
  -25.4204  -15.1918   20.4062 N   0  0  0  0  0  0
  -31.7729  -14.8576   20.0673 O   0  0  0  0  0  0
  -21.6646   -6.8867   21.4236 O   0  0  0  0  0  0
  -22.3480  -14.5510   20.6712 O   0  0  0  0  0  0
  -24.6315  -31.8564   23.1995 C   0  0  0  0  0  0
  -25.9129  -32.4755   23.8364 C   0  0  1  0  0  0
  -27.2107  -27.2428   20.1350 C   0  0  0  0  0  0
  -25.5922  -33.8562   24.2284 N   0  0  0  0  0  0
  -23.4337  -30.4786   21.5412 C   0  0  2  0  0  0
  -24.8842  -28.9348   20.1042 C   0  0  0  0  0  0
  -22.7528  -29.4599   22.4888 C   0  0  0  0  0  0
  -18.0299  -28.1380   22.8479 C   0  0  0  0  0  0
  -24.1487  -36.7274   23.2643 C   0  0  0  0  0  0
  -25.9832  -30.7646   21.3867 C   0  0  0  0  0  0
  -26.0563  -29.3889   20.7203 C   0  0  0  0  0  0
  -27.2240  -28.5549   20.7265 C   0  0  0  0  0  0
  -26.0294  -26.8902   19.4439 C   0  0  0  0  0  0
  -24.8764  -27.6955   19.4522 C   0  0  0  0  0  0
  -23.6550  -29.8201   20.1556 C   0  0  0  0  0  0
  -25.4110  -36.3074   24.0340 C   0  0  1  0  0  0
  -20.5903  -28.3701   23.1247 C   0  0  2  0  0  0
  -20.6781  -26.9411   22.5400 C   0  0  0  0  0  0
  -19.5750  -26.6373   21.5210 C   0  0  0  0  0  0
  -18.1935  -26.7929   22.1618 C   0  0  0  0  0  0
  -19.1554  -28.8855   23.2862 C   0  0  0  0  0  0
  -18.9482  -30.1455   23.8883 C   0  0  0  0  0  0
  -17.6479  -30.6586   24.0549 C   0  0  0  0  0  0
  -25.9056  -34.9443   23.5119 C   0  0  0  0  0  0
  -16.5373  -29.9084   23.6323 C   0  0  0  0  0  0
  -16.7283  -28.6500   23.0354 C   0  0  0  0  0  0
  -26.4484  -31.6576   25.0758 C   0  0  0  0  0  0
  -25.3692  -31.3769   26.1473 C   0  0  0  0  0  0
  -27.0339  -30.2981   24.6278 C   0  0  0  0  0  0
  -27.6040  -32.4328   25.7520 C   0  0  0  0  0  0
  -27.5585  -37.1788   24.8460 C   0  0  0  0  0  0
  -21.4234  -29.3053   22.3635 N   0  0  0  0  0  0
  -26.4291  -37.3768   23.9421 N   0  0  0  0  0  0
  -24.7013  -31.0507   22.0981 N   0  0  0  0  0  0
  -23.4219  -28.8136   23.2998 O   0  0  0  0  0  0
  -28.2612  -26.2896   20.2617 O   0  0  0  0  0  0
  -26.5627  -34.8904   22.4690 O   0  0  0  0  0  0
  -23.5449  -32.1403   23.7252 O   0  0  0  0  0  0
  -29.3364  -17.0692   18.6736 C   0  0  0  0  0  0
  -29.0155  -18.2533   17.9894 C   0  0  0  0  0  0
  -29.6721  -17.1627   20.0436 C   0  0  0  0  0  0
  -29.3313  -19.5490   19.8490 C   0  0  0  0  0  0
  -29.7172  -22.3756   18.3871 C   0  0  0  0  0  0
  -29.7100  -22.8793   15.8674 C   0  0  0  0  0  0
  -26.8459  -24.4913   21.2812 C   0  0  0  0  0  0
  -28.9773  -23.0189   17.2129 C   0  0  0  0  0  0
  -29.0534  -23.6321   20.4853 C   0  0  0  0  0  0
  -28.9333  -22.1961   19.7045 C   0  0  2  0  0  0
  -27.9435  -24.7991   20.2322 C   0  0  2  0  0  0
  -28.9908  -19.4602   18.5698 N   0  0  0  0  0  0
  -29.6477  -18.4486   20.6077 N   0  0  0  0  0  0
  -28.6832  -18.2197   16.6416 N   0  0  0  0  0  0
  -29.8314  -15.8675   20.7561 N   0  0  0  0  0  0
  -29.3256  -20.8828   20.3973 N   0  0  0  0  0  0
  -30.9094  -22.0668   18.2811 O   0  0  0  0  0  0
  -29.2683  -15.8752   18.0326 F   0  0  0  0  0  0
  -31.4762  -12.5672   19.1834 H   0  0  0  0  0  0
  -30.3715  -11.4726   19.9656 H   0  0  0  0  0  0
  -29.8032  -11.7219   17.5311 H   0  0  0  0  0  0
  -29.6595  -13.4493   17.7161 H   0  0  0  0  0  0
  -27.8871  -11.2893   18.8923 H   0  0  0  0  0  0
  -27.3932  -12.5419   17.7848 H   0  0  0  0  0  0
  -27.6368  -14.2565   19.4664 H   0  0  0  0  0  0
  -28.7102  -12.1630   21.4201 H   0  0  0  0  0  0
  -28.4051  -13.8392   21.7916 H   0  0  0  0  0  0
  -25.2757   -9.5715   22.4717 H   0  0  0  0  0  0
  -24.0021   -7.4646   22.7459 H   0  0  0  0  0  0
  -21.0821   -8.8732   19.8961 H   0  0  0  0  0  0
  -22.3648  -10.9642   19.6139 H   0  0  0  0  0  0
  -21.1985   -7.6132   23.9704 H   0  0  0  0  0  0
  -21.1492   -6.0502   25.9067 H   0  0  0  0  0  0
  -22.0598   -2.7598   23.2837 H   0  0  0  0  0  0
  -22.4024  -11.9908   22.4894 H   0  0  0  0  0  0
  -21.1027  -13.1248   22.2580 H   0  0  0  0  0  0
  -24.6544  -15.8489   20.5077 H   0  0  0  0  0  0
  -26.2553  -15.6189   20.0301 H   0  0  0  0  0  0
  -26.7216  -32.5404   23.1124 H   0  0  0  0  0  0
  -25.0023  -33.9714   25.0399 H   0  0  0  0  0  0
  -22.7307  -31.3010   21.3934 H   0  0  0  0  0  0
  -23.3762  -35.9585   23.3278 H   0  0  0  0  0  0
  -24.3595  -36.8917   22.2064 H   0  0  0  0  0  0
  -23.7215  -37.6462   23.6676 H   0  0  0  0  0  0
  -26.1343  -31.5338   20.6279 H   0  0  0  0  0  0
  -26.8558  -30.8060   22.0271 H   0  0  0  0  0  0
  -28.1152  -28.8929   21.2371 H   0  0  0  0  0  0
  -25.9466  -25.9467   18.9282 H   0  0  0  0  0  0
  -23.9836  -27.3477   18.9519 H   0  0  0  0  0  0
  -23.7780  -30.6007   19.4036 H   0  0  0  0  0  0
  -22.7762  -29.2529   19.8474 H   0  0  0  0  0  0
  -25.1291  -36.1927   25.0833 H   0  0  0  0  0  0
  -21.0005  -28.3279   24.1364 H   0  0  0  0  0  0
  -20.5650  -26.2329   23.3616 H   0  0  0  0  0  0
  -21.6647  -26.7407   22.1204 H   0  0  0  0  0  0
  -19.6909  -25.6280   21.1252 H   0  0  0  0  0  0
  -19.6683  -27.3170   20.6728 H   0  0  0  0  0  0
  -17.4202  -26.6663   21.4024 H   0  0  0  0  0  0
  -18.0327  -26.0080   22.9021 H   0  0  0  0  0  0
  -19.7970  -30.7261   24.2244 H   0  0  0  0  0  0
  -17.5046  -31.6265   24.5161 H   0  0  0  0  0  0
  -15.5366  -30.2981   23.7665 H   0  0  0  0  0  0
  -15.8682  -28.0810   22.7079 H   0  0  0  0  0  0
  -24.5838  -30.7147   25.7817 H   0  0  0  0  0  0
  -24.8896  -32.2952   26.4876 H   0  0  0  0  0  0
  -25.7970  -30.8961   27.0276 H   0  0  0  0  0  0
  -26.2956  -29.6726   24.1242 H   0  0  0  0  0  0
  -27.3955  -29.7246   25.4829 H   0  0  0  0  0  0
  -27.8857  -30.4257   23.9589 H   0  0  0  0  0  0
  -27.2643  -33.3628   26.2091 H   0  0  0  0  0  0
  -28.3822  -32.6896   25.0324 H   0  0  0  0  0  0
  -28.0720  -31.8462   26.5432 H   0  0  0  0  0  0
  -28.2577  -38.0113   24.7542 H   0  0  0  0  0  0
  -28.1116  -36.2650   24.6237 H   0  0  0  0  0  0
  -27.2321  -37.1362   25.8868 H   0  0  0  0  0  0
  -20.9418  -29.8800   21.6854 H   0  0  0  0  0  0
  -26.0169  -38.2842   24.1437 H   0  0  0  0  0  0
  -29.0917  -23.2427   15.0467 H   0  0  0  0  0  0
  -29.9535  -21.8367   15.6598 H   0  0  0  0  0  0
  -30.6409  -23.4475   15.8602 H   0  0  0  0  0  0
  -26.5832  -23.4327   21.2659 H   0  0  0  0  0  0
  -25.9137  -25.0318   21.1386 H   0  0  0  0  0  0
  -27.1974  -24.7254   22.2864 H   0  0  0  0  0  0
  -28.8317  -24.0745   17.4363 H   0  0  0  0  0  0
  -27.9877  -22.5676   17.1451 H   0  0  0  0  0  0
  -30.0293  -24.0697   20.2684 H   0  0  0  0  0  0
  -29.1120  -23.4311   21.5539 H   0  0  0  0  0  0
  -27.8812  -22.0646   19.4482 H   0  0  0  0  0  0
  -27.5498  -24.5989   19.2390 H   0  0  0  0  0  0
  -28.4716  -17.3153   16.2406 H   0  0  0  0  0  0
  -28.1939  -19.0042   16.2314 H   0  0  0  0  0  0
  -29.0042  -15.6169   21.2706 H   0  0  0  0  0  0
  -29.5793  -20.9424   21.3736 H   0  0  0  0  0  0
  1 25  1  0  0  0
  1 30  2  0  0  0
  1 85  1  0  0  0
  2  3  1  0  0  0
  2 25  1  0  0  0
  2 89  1  0  0  0
  2 90  1  0  0  0
  3  4  1  0  0  0
  3 91  1  0  0  0
  3 92  1  0  0  0
  4  5  1  0  0  0
  4 93  1  0  0  0
  4 94  1  0  0  0
  5  6  1  0  0  0
  5 26  1  0  0  0
  5 95  1  0  0  0
  6 25  1  0  0  0
  6 96  1  0  0  0
  6 97  1  0  0  0
  7  8  2  0  0  0
  7 26  1  0  0  0
  7 29  1  0  0  0
  8  9  1  0  0  0
  8 22  1  0  0  0
  9 10  1  0  0  0
  9 27  2  0  0  0
 10 11  2  0  0  0
 10 15  1  0  0  0
 11 12  1  0  0  0
 11 98  1  0  0  0
 12 13  2  0  0  0
 12 99  1  0  0  0
 13 14  1  0  0  0
 13 31  1  0  0  0
 14 15  2  0  0  0
 14100  1  0  0  0
 15101  1  0  0  0
 16 17  2  0  0  0
 16 21  1  0  0  0
 16 31  1  0  0  0
 17 18  1  0  0  0
 17102  1  0  0  0
 18 19  2  0  0  0
 18103  1  0  0  0
 19 20  1  0  0  0
 19 24  1  0  0  0
 20 21  2  0  0  0
 20104  1  0  0  0
 21 23  1  0  0  0
 22 28  1  0  0  0
 22 32  2  0  0  0
 26 27  1  0  0  0
 28105  1  0  0  0
 28106  1  0  0  0
 29107  1  0  0  0
 29108  1  0  0  0
 33 34  1  0  0  0
 33 66  1  0  0  0
 33 70  2  0  0  0
 34 36  1  0  0  0
 34 59  1  0  0  0
 34109  1  0  0  0
 35 44  2  0  0  0
 35 45  1  0  0  0
 35 68  1  0  0  0
 36 56  1  0  0  0
 36110  1  0  0  0
 37 39  1  0  0  0
 37 47  1  0  0  0
 37 66  1  0  0  0
 37111  1  0  0  0
 38 43  2  0  0  0
 38 46  1  0  0  0
 38 47  1  0  0  0
 39 64  1  0  0  0
 39 67  2  0  0  0
 40 52  1  0  0  0
 40 53  2  0  0  0
 40 58  1  0  0  0
 41112  1  0  0  0
 41113  1  0  0  0
 41114  1  0  0  0
 41 48  1  0  0  0
 42 43  1  0  0  0
 42 66  1  0  0  0
 42115  1  0  0  0
 42116  1  0  0  0
 43 44  1  0  0  0
 44117  1  0  0  0
 45 46  2  0  0  0
 45118  1  0  0  0
 46119  1  0  0  0
 47120  1  0  0  0
 47121  1  0  0  0
 48 56  1  0  0  0
 48 65  1  0  0  0
 48122  1  0  0  0
 49 50  1  0  0  0
 49 53  1  0  0  0
 49 64  1  0  0  0
 49123  1  0  0  0
 50 51  1  0  0  0
 50124  1  0  0  0
 50125  1  0  0  0
 51 52  1  0  0  0
 51126  1  0  0  0
 51127  1  0  0  0
 52128  1  0  0  0
 52129  1  0  0  0
 53 54  1  0  0  0
 54 55  2  0  0  0
 54130  1  0  0  0
 55 57  1  0  0  0
 55131  1  0  0  0
 56 69  2  0  0  0
 57 58  2  0  0  0
 57132  1  0  0  0
 58133  1  0  0  0
 59 60  1  0  0  0
 59 61  1  0  0  0
 59 62  1  0  0  0
 60134  1  0  0  0
 60135  1  0  0  0
 60136  1  0  0  0
 61137  1  0  0  0
 61138  1  0  0  0
 61139  1  0  0  0
 62140  1  0  0  0
 62141  1  0  0  0
 62142  1  0  0  0
 63 65  1  0  0  0
 63143  1  0  0  0
 63144  1  0  0  0
 63145  1  0  0  0
 64146  1  0  0  0
 65147  1  0  0  0
 68 81  1  0  0  0
 71 72  2  0  0  0
 71 73  1  0  0  0
 71 88  1  0  0  0
 72 82  1  0  0  0
 72 84  1  0  0  0
 73 83  2  0  0  0
 73 85  1  0  0  0
 74 82  2  0  0  0
 74 83  1  0  0  0
 74 86  1  0  0  0
 75 78  1  0  0  0
 75 80  1  0  0  0
 75 87  2  0  0  0
 76 78  1  0  0  0
 76148  1  0  0  0
 76149  1  0  0  0
 76150  1  0  0  0
 77151  1  0  0  0
 77152  1  0  0  0
 77153  1  0  0  0
 77 81  1  0  0  0
 78154  1  0  0  0
 78155  1  0  0  0
 79 81  1  0  0  0
 79156  1  0  0  0
 79157  1  0  0  0
 79 80  1  0  0  0
 80 86  1  0  0  0
 80158  1  0  0  0
 81159  1  0  0  0
 84160  1  0  0  0
 84161  1  0  0  0
 85162  1  0  0  0
 86163  1  0  0  0
M  ISO  4   1 100  68 101  81 101  85 100
M  END
> <chiral flag>
0

> <version>
0

> <s_m_source_file>
/data/baiqing/PycharmProjects/Reinvent-master-3.2/result/LINK_invent/BTK/process_docking_weight1_custom_product_contain_oxygen_bond_distance_aromatic_linkinvent_7_9_3/rearranged_h_0194.sdf

> <i_m_source_file_index>
2

> <r_mmod_Potential_Energy-OPLS-2005>
-325.746704101562

> <r_mmod_Stretch_Energy-OPLS-2005>
140.989562988281

> <r_mmod_Bend_Energy-OPLS-2005>
184.040344238281

> <r_mmod_Torsional_Energy-OPLS-2005>
256.290130615234

> <r_mmod_Improper_Torsional_Energy-OPLS-2005>
8.62501907348633

> <r_mmod_Van_der_Waal_Energy-OPLS-2005>
155.905197143555

> <r_mmod_Electrostatic_Energy-OPLS-2005>
-914.762634277344

> <r_mmod_Solvation_Energy-OPLS-2005>
-257.55712890625

> <b_mmod_Minimization_Converged-OPLS-2005>
0

> <r_mmod_RMS_Derivative-OPLS-2005>
2.97957277297974

$$$$
2
                    3D
 Structure written by MMmdl.
153161  0  0  1  0            999 V2000
  -30.6095  -14.7600   20.4607 C   0  0  0  0  0  0
  -30.4340  -12.4572   19.4894 C   0  0  0  0  0  0
  -29.5207  -12.5137   18.2460 C   0  0  0  0  0  0
  -28.0396  -12.3523   18.6441 C   0  0  0  0  0  0
  -27.6443  -13.2388   19.8569 C   0  0  2  0  0  0
  -28.6879  -13.1726   20.9930 C   0  0  0  0  0  0
  -25.2482  -13.8143   20.5650 C   0  0  0  0  0  0
  -24.1783  -13.0398   20.9158 C   0  0  0  0  0  0
  -24.6406  -11.6892   20.8712 C   0  0  0  0  0  0
  -23.9073  -10.4276   21.0378 C   0  0  0  0  0  0
  -24.3631   -9.4204   21.9166 C   0  0  0  0  0  0
  -23.6303   -8.2252   22.0743 C   0  0  0  0  0  0
  -22.4287   -8.0275   21.3544 C   0  0  0  0  0  0
  -21.9911   -9.0236   20.4641 C   0  0  0  0  0  0
  -22.7243  -10.2115   20.3037 C   0  0  0  0  0  0
  -21.6855   -6.0723   22.5275 C   0  0  0  0  0  0
  -21.4017   -6.5622   23.8203 C   0  0  0  0  0  0
  -21.3684   -5.6781   24.9172 C   0  0  0  0  0  0
  -21.6056   -4.3041   24.7223 C   0  0  0  0  0  0
  -21.8825   -3.8141   23.4345 C   0  0  0  0  0  0
  -21.9192   -4.6953   22.3404 C   0  0  0  0  0  0
  -22.7818  -13.5198   21.1834 C   0  0  0  0  0  0
  -22.1654   -4.2146   21.0979 F   0  0  0  0  0  0
  -21.5640   -3.4520   25.7733 F   0  0  0  0  0  0
  -29.9898  -13.5265   20.4145 N   0  0  0  0  0  0
  -26.2963  -12.9410   20.3318 N   0  0  0  0  0  0
  -25.9353  -11.6546   20.5783 N   0  0  0  0  0  0
  -22.0474  -12.8178   22.0403 N   0  0  0  0  0  0
  -25.4055  -15.1854   20.4047 N   0  0  0  0  0  0
  -31.7990  -14.8374   20.1411 O   0  0  0  0  0  0
  -21.6657   -6.8870   21.4239 O   0  0  0  0  0  0
  -22.3512  -14.5511   20.6689 O   0  0  0  0  0  0
  -24.6305  -31.8577   23.1953 C   0  0  0  0  0  0
  -25.9143  -32.4766   23.8308 C   0  0  1  0  0  0
  -27.2296  -27.2612   20.1375 C   0  0  0  0  0  0
  -25.5968  -33.8556   24.2272 N   0  0  0  0  0  0
  -23.4281  -30.4764   21.5388 C   0  0  2  0  0  0
  -24.8802  -28.9196   20.1114 C   0  0  0  0  0  0
  -22.7512  -29.4611   22.4904 C   0  0  0  0  0  0
  -18.0305  -28.1376   22.8481 C   0  0  0  0  0  0
  -24.1504  -36.7279   23.2632 C   0  0  0  0  0  0
  -25.9712  -30.7707   21.3722 C   0  0  0  0  0  0
  -26.0498  -29.3891   20.7227 C   0  0  0  0  0  0
  -27.2291  -28.5743   20.7212 C   0  0  0  0  0  0
  -26.0412  -26.8633   19.4887 C   0  0  0  0  0  0
  -24.8816  -27.6645   19.4818 C   0  0  0  0  0  0
  -23.6480  -29.8052   20.1563 C   0  0  0  0  0  0
  -25.4133  -36.3069   24.0321 C   0  0  1  0  0  0
  -20.5909  -28.3698   23.1271 C   0  0  2  0  0  0
  -20.6802  -26.9423   22.5404 C   0  0  0  0  0  0
  -19.5774  -26.6381   21.5216 C   0  0  0  0  0  0
  -18.1951  -26.7920   22.1620 C   0  0  0  0  0  0
  -19.1557  -28.8854   23.2875 C   0  0  0  0  0  0
  -18.9470  -30.1455   23.8889 C   0  0  0  0  0  0
  -17.6467  -30.6576   24.0555 C   0  0  0  0  0  0
  -25.9072  -34.9439   23.5098 C   0  0  0  0  0  0
  -16.5363  -29.9070   23.6312 C   0  0  0  0  0  0
  -16.7291  -28.6488   23.0336 C   0  0  0  0  0  0
  -26.4501  -31.6549   25.0670 C   0  0  0  0  0  0
  -25.3716  -31.3654   26.1372 C   0  0  0  0  0  0
  -27.0356  -30.2983   24.6103 C   0  0  0  0  0  0
  -27.6077  -32.4250   25.7451 C   0  0  0  0  0  0
  -27.5593  -37.1803   24.8457 C   0  0  0  0  0  0
  -21.4219  -29.3046   22.3653 N   0  0  0  0  0  0
  -26.4302  -37.3779   23.9403 N   0  0  0  0  0  0
  -24.6962  -31.0541   22.0924 N   0  0  0  0  0  0
  -23.4204  -28.8179   23.3035 O   0  0  0  0  0  0
  -28.3245  -26.3627   20.1516 O   0  0  0  0  0  0
  -26.5628  -34.8919   22.4657 O   0  0  0  0  0  0
  -23.5466  -32.1405   23.7246 O   0  0  0  0  0  0
  -26.5683  -18.1897   21.2255 C   0  0  0  0  0  0
  -28.8263  -18.1989   20.7555 C   0  0  0  0  0  0
  -28.5448  -19.6238   20.7034 C   0  0  0  0  0  0
  -30.0711  -17.2523   20.5842 C   0  0  0  0  0  0
  -29.4627  -22.4106   22.3727 C   0  0  0  0  0  0
  -28.9270  -23.6294   20.1491 C   0  0  0  0  0  0
  -28.0976  -24.9511   20.6375 C   0  0  0  0  0  0
  -28.7797  -22.2476   21.0044 C   0  0  1  0  0  0
  -27.6610  -17.4606   21.0535 N   0  0  0  0  0  0
  -29.2268  -20.8935   20.4341 N   0  0  0  0  0  0
  -29.8166  -15.8811   20.6654 N   0  0  0  0  0  0
  -31.1986  -17.7188   20.3854 O   0  0  0  0  0  0
  -26.8239  -19.8832   21.0037 S   0  0  0  0  0  0
  -31.4794  -12.5660   19.1936 H   0  0  0  0  0  0
  -30.3599  -11.4823   19.9724 H   0  0  0  0  0  0
  -29.8030  -11.7304   17.5407 H   0  0  0  0  0  0
  -29.6660  -13.4632   17.7311 H   0  0  0  0  0  0
  -27.8755  -11.2996   18.8767 H   0  0  0  0  0  0
  -27.3952  -12.5745   17.7931 H   0  0  0  0  0  0
  -27.6344  -14.2655   19.4919 H   0  0  0  0  0  0
  -28.7242  -12.1743   21.4306 H   0  0  0  0  0  0
  -28.4197  -13.8515   21.8037 H   0  0  0  0  0  0
  -25.2758   -9.5678   22.4753 H   0  0  0  0  0  0
  -24.0003   -7.4644   22.7452 H   0  0  0  0  0  0
  -21.0848   -8.8738   19.8959 H   0  0  0  0  0  0
  -22.3668  -10.9648   19.6154 H   0  0  0  0  0  0
  -21.1998   -7.6126   23.9701 H   0  0  0  0  0  0
  -21.1513   -6.0512   25.9072 H   0  0  0  0  0  0
  -22.0585   -2.7603   23.2841 H   0  0  0  0  0  0
  -22.4060  -11.9813   22.4764 H   0  0  0  0  0  0
  -21.1109  -13.1211   22.2642 H   0  0  0  0  0  0
  -24.6153  -15.8130   20.4913 H   0  0  0  0  0  0
  -26.2702  -15.6595   20.1747 H   0  0  0  0  0  0
  -26.7197  -32.5425   23.1038 H   0  0  0  0  0  0
  -25.0117  -33.9692   25.0419 H   0  0  0  0  0  0
  -22.7249  -31.2983   21.3912 H   0  0  0  0  0  0
  -23.3783  -35.9593   23.3264 H   0  0  0  0  0  0
  -24.3608  -36.8929   22.2053 H   0  0  0  0  0  0
  -23.7226  -37.6462   23.6669 H   0  0  0  0  0  0
  -26.1015  -31.5285   20.5982 H   0  0  0  0  0  0
  -26.8507  -30.8291   21.9997 H   0  0  0  0  0  0
  -28.1255  -28.9378   21.2027 H   0  0  0  0  0  0
  -26.0001  -25.9087   18.9829 H   0  0  0  0  0  0
  -23.9897  -27.3047   18.9884 H   0  0  0  0  0  0
  -23.7694  -30.5797   19.3985 H   0  0  0  0  0  0
  -22.7673  -29.2349   19.8531 H   0  0  0  0  0  0
  -25.1310  -36.1914   25.0811 H   0  0  0  0  0  0
  -20.9998  -28.3273   24.1394 H   0  0  0  0  0  0
  -20.5723  -26.2320   23.3612 H   0  0  0  0  0  0
  -21.6668  -26.7466   22.1192 H   0  0  0  0  0  0
  -19.6946  -25.6290   21.1249 H   0  0  0  0  0  0
  -19.6701  -27.3186   20.6739 H   0  0  0  0  0  0
  -17.4241  -26.6680   21.4003 H   0  0  0  0  0  0
  -18.0342  -26.0049   22.9003 H   0  0  0  0  0  0
  -19.7946  -30.7279   24.2252 H   0  0  0  0  0  0
  -17.5013  -31.6251   24.5163 H   0  0  0  0  0  0
  -15.5357  -30.2963   23.7631 H   0  0  0  0  0  0
  -15.8699  -28.0796   22.7040 H   0  0  0  0  0  0
  -24.5929  -30.6983   25.7653 H   0  0  0  0  0  0
  -24.8863  -32.2799   26.4783 H   0  0  0  0  0  0
  -25.8016  -30.8819   27.0152 H   0  0  0  0  0  0
  -26.2923  -29.6716   24.1159 H   0  0  0  0  0  0
  -27.4124  -29.7234   25.4574 H   0  0  0  0  0  0
  -27.8762  -30.4300   23.9282 H   0  0  0  0  0  0
  -27.2728  -33.3567   26.2018 H   0  0  0  0  0  0
  -28.3900  -32.6760   25.0272 H   0  0  0  0  0  0
  -28.0727  -31.8354   26.5366 H   0  0  0  0  0  0
  -28.2577  -38.0137   24.7554 H   0  0  0  0  0  0
  -28.1127  -36.2668   24.6223 H   0  0  0  0  0  0
  -27.2318  -37.1366   25.8862 H   0  0  0  0  0  0
  -20.9421  -29.8754   21.6828 H   0  0  0  0  0  0
  -26.0177  -38.2854   24.1401 H   0  0  0  0  0  0
  -25.6136  -17.7436   21.4664 H   0  0  0  0  0  0
  -29.1058  -23.2888   22.9107 H   0  0  0  0  0  0
  -30.5441  -22.5098   22.2691 H   0  0  0  0  0  0
  -29.2777  -21.5472   23.0132 H   0  0  0  0  0  0
  -29.9838  -23.8899   20.0855 H   0  0  0  0  0  0
  -28.6238  -23.4232   19.1224 H   0  0  0  0  0  0
  -28.2280  -25.0239   21.7172 H   0  0  0  0  0  0
  -27.0463  -24.6892   20.5238 H   0  0  0  0  0  0
  -27.7145  -22.2150   21.2176 H   0  0  0  0  0  0
  -30.1895  -20.8558   20.1030 H   0  0  0  0  0  0
  -28.8453  -15.7074   20.8693 H   0  0  0  0  0  0
  1 25  1  0  0  0
  1 30  2  0  0  0
  1 81  1  0  0  0
  2  3  1  0  0  0
  2 25  1  0  0  0
  2 84  1  0  0  0
  2 85  1  0  0  0
  3  4  1  0  0  0
  3 86  1  0  0  0
  3 87  1  0  0  0
  4  5  1  0  0  0
  4 88  1  0  0  0
  4 89  1  0  0  0
  5  6  1  0  0  0
  5 26  1  0  0  0
  5 90  1  0  0  0
  6 25  1  0  0  0
  6 91  1  0  0  0
  6 92  1  0  0  0
  7  8  2  0  0  0
  7 26  1  0  0  0
  7 29  1  0  0  0
  8  9  1  0  0  0
  8 22  1  0  0  0
  9 10  1  0  0  0
  9 27  2  0  0  0
 10 11  2  0  0  0
 10 15  1  0  0  0
 11 12  1  0  0  0
 11 93  1  0  0  0
 12 13  2  0  0  0
 12 94  1  0  0  0
 13 14  1  0  0  0
 13 31  1  0  0  0
 14 15  2  0  0  0
 14 95  1  0  0  0
 15 96  1  0  0  0
 16 17  2  0  0  0
 16 21  1  0  0  0
 16 31  1  0  0  0
 17 18  1  0  0  0
 17 97  1  0  0  0
 18 19  2  0  0  0
 18 98  1  0  0  0
 19 20  1  0  0  0
 19 24  1  0  0  0
 20 21  2  0  0  0
 20 99  1  0  0  0
 21 23  1  0  0  0
 22 28  1  0  0  0
 22 32  2  0  0  0
 26 27  1  0  0  0
 28100  1  0  0  0
 28101  1  0  0  0
 29102  1  0  0  0
 29103  1  0  0  0
 33 34  1  0  0  0
 33 66  1  0  0  0
 33 70  2  0  0  0
 34 36  1  0  0  0
 34 59  1  0  0  0
 34104  1  0  0  0
 35 44  2  0  0  0
 35 45  1  0  0  0
 35 68  1  0  0  0
 36 56  1  0  0  0
 36105  1  0  0  0
 37 39  1  0  0  0
 37 47  1  0  0  0
 37 66  1  0  0  0
 37106  1  0  0  0
 38 43  2  0  0  0
 38 46  1  0  0  0
 38 47  1  0  0  0
 39 64  1  0  0  0
 39 67  2  0  0  0
 40 52  1  0  0  0
 40 53  2  0  0  0
 40 58  1  0  0  0
 41107  1  0  0  0
 41108  1  0  0  0
 41109  1  0  0  0
 41 48  1  0  0  0
 42 43  1  0  0  0
 42 66  1  0  0  0
 42110  1  0  0  0
 42111  1  0  0  0
 43 44  1  0  0  0
 44112  1  0  0  0
 45 46  2  0  0  0
 45113  1  0  0  0
 46114  1  0  0  0
 47115  1  0  0  0
 47116  1  0  0  0
 48 56  1  0  0  0
 48 65  1  0  0  0
 48117  1  0  0  0
 49 50  1  0  0  0
 49 53  1  0  0  0
 49 64  1  0  0  0
 49118  1  0  0  0
 50 51  1  0  0  0
 50119  1  0  0  0
 50120  1  0  0  0
 51 52  1  0  0  0
 51121  1  0  0  0
 51122  1  0  0  0
 52123  1  0  0  0
 52124  1  0  0  0
 53 54  1  0  0  0
 54 55  2  0  0  0
 54125  1  0  0  0
 55 57  1  0  0  0
 55126  1  0  0  0
 56 69  2  0  0  0
 57 58  2  0  0  0
 57127  1  0  0  0
 58128  1  0  0  0
 59 60  1  0  0  0
 59 61  1  0  0  0
 59 62  1  0  0  0
 60129  1  0  0  0
 60130  1  0  0  0
 60131  1  0  0  0
 61132  1  0  0  0
 61133  1  0  0  0
 61134  1  0  0  0
 62135  1  0  0  0
 62136  1  0  0  0
 62137  1  0  0  0
 63 65  1  0  0  0
 63138  1  0  0  0
 63139  1  0  0  0
 63140  1  0  0  0
 64141  1  0  0  0
 65142  1  0  0  0
 68 77  1  0  0  0
 71 79  2  0  0  0
 71 83  1  0  0  0
 71143  1  0  0  0
 72 73  2  0  0  0
 72 74  1  0  0  0
 72 79  1  0  0  0
 73 80  1  0  0  0
 73 83  1  0  0  0
 74 81  1  0  0  0
 74 82  2  0  0  0
 75144  1  0  0  0
 75145  1  0  0  0
 75146  1  0  0  0
 75 78  1  0  0  0
 76 77  1  0  0  0
 76 78  1  0  0  0
 76147  1  0  0  0
 76148  1  0  0  0
 77149  1  0  0  0
 77150  1  0  0  0
 78 80  1  0  0  0
 78151  1  0  0  0
 80152  1  0  0  0
 81153  1  0  0  0
M  ISO  4   1 100  68 101  77 101  81 100
M  END
> <chiral flag>
0

> <version>
0

> <s_m_source_file>
/data/baiqing/PycharmProjects/Reinvent-master-3.2/result/LINK_invent/BTK/process_docking_weight1_custom_product_contain_oxygen_bond_distance_aromatic_linkinvent_7_9_3/rearranged_h_0194.sdf

> <i_m_source_file_index>
3

> <r_mmod_Potential_Energy-OPLS-2005>
240.479888916016

> <r_mmod_Stretch_Energy-OPLS-2005>
149.251007080078

> <r_mmod_Bend_Energy-OPLS-2005>
208.656295776367

> <r_mmod_Torsional_Energy-OPLS-2005>
232.383010864258

> <r_mmod_Improper_Torsional_Energy-OPLS-2005>
5.320641040802

> <r_mmod_Van_der_Waal_Energy-OPLS-2005>
128.557525634766

> <r_mmod_Electrostatic_Energy-OPLS-2005>
-342.327850341797

> <r_mmod_Solvation_Energy-OPLS-2005>
-227.563400268555

> <b_mmod_Minimization_Converged-OPLS-2005>
0

> <r_mmod_RMS_Derivative-OPLS-2005>
3.1388680934906

$$$$
3
                    3D
 Structure written by MMmdl.
166174  0  0  1  0            999 V2000
  -30.6925  -14.5522   20.5128 C   0  0  0  0  0  0
  -30.4166  -12.3350   19.4513 C   0  0  0  0  0  0
  -29.4979  -12.4908   18.2210 C   0  0  0  0  0  0
  -28.0221  -12.3435   18.6358 C   0  0  0  0  0  0
  -27.6540  -13.2171   19.8637 C   0  0  2  0  0  0
  -28.6966  -13.0716   20.9960 C   0  0  0  0  0  0
  -25.2580  -13.8185   20.5683 C   0  0  0  0  0  0
  -24.1854  -13.0449   20.9210 C   0  0  0  0  0  0
  -24.6433  -11.6920   20.8784 C   0  0  0  0  0  0
  -23.9114  -10.4292   21.0444 C   0  0  0  0  0  0
  -24.3656   -9.4197   21.9218 C   0  0  0  0  0  0
  -23.6317   -8.2239   22.0773 C   0  0  0  0  0  0
  -22.4295   -8.0298   21.3555 C   0  0  0  0  0  0
  -21.9954   -9.0282   20.4657 C   0  0  0  0  0  0
  -22.7302  -10.2149   20.3073 C   0  0  0  0  0  0
  -21.6848   -6.0761   22.5294 C   0  0  0  0  0  0
  -21.4010   -6.5657   23.8231 C   0  0  0  0  0  0
  -21.3658   -5.6807   24.9186 C   0  0  0  0  0  0
  -21.6039   -4.3072   24.7224 C   0  0  0  0  0  0
  -21.8818   -3.8172   23.4346 C   0  0  0  0  0  0
  -21.9184   -4.6990   22.3408 C   0  0  0  0  0  0
  -22.7874  -13.5238   21.1857 C   0  0  0  0  0  0
  -22.1658   -4.2184   21.0984 F   0  0  0  0  0  0
  -21.5623   -3.4551   25.7732 F   0  0  0  0  0  0
  -30.0218  -13.3651   20.4313 N   0  0  0  0  0  0
  -26.3006  -12.9375   20.3336 N   0  0  0  0  0  0
  -25.9355  -11.6529   20.5810 N   0  0  0  0  0  0
  -22.0500  -12.8209   22.0388 N   0  0  0  0  0  0
  -25.4283  -15.1910   20.4049 N   0  0  0  0  0  0
  -31.8632  -14.6409   20.1273 O   0  0  0  0  0  0
  -21.6638   -6.8911   21.4259 O   0  0  0  0  0  0
  -22.3561  -14.5542   20.6708 O   0  0  0  0  0  0
  -24.6176  -31.8631   23.2098 C   0  0  0  0  0  0
  -25.9044  -32.4797   23.8408 C   0  0  1  0  0  0
  -27.2222  -27.4051   20.0739 C   0  0  0  0  0  0
  -25.5881  -33.8608   24.2298 N   0  0  0  0  0  0
  -23.4110  -30.4880   21.5493 C   0  0  2  0  0  0
  -24.8574  -28.9648   20.0946 C   0  0  0  0  0  0
  -22.7448  -29.4612   22.4949 C   0  0  0  0  0  0
  -18.0276  -28.1350   22.8459 C   0  0  0  0  0  0
  -24.1498  -36.7330   23.2640 C   0  0  0  0  0  0
  -25.9476  -30.8115   21.3786 C   0  0  0  0  0  0
  -26.0213  -29.4543   20.7042 C   0  0  0  0  0  0
  -27.2108  -28.6811   20.6907 C   0  0  0  0  0  0
  -26.0531  -26.9654   19.4126 C   0  0  0  0  0  0
  -24.8700  -27.7219   19.4448 C   0  0  0  0  0  0
  -23.6208  -29.8308   20.1599 C   0  0  0  0  0  0
  -25.4117  -36.3103   24.0338 C   0  0  1  0  0  0
  -20.5860  -28.3649   23.1279 C   0  0  2  0  0  0
  -20.6775  -26.9382   22.5401 C   0  0  0  0  0  0
  -19.5771  -26.6362   21.5187 C   0  0  0  0  0  0
  -18.1931  -26.7892   22.1581 C   0  0  0  0  0  0
  -19.1520  -28.8809   23.2857 C   0  0  0  0  0  0
  -18.9465  -30.1403   23.8886 C   0  0  0  0  0  0
  -17.6473  -30.6557   24.0540 C   0  0  0  0  0  0
  -25.9060  -34.9466   23.5124 C   0  0  0  0  0  0
  -16.5354  -29.9065   23.6338 C   0  0  0  0  0  0
  -16.7258  -28.6477   23.0356 C   0  0  0  0  0  0
  -26.4455  -31.6606   25.0770 C   0  0  0  0  0  0
  -25.3720  -31.3713   26.1529 C   0  0  0  0  0  0
  -27.0314  -30.3039   24.6196 C   0  0  0  0  0  0
  -27.6011  -32.4357   25.7512 C   0  0  0  0  0  0
  -27.5582  -37.1802   24.8438 C   0  0  0  0  0  0
  -21.4165  -29.3020   22.3692 N   0  0  0  0  0  0
  -26.4285  -37.3787   23.9405 N   0  0  0  0  0  0
  -24.6763  -31.0696   22.1020 N   0  0  0  0  0  0
  -23.4182  -28.8136   23.3001 O   0  0  0  0  0  0
  -28.3082  -26.5462   20.2023 O   0  0  0  0  0  0
  -26.5638  -34.8908   22.4709 O   0  0  0  0  0  0
  -23.5357  -32.1399   23.7462 O   0  0  0  0  0  0
  -30.6828  -19.8074   20.3579 C   0  0  0  0  0  0
  -29.3277  -18.0019   21.2286 C   0  0  0  0  0  0
  -31.5352  -18.8173   19.8453 C   0  0  0  0  0  0
  -29.5397  -19.4063   21.0720 C   0  0  0  0  0  0
  -30.2391  -17.0468   20.6931 C   0  0  0  0  0  0
  -28.9490  -23.1597   23.1862 C   0  0  0  0  0  0
  -29.0568  -24.8357   25.1406 C   0  0  0  0  0  0
  -27.0746  -25.2700   21.8936 C   0  0  0  0  0  0
  -28.5878  -20.4366   21.7143 C   0  0  0  0  0  0
  -29.8281  -24.0981   24.0283 C   0  0  0  0  0  0
  -29.2886  -24.3084   20.8553 C   0  0  0  0  0  0
  -29.3164  -22.9439   21.6873 C   0  0  2  0  0  0
  -27.9892  -25.1811   20.6467 C   0  0  2  0  0  0
  -31.3181  -17.4942   20.0053 N   0  0  0  0  0  0
  -29.9628  -15.6404   20.8879 N   0  0  0  0  0  0
  -28.4997  -21.8140   21.1067 N   0  3  0  0  0  0
  -27.9688  -22.6249   23.7149 O   0  0  0  0  0  0
  -31.4643  -12.4106   19.1564 H   0  0  0  0  0  0
  -30.3042  -11.3407   19.8875 H   0  0  0  0  0  0
  -29.7485  -11.7462   17.4641 H   0  0  0  0  0  0
  -29.6580  -13.4650   17.7570 H   0  0  0  0  0  0
  -27.8523  -11.2918   18.8695 H   0  0  0  0  0  0
  -27.3669  -12.5749   17.7951 H   0  0  0  0  0  0
  -27.6768  -14.2517   19.5212 H   0  0  0  0  0  0
  -28.6856  -12.0600   21.4060 H   0  0  0  0  0  0
  -28.4587  -13.7317   21.8311 H   0  0  0  0  0  0
  -25.2797   -9.5646   22.4806 H   0  0  0  0  0  0
  -24.0013   -7.4616   22.7483 H   0  0  0  0  0  0
  -21.0893   -8.8830   19.8947 H   0  0  0  0  0  0
  -22.3805  -10.9703   19.6180 H   0  0  0  0  0  0
  -21.2014   -7.6163   23.9747 H   0  0  0  0  0  0
  -21.1478   -6.0532   25.9091 H   0  0  0  0  0  0
  -22.0595   -2.7636   23.2836 H   0  0  0  0  0  0
  -22.4097  -11.9847   22.4742 H   0  0  0  0  0  0
  -21.1122  -13.1240   22.2588 H   0  0  0  0  0  0
  -24.6549  -15.8413   20.4945 H   0  0  0  0  0  0
  -26.2669  -15.6248   20.0422 H   0  0  0  0  0  0
  -26.7114  -32.5459   23.1169 H   0  0  0  0  0  0
  -24.9997  -33.9766   25.0412 H   0  0  0  0  0  0
  -22.7013  -31.3073   21.4123 H   0  0  0  0  0  0
  -23.3736  -35.9680   23.3290 H   0  0  0  0  0  0
  -24.3578  -36.8972   22.2051 H   0  0  0  0  0  0
  -23.7279  -37.6539   23.6686 H   0  0  0  0  0  0
  -26.0840  -31.5824   20.6209 H   0  0  0  0  0  0
  -26.8263  -30.8426   22.0114 H   0  0  0  0  0  0
  -28.0966  -29.0339   21.1980 H   0  0  0  0  0  0
  -26.0295  -26.0142   18.9039 H   0  0  0  0  0  0
  -23.9824  -27.3449   18.9550 H   0  0  0  0  0  0
  -23.7249  -30.6086   19.4030 H   0  0  0  0  0  0
  -22.7473  -29.2484   19.8636 H   0  0  0  0  0  0
  -25.1280  -36.1970   25.0825 H   0  0  0  0  0  0
  -20.9920  -28.3220   24.1416 H   0  0  0  0  0  0
  -20.5670  -26.2257   23.3587 H   0  0  0  0  0  0
  -21.6653  -26.7443   22.1189 H   0  0  0  0  0  0
  -19.6967  -25.6285   21.1190 H   0  0  0  0  0  0
  -19.6719  -27.3196   20.6730 H   0  0  0  0  0  0
  -17.4215  -26.6605   21.3973 H   0  0  0  0  0  0
  -18.0339  -26.0033   22.8980 H   0  0  0  0  0  0
  -19.7960  -30.7178   24.2263 H   0  0  0  0  0  0
  -17.5065  -31.6248   24.5125 H   0  0  0  0  0  0
  -15.5359  -30.2958   23.7707 H   0  0  0  0  0  0
  -15.8647  -28.0792   22.7097 H   0  0  0  0  0  0
  -24.5873  -30.7088   25.7867 H   0  0  0  0  0  0
  -24.8957  -32.2874   26.5028 H   0  0  0  0  0  0
  -25.8078  -30.8841   27.0266 H   0  0  0  0  0  0
  -26.2888  -29.6767   24.1254 H   0  0  0  0  0  0
  -27.4061  -29.7296   25.4671 H   0  0  0  0  0  0
  -27.8736  -30.4334   23.9392 H   0  0  0  0  0  0
  -27.2606  -33.3649   26.2114 H   0  0  0  0  0  0
  -28.3800  -32.6953   25.0324 H   0  0  0  0  0  0
  -28.0734  -31.8507   26.5425 H   0  0  0  0  0  0
  -28.2548  -38.0143   24.7548 H   0  0  0  0  0  0
  -28.1132  -36.2678   24.6192 H   0  0  0  0  0  0
  -27.2313  -37.1360   25.8837 H   0  0  0  0  0  0
  -20.9352  -29.8788   21.6941 H   0  0  0  0  0  0
  -26.0169  -38.2857   24.1431 H   0  0  0  0  0  0
  -30.9369  -20.8467   20.2037 H   0  0  0  0  0  0
  -28.4644  -17.6613   21.7855 H   0  0  0  0  0  0
  -32.4230  -19.0955   19.2958 H   0  0  0  0  0  0
  -29.6939  -25.5875   25.6055 H   0  0  0  0  0  0
  -28.7210  -24.1542   25.9227 H   0  0  0  0  0  0
  -28.1741  -25.3527   24.7651 H   0  0  0  0  0  0
  -26.7551  -24.2925   22.2422 H   0  0  0  0  0  0
  -26.1367  -25.7879   21.7056 H   0  0  0  0  0  0
  -27.5704  -25.8086   22.6969 H   0  0  0  0  0  0
  -28.7954  -20.4591   22.7817 H   0  0  0  0  0  0
  -27.5848  -20.0144   21.6323 H   0  0  0  0  0  0
  -30.3165  -24.8349   23.3922 H   0  0  0  0  0  0
  -30.6277  -23.5052   24.4741 H   0  0  0  0  0  0
  -29.6932  -24.0922   19.8668 H   0  0  0  0  0  0
  -30.0425  -24.9655   21.2876 H   0  0  0  0  0  0
  -30.3482  -22.5958   21.6722 H   0  0  0  0  0  0
  -27.4278  -24.6799   19.8582 H   0  0  0  0  0  0
  -29.0458  -15.4266   21.2413 H   0  0  0  0  0  0
  -27.5355  -22.0748   21.2298 H   0  0  0  0  0  0
  -28.6659  -21.7241   20.1190 H   0  0  0  0  0  0
  1 25  1  0  0  0
  1 30  2  0  0  0
  1 85  1  0  0  0
  2  3  1  0  0  0
  2 25  1  0  0  0
  2 88  1  0  0  0
  2 89  1  0  0  0
  3  4  1  0  0  0
  3 90  1  0  0  0
  3 91  1  0  0  0
  4  5  1  0  0  0
  4 92  1  0  0  0
  4 93  1  0  0  0
  5  6  1  0  0  0
  5 26  1  0  0  0
  5 94  1  0  0  0
  6 25  1  0  0  0
  6 95  1  0  0  0
  6 96  1  0  0  0
  7  8  2  0  0  0
  7 26  1  0  0  0
  7 29  1  0  0  0
  8  9  1  0  0  0
  8 22  1  0  0  0
  9 10  1  0  0  0
  9 27  2  0  0  0
 10 11  2  0  0  0
 10 15  1  0  0  0
 11 12  1  0  0  0
 11 97  1  0  0  0
 12 13  2  0  0  0
 12 98  1  0  0  0
 13 14  1  0  0  0
 13 31  1  0  0  0
 14 15  2  0  0  0
 14 99  1  0  0  0
 15100  1  0  0  0
 16 17  2  0  0  0
 16 21  1  0  0  0
 16 31  1  0  0  0
 17 18  1  0  0  0
 17101  1  0  0  0
 18 19  2  0  0  0
 18102  1  0  0  0
 19 20  1  0  0  0
 19 24  1  0  0  0
 20 21  2  0  0  0
 20103  1  0  0  0
 21 23  1  0  0  0
 22 28  1  0  0  0
 22 32  2  0  0  0
 26 27  1  0  0  0
 28104  1  0  0  0
 28105  1  0  0  0
 29106  1  0  0  0
 29107  1  0  0  0
 33 34  1  0  0  0
 33 66  1  0  0  0
 33 70  2  0  0  0
 34 36  1  0  0  0
 34 59  1  0  0  0
 34108  1  0  0  0
 35 44  2  0  0  0
 35 45  1  0  0  0
 35 68  1  0  0  0
 36 56  1  0  0  0
 36109  1  0  0  0
 37 39  1  0  0  0
 37 47  1  0  0  0
 37 66  1  0  0  0
 37110  1  0  0  0
 38 43  2  0  0  0
 38 46  1  0  0  0
 38 47  1  0  0  0
 39 64  1  0  0  0
 39 67  2  0  0  0
 40 52  1  0  0  0
 40 53  2  0  0  0
 40 58  1  0  0  0
 41111  1  0  0  0
 41112  1  0  0  0
 41113  1  0  0  0
 41 48  1  0  0  0
 42 43  1  0  0  0
 42 66  1  0  0  0
 42114  1  0  0  0
 42115  1  0  0  0
 43 44  1  0  0  0
 44116  1  0  0  0
 45 46  2  0  0  0
 45117  1  0  0  0
 46118  1  0  0  0
 47119  1  0  0  0
 47120  1  0  0  0
 48 56  1  0  0  0
 48 65  1  0  0  0
 48121  1  0  0  0
 49 50  1  0  0  0
 49 53  1  0  0  0
 49 64  1  0  0  0
 49122  1  0  0  0
 50 51  1  0  0  0
 50123  1  0  0  0
 50124  1  0  0  0
 51 52  1  0  0  0
 51125  1  0  0  0
 51126  1  0  0  0
 52127  1  0  0  0
 52128  1  0  0  0
 53 54  1  0  0  0
 54 55  2  0  0  0
 54129  1  0  0  0
 55 57  1  0  0  0
 55130  1  0  0  0
 56 69  2  0  0  0
 57 58  2  0  0  0
 57131  1  0  0  0
 58132  1  0  0  0
 59 60  1  0  0  0
 59 61  1  0  0  0
 59 62  1  0  0  0
 60133  1  0  0  0
 60134  1  0  0  0
 60135  1  0  0  0
 61136  1  0  0  0
 61137  1  0  0  0
 61138  1  0  0  0
 62139  1  0  0  0
 62140  1  0  0  0
 62141  1  0  0  0
 63 65  1  0  0  0
 63142  1  0  0  0
 63143  1  0  0  0
 63144  1  0  0  0
 64145  1  0  0  0
 65146  1  0  0  0
 68 83  1  0  0  0
 71 73  2  0  0  0
 71 74  1  0  0  0
 71147  1  0  0  0
 72 74  2  0  0  0
 72 75  1  0  0  0
 72148  1  0  0  0
 73 84  1  0  0  0
 73149  1  0  0  0
 74 79  1  0  0  0
 75 84  2  0  0  0
 75 85  1  0  0  0
 76 80  1  0  0  0
 76 82  1  0  0  0
 76 87  2  0  0  0
 77 80  1  0  0  0
 77150  1  0  0  0
 77151  1  0  0  0
 77152  1  0  0  0
 78153  1  0  0  0
 78154  1  0  0  0
 78155  1  0  0  0
 78 83  1  0  0  0
 79 86  1  0  0  0
 79156  1  0  0  0
 79157  1  0  0  0
 80158  1  0  0  0
 80159  1  0  0  0
 81 83  1  0  0  0
 81160  1  0  0  0
 81161  1  0  0  0
 81 82  1  0  0  0
 82 86  1  0  0  0
 82162  1  0  0  0
 83163  1  0  0  0
 85164  1  0  0  0
 86165  1  0  0  0
 86166  1  0  0  0
M  CHG  1  86   1
M  ISO  4   1 100  68 101  83 101  85 100
M  END
> <chiral flag>
0

> <version>
0

> <s_m_source_file>
/data/baiqing/PycharmProjects/Reinvent-master-3.2/result/LINK_invent/BTK/process_docking_weight1_custom_product_contain_oxygen_bond_distance_aromatic_linkinvent_7_9_3/rearranged_h_0194.sdf

> <i_m_source_file_index>
4

> <r_mmod_Potential_Energy-OPLS-2005>
-464.987426757812

> <r_mmod_Stretch_Energy-OPLS-2005>
61.4349136352539

> <r_mmod_Bend_Energy-OPLS-2005>
130.649642944336

> <r_mmod_Torsional_Energy-OPLS-2005>
225.061141967773

> <r_mmod_Improper_Torsional_Energy-OPLS-2005>
4.1877818107605

> <r_mmod_Van_der_Waal_Energy-OPLS-2005>
171.779922485352

> <r_mmod_Electrostatic_Energy-OPLS-2005>
-564.171325683594

> <r_mmod_Solvation_Energy-OPLS-2005>
-526.396850585938

> <b_mmod_Minimization_Converged-OPLS-2005>
0

> <r_mmod_RMS_Derivative-OPLS-2005>
3.23920321464539

$$$$
4
                    3D
 Structure written by MMmdl.
152160  0  0  1  0            999 V2000
  -30.6712  -14.5388   20.5146 C   0  0  0  0  0  0
  -30.4183  -12.3283   19.4483 C   0  0  0  0  0  0
  -29.4973  -12.4891   18.2200 C   0  0  0  0  0  0
  -28.0188  -12.3417   18.6322 C   0  0  0  0  0  0
  -27.6519  -13.2106   19.8657 C   0  0  2  0  0  0
  -28.6935  -13.0465   20.9963 C   0  0  0  0  0  0
  -25.2549  -13.8183   20.5681 C   0  0  0  0  0  0
  -24.1810  -13.0443   20.9193 C   0  0  0  0  0  0
  -24.6370  -11.6918   20.8738 C   0  0  0  0  0  0
  -23.9044  -10.4293   21.0404 C   0  0  0  0  0  0
  -24.3604   -9.4203   21.9175 C   0  0  0  0  0  0
  -23.6282   -8.2240   22.0744 C   0  0  0  0  0  0
  -22.4262   -8.0271   21.3542 C   0  0  0  0  0  0
  -21.9893   -9.0242   20.4644 C   0  0  0  0  0  0
  -22.7222  -10.2122   20.3050 C   0  0  0  0  0  0
  -21.6847   -6.0720   22.5279 C   0  0  0  0  0  0
  -21.4019   -6.5631   23.8210 C   0  0  0  0  0  0
  -21.3662   -5.6789   24.9177 C   0  0  0  0  0  0
  -21.6041   -4.3048   24.7231 C   0  0  0  0  0  0
  -21.8828   -3.8134   23.4355 C   0  0  0  0  0  0
  -21.9197   -4.6949   22.3408 C   0  0  0  0  0  0
  -22.7835  -13.5230   21.1865 C   0  0  0  0  0  0
  -22.1659   -4.2130   21.0985 F   0  0  0  0  0  0
  -21.5632   -3.4538   25.7750 F   0  0  0  0  0  0
  -30.0156  -13.3482   20.4322 N   0  0  0  0  0  0
  -26.2961  -12.9343   20.3343 N   0  0  0  0  0  0
  -25.9291  -11.6498   20.5768 N   0  0  0  0  0  0
  -22.0490  -12.8198   22.0426 N   0  0  0  0  0  0
  -25.4270  -15.1902   20.4091 N   0  0  0  0  0  0
  -31.8343  -14.6711   20.1241 O   0  0  0  0  0  0
  -21.6639   -6.8858   21.4236 O   0  0  0  0  0  0
  -22.3513  -14.5539   20.6719 O   0  0  0  0  0  0
  -24.6169  -31.8639   23.2060 C   0  0  0  0  0  0
  -25.9053  -32.4789   23.8371 C   0  0  1  0  0  0
  -27.2338  -27.3787   20.1046 C   0  0  0  0  0  0
  -25.5894  -33.8592   24.2301 N   0  0  0  0  0  0
  -23.4083  -30.4867   21.5453 C   0  0  2  0  0  0
  -24.8570  -28.9444   20.1084 C   0  0  0  0  0  0
  -22.7411  -29.4654   22.4943 C   0  0  0  0  0  0
  -18.0277  -28.1382   22.8503 C   0  0  0  0  0  0
  -24.1487  -36.7306   23.2641 C   0  0  0  0  0  0
  -25.9422  -30.8092   21.3710 C   0  0  0  0  0  0
  -26.0172  -29.4407   20.7139 C   0  0  0  0  0  0
  -27.2036  -28.6640   20.7094 C   0  0  0  0  0  0
  -26.0510  -26.9093   19.4882 C   0  0  0  0  0  0
  -24.8731  -27.6829   19.4889 C   0  0  0  0  0  0
  -23.6195  -29.8158   20.1599 C   0  0  0  0  0  0
  -25.4110  -36.3098   24.0332 C   0  0  1  0  0  0
  -20.5865  -28.3699   23.1296 C   0  0  2  0  0  0
  -20.6769  -26.9416   22.5458 C   0  0  0  0  0  0
  -19.5745  -26.6353   21.5279 C   0  0  0  0  0  0
  -18.1919  -26.7913   22.1673 C   0  0  0  0  0  0
  -19.1525  -28.8868   23.2881 C   0  0  0  0  0  0
  -18.9443  -30.1474   23.8882 C   0  0  0  0  0  0
  -17.6438  -30.6600   24.0547 C   0  0  0  0  0  0
  -25.9043  -34.9461   23.5119 C   0  0  0  0  0  0
  -16.5336  -29.9088   23.6332 C   0  0  0  0  0  0
  -16.7266  -28.6494   23.0369 C   0  0  0  0  0  0
  -26.4471  -31.6597   25.0723 C   0  0  0  0  0  0
  -25.3720  -31.3718   26.1460 C   0  0  0  0  0  0
  -27.0313  -30.3026   24.6163 C   0  0  0  0  0  0
  -27.6041  -32.4327   25.7474 C   0  0  0  0  0  0
  -27.5580  -37.1810   24.8463 C   0  0  0  0  0  0
  -21.4134  -29.3045   22.3670 N   0  0  0  0  0  0
  -26.4299  -37.3781   23.9396 N   0  0  0  0  0  0
  -24.6733  -31.0696   22.0980 N   0  0  0  0  0  0
  -23.4162  -28.8217   23.3019 O   0  0  0  0  0  0
  -28.4027  -26.6281   20.1659 O   0  0  0  0  0  0
  -26.5611  -34.8915   22.4686 O   0  0  0  0  0  0
  -23.5347  -32.1422   23.7427 O   0  0  0  0  0  0
  -28.3063  -18.2211   21.5655 C   0  0  0  0  0  0
  -29.4662  -18.1899   20.8284 C   0  0  0  0  0  0
  -28.9551  -20.4533   20.7042 C   0  0  0  0  0  0
  -30.4024  -17.0112   20.5533 C   0  0  0  0  0  0
  -28.7286  -23.0848   21.0438 C   0  0  0  0  0  0
  -28.5191  -25.3266   19.5277 C   0  0  0  0  0  0
  -27.8391  -24.0810   20.2139 C   0  0  1  0  0  0
  -29.7918  -19.4739   20.3234 N   0  0  0  0  0  0
  -29.1098  -21.8133   20.3708 N   0  0  0  0  0  0
  -29.9286  -15.6302   20.8206 N   0  0  0  0  0  0
  -27.2618  -23.2406   19.2380 O   0  0  0  0  0  0
  -27.6474  -19.8424   21.7122 S   0  0  0  0  0  0
  -31.4653  -12.4165   19.1526 H   0  0  0  0  0  0
  -30.3118  -11.3317   19.8808 H   0  0  0  0  0  0
  -29.7486  -11.7495   17.4589 H   0  0  0  0  0  0
  -29.6586  -13.4666   17.7619 H   0  0  0  0  0  0
  -27.8461  -11.2887   18.8591 H   0  0  0  0  0  0
  -27.3655  -12.5790   17.7915 H   0  0  0  0  0  0
  -27.6792  -14.2476   19.5321 H   0  0  0  0  0  0
  -28.6803  -12.0270   21.3857 H   0  0  0  0  0  0
  -28.4592  -13.6940   21.8424 H   0  0  0  0  0  0
  -25.2752   -9.5684   22.4738 H   0  0  0  0  0  0
  -23.9993   -7.4639   22.7459 H   0  0  0  0  0  0
  -21.0827   -8.8760   19.8954 H   0  0  0  0  0  0
  -22.3677  -10.9652   19.6157 H   0  0  0  0  0  0
  -21.2009   -7.6138   23.9712 H   0  0  0  0  0  0
  -21.1476   -6.0517   25.9082 H   0  0  0  0  0  0
  -22.0604   -2.7591   23.2872 H   0  0  0  0  0  0
  -22.4101  -11.9845   22.4779 H   0  0  0  0  0  0
  -21.1120  -13.1224   22.2677 H   0  0  0  0  0  0
  -24.6553  -15.8418   20.4992 H   0  0  0  0  0  0
  -26.2719  -15.6261   20.0627 H   0  0  0  0  0  0
  -26.7108  -32.5490   23.1116 H   0  0  0  0  0  0
  -25.0023  -33.9753   25.0432 H   0  0  0  0  0  0
  -22.7008  -31.3065   21.4030 H   0  0  0  0  0  0
  -23.3748  -35.9643   23.3315 H   0  0  0  0  0  0
  -24.3585  -36.8919   22.2057 H   0  0  0  0  0  0
  -23.7251  -37.6516   23.6653 H   0  0  0  0  0  0
  -26.0705  -31.5763   20.6061 H   0  0  0  0  0  0
  -26.8241  -30.8557   21.9985 H   0  0  0  0  0  0
  -28.0979  -29.0384   21.1880 H   0  0  0  0  0  0
  -26.0136  -25.9400   19.0139 H   0  0  0  0  0  0
  -23.9819  -27.2996   19.0122 H   0  0  0  0  0  0
  -23.7221  -30.5885   19.3971 H   0  0  0  0  0  0
  -22.7430  -29.2330   19.8690 H   0  0  0  0  0  0
  -25.1298  -36.1970   25.0827 H   0  0  0  0  0  0
  -20.9970  -28.3304   24.1421 H   0  0  0  0  0  0
  -20.5696  -26.2333   23.3688 H   0  0  0  0  0  0
  -21.6631  -26.7441   22.1243 H   0  0  0  0  0  0
  -19.6913  -25.6245   21.1358 H   0  0  0  0  0  0
  -19.6698  -27.3138   20.6778 H   0  0  0  0  0  0
  -17.4184  -26.6601   21.4083 H   0  0  0  0  0  0
  -18.0337  -26.0090   22.9114 H   0  0  0  0  0  0
  -19.7918  -30.7319   24.2208 H   0  0  0  0  0  0
  -17.4971  -31.6298   24.5108 H   0  0  0  0  0  0
  -15.5323  -30.2969   23.7629 H   0  0  0  0  0  0
  -15.8673  -28.0792   22.7101 H   0  0  0  0  0  0
  -24.5895  -30.7071   25.7784 H   0  0  0  0  0  0
  -24.8905  -32.2870   26.4900 H   0  0  0  0  0  0
  -25.8052  -30.8882   27.0225 H   0  0  0  0  0  0
  -26.2874  -29.6763   24.1224 H   0  0  0  0  0  0
  -27.4058  -29.7298   25.4663 H   0  0  0  0  0  0
  -27.8718  -30.4313   23.9340 H   0  0  0  0  0  0
  -27.2662  -33.3616   26.2071 H   0  0  0  0  0  0
  -28.3821  -32.6913   25.0283 H   0  0  0  0  0  0
  -28.0740  -31.8454   26.5374 H   0  0  0  0  0  0
  -28.2611  -38.0095   24.7504 H   0  0  0  0  0  0
  -28.1068  -36.2634   24.6302 H   0  0  0  0  0  0
  -27.2296  -37.1469   25.8866 H   0  0  0  0  0  0
  -20.9301  -29.8734   21.6859 H   0  0  0  0  0  0
  -26.0195  -38.2864   24.1389 H   0  0  0  0  0  0
  -27.8097  -17.4000   22.0657 H   0  0  0  0  0  0
  -31.3212  -17.1621   21.1224 H   0  0  0  0  0  0
  -30.7072  -17.0477   19.5052 H   0  0  0  0  0  0
  -28.1819  -22.8167   21.9499 H   0  0  0  0  0  0
  -29.6274  -23.5931   21.3966 H   0  0  0  0  0  0
  -28.1680  -25.4342   18.5011 H   0  0  0  0  0  0
  -29.5831  -25.1135   19.4166 H   0  0  0  0  0  0
  -27.0337  -24.4505   20.8515 H   0  0  0  0  0  0
  -29.9292  -21.9398   19.7832 H   0  0  0  0  0  0
  -28.9662  -15.4983   21.0898 H   0  0  0  0  0  0
  -27.8104  -22.4533   19.3038 H   0  0  0  0  0  0
  1 25  1  0  0  0
  1 30  2  0  0  0
  1 80  1  0  0  0
  2  3  1  0  0  0
  2 25  1  0  0  0
  2 83  1  0  0  0
  2 84  1  0  0  0
  3  4  1  0  0  0
  3 85  1  0  0  0
  3 86  1  0  0  0
  4  5  1  0  0  0
  4 87  1  0  0  0
  4 88  1  0  0  0
  5  6  1  0  0  0
  5 26  1  0  0  0
  5 89  1  0  0  0
  6 25  1  0  0  0
  6 90  1  0  0  0
  6 91  1  0  0  0
  7  8  2  0  0  0
  7 26  1  0  0  0
  7 29  1  0  0  0
  8  9  1  0  0  0
  8 22  1  0  0  0
  9 10  1  0  0  0
  9 27  2  0  0  0
 10 11  2  0  0  0
 10 15  1  0  0  0
 11 12  1  0  0  0
 11 92  1  0  0  0
 12 13  2  0  0  0
 12 93  1  0  0  0
 13 14  1  0  0  0
 13 31  1  0  0  0
 14 15  2  0  0  0
 14 94  1  0  0  0
 15 95  1  0  0  0
 16 17  2  0  0  0
 16 21  1  0  0  0
 16 31  1  0  0  0
 17 18  1  0  0  0
 17 96  1  0  0  0
 18 19  2  0  0  0
 18 97  1  0  0  0
 19 20  1  0  0  0
 19 24  1  0  0  0
 20 21  2  0  0  0
 20 98  1  0  0  0
 21 23  1  0  0  0
 22 28  1  0  0  0
 22 32  2  0  0  0
 26 27  1  0  0  0
 28 99  1  0  0  0
 28100  1  0  0  0
 29101  1  0  0  0
 29102  1  0  0  0
 33 34  1  0  0  0
 33 66  1  0  0  0
 33 70  2  0  0  0
 34 36  1  0  0  0
 34 59  1  0  0  0
 34103  1  0  0  0
 35 44  2  0  0  0
 35 45  1  0  0  0
 35 68  1  0  0  0
 36 56  1  0  0  0
 36104  1  0  0  0
 37 39  1  0  0  0
 37 47  1  0  0  0
 37 66  1  0  0  0
 37105  1  0  0  0
 38 43  2  0  0  0
 38 46  1  0  0  0
 38 47  1  0  0  0
 39 64  1  0  0  0
 39 67  2  0  0  0
 40 52  1  0  0  0
 40 53  2  0  0  0
 40 58  1  0  0  0
 41106  1  0  0  0
 41107  1  0  0  0
 41108  1  0  0  0
 41 48  1  0  0  0
 42 43  1  0  0  0
 42 66  1  0  0  0
 42109  1  0  0  0
 42110  1  0  0  0
 43 44  1  0  0  0
 44111  1  0  0  0
 45 46  2  0  0  0
 45112  1  0  0  0
 46113  1  0  0  0
 47114  1  0  0  0
 47115  1  0  0  0
 48 56  1  0  0  0
 48 65  1  0  0  0
 48116  1  0  0  0
 49 50  1  0  0  0
 49 53  1  0  0  0
 49 64  1  0  0  0
 49117  1  0  0  0
 50 51  1  0  0  0
 50118  1  0  0  0
 50119  1  0  0  0
 51 52  1  0  0  0
 51120  1  0  0  0
 51121  1  0  0  0
 52122  1  0  0  0
 52123  1  0  0  0
 53 54  1  0  0  0
 54 55  2  0  0  0
 54124  1  0  0  0
 55 57  1  0  0  0
 55125  1  0  0  0
 56 69  2  0  0  0
 57 58  2  0  0  0
 57126  1  0  0  0
 58127  1  0  0  0
 59 60  1  0  0  0
 59 61  1  0  0  0
 59 62  1  0  0  0
 60128  1  0  0  0
 60129  1  0  0  0
 60130  1  0  0  0
 61131  1  0  0  0
 61132  1  0  0  0
 61133  1  0  0  0
 62134  1  0  0  0
 62135  1  0  0  0
 62136  1  0  0  0
 63 65  1  0  0  0
 63137  1  0  0  0
 63138  1  0  0  0
 63139  1  0  0  0
 64140  1  0  0  0
 65141  1  0  0  0
 68 76  1  0  0  0
 71 72  2  0  0  0
 71 82  1  0  0  0
 71142  1  0  0  0
 72 74  1  0  0  0
 72 78  1  0  0  0
 73 78  2  0  0  0
 73 79  1  0  0  0
 73 82  1  0  0  0
 74 80  1  0  0  0
 74143  1  0  0  0
 74144  1  0  0  0
 75 77  1  0  0  0
 75 79  1  0  0  0
 75145  1  0  0  0
 75146  1  0  0  0
 76 77  1  0  0  0
 76147  1  0  0  0
 76148  1  0  0  0
 77 81  1  0  0  0
 77149  1  0  0  0
 79150  1  0  0  0
 80151  1  0  0  0
 81152  1  0  0  0
M  ISO  4   1 100  68 101  76 101  80 100
M  END
> <chiral flag>
0

> <version>
0

> <s_m_source_file>
/data/baiqing/PycharmProjects/Reinvent-master-3.2/result/LINK_invent/BTK/process_docking_weight1_custom_product_contain_oxygen_bond_distance_aromatic_linkinvent_7_9_3/rearranged_h_0194.sdf

> <i_m_source_file_index>
5

> <r_mmod_Potential_Energy-OPLS-2005>
-256.595001220703

> <r_mmod_Stretch_Energy-OPLS-2005>
48.977783203125

> <r_mmod_Bend_Energy-OPLS-2005>
123.672454833984

> <r_mmod_Torsional_Energy-OPLS-2005>
239.216522216797

> <r_mmod_Improper_Torsional_Energy-OPLS-2005>
7.51880645751953

> <r_mmod_Van_der_Waal_Energy-OPLS-2005>
133.392349243164

> <r_mmod_Electrostatic_Energy-OPLS-2005>
-595.460571289062

> <r_mmod_Solvation_Energy-OPLS-2005>
-239.425247192383

> <b_mmod_Minimization_Converged-OPLS-2005>
0

> <r_mmod_RMS_Derivative-OPLS-2005>
2.39066386222839

$$$$
5
                    3D
 Structure written by MMmdl.
153161  0  0  1  0            999 V2000
  -30.7269  -14.5134   20.5600 C   0  0  0  0  0  0
  -30.4198  -12.3313   19.4276 C   0  0  0  0  0  0
  -29.4937  -12.5044   18.2073 C   0  0  0  0  0  0
  -28.0175  -12.3633   18.6243 C   0  0  0  0  0  0
  -27.6595  -13.2162   19.8711 C   0  0  2  0  0  0
  -28.7081  -13.0417   20.9945 C   0  0  0  0  0  0
  -25.2584  -13.8175   20.5697 C   0  0  0  0  0  0
  -24.1846  -13.0441   20.9193 C   0  0  0  0  0  0
  -24.6409  -11.6910   20.8744 C   0  0  0  0  0  0
  -23.9072  -10.4292   21.0403 C   0  0  0  0  0  0
  -24.3620   -9.4208   21.9179 C   0  0  0  0  0  0
  -23.6291   -8.2244   22.0755 C   0  0  0  0  0  0
  -22.4275   -8.0281   21.3546 C   0  0  0  0  0  0
  -21.9910   -9.0257   20.4649 C   0  0  0  0  0  0
  -22.7241  -10.2135   20.3053 C   0  0  0  0  0  0
  -21.6852   -6.0732   22.5275 C   0  0  0  0  0  0
  -21.4017   -6.5639   23.8207 C   0  0  0  0  0  0
  -21.3659   -5.6795   24.9168 C   0  0  0  0  0  0
  -21.6041   -4.3056   24.7224 C   0  0  0  0  0  0
  -21.8822   -3.8147   23.4346 C   0  0  0  0  0  0
  -21.9195   -4.6960   22.3401 C   0  0  0  0  0  0
  -22.7864  -13.5233   21.1841 C   0  0  0  0  0  0
  -22.1662   -4.2146   21.0978 F   0  0  0  0  0  0
  -21.5628   -3.4540   25.7737 F   0  0  0  0  0  0
  -30.0301  -13.3448   20.4257 N   0  0  0  0  0  0
  -26.3029  -12.9363   20.3373 N   0  0  0  0  0  0
  -25.9344  -11.6515   20.5784 N   0  0  0  0  0  0
  -22.0499  -12.8230   22.0394 N   0  0  0  0  0  0
  -25.4291  -15.1895   20.4105 N   0  0  0  0  0  0
  -31.8699  -14.6288   20.1038 O   0  0  0  0  0  0
  -21.6641   -6.8877   21.4237 O   0  0  0  0  0  0
  -22.3558  -14.5539   20.6683 O   0  0  0  0  0  0
  -24.6193  -31.8654   23.2074 C   0  0  0  0  0  0
  -25.9063  -32.4812   23.8384 C   0  0  1  0  0  0
  -27.2296  -27.3896   20.1010 C   0  0  0  0  0  0
  -25.5905  -33.8610   24.2317 N   0  0  0  0  0  0
  -23.4095  -30.4903   21.5496 C   0  0  2  0  0  0
  -24.8552  -28.9589   20.1103 C   0  0  0  0  0  0
  -22.7439  -29.4639   22.4959 C   0  0  0  0  0  0
  -18.0280  -28.1382   22.8501 C   0  0  0  0  0  0
  -24.1482  -36.7309   23.2642 C   0  0  0  0  0  0
  -25.9442  -30.8172   21.3693 C   0  0  0  0  0  0
  -26.0193  -29.4501   20.7140 C   0  0  0  0  0  0
  -27.2079  -28.6743   20.7060 C   0  0  0  0  0  0
  -26.0444  -26.9398   19.4685 C   0  0  0  0  0  0
  -24.8662  -27.7049   19.4820 C   0  0  0  0  0  0
  -23.6198  -29.8294   20.1629 C   0  0  0  0  0  0
  -25.4103  -36.3101   24.0341 C   0  0  1  0  0  0
  -20.5878  -28.3674   23.1304 C   0  0  2  0  0  0
  -20.6763  -26.9402   22.5419 C   0  0  0  0  0  0
  -19.5737  -26.6387   21.5219 C   0  0  0  0  0  0
  -18.1919  -26.7926   22.1636 C   0  0  0  0  0  0
  -19.1533  -28.8842   23.2901 C   0  0  0  0  0  0
  -18.9462  -30.1448   23.8915 C   0  0  0  0  0  0
  -17.6467  -30.6590   24.0570 C   0  0  0  0  0  0
  -25.9035  -34.9472   23.5127 C   0  0  0  0  0  0
  -16.5353  -29.9092   23.6331 C   0  0  0  0  0  0
  -16.7267  -28.6511   23.0349 C   0  0  0  0  0  0
  -26.4470  -31.6600   25.0736 C   0  0  0  0  0  0
  -25.3726  -31.3730   26.1482 C   0  0  0  0  0  0
  -27.0302  -30.3037   24.6130 C   0  0  0  0  0  0
  -27.6041  -32.4327   25.7507 C   0  0  0  0  0  0
  -27.5573  -37.1807   24.8468 C   0  0  0  0  0  0
  -21.4163  -29.3036   22.3710 N   0  0  0  0  0  0
  -26.4282  -37.3794   23.9416 N   0  0  0  0  0  0
  -24.6764  -31.0718   22.1006 N   0  0  0  0  0  0
  -23.4199  -28.8170   23.3003 O   0  0  0  0  0  0
  -28.3747  -26.5973   20.1535 O   0  0  0  0  0  0
  -26.5601  -34.8925   22.4690 O   0  0  0  0  0  0
  -23.5375  -32.1419   23.7446 O   0  0  0  0  0  0
  -32.0495  -18.1457   22.4450 C   0  0  0  0  0  0
  -31.4522  -19.3265   21.9795 C   0  0  0  0  0  0
  -30.3158  -19.1693   21.1610 C   0  0  0  0  0  0
  -30.5212  -16.8546   21.3284 C   0  0  0  0  0  0
  -28.9913  -22.7064   20.2052 C   0  0  0  0  0  0
  -29.2935  -24.2170   20.4865 C   0  0  0  0  0  0
  -29.9385  -21.6755   20.8893 C   0  0  0  0  0  0
  -28.2048  -25.1737   19.9149 C   0  0  0  0  0  0
  -31.5811  -16.9219   22.1297 N   0  0  0  0  0  0
  -29.8521  -17.9260   20.8580 N   0  0  0  0  0  0
  -29.6033  -20.2639   20.6083 N   0  0  0  0  0  0
  -30.0435  -15.5866   21.0316 N   0  0  0  0  0  0
  -31.9693  -20.5340   22.3200 F   0  0  0  0  0  0
  -31.4647  -12.4150   19.1222 H   0  0  0  0  0  0
  -30.3172  -11.3298   19.8473 H   0  0  0  0  0  0
  -29.7365  -11.7669   17.4412 H   0  0  0  0  0  0
  -29.6599  -13.4826   17.7535 H   0  0  0  0  0  0
  -27.8339  -11.3090   18.8329 H   0  0  0  0  0  0
  -27.3650  -12.6255   17.7903 H   0  0  0  0  0  0
  -27.6896  -14.2585   19.5527 H   0  0  0  0  0  0
  -28.6972  -12.0173   21.3714 H   0  0  0  0  0  0
  -28.4757  -13.6750   21.8524 H   0  0  0  0  0  0
  -25.2762   -9.5683   22.4755 H   0  0  0  0  0  0
  -23.9998   -7.4639   22.7482 H   0  0  0  0  0  0
  -21.0837   -8.8779   19.8959 H   0  0  0  0  0  0
  -22.3697  -10.9674   19.6167 H   0  0  0  0  0  0
  -21.2009   -7.6147   23.9709 H   0  0  0  0  0  0
  -21.1477   -6.0524   25.9072 H   0  0  0  0  0  0
  -22.0601   -2.7606   23.2847 H   0  0  0  0  0  0
  -22.4111  -11.9891   22.4792 H   0  0  0  0  0  0
  -21.1114  -13.1259   22.2576 H   0  0  0  0  0  0
  -24.6614  -15.8429   20.5240 H   0  0  0  0  0  0
  -26.2711  -15.6290   20.0601 H   0  0  0  0  0  0
  -26.7136  -32.5505   23.1151 H   0  0  0  0  0  0
  -25.0053  -33.9774   25.0461 H   0  0  0  0  0  0
  -22.7007  -31.3093   21.4114 H   0  0  0  0  0  0
  -23.3741  -35.9644   23.3315 H   0  0  0  0  0  0
  -24.3577  -36.8912   22.2052 H   0  0  0  0  0  0
  -23.7231  -37.6520   23.6646 H   0  0  0  0  0  0
  -26.0625  -31.5814   20.6000 H   0  0  0  0  0  0
  -26.8301  -30.8694   21.9901 H   0  0  0  0  0  0
  -28.1012  -29.0465   21.1895 H   0  0  0  0  0  0
  -25.9991  -25.9894   18.9575 H   0  0  0  0  0  0
  -23.9759  -27.3249   19.0010 H   0  0  0  0  0  0
  -23.7319  -30.6077   19.4072 H   0  0  0  0  0  0
  -22.7433  -29.2522   19.8625 H   0  0  0  0  0  0
  -25.1274  -36.1976   25.0831 H   0  0  0  0  0  0
  -20.9972  -28.3240   24.1420 H   0  0  0  0  0  0
  -20.5667  -26.2278   23.3613 H   0  0  0  0  0  0
  -21.6631  -26.7432   22.1208 H   0  0  0  0  0  0
  -19.6894  -25.6303   21.1234 H   0  0  0  0  0  0
  -19.6675  -27.3211   20.6761 H   0  0  0  0  0  0
  -17.4187  -26.6687   21.4038 H   0  0  0  0  0  0
  -18.0314  -26.0062   22.9029 H   0  0  0  0  0  0
  -19.7939  -30.7259   24.2289 H   0  0  0  0  0  0
  -17.5023  -31.6266   24.5170 H   0  0  0  0  0  0
  -15.5357  -30.3004   23.7639 H   0  0  0  0  0  0
  -15.8667  -28.0838   22.7044 H   0  0  0  0  0  0
  -24.5904  -30.7065   25.7833 H   0  0  0  0  0  0
  -24.8914  -32.2893   26.4906 H   0  0  0  0  0  0
  -25.8074  -30.8928   27.0255 H   0  0  0  0  0  0
  -26.2853  -29.6817   24.1153 H   0  0  0  0  0  0
  -27.4023  -29.7258   25.4599 H   0  0  0  0  0  0
  -27.8707  -30.4353   23.9317 H   0  0  0  0  0  0
  -27.2649  -33.3619   26.2098 H   0  0  0  0  0  0
  -28.3846  -32.6894   25.0335 H   0  0  0  0  0  0
  -28.0705  -31.8442   26.5420 H   0  0  0  0  0  0
  -28.2599  -38.0096   24.7504 H   0  0  0  0  0  0
  -28.1056  -36.2628   24.6302 H   0  0  0  0  0  0
  -27.2295  -37.1472   25.8873 H   0  0  0  0  0  0
  -20.9316  -29.8802   21.6976 H   0  0  0  0  0  0
  -26.0176  -38.2871   24.1421 H   0  0  0  0  0  0
  -32.9218  -18.1799   23.0806 H   0  0  0  0  0  0
  -27.9680  -22.4935   20.5176 H   0  0  0  0  0  0
  -29.0120  -22.5451   19.1260 H   0  0  0  0  0  0
  -30.2668  -24.4787   20.0711 H   0  0  0  0  0  0
  -29.3707  -24.3737   21.5636 H   0  0  0  0  0  0
  -29.9124  -21.8334   21.9691 H   0  0  0  0  0  0
  -30.9637  -21.8715   20.5696 H   0  0  0  0  0  0
  -28.1248  -25.0168   18.8386 H   0  0  0  0  0  0
  -27.2661  -24.8391   20.3583 H   0  0  0  0  0  0
  -28.8169  -20.0555   20.0058 H   0  0  0  0  0  0
  -29.0583  -15.4508   21.1778 H   0  0  0  0  0  0
  1 25  1  0  0  0
  1 30  2  0  0  0
  1 82  1  0  0  0
  2  3  1  0  0  0
  2 25  1  0  0  0
  2 84  1  0  0  0
  2 85  1  0  0  0
  3  4  1  0  0  0
  3 86  1  0  0  0
  3 87  1  0  0  0
  4  5  1  0  0  0
  4 88  1  0  0  0
  4 89  1  0  0  0
  5  6  1  0  0  0
  5 26  1  0  0  0
  5 90  1  0  0  0
  6 25  1  0  0  0
  6 91  1  0  0  0
  6 92  1  0  0  0
  7  8  2  0  0  0
  7 26  1  0  0  0
  7 29  1  0  0  0
  8  9  1  0  0  0
  8 22  1  0  0  0
  9 10  1  0  0  0
  9 27  2  0  0  0
 10 11  2  0  0  0
 10 15  1  0  0  0
 11 12  1  0  0  0
 11 93  1  0  0  0
 12 13  2  0  0  0
 12 94  1  0  0  0
 13 14  1  0  0  0
 13 31  1  0  0  0
 14 15  2  0  0  0
 14 95  1  0  0  0
 15 96  1  0  0  0
 16 17  2  0  0  0
 16 21  1  0  0  0
 16 31  1  0  0  0
 17 18  1  0  0  0
 17 97  1  0  0  0
 18 19  2  0  0  0
 18 98  1  0  0  0
 19 20  1  0  0  0
 19 24  1  0  0  0
 20 21  2  0  0  0
 20 99  1  0  0  0
 21 23  1  0  0  0
 22 28  1  0  0  0
 22 32  2  0  0  0
 26 27  1  0  0  0
 28100  1  0  0  0
 28101  1  0  0  0
 29102  1  0  0  0
 29103  1  0  0  0
 33 34  1  0  0  0
 33 66  1  0  0  0
 33 70  2  0  0  0
 34 36  1  0  0  0
 34 59  1  0  0  0
 34104  1  0  0  0
 35 44  2  0  0  0
 35 45  1  0  0  0
 35 68  1  0  0  0
 36 56  1  0  0  0
 36105  1  0  0  0
 37 39  1  0  0  0
 37 47  1  0  0  0
 37 66  1  0  0  0
 37106  1  0  0  0
 38 43  2  0  0  0
 38 46  1  0  0  0
 38 47  1  0  0  0
 39 64  1  0  0  0
 39 67  2  0  0  0
 40 52  1  0  0  0
 40 53  2  0  0  0
 40 58  1  0  0  0
 41107  1  0  0  0
 41108  1  0  0  0
 41109  1  0  0  0
 41 48  1  0  0  0
 42 43  1  0  0  0
 42 66  1  0  0  0
 42110  1  0  0  0
 42111  1  0  0  0
 43 44  1  0  0  0
 44112  1  0  0  0
 45 46  2  0  0  0
 45113  1  0  0  0
 46114  1  0  0  0
 47115  1  0  0  0
 47116  1  0  0  0
 48 56  1  0  0  0
 48 65  1  0  0  0
 48117  1  0  0  0
 49 50  1  0  0  0
 49 53  1  0  0  0
 49 64  1  0  0  0
 49118  1  0  0  0
 50 51  1  0  0  0
 50119  1  0  0  0
 50120  1  0  0  0
 51 52  1  0  0  0
 51121  1  0  0  0
 51122  1  0  0  0
 52123  1  0  0  0
 52124  1  0  0  0
 53 54  1  0  0  0
 54 55  2  0  0  0
 54125  1  0  0  0
 55 57  1  0  0  0
 55126  1  0  0  0
 56 69  2  0  0  0
 57 58  2  0  0  0
 57127  1  0  0  0
 58128  1  0  0  0
 59 60  1  0  0  0
 59 61  1  0  0  0
 59 62  1  0  0  0
 60129  1  0  0  0
 60130  1  0  0  0
 60131  1  0  0  0
 61132  1  0  0  0
 61133  1  0  0  0
 61134  1  0  0  0
 62135  1  0  0  0
 62136  1  0  0  0
 62137  1  0  0  0
 63 65  1  0  0  0
 63138  1  0  0  0
 63139  1  0  0  0
 63140  1  0  0  0
 64141  1  0  0  0
 65142  1  0  0  0
 68 78  1  0  0  0
 71 72  2  0  0  0
 71 79  1  0  0  0
 71143  1  0  0  0
 72 73  1  0  0  0
 72 83  1  0  0  0
 73 80  2  0  0  0
 73 81  1  0  0  0
 74 79  2  0  0  0
 74 80  1  0  0  0
 74 82  1  0  0  0
 75 76  1  0  0  0
 75 77  1  0  0  0
 75144  1  0  0  0
 75145  1  0  0  0
 76 78  1  0  0  0
 76146  1  0  0  0
 76147  1  0  0  0
 77 81  1  0  0  0
 77148  1  0  0  0
 77149  1  0  0  0
 78150  1  0  0  0
 78151  1  0  0  0
 81152  1  0  0  0
 82153  1  0  0  0
M  ISO  4   1 100  68 101  78 101  82 100
M  END
> <chiral flag>
0

> <version>
0

> <s_m_source_file>
/data/baiqing/PycharmProjects/Reinvent-master-3.2/result/LINK_invent/BTK/process_docking_weight1_custom_product_contain_oxygen_bond_distance_aromatic_linkinvent_7_9_3/rearranged_h_0194.sdf

> <i_m_source_file_index>
6

> <r_mmod_Potential_Energy-OPLS-2005>
-409.162078857422

> <r_mmod_Stretch_Energy-OPLS-2005>
46.4648551940918

> <r_mmod_Bend_Energy-OPLS-2005>
116.795127868652

> <r_mmod_Torsional_Energy-OPLS-2005>
202.133270263672

> <r_mmod_Improper_Torsional_Energy-OPLS-2005>
4.26205253601074

> <r_mmod_Van_der_Waal_Energy-OPLS-2005>
167.421142578125

> <r_mmod_Electrostatic_Energy-OPLS-2005>
-736.273620605469

> <r_mmod_Solvation_Energy-OPLS-2005>
-232.176956176758

> <b_mmod_Minimization_Converged-OPLS-2005>
0

> <r_mmod_RMS_Derivative-OPLS-2005>
1.41827619075775

$$$$
6
                    3D
 Structure written by MMmdl.
155163  0  0  1  0            999 V2000
  -30.6355  -14.7421   20.4466 C   0  0  0  0  0  0
  -30.4420  -12.4610   19.4516 C   0  0  0  0  0  0
  -29.5087  -12.4921   18.2215 C   0  0  0  0  0  0
  -28.0316  -12.3456   18.6411 C   0  0  0  0  0  0
  -27.6502  -13.2380   19.8538 C   0  0  2  0  0  0
  -28.7046  -13.1608   20.9802 C   0  0  0  0  0  0
  -25.2595  -13.8213   20.5789 C   0  0  0  0  0  0
  -24.1847  -13.0432   20.9191 C   0  0  0  0  0  0
  -24.6436  -11.6931   20.8711 C   0  0  0  0  0  0
  -23.9090  -10.4307   21.0395 C   0  0  0  0  0  0
  -24.3649   -9.4231   21.9168 C   0  0  0  0  0  0
  -23.6314   -8.2271   22.0759 C   0  0  0  0  0  0
  -22.4288   -8.0301   21.3539 C   0  0  0  0  0  0
  -21.9919   -9.0268   20.4647 C   0  0  0  0  0  0
  -22.7259  -10.2141   20.3049 C   0  0  0  0  0  0
  -21.6862   -6.0748   22.5270 C   0  0  0  0  0  0
  -21.4022   -6.5656   23.8203 C   0  0  0  0  0  0
  -21.3658   -5.6797   24.9155 C   0  0  0  0  0  0
  -21.6037   -4.3055   24.7205 C   0  0  0  0  0  0
  -21.8837   -3.8159   23.4327 C   0  0  0  0  0  0
  -21.9204   -4.6977   22.3389 C   0  0  0  0  0  0
  -22.7878  -13.5244   21.1800 C   0  0  0  0  0  0
  -22.1679   -4.2173   21.0962 F   0  0  0  0  0  0
  -21.5625   -3.4534   25.7718 F   0  0  0  0  0  0
  -29.9992  -13.5204   20.3876 N   0  0  0  0  0  0
  -26.3021  -12.9434   20.3355 N   0  0  0  0  0  0
  -25.9377  -11.6561   20.5736 N   0  0  0  0  0  0
  -22.0497  -12.8239   22.0363 N   0  0  0  0  0  0
  -25.4274  -15.1942   20.4383 N   0  0  0  0  0  0
  -31.8254  -14.8241   20.1355 O   0  0  0  0  0  0
  -21.6664   -6.8884   21.4222 O   0  0  0  0  0  0
  -22.3549  -14.5527   20.6637 O   0  0  0  0  0  0
  -24.6338  -31.8524   23.1976 C   0  0  0  0  0  0
  -25.9157  -32.4746   23.8333 C   0  0  1  0  0  0
  -27.2095  -27.2185   20.1413 C   0  0  0  0  0  0
  -25.5938  -33.8544   24.2237 N   0  0  0  0  0  0
  -23.4303  -30.4738   21.5434 C   0  0  2  0  0  0
  -24.8780  -28.9111   20.1166 C   0  0  0  0  0  0
  -22.7472  -29.4603   22.4921 C   0  0  0  0  0  0
  -18.0254  -28.1328   22.8581 C   0  0  0  0  0  0
  -24.1485  -36.7285   23.2642 C   0  0  0  0  0  0
  -25.9795  -30.7468   21.3873 C   0  0  0  0  0  0
  -26.0499  -29.3636   20.7355 C   0  0  0  0  0  0
  -27.2224  -28.5330   20.7301 C   0  0  0  0  0  0
  -26.0213  -26.8455   19.4841 C   0  0  0  0  0  0
  -24.8743  -27.6645   19.4720 C   0  0  0  0  0  0
  -23.6524  -29.8081   20.1611 C   0  0  0  0  0  0
  -25.4108  -36.3053   24.0324 C   0  0  1  0  0  0
  -20.5867  -28.3678   23.1216 C   0  0  2  0  0  0
  -20.6792  -26.9465   22.5148 C   0  0  0  0  0  0
  -19.5548  -26.6369   21.5185 C   0  0  0  0  0  0
  -18.1873  -26.7811   22.1891 C   0  0  0  0  0  0
  -19.1517  -28.8848   23.2875 C   0  0  0  0  0  0
  -18.9444  -30.1455   23.8875 C   0  0  0  0  0  0
  -17.6458  -30.6591   24.0529 C   0  0  0  0  0  0
  -25.9056  -34.9417   23.5087 C   0  0  0  0  0  0
  -16.5341  -29.9064   23.6364 C   0  0  0  0  0  0
  -16.7237  -28.6434   23.0457 C   0  0  0  0  0  0
  -26.4515  -31.6560   25.0716 C   0  0  0  0  0  0
  -25.3742  -31.3670   26.1430 C   0  0  0  0  0  0
  -27.0377  -30.2986   24.6196 C   0  0  0  0  0  0
  -27.6030  -32.4323   25.7513 C   0  0  0  0  0  0
  -27.5569  -37.1810   24.8462 C   0  0  0  0  0  0
  -21.4169  -29.3122   22.3676 N   0  0  0  0  0  0
  -26.4285  -37.3761   23.9416 N   0  0  0  0  0  0
  -24.6996  -31.0437   22.0991 N   0  0  0  0  0  0
  -23.4155  -28.8102   23.2988 O   0  0  0  0  0  0
  -28.3100  -26.3243   20.1024 O   0  0  0  0  0  0
  -26.5620  -34.8905   22.4661 O   0  0  0  0  0  0
  -23.5491  -32.1354   23.7258 O   0  0  0  0  0  0
  -27.4630  -20.4684   21.0821 C   0  0  0  0  0  0
  -27.2190  -19.0955   21.2397 C   0  0  0  0  0  0
  -28.7171  -20.8715   20.5986 C   0  0  0  0  0  0
  -29.3262  -18.5420   20.5807 C   0  0  0  0  0  0
  -26.7871  -23.1094   19.4779 C   0  0  0  0  0  0
  -30.3490  -17.3399   20.3897 C   0  0  0  0  0  0
  -28.2789  -24.9239   20.6964 C   0  0  0  0  0  0
  -28.2331  -23.4804   19.8927 C   0  0  2  0  0  0
  -28.1223  -18.1472   20.9761 N   0  0  0  0  0  0
  -29.6556  -19.8684   20.3847 N   0  0  0  0  0  0
  -26.0071  -18.6184   21.7035 N   0  0  0  0  0  0
  -29.0381  -22.2870   20.4447 N   0  0  0  0  0  0
  -29.8953  -15.8949   20.6187 N   0  0  0  0  0  0
  -31.4763  -12.5944   19.1267 H   0  0  0  0  0  0
  -30.4034  -11.4820   19.9312 H   0  0  0  0  0  0
  -29.7716  -11.6910   17.5288 H   0  0  0  0  0  0
  -29.6510  -13.4231   17.6732 H   0  0  0  0  0  0
  -27.8608  -11.2951   18.8788 H   0  0  0  0  0  0
  -27.3781  -12.5651   17.7972 H   0  0  0  0  0  0
  -27.6420  -14.2665   19.4853 H   0  0  0  0  0  0
  -28.7493  -12.1571   21.4098 H   0  0  0  0  0  0
  -28.4526  -13.8367   21.7990 H   0  0  0  0  0  0
  -25.2796   -9.5733   22.4724 H   0  0  0  0  0  0
  -24.0028   -7.4690   22.7527 H   0  0  0  0  0  0
  -21.0835   -8.8792   19.8992 H   0  0  0  0  0  0
  -22.3701  -10.9676   19.6166 H   0  0  0  0  0  0
  -21.2022   -7.6156   23.9706 H   0  0  0  0  0  0
  -21.1453   -6.0518   25.9048 H   0  0  0  0  0  0
  -22.0615   -2.7622   23.2812 H   0  0  0  0  0  0
  -22.4121  -11.9900   22.4746 H   0  0  0  0  0  0
  -21.1085  -13.1261   22.2497 H   0  0  0  0  0  0
  -24.6622  -15.8408   20.6072 H   0  0  0  0  0  0
  -26.2828  -15.6551   20.1526 H   0  0  0  0  0  0
  -26.7183  -32.5360   23.1031 H   0  0  0  0  0  0
  -25.0118  -33.9682   25.0399 H   0  0  0  0  0  0
  -22.7281  -31.2970   21.3949 H   0  0  0  0  0  0
  -23.3746  -35.9629   23.3309 H   0  0  0  0  0  0
  -24.3555  -36.8917   22.2057 H   0  0  0  0  0  0
  -23.7255  -37.6492   23.6676 H   0  0  0  0  0  0
  -26.1140  -31.4980   20.6097 H   0  0  0  0  0  0
  -26.8600  -30.8039   22.0161 H   0  0  0  0  0  0
  -28.1251  -28.8793   21.2128 H   0  0  0  0  0  0
  -25.9780  -25.9078   18.9549 H   0  0  0  0  0  0
  -23.9920  -27.3253   18.9457 H   0  0  0  0  0  0
  -23.7816  -30.5869   19.4065 H   0  0  0  0  0  0
  -22.7680  -29.2475   19.8547 H   0  0  0  0  0  0
  -25.1294  -36.1899   25.0822 H   0  0  0  0  0  0
  -21.0035  -28.3150   24.1300 H   0  0  0  0  0  0
  -20.6082  -26.2208   23.3260 H   0  0  0  0  0  0
  -21.6541  -26.7734   22.0574 H   0  0  0  0  0  0
  -19.6644  -25.6269   21.1229 H   0  0  0  0  0  0
  -19.6221  -27.3203   20.6692 H   0  0  0  0  0  0
  -17.3918  -26.6264   21.4571 H   0  0  0  0  0  0
  -18.0629  -26.0092   22.9493 H   0  0  0  0  0  0
  -19.7897  -30.7285   24.2213 H   0  0  0  0  0  0
  -17.4992  -31.6276   24.5113 H   0  0  0  0  0  0
  -15.5318  -30.2961   23.7711 H   0  0  0  0  0  0
  -15.8641  -28.0685   22.7310 H   0  0  0  0  0  0
  -24.5945  -30.6995   25.7745 H   0  0  0  0  0  0
  -24.8911  -32.2819   26.4864 H   0  0  0  0  0  0
  -25.8083  -30.8842   27.0198 H   0  0  0  0  0  0
  -26.2963  -29.6714   24.1241 H   0  0  0  0  0  0
  -27.4076  -29.7258   25.4709 H   0  0  0  0  0  0
  -27.8827  -30.4257   23.9430 H   0  0  0  0  0  0
  -27.2601  -33.3621   26.2066 H   0  0  0  0  0  0
  -28.3874  -32.6903   25.0380 H   0  0  0  0  0  0
  -28.0670  -31.8483   26.5470 H   0  0  0  0  0  0
  -28.2581  -38.0104   24.7500 H   0  0  0  0  0  0
  -28.1075  -36.2645   24.6305 H   0  0  0  0  0  0
  -27.2291  -37.1462   25.8862 H   0  0  0  0  0  0
  -20.9321  -29.8896   21.6949 H   0  0  0  0  0  0
  -26.0152  -38.2845   24.1415 H   0  0  0  0  0  0
  -26.7049  -21.1914   21.3454 H   0  0  0  0  0  0
  -26.3953  -23.7800   18.7144 H   0  0  0  0  0  0
  -26.0955  -23.1488   20.3211 H   0  0  0  0  0  0
  -26.7246  -22.1158   19.0369 H   0  0  0  0  0  0
  -31.1932  -17.5270   21.0530 H   0  0  0  0  0  0
  -30.7429  -17.4036   19.3742 H   0  0  0  0  0  0
  -29.2322  -24.9042   21.2282 H   0  0  0  0  0  0
  -27.5426  -24.9046   21.5013 H   0  0  0  0  0  0
  -28.7527  -23.6701   18.9521 H   0  0  0  0  0  0
  -25.2827  -19.2263   22.0620 H   0  0  0  0  0  0
  -25.8473  -17.6244   21.8035 H   0  0  0  0  0  0
  -30.0352  -22.4294   20.3136 H   0  0  0  0  0  0
  -28.9163  -15.8080   20.8445 H   0  0  0  0  0  0
  1 25  1  0  0  0
  1 30  2  0  0  0
  1 83  1  0  0  0
  2  3  1  0  0  0
  2 25  1  0  0  0
  2 84  1  0  0  0
  2 85  1  0  0  0
  3  4  1  0  0  0
  3 86  1  0  0  0
  3 87  1  0  0  0
  4  5  1  0  0  0
  4 88  1  0  0  0
  4 89  1  0  0  0
  5  6  1  0  0  0
  5 26  1  0  0  0
  5 90  1  0  0  0
  6 25  1  0  0  0
  6 91  1  0  0  0
  6 92  1  0  0  0
  7  8  2  0  0  0
  7 26  1  0  0  0
  7 29  1  0  0  0
  8  9  1  0  0  0
  8 22  1  0  0  0
  9 10  1  0  0  0
  9 27  2  0  0  0
 10 11  2  0  0  0
 10 15  1  0  0  0
 11 12  1  0  0  0
 11 93  1  0  0  0
 12 13  2  0  0  0
 12 94  1  0  0  0
 13 14  1  0  0  0
 13 31  1  0  0  0
 14 15  2  0  0  0
 14 95  1  0  0  0
 15 96  1  0  0  0
 16 17  2  0  0  0
 16 21  1  0  0  0
 16 31  1  0  0  0
 17 18  1  0  0  0
 17 97  1  0  0  0
 18 19  2  0  0  0
 18 98  1  0  0  0
 19 20  1  0  0  0
 19 24  1  0  0  0
 20 21  2  0  0  0
 20 99  1  0  0  0
 21 23  1  0  0  0
 22 28  1  0  0  0
 22 32  2  0  0  0
 26 27  1  0  0  0
 28100  1  0  0  0
 28101  1  0  0  0
 29102  1  0  0  0
 29103  1  0  0  0
 33 34  1  0  0  0
 33 66  1  0  0  0
 33 70  2  0  0  0
 34 36  1  0  0  0
 34 59  1  0  0  0
 34104  1  0  0  0
 35 44  2  0  0  0
 35 45  1  0  0  0
 35 68  1  0  0  0
 36 56  1  0  0  0
 36105  1  0  0  0
 37 39  1  0  0  0
 37 47  1  0  0  0
 37 66  1  0  0  0
 37106  1  0  0  0
 38 43  2  0  0  0
 38 46  1  0  0  0
 38 47  1  0  0  0
 39 64  1  0  0  0
 39 67  2  0  0  0
 40 52  1  0  0  0
 40 53  2  0  0  0
 40 58  1  0  0  0
 41107  1  0  0  0
 41108  1  0  0  0
 41109  1  0  0  0
 41 48  1  0  0  0
 42 43  1  0  0  0
 42 66  1  0  0  0
 42110  1  0  0  0
 42111  1  0  0  0
 43 44  1  0  0  0
 44112  1  0  0  0
 45 46  2  0  0  0
 45113  1  0  0  0
 46114  1  0  0  0
 47115  1  0  0  0
 47116  1  0  0  0
 48 56  1  0  0  0
 48 65  1  0  0  0
 48117  1  0  0  0
 49 50  1  0  0  0
 49 53  1  0  0  0
 49 64  1  0  0  0
 49118  1  0  0  0
 50 51  1  0  0  0
 50119  1  0  0  0
 50120  1  0  0  0
 51 52  1  0  0  0
 51121  1  0  0  0
 51122  1  0  0  0
 52123  1  0  0  0
 52124  1  0  0  0
 53 54  1  0  0  0
 54 55  2  0  0  0
 54125  1  0  0  0
 55 57  1  0  0  0
 55126  1  0  0  0
 56 69  2  0  0  0
 57 58  2  0  0  0
 57127  1  0  0  0
 58128  1  0  0  0
 59 60  1  0  0  0
 59 61  1  0  0  0
 59 62  1  0  0  0
 60129  1  0  0  0
 60130  1  0  0  0
 60131  1  0  0  0
 61132  1  0  0  0
 61133  1  0  0  0
 61134  1  0  0  0
 62135  1  0  0  0
 62136  1  0  0  0
 62137  1  0  0  0
 63 65  1  0  0  0
 63138  1  0  0  0
 63139  1  0  0  0
 63140  1  0  0  0
 64141  1  0  0  0
 65142  1  0  0  0
 68 77  1  0  0  0
 71 72  2  0  0  0
 71 73  1  0  0  0
 71143  1  0  0  0
 72 79  1  0  0  0
 72 81  1  0  0  0
 73 80  2  0  0  0
 73 82  1  0  0  0
 74 76  1  0  0  0
 74 79  2  0  0  0
 74 80  1  0  0  0
 75144  1  0  0  0
 75145  1  0  0  0
 75146  1  0  0  0
 75 78  1  0  0  0
 76 83  1  0  0  0
 76147  1  0  0  0
 76148  1  0  0  0
 77 78  1  0  0  0
 77149  1  0  0  0
 77150  1  0  0  0
 78 82  1  0  0  0
 78151  1  0  0  0
 81152  1  0  0  0
 81153  1  0  0  0
 82154  1  0  0  0
 83155  1  0  0  0
M  ISO  4   1 100  68 101  77 101  83 100
M  END
> <chiral flag>
0

> <version>
0

> <s_m_source_file>
/data/baiqing/PycharmProjects/Reinvent-master-3.2/result/LINK_invent/BTK/process_docking_weight1_custom_product_contain_oxygen_bond_distance_aromatic_linkinvent_7_9_3/rearranged_h_0194.sdf

> <i_m_source_file_index>
7

> <r_mmod_Potential_Energy-OPLS-2005>
-564.117553710938

> <r_mmod_Stretch_Energy-OPLS-2005>
137.608535766602

> <r_mmod_Bend_Energy-OPLS-2005>
219.335678100586

> <r_mmod_Torsional_Energy-OPLS-2005>
231.712661743164

> <r_mmod_Improper_Torsional_Energy-OPLS-2005>
7.59122323989868

> <r_mmod_Van_der_Waal_Energy-OPLS-2005>
137.510986328125

> <r_mmod_Electrostatic_Energy-OPLS-2005>
-1154.87243652344

> <r_mmod_Solvation_Energy-OPLS-2005>
-234.668319702148

> <b_mmod_Minimization_Converged-OPLS-2005>
0

> <r_mmod_RMS_Derivative-OPLS-2005>
5.26102018356323

$$$$
7
                    3D
 Structure written by MMmdl.
156164  0  0  1  0            999 V2000
  -30.6012  -14.7030   20.4748 C   0  0  0  0  0  0
  -30.4450  -12.4269   19.4632 C   0  0  0  0  0  0
  -29.5142  -12.5077   18.2305 C   0  0  0  0  0  0
  -28.0385  -12.3376   18.6438 C   0  0  0  0  0  0
  -27.6524  -13.2216   19.8597 C   0  0  2  0  0  0
  -28.6974  -13.1034   20.9933 C   0  0  0  0  0  0
  -25.2560  -13.8180   20.5675 C   0  0  0  0  0  0
  -24.1828  -13.0447   20.9191 C   0  0  0  0  0  0
  -24.6398  -11.6917   20.8740 C   0  0  0  0  0  0
  -23.9073  -10.4295   21.0409 C   0  0  0  0  0  0
  -24.3621   -9.4205   21.9183 C   0  0  0  0  0  0
  -23.6287   -8.2245   22.0765 C   0  0  0  0  0  0
  -22.4266   -8.0284   21.3559 C   0  0  0  0  0  0
  -21.9901   -9.0262   20.4664 C   0  0  0  0  0  0
  -22.7246  -10.2133   20.3061 C   0  0  0  0  0  0
  -21.6851   -6.0727   22.5275 C   0  0  0  0  0  0
  -21.4016   -6.5632   23.8209 C   0  0  0  0  0  0
  -21.3658   -5.6786   24.9171 C   0  0  0  0  0  0
  -21.6042   -4.3049   24.7225 C   0  0  0  0  0  0
  -21.8822   -3.8141   23.4348 C   0  0  0  0  0  0
  -21.9194   -4.6955   22.3402 C   0  0  0  0  0  0
  -22.7849  -13.5243   21.1829 C   0  0  0  0  0  0
  -22.1662   -4.2144   21.0981 F   0  0  0  0  0  0
  -21.5630   -3.4534   25.7740 F   0  0  0  0  0  0
  -30.0087  -13.4613   20.4288 N   0  0  0  0  0  0
  -26.2986  -12.9370   20.3292 N   0  0  0  0  0  0
  -25.9329  -11.6525   20.5739 N   0  0  0  0  0  0
  -22.0478  -12.8261   22.0390 N   0  0  0  0  0  0
  -25.4266  -15.1901   20.4093 N   0  0  0  0  0  0
  -31.7627  -14.8463   20.0718 O   0  0  0  0  0  0
  -21.6642   -6.8871   21.4239 O   0  0  0  0  0  0
  -22.3545  -14.5544   20.6661 O   0  0  0  0  0  0
  -24.6284  -31.8552   23.1993 C   0  0  0  0  0  0
  -25.9124  -32.4750   23.8325 C   0  0  1  0  0  0
  -27.2230  -27.2815   20.1259 C   0  0  0  0  0  0
  -25.5917  -33.8548   24.2254 N   0  0  0  0  0  0
  -23.4234  -30.4794   21.5410 C   0  0  2  0  0  0
  -24.8707  -28.9281   20.1098 C   0  0  0  0  0  0
  -22.7482  -29.4611   22.4911 C   0  0  0  0  0  0
  -18.0288  -28.1381   22.8485 C   0  0  0  0  0  0
  -24.1481  -36.7288   23.2642 C   0  0  0  0  0  0
  -25.9658  -30.7763   21.3749 C   0  0  0  0  0  0
  -26.0390  -29.3999   20.7190 C   0  0  0  0  0  0
  -27.2144  -28.5873   20.7181 C   0  0  0  0  0  0
  -26.0293  -26.8711   19.4895 C   0  0  0  0  0  0
  -24.8690  -27.6704   19.4875 C   0  0  0  0  0  0
  -23.6411  -29.8132   20.1570 C   0  0  0  0  0  0
  -25.4105  -36.3071   24.0332 C   0  0  1  0  0  0
  -20.5889  -28.3694   23.1274 C   0  0  2  0  0  0
  -20.6770  -26.9409   22.5413 C   0  0  0  0  0  0
  -19.5748  -26.6389   21.5207 C   0  0  0  0  0  0
  -18.1930  -26.7926   22.1624 C   0  0  0  0  0  0
  -19.1542  -28.8852   23.2871 C   0  0  0  0  0  0
  -18.9472  -30.1448   23.8899 C   0  0  0  0  0  0
  -17.6476  -30.6582   24.0563 C   0  0  0  0  0  0
  -25.9049  -34.9441   23.5102 C   0  0  0  0  0  0
  -16.5363  -29.9089   23.6322 C   0  0  0  0  0  0
  -16.7280  -28.6499   23.0353 C   0  0  0  0  0  0
  -26.4498  -31.6575   25.0717 C   0  0  0  0  0  0
  -25.3736  -31.3729   26.1456 C   0  0  0  0  0  0
  -27.0349  -30.2996   24.6189 C   0  0  0  0  0  0
  -27.6047  -32.4318   25.7488 C   0  0  0  0  0  0
  -27.5568  -37.1793   24.8461 C   0  0  0  0  0  0
  -21.4190  -29.3044   22.3662 N   0  0  0  0  0  0
  -26.4275  -37.3773   23.9414 N   0  0  0  0  0  0
  -24.6914  -31.0550   22.0951 N   0  0  0  0  0  0
  -23.4195  -28.8153   23.3003 O   0  0  0  0  0  0
  -28.3458  -26.4279   20.2003 O   0  0  0  0  0  0
  -26.5631  -34.8919   22.4677 O   0  0  0  0  0  0
  -23.5448  -32.1354   23.7319 O   0  0  0  0  0  0
  -29.0584  -19.2509   21.4915 C   0  0  0  0  0  0
  -29.2733  -19.9330   20.2657 C   0  0  0  0  0  0
  -29.8283  -19.0477   19.2971 C   0  0  0  0  0  0
  -29.7930  -17.1656   20.6928 C   0  0  0  0  0  0
  -28.8477  -21.3986   20.0282 C   0  0  0  0  0  0
  -28.5919  -24.8735   18.3726 C   0  0  0  0  0  0
  -29.2806  -24.0402   20.7203 C   0  0  0  0  0  0
  -28.2773  -24.9636   19.8764 C   0  0  1  0  0  0
  -29.2849  -17.9089   21.6852 N   0  0  0  0  0  0
  -30.0774  -17.7187   19.5027 N   0  0  0  0  0  0
  -30.1289  -19.4779   18.0108 N   0  0  0  0  0  0
  -27.8798  -21.6425   19.1300 N   0  0  0  0  0  0
  -29.8148  -15.7564   20.8937 N   0  0  0  0  0  0
  -29.3777  -22.4968   20.6810 N   0  3  0  0  0  0
  -31.4851  -12.5583   19.1579 H   0  0  0  0  0  0
  -30.3980  -11.4385   19.9217 H   0  0  0  0  0  0
  -29.7846  -11.7418   17.5020 H   0  0  0  0  0  0
  -29.6475  -13.4676   17.7276 H   0  0  0  0  0  0
  -27.8867  -11.2855   18.8896 H   0  0  0  0  0  0
  -27.3838  -12.5507   17.7981 H   0  0  0  0  0  0
  -27.6629  -14.2519   19.5032 H   0  0  0  0  0  0
  -28.7238  -12.0865   21.3876 H   0  0  0  0  0  0
  -28.4338  -13.7423   21.8374 H   0  0  0  0  0  0
  -25.2768   -9.5669   22.4756 H   0  0  0  0  0  0
  -23.9996   -7.4630   22.7480 H   0  0  0  0  0  0
  -21.0831   -8.8784   19.8966 H   0  0  0  0  0  0
  -22.3712  -10.9669   19.6165 H   0  0  0  0  0  0
  -21.2014   -7.6142   23.9708 H   0  0  0  0  0  0
  -21.1472   -6.0520   25.9072 H   0  0  0  0  0  0
  -22.0602   -2.7604   23.2852 H   0  0  0  0  0  0
  -22.4092  -11.9948   22.4816 H   0  0  0  0  0  0
  -21.1087  -13.1287   22.2562 H   0  0  0  0  0  0
  -24.6572  -15.8416   20.5207 H   0  0  0  0  0  0
  -26.2627  -15.6247   20.0418 H   0  0  0  0  0  0
  -26.7194  -32.5412   23.1068 H   0  0  0  0  0  0
  -25.0036  -33.9654   25.0380 H   0  0  0  0  0  0
  -22.7185  -31.3009   21.3957 H   0  0  0  0  0  0
  -23.3739  -35.9622   23.3303 H   0  0  0  0  0  0
  -24.3571  -36.8914   22.2056 H   0  0  0  0  0  0
  -23.7244  -37.6492   23.6671 H   0  0  0  0  0  0
  -26.1006  -31.5373   20.6050 H   0  0  0  0  0  0
  -26.8439  -30.8277   22.0068 H   0  0  0  0  0  0
  -28.1071  -28.9439   21.2133 H   0  0  0  0  0  0
  -25.9588  -25.9130   18.9983 H   0  0  0  0  0  0
  -23.9726  -27.3036   19.0072 H   0  0  0  0  0  0
  -23.7665  -30.5872   19.3990 H   0  0  0  0  0  0
  -22.7594  -29.2465   19.8534 H   0  0  0  0  0  0
  -25.1281  -36.1918   25.0822 H   0  0  0  0  0  0
  -20.9964  -28.3282   24.1402 H   0  0  0  0  0  0
  -20.5657  -26.2296   23.3614 H   0  0  0  0  0  0
  -21.6639  -26.7422   22.1213 H   0  0  0  0  0  0
  -19.6897  -25.6303   21.1227 H   0  0  0  0  0  0
  -19.6686  -27.3206   20.6743 H   0  0  0  0  0  0
  -17.4184  -26.6664   21.4040 H   0  0  0  0  0  0
  -18.0341  -26.0071   22.9027 H   0  0  0  0  0  0
  -19.7955  -30.7247   24.2274 H   0  0  0  0  0  0
  -17.5043  -31.6266   24.5164 H   0  0  0  0  0  0
  -15.5368  -30.2997   23.7644 H   0  0  0  0  0  0
  -15.8677  -28.0819   22.7077 H   0  0  0  0  0  0
  -24.5897  -30.7079   25.7810 H   0  0  0  0  0  0
  -24.8942  -32.2906   26.4879 H   0  0  0  0  0  0
  -25.8075  -30.8920   27.0231 H   0  0  0  0  0  0
  -26.2932  -29.6739   24.1209 H   0  0  0  0  0  0
  -27.4038  -29.7266   25.4705 H   0  0  0  0  0  0
  -27.8804  -30.4274   23.9425 H   0  0  0  0  0  0
  -27.2638  -33.3613   26.2055 H   0  0  0  0  0  0
  -28.3862  -32.6881   25.0325 H   0  0  0  0  0  0
  -28.0705  -31.8450   26.5411 H   0  0  0  0  0  0
  -28.2587  -38.0088   24.7506 H   0  0  0  0  0  0
  -28.1060  -36.2619   24.6285 H   0  0  0  0  0  0
  -27.2282  -37.1442   25.8863 H   0  0  0  0  0  0
  -20.9366  -29.8783   21.6887 H   0  0  0  0  0  0
  -26.0157  -38.2843   24.1431 H   0  0  0  0  0  0
  -28.6289  -19.7790   22.3296 H   0  0  0  0  0  0
  -28.6233  -23.8495   18.0084 H   0  0  0  0  0  0
  -29.5658  -25.3147   18.1571 H   0  0  0  0  0  0
  -27.8532  -25.4080   17.7764 H   0  0  0  0  0  0
  -29.1161  -24.2863   21.7695 H   0  0  0  0  0  0
  -30.2896  -24.3972   20.5137 H   0  0  0  0  0  0
  -27.2763  -24.5860   20.0806 H   0  0  0  0  0  0
  -30.2065  -20.4680   17.8151 H   0  0  0  0  0  0
  -30.7039  -18.8893   17.4226 H   0  0  0  0  0  0
  -27.4180  -20.8893   18.6391 H   0  0  0  0  0  0
  -27.5379  -22.5695   18.9379 H   0  0  0  0  0  0
  -29.0074  -15.4340   21.3988 H   0  0  0  0  0  0
  -30.1095  -22.2272   21.3250 H   0  0  0  0  0  0
  1 25  1  0  0  0
  1 30  2  0  0  0
  1 83  1  0  0  0
  2  3  1  0  0  0
  2 25  1  0  0  0
  2 85  1  0  0  0
  2 86  1  0  0  0
  3  4  1  0  0  0
  3 87  1  0  0  0
  3 88  1  0  0  0
  4  5  1  0  0  0
  4 89  1  0  0  0
  4 90  1  0  0  0
  5  6  1  0  0  0
  5 26  1  0  0  0
  5 91  1  0  0  0
  6 25  1  0  0  0
  6 92  1  0  0  0
  6 93  1  0  0  0
  7  8  2  0  0  0
  7 26  1  0  0  0
  7 29  1  0  0  0
  8  9  1  0  0  0
  8 22  1  0  0  0
  9 10  1  0  0  0
  9 27  2  0  0  0
 10 11  2  0  0  0
 10 15  1  0  0  0
 11 12  1  0  0  0
 11 94  1  0  0  0
 12 13  2  0  0  0
 12 95  1  0  0  0
 13 14  1  0  0  0
 13 31  1  0  0  0
 14 15  2  0  0  0
 14 96  1  0  0  0
 15 97  1  0  0  0
 16 17  2  0  0  0
 16 21  1  0  0  0
 16 31  1  0  0  0
 17 18  1  0  0  0
 17 98  1  0  0  0
 18 19  2  0  0  0
 18 99  1  0  0  0
 19 20  1  0  0  0
 19 24  1  0  0  0
 20 21  2  0  0  0
 20100  1  0  0  0
 21 23  1  0  0  0
 22 28  1  0  0  0
 22 32  2  0  0  0
 26 27  1  0  0  0
 28101  1  0  0  0
 28102  1  0  0  0
 29103  1  0  0  0
 29104  1  0  0  0
 33 34  1  0  0  0
 33 66  1  0  0  0
 33 70  2  0  0  0
 34 36  1  0  0  0
 34 59  1  0  0  0
 34105  1  0  0  0
 35 44  2  0  0  0
 35 45  1  0  0  0
 35 68  1  0  0  0
 36 56  1  0  0  0
 36106  1  0  0  0
 37 39  1  0  0  0
 37 47  1  0  0  0
 37 66  1  0  0  0
 37107  1  0  0  0
 38 43  2  0  0  0
 38 46  1  0  0  0
 38 47  1  0  0  0
 39 64  1  0  0  0
 39 67  2  0  0  0
 40 52  1  0  0  0
 40 53  2  0  0  0
 40 58  1  0  0  0
 41108  1  0  0  0
 41109  1  0  0  0
 41110  1  0  0  0
 41 48  1  0  0  0
 42 43  1  0  0  0
 42 66  1  0  0  0
 42111  1  0  0  0
 42112  1  0  0  0
 43 44  1  0  0  0
 44113  1  0  0  0
 45 46  2  0  0  0
 45114  1  0  0  0
 46115  1  0  0  0
 47116  1  0  0  0
 47117  1  0  0  0
 48 56  1  0  0  0
 48 65  1  0  0  0
 48118  1  0  0  0
 49 50  1  0  0  0
 49 53  1  0  0  0
 49 64  1  0  0  0
 49119  1  0  0  0
 50 51  1  0  0  0
 50120  1  0  0  0
 50121  1  0  0  0
 51 52  1  0  0  0
 51122  1  0  0  0
 51123  1  0  0  0
 52124  1  0  0  0
 52125  1  0  0  0
 53 54  1  0  0  0
 54 55  2  0  0  0
 54126  1  0  0  0
 55 57  1  0  0  0
 55127  1  0  0  0
 56 69  2  0  0  0
 57 58  2  0  0  0
 57128  1  0  0  0
 58129  1  0  0  0
 59 60  1  0  0  0
 59 61  1  0  0  0
 59 62  1  0  0  0
 60130  1  0  0  0
 60131  1  0  0  0
 60132  1  0  0  0
 61133  1  0  0  0
 61134  1  0  0  0
 61135  1  0  0  0
 62136  1  0  0  0
 62137  1  0  0  0
 62138  1  0  0  0
 63 65  1  0  0  0
 63139  1  0  0  0
 63140  1  0  0  0
 63141  1  0  0  0
 64142  1  0  0  0
 65143  1  0  0  0
 68 78  1  0  0  0
 71 72  2  0  0  0
 71 79  1  0  0  0
 71144  1  0  0  0
 72 73  1  0  0  0
 72 75  1  0  0  0
 73 80  2  0  0  0
 73 81  1  0  0  0
 74 79  2  0  0  0
 74 80  1  0  0  0
 74 83  1  0  0  0
 75 82  1  0  0  0
 75 84  2  0  0  0
 76145  1  0  0  0
 76146  1  0  0  0
 76147  1  0  0  0
 76 78  1  0  0  0
 77 78  1  0  0  0
 77 84  1  0  0  0
 77148  1  0  0  0
 77149  1  0  0  0
 78150  1  0  0  0
 81151  1  0  0  0
 81152  1  0  0  0
 82153  1  0  0  0
 82154  1  0  0  0
 83155  1  0  0  0
 84156  1  0  0  0
M  CHG  1  84   1
M  ISO  4   1 100  68 101  78 101  83 100
M  END
> <chiral flag>
0

> <version>
0

> <s_m_source_file>
/data/baiqing/PycharmProjects/Reinvent-master-3.2/result/LINK_invent/BTK/process_docking_weight1_custom_product_contain_oxygen_bond_distance_aromatic_linkinvent_7_9_3/rearranged_h_0194.sdf

> <i_m_source_file_index>
8

> <r_mmod_Potential_Energy-OPLS-2005>
-270.540466308594

> <r_mmod_Stretch_Energy-OPLS-2005>
102.79670715332

> <r_mmod_Bend_Energy-OPLS-2005>
210.132431030273

> <r_mmod_Torsional_Energy-OPLS-2005>
232.318023681641

> <r_mmod_Improper_Torsional_Energy-OPLS-2005>
6.40424060821533

> <r_mmod_Van_der_Waal_Energy-OPLS-2005>
141.138366699219

> <r_mmod_Electrostatic_Energy-OPLS-2005>
-538.761047363281

> <r_mmod_Solvation_Energy-OPLS-2005>
-492.077758789062

> <b_mmod_Minimization_Converged-OPLS-2005>
0

> <r_mmod_RMS_Derivative-OPLS-2005>
1.78216958045959

$$$$
8
                    3D
 Structure written by MMmdl.
165173  0  0  1  0            999 V2000
  -30.5082  -14.7980   20.4984 C   0  0  0  0  0  0
  -30.4746  -12.4904   19.4806 C   0  0  0  0  0  0
  -29.5359  -12.5149   18.2493 C   0  0  0  0  0  0
  -28.0603  -12.3162   18.6605 C   0  0  0  0  0  0
  -27.6553  -13.2063   19.8645 C   0  0  2  0  0  0
  -28.6983  -13.0880   20.9982 C   0  0  0  0  0  0
  -25.2574  -13.8084   20.5644 C   0  0  0  0  0  0
  -24.1844  -13.0391   20.9205 C   0  0  0  0  0  0
  -24.6389  -11.6856   20.8743 C   0  0  0  0  0  0
  -23.9038  -10.4250   21.0409 C   0  0  0  0  0  0
  -24.3586   -9.4173   21.9191 C   0  0  0  0  0  0
  -23.6259   -8.2214   22.0766 C   0  0  0  0  0  0
  -22.4247   -8.0248   21.3551 C   0  0  0  0  0  0
  -21.9878   -9.0215   20.4653 C   0  0  0  0  0  0
  -22.7204  -10.2094   20.3058 C   0  0  0  0  0  0
  -21.6833   -6.0702   22.5271 C   0  0  0  0  0  0
  -21.4009   -6.5615   23.8205 C   0  0  0  0  0  0
  -21.3669   -5.6778   24.9174 C   0  0  0  0  0  0
  -21.6045   -4.3040   24.7227 C   0  0  0  0  0  0
  -21.8817   -3.8121   23.4352 C   0  0  0  0  0  0
  -21.9195   -4.6934   22.3402 C   0  0  0  0  0  0
  -22.7874  -13.5216   21.1872 C   0  0  0  0  0  0
  -22.1654   -4.2117   21.0980 F   0  0  0  0  0  0
  -21.5642   -3.4527   25.7746 F   0  0  0  0  0  0
  -29.9963  -13.5131   20.4412 N   0  0  0  0  0  0
  -26.2997  -12.9250   20.3286 N   0  0  0  0  0  0
  -25.9317  -11.6430   20.5745 N   0  0  0  0  0  0
  -22.0486  -12.8221   22.0417 N   0  0  0  0  0  0
  -25.4259  -15.1777   20.3874 N   0  0  0  0  0  0
  -31.6616  -15.0252   20.1121 O   0  0  0  0  0  0
  -21.6620   -6.8842   21.4235 O   0  0  0  0  0  0
  -22.3592  -14.5536   20.6724 O   0  0  0  0  0  0
  -24.6334  -31.8516   23.1925 C   0  0  0  0  0  0
  -25.9122  -32.4752   23.8304 C   0  0  1  0  0  0
  -27.2383  -27.2362   20.1465 C   0  0  0  0  0  0
  -25.5905  -33.8543   24.2234 N   0  0  0  0  0  0
  -23.4341  -30.4700   21.5361 C   0  0  2  0  0  0
  -24.8838  -28.8995   20.1203 C   0  0  0  0  0  0
  -22.7538  -29.4599   22.4906 C   0  0  0  0  0  0
  -18.0328  -28.1407   22.8477 C   0  0  0  0  0  0
  -24.1501  -36.7262   23.2648 C   0  0  0  0  0  0
  -25.9796  -30.7595   21.3714 C   0  0  0  0  0  0
  -26.0570  -29.3748   20.7228 C   0  0  0  0  0  0
  -27.2374  -28.5584   20.7161 C   0  0  0  0  0  0
  -26.0400  -26.8264   19.5262 C   0  0  0  0  0  0
  -24.8809  -27.6343   19.5089 C   0  0  0  0  0  0
  -23.6543  -29.7887   20.1595 C   0  0  0  0  0  0
  -25.4127  -36.3070   24.0346 C   0  0  1  0  0  0
  -20.5940  -28.3725   23.1262 C   0  0  2  0  0  0
  -20.6851  -26.9443   22.5408 C   0  0  0  0  0  0
  -19.5825  -26.6402   21.5221 C   0  0  0  0  0  0
  -18.1995  -26.7947   22.1616 C   0  0  0  0  0  0
  -19.1582  -28.8878   23.2868 C   0  0  0  0  0  0
  -18.9519  -30.1477   23.8892 C   0  0  0  0  0  0
  -17.6524  -30.6613   24.0581 C   0  0  0  0  0  0
  -25.9055  -34.9441   23.5102 C   0  0  0  0  0  0
  -16.5406  -29.9112   23.6350 C   0  0  0  0  0  0
  -16.7322  -28.6533   23.0358 C   0  0  0  0  0  0
  -26.4476  -31.6586   25.0696 C   0  0  0  0  0  0
  -25.3701  -31.3720   26.1415 C   0  0  0  0  0  0
  -27.0322  -30.3037   24.6134 C   0  0  0  0  0  0
  -27.6041  -32.4318   25.7453 C   0  0  0  0  0  0
  -27.5592  -37.1783   24.8484 C   0  0  0  0  0  0
  -21.4257  -29.3049   22.3628 N   0  0  0  0  0  0
  -26.4316  -37.3769   23.9424 N   0  0  0  0  0  0
  -24.7017  -31.0465   22.0904 N   0  0  0  0  0  0
  -23.4212  -28.8146   23.3031 O   0  0  0  0  0  0
  -28.3615  -26.3672   20.1134 O   0  0  0  0  0  0
  -26.5662  -34.8916   22.4689 O   0  0  0  0  0  0
  -23.5483  -32.1338   23.7216 O   0  0  0  0  0  0
  -27.9580  -17.2728   21.5869 C   0  0  0  0  0  0
  -28.9553  -19.6147   20.5849 C   0  0  0  0  0  0
  -29.2088  -17.2055   20.9205 C   0  0  0  0  0  0
  -27.6762  -19.5243   21.2102 C   0  0  0  0  0  0
  -29.4492  -21.0028   20.0845 C   0  0  0  0  0  0
  -29.9896  -23.0398   23.2303 C   0  0  0  0  0  0
  -30.2863  -25.7186   22.1471 C   0  0  0  0  0  0
  -28.7163  -23.8966   23.0498 C   0  0  0  0  0  0
  -29.0429  -23.7062   19.8810 C   0  0  0  0  0  0
  -28.8573  -25.1305   22.1148 C   0  0  1  0  0  0
  -28.3060  -24.9515   20.6632 C   0  0  1  0  0  0
  -27.2049  -18.3822   21.7307 N   0  0  0  0  0  0
  -29.7248  -18.4278   20.4267 N   0  0  0  0  0  0
  -26.7832  -20.5882   21.3384 N   0  0  0  0  0  0
  -30.5739  -21.0184   19.3531 N   0  0  0  0  0  0
  -29.5960  -15.7558   20.9210 N   0  0  0  0  0  0
  -28.8089  -22.2327   20.3241 N   0  3  0  0  0  0
  -31.5067  -12.6760   19.1776 H   0  0  0  0  0  0
  -30.4777  -11.5029   19.9451 H   0  0  0  0  0  0
  -29.8323  -11.7414   17.5390 H   0  0  0  0  0  0
  -29.6448  -13.4661   17.7260 H   0  0  0  0  0  0
  -27.9355  -11.2658   18.9298 H   0  0  0  0  0  0
  -27.4006  -12.4927   17.8101 H   0  0  0  0  0  0
  -27.6634  -14.2324   19.5024 H   0  0  0  0  0  0
  -28.7577  -12.0569   21.3541 H   0  0  0  0  0  0
  -28.4110  -13.6743   21.8732 H   0  0  0  0  0  0
  -25.2723   -9.5639   22.4772 H   0  0  0  0  0  0
  -23.9952   -7.4601   22.7492 H   0  0  0  0  0  0
  -21.0814   -8.8719   19.8956 H   0  0  0  0  0  0
  -22.3655  -10.9631   19.6163 H   0  0  0  0  0  0
  -21.1988   -7.6124   23.9701 H   0  0  0  0  0  0
  -21.1508   -6.0509   25.9079 H   0  0  0  0  0  0
  -22.0599   -2.7580   23.2859 H   0  0  0  0  0  0
  -22.4060  -11.9837   22.4754 H   0  0  0  0  0  0
  -21.1135  -13.1323   22.2680 H   0  0  0  0  0  0
  -24.6224  -15.7953   20.4273 H   0  0  0  0  0  0
  -26.1862  -15.5632   19.8430 H   0  0  0  0  0  0
  -26.7187  -32.5420   23.1053 H   0  0  0  0  0  0
  -25.0018  -33.9679   25.0354 H   0  0  0  0  0  0
  -22.7349  -31.2949   21.3815 H   0  0  0  0  0  0
  -23.3804  -35.9557   23.3326 H   0  0  0  0  0  0
  -24.3586  -36.8864   22.2060 H   0  0  0  0  0  0
  -23.7221  -37.6453   23.6653 H   0  0  0  0  0  0
  -26.1080  -31.5110   20.5911 H   0  0  0  0  0  0
  -26.8613  -30.8236   21.9982 H   0  0  0  0  0  0
  -28.1418  -28.9236   21.1810 H   0  0  0  0  0  0
  -25.9955  -25.8587   19.0467 H   0  0  0  0  0  0
  -23.9842  -27.2681   19.0296 H   0  0  0  0  0  0
  -23.7772  -30.5573   19.3949 H   0  0  0  0  0  0
  -22.7731  -29.2176   19.8625 H   0  0  0  0  0  0
  -25.1323  -36.1912   25.0849 H   0  0  0  0  0  0
  -21.0060  -28.3306   24.1371 H   0  0  0  0  0  0
  -20.5835  -26.2315   23.3607 H   0  0  0  0  0  0
  -21.6710  -26.7517   22.1152 H   0  0  0  0  0  0
  -19.7014  -25.6314   21.1258 H   0  0  0  0  0  0
  -19.6775  -27.3212   20.6756 H   0  0  0  0  0  0
  -17.4286  -26.6713   21.4005 H   0  0  0  0  0  0
  -18.0388  -26.0080   22.9003 H   0  0  0  0  0  0
  -19.7995  -30.7302   24.2255 H   0  0  0  0  0  0
  -17.5088  -31.6294   24.5186 H   0  0  0  0  0  0
  -15.5414  -30.3045   23.7676 H   0  0  0  0  0  0
  -15.8717  -28.0883   22.7061 H   0  0  0  0  0  0
  -24.5907  -30.7033   25.7747 H   0  0  0  0  0  0
  -24.8843  -32.2875   26.4813 H   0  0  0  0  0  0
  -25.8021  -30.8936   27.0216 H   0  0  0  0  0  0
  -26.2893  -29.6790   24.1181 H   0  0  0  0  0  0
  -27.4094  -29.7274   25.4587 H   0  0  0  0  0  0
  -27.8713  -30.4384   23.9309 H   0  0  0  0  0  0
  -27.2695  -33.3666   26.1966 H   0  0  0  0  0  0
  -28.3865  -32.6804   25.0265 H   0  0  0  0  0  0
  -28.0691  -31.8488   26.5414 H   0  0  0  0  0  0
  -28.2619  -38.0072   24.7550 H   0  0  0  0  0  0
  -28.1085  -36.2613   24.6318 H   0  0  0  0  0  0
  -27.2305  -37.1444   25.8883 H   0  0  0  0  0  0
  -20.9475  -29.8659   21.6729 H   0  0  0  0  0  0
  -26.0211  -38.2849   24.1435 H   0  0  0  0  0  0
  -27.5067  -16.3818   22.0000 H   0  0  0  0  0  0
  -29.7714  -22.1107   23.7560 H   0  0  0  0  0  0
  -30.7461  -23.5685   23.8135 H   0  0  0  0  0  0
  -30.4540  -22.7749   22.2827 H   0  0  0  0  0  0
  -31.0127  -25.0458   21.6926 H   0  0  0  0  0  0
  -30.6074  -25.9014   23.1723 H   0  0  0  0  0  0
  -30.3531  -26.6685   21.6183 H   0  0  0  0  0  0
  -28.4282  -24.2444   24.0432 H   0  0  0  0  0  0
  -27.8820  -23.2701   22.7295 H   0  0  0  0  0  0
  -28.7394  -23.7531   18.8357 H   0  0  0  0  0  0
  -30.1186  -23.8803   19.8728 H   0  0  0  0  0  0
  -28.2139  -25.8886   22.5635 H   0  0  0  0  0  0
  -27.2537  -24.6759   20.7439 H   0  0  0  0  0  0
  -26.4272  -20.9081   20.4429 H   0  0  0  0  0  0
  -25.9709  -20.3277   21.8884 H   0  0  0  0  0  0
  -30.9394  -21.8438   18.9084 H   0  0  0  0  0  0
  -31.0542  -20.1405   19.2077 H   0  0  0  0  0  0
  -28.8209  -15.2246   21.2901 H   0  0  0  0  0  0
  -27.9621  -22.0960   20.8743 H   0  0  0  0  0  0
  1 25  1  0  0  0
  1 30  2  0  0  0
  1 86  1  0  0  0
  2  3  1  0  0  0
  2 25  1  0  0  0
  2 88  1  0  0  0
  2 89  1  0  0  0
  3  4  1  0  0  0
  3 90  1  0  0  0
  3 91  1  0  0  0
  4  5  1  0  0  0
  4 92  1  0  0  0
  4 93  1  0  0  0
  5  6  1  0  0  0
  5 26  1  0  0  0
  5 94  1  0  0  0
  6 25  1  0  0  0
  6 95  1  0  0  0
  6 96  1  0  0  0
  7  8  2  0  0  0
  7 26  1  0  0  0
  7 29  1  0  0  0
  8  9  1  0  0  0
  8 22  1  0  0  0
  9 10  1  0  0  0
  9 27  2  0  0  0
 10 11  2  0  0  0
 10 15  1  0  0  0
 11 12  1  0  0  0
 11 97  1  0  0  0
 12 13  2  0  0  0
 12 98  1  0  0  0
 13 14  1  0  0  0
 13 31  1  0  0  0
 14 15  2  0  0  0
 14 99  1  0  0  0
 15100  1  0  0  0
 16 17  2  0  0  0
 16 21  1  0  0  0
 16 31  1  0  0  0
 17 18  1  0  0  0
 17101  1  0  0  0
 18 19  2  0  0  0
 18102  1  0  0  0
 19 20  1  0  0  0
 19 24  1  0  0  0
 20 21  2  0  0  0
 20103  1  0  0  0
 21 23  1  0  0  0
 22 28  1  0  0  0
 22 32  2  0  0  0
 26 27  1  0  0  0
 28104  1  0  0  0
 28105  1  0  0  0
 29106  1  0  0  0
 29107  1  0  0  0
 33 34  1  0  0  0
 33 66  1  0  0  0
 33 70  2  0  0  0
 34 36  1  0  0  0
 34 59  1  0  0  0
 34108  1  0  0  0
 35 44  2  0  0  0
 35 45  1  0  0  0
 35 68  1  0  0  0
 36 56  1  0  0  0
 36109  1  0  0  0
 37 39  1  0  0  0
 37 47  1  0  0  0
 37 66  1  0  0  0
 37110  1  0  0  0
 38 43  2  0  0  0
 38 46  1  0  0  0
 38 47  1  0  0  0
 39 64  1  0  0  0
 39 67  2  0  0  0
 40 52  1  0  0  0
 40 53  2  0  0  0
 40 58  1  0  0  0
 41111  1  0  0  0
 41112  1  0  0  0
 41113  1  0  0  0
 41 48  1  0  0  0
 42 43  1  0  0  0
 42 66  1  0  0  0
 42114  1  0  0  0
 42115  1  0  0  0
 43 44  1  0  0  0
 44116  1  0  0  0
 45 46  2  0  0  0
 45117  1  0  0  0
 46118  1  0  0  0
 47119  1  0  0  0
 47120  1  0  0  0
 48 56  1  0  0  0
 48 65  1  0  0  0
 48121  1  0  0  0
 49 50  1  0  0  0
 49 53  1  0  0  0
 49 64  1  0  0  0
 49122  1  0  0  0
 50 51  1  0  0  0
 50123  1  0  0  0
 50124  1  0  0  0
 51 52  1  0  0  0
 51125  1  0  0  0
 51126  1  0  0  0
 52127  1  0  0  0
 52128  1  0  0  0
 53 54  1  0  0  0
 54 55  2  0  0  0
 54129  1  0  0  0
 55 57  1  0  0  0
 55130  1  0  0  0
 56 69  2  0  0  0
 57 58  2  0  0  0
 57131  1  0  0  0
 58132  1  0  0  0
 59 60  1  0  0  0
 59 61  1  0  0  0
 59 62  1  0  0  0
 60133  1  0  0  0
 60134  1  0  0  0
 60135  1  0  0  0
 61136  1  0  0  0
 61137  1  0  0  0
 61138  1  0  0  0
 62139  1  0  0  0
 62140  1  0  0  0
 62141  1  0  0  0
 63 65  1  0  0  0
 63142  1  0  0  0
 63143  1  0  0  0
 63144  1  0  0  0
 64145  1  0  0  0
 65146  1  0  0  0
 68 81  1  0  0  0
 71 73  2  0  0  0
 71 82  1  0  0  0
 71147  1  0  0  0
 72 74  1  0  0  0
 72 75  1  0  0  0
 72 83  2  0  0  0
 73 83  1  0  0  0
 73 86  1  0  0  0
 74 82  2  0  0  0
 74 84  1  0  0  0
 75 85  1  0  0  0
 75 87  2  0  0  0
 76 78  1  0  0  0
 76148  1  0  0  0
 76149  1  0  0  0
 76150  1  0  0  0
 77151  1  0  0  0
 77152  1  0  0  0
 77153  1  0  0  0
 77 80  1  0  0  0
 78 80  1  0  0  0
 78154  1  0  0  0
 78155  1  0  0  0
 79 87  1  0  0  0
 79156  1  0  0  0
 79157  1  0  0  0
 79 81  1  0  0  0
 80 81  1  0  0  0
 80158  1  0  0  0
 81159  1  0  0  0
 84160  1  0  0  0
 84161  1  0  0  0
 85162  1  0  0  0
 85163  1  0  0  0
 86164  1  0  0  0
 87165  1  0  0  0
M  CHG  1  87   1
M  ISO  4   1 100  68 101  81 101  86 100
M  END
> <chiral flag>
0

> <version>
0

> <s_m_source_file>
/data/baiqing/PycharmProjects/Reinvent-master-3.2/result/LINK_invent/BTK/process_docking_weight1_custom_product_contain_oxygen_bond_distance_aromatic_linkinvent_7_9_3/rearranged_h_0194.sdf

> <i_m_source_file_index>
9

> <r_mmod_Potential_Energy-OPLS-2005>
232.55387878418

> <r_mmod_Stretch_Energy-OPLS-2005>
166.383605957031

> <r_mmod_Bend_Energy-OPLS-2005>
271.897369384766

> <r_mmod_Torsional_Energy-OPLS-2005>
276.826202392578

> <r_mmod_Improper_Torsional_Energy-OPLS-2005>
11.2489967346191

> <r_mmod_Van_der_Waal_Energy-OPLS-2005>
143.839965820312

> <r_mmod_Electrostatic_Energy-OPLS-2005>
-292.567565917969

> <r_mmod_Solvation_Energy-OPLS-2005>
-449.507110595703

> <b_mmod_Minimization_Converged-OPLS-2005>
0

> <r_mmod_RMS_Derivative-OPLS-2005>
3.79299855232239

$$$$
9
                    3D
 Structure written by MMmdl.
169177  0  0  1  0            999 V2000
  -30.7533  -14.3883   20.6103 C   0  0  0  0  0  0
  -30.4083  -12.2664   19.4118 C   0  0  0  0  0  0
  -29.4847  -12.5033   18.2011 C   0  0  0  0  0  0
  -28.0074  -12.3711   18.6162 C   0  0  0  0  0  0
  -27.6650  -13.2026   19.8808 C   0  0  2  0  0  0
  -28.7047  -12.9614   20.9994 C   0  0  0  0  0  0
  -25.2603  -13.8160   20.5684 C   0  0  0  0  0  0
  -24.1847  -13.0441   20.9167 C   0  0  0  0  0  0
  -24.6392  -11.6903   20.8736 C   0  0  0  0  0  0
  -23.9057  -10.4289   21.0398 C   0  0  0  0  0  0
  -24.3610   -9.4208   21.9180 C   0  0  0  0  0  0
  -23.6290   -8.2241   22.0754 C   0  0  0  0  0  0
  -22.4274   -8.0276   21.3542 C   0  0  0  0  0  0
  -21.9906   -9.0247   20.4645 C   0  0  0  0  0  0
  -22.7228  -10.2129   20.3052 C   0  0  0  0  0  0
  -21.6854   -6.0734   22.5279 C   0  0  0  0  0  0
  -21.4013   -6.5641   23.8211 C   0  0  0  0  0  0
  -21.3661   -5.6794   24.9175 C   0  0  0  0  0  0
  -21.6044   -4.3057   24.7225 C   0  0  0  0  0  0
  -21.8822   -3.8147   23.4347 C   0  0  0  0  0  0
  -21.9191   -4.6962   22.3401 C   0  0  0  0  0  0
  -22.7873  -13.5239   21.1836 C   0  0  0  0  0  0
  -22.1664   -4.2148   21.0980 F   0  0  0  0  0  0
  -21.5627   -3.4541   25.7739 F   0  0  0  0  0  0
  -30.0454  -13.2401   20.4525 N   0  0  0  0  0  0
  -26.3041  -12.9322   20.3397 N   0  0  0  0  0  0
  -25.9319  -11.6482   20.5782 N   0  0  0  0  0  0
  -22.0517  -12.8223   22.0389 N   0  0  0  0  0  0
  -25.4340  -15.1872   20.4089 N   0  0  0  0  0  0
  -31.8431  -14.5701   20.0568 O   0  0  0  0  0  0
  -21.6640   -6.8873   21.4240 O   0  0  0  0  0  0
  -22.3561  -14.5549   20.6692 O   0  0  0  0  0  0
  -24.6100  -31.8723   23.2119 C   0  0  0  0  0  0
  -25.9021  -32.4842   23.8401 C   0  0  1  0  0  0
  -27.2291  -27.4751   20.0856 C   0  0  0  0  0  0
  -25.5895  -33.8640   24.2337 N   0  0  0  0  0  0
  -23.3939  -30.4940   21.5535 C   0  0  2  0  0  0
  -24.8384  -28.9663   20.1124 C   0  0  0  0  0  0
  -22.7384  -29.4663   22.5026 C   0  0  0  0  0  0
  -18.0266  -28.1349   22.8484 C   0  0  0  0  0  0
  -24.1495  -36.7315   23.2635 C   0  0  0  0  0  0
  -25.9176  -30.8503   21.3567 C   0  0  0  0  0  0
  -25.9965  -29.4889   20.7016 C   0  0  0  0  0  0
  -27.1975  -28.7502   20.6841 C   0  0  0  0  0  0
  -26.0563  -26.9558   19.4933 C   0  0  0  0  0  0
  -24.8602  -27.6971   19.5065 C   0  0  0  0  0  0
  -23.5979  -29.8267   20.1666 C   0  0  0  0  0  0
  -25.4114  -36.3129   24.0333 C   0  0  1  0  0  0
  -20.5850  -28.3637   23.1331 C   0  0  2  0  0  0
  -20.6770  -26.9386   22.5413 C   0  0  0  0  0  0
  -19.5757  -26.6376   21.5200 C   0  0  0  0  0  0
  -18.1927  -26.7903   22.1603 C   0  0  0  0  0  0
  -19.1506  -28.8808   23.2905 C   0  0  0  0  0  0
  -18.9449  -30.1421   23.8913 C   0  0  0  0  0  0
  -17.6456  -30.6576   24.0545 C   0  0  0  0  0  0
  -25.9029  -34.9492   23.5134 C   0  0  0  0  0  0
  -16.5345  -29.9073   23.6315 C   0  0  0  0  0  0
  -16.7257  -28.6479   23.0344 C   0  0  0  0  0  0
  -26.4467  -31.6604   25.0710 C   0  0  0  0  0  0
  -25.3738  -31.3678   26.1466 C   0  0  0  0  0  0
  -27.0288  -30.3066   24.6014 C   0  0  0  0  0  0
  -27.6052  -32.4312   25.7468 C   0  0  0  0  0  0
  -27.5588  -37.1820   24.8467 C   0  0  0  0  0  0
  -21.4122  -29.3011   22.3764 N   0  0  0  0  0  0
  -26.4307  -37.3804   23.9397 N   0  0  0  0  0  0
  -24.6589  -31.0841   22.1003 N   0  0  0  0  0  0
  -23.4185  -28.8214   23.3053 O   0  0  0  0  0  0
  -28.4051  -26.7702   20.0904 O   0  0  0  0  0  0
  -26.5593  -34.8942   22.4698 O   0  0  0  0  0  0
  -23.5311  -32.1462   23.7542 O   0  0  0  0  0  0
  -31.6484  -18.6169   21.0455 C   0  0  0  0  0  0
  -30.4148  -19.1759   21.2793 C   0  0  0  0  0  0
  -30.4399  -16.7181   21.3515 C   0  0  0  0  0  0
  -34.0986  -23.7321   23.9470 C   0  0  0  0  0  0
  -33.8118  -24.1441   21.4814 C   0  0  0  0  0  0
  -30.0485  -20.6242   21.1908 C   0  0  0  0  0  0
  -29.5297  -24.9962   21.2312 C   0  0  0  0  0  0
  -31.7745  -23.5961   22.9365 C   0  0  0  0  0  0
  -28.2838  -25.3961   20.4377 C   0  0  0  0  0  0
  -33.2851  -23.3582   22.6978 C   0  0  0  0  0  0
  -29.4379  -23.5667   21.8066 C   0  0  1  0  0  0
  -30.8307  -22.8886   21.9273 C   0  0  2  0  0  0
  -31.6578  -17.2242   21.1223 N   0  0  0  0  0  0
  -28.7579  -23.6200   23.0966 N   0  0  0  0  0  0
  -30.1520  -15.3317   21.3503 N   0  0  0  0  0  0
  -30.7111  -21.4416   22.2308 N   0  3  0  0  0  0
  -29.2139  -17.9486   21.6190 S   0  0  0  0  0  0
  -31.4543  -12.3359   19.1095 H   0  0  0  0  0  0
  -30.2821  -11.2525   19.7937 H   0  0  0  0  0  0
  -29.7128  -11.7913   17.4064 H   0  0  0  0  0  0
  -29.6640  -13.4954   17.7839 H   0  0  0  0  0  0
  -27.8098  -11.3151   18.8035 H   0  0  0  0  0  0
  -27.3561  -12.6581   17.7894 H   0  0  0  0  0  0
  -27.7184  -14.2531   19.5949 H   0  0  0  0  0  0
  -28.6644  -11.9245   21.3363 H   0  0  0  0  0  0
  -28.4667  -13.5552   21.8822 H   0  0  0  0  0  0
  -25.2754   -9.5687   22.4754 H   0  0  0  0  0  0
  -24.0002   -7.4635   22.7475 H   0  0  0  0  0  0
  -21.0836   -8.8758   19.8950 H   0  0  0  0  0  0
  -22.3681  -10.9664   19.6162 H   0  0  0  0  0  0
  -21.2011   -7.6151   23.9713 H   0  0  0  0  0  0
  -21.1481   -6.0528   25.9077 H   0  0  0  0  0  0
  -22.0601   -2.7609   23.2848 H   0  0  0  0  0  0
  -22.4139  -11.9872   22.4747 H   0  0  0  0  0  0
  -21.1140  -13.1244   22.2614 H   0  0  0  0  0  0
  -24.6661  -15.8423   20.5090 H   0  0  0  0  0  0
  -26.2863  -15.6232   20.0796 H   0  0  0  0  0  0
  -26.7099  -32.5577   23.1169 H   0  0  0  0  0  0
  -25.0100  -33.9810   25.0519 H   0  0  0  0  0  0
  -22.6792  -31.3089   21.4179 H   0  0  0  0  0  0
  -23.3765  -35.9645   23.3314 H   0  0  0  0  0  0
  -24.3594  -36.8909   22.2048 H   0  0  0  0  0  0
  -23.7240  -37.6520   23.6641 H   0  0  0  0  0  0
  -26.0210  -31.6207   20.5908 H   0  0  0  0  0  0
  -26.8083  -30.9061   21.9701 H   0  0  0  0  0  0
  -28.0946  -29.1460   21.1405 H   0  0  0  0  0  0
  -26.0617  -25.9871   19.0156 H   0  0  0  0  0  0
  -23.9689  -27.2887   19.0488 H   0  0  0  0  0  0
  -23.6977  -30.6022   19.4065 H   0  0  0  0  0  0
  -22.7242  -29.2405   19.8780 H   0  0  0  0  0  0
  -25.1289  -36.2006   25.0823 H   0  0  0  0  0  0
  -20.9924  -28.3208   24.1455 H   0  0  0  0  0  0
  -20.5684  -26.2239   23.3592 H   0  0  0  0  0  0
  -21.6645  -26.7462   22.1201 H   0  0  0  0  0  0
  -19.6933  -25.6293   21.1219 H   0  0  0  0  0  0
  -19.6700  -27.3196   20.6741 H   0  0  0  0  0  0
  -17.4202  -26.6643   21.4005 H   0  0  0  0  0  0
  -18.0331  -26.0034   22.8980 H   0  0  0  0  0  0
  -19.7930  -30.7211   24.2303 H   0  0  0  0  0  0
  -17.5019  -31.6262   24.5147 H   0  0  0  0  0  0
  -15.5347  -30.2980   23.7635 H   0  0  0  0  0  0
  -15.8653  -28.0812   22.7053 H   0  0  0  0  0  0
  -24.5918  -30.7021   25.7796 H   0  0  0  0  0  0
  -24.8927  -32.2828   26.4942 H   0  0  0  0  0  0
  -25.8108  -30.8834   27.0207 H   0  0  0  0  0  0
  -26.2806  -29.6831   24.1113 H   0  0  0  0  0  0
  -27.4150  -29.7288   25.4417 H   0  0  0  0  0  0
  -27.8596  -30.4409   23.9081 H   0  0  0  0  0  0
  -27.2680  -33.3602   26.2081 H   0  0  0  0  0  0
  -28.3852  -32.6888   25.0286 H   0  0  0  0  0  0
  -28.0737  -31.8411   26.5356 H   0  0  0  0  0  0
  -28.2619  -38.0110   24.7529 H   0  0  0  0  0  0
  -28.1077  -36.2642   24.6290 H   0  0  0  0  0  0
  -27.2306  -37.1464   25.8873 H   0  0  0  0  0  0
  -20.9288  -29.8709   21.6965 H   0  0  0  0  0  0
  -26.0209  -38.2885   24.1398 H   0  0  0  0  0  0
  -32.5661  -19.1317   20.7970 H   0  0  0  0  0  0
  -35.1632  -23.5542   23.7915 H   0  0  0  0  0  0
  -33.7958  -23.1406   24.8121 H   0  0  0  0  0  0
  -33.9733  -24.7854   24.2038 H   0  0  0  0  0  0
  -34.8782  -23.9703   21.3342 H   0  0  0  0  0  0
  -33.6714  -25.2188   21.6083 H   0  0  0  0  0  0
  -33.3177  -23.8576   20.5536 H   0  0  0  0  0  0
  -28.9670  -20.7396   21.2727 H   0  0  0  0  0  0
  -30.3178  -20.9879   20.1977 H   0  0  0  0  0  0
  -29.7018  -25.7242   22.0259 H   0  0  0  0  0  0
  -30.3880  -25.0825   20.5638 H   0  0  0  0  0  0
  -31.6064  -24.6730   22.9178 H   0  0  0  0  0  0
  -31.5034  -23.2893   23.9484 H   0  0  0  0  0  0
  -27.4009  -25.2116   21.0537 H   0  0  0  0  0  0
  -28.1899  -24.7923   19.5343 H   0  0  0  0  0  0
  -33.4526  -22.2961   22.5141 H   0  0  0  0  0  0
  -28.8195  -22.9885   21.1196 H   0  0  0  0  0  0
  -31.2943  -22.9553   20.9422 H   0  0  0  0  0  0
  -29.3585  -24.0123   23.8142 H   0  0  0  0  0  0
  -28.4763  -22.7087   23.4395 H   0  0  0  0  0  0
  -29.2606  -15.0657   21.7367 H   0  0  0  0  0  0
  -31.6441  -21.0887   22.3483 H   0  0  0  0  0  0
  -30.2278  -21.3144   23.1044 H   0  0  0  0  0  0
  1 25  1  0  0  0
  1 30  2  0  0  0
  1 85  1  0  0  0
  2  3  1  0  0  0
  2 25  1  0  0  0
  2 88  1  0  0  0
  2 89  1  0  0  0
  3  4  1  0  0  0
  3 90  1  0  0  0
  3 91  1  0  0  0
  4  5  1  0  0  0
  4 92  1  0  0  0
  4 93  1  0  0  0
  5  6  1  0  0  0
  5 26  1  0  0  0
  5 94  1  0  0  0
  6 25  1  0  0  0
  6 95  1  0  0  0
  6 96  1  0  0  0
  7  8  2  0  0  0
  7 26  1  0  0  0
  7 29  1  0  0  0
  8  9  1  0  0  0
  8 22  1  0  0  0
  9 10  1  0  0  0
  9 27  2  0  0  0
 10 11  2  0  0  0
 10 15  1  0  0  0
 11 12  1  0  0  0
 11 97  1  0  0  0
 12 13  2  0  0  0
 12 98  1  0  0  0
 13 14  1  0  0  0
 13 31  1  0  0  0
 14 15  2  0  0  0
 14 99  1  0  0  0
 15100  1  0  0  0
 16 17  2  0  0  0
 16 21  1  0  0  0
 16 31  1  0  0  0
 17 18  1  0  0  0
 17101  1  0  0  0
 18 19  2  0  0  0
 18102  1  0  0  0
 19 20  1  0  0  0
 19 24  1  0  0  0
 20 21  2  0  0  0
 20103  1  0  0  0
 21 23  1  0  0  0
 22 28  1  0  0  0
 22 32  2  0  0  0
 26 27  1  0  0  0
 28104  1  0  0  0
 28105  1  0  0  0
 29106  1  0  0  0
 29107  1  0  0  0
 33 34  1  0  0  0
 33 66  1  0  0  0
 33 70  2  0  0  0
 34 36  1  0  0  0
 34 59  1  0  0  0
 34108  1  0  0  0
 35 44  2  0  0  0
 35 45  1  0  0  0
 35 68  1  0  0  0
 36 56  1  0  0  0
 36109  1  0  0  0
 37 39  1  0  0  0
 37 47  1  0  0  0
 37 66  1  0  0  0
 37110  1  0  0  0
 38 43  2  0  0  0
 38 46  1  0  0  0
 38 47  1  0  0  0
 39 64  1  0  0  0
 39 67  2  0  0  0
 40 52  1  0  0  0
 40 53  2  0  0  0
 40 58  1  0  0  0
 41111  1  0  0  0
 41112  1  0  0  0
 41113  1  0  0  0
 41 48  1  0  0  0
 42 43  1  0  0  0
 42 66  1  0  0  0
 42114  1  0  0  0
 42115  1  0  0  0
 43 44  1  0  0  0
 44116  1  0  0  0
 45 46  2  0  0  0
 45117  1  0  0  0
 46118  1  0  0  0
 47119  1  0  0  0
 47120  1  0  0  0
 48 56  1  0  0  0
 48 65  1  0  0  0
 48121  1  0  0  0
 49 50  1  0  0  0
 49 53  1  0  0  0
 49 64  1  0  0  0
 49122  1  0  0  0
 50 51  1  0  0  0
 50123  1  0  0  0
 50124  1  0  0  0
 51 52  1  0  0  0
 51125  1  0  0  0
 51126  1  0  0  0
 52127  1  0  0  0
 52128  1  0  0  0
 53 54  1  0  0  0
 54 55  2  0  0  0
 54129  1  0  0  0
 55 57  1  0  0  0
 55130  1  0  0  0
 56 69  2  0  0  0
 57 58  2  0  0  0
 57131  1  0  0  0
 58132  1  0  0  0
 59 60  1  0  0  0
 59 61  1  0  0  0
 59 62  1  0  0  0
 60133  1  0  0  0
 60134  1  0  0  0
 60135  1  0  0  0
 61136  1  0  0  0
 61137  1  0  0  0
 61138  1  0  0  0
 62139  1  0  0  0
 62140  1  0  0  0
 62141  1  0  0  0
 63 65  1  0  0  0
 63142  1  0  0  0
 63143  1  0  0  0
 63144  1  0  0  0
 64145  1  0  0  0
 65146  1  0  0  0
 68 79  1  0  0  0
 71 72  2  0  0  0
 71 83  1  0  0  0
 71147  1  0  0  0
 72 76  1  0  0  0
 72 87  1  0  0  0
 73 83  2  0  0  0
 73 85  1  0  0  0
 73 87  1  0  0  0
 74148  1  0  0  0
 74149  1  0  0  0
 74150  1  0  0  0
 74 80  1  0  0  0
 75 80  1  0  0  0
 75151  1  0  0  0
 75152  1  0  0  0
 75153  1  0  0  0
 76 86  1  0  0  0
 76154  1  0  0  0
 76155  1  0  0  0
 77 79  1  0  0  0
 77 81  1  0  0  0
 77156  1  0  0  0
 77157  1  0  0  0
 78 80  1  0  0  0
 78158  1  0  0  0
 78159  1  0  0  0
 78 82  1  0  0  0
 79160  1  0  0  0
 79161  1  0  0  0
 80162  1  0  0  0
 81 82  1  0  0  0
 81 84  1  0  0  0
 81163  1  0  0  0
 82 86  1  0  0  0
 82164  1  0  0  0
 84165  1  0  0  0
 84166  1  0  0  0
 85167  1  0  0  0
 86168  1  0  0  0
 86169  1  0  0  0
M  CHG  1  86   1
M  ISO  4   1 100  68 101  79 101  85 100
M  END
> <chiral flag>
0

> <version>
0

> <s_m_source_file>
/data/baiqing/PycharmProjects/Reinvent-master-3.2/result/LINK_invent/BTK/process_docking_weight1_custom_product_contain_oxygen_bond_distance_aromatic_linkinvent_7_9_3/rearranged_h_0194.sdf

> <i_m_source_file_index>
10

> <r_mmod_Potential_Energy-OPLS-2005>
-279.059387207031

> <r_mmod_Stretch_Energy-OPLS-2005>
31.9641551971436

> <r_mmod_Bend_Energy-OPLS-2005>
95.3927307128906

> <r_mmod_Torsional_Energy-OPLS-2005>
243.711135864258

> <r_mmod_Improper_Torsional_Energy-OPLS-2005>
3.0923285484314

> <r_mmod_Van_der_Waal_Energy-OPLS-2005>
139.525955200195

> <r_mmod_Electrostatic_Energy-OPLS-2005>
-292.750671386719

> <r_mmod_Solvation_Energy-OPLS-2005>
-508.854919433594

> <b_mmod_Minimization_Converged-OPLS-2005>
0

> <r_mmod_RMS_Derivative-OPLS-2005>
1.5213371515274

$$$$
10
                    3D
 Structure written by MMmdl.
162170  0  0  1  0            999 V2000
  -28.5598  -17.2006   21.1522 C   0  0  0  0  0  0
  -29.8296  -14.5371   19.9464 C   0  0  0  0  0  0
  -29.4947  -13.4162   18.7777 C   0  0  0  0  0  0
  -28.2735  -12.5506   19.0683 C   0  0  0  0  0  0
  -27.4379  -13.4693   19.9527 C   0  0  2  0  0  0
  -28.0940  -14.2083   21.1828 C   0  0  0  0  0  0
  -25.1102  -13.8357   20.5656 C   0  0  0  0  0  0
  -24.0905  -13.0251   20.9260 C   0  0  0  0  0  0
  -24.5996  -11.6888   20.8735 C   0  0  0  0  0  0
  -23.8916  -10.4207   21.0374 C   0  0  0  0  0  0
  -24.3544   -9.4203   21.9186 C   0  0  0  0  0  0
  -23.6284   -8.2204   22.0748 C   0  0  0  0  0  0
  -22.4251   -8.0213   21.3547 C   0  0  0  0  0  0
  -21.9836   -9.0128   20.4615 C   0  0  0  0  0  0
  -22.7098  -10.2025   20.3024 C   0  0  0  0  0  0
  -21.6853   -6.0688   22.5272 C   0  0  0  0  0  0
  -21.4027   -6.5621   23.8193 C   0  0  0  0  0  0
  -21.3649   -5.6788   24.9166 C   0  0  0  0  0  0
  -21.6032   -4.3042   24.7237 C   0  0  0  0  0  0
  -21.8832   -3.8120   23.4366 C   0  0  0  0  0  0
  -21.9201   -4.6923   22.3414 C   0  0  0  0  0  0
  -22.7008  -13.4927   21.2000 C   0  0  0  0  0  0
  -22.1673   -4.2111   21.0996 F   0  0  0  0  0  0
  -21.5610   -3.4531   25.7758 F   0  0  0  0  0  0
  -28.6897  -15.5481   20.7295 N   0  0  0  0  0  0
  -26.1630  -12.9914   20.3314 N   0  0  0  0  0  0
  -25.8937  -11.6855   20.5624 N   0  0  0  0  0  0
  -21.9837  -12.7924   22.0652 N   0  0  0  0  0  0
  -25.2390  -15.2185   20.4178 N   0  0  0  0  0  0
  -29.8613  -17.1267   20.9319 O   0  0  0  0  0  0
  -21.6634   -6.8804   21.4228 O   0  0  0  0  0  0
  -22.2704  -14.5262   20.6873 O   0  0  0  0  0  0
  -24.6035  -31.7657   23.1573 C   0  0  0  0  0  0
  -25.8805  -32.4363   23.7890 C   0  0  1  0  0  0
  -26.5502  -27.0106   20.1260 C   0  0  0  0  0  0
  -25.5488  -33.8223   24.1743 N   0  0  0  0  0  0
  -23.5322  -30.0441   21.5712 C   0  0  2  0  0  0
  -24.9395  -29.1306   19.8067 C   0  0  0  0  0  0
  -23.5164  -28.5570   22.2497 C   0  0  0  0  0  0
  -18.5819  -27.6836   23.3065 C   0  0  0  0  0  0
  -24.1464  -36.7150   23.2670 C   0  0  0  0  0  0
  -26.0100  -30.6363   21.4549 C   0  0  0  0  0  0
  -26.0328  -29.3410   20.6510 C   0  0  0  0  0  0
  -26.8609  -28.2063   20.8847 C   0  0  0  0  0  0
  -26.0095  -27.1857   18.8890 C   0  0  0  0  0  0
  -24.9316  -28.0677   18.9045 C   0  0  0  0  0  0
  -23.7363  -29.9820   20.0440 C   0  0  0  0  0  0
  -25.4121  -36.2894   24.0269 C   0  0  1  0  0  0
  -21.3770  -26.0465   22.3672 C   0  0  2  0  0  0
  -21.7838  -26.9667   20.6655 C   0  0  0  0  0  0
  -20.8745  -27.8634   19.6974 C   0  0  0  0  0  0
  -20.2605  -28.9808   20.6238 C   0  0  0  0  0  0
  -19.4801  -26.6749   23.8542 C   0  0  0  0  0  0
  -19.2041  -27.9244   24.9205 C   0  0  0  0  0  0
  -18.2563  -29.1820   25.0777 C   0  0  0  0  0  0
  -25.8997  -34.9234   23.4960 C   0  0  0  0  0  0
  -17.0711  -29.2262   24.2948 C   0  0  0  0  0  0
  -17.1250  -28.0488   23.5401 C   0  0  0  0  0  0
  -26.4368  -31.6550   25.0515 C   0  0  0  0  0  0
  -25.3600  -31.3746   26.1242 C   0  0  0  0  0  0
  -27.0475  -30.2949   24.6498 C   0  0  0  0  0  0
  -27.5787  -32.4596   25.7137 C   0  0  0  0  0  0
  -27.5555  -37.1670   24.8474 C   0  0  0  0  0  0
  -22.8786  -27.2206   21.8963 N   0  0  0  0  0  0
  -26.4291  -37.3644   23.9366 N   0  0  0  0  0  0
  -24.6959  -30.8818   22.1091 N   0  0  0  0  0  0
  -24.0271  -28.6161   23.3669 O   0  0  0  0  0  0
  -25.9223  -25.8225   20.5985 O   0  0  0  0  0  0
  -26.5885  -34.8785   22.4755 O   0  0  0  0  0  0
  -23.5145  -32.0544   23.6658 O   0  0  0  0  0  0
  -19.0218  -29.6771   22.3329 C   0  0  0  0  0  0
  -20.6245  -29.2289   23.2353 C   0  0  0  0  0  0
  -21.6509  -27.7896   23.7986 C   0  0  0  0  0  0
  -19.4181  -27.1146   21.3953 C   0  0  0  0  0  0
  -23.3663  -25.5831   23.6722 C   0  0  0  0  0  0
  -24.5788  -23.1177   22.9466 C   0  0  0  0  0  0
  -26.3178  -21.0024   22.1921 C   0  0  0  0  0  0
  -20.8644  -24.6793   20.1414 C   0  0  0  0  0  0
  -24.4106  -25.2081   20.0294 C   0  0  0  0  0  0
  -22.7533  -24.4466   20.4810 C   0  0  1  0  0  0
  -18.2614  -28.4044   21.2448 N   0  0  0  0  0  0
  -20.7025  -28.0927   22.5741 N   0  0  0  0  0  0
  -21.0359  -30.3953   23.9348 N   0  0  0  0  0  0
  -19.5760  -25.6696   20.7018 N   0  0  0  0  0  0
  -27.3584  -18.7984   21.6345 N   0  0  0  0  0  0
  -22.8633  -23.1835   19.8455 O   0  0  0  0  0  0
  -30.5110  -15.2356   19.4564 H   0  0  0  0  0  0
  -30.4891  -14.0892   20.6951 H   0  0  0  0  0  0
  -30.3637  -12.7854   18.5900 H   0  0  0  0  0  0
  -29.3093  -13.9432   17.8393 H   0  0  0  0  0  0
  -28.5586  -11.6478   19.6107 H   0  0  0  0  0  0
  -27.7551  -12.2586   18.1523 H   0  0  0  0  0  0
  -27.2011  -14.2580   19.2350 H   0  0  0  0  0  0
  -28.7451  -13.5659   21.7793 H   0  0  0  0  0  0
  -27.3332  -14.4924   21.9127 H   0  0  0  0  0  0
  -25.2642   -9.5777   22.4811 H   0  0  0  0  0  0
  -23.9976   -7.4629   22.7515 H   0  0  0  0  0  0
  -21.0741   -8.8619   19.8972 H   0  0  0  0  0  0
  -22.3480  -10.9567   19.6173 H   0  0  0  0  0  0
  -21.2047   -7.6135   23.9688 H   0  0  0  0  0  0
  -21.1441   -6.0523   25.9059 H   0  0  0  0  0  0
  -22.0623   -2.7584   23.2875 H   0  0  0  0  0  0
  -22.3507  -11.9607   22.5035 H   0  0  0  0  0  0
  -21.0498  -13.0976   22.2969 H   0  0  0  0  0  0
  -24.4488  -15.8442   20.5367 H   0  0  0  0  0  0
  -26.0668  -15.6762   20.0600 H   0  0  0  0  0  0
  -26.6817  -32.4902   23.0508 H   0  0  0  0  0  0
  -24.9092  -33.9286   24.9468 H   0  0  0  0  0  0
  -22.6226  -30.5996   21.7889 H   0  0  0  0  0  0
  -23.3753  -35.9476   23.3341 H   0  0  0  0  0  0
  -24.3460  -36.8826   22.2084 H   0  0  0  0  0  0
  -23.7208  -37.6302   23.6761 H   0  0  0  0  0  0
  -26.2282  -31.4652   20.7804 H   0  0  0  0  0  0
  -26.8551  -30.5837   22.1262 H   0  0  0  0  0  0
  -27.4409  -28.1664   21.7974 H   0  0  0  0  0  0
  -25.9540  -26.3445   18.2084 H   0  0  0  0  0  0
  -24.1356  -27.9467   18.1833 H   0  0  0  0  0  0
  -23.9322  -30.9840   19.6575 H   0  0  0  0  0  0
  -22.8947  -29.6626   19.4498 H   0  0  0  0  0  0
  -25.1365  -36.1632   25.0768 H   0  0  0  0  0  0
  -21.4417  -24.9711   22.4455 H   0  0  0  0  0  0
  -22.2819  -26.4796   19.8428 H   0  0  0  0  0  0
  -22.2053  -27.9557   20.2793 H   0  0  0  0  0  0
  -20.1204  -27.3295   19.1167 H   0  0  0  0  0  0
  -21.3233  -28.3332   18.7984 H   0  0  0  0  0  0
  -21.0248  -29.7206   20.8454 H   0  0  0  0  0  0
  -19.7025  -29.5970   19.9064 H   0  0  0  0  0  0
  -19.9699  -27.9796   25.6833 H   0  0  0  0  0  0
  -18.4629  -29.9187   25.8397 H   0  0  0  0  0  0
  -16.2880  -29.9696   24.3450 H   0  0  0  0  0  0
  -16.3746  -28.0460   22.7564 H   0  0  0  0  0  0
  -24.5829  -30.7034   25.7581 H   0  0  0  0  0  0
  -24.8664  -32.2894   26.4509 H   0  0  0  0  0  0
  -25.7879  -30.9015   27.0087 H   0  0  0  0  0  0
  -26.3247  -29.6445   24.1601 H   0  0  0  0  0  0
  -27.4038  -29.7454   25.5217 H   0  0  0  0  0  0
  -27.9076  -30.4140   23.9917 H   0  0  0  0  0  0
  -27.2252  -33.3960   26.1443 H   0  0  0  0  0  0
  -28.3512  -32.7146   24.9885 H   0  0  0  0  0  0
  -28.0578  -31.9017   26.5173 H   0  0  0  0  0  0
  -28.2627  -37.9931   24.7530 H   0  0  0  0  0  0
  -28.1007  -36.2448   24.6337 H   0  0  0  0  0  0
  -27.2228  -37.1356   25.8877 H   0  0  0  0  0  0
  -22.9579  -27.1806   20.8883 H   0  0  0  0  0  0
  -26.0140  -38.2723   24.1343 H   0  0  0  0  0  0
  -18.6050  -30.6727   22.3398 H   0  0  0  0  0  0
  -23.1951  -25.3222   24.7156 H   0  0  0  0  0  0
  -24.3094  -26.1310   23.7080 H   0  0  0  0  0  0
  -23.9284  -22.4942   23.5583 H   0  0  0  0  0  0
  -25.3885  -23.4313   23.6006 H   0  0  0  0  0  0
  -27.0860  -21.2491   22.9242 H   0  0  0  0  0  0
  -26.6589  -21.4808   21.2766 H   0  0  0  0  0  0
  -20.4484  -23.6833   20.3130 H   0  0  0  0  0  0
  -20.7894  -24.7792   19.0585 H   0  0  0  0  0  0
  -24.8986  -24.3379   19.5890 H   0  0  0  0  0  0
  -24.1127  -25.7033   19.1170 H   0  0  0  0  0  0
  -22.9037  -24.1121   21.4895 H   0  0  0  0  0  0
  -20.6585  -31.2815   23.6228 H   0  0  0  0  0  0
  -22.0356  -30.4838   24.0776 H   0  0  0  0  0  0
  -18.6961  -25.3475   20.3172 H   0  0  0  0  0  0
  -28.2431  -19.2998   21.6182 H   0  0  0  0  0  0
  -22.6129  -22.5164   20.4794 H   0  0  0  0  0  0
  1 25  1  0  0  0
  1 30  2  0  0  0
  1 85  1  0  0  0
  2  3  1  0  0  0
  2 25  1  0  0  0
  2 87  1  0  0  0
  2 88  1  0  0  0
  3  4  1  0  0  0
  3 89  1  0  0  0
  3 90  1  0  0  0
  4  5  1  0  0  0
  4 91  1  0  0  0
  4 92  1  0  0  0
  5  6  1  0  0  0
  5 26  1  0  0  0
  5 93  1  0  0  0
  6 25  1  0  0  0
  6 94  1  0  0  0
  6 95  1  0  0  0
  7  8  2  0  0  0
  7 26  1  0  0  0
  7 29  1  0  0  0
  8  9  1  0  0  0
  8 22  1  0  0  0
  9 10  1  0  0  0
  9 27  2  0  0  0
 10 11  2  0  0  0
 10 15  1  0  0  0
 11 12  1  0  0  0
 11 96  1  0  0  0
 12 13  2  0  0  0
 12 97  1  0  0  0
 13 14  1  0  0  0
 13 31  1  0  0  0
 14 15  2  0  0  0
 14 98  1  0  0  0
 15 99  1  0  0  0
 16 17  2  0  0  0
 16 21  1  0  0  0
 16 31  1  0  0  0
 17 18  1  0  0  0
 17100  1  0  0  0
 18 19  2  0  0  0
 18101  1  0  0  0
 19 20  1  0  0  0
 19 24  1  0  0  0
 20 21  2  0  0  0
 20102  1  0  0  0
 21 23  1  0  0  0
 22 28  1  0  0  0
 22 32  2  0  0  0
 26 27  1  0  0  0
 28103  1  0  0  0
 28104  1  0  0  0
 29105  1  0  0  0
 29106  1  0  0  0
 33 34  1  0  0  0
 33 66  1  0  0  0
 33 70  2  0  0  0
 34 36  1  0  0  0
 34 59  1  0  0  0
 34107  1  0  0  0
 35 44  2  0  0  0
 35 45  1  0  0  0
 35 68  1  0  0  0
 36 56  1  0  0  0
 36108  1  0  0  0
 37 39  1  0  0  0
 37 47  1  0  0  0
 37 66  1  0  0  0
 37109  1  0  0  0
 38 43  2  0  0  0
 38 46  1  0  0  0
 38 47  1  0  0  0
 39 64  1  0  0  0
 39 67  2  0  0  0
 40 52  1  0  0  0
 40 53  2  0  0  0
 40 58  1  0  0  0
 41110  1  0  0  0
 41111  1  0  0  0
 41112  1  0  0  0
 41 48  1  0  0  0
 42 43  1  0  0  0
 42 66  1  0  0  0
 42113  1  0  0  0
 42114  1  0  0  0
 43 44  1  0  0  0
 44115  1  0  0  0
 45 46  2  0  0  0
 45116  1  0  0  0
 46117  1  0  0  0
 47118  1  0  0  0
 47119  1  0  0  0
 48 56  1  0  0  0
 48 65  1  0  0  0
 48120  1  0  0  0
 49 50  1  0  0  0
 49 53  1  0  0  0
 49 64  1  0  0  0
 49121  1  0  0  0
 50 51  1  0  0  0
 50122  1  0  0  0
 50123  1  0  0  0
 51 52  1  0  0  0
 51124  1  0  0  0
 51125  1  0  0  0
 52126  1  0  0  0
 52127  1  0  0  0
 53 54  1  0  0  0
 54 55  2  0  0  0
 54128  1  0  0  0
 55 57  1  0  0  0
 55129  1  0  0  0
 56 69  2  0  0  0
 57 58  2  0  0  0
 57130  1  0  0  0
 58131  1  0  0  0
 59 60  1  0  0  0
 59 61  1  0  0  0
 59 62  1  0  0  0
 60132  1  0  0  0
 60133  1  0  0  0
 60134  1  0  0  0
 61135  1  0  0  0
 61136  1  0  0  0
 61137  1  0  0  0
 62138  1  0  0  0
 62139  1  0  0  0
 62140  1  0  0  0
 63 65  1  0  0  0
 63141  1  0  0  0
 63142  1  0  0  0
 63143  1  0  0  0
 64144  1  0  0  0
 65145  1  0  0  0
 68 79  1  0  0  0
 71 72  2  0  0  0
 71 81  1  0  0  0
 71146  1  0  0  0
 72 73  1  0  0  0
 72 83  1  0  0  0
 73 75  1  0  0  0
 73 82  2  0  0  0
 74 81  2  0  0  0
 74 82  1  0  0  0
 74 84  1  0  0  0
 75 76  1  0  0  0
 75147  1  0  0  0
 75148  1  0  0  0
 76 77  1  0  0  0
 76149  1  0  0  0
 76150  1  0  0  0
 77 85  1  0  0  0
 77151  1  0  0  0
 77152  1  0  0  0
 78 80  1  0  0  0
 78 84  1  0  0  0
 78153  1  0  0  0
 78154  1  0  0  0
 79 80  1  0  0  0
 79155  1  0  0  0
 79156  1  0  0  0
 80 86  1  0  0  0
 80157  1  0  0  0
 83158  1  0  0  0
 83159  1  0  0  0
 84160  1  0  0  0
 85161  1  0  0  0
 86162  1  0  0  0
M  ISO  4   1 100  68 101  79 101  85 100
M  END
> <chiral flag>
0

> <version>
0

> <s_m_source_file>
/data/baiqing/PycharmProjects/Reinvent-master-3.2/result/LINK_invent/BTK/process_docking_weight1_custom_product_contain_oxygen_bond_distance_aromatic_linkinvent_7_9_3/rearranged_h_0194.sdf

> <i_m_source_file_index>
11

> <r_mmod_Potential_Energy-OPLS-2005>
39680.91015625

> <r_mmod_Stretch_Energy-OPLS-2005>
19723.021484375

> <r_mmod_Bend_Energy-OPLS-2005>
4192.03662109375

> <r_mmod_Torsional_Energy-OPLS-2005>
834.324523925781

> <r_mmod_Improper_Torsional_Energy-OPLS-2005>
79.3119354248047

> <r_mmod_Van_der_Waal_Energy-OPLS-2005>
5258.42919921875

> <r_mmod_Electrostatic_Energy-OPLS-2005>
-770.176574707031

> <r_mmod_Solvation_Energy-OPLS-2005>
-287.279022216797

> <b_mmod_Minimization_Converged-OPLS-2005>
0

> <r_mmod_RMS_Derivative-OPLS-2005>
19.2000980377197

$$$$
11
                    3D
 Structure written by MMmdl.
151159  0  0  1  0            999 V2000
  -30.6566  -14.5771   20.6554 C   0  0  0  0  0  0
  -30.4462  -12.4097   19.4116 C   0  0  0  0  0  0
  -29.4984  -12.5519   18.2028 C   0  0  0  0  0  0
  -28.0252  -12.3707   18.6233 C   0  0  0  0  0  0
  -27.6634  -13.2063   19.8789 C   0  0  2  0  0  0
  -28.7107  -12.9852   20.9919 C   0  0  0  0  0  0
  -25.2603  -13.8138   20.5686 C   0  0  0  0  0  0
  -24.1846  -13.0422   20.9172 C   0  0  0  0  0  0
  -24.6395  -11.6888   20.8724 C   0  0  0  0  0  0
  -23.9053  -10.4282   21.0397 C   0  0  0  0  0  0
  -24.3610   -9.4201   21.9176 C   0  0  0  0  0  0
  -23.6287   -8.2239   22.0749 C   0  0  0  0  0  0
  -22.4270   -8.0275   21.3540 C   0  0  0  0  0  0
  -21.9901   -9.0247   20.4644 C   0  0  0  0  0  0
  -22.7226  -10.2124   20.3048 C   0  0  0  0  0  0
  -21.6845   -6.0731   22.5282 C   0  0  0  0  0  0
  -21.4012   -6.5638   23.8213 C   0  0  0  0  0  0
  -21.3663   -5.6792   24.9179 C   0  0  0  0  0  0
  -21.6043   -4.3056   24.7231 C   0  0  0  0  0  0
  -21.8820   -3.8144   23.4352 C   0  0  0  0  0  0
  -21.9192   -4.6958   22.3408 C   0  0  0  0  0  0
  -22.7871  -13.5225   21.1845 C   0  0  0  0  0  0
  -22.1659   -4.2145   21.0984 F   0  0  0  0  0  0
  -21.5632   -3.4539   25.7743 F   0  0  0  0  0  0
  -30.0245  -13.3767   20.4429 N   0  0  0  0  0  0
  -26.3040  -12.9300   20.3379 N   0  0  0  0  0  0
  -25.9323  -11.6459   20.5758 N   0  0  0  0  0  0
  -22.0522  -12.8216   22.0406 N   0  0  0  0  0  0
  -25.4332  -15.1859   20.4096 N   0  0  0  0  0  0
  -31.6782  -14.8742   20.0361 O   0  0  0  0  0  0
  -21.6635   -6.8871   21.4240 O   0  0  0  0  0  0
  -22.3560  -14.5541   20.6710 O   0  0  0  0  0  0
  -24.6234  -31.8590   23.2001 C   0  0  0  0  0  0
  -25.9091  -32.4764   23.8324 C   0  0  1  0  0  0
  -27.2386  -27.3331   20.1003 C   0  0  0  0  0  0
  -25.5905  -33.8567   24.2255 N   0  0  0  0  0  0
  -23.4156  -30.4787   21.5439 C   0  0  2  0  0  0
  -24.8630  -28.9294   20.1120 C   0  0  0  0  0  0
  -22.7455  -29.4607   22.4959 C   0  0  0  0  0  0
  -18.0280  -28.1373   22.8483 C   0  0  0  0  0  0
  -24.1503  -36.7292   23.2640 C   0  0  0  0  0  0
  -25.9545  -30.7905   21.3706 C   0  0  0  0  0  0
  -26.0287  -29.4180   20.7126 C   0  0  0  0  0  0
  -27.2130  -28.6285   20.7011 C   0  0  0  0  0  0
  -26.0415  -26.8797   19.4992 C   0  0  0  0  0  0
  -24.8700  -27.6639   19.5013 C   0  0  0  0  0  0
  -23.6279  -29.8054   20.1616 C   0  0  0  0  0  0
  -25.4127  -36.3077   24.0328 C   0  0  1  0  0  0
  -20.5876  -28.3671   23.1298 C   0  0  2  0  0  0
  -20.6773  -26.9401   22.5422 C   0  0  0  0  0  0
  -19.5756  -26.6379   21.5216 C   0  0  0  0  0  0
  -18.1931  -26.7918   22.1622 C   0  0  0  0  0  0
  -19.1531  -28.8843   23.2882 C   0  0  0  0  0  0
  -18.9455  -30.1446   23.8892 C   0  0  0  0  0  0
  -17.6454  -30.6581   24.0559 C   0  0  0  0  0  0
  -25.9057  -34.9444   23.5101 C   0  0  0  0  0  0
  -16.5344  -29.9074   23.6330 C   0  0  0  0  0  0
  -16.7268  -28.6494   23.0351 C   0  0  0  0  0  0
  -26.4484  -31.6566   25.0693 C   0  0  0  0  0  0
  -25.3716  -31.3685   26.1415 C   0  0  0  0  0  0
  -27.0328  -30.2992   24.6144 C   0  0  0  0  0  0
  -27.6051  -32.4295   25.7451 C   0  0  0  0  0  0
  -27.5587  -37.1802   24.8464 C   0  0  0  0  0  0
  -21.4173  -29.3019   22.3695 N   0  0  0  0  0  0
  -26.4304  -37.3770   23.9399 N   0  0  0  0  0  0
  -24.6829  -31.0600   22.0946 N   0  0  0  0  0  0
  -23.4184  -28.8177   23.3059 O   0  0  0  0  0  0
  -28.4033  -26.5548   20.1505 O   0  0  0  0  0  0
  -26.5643  -34.8915   22.4679 O   0  0  0  0  0  0
  -23.5406  -32.1390   23.7335 O   0  0  0  0  0  0
  -29.8645  -17.9200   20.8929 C   0  0  0  0  0  0
  -29.5072  -19.9853   20.5049 C   0  0  0  0  0  0
  -29.8316  -16.6316   21.7177 C   0  0  0  0  0  0
  -28.2138  -22.2307   18.4089 C   0  0  0  0  0  0
  -28.5760  -23.9096   20.3471 C   0  0  0  0  0  0
  -28.5544  -25.2481   19.4815 C   0  0  0  0  0  0
  -29.0681  -22.5550   19.6456 C   0  0  1  0  0  0
  -29.4500  -19.0942   21.4972 N   0  0  0  0  0  0
  -30.1837  -18.0551   19.6034 N   0  0  0  0  0  0
  -30.0690  -15.3498   21.6616 N   0  0  0  0  0  0
  -29.1430  -21.3616   20.5412 N   0  0  0  0  0  0
  -29.9496  -19.4367   19.3393 O   0  0  0  0  0  0
  -31.4810  -12.5622   19.1013 H   0  0  0  0  0  0
  -30.4060  -11.3949   19.8112 H   0  0  0  0  0  0
  -29.7604  -11.8280   17.4298 H   0  0  0  0  0  0
  -29.6291  -13.5382   17.7540 H   0  0  0  0  0  0
  -27.8631  -11.3116   18.8266 H   0  0  0  0  0  0
  -27.3628  -12.6276   17.7958 H   0  0  0  0  0  0
  -27.7065  -14.2563   19.5882 H   0  0  0  0  0  0
  -28.7302  -11.9350   21.2887 H   0  0  0  0  0  0
  -28.4287  -13.5275   21.8943 H   0  0  0  0  0  0
  -25.2761   -9.5679   22.4744 H   0  0  0  0  0  0
  -23.9996   -7.4632   22.7475 H   0  0  0  0  0  0
  -21.0827   -8.8765   19.8959 H   0  0  0  0  0  0
  -22.3684  -10.9660   19.6158 H   0  0  0  0  0  0
  -21.2003   -7.6146   23.9715 H   0  0  0  0  0  0
  -21.1483   -6.0525   25.9080 H   0  0  0  0  0  0
  -22.0597   -2.7605   23.2857 H   0  0  0  0  0  0
  -22.4139  -11.9863   22.4764 H   0  0  0  0  0  0
  -21.1152  -13.1248   22.2655 H   0  0  0  0  0  0
  -24.6693  -15.8448   20.5144 H   0  0  0  0  0  0
  -26.2925  -15.6183   20.0943 H   0  0  0  0  0  0
  -26.7150  -32.5435   23.1061 H   0  0  0  0  0  0
  -25.0000  -33.9705   25.0363 H   0  0  0  0  0  0
  -22.7092  -31.2988   21.3987 H   0  0  0  0  0  0
  -23.3760  -35.9627   23.3304 H   0  0  0  0  0  0
  -24.3592  -36.8914   22.2053 H   0  0  0  0  0  0
  -23.7266  -37.6499   23.6663 H   0  0  0  0  0  0
  -26.0911  -31.5565   20.6057 H   0  0  0  0  0  0
  -26.8329  -30.8332   22.0028 H   0  0  0  0  0  0
  -28.1096  -29.0048   21.1737 H   0  0  0  0  0  0
  -25.9736  -25.9050   19.0420 H   0  0  0  0  0  0
  -23.9717  -27.2775   19.0393 H   0  0  0  0  0  0
  -23.7367  -30.5766   19.3981 H   0  0  0  0  0  0
  -22.7501  -29.2265   19.8688 H   0  0  0  0  0  0
  -25.1314  -36.1925   25.0821 H   0  0  0  0  0  0
  -20.9957  -28.3249   24.1422 H   0  0  0  0  0  0
  -20.5678  -26.2282   23.3616 H   0  0  0  0  0  0
  -21.6644  -26.7444   22.1212 H   0  0  0  0  0  0
  -19.6924  -25.6293   21.1237 H   0  0  0  0  0  0
  -19.6696  -27.3197   20.6752 H   0  0  0  0  0  0
  -17.4204  -26.6659   21.4020 H   0  0  0  0  0  0
  -18.0332  -26.0059   22.9018 H   0  0  0  0  0  0
  -19.7933  -30.7266   24.2258 H   0  0  0  0  0  0
  -17.5011  -31.6264   24.5157 H   0  0  0  0  0  0
  -15.5346  -30.2975   23.7663 H   0  0  0  0  0  0
  -15.8667  -28.0815   22.7065 H   0  0  0  0  0  0
  -24.5906  -30.7027   25.7723 H   0  0  0  0  0  0
  -24.8888  -32.2838   26.4843 H   0  0  0  0  0  0
  -25.8039  -30.8849   27.0183 H   0  0  0  0  0  0
  -26.2893  -29.6726   24.1207 H   0  0  0  0  0  0
  -27.4069  -29.7263   25.4638 H   0  0  0  0  0  0
  -27.8744  -30.4279   23.9334 H   0  0  0  0  0  0
  -27.2674  -33.3598   26.2029 H   0  0  0  0  0  0
  -28.3848  -32.6846   25.0260 H   0  0  0  0  0  0
  -28.0733  -31.8415   26.5356 H   0  0  0  0  0  0
  -28.2606  -38.0098   24.7506 H   0  0  0  0  0  0
  -28.1083  -36.2627   24.6301 H   0  0  0  0  0  0
  -27.2297  -37.1463   25.8866 H   0  0  0  0  0  0
  -20.9361  -29.8706   21.6868 H   0  0  0  0  0  0
  -26.0188  -38.2848   24.1381 H   0  0  0  0  0  0
  -29.4399  -16.8989   22.7025 H   0  0  0  0  0  0
  -27.1732  -22.0416   18.6752 H   0  0  0  0  0  0
  -28.5907  -21.3553   17.8784 H   0  0  0  0  0  0
  -28.2252  -23.0527   17.6932 H   0  0  0  0  0  0
  -27.5791  -23.7563   20.7622 H   0  0  0  0  0  0
  -29.2216  -24.0931   21.2059 H   0  0  0  0  0  0
  -29.5306  -25.3094   18.9992 H   0  0  0  0  0  0
  -27.8673  -25.1432   18.6454 H   0  0  0  0  0  0
  -30.0867  -22.7303   19.2954 H   0  0  0  0  0  0
  -28.8661  -21.5949   21.4874 H   0  0  0  0  0  0
  1 25  1  0  0  0
  1 30  2  0  0  0
  1 80  1  0  0  0
  2  3  1  0  0  0
  2 25  1  0  0  0
  2 83  1  0  0  0
  2 84  1  0  0  0
  3  4  1  0  0  0
  3 85  1  0  0  0
  3 86  1  0  0  0
  4  5  1  0  0  0
  4 87  1  0  0  0
  4 88  1  0  0  0
  5  6  1  0  0  0
  5 26  1  0  0  0
  5 89  1  0  0  0
  6 25  1  0  0  0
  6 90  1  0  0  0
  6 91  1  0  0  0
  7  8  2  0  0  0
  7 26  1  0  0  0
  7 29  1  0  0  0
  8  9  1  0  0  0
  8 22  1  0  0  0
  9 10  1  0  0  0
  9 27  2  0  0  0
 10 11  2  0  0  0
 10 15  1  0  0  0
 11 12  1  0  0  0
 11 92  1  0  0  0
 12 13  2  0  0  0
 12 93  1  0  0  0
 13 14  1  0  0  0
 13 31  1  0  0  0
 14 15  2  0  0  0
 14 94  1  0  0  0
 15 95  1  0  0  0
 16 17  2  0  0  0
 16 21  1  0  0  0
 16 31  1  0  0  0
 17 18  1  0  0  0
 17 96  1  0  0  0
 18 19  2  0  0  0
 18 97  1  0  0  0
 19 20  1  0  0  0
 19 24  1  0  0  0
 20 21  2  0  0  0
 20 98  1  0  0  0
 21 23  1  0  0  0
 22 28  1  0  0  0
 22 32  2  0  0  0
 26 27  1  0  0  0
 28 99  1  0  0  0
 28100  1  0  0  0
 29101  1  0  0  0
 29102  1  0  0  0
 33 34  1  0  0  0
 33 66  1  0  0  0
 33 70  2  0  0  0
 34 36  1  0  0  0
 34 59  1  0  0  0
 34103  1  0  0  0
 35 44  2  0  0  0
 35 45  1  0  0  0
 35 68  1  0  0  0
 36 56  1  0  0  0
 36104  1  0  0  0
 37 39  1  0  0  0
 37 47  1  0  0  0
 37 66  1  0  0  0
 37105  1  0  0  0
 38 43  2  0  0  0
 38 46  1  0  0  0
 38 47  1  0  0  0
 39 64  1  0  0  0
 39 67  2  0  0  0
 40 52  1  0  0  0
 40 53  2  0  0  0
 40 58  1  0  0  0
 41106  1  0  0  0
 41107  1  0  0  0
 41108  1  0  0  0
 41 48  1  0  0  0
 42 43  1  0  0  0
 42 66  1  0  0  0
 42109  1  0  0  0
 42110  1  0  0  0
 43 44  1  0  0  0
 44111  1  0  0  0
 45 46  2  0  0  0
 45112  1  0  0  0
 46113  1  0  0  0
 47114  1  0  0  0
 47115  1  0  0  0
 48 56  1  0  0  0
 48 65  1  0  0  0
 48116  1  0  0  0
 49 50  1  0  0  0
 49 53  1  0  0  0
 49 64  1  0  0  0
 49117  1  0  0  0
 50 51  1  0  0  0
 50118  1  0  0  0
 50119  1  0  0  0
 51 52  1  0  0  0
 51120  1  0  0  0
 51121  1  0  0  0
 52122  1  0  0  0
 52123  1  0  0  0
 53 54  1  0  0  0
 54 55  2  0  0  0
 54124  1  0  0  0
 55 57  1  0  0  0
 55125  1  0  0  0
 56 69  2  0  0  0
 57 58  2  0  0  0
 57126  1  0  0  0
 58127  1  0  0  0
 59 60  1  0  0  0
 59 61  1  0  0  0
 59 62  1  0  0  0
 60128  1  0  0  0
 60129  1  0  0  0
 60130  1  0  0  0
 61131  1  0  0  0
 61132  1  0  0  0
 61133  1  0  0  0
 62134  1  0  0  0
 62135  1  0  0  0
 62136  1  0  0  0
 63 65  1  0  0  0
 63137  1  0  0  0
 63138  1  0  0  0
 63139  1  0  0  0
 64140  1  0  0  0
 65141  1  0  0  0
 68 76  1  0  0  0
 71 73  1  0  0  0
 71 78  1  0  0  0
 71 79  2  0  0  0
 72 78  2  0  0  0
 72 81  1  0  0  0
 72 82  1  0  0  0
 73 80  2  0  0  0
 73142  1  0  0  0
 74143  1  0  0  0
 74144  1  0  0  0
 74145  1  0  0  0
 74 77  1  0  0  0
 75 76  1  0  0  0
 75 77  1  0  0  0
 75146  1  0  0  0
 75147  1  0  0  0
 76148  1  0  0  0
 76149  1  0  0  0
 77 81  1  0  0  0
 77150  1  0  0  0
 79 82  1  0  0  0
 81151  1  0  0  0
M  ISO  4   1 100  68 101  76 101  80 100
M  END
> <chiral flag>
0

> <version>
0

> <s_m_source_file>
/data/baiqing/PycharmProjects/Reinvent-master-3.2/result/LINK_invent/BTK/process_docking_weight1_custom_product_contain_oxygen_bond_distance_aromatic_linkinvent_7_9_3/rearranged_h_0194.sdf

> <i_m_source_file_index>
12

> <r_mmod_Potential_Energy-OPLS-2005>
-4.89718103408813

> <r_mmod_Stretch_Energy-OPLS-2005>
73.6352844238281

> <r_mmod_Bend_Energy-OPLS-2005>
219.23371887207

> <r_mmod_Torsional_Energy-OPLS-2005>
149.703475952148

> <r_mmod_Improper_Torsional_Energy-OPLS-2005>
2.12333226203918

> <r_mmod_Van_der_Waal_Energy-OPLS-2005>
121.252288818359

> <r_mmod_Electrostatic_Energy-OPLS-2005>
-403.715667724609

> <r_mmod_Solvation_Energy-OPLS-2005>
-203.754791259766

> <b_mmod_Minimization_Converged-OPLS-2005>
0

> <r_mmod_RMS_Derivative-OPLS-2005>
1.24547493457794

$$$$
12
                    3D
 Structure written by MMmdl.
155163  0  0  1  0            999 V2000
  -30.5966  -14.7582   20.4302 C   0  0  0  0  0  0
  -30.4335  -12.4496   19.4860 C   0  0  0  0  0  0
  -29.5106  -12.4775   18.2459 C   0  0  0  0  0  0
  -28.0344  -12.3186   18.6574 C   0  0  0  0  0  0
  -27.6395  -13.2292   19.8496 C   0  0  2  0  0  0
  -28.6826  -13.1713   20.9885 C   0  0  0  0  0  0
  -25.2494  -13.8196   20.5694 C   0  0  0  0  0  0
  -24.1800  -13.0439   20.9225 C   0  0  0  0  0  0
  -24.6394  -11.6919   20.8762 C   0  0  0  0  0  0
  -23.9074  -10.4298   21.0416 C   0  0  0  0  0  0
  -24.3631   -9.4211   21.9184 C   0  0  0  0  0  0
  -23.6309   -8.2245   22.0738 C   0  0  0  0  0  0
  -22.4289   -8.0290   21.3532 C   0  0  0  0  0  0
  -21.9928   -9.0263   20.4631 C   0  0  0  0  0  0
  -22.7252  -10.2146   20.3057 C   0  0  0  0  0  0
  -21.6866   -6.0748   22.5278 C   0  0  0  0  0  0
  -21.4020   -6.5648   23.8212 C   0  0  0  0  0  0
  -21.3649   -5.6797   24.9172 C   0  0  0  0  0  0
  -21.6044   -4.3061   24.7225 C   0  0  0  0  0  0
  -21.8818   -3.8153   23.4347 C   0  0  0  0  0  0
  -21.9196   -4.6972   22.3404 C   0  0  0  0  0  0
  -22.7822  -13.5212   21.1888 C   0  0  0  0  0  0
  -22.1666   -4.2159   21.0983 F   0  0  0  0  0  0
  -21.5626   -3.4543   25.7735 F   0  0  0  0  0  0
  -29.9874  -13.5201   20.4098 N   0  0  0  0  0  0
  -26.2916  -12.9399   20.3272 N   0  0  0  0  0  0
  -25.9321  -11.6545   20.5774 N   0  0  0  0  0  0
  -22.0484  -12.8183   22.0445 N   0  0  0  0  0  0
  -25.4160  -15.1916   20.4085 N   0  0  0  0  0  0
  -31.7906  -14.8473   20.1226 O   0  0  0  0  0  0
  -21.6646   -6.8893   21.4241 O   0  0  0  0  0  0
  -22.3500  -14.5521   20.6739 O   0  0  0  0  0  0
  -24.6327  -31.8554   23.1998 C   0  0  0  0  0  0
  -25.9153  -32.4761   23.8347 C   0  0  1  0  0  0
  -27.2221  -27.2588   20.1259 C   0  0  0  0  0  0
  -25.5953  -33.8568   24.2265 N   0  0  0  0  0  0
  -23.4288  -30.4787   21.5448 C   0  0  2  0  0  0
  -24.8761  -28.9280   20.1133 C   0  0  0  0  0  0
  -22.7515  -29.4605   22.4939 C   0  0  0  0  0  0
  -18.0295  -28.1366   22.8489 C   0  0  0  0  0  0
  -24.1491  -36.7284   23.2640 C   0  0  0  0  0  0
  -25.9761  -30.7705   21.3776 C   0  0  0  0  0  0
  -26.0506  -29.3927   20.7190 C   0  0  0  0  0  0
  -27.2262  -28.5715   20.7131 C   0  0  0  0  0  0
  -26.0210  -26.8729   19.4843 C   0  0  0  0  0  0
  -24.8668  -27.6753   19.4873 C   0  0  0  0  0  0
  -23.6467  -29.8139   20.1613 C   0  0  0  0  0  0
  -25.4116  -36.3071   24.0325 C   0  0  1  0  0  0
  -20.5902  -28.3697   23.1284 C   0  0  2  0  0  0
  -20.6814  -26.9433   22.5377 C   0  0  0  0  0  0
  -19.5786  -26.6421   21.5181 C   0  0  0  0  0  0
  -18.1965  -26.7915   22.1616 C   0  0  0  0  0  0
  -19.1541  -28.8843   23.2877 C   0  0  0  0  0  0
  -18.9459  -30.1455   23.8867 C   0  0  0  0  0  0
  -17.6453  -30.6575   24.0533 C   0  0  0  0  0  0
  -25.9063  -34.9439   23.5092 C   0  0  0  0  0  0
  -16.5348  -29.9062   23.6310 C   0  0  0  0  0  0
  -16.7276  -28.6468   23.0353 C   0  0  0  0  0  0
  -26.4515  -31.6597   25.0746 C   0  0  0  0  0  0
  -25.3730  -31.3753   26.1464 C   0  0  0  0  0  0
  -27.0362  -30.3013   24.6240 C   0  0  0  0  0  0
  -27.6064  -32.4332   25.7529 C   0  0  0  0  0  0
  -27.5572  -37.1798   24.8464 C   0  0  0  0  0  0
  -21.4218  -29.3064   22.3702 N   0  0  0  0  0  0
  -26.4287  -37.3774   23.9407 N   0  0  0  0  0  0
  -24.6987  -31.0524   22.0973 N   0  0  0  0  0  0
  -23.4224  -28.8129   23.3014 O   0  0  0  0  0  0
  -28.3091  -26.3479   20.2033 O   0  0  0  0  0  0
  -26.5623  -34.8913   22.4659 O   0  0  0  0  0  0
  -23.5477  -32.1375   23.7297 O   0  0  0  0  0  0
  -29.6623  -18.5099   17.9540 C   0  0  0  0  0  0
  -29.7754  -17.2562   18.5879 C   0  0  0  0  0  0
  -29.7835  -17.2221   20.0089 C   0  0  0  0  0  0
  -29.4577  -19.6153   19.9305 C   0  0  0  0  0  0
  -27.0846  -21.9169   19.8859 C   0  0  0  0  0  0
  -28.9651  -23.6328   20.4410 C   0  0  0  0  0  0
  -28.0456  -24.8844   19.9507 C   0  0  0  0  0  0
  -28.6087  -22.1287   19.9101 C   0  0  1  0  0  0
  -29.4992  -19.6632   18.6166 N   0  0  0  0  0  0
  -29.5946  -18.4553   20.6473 N   0  0  0  0  0  0
  -29.7995  -16.1106   17.7818 N   0  0  0  0  0  0
  -29.8060  -15.8812   20.6593 N   0  0  0  0  0  0
  -29.2632  -20.9005   20.5421 N   0  0  0  0  0  0
  -31.4736  -12.5754   19.1812 H   0  0  0  0  0  0
  -30.3847  -11.4787   19.9813 H   0  0  0  0  0  0
  -29.7879  -11.6811   17.5551 H   0  0  0  0  0  0
  -29.6453  -13.4075   17.6957 H   0  0  0  0  0  0
  -27.8868  -11.2731   18.9318 H   0  0  0  0  0  0
  -27.3782  -12.5017   17.8052 H   0  0  0  0  0  0
  -27.6312  -14.2468   19.4598 H   0  0  0  0  0  0
  -28.7138  -12.1769   21.4360 H   0  0  0  0  0  0
  -28.4121  -13.8577   21.7929 H   0  0  0  0  0  0
  -25.2777   -9.5695   22.4757 H   0  0  0  0  0  0
  -24.0018   -7.4640   22.7459 H   0  0  0  0  0  0
  -21.0857   -8.8798   19.8939 H   0  0  0  0  0  0
  -22.3714  -10.9696   19.6175 H   0  0  0  0  0  0
  -21.2018   -7.6157   23.9724 H   0  0  0  0  0  0
  -21.1461   -6.0524   25.9076 H   0  0  0  0  0  0
  -22.0602   -2.7618   23.2846 H   0  0  0  0  0  0
  -22.4135  -11.9854   22.4819 H   0  0  0  0  0  0
  -21.1097  -13.1179   22.2671 H   0  0  0  0  0  0
  -24.6398  -15.8355   20.5101 H   0  0  0  0  0  0
  -26.2418  -15.6284   20.0201 H   0  0  0  0  0  0
  -26.7216  -32.5417   23.1090 H   0  0  0  0  0  0
  -25.0085  -33.9709   25.0399 H   0  0  0  0  0  0
  -22.7231  -31.2997   21.3984 H   0  0  0  0  0  0
  -23.3755  -35.9615   23.3307 H   0  0  0  0  0  0
  -24.3576  -36.8909   22.2053 H   0  0  0  0  0  0
  -23.7245  -37.6486   23.6662 H   0  0  0  0  0  0
  -26.1125  -31.5318   20.6081 H   0  0  0  0  0  0
  -26.8548  -30.8227   22.0088 H   0  0  0  0  0  0
  -28.1251  -28.9238   21.1990 H   0  0  0  0  0  0
  -25.9297  -25.9176   18.9913 H   0  0  0  0  0  0
  -23.9651  -27.3110   19.0134 H   0  0  0  0  0  0
  -23.7704  -30.5910   19.4057 H   0  0  0  0  0  0
  -22.7649  -29.2477   19.8555 H   0  0  0  0  0  0
  -25.1301  -36.1917   25.0815 H   0  0  0  0  0  0
  -20.9981  -28.3245   24.1416 H   0  0  0  0  0  0
  -20.5719  -26.2278   23.3549 H   0  0  0  0  0  0
  -21.6690  -26.7494   22.1162 H   0  0  0  0  0  0
  -19.6967  -25.6351   21.1161 H   0  0  0  0  0  0
  -19.6724  -27.3278   20.6747 H   0  0  0  0  0  0
  -18.0418  -26.0032   22.8991 H   0  0  0  0  0  0
  -17.4227  -26.6647   21.4017 H   0  0  0  0  0  0
  -19.7935  -30.7282   24.2227 H   0  0  0  0  0  0
  -17.5025  -31.6261   24.5134 H   0  0  0  0  0  0
  -15.5344  -30.2976   23.7631 H   0  0  0  0  0  0
  -15.8679  -28.0764   22.7093 H   0  0  0  0  0  0
  -24.5904  -30.7106   25.7788 H   0  0  0  0  0  0
  -24.8927  -32.2923   26.4878 H   0  0  0  0  0  0
  -25.8046  -30.8932   27.0249 H   0  0  0  0  0  0
  -26.2953  -29.6764   24.1235 H   0  0  0  0  0  0
  -27.4011  -29.7277   25.4775 H   0  0  0  0  0  0
  -27.8846  -30.4295   23.9516 H   0  0  0  0  0  0
  -27.2680  -33.3631   26.2111 H   0  0  0  0  0  0
  -28.3889  -32.6896   25.0374 H   0  0  0  0  0  0
  -28.0725  -31.8460   26.5454 H   0  0  0  0  0  0
  -28.2594  -38.0089   24.7498 H   0  0  0  0  0  0
  -28.1065  -36.2618   24.6306 H   0  0  0  0  0  0
  -27.2291  -37.1473   25.8869 H   0  0  0  0  0  0
  -20.9389  -29.8825   21.6951 H   0  0  0  0  0  0
  -26.0167  -38.2846   24.1407 H   0  0  0  0  0  0
  -29.6507  -18.5825   16.8764 H   0  0  0  0  0  0
  -26.5707  -22.6990   19.3274 H   0  0  0  0  0  0
  -26.6654  -21.8947   20.8917 H   0  0  0  0  0  0
  -26.8253  -20.9782   19.3957 H   0  0  0  0  0  0
  -29.9960  -23.8454   20.1538 H   0  0  0  0  0  0
  -28.9632  -23.6232   21.5312 H   0  0  0  0  0  0
  -27.9195  -24.7812   18.8724 H   0  0  0  0  0  0
  -27.0719  -24.6743   20.3942 H   0  0  0  0  0  0
  -28.9189  -22.1245   18.8640 H   0  0  0  0  0  0
  -29.4948  -15.2261   18.1692 H   0  0  0  0  0  0
  -29.5510  -16.2140   16.8014 H   0  0  0  0  0  0
  -28.9475  -15.6644   21.1360 H   0  0  0  0  0  0
  -29.2621  -20.8763   21.5550 H   0  0  0  0  0  0
  1 25  1  0  0  0
  1 30  2  0  0  0
  1 82  1  0  0  0
  2  3  1  0  0  0
  2 25  1  0  0  0
  2 84  1  0  0  0
  2 85  1  0  0  0
  3  4  1  0  0  0
  3 86  1  0  0  0
  3 87  1  0  0  0
  4  5  1  0  0  0
  4 88  1  0  0  0
  4 89  1  0  0  0
  5  6  1  0  0  0
  5 26  1  0  0  0
  5 90  1  0  0  0
  6 25  1  0  0  0
  6 91  1  0  0  0
  6 92  1  0  0  0
  7  8  2  0  0  0
  7 26  1  0  0  0
  7 29  1  0  0  0
  8  9  1  0  0  0
  8 22  1  0  0  0
  9 10  1  0  0  0
  9 27  2  0  0  0
 10 11  2  0  0  0
 10 15  1  0  0  0
 11 12  1  0  0  0
 11 93  1  0  0  0
 12 13  2  0  0  0
 12 94  1  0  0  0
 13 14  1  0  0  0
 13 31  1  0  0  0
 14 15  2  0  0  0
 14 95  1  0  0  0
 15 96  1  0  0  0
 16 17  2  0  0  0
 16 21  1  0  0  0
 16 31  1  0  0  0
 17 18  1  0  0  0
 17 97  1  0  0  0
 18 19  2  0  0  0
 18 98  1  0  0  0
 19 20  1  0  0  0
 19 24  1  0  0  0
 20 21  2  0  0  0
 20 99  1  0  0  0
 21 23  1  0  0  0
 22 28  1  0  0  0
 22 32  2  0  0  0
 26 27  1  0  0  0
 28100  1  0  0  0
 28101  1  0  0  0
 29102  1  0  0  0
 29103  1  0  0  0
 33 34  1  0  0  0
 33 66  1  0  0  0
 33 70  2  0  0  0
 34 36  1  0  0  0
 34 59  1  0  0  0
 34104  1  0  0  0
 35 44  2  0  0  0
 35 45  1  0  0  0
 35 68  1  0  0  0
 36 56  1  0  0  0
 36105  1  0  0  0
 37 39  1  0  0  0
 37 47  1  0  0  0
 37 66  1  0  0  0
 37106  1  0  0  0
 38 43  2  0  0  0
 38 46  1  0  0  0
 38 47  1  0  0  0
 39 64  1  0  0  0
 39 67  2  0  0  0
 40 52  1  0  0  0
 40 53  2  0  0  0
 40 58  1  0  0  0
 41107  1  0  0  0
 41108  1  0  0  0
 41109  1  0  0  0
 41 48  1  0  0  0
 42 43  1  0  0  0
 42 66  1  0  0  0
 42110  1  0  0  0
 42111  1  0  0  0
 43 44  1  0  0  0
 44112  1  0  0  0
 45 46  2  0  0  0
 45113  1  0  0  0
 46114  1  0  0  0
 47115  1  0  0  0
 47116  1  0  0  0
 48 56  1  0  0  0
 48 65  1  0  0  0
 48117  1  0  0  0
 49 50  1  0  0  0
 49 53  1  0  0  0
 49 64  1  0  0  0
 49118  1  0  0  0
 50 51  1  0  0  0
 50119  1  0  0  0
 50120  1  0  0  0
 51 52  1  0  0  0
 51121  1  0  0  0
 51122  1  0  0  0
 52123  1  0  0  0
 52124  1  0  0  0
 53 54  1  0  0  0
 54 55  2  0  0  0
 54125  1  0  0  0
 55 57  1  0  0  0
 55126  1  0  0  0
 56 69  2  0  0  0
 57 58  2  0  0  0
 57127  1  0  0  0
 58128  1  0  0  0
 59 60  1  0  0  0
 59 61  1  0  0  0
 59 62  1  0  0  0
 60129  1  0  0  0
 60130  1  0  0  0
 60131  1  0  0  0
 61132  1  0  0  0
 61133  1  0  0  0
 61134  1  0  0  0
 62135  1  0  0  0
 62136  1  0  0  0
 62137  1  0  0  0
 63 65  1  0  0  0
 63138  1  0  0  0
 63139  1  0  0  0
 63140  1  0  0  0
 64141  1  0  0  0
 65142  1  0  0  0
 68 77  1  0  0  0
 71 72  2  0  0  0
 71 79  1  0  0  0
 71143  1  0  0  0
 72 73  1  0  0  0
 72 81  1  0  0  0
 73 80  2  0  0  0
 73 82  1  0  0  0
 74 79  2  0  0  0
 74 80  1  0  0  0
 74 83  1  0  0  0
 75144  1  0  0  0
 75145  1  0  0  0
 75146  1  0  0  0
 75 78  1  0  0  0
 76 77  1  0  0  0
 76 78  1  0  0  0
 76147  1  0  0  0
 76148  1  0  0  0
 77149  1  0  0  0
 77150  1  0  0  0
 78 83  1  0  0  0
 78151  1  0  0  0
 81152  1  0  0  0
 81153  1  0  0  0
 82154  1  0  0  0
 83155  1  0  0  0
M  ISO  4   1 100  68 101  77 101  82 100
M  END
> <chiral flag>
0

> <version>
0

> <s_m_source_file>
/data/baiqing/PycharmProjects/Reinvent-master-3.2/result/LINK_invent/BTK/process_docking_weight1_custom_product_contain_oxygen_bond_distance_aromatic_linkinvent_7_9_3/rearranged_h_0194.sdf

> <i_m_source_file_index>
13

> <r_mmod_Potential_Energy-OPLS-2005>
-252.451553344727

> <r_mmod_Stretch_Energy-OPLS-2005>
130.539016723633

> <r_mmod_Bend_Energy-OPLS-2005>
177.383926391602

> <r_mmod_Torsional_Energy-OPLS-2005>
243.418258666992

> <r_mmod_Improper_Torsional_Energy-OPLS-2005>
9.83370494842529

> <r_mmod_Van_der_Waal_Energy-OPLS-2005>
156.258514404297

> <r_mmod_Electrostatic_Energy-OPLS-2005>
-805.604797363281

> <r_mmod_Solvation_Energy-OPLS-2005>
-255.543350219727

> <b_mmod_Minimization_Converged-OPLS-2005>
0

> <r_mmod_RMS_Derivative-OPLS-2005>
2.0513162612915

$$$$
13
                    3D
 Structure written by MMmdl.
157165  0  0  1  0            999 V2000
  -30.6964  -14.5372   20.5390 C   0  0  0  0  0  0
  -30.4254  -12.3437   19.4302 C   0  0  0  0  0  0
  -29.4988  -12.5084   18.2080 C   0  0  0  0  0  0
  -28.0172  -12.3739   18.6156 C   0  0  0  0  0  0
  -27.6561  -13.2206   19.8643 C   0  0  2  0  0  0
  -28.7039  -13.0442   20.9867 C   0  0  0  0  0  0
  -25.2566  -13.8165   20.5691 C   0  0  0  0  0  0
  -24.1830  -13.0429   20.9186 C   0  0  0  0  0  0
  -24.6402  -11.6906   20.8719 C   0  0  0  0  0  0
  -23.9055  -10.4292   21.0386 C   0  0  0  0  0  0
  -24.3604   -9.4213   21.9170 C   0  0  0  0  0  0
  -23.6298   -8.2242   22.0738 C   0  0  0  0  0  0
  -22.4281   -8.0276   21.3525 C   0  0  0  0  0  0
  -21.9904   -9.0250   20.4637 C   0  0  0  0  0  0
  -22.7219  -10.2131   20.3050 C   0  0  0  0  0  0
  -21.6861   -6.0741   22.5278 C   0  0  0  0  0  0
  -21.4015   -6.5643   23.8213 C   0  0  0  0  0  0
  -21.3661   -5.6791   24.9172 C   0  0  0  0  0  0
  -21.6057   -4.3056   24.7221 C   0  0  0  0  0  0
  -21.8818   -3.8147   23.4337 C   0  0  0  0  0  0
  -21.9189   -4.6965   22.3391 C   0  0  0  0  0  0
  -22.7857  -13.5228   21.1855 C   0  0  0  0  0  0
  -22.1658   -4.2152   21.0966 F   0  0  0  0  0  0
  -21.5636   -3.4543   25.7726 F   0  0  0  0  0  0
  -30.0277  -13.3542   20.4240 N   0  0  0  0  0  0
  -26.3007  -12.9360   20.3332 N   0  0  0  0  0  0
  -25.9337  -11.6504   20.5757 N   0  0  0  0  0  0
  -22.0459  -12.8249   22.0405 N   0  0  0  0  0  0
  -25.4271  -15.1898   20.4135 N   0  0  0  0  0  0
  -31.8451  -14.6856   20.1121 O   0  0  0  0  0  0
  -21.6638   -6.8882   21.4245 O   0  0  0  0  0  0
  -22.3544  -14.5529   20.6691 O   0  0  0  0  0  0
  -24.6225  -31.8641   23.2057 C   0  0  0  0  0  0
  -25.9088  -32.4806   23.8376 C   0  0  1  0  0  0
  -27.2352  -27.3898   20.1169 C   0  0  0  0  0  0
  -25.5924  -33.8596   24.2330 N   0  0  0  0  0  0
  -23.4139  -30.4897   21.5444 C   0  0  2  0  0  0
  -24.8626  -28.9483   20.1126 C   0  0  0  0  0  0
  -22.7444  -29.4666   22.4918 C   0  0  0  0  0  0
  -18.0284  -28.1416   22.8486 C   0  0  0  0  0  0
  -24.1485  -36.7315   23.2635 C   0  0  0  0  0  0
  -25.9443  -30.8206   21.3602 C   0  0  0  0  0  0
  -26.0235  -29.4478   20.7161 C   0  0  0  0  0  0
  -27.2159  -28.6782   20.7106 C   0  0  0  0  0  0
  -26.0585  -26.9212   19.4946 C   0  0  0  0  0  0
  -24.8769  -27.6883   19.4915 C   0  0  0  0  0  0
  -23.6284  -29.8242   20.1582 C   0  0  0  0  0  0
  -25.4097  -36.3108   24.0347 C   0  0  1  0  0  0
  -20.5888  -28.3725   23.1285 C   0  0  2  0  0  0
  -20.6787  -26.9449   22.5410 C   0  0  0  0  0  0
  -19.5761  -26.6413   21.5217 C   0  0  0  0  0  0
  -18.1938  -26.7962   22.1622 C   0  0  0  0  0  0
  -19.1535  -28.8876   23.2899 C   0  0  0  0  0  0
  -18.9461  -30.1479   23.8928 C   0  0  0  0  0  0
  -17.6463  -30.6616   24.0592 C   0  0  0  0  0  0
  -25.9028  -34.9467   23.5129 C   0  0  0  0  0  0
  -16.5353  -29.9133   23.6326 C   0  0  0  0  0  0
  -16.7273  -28.6547   23.0346 C   0  0  0  0  0  0
  -26.4506  -31.6584   25.0707 C   0  0  0  0  0  0
  -25.3758  -31.3698   26.1450 C   0  0  0  0  0  0
  -27.0346  -30.3034   24.6073 C   0  0  0  0  0  0
  -27.6099  -32.4280   25.7477 C   0  0  0  0  0  0
  -27.5580  -37.1808   24.8463 C   0  0  0  0  0  0
  -21.4160  -29.3078   22.3664 N   0  0  0  0  0  0
  -26.4280  -37.3794   23.9418 N   0  0  0  0  0  0
  -24.6792  -31.0730   22.0966 N   0  0  0  0  0  0
  -23.4184  -28.8187   23.2975 O   0  0  0  0  0  0
  -28.3765  -26.5987   20.1187 O   0  0  0  0  0  0
  -26.5570  -34.8930   22.4689 O   0  0  0  0  0  0
  -23.5403  -32.1384   23.7435 O   0  0  0  0  0  0
  -27.6503  -18.7132   19.0613 C   0  0  0  0  0  0
  -28.4264  -17.7006   19.6556 C   0  0  0  0  0  0
  -28.0614  -20.0527   19.1857 C   0  0  0  0  0  0
  -29.5803  -18.0612   20.3758 C   0  0  0  0  0  0
  -29.2333  -20.3453   19.8994 C   0  0  0  0  0  0
  -29.0999  -22.5853   22.1719 C   0  0  0  0  0  0
  -30.4469  -16.9988   21.0841 C   0  0  0  0  0  0
  -29.0926  -24.1382   20.0887 C   0  0  0  0  0  0
  -28.2370  -25.2854   20.7290 C   0  0  0  0  0  0
  -28.8702  -22.6807   20.6523 C   0  0  1  0  0  0
  -29.9702  -19.3648   20.4890 N   0  0  0  0  0  0
  -29.7107  -21.6690   19.9789 N   0  0  0  0  0  0
  -29.9877  -15.5892   21.0027 N   0  0  0  0  0  0
  -31.4696  -12.4431   19.1240 H   0  0  0  0  0  0
  -30.3325  -11.3417   19.8528 H   0  0  0  0  0  0
  -29.7453  -11.7678   17.4474 H   0  0  0  0  0  0
  -29.6671  -13.4851   17.7489 H   0  0  0  0  0  0
  -27.8210  -11.3212   18.8167 H   0  0  0  0  0  0
  -27.3714  -12.6470   17.7792 H   0  0  0  0  0  0
  -27.6851  -14.2620   19.5456 H   0  0  0  0  0  0
  -28.6930  -12.0202   21.3617 H   0  0  0  0  0  0
  -28.4652  -13.6769   21.8412 H   0  0  0  0  0  0
  -25.2735   -9.5719   22.4754 H   0  0  0  0  0  0
  -24.0020   -7.4636   22.7460 H   0  0  0  0  0  0
  -21.0828   -8.8749   19.8952 H   0  0  0  0  0  0
  -22.3648  -10.9667   19.6169 H   0  0  0  0  0  0
  -21.2000   -7.6150   23.9729 H   0  0  0  0  0  0
  -21.1497   -6.0504   25.9080 H   0  0  0  0  0  0
  -22.0597   -2.7610   23.2820 H   0  0  0  0  0  0
  -22.4025  -11.9930   22.4864 H   0  0  0  0  0  0
  -21.1071  -13.1321   22.2535 H   0  0  0  0  0  0
  -24.6616  -15.8437   20.5417 H   0  0  0  0  0  0
  -26.2869  -15.6387   20.1290 H   0  0  0  0  0  0
  -26.7161  -32.5531   23.1144 H   0  0  0  0  0  0
  -25.0143  -33.9741   25.0526 H   0  0  0  0  0  0
  -22.7079  -31.3107   21.4025 H   0  0  0  0  0  0
  -23.3735  -35.9659   23.3295 H   0  0  0  0  0  0
  -24.3584  -36.8923   22.2051 H   0  0  0  0  0  0
  -23.7232  -37.6523   23.6634 H   0  0  0  0  0  0
  -26.0443  -31.5744   20.5790 H   0  0  0  0  0  0
  -26.8383  -30.8930   21.9679 H   0  0  0  0  0  0
  -28.1107  -29.0571   21.1833 H   0  0  0  0  0  0
  -26.0552  -25.9569   19.0087 H   0  0  0  0  0  0
  -23.9914  -27.3042   19.0042 H   0  0  0  0  0  0
  -23.7488  -30.6018   19.4030 H   0  0  0  0  0  0
  -22.7515  -29.2519   19.8522 H   0  0  0  0  0  0
  -25.1264  -36.1977   25.0833 H   0  0  0  0  0  0
  -20.9998  -28.3310   24.1409 H   0  0  0  0  0  0
  -20.5720  -26.2325   23.3608 H   0  0  0  0  0  0
  -21.6654  -26.7510   22.1187 H   0  0  0  0  0  0
  -19.6923  -25.6323   21.1261 H   0  0  0  0  0  0
  -19.6714  -27.3216   20.6746 H   0  0  0  0  0  0
  -17.4212  -26.6721   21.4026 H   0  0  0  0  0  0
  -18.0338  -26.0116   22.9030 H   0  0  0  0  0  0
  -19.7935  -30.7291   24.2313 H   0  0  0  0  0  0
  -17.5022  -31.6295   24.5208 H   0  0  0  0  0  0
  -15.5359  -30.3064   23.7628 H   0  0  0  0  0  0
  -15.8670  -28.0895   22.7037 H   0  0  0  0  0  0
  -24.5939  -30.7040   25.7775 H   0  0  0  0  0  0
  -24.8948  -32.2865   26.4877 H   0  0  0  0  0  0
  -25.8104  -30.8876   27.0217 H   0  0  0  0  0  0
  -26.2893  -29.6770   24.1156 H   0  0  0  0  0  0
  -27.4174  -29.7290   25.4519 H   0  0  0  0  0  0
  -27.8700  -30.4378   23.9193 H   0  0  0  0  0  0
  -27.2746  -33.3579   26.2086 H   0  0  0  0  0  0
  -28.3908  -32.6817   25.0292 H   0  0  0  0  0  0
  -28.0765  -31.8358   26.5364 H   0  0  0  0  0  0
  -28.2588  -38.0118   24.7522 H   0  0  0  0  0  0
  -28.1085  -36.2644   24.6264 H   0  0  0  0  0  0
  -27.2306  -37.1442   25.8870 H   0  0  0  0  0  0
  -20.9304  -29.8819   21.6913 H   0  0  0  0  0  0
  -26.0173  -38.2871   24.1431 H   0  0  0  0  0  0
  -26.7575  -18.4668   18.5064 H   0  0  0  0  0  0
  -28.1339  -16.6683   19.5441 H   0  0  0  0  0  0
  -27.4800  -20.8342   18.7125 H   0  0  0  0  0  0
  -28.5292  -23.3297   22.7262 H   0  0  0  0  0  0
  -30.1506  -22.7188   22.4287 H   0  0  0  0  0  0
  -28.7982  -21.6100   22.5539 H   0  0  0  0  0  0
  -30.4916  -17.2686   22.1393 H   0  0  0  0  0  0
  -31.4674  -17.0962   20.7100 H   0  0  0  0  0  0
  -30.1500  -24.3987   20.1637 H   0  0  0  0  0  0
  -28.8614  -24.1307   19.0240 H   0  0  0  0  0  0
  -28.5325  -25.4087   21.7712 H   0  0  0  0  0  0
  -27.1975  -24.9595   20.7612 H   0  0  0  0  0  0
  -27.8264  -22.4231   20.4678 H   0  0  0  0  0  0
  -29.9856  -22.0010   19.0591 H   0  0  0  0  0  0
  -29.0431  -15.4083   21.3031 H   0  0  0  0  0  0
  1 25  1  0  0  0
  1 30  2  0  0  0
  1 83  1  0  0  0
  2  3  1  0  0  0
  2 25  1  0  0  0
  2 84  1  0  0  0
  2 85  1  0  0  0
  3  4  1  0  0  0
  3 86  1  0  0  0
  3 87  1  0  0  0
  4  5  1  0  0  0
  4 88  1  0  0  0
  4 89  1  0  0  0
  5  6  1  0  0  0
  5 26  1  0  0  0
  5 90  1  0  0  0
  6 25  1  0  0  0
  6 91  1  0  0  0
  6 92  1  0  0  0
  7  8  2  0  0  0
  7 26  1  0  0  0
  7 29  1  0  0  0
  8  9  1  0  0  0
  8 22  1  0  0  0
  9 10  1  0  0  0
  9 27  2  0  0  0
 10 11  2  0  0  0
 10 15  1  0  0  0
 11 12  1  0  0  0
 11 93  1  0  0  0
 12 13  2  0  0  0
 12 94  1  0  0  0
 13 14  1  0  0  0
 13 31  1  0  0  0
 14 15  2  0  0  0
 14 95  1  0  0  0
 15 96  1  0  0  0
 16 17  2  0  0  0
 16 21  1  0  0  0
 16 31  1  0  0  0
 17 18  1  0  0  0
 17 97  1  0  0  0
 18 19  2  0  0  0
 18 98  1  0  0  0
 19 20  1  0  0  0
 19 24  1  0  0  0
 20 21  2  0  0  0
 20 99  1  0  0  0
 21 23  1  0  0  0
 22 28  1  0  0  0
 22 32  2  0  0  0
 26 27  1  0  0  0
 28100  1  0  0  0
 28101  1  0  0  0
 29102  1  0  0  0
 29103  1  0  0  0
 33 34  1  0  0  0
 33 66  1  0  0  0
 33 70  2  0  0  0
 34 36  1  0  0  0
 34 59  1  0  0  0
 34104  1  0  0  0
 35 44  2  0  0  0
 35 45  1  0  0  0
 35 68  1  0  0  0
 36 56  1  0  0  0
 36105  1  0  0  0
 37 39  1  0  0  0
 37 47  1  0  0  0
 37 66  1  0  0  0
 37106  1  0  0  0
 38 43  2  0  0  0
 38 46  1  0  0  0
 38 47  1  0  0  0
 39 64  1  0  0  0
 39 67  2  0  0  0
 40 52  1  0  0  0
 40 53  2  0  0  0
 40 58  1  0  0  0
 41107  1  0  0  0
 41108  1  0  0  0
 41109  1  0  0  0
 41 48  1  0  0  0
 42 43  1  0  0  0
 42 66  1  0  0  0
 42110  1  0  0  0
 42111  1  0  0  0
 43 44  1  0  0  0
 44112  1  0  0  0
 45 46  2  0  0  0
 45113  1  0  0  0
 46114  1  0  0  0
 47115  1  0  0  0
 47116  1  0  0  0
 48 56  1  0  0  0
 48 65  1  0  0  0
 48117  1  0  0  0
 49 50  1  0  0  0
 49 53  1  0  0  0
 49 64  1  0  0  0
 49118  1  0  0  0
 50 51  1  0  0  0
 50119  1  0  0  0
 50120  1  0  0  0
 51 52  1  0  0  0
 51121  1  0  0  0
 51122  1  0  0  0
 52123  1  0  0  0
 52124  1  0  0  0
 53 54  1  0  0  0
 54 55  2  0  0  0
 54125  1  0  0  0
 55 57  1  0  0  0
 55126  1  0  0  0
 56 69  2  0  0  0
 57 58  2  0  0  0
 57127  1  0  0  0
 58128  1  0  0  0
 59 60  1  0  0  0
 59 61  1  0  0  0
 59 62  1  0  0  0
 60129  1  0  0  0
 60130  1  0  0  0
 60131  1  0  0  0
 61132  1  0  0  0
 61133  1  0  0  0
 61134  1  0  0  0
 62135  1  0  0  0
 62136  1  0  0  0
 62137  1  0  0  0
 63 65  1  0  0  0
 63138  1  0  0  0
 63139  1  0  0  0
 63140  1  0  0  0
 64141  1  0  0  0
 65142  1  0  0  0
 68 79  1  0  0  0
 71 72  2  0  0  0
 71 73  1  0  0  0
 71143  1  0  0  0
 72 74  1  0  0  0
 72144  1  0  0  0
 73 75  2  0  0  0
 73145  1  0  0  0
 74 77  1  0  0  0
 74 81  2  0  0  0
 75 81  1  0  0  0
 75 82  1  0  0  0
 76146  1  0  0  0
 76147  1  0  0  0
 76148  1  0  0  0
 76 80  1  0  0  0
 77 83  1  0  0  0
 77149  1  0  0  0
 77150  1  0  0  0
 78 79  1  0  0  0
 78 80  1  0  0  0
 78151  1  0  0  0
 78152  1  0  0  0
 79153  1  0  0  0
 79154  1  0  0  0
 80 82  1  0  0  0
 80155  1  0  0  0
 82156  1  0  0  0
 83157  1  0  0  0
M  ISO  4   1 100  68 101  79 101  83 100
M  END
> <chiral flag>
0

> <version>
0

> <s_m_source_file>
/data/baiqing/PycharmProjects/Reinvent-master-3.2/result/LINK_invent/BTK/process_docking_weight1_custom_product_contain_oxygen_bond_distance_aromatic_linkinvent_7_9_3/rearranged_h_0194.sdf

> <i_m_source_file_index>
14

> <r_mmod_Potential_Energy-OPLS-2005>
-352.507385253906

> <r_mmod_Stretch_Energy-OPLS-2005>
47.6041297912598

> <r_mmod_Bend_Energy-OPLS-2005>
103.455635070801

> <r_mmod_Torsional_Energy-OPLS-2005>
238.585739135742

> <r_mmod_Improper_Torsional_Energy-OPLS-2005>
8.38899326324463

> <r_mmod_Van_der_Waal_Energy-OPLS-2005>
147.275543212891

> <r_mmod_Electrostatic_Energy-OPLS-2005>
-681.326232910156

> <r_mmod_Solvation_Energy-OPLS-2005>
-239.226715087891

> <b_mmod_Minimization_Converged-OPLS-2005>
0

> <r_mmod_RMS_Derivative-OPLS-2005>
3.34333205223083

$$$$
14
                    3D
 Structure written by MMmdl.
156164  0  0  1  0            999 V2000
  -30.6452  -14.6430   20.5278 C   0  0  0  0  0  0
  -30.4315  -12.4010   19.4585 C   0  0  0  0  0  0
  -29.5076  -12.5089   18.2256 C   0  0  0  0  0  0
  -28.0294  -12.3522   18.6351 C   0  0  0  0  0  0
  -27.6494  -13.2229   19.8630 C   0  0  2  0  0  0
  -28.6928  -13.0915   20.9922 C   0  0  0  0  0  0
  -25.2523  -13.8176   20.5648 C   0  0  0  0  0  0
  -24.1803  -13.0457   20.9197 C   0  0  0  0  0  0
  -24.6378  -11.6919   20.8771 C   0  0  0  0  0  0
  -23.9044  -10.4304   21.0426 C   0  0  0  0  0  0
  -24.3601   -9.4211   21.9195 C   0  0  0  0  0  0
  -23.6283   -8.2241   22.0754 C   0  0  0  0  0  0
  -22.4265   -8.0282   21.3552 C   0  0  0  0  0  0
  -21.9899   -9.0253   20.4655 C   0  0  0  0  0  0
  -22.7218  -10.2137   20.3066 C   0  0  0  0  0  0
  -21.6847   -6.0736   22.5276 C   0  0  0  0  0  0
  -21.4016   -6.5635   23.8216 C   0  0  0  0  0  0
  -21.3657   -5.6785   24.9178 C   0  0  0  0  0  0
  -21.6045   -4.3049   24.7228 C   0  0  0  0  0  0
  -21.8815   -3.8139   23.4349 C   0  0  0  0  0  0
  -21.9196   -4.6962   22.3405 C   0  0  0  0  0  0
  -22.7819  -13.5246   21.1869 C   0  0  0  0  0  0
  -22.1657   -4.2136   21.0988 F   0  0  0  0  0  0
  -21.5633   -3.4540   25.7749 F   0  0  0  0  0  0
  -30.0002  -13.4370   20.4204 N   0  0  0  0  0  0
  -26.2966  -12.9373   20.3309 N   0  0  0  0  0  0
  -25.9310  -11.6528   20.5767 N   0  0  0  0  0  0
  -22.0450  -12.8251   22.0428 N   0  0  0  0  0  0
  -25.4249  -15.1888   20.3989 N   0  0  0  0  0  0
  -31.8187  -14.7564   20.1634 O   0  0  0  0  0  0
  -21.6636   -6.8877   21.4237 O   0  0  0  0  0  0
  -22.3518  -14.5565   20.6715 O   0  0  0  0  0  0
  -24.6275  -31.8604   23.2051 C   0  0  0  0  0  0
  -25.9112  -32.4791   23.8379 C   0  0  1  0  0  0
  -27.2130  -27.2947   20.1001 C   0  0  0  0  0  0
  -25.5920  -33.8595   24.2306 N   0  0  0  0  0  0
  -23.4213  -30.4870   21.5487 C   0  0  2  0  0  0
  -24.8644  -28.9449   20.1078 C   0  0  0  0  0  0
  -22.7473  -29.4631   22.4940 C   0  0  0  0  0  0
  -18.0296  -28.1355   22.8507 C   0  0  0  0  0  0
  -24.1492  -36.7293   23.2643 C   0  0  0  0  0  0
  -25.9659  -30.7779   21.3823 C   0  0  0  0  0  0
  -26.0350  -29.4043   20.7233 C   0  0  0  0  0  0
  -27.2063  -28.5847   20.7231 C   0  0  0  0  0  0
  -26.0237  -26.9175   19.4296 C   0  0  0  0  0  0
  -24.8629  -27.7077   19.4540 C   0  0  0  0  0  0
  -23.6349  -29.8277   20.1617 C   0  0  0  0  0  0
  -25.4112  -36.3094   24.0344 C   0  0  1  0  0  0
  -20.5887  -28.3721   23.1272 C   0  0  2  0  0  0
  -20.6793  -26.9416   22.5498 C   0  0  0  0  0  0
  -19.5765  -26.6273   21.5344 C   0  0  0  0  0  0
  -18.1964  -26.7850   22.1766 C   0  0  0  0  0  0
  -19.1528  -28.8867   23.2860 C   0  0  0  0  0  0
  -18.9445  -30.1485   23.8837 C   0  0  0  0  0  0
  -17.6435  -30.6608   24.0475 C   0  0  0  0  0  0
  -25.9037  -34.9460   23.5127 C   0  0  0  0  0  0
  -16.5339  -29.9065   23.6274 C   0  0  0  0  0  0
  -16.7276  -28.6453   23.0363 C   0  0  0  0  0  0
  -26.4490  -31.6592   25.0755 C   0  0  0  0  0  0
  -25.3714  -31.3726   26.1482 C   0  0  0  0  0  0
  -27.0329  -30.3016   24.6194 C   0  0  0  0  0  0
  -27.6067  -32.4322   25.7504 C   0  0  0  0  0  0
  -27.5578  -37.1810   24.8469 C   0  0  0  0  0  0
  -21.4187  -29.3057   22.3642 N   0  0  0  0  0  0
  -26.4288  -37.3786   23.9414 N   0  0  0  0  0  0
  -24.6909  -31.0580   22.1020 N   0  0  0  0  0  0
  -23.4176  -28.8168   23.3033 O   0  0  0  0  0  0
  -28.3248  -26.4283   20.1697 O   0  0  0  0  0  0
  -26.5614  -34.8930   22.4700 O   0  0  0  0  0  0
  -23.5423  -32.1430   23.7348 O   0  0  0  0  0  0
  -29.3533  -20.1276   19.2790 C   0  0  0  0  0  0
  -29.4658  -19.4865   21.8781 C   0  0  0  0  0  0
  -29.7752  -18.4801   20.8980 C   0  0  0  0  0  0
  -29.1124  -21.1462   20.2506 C   0  0  0  0  0  0
  -29.4743  -19.1990   23.3678 C   0  0  0  0  0  0
  -28.1888  -23.7503   21.9346 C   0  0  0  0  0  0
  -30.4861  -17.1055   21.2345 C   0  0  0  0  0  0
  -28.2392  -25.0101   19.7144 C   0  0  0  0  0  0
  -28.8686  -23.8036   20.5582 C   0  0  2  0  0  0
  -29.6857  -18.8319   19.5870 N   0  0  0  0  0  0
  -29.1536  -20.7867   21.5590 N   0  0  0  0  0  0
  -28.7833  -22.4838   19.8403 N   0  0  0  0  0  0
  -29.9173  -15.7470   20.9007 N   0  0  0  0  0  0
  -31.4740  -12.5149   19.1535 H   0  0  0  0  0  0
  -30.3622  -11.4084   19.9048 H   0  0  0  0  0  0
  -29.7751  -11.7552   17.4832 H   0  0  0  0  0  0
  -29.6534  -13.4755   17.7448 H   0  0  0  0  0  0
  -27.8631  -11.2996   18.8661 H   0  0  0  0  0  0
  -27.3773  -12.5836   17.7926 H   0  0  0  0  0  0
  -27.6678  -14.2578   19.5212 H   0  0  0  0  0  0
  -28.7060  -12.0720   21.3803 H   0  0  0  0  0  0
  -28.4388  -13.7315   21.8400 H   0  0  0  0  0  0
  -25.2748   -9.5690   22.4772 H   0  0  0  0  0  0
  -23.9991   -7.4634   22.7468 H   0  0  0  0  0  0
  -21.0832   -8.8780   19.8963 H   0  0  0  0  0  0
  -22.3678  -10.9683   19.6178 H   0  0  0  0  0  0
  -21.2001   -7.6143   23.9714 H   0  0  0  0  0  0
  -21.1480   -6.0523   25.9084 H   0  0  0  0  0  0
  -22.0596   -2.7599   23.2862 H   0  0  0  0  0  0
  -22.4054  -11.9916   22.4831 H   0  0  0  0  0  0
  -21.1081  -13.1301   22.2638 H   0  0  0  0  0  0
  -24.6504  -15.8410   20.4739 H   0  0  0  0  0  0
  -26.2555  -15.6067   19.9962 H   0  0  0  0  0  0
  -26.7180  -32.5459   23.1119 H   0  0  0  0  0  0
  -25.0061  -33.9725   25.0448 H   0  0  0  0  0  0
  -22.7174  -31.3101   21.4095 H   0  0  0  0  0  0
  -23.3753  -35.9619   23.3302 H   0  0  0  0  0  0
  -24.3587  -36.8907   22.2052 H   0  0  0  0  0  0
  -23.7235  -37.6501   23.6648 H   0  0  0  0  0  0
  -26.1011  -31.5376   20.6112 H   0  0  0  0  0  0
  -26.8455  -30.8281   22.0119 H   0  0  0  0  0  0
  -28.0979  -28.9245   21.2324 H   0  0  0  0  0  0
  -25.9319  -26.0070   18.8621 H   0  0  0  0  0  0
  -23.9731  -27.3595   18.9476 H   0  0  0  0  0  0
  -23.7548  -30.6081   19.4093 H   0  0  0  0  0  0
  -22.7544  -29.2589   19.8569 H   0  0  0  0  0  0
  -25.1285  -36.1962   25.0833 H   0  0  0  0  0  0
  -20.9955  -28.3344   24.1402 H   0  0  0  0  0  0
  -20.5682  -26.2389   23.3768 H   0  0  0  0  0  0
  -21.6682  -26.7410   22.1344 H   0  0  0  0  0  0
  -19.6936  -25.6109   21.1546 H   0  0  0  0  0  0
  -19.6688  -27.2951   20.6768 H   0  0  0  0  0  0
  -17.4202  -26.6476   21.4229 H   0  0  0  0  0  0
  -18.0433  -26.0082   22.9273 H   0  0  0  0  0  0
  -19.7914  -30.7329   24.2184 H   0  0  0  0  0  0
  -17.4974  -31.6316   24.5002 H   0  0  0  0  0  0
  -15.5333  -30.2962   23.7557 H   0  0  0  0  0  0
  -15.8703  -28.0712   22.7127 H   0  0  0  0  0  0
  -24.5902  -30.7062   25.7805 H   0  0  0  0  0  0
  -24.8883  -32.2881   26.4898 H   0  0  0  0  0  0
  -25.8033  -30.8917   27.0267 H   0  0  0  0  0  0
  -26.2896  -29.6785   24.1206 H   0  0  0  0  0  0
  -27.4017  -29.7262   25.4692 H   0  0  0  0  0  0
  -27.8777  -30.4309   23.9433 H   0  0  0  0  0  0
  -27.2699  -33.3633   26.2069 H   0  0  0  0  0  0
  -28.3859  -32.6857   25.0305 H   0  0  0  0  0  0
  -28.0744  -31.8455   26.5413 H   0  0  0  0  0  0
  -28.2610  -38.0098   24.7520 H   0  0  0  0  0  0
  -28.1072  -36.2633   24.6290 H   0  0  0  0  0  0
  -27.2310  -37.1461   25.8880 H   0  0  0  0  0  0
  -20.9386  -29.8777   21.6832 H   0  0  0  0  0  0
  -26.0185  -38.2875   24.1394 H   0  0  0  0  0  0
  -29.3027  -20.3506   18.2232 H   0  0  0  0  0  0
  -30.4726  -18.9335   23.7130 H   0  0  0  0  0  0
  -28.7870  -18.3857   23.6000 H   0  0  0  0  0  0
  -29.1463  -20.0707   23.9391 H   0  0  0  0  0  0
  -28.1532  -24.7424   22.3833 H   0  0  0  0  0  0
  -28.7321  -23.1125   22.6306 H   0  0  0  0  0  0
  -27.1634  -23.3853   21.8625 H   0  0  0  0  0  0
  -30.7063  -17.0818   22.2994 H   0  0  0  0  0  0
  -31.4699  -17.1835   20.7694 H   0  0  0  0  0  0
  -27.2133  -24.6890   19.5838 H   0  0  0  0  0  0
  -28.6764  -24.9958   18.7150 H   0  0  0  0  0  0
  -29.9295  -24.0154   20.7036 H   0  0  0  0  0  0
  -28.7646  -22.5835   18.8282 H   0  0  0  0  0  0
  -28.9396  -15.5985   21.1086 H   0  0  0  0  0  0
  1 25  1  0  0  0
  1 30  2  0  0  0
  1 83  1  0  0  0
  2  3  1  0  0  0
  2 25  1  0  0  0
  2 84  1  0  0  0
  2 85  1  0  0  0
  3  4  1  0  0  0
  3 86  1  0  0  0
  3 87  1  0  0  0
  4  5  1  0  0  0
  4 88  1  0  0  0
  4 89  1  0  0  0
  5  6  1  0  0  0
  5 26  1  0  0  0
  5 90  1  0  0  0
  6 25  1  0  0  0
  6 91  1  0  0  0
  6 92  1  0  0  0
  7  8  2  0  0  0
  7 26  1  0  0  0
  7 29  1  0  0  0
  8  9  1  0  0  0
  8 22  1  0  0  0
  9 10  1  0  0  0
  9 27  2  0  0  0
 10 11  2  0  0  0
 10 15  1  0  0  0
 11 12  1  0  0  0
 11 93  1  0  0  0
 12 13  2  0  0  0
 12 94  1  0  0  0
 13 14  1  0  0  0
 13 31  1  0  0  0
 14 15  2  0  0  0
 14 95  1  0  0  0
 15 96  1  0  0  0
 16 17  2  0  0  0
 16 21  1  0  0  0
 16 31  1  0  0  0
 17 18  1  0  0  0
 17 97  1  0  0  0
 18 19  2  0  0  0
 18 98  1  0  0  0
 19 20  1  0  0  0
 19 24  1  0  0  0
 20 21  2  0  0  0
 20 99  1  0  0  0
 21 23  1  0  0  0
 22 28  1  0  0  0
 22 32  2  0  0  0
 26 27  1  0  0  0
 28100  1  0  0  0
 28101  1  0  0  0
 29102  1  0  0  0
 29103  1  0  0  0
 33 34  1  0  0  0
 33 66  1  0  0  0
 33 70  2  0  0  0
 34 36  1  0  0  0
 34 59  1  0  0  0
 34104  1  0  0  0
 35 44  2  0  0  0
 35 45  1  0  0  0
 35 68  1  0  0  0
 36 56  1  0  0  0
 36105  1  0  0  0
 37 39  1  0  0  0
 37 47  1  0  0  0
 37 66  1  0  0  0
 37106  1  0  0  0
 38 43  2  0  0  0
 38 46  1  0  0  0
 38 47  1  0  0  0
 39 64  1  0  0  0
 39 67  2  0  0  0
 40 52  1  0  0  0
 40 53  2  0  0  0
 40 58  1  0  0  0
 41107  1  0  0  0
 41108  1  0  0  0
 41109  1  0  0  0
 41 48  1  0  0  0
 42 43  1  0  0  0
 42 66  1  0  0  0
 42110  1  0  0  0
 42111  1  0  0  0
 43 44  1  0  0  0
 44112  1  0  0  0
 45 46  2  0  0  0
 45113  1  0  0  0
 46114  1  0  0  0
 47115  1  0  0  0
 47116  1  0  0  0
 48 56  1  0  0  0
 48 65  1  0  0  0
 48117  1  0  0  0
 49 50  1  0  0  0
 49 53  1  0  0  0
 49 64  1  0  0  0
 49118  1  0  0  0
 50 51  1  0  0  0
 50119  1  0  0  0
 50120  1  0  0  0
 51 52  1  0  0  0
 51121  1  0  0  0
 51122  1  0  0  0
 52123  1  0  0  0
 52124  1  0  0  0
 53 54  1  0  0  0
 54 55  2  0  0  0
 54125  1  0  0  0
 55 57  1  0  0  0
 55126  1  0  0  0
 56 69  2  0  0  0
 57 58  2  0  0  0
 57127  1  0  0  0
 58128  1  0  0  0
 59 60  1  0  0  0
 59 61  1  0  0  0
 59 62  1  0  0  0
 60129  1  0  0  0
 60130  1  0  0  0
 60131  1  0  0  0
 61132  1  0  0  0
 61133  1  0  0  0
 61134  1  0  0  0
 62135  1  0  0  0
 62136  1  0  0  0
 62137  1  0  0  0
 63 65  1  0  0  0
 63138  1  0  0  0
 63139  1  0  0  0
 63140  1  0  0  0
 64141  1  0  0  0
 65142  1  0  0  0
 68 78  1  0  0  0
 71 74  2  0  0  0
 71 80  1  0  0  0
 71143  1  0  0  0
 72 73  1  0  0  0
 72 75  1  0  0  0
 72 81  2  0  0  0
 73 77  1  0  0  0
 73 80  2  0  0  0
 74 81  1  0  0  0
 74 82  1  0  0  0
 75144  1  0  0  0
 75145  1  0  0  0
 75146  1  0  0  0
 76147  1  0  0  0
 76148  1  0  0  0
 76149  1  0  0  0
 76 79  1  0  0  0
 77 83  1  0  0  0
 77150  1  0  0  0
 77151  1  0  0  0
 78 79  1  0  0  0
 78152  1  0  0  0
 78153  1  0  0  0
 79 82  1  0  0  0
 79154  1  0  0  0
 82155  1  0  0  0
 83156  1  0  0  0
M  ISO  4   1 100  68 101  78 101  83 100
M  END
> <chiral flag>
0

> <version>
0

> <s_m_source_file>
/data/baiqing/PycharmProjects/Reinvent-master-3.2/result/LINK_invent/BTK/process_docking_weight1_custom_product_contain_oxygen_bond_distance_aromatic_linkinvent_7_9_3/rearranged_h_0194.sdf

> <i_m_source_file_index>
15

> <r_mmod_Potential_Energy-OPLS-2005>
44.2913284301758

> <r_mmod_Stretch_Energy-OPLS-2005>
90.3905487060547

> <r_mmod_Bend_Energy-OPLS-2005>
176.553268432617

> <r_mmod_Torsional_Energy-OPLS-2005>
198.413421630859

> <r_mmod_Improper_Torsional_Energy-OPLS-2005>
6.44421052932739

> <r_mmod_Van_der_Waal_Energy-OPLS-2005>
154.499374389648

> <r_mmod_Electrostatic_Energy-OPLS-2005>
-400.560028076172

> <r_mmod_Solvation_Energy-OPLS-2005>
-237.23078918457

> <b_mmod_Minimization_Converged-OPLS-2005>
0

> <r_mmod_RMS_Derivative-OPLS-2005>
3.92004561424255

$$$$
15
                    3D
 Structure written by MMmdl.
172180  0  0  1  0            999 V2000
  -30.7388  -14.4614   20.5487 C   0  0  0  0  0  0
  -30.4042  -12.2943   19.4306 C   0  0  0  0  0  0
  -29.4872  -12.4908   18.2081 C   0  0  0  0  0  0
  -28.0092  -12.3567   18.6199 C   0  0  0  0  0  0
  -27.6538  -13.2134   19.8647 C   0  0  2  0  0  0
  -28.6965  -13.0379   20.9930 C   0  0  0  0  0  0
  -25.2556  -13.8186   20.5661 C   0  0  0  0  0  0
  -24.1822  -13.0446   20.9186 C   0  0  0  0  0  0
  -24.6391  -11.6921   20.8748 C   0  0  0  0  0  0
  -23.9067  -10.4298   21.0414 C   0  0  0  0  0  0
  -24.3616   -9.4211   21.9190 C   0  0  0  0  0  0
  -23.6291   -8.2245   22.0758 C   0  0  0  0  0  0
  -22.4275   -8.0286   21.3543 C   0  0  0  0  0  0
  -21.9919   -9.0260   20.4638 C   0  0  0  0  0  0
  -22.7249  -10.2141   20.3051 C   0  0  0  0  0  0
  -21.6849   -6.0740   22.5276 C   0  0  0  0  0  0
  -21.4014   -6.5643   23.8211 C   0  0  0  0  0  0
  -21.3665   -5.6796   24.9173 C   0  0  0  0  0  0
  -21.6043   -4.3058   24.7222 C   0  0  0  0  0  0
  -21.8822   -3.8152   23.4341 C   0  0  0  0  0  0
  -21.9192   -4.6968   22.3398 C   0  0  0  0  0  0
  -22.7848  -13.5239   21.1847 C   0  0  0  0  0  0
  -22.1659   -4.2149   21.0976 F   0  0  0  0  0  0
  -21.5635   -3.4547   25.7736 F   0  0  0  0  0  0
  -30.0272  -13.3085   20.4277 N   0  0  0  0  0  0
  -26.2984  -12.9361   20.3326 N   0  0  0  0  0  0
  -25.9312  -11.6522   20.5775 N   0  0  0  0  0  0
  -22.0484  -12.8208   22.0385 N   0  0  0  0  0  0
  -25.4276  -15.1902   20.4054 N   0  0  0  0  0  0
  -31.8869  -14.5677   20.1077 O   0  0  0  0  0  0
  -21.6642   -6.8881   21.4236 O   0  0  0  0  0  0
  -22.3536  -14.5547   20.6705 O   0  0  0  0  0  0
  -24.6129  -31.8698   23.2120 C   0  0  0  0  0  0
  -25.9026  -32.4859   23.8412 C   0  0  1  0  0  0
  -27.2401  -27.4510   20.0986 C   0  0  0  0  0  0
  -25.5900  -33.8648   24.2363 N   0  0  0  0  0  0
  -23.4021  -30.4889   21.5525 C   0  0  2  0  0  0
  -24.8547  -28.9615   20.1131 C   0  0  0  0  0  0
  -22.7417  -29.4626   22.5018 C   0  0  0  0  0  0
  -18.0269  -28.1362   22.8478 C   0  0  0  0  0  0
  -24.1471  -36.7298   23.2628 C   0  0  0  0  0  0
  -25.9271  -30.8431   21.3628 C   0  0  0  0  0  0
  -26.0120  -29.4763   20.7147 C   0  0  0  0  0  0
  -27.2097  -28.7239   20.7147 C   0  0  0  0  0  0
  -26.0758  -26.9570   19.4813 C   0  0  0  0  0  0
  -24.8799  -27.6984   19.4951 C   0  0  0  0  0  0
  -23.6129  -29.8216   20.1663 C   0  0  0  0  0  0
  -25.4105  -36.3141   24.0335 C   0  0  1  0  0  0
  -20.5854  -28.3643   23.1336 C   0  0  2  0  0  0
  -20.6767  -26.9395   22.5420 C   0  0  0  0  0  0
  -19.5759  -26.6385   21.5205 C   0  0  0  0  0  0
  -18.1925  -26.7909   22.1602 C   0  0  0  0  0  0
  -19.1509  -28.8824   23.2899 C   0  0  0  0  0  0
  -18.9437  -30.1421   23.8925 C   0  0  0  0  0  0
  -17.6446  -30.6582   24.0549 C   0  0  0  0  0  0
  -25.9042  -34.9501   23.5158 C   0  0  0  0  0  0
  -16.5339  -29.9083   23.6301 C   0  0  0  0  0  0
  -16.7258  -28.6478   23.0359 C   0  0  0  0  0  0
  -26.4470  -31.6617   25.0716 C   0  0  0  0  0  0
  -25.3707  -31.3701   26.1436 C   0  0  0  0  0  0
  -27.0305  -30.3077   24.6036 C   0  0  0  0  0  0
  -27.6076  -32.4299   25.7488 C   0  0  0  0  0  0
  -27.5581  -37.1801   24.8458 C   0  0  0  0  0  0
  -21.4143  -29.2998   22.3746 N   0  0  0  0  0  0
  -26.4298  -37.3821   23.9404 N   0  0  0  0  0  0
  -24.6649  -31.0802   22.1025 N   0  0  0  0  0  0
  -23.4183  -28.8162   23.3059 O   0  0  0  0  0  0
  -28.3585  -26.6494   20.1163 O   0  0  0  0  0  0
  -26.5587  -34.8937   22.4707 O   0  0  0  0  0  0
  -23.5319  -32.1439   23.7524 O   0  0  0  0  0  0
  -30.9027  -18.9519   20.4261 C   0  0  0  0  0  0
  -30.6287  -16.8438   21.0630 C   0  0  0  0  0  0
  -30.7336  -19.9499   18.1061 C   0  0  0  0  0  0
  -25.7503  -23.3548   20.1154 C   0  0  0  0  0  0
  -25.5602  -21.5121   21.8252 C   0  0  0  0  0  0
  -30.5720  -21.9040   22.2330 C   0  0  0  0  0  0
  -29.4667  -24.7786   21.3848 C   0  0  0  0  0  0
  -27.6648  -22.9274   21.7411 C   0  0  0  0  0  0
  -28.5512  -26.0321   21.3929 C   0  0  0  0  0  0
  -30.7712  -20.2426   19.6144 C   0  0  1  0  0  0
  -26.5185  -22.2966   20.9199 C   0  0  0  0  0  0
  -28.8877  -23.4043   20.9026 C   0  0  2  0  0  0
  -30.0198  -22.3147   20.8432 C   0  0  2  0  0  0
  -30.0831  -17.8875   20.3988 N   0  0  0  0  0  0
  -31.7540  -17.0559   21.7677 N   0  0  0  0  0  0
  -30.0683  -15.5429   20.9889 N   0  0  0  0  0  0
  -29.6434  -21.1070   20.0451 N   0  3  0  0  0  0
  -32.2790  -18.6247   21.4536 S   0  0  0  0  0  0
  -31.4512  -12.3579   19.1320 H   0  0  0  0  0  0
  -30.2769  -11.2952   19.8498 H   0  0  0  0  0  0
  -29.7274  -11.7614   17.4335 H   0  0  0  0  0  0
  -29.6592  -13.4744   17.7668 H   0  0  0  0  0  0
  -27.8200  -11.3028   18.8284 H   0  0  0  0  0  0
  -27.3604  -12.6198   17.7841 H   0  0  0  0  0  0
  -27.6858  -14.2543   19.5416 H   0  0  0  0  0  0
  -28.6659  -12.0211   21.3874 H   0  0  0  0  0  0
  -28.4663  -13.6901   21.8362 H   0  0  0  0  0  0
  -25.2757   -9.5693   22.4773 H   0  0  0  0  0  0
  -24.0002   -7.4640   22.7480 H   0  0  0  0  0  0
  -21.0858   -8.8773   19.8934 H   0  0  0  0  0  0
  -22.3709  -10.9677   19.6159 H   0  0  0  0  0  0
  -21.2002   -7.6153   23.9707 H   0  0  0  0  0  0
  -21.1488   -6.0533   25.9075 H   0  0  0  0  0  0
  -22.0596   -2.7613   23.2842 H   0  0  0  0  0  0
  -22.4112  -11.9856   22.4734 H   0  0  0  0  0  0
  -21.1093  -13.1219   22.2584 H   0  0  0  0  0  0
  -24.6590  -15.8445   20.5053 H   0  0  0  0  0  0
  -26.2751  -15.6262   20.0646 H   0  0  0  0  0  0
  -26.7108  -32.5602   23.1204 H   0  0  0  0  0  0
  -25.0076  -33.9811   25.0523 H   0  0  0  0  0  0
  -22.6878  -31.3028   21.4126 H   0  0  0  0  0  0
  -23.3781  -35.9588   23.3294 H   0  0  0  0  0  0
  -24.3549  -36.8897   22.2040 H   0  0  0  0  0  0
  -23.7166  -37.6474   23.6635 H   0  0  0  0  0  0
  -26.0251  -31.6095   20.5927 H   0  0  0  0  0  0
  -26.8180  -30.9078   21.9739 H   0  0  0  0  0  0
  -28.0982  -29.1093   21.1951 H   0  0  0  0  0  0
  -26.0955  -25.9886   19.0044 H   0  0  0  0  0  0
  -23.9919  -27.2939   19.0305 H   0  0  0  0  0  0
  -23.7167  -30.5968   19.4056 H   0  0  0  0  0  0
  -22.7404  -29.2346   19.8732 H   0  0  0  0  0  0
  -25.1286  -36.2023   25.0831 H   0  0  0  0  0  0
  -20.9913  -28.3207   24.1470 H   0  0  0  0  0  0
  -20.5702  -26.2248   23.3589 H   0  0  0  0  0  0
  -21.6635  -26.7470   22.1198 H   0  0  0  0  0  0
  -19.6943  -25.6308   21.1209 H   0  0  0  0  0  0
  -19.6714  -27.3218   20.6755 H   0  0  0  0  0  0
  -17.4206  -26.6657   21.3995 H   0  0  0  0  0  0
  -18.0318  -26.0058   22.9001 H   0  0  0  0  0  0
  -19.7930  -30.7192   24.2354 H   0  0  0  0  0  0
  -17.5020  -31.6274   24.5140 H   0  0  0  0  0  0
  -15.5346  -30.3010   23.7613 H   0  0  0  0  0  0
  -15.8642  -28.0800   22.7112 H   0  0  0  0  0  0
  -24.5909  -30.7047   25.7720 H   0  0  0  0  0  0
  -24.8866  -32.2853   26.4850 H   0  0  0  0  0  0
  -25.8012  -30.8867   27.0211 H   0  0  0  0  0  0
  -26.2848  -29.6853   24.1086 H   0  0  0  0  0  0
  -27.4117  -29.7295   25.4457 H   0  0  0  0  0  0
  -27.8653  -30.4439   23.9159 H   0  0  0  0  0  0
  -27.2748  -33.3616   26.2065 H   0  0  0  0  0  0
  -28.3893  -32.6799   25.0310 H   0  0  0  0  0  0
  -28.0721  -31.8392   26.5390 H   0  0  0  0  0  0
  -28.2602  -38.0103   24.7573 H   0  0  0  0  0  0
  -28.1083  -36.2642   24.6248 H   0  0  0  0  0  0
  -27.2278  -37.1387   25.8851 H   0  0  0  0  0  0
  -20.9334  -29.8691   21.6929 H   0  0  0  0  0  0
  -26.0205  -38.2895   24.1461 H   0  0  0  0  0  0
  -31.6024  -19.3639   17.8046 H   0  0  0  0  0  0
  -30.7502  -20.8689   17.5197 H   0  0  0  0  0  0
  -29.8449  -19.3834   17.8251 H   0  0  0  0  0  0
  -24.8652  -22.9310   19.6406 H   0  0  0  0  0  0
  -26.3665  -23.7709   19.3205 H   0  0  0  0  0  0
  -25.4181  -24.1792   20.7478 H   0  0  0  0  0  0
  -24.7461  -21.0700   21.2504 H   0  0  0  0  0  0
  -25.1184  -22.1502   22.5907 H   0  0  0  0  0  0
  -26.0784  -20.6952   22.3290 H   0  0  0  0  0  0
  -30.6372  -22.7403   22.9270 H   0  0  0  0  0  0
  -31.5800  -21.4984   22.1544 H   0  0  0  0  0  0
  -29.9551  -21.1418   22.7107 H   0  0  0  0  0  0
  -29.8152  -24.6642   22.4097 H   0  0  0  0  0  0
  -30.3586  -25.0196   20.8054 H   0  0  0  0  0  0
  -27.9851  -22.2199   22.5038 H   0  0  0  0  0  0
  -27.2476  -23.7449   22.3251 H   0  0  0  0  0  0
  -29.0150  -26.7806   22.0374 H   0  0  0  0  0  0
  -27.5950  -25.8041   21.8644 H   0  0  0  0  0  0
  -31.7031  -20.7865   19.7776 H   0  0  0  0  0  0
  -26.9281  -21.5786   20.2109 H   0  0  0  0  0  0
  -28.5601  -23.5861   19.8800 H   0  0  0  0  0  0
  -30.8406  -22.7904   20.3016 H   0  0  0  0  0  0
  -29.0809  -15.4511   21.1570 H   0  0  0  0  0  0
  -28.9752  -20.5323   20.5349 H   0  0  0  0  0  0
  -29.2031  -21.4258   19.1980 H   0  0  0  0  0  0
  1 25  1  0  0  0
  1 30  2  0  0  0
  1 86  1  0  0  0
  2  3  1  0  0  0
  2 25  1  0  0  0
  2 89  1  0  0  0
  2 90  1  0  0  0
  3  4  1  0  0  0
  3 91  1  0  0  0
  3 92  1  0  0  0
  4  5  1  0  0  0
  4 93  1  0  0  0
  4 94  1  0  0  0
  5  6  1  0  0  0
  5 26  1  0  0  0
  5 95  1  0  0  0
  6 25  1  0  0  0
  6 96  1  0  0  0
  6 97  1  0  0  0
  7  8  2  0  0  0
  7 26  1  0  0  0
  7 29  1  0  0  0
  8  9  1  0  0  0
  8 22  1  0  0  0
  9 10  1  0  0  0
  9 27  2  0  0  0
 10 11  2  0  0  0
 10 15  1  0  0  0
 11 12  1  0  0  0
 11 98  1  0  0  0
 12 13  2  0  0  0
 12 99  1  0  0  0
 13 14  1  0  0  0
 13 31  1  0  0  0
 14 15  2  0  0  0
 14100  1  0  0  0
 15101  1  0  0  0
 16 17  2  0  0  0
 16 21  1  0  0  0
 16 31  1  0  0  0
 17 18  1  0  0  0
 17102  1  0  0  0
 18 19  2  0  0  0
 18103  1  0  0  0
 19 20  1  0  0  0
 19 24  1  0  0  0
 20 21  2  0  0  0
 20104  1  0  0  0
 21 23  1  0  0  0
 22 28  1  0  0  0
 22 32  2  0  0  0
 26 27  1  0  0  0
 28105  1  0  0  0
 28106  1  0  0  0
 29107  1  0  0  0
 29108  1  0  0  0
 33 34  1  0  0  0
 33 66  1  0  0  0
 33 70  2  0  0  0
 34 36  1  0  0  0
 34 59  1  0  0  0
 34109  1  0  0  0
 35 44  2  0  0  0
 35 45  1  0  0  0
 35 68  1  0  0  0
 36 56  1  0  0  0
 36110  1  0  0  0
 37 39  1  0  0  0
 37 47  1  0  0  0
 37 66  1  0  0  0
 37111  1  0  0  0
 38 43  2  0  0  0
 38 46  1  0  0  0
 38 47  1  0  0  0
 39 64  1  0  0  0
 39 67  2  0  0  0
 40 52  1  0  0  0
 40 53  2  0  0  0
 40 58  1  0  0  0
 41112  1  0  0  0
 41113  1  0  0  0
 41114  1  0  0  0
 41 48  1  0  0  0
 42 43  1  0  0  0
 42 66  1  0  0  0
 42115  1  0  0  0
 42116  1  0  0  0
 43 44  1  0  0  0
 44117  1  0  0  0
 45 46  2  0  0  0
 45118  1  0  0  0
 46119  1  0  0  0
 47120  1  0  0  0
 47121  1  0  0  0
 48 56  1  0  0  0
 48 65  1  0  0  0
 48122  1  0  0  0
 49 50  1  0  0  0
 49 53  1  0  0  0
 49 64  1  0  0  0
 49123  1  0  0  0
 50 51  1  0  0  0
 50124  1  0  0  0
 50125  1  0  0  0
 51 52  1  0  0  0
 51126  1  0  0  0
 51127  1  0  0  0
 52128  1  0  0  0
 52129  1  0  0  0
 53 54  1  0  0  0
 54 55  2  0  0  0
 54130  1  0  0  0
 55 57  1  0  0  0
 55131  1  0  0  0
 56 69  2  0  0  0
 57 58  2  0  0  0
 57132  1  0  0  0
 58133  1  0  0  0
 59 60  1  0  0  0
 59 61  1  0  0  0
 59 62  1  0  0  0
 60134  1  0  0  0
 60135  1  0  0  0
 60136  1  0  0  0
 61137  1  0  0  0
 61138  1  0  0  0
 61139  1  0  0  0
 62140  1  0  0  0
 62141  1  0  0  0
 62142  1  0  0  0
 63 65  1  0  0  0
 63143  1  0  0  0
 63144  1  0  0  0
 63145  1  0  0  0
 64146  1  0  0  0
 65147  1  0  0  0
 68 79  1  0  0  0
 71 80  1  0  0  0
 71 84  2  0  0  0
 71 88  1  0  0  0
 72 84  1  0  0  0
 72 85  2  0  0  0
 72 86  1  0  0  0
 73148  1  0  0  0
 73149  1  0  0  0
 73150  1  0  0  0
 73 80  1  0  0  0
 74151  1  0  0  0
 74152  1  0  0  0
 74153  1  0  0  0
 74 81  1  0  0  0
 75 81  1  0  0  0
 75154  1  0  0  0
 75155  1  0  0  0
 75156  1  0  0  0
 76157  1  0  0  0
 76158  1  0  0  0
 76159  1  0  0  0
 76 83  1  0  0  0
 77 79  1  0  0  0
 77160  1  0  0  0
 77161  1  0  0  0
 77 82  1  0  0  0
 78 81  1  0  0  0
 78 82  1  0  0  0
 78162  1  0  0  0
 78163  1  0  0  0
 79164  1  0  0  0
 79165  1  0  0  0
 80 87  1  0  0  0
 80166  1  0  0  0
 81167  1  0  0  0
 82 83  1  0  0  0
 82168  1  0  0  0
 83 87  1  0  0  0
 83169  1  0  0  0
 85 88  1  0  0  0
 86170  1  0  0  0
 87171  1  0  0  0
 87172  1  0  0  0
M  CHG  1  87   1
M  ISO  4   1 100  68 101  79 101  86 100
M  END
> <chiral flag>
0

> <version>
0

> <s_m_source_file>
/data/baiqing/PycharmProjects/Reinvent-master-3.2/result/LINK_invent/BTK/process_docking_weight1_custom_product_contain_oxygen_bond_distance_aromatic_linkinvent_7_9_3/rearranged_h_0194.sdf

> <i_m_source_file_index>
16

> <r_mmod_Potential_Energy-OPLS-2005>
-265.137756347656

> <r_mmod_Stretch_Energy-OPLS-2005>
40.2225189208984

> <r_mmod_Bend_Energy-OPLS-2005>
117.980430603027

> <r_mmod_Torsional_Energy-OPLS-2005>
283.2392578125

> <r_mmod_Improper_Torsional_Energy-OPLS-2005>
4.72711658477783

> <r_mmod_Van_der_Waal_Energy-OPLS-2005>
123.160766601562

> <r_mmod_Electrostatic_Energy-OPLS-2005>
-392.548767089844

> <r_mmod_Solvation_Energy-OPLS-2005>
-457.583435058594

> <b_mmod_Minimization_Converged-OPLS-2005>
0

> <r_mmod_RMS_Derivative-OPLS-2005>
2.34198713302612

$$$$
16
                    3D
 Structure written by MMmdl.
163171  0  0  1  0            999 V2000
  -30.7139  -14.5302   20.6123 C   0  0  0  0  0  0
  -30.4157  -12.3662   19.4269 C   0  0  0  0  0  0
  -29.4874  -12.5242   18.2080 C   0  0  0  0  0  0
  -28.0149  -12.3596   18.6267 C   0  0  0  0  0  0
  -27.6504  -13.2197   19.8656 C   0  0  2  0  0  0
  -28.6919  -13.0445   20.9917 C   0  0  0  0  0  0
  -25.2483  -13.8169   20.5625 C   0  0  0  0  0  0
  -24.1794  -13.0421   20.9204 C   0  0  0  0  0  0
  -24.6379  -11.6907   20.8748 C   0  0  0  0  0  0
  -23.9059  -10.4282   21.0413 C   0  0  0  0  0  0
  -24.3622   -9.4201   21.9185 C   0  0  0  0  0  0
  -23.6298   -8.2234   22.0756 C   0  0  0  0  0  0
  -22.4280   -8.0274   21.3550 C   0  0  0  0  0  0
  -21.9914   -9.0240   20.4647 C   0  0  0  0  0  0
  -22.7233  -10.2121   20.3058 C   0  0  0  0  0  0
  -21.6842   -6.0739   22.5283 C   0  0  0  0  0  0
  -21.4011   -6.5639   23.8217 C   0  0  0  0  0  0
  -21.3664   -5.6791   24.9181 C   0  0  0  0  0  0
  -21.6050   -4.3055   24.7224 C   0  0  0  0  0  0
  -21.8823   -3.8151   23.4345 C   0  0  0  0  0  0
  -21.9189   -4.6968   22.3404 C   0  0  0  0  0  0
  -22.7806  -13.5195   21.1870 C   0  0  0  0  0  0
  -22.1652   -4.2160   21.0980 F   0  0  0  0  0  0
  -21.5634   -3.4535   25.7735 F   0  0  0  0  0  0
  -30.0194  -13.3626   20.4401 N   0  0  0  0  0  0
  -26.2954  -12.9380   20.3317 N   0  0  0  0  0  0
  -25.9313  -11.6526   20.5762 N   0  0  0  0  0  0
  -22.0444  -12.8198   22.0442 N   0  0  0  0  0  0
  -25.4086  -15.1883   20.3943 N   0  0  0  0  0  0
  -31.7912  -14.7320   20.0404 O   0  0  0  0  0  0
  -21.6643   -6.8876   21.4242 O   0  0  0  0  0  0
  -22.3485  -14.5483   20.6699 O   0  0  0  0  0  0
  -24.6199  -31.8646   23.2054 C   0  0  0  0  0  0
  -25.9070  -32.4801   23.8371 C   0  0  1  0  0  0
  -27.2290  -27.3799   20.1266 C   0  0  0  0  0  0
  -25.5909  -33.8602   24.2299 N   0  0  0  0  0  0
  -23.4105  -30.4854   21.5464 C   0  0  2  0  0  0
  -24.8585  -28.9410   20.1160 C   0  0  0  0  0  0
  -22.7441  -29.4634   22.4968 C   0  0  0  0  0  0
  -18.0286  -28.1386   22.8496 C   0  0  0  0  0  0
  -24.1486  -36.7300   23.2634 C   0  0  0  0  0  0
  -25.9428  -30.8157   21.3650 C   0  0  0  0  0  0
  -26.0211  -29.4444   20.7154 C   0  0  0  0  0  0
  -27.2129  -28.6752   20.7079 C   0  0  0  0  0  0
  -26.0500  -26.8991   19.5216 C   0  0  0  0  0  0
  -24.8720  -27.6724   19.5095 C   0  0  0  0  0  0
  -23.6230  -29.8148   20.1620 C   0  0  0  0  0  0
  -25.4113  -36.3097   24.0324 C   0  0  1  0  0  0
  -20.5884  -28.3666   23.1316 C   0  0  2  0  0  0
  -20.6771  -26.9395   22.5433 C   0  0  0  0  0  0
  -19.5752  -26.6390   21.5231 C   0  0  0  0  0  0
  -18.1929  -26.7940   22.1627 C   0  0  0  0  0  0
  -19.1536  -28.8845   23.2905 C   0  0  0  0  0  0
  -18.9461  -30.1453   23.8910 C   0  0  0  0  0  0
  -17.6457  -30.6586   24.0570 C   0  0  0  0  0  0
  -25.9046  -34.9463   23.5113 C   0  0  0  0  0  0
  -16.5348  -29.9086   23.6332 C   0  0  0  0  0  0
  -16.7273  -28.6509   23.0350 C   0  0  0  0  0  0
  -26.4493  -31.6583   25.0710 C   0  0  0  0  0  0
  -25.3748  -31.3697   26.1450 C   0  0  0  0  0  0
  -27.0316  -30.3016   24.6108 C   0  0  0  0  0  0
  -27.6079  -32.4299   25.7467 C   0  0  0  0  0  0
  -27.5581  -37.1795   24.8467 C   0  0  0  0  0  0
  -21.4163  -29.3025   22.3713 N   0  0  0  0  0  0
  -26.4297  -37.3784   23.9408 N   0  0  0  0  0  0
  -24.6760  -31.0701   22.0977 N   0  0  0  0  0  0
  -23.4195  -28.8182   23.3032 O   0  0  0  0  0  0
  -28.3748  -26.5999   20.1176 O   0  0  0  0  0  0
  -26.5611  -34.8926   22.4677 O   0  0  0  0  0  0
  -23.5380  -32.1412   23.7422 O   0  0  0  0  0  0
  -28.1665  -16.7718   21.4156 C   0  0  0  0  0  0
  -29.5016  -16.6442   21.1228 C   0  0  0  0  0  0
  -29.1780  -18.8784   20.5820 C   0  0  0  0  0  0
  -30.8524  -16.6270   23.6673 C   0  0  0  0  0  0
  -27.8702  -22.3907   21.8665 C   0  0  0  0  0  0
  -27.3907  -21.0599   19.0899 C   0  0  0  0  0  0
  -28.3791  -24.0220   19.9201 C   0  0  0  0  0  0
  -30.7001  -15.3063   22.8880 C   0  0  0  0  0  0
  -28.3203  -25.3175   20.8068 C   0  0  0  0  0  0
  -28.7541  -22.6575   20.6339 C   0  0  2  0  0  0
  -28.7742  -21.4038   19.6723 C   0  0  1  0  0  0
  -30.0698  -17.8640   20.6623 N   0  0  0  0  0  0
  -29.4835  -20.1990   20.1826 N   0  0  0  0  0  0
  -30.2150  -15.4411   21.4991 N   0  0  0  0  0  0
  -27.5595  -18.3735   21.0646 S   0  0  0  0  0  0
  -31.4576  -12.4725   19.1215 H   0  0  0  0  0  0
  -30.3314  -11.3604   19.8396 H   0  0  0  0  0  0
  -29.7416  -11.7907   17.4428 H   0  0  0  0  0  0
  -29.6359  -13.5047   17.7539 H   0  0  0  0  0  0
  -27.8506  -11.3039   18.8481 H   0  0  0  0  0  0
  -27.3542  -12.5988   17.7922 H   0  0  0  0  0  0
  -27.6789  -14.2624   19.5484 H   0  0  0  0  0  0
  -28.6854  -12.0191   21.3627 H   0  0  0  0  0  0
  -28.4266  -13.6674   21.8461 H   0  0  0  0  0  0
  -25.2763   -9.5683   22.4760 H   0  0  0  0  0  0
  -24.0008   -7.4626   22.7472 H   0  0  0  0  0  0
  -21.0847   -8.8754   19.8949 H   0  0  0  0  0  0
  -22.3682  -10.9666   19.6178 H   0  0  0  0  0  0
  -21.2001   -7.6147   23.9722 H   0  0  0  0  0  0
  -21.1481   -6.0522   25.9082 H   0  0  0  0  0  0
  -22.0602   -2.7612   23.2836 H   0  0  0  0  0  0
  -22.4037  -11.9869   22.4867 H   0  0  0  0  0  0
  -21.1059  -13.1240   22.2625 H   0  0  0  0  0  0
  -24.6255  -15.8258   20.4835 H   0  0  0  0  0  0
  -26.2368  -15.6312   20.0189 H   0  0  0  0  0  0
  -26.7133  -32.5489   23.1125 H   0  0  0  0  0  0
  -25.0061  -33.9770   25.0446 H   0  0  0  0  0  0
  -22.7029  -31.3043   21.4036 H   0  0  0  0  0  0
  -23.3753  -35.9626   23.3309 H   0  0  0  0  0  0
  -24.3586  -36.8922   22.2051 H   0  0  0  0  0  0
  -23.7247  -37.6502   23.6658 H   0  0  0  0  0  0
  -26.0624  -31.5785   20.5940 H   0  0  0  0  0  0
  -26.8281  -30.8717   21.9857 H   0  0  0  0  0  0
  -28.1108  -29.0615   21.1704 H   0  0  0  0  0  0
  -26.0433  -25.9230   19.0583 H   0  0  0  0  0  0
  -23.9797  -27.2832   19.0387 H   0  0  0  0  0  0
  -23.7342  -30.5902   19.4038 H   0  0  0  0  0  0
  -22.7458  -29.2387   19.8614 H   0  0  0  0  0  0
  -25.1294  -36.1953   25.0816 H   0  0  0  0  0  0
  -20.9978  -28.3232   24.1437 H   0  0  0  0  0  0
  -20.5697  -26.2257   23.3620 H   0  0  0  0  0  0
  -21.6633  -26.7442   22.1206 H   0  0  0  0  0  0
  -19.6900  -25.6314   21.1236 H   0  0  0  0  0  0
  -19.6704  -27.3221   20.6783 H   0  0  0  0  0  0
  -17.4211  -26.6713   21.4014 H   0  0  0  0  0  0
  -18.0307  -26.0082   22.9020 H   0  0  0  0  0  0
  -19.7939  -30.7273   24.2272 H   0  0  0  0  0  0
  -17.5015  -31.6272   24.5168 H   0  0  0  0  0  0
  -15.5352  -30.2988   23.7663 H   0  0  0  0  0  0
  -15.8673  -28.0838   22.7044 H   0  0  0  0  0  0
  -24.5939  -30.7026   25.7784 H   0  0  0  0  0  0
  -24.8910  -32.2847   26.4871 H   0  0  0  0  0  0
  -25.8096  -30.8885   27.0219 H   0  0  0  0  0  0
  -26.2850  -29.6776   24.1177 H   0  0  0  0  0  0
  -27.4095  -29.7267   25.4573 H   0  0  0  0  0  0
  -27.8691  -30.4330   23.9253 H   0  0  0  0  0  0
  -27.2715  -33.3602   26.2057 H   0  0  0  0  0  0
  -28.3875  -32.6854   25.0275 H   0  0  0  0  0  0
  -28.0759  -31.8406   26.5366 H   0  0  0  0  0  0
  -28.2596  -38.0089   24.7502 H   0  0  0  0  0  0
  -28.1071  -36.2620   24.6298 H   0  0  0  0  0  0
  -27.2291  -37.1451   25.8866 H   0  0  0  0  0  0
  -20.9327  -29.8733   21.6918 H   0  0  0  0  0  0
  -26.0180  -38.2855   24.1422 H   0  0  0  0  0  0
  -27.5036  -16.0382   21.8495 H   0  0  0  0  0  0
  -31.2743  -16.4379   24.6551 H   0  0  0  0  0  0
  -29.8949  -17.1261   23.8179 H   0  0  0  0  0  0
  -31.5208  -17.3212   23.1568 H   0  0  0  0  0  0
  -28.0177  -23.1515   22.6323 H   0  0  0  0  0  0
  -28.1046  -21.4269   22.3204 H   0  0  0  0  0  0
  -26.8122  -22.3870   21.6076 H   0  0  0  0  0  0
  -26.9865  -21.8863   18.5059 H   0  0  0  0  0  0
  -26.6626  -20.8360   19.8682 H   0  0  0  0  0  0
  -27.4414  -20.1965   18.4254 H   0  0  0  0  0  0
  -29.1092  -24.1924   19.1286 H   0  0  0  0  0  0
  -27.4201  -23.9190   19.4150 H   0  0  0  0  0  0
  -30.0124  -14.6516   23.4252 H   0  0  0  0  0  0
  -31.6688  -14.8009   22.9064 H   0  0  0  0  0  0
  -29.1815  -25.3035   21.4752 H   0  0  0  0  0  0
  -27.4486  -25.2728   21.4634 H   0  0  0  0  0  0
  -29.7744  -22.7856   21.0004 H   0  0  0  0  0  0
  -29.3811  -21.7069   18.8171 H   0  0  0  0  0  0
  -30.4870  -20.3038   20.0716 H   0  0  0  0  0  0
  1 25  1  0  0  0
  1 30  2  0  0  0
  1 84  1  0  0  0
  2  3  1  0  0  0
  2 25  1  0  0  0
  2 86  1  0  0  0
  2 87  1  0  0  0
  3  4  1  0  0  0
  3 88  1  0  0  0
  3 89  1  0  0  0
  4  5  1  0  0  0
  4 90  1  0  0  0
  4 91  1  0  0  0
  5  6  1  0  0  0
  5 26  1  0  0  0
  5 92  1  0  0  0
  6 25  1  0  0  0
  6 93  1  0  0  0
  6 94  1  0  0  0
  7  8  2  0  0  0
  7 26  1  0  0  0
  7 29  1  0  0  0
  8  9  1  0  0  0
  8 22  1  0  0  0
  9 10  1  0  0  0
  9 27  2  0  0  0
 10 11  2  0  0  0
 10 15  1  0  0  0
 11 12  1  0  0  0
 11 95  1  0  0  0
 12 13  2  0  0  0
 12 96  1  0  0  0
 13 14  1  0  0  0
 13 31  1  0  0  0
 14 15  2  0  0  0
 14 97  1  0  0  0
 15 98  1  0  0  0
 16 17  2  0  0  0
 16 21  1  0  0  0
 16 31  1  0  0  0
 17 18  1  0  0  0
 17 99  1  0  0  0
 18 19  2  0  0  0
 18100  1  0  0  0
 19 20  1  0  0  0
 19 24  1  0  0  0
 20 21  2  0  0  0
 20101  1  0  0  0
 21 23  1  0  0  0
 22 28  1  0  0  0
 22 32  2  0  0  0
 26 27  1  0  0  0
 28102  1  0  0  0
 28103  1  0  0  0
 29104  1  0  0  0
 29105  1  0  0  0
 33 34  1  0  0  0
 33 66  1  0  0  0
 33 70  2  0  0  0
 34 36  1  0  0  0
 34 59  1  0  0  0
 34106  1  0  0  0
 35 44  2  0  0  0
 35 45  1  0  0  0
 35 68  1  0  0  0
 36 56  1  0  0  0
 36107  1  0  0  0
 37 39  1  0  0  0
 37 47  1  0  0  0
 37 66  1  0  0  0
 37108  1  0  0  0
 38 43  2  0  0  0
 38 46  1  0  0  0
 38 47  1  0  0  0
 39 64  1  0  0  0
 39 67  2  0  0  0
 40 52  1  0  0  0
 40 53  2  0  0  0
 40 58  1  0  0  0
 41109  1  0  0  0
 41110  1  0  0  0
 41111  1  0  0  0
 41 48  1  0  0  0
 42 43  1  0  0  0
 42 66  1  0  0  0
 42112  1  0  0  0
 42113  1  0  0  0
 43 44  1  0  0  0
 44114  1  0  0  0
 45 46  2  0  0  0
 45115  1  0  0  0
 46116  1  0  0  0
 47117  1  0  0  0
 47118  1  0  0  0
 48 56  1  0  0  0
 48 65  1  0  0  0
 48119  1  0  0  0
 49 50  1  0  0  0
 49 53  1  0  0  0
 49 64  1  0  0  0
 49120  1  0  0  0
 50 51  1  0  0  0
 50121  1  0  0  0
 50122  1  0  0  0
 51 52  1  0  0  0
 51123  1  0  0  0
 51124  1  0  0  0
 52125  1  0  0  0
 52126  1  0  0  0
 53 54  1  0  0  0
 54 55  2  0  0  0
 54127  1  0  0  0
 55 57  1  0  0  0
 55128  1  0  0  0
 56 69  2  0  0  0
 57 58  2  0  0  0
 57129  1  0  0  0
 58130  1  0  0  0
 59 60  1  0  0  0
 59 61  1  0  0  0
 59 62  1  0  0  0
 60131  1  0  0  0
 60132  1  0  0  0
 60133  1  0  0  0
 61134  1  0  0  0
 61135  1  0  0  0
 61136  1  0  0  0
 62137  1  0  0  0
 62138  1  0  0  0
 62139  1  0  0  0
 63 65  1  0  0  0
 63140  1  0  0  0
 63141  1  0  0  0
 63142  1  0  0  0
 64143  1  0  0  0
 65144  1  0  0  0
 68 79  1  0  0  0
 71 72  2  0  0  0
 71 85  1  0  0  0
 71145  1  0  0  0
 72 82  1  0  0  0
 72 84  1  0  0  0
 73 82  2  0  0  0
 73 83  1  0  0  0
 73 85  1  0  0  0
 74 78  1  0  0  0
 74146  1  0  0  0
 74147  1  0  0  0
 74148  1  0  0  0
 75149  1  0  0  0
 75150  1  0  0  0
 75151  1  0  0  0
 75 80  1  0  0  0
 76152  1  0  0  0
 76153  1  0  0  0
 76154  1  0  0  0
 76 81  1  0  0  0
 77 79  1  0  0  0
 77 80  1  0  0  0
 77155  1  0  0  0
 77156  1  0  0  0
 78 84  1  0  0  0
 78157  1  0  0  0
 78158  1  0  0  0
 79159  1  0  0  0
 79160  1  0  0  0
 80 81  1  0  0  0
 80161  1  0  0  0
 81 83  1  0  0  0
 81162  1  0  0  0
 83163  1  0  0  0
M  ISO  4   1 100  68 101  79 101  84 100
M  END
> <chiral flag>
0

> <version>
0

> <s_m_source_file>
/data/baiqing/PycharmProjects/Reinvent-master-3.2/result/LINK_invent/BTK/process_docking_weight1_custom_product_contain_oxygen_bond_distance_aromatic_linkinvent_7_9_3/rearranged_h_0194.sdf

> <i_m_source_file_index>
17

> <r_mmod_Potential_Energy-OPLS-2005>
102.255516052246

> <r_mmod_Stretch_Energy-OPLS-2005>
56.3645210266113

> <r_mmod_Bend_Energy-OPLS-2005>
121.351234436035

> <r_mmod_Torsional_Energy-OPLS-2005>
331.579376220703

> <r_mmod_Improper_Torsional_Energy-OPLS-2005>
4.50255966186523

> <r_mmod_Van_der_Waal_Energy-OPLS-2005>
110.672653198242

> <r_mmod_Electrostatic_Energy-OPLS-2005>
-346.640502929688

> <r_mmod_Solvation_Energy-OPLS-2005>
-197.496246337891

> <b_mmod_Minimization_Converged-OPLS-2005>
0

> <r_mmod_RMS_Derivative-OPLS-2005>
1.95056259632111

$$$$
17
                    3D
 Structure written by MMmdl.
168176  0  0  1  0            999 V2000
  -30.7042  -14.5345   20.5449 C   0  0  0  0  0  0
  -30.4186  -12.3351   19.4507 C   0  0  0  0  0  0
  -29.4991  -12.5010   18.2229 C   0  0  0  0  0  0
  -28.0219  -12.3553   18.6328 C   0  0  0  0  0  0
  -27.6573  -13.2164   19.8716 C   0  0  2  0  0  0
  -28.6985  -13.0495   21.0017 C   0  0  0  0  0  0
  -25.2558  -13.8182   20.5675 C   0  0  0  0  0  0
  -24.1824  -13.0446   20.9181 C   0  0  0  0  0  0
  -24.6388  -11.6920   20.8736 C   0  0  0  0  0  0
  -23.9059  -10.4297   21.0403 C   0  0  0  0  0  0
  -24.3610   -9.4211   21.9181 C   0  0  0  0  0  0
  -23.6289   -8.2242   22.0754 C   0  0  0  0  0  0
  -22.4273   -8.0282   21.3541 C   0  0  0  0  0  0
  -21.9906   -9.0251   20.4641 C   0  0  0  0  0  0
  -22.7229  -10.2134   20.3052 C   0  0  0  0  0  0
  -21.6849   -6.0735   22.5274 C   0  0  0  0  0  0
  -21.4008   -6.5640   23.8211 C   0  0  0  0  0  0
  -21.3660   -5.6792   24.9173 C   0  0  0  0  0  0
  -21.6048   -4.3056   24.7222 C   0  0  0  0  0  0
  -21.8820   -3.8148   23.4343 C   0  0  0  0  0  0
  -21.9190   -4.6964   22.3393 C   0  0  0  0  0  0
  -22.7846  -13.5231   21.1843 C   0  0  0  0  0  0
  -22.1662   -4.2150   21.0973 F   0  0  0  0  0  0
  -21.5631   -3.4540   25.7736 F   0  0  0  0  0  0
  -30.0267  -13.3522   20.4460 N   0  0  0  0  0  0
  -26.2996  -12.9368   20.3352 N   0  0  0  0  0  0
  -25.9317  -11.6522   20.5771 N   0  0  0  0  0  0
  -22.0485  -12.8225   22.0402 N   0  0  0  0  0  0
  -25.4294  -15.1897   20.4087 N   0  0  0  0  0  0
  -31.8521  -14.6460   20.1047 O   0  0  0  0  0  0
  -21.6638   -6.8878   21.4241 O   0  0  0  0  0  0
  -22.3527  -14.5538   20.6694 O   0  0  0  0  0  0
  -24.6214  -31.8664   23.2145 C   0  0  0  0  0  0
  -25.9085  -32.4818   23.8448 C   0  0  1  0  0  0
  -27.2090  -27.3542   20.1025 C   0  0  0  0  0  0
  -25.5902  -33.8620   24.2340 N   0  0  0  0  0  0
  -23.4133  -30.4933   21.5596 C   0  0  2  0  0  0
  -24.8571  -28.9676   20.1153 C   0  0  0  0  0  0
  -22.7463  -29.4633   22.5013 C   0  0  0  0  0  0
  -18.0273  -28.1370   22.8486 C   0  0  0  0  0  0
  -24.1479  -36.7316   23.2633 C   0  0  0  0  0  0
  -25.9541  -30.8008   21.3910 C   0  0  0  0  0  0
  -26.0246  -29.4322   20.7341 C   0  0  0  0  0  0
  -27.2037  -28.6312   20.7360 C   0  0  0  0  0  0
  -26.0456  -26.9869   19.3934 C   0  0  0  0  0  0
  -24.8670  -27.7442   19.4377 C   0  0  0  0  0  0
  -23.6244  -29.8426   20.1707 C   0  0  0  0  0  0
  -25.4094  -36.3108   24.0337 C   0  0  1  0  0  0
  -20.5872  -28.3654   23.1310 C   0  0  2  0  0  0
  -20.6754  -26.9387   22.5407 C   0  0  0  0  0  0
  -19.5730  -26.6367   21.5208 C   0  0  0  0  0  0
  -18.1913  -26.7909   22.1625 C   0  0  0  0  0  0
  -19.1528  -28.8830   23.2881 C   0  0  0  0  0  0
  -18.9450  -30.1440   23.8890 C   0  0  0  0  0  0
  -17.6454  -30.6569   24.0560 C   0  0  0  0  0  0
  -25.9041  -34.9470   23.5145 C   0  0  0  0  0  0
  -16.5340  -29.9073   23.6341 C   0  0  0  0  0  0
  -16.7263  -28.6495   23.0355 C   0  0  0  0  0  0
  -26.4474  -31.6617   25.0800 C   0  0  0  0  0  0
  -25.3715  -31.3714   26.1536 C   0  0  0  0  0  0
  -27.0311  -30.3040   24.6248 C   0  0  0  0  0  0
  -27.6065  -32.4349   25.7525 C   0  0  0  0  0  0
  -27.5599  -37.1763   24.8436 C   0  0  0  0  0  0
  -21.4186  -29.3012   22.3734 N   0  0  0  0  0  0
  -26.4262  -37.3808   23.9459 N   0  0  0  0  0  0
  -24.6809  -31.0702   22.1101 N   0  0  0  0  0  0
  -23.4211  -28.8143   23.3054 O   0  0  0  0  0  0
  -28.3193  -26.5029   20.1165 O   0  0  0  0  0  0
  -26.5618  -34.8922   22.4719 O   0  0  0  0  0  0
  -23.5396  -32.1468   23.7484 O   0  0  0  0  0  0
  -29.7030  -18.0578   21.5368 C   0  0  0  0  0  0
  -31.1789  -18.8602   20.1568 C   0  0  0  0  0  0
  -30.3152  -17.0077   20.8622 C   0  0  0  0  0  0
  -31.1486  -22.6037   17.1308 C   0  0  0  0  0  0
  -32.3367  -23.3272   20.7663 C   0  0  0  0  0  0
  -27.1327  -24.2344   19.8294 C   0  0  0  0  0  0
  -31.6893  -23.4204   18.3178 C   0  0  0  0  0  0
  -29.2502  -21.6121   20.6784 C   0  0  0  0  0  0
  -29.5282  -24.3521   20.7945 C   0  0  0  0  0  0
  -30.0990  -20.6431   21.5814 C   0  0  0  0  0  0
  -31.3523  -22.8097   19.6954 C   0  0  2  0  0  0
  -29.8495  -22.9623   20.0852 C   0  0  1  0  0  0
  -28.1529  -25.1087   20.5962 C   0  0  1  0  0  0
  -31.2441  -17.5421   19.9664 N   0  0  0  0  0  0
  -30.2944  -19.2563   21.0881 N   0  0  0  0  0  0
  -30.0228  -15.6036   21.0423 N   0  0  0  0  0  0
  -31.4642  -12.4178   19.1507 H   0  0  0  0  0  0
  -30.3143  -11.3356   19.8748 H   0  0  0  0  0  0
  -29.7497  -11.7620   17.4606 H   0  0  0  0  0  0
  -29.6611  -13.4788   17.7669 H   0  0  0  0  0  0
  -27.8440  -11.3018   18.8503 H   0  0  0  0  0  0
  -27.3700  -12.6035   17.7944 H   0  0  0  0  0  0
  -27.6867  -14.2560   19.5449 H   0  0  0  0  0  0
  -28.6835  -12.0273   21.3822 H   0  0  0  0  0  0
  -28.4541  -13.6846   21.8539 H   0  0  0  0  0  0
  -25.2751   -9.5691   22.4756 H   0  0  0  0  0  0
  -24.0001   -7.4638   22.7475 H   0  0  0  0  0  0
  -21.0837   -8.8761   19.8947 H   0  0  0  0  0  0
  -22.3680  -10.9670   19.6163 H   0  0  0  0  0  0
  -21.2000   -7.6146   23.9711 H   0  0  0  0  0  0
  -21.1482   -6.0524   25.9077 H   0  0  0  0  0  0
  -22.0601   -2.7613   23.2838 H   0  0  0  0  0  0
  -22.4101  -11.9890   22.4793 H   0  0  0  0  0  0
  -21.1101  -13.1243   22.2601 H   0  0  0  0  0  0
  -24.6638  -15.8477   20.5054 H   0  0  0  0  0  0
  -26.2851  -15.6250   20.0872 H   0  0  0  0  0  0
  -26.7149  -32.5492   23.1204 H   0  0  0  0  0  0
  -24.9993  -33.9803   25.0442 H   0  0  0  0  0  0
  -22.7031  -31.3112   21.4272 H   0  0  0  0  0  0
  -23.3750  -35.9628   23.3245 H   0  0  0  0  0  0
  -24.3597  -36.9003   22.2060 H   0  0  0  0  0  0
  -23.7208  -37.6489   23.6698 H   0  0  0  0  0  0
  -26.0864  -31.5627   20.6221 H   0  0  0  0  0  0
  -26.8356  -30.8477   22.0180 H   0  0  0  0  0  0
  -28.0950  -28.9756   21.2428 H   0  0  0  0  0  0
  -26.0240  -26.1248   18.7500 H   0  0  0  0  0  0
  -23.9902  -27.4071   18.9034 H   0  0  0  0  0  0
  -23.7361  -30.6245   19.4194 H   0  0  0  0  0  0
  -22.7453  -29.2710   19.8695 H   0  0  0  0  0  0
  -25.1241  -36.1955   25.0814 H   0  0  0  0  0  0
  -20.9933  -28.3207   24.1453 H   0  0  0  0  0  0
  -20.5672  -26.2254   23.3585 H   0  0  0  0  0  0
  -21.6628  -26.7436   22.1207 H   0  0  0  0  0  0
  -19.6902  -25.6283   21.1230 H   0  0  0  0  0  0
  -19.6680  -27.3178   20.6732 H   0  0  0  0  0  0
  -17.4187  -26.6649   21.4024 H   0  0  0  0  0  0
  -18.0327  -26.0038   22.9007 H   0  0  0  0  0  0
  -19.7929  -30.7245   24.2273 H   0  0  0  0  0  0
  -17.5010  -31.6267   24.5131 H   0  0  0  0  0  0
  -15.5341  -30.2964   23.7678 H   0  0  0  0  0  0
  -15.8659  -28.0815   22.7080 H   0  0  0  0  0  0
  -24.5919  -30.7029   25.7869 H   0  0  0  0  0  0
  -24.8837  -32.2827   26.4988 H   0  0  0  0  0  0
  -25.8037  -30.8892   27.0313 H   0  0  0  0  0  0
  -26.2887  -29.6783   24.1273 H   0  0  0  0  0  0
  -27.4001  -29.7309   25.4761 H   0  0  0  0  0  0
  -27.8761  -30.4332   23.9488 H   0  0  0  0  0  0
  -27.2759  -33.3712   26.2047 H   0  0  0  0  0  0
  -28.3871  -32.6820   25.0314 H   0  0  0  0  0  0
  -28.0730  -31.8497   26.5464 H   0  0  0  0  0  0
  -28.2489  -38.0184   24.7694 H   0  0  0  0  0  0
  -28.1221  -36.2735   24.5986 H   0  0  0  0  0  0
  -27.2367  -37.1102   25.8839 H   0  0  0  0  0  0
  -20.9378  -29.8766   21.6962 H   0  0  0  0  0  0
  -26.0135  -38.2855   24.1562 H   0  0  0  0  0  0
  -28.9414  -18.0564   22.3073 H   0  0  0  0  0  0
  -31.8233  -19.5447   19.6242 H   0  0  0  0  0  0
  -31.5409  -22.9872   16.1892 H   0  0  0  0  0  0
  -30.0609  -22.6383   17.0647 H   0  0  0  0  0  0
  -31.4415  -21.5556   17.1997 H   0  0  0  0  0  0
  -33.3444  -22.9589   20.5738 H   0  0  0  0  0  0
  -32.0670  -23.0120   21.7734 H   0  0  0  0  0  0
  -32.3960  -24.4160   20.7760 H   0  0  0  0  0  0
  -27.1672  -23.1900   20.1161 H   0  0  0  0  0  0
  -27.2913  -24.2767   18.7517 H   0  0  0  0  0  0
  -26.1068  -24.5144   20.0590 H   0  0  0  0  0  0
  -31.3311  -24.4493   18.2584 H   0  0  0  0  0  0
  -32.7737  -23.4763   18.2098 H   0  0  0  0  0  0
  -28.3472  -21.8428   21.2405 H   0  0  0  0  0  0
  -28.8923  -21.0208   19.8332 H   0  0  0  0  0  0
  -30.2774  -25.0715   20.4702 H   0  0  0  0  0  0
  -29.7108  -24.2350   21.8632 H   0  0  0  0  0  0
  -29.6299  -20.5785   22.5624 H   0  0  0  0  0  0
  -31.0858  -21.0527   21.7809 H   0  0  0  0  0  0
  -31.5585  -21.7474   19.5888 H   0  0  0  0  0  0
  -29.3345  -23.0497   19.1306 H   0  0  0  0  0  0
  -27.7437  -25.2151   21.6015 H   0  0  0  0  0  0
  -29.1504  -15.3844   21.4972 H   0  0  0  0  0  0
  1 25  1  0  0  0
  1 30  2  0  0  0
  1 86  1  0  0  0
  2  3  1  0  0  0
  2 25  1  0  0  0
  2 87  1  0  0  0
  2 88  1  0  0  0
  3  4  1  0  0  0
  3 89  1  0  0  0
  3 90  1  0  0  0
  4  5  1  0  0  0
  4 91  1  0  0  0
  4 92  1  0  0  0
  5  6  1  0  0  0
  5 26  1  0  0  0
  5 93  1  0  0  0
  6 25  1  0  0  0
  6 94  1  0  0  0
  6 95  1  0  0  0
  7  8  2  0  0  0
  7 26  1  0  0  0
  7 29  1  0  0  0
  8  9  1  0  0  0
  8 22  1  0  0  0
  9 10  1  0  0  0
  9 27  2  0  0  0
 10 11  2  0  0  0
 10 15  1  0  0  0
 11 12  1  0  0  0
 11 96  1  0  0  0
 12 13  2  0  0  0
 12 97  1  0  0  0
 13 14  1  0  0  0
 13 31  1  0  0  0
 14 15  2  0  0  0
 14 98  1  0  0  0
 15 99  1  0  0  0
 16 17  2  0  0  0
 16 21  1  0  0  0
 16 31  1  0  0  0
 17 18  1  0  0  0
 17100  1  0  0  0
 18 19  2  0  0  0
 18101  1  0  0  0
 19 20  1  0  0  0
 19 24  1  0  0  0
 20 21  2  0  0  0
 20102  1  0  0  0
 21 23  1  0  0  0
 22 28  1  0  0  0
 22 32  2  0  0  0
 26 27  1  0  0  0
 28103  1  0  0  0
 28104  1  0  0  0
 29105  1  0  0  0
 29106  1  0  0  0
 33 34  1  0  0  0
 33 66  1  0  0  0
 33 70  2  0  0  0
 34 36  1  0  0  0
 34 59  1  0  0  0
 34107  1  0  0  0
 35 44  2  0  0  0
 35 45  1  0  0  0
 35 68  1  0  0  0
 36 56  1  0  0  0
 36108  1  0  0  0
 37 39  1  0  0  0
 37 47  1  0  0  0
 37 66  1  0  0  0
 37109  1  0  0  0
 38 43  2  0  0  0
 38 46  1  0  0  0
 38 47  1  0  0  0
 39 64  1  0  0  0
 39 67  2  0  0  0
 40 52  1  0  0  0
 40 53  2  0  0  0
 40 58  1  0  0  0
 41110  1  0  0  0
 41111  1  0  0  0
 41112  1  0  0  0
 41 48  1  0  0  0
 42 43  1  0  0  0
 42 66  1  0  0  0
 42113  1  0  0  0
 42114  1  0  0  0
 43 44  1  0  0  0
 44115  1  0  0  0
 45 46  2  0  0  0
 45116  1  0  0  0
 46117  1  0  0  0
 47118  1  0  0  0
 47119  1  0  0  0
 48 56  1  0  0  0
 48 65  1  0  0  0
 48120  1  0  0  0
 49 50  1  0  0  0
 49 53  1  0  0  0
 49 64  1  0  0  0
 49121  1  0  0  0
 50 51  1  0  0  0
 50122  1  0  0  0
 50123  1  0  0  0
 51 52  1  0  0  0
 51124  1  0  0  0
 51125  1  0  0  0
 52126  1  0  0  0
 52127  1  0  0  0
 53 54  1  0  0  0
 54 55  2  0  0  0
 54128  1  0  0  0
 55 57  1  0  0  0
 55129  1  0  0  0
 56 69  2  0  0  0
 57 58  2  0  0  0
 57130  1  0  0  0
 58131  1  0  0  0
 59 60  1  0  0  0
 59 61  1  0  0  0
 59 62  1  0  0  0
 60132  1  0  0  0
 60133  1  0  0  0
 60134  1  0  0  0
 61135  1  0  0  0
 61136  1  0  0  0
 61137  1  0  0  0
 62138  1  0  0  0
 62139  1  0  0  0
 62140  1  0  0  0
 63 65  1  0  0  0
 63141  1  0  0  0
 63142  1  0  0  0
 63143  1  0  0  0
 64144  1  0  0  0
 65145  1  0  0  0
 68 83  1  0  0  0
 71 73  2  0  0  0
 71 85  1  0  0  0
 71146  1  0  0  0
 72 84  2  0  0  0
 72 85  1  0  0  0
 72147  1  0  0  0
 73 84  1  0  0  0
 73 86  1  0  0  0
 74 77  1  0  0  0
 74148  1  0  0  0
 74149  1  0  0  0
 74150  1  0  0  0
 75151  1  0  0  0
 75152  1  0  0  0
 75153  1  0  0  0
 75 81  1  0  0  0
 76154  1  0  0  0
 76155  1  0  0  0
 76156  1  0  0  0
 76 83  1  0  0  0
 77 81  1  0  0  0
 77157  1  0  0  0
 77158  1  0  0  0
 78 80  1  0  0  0
 78159  1  0  0  0
 78160  1  0  0  0
 78 82  1  0  0  0
 79 82  1  0  0  0
 79 83  1  0  0  0
 79161  1  0  0  0
 79162  1  0  0  0
 80 85  1  0  0  0
 80163  1  0  0  0
 80164  1  0  0  0
 81 82  1  0  0  0
 81165  1  0  0  0
 82166  1  0  0  0
 83167  1  0  0  0
 86168  1  0  0  0
M  ISO  4   1 100  68 101  83 101  86 100
M  END
> <chiral flag>
0

> <version>
0

> <s_m_source_file>
/data/baiqing/PycharmProjects/Reinvent-master-3.2/result/LINK_invent/BTK/process_docking_weight1_custom_product_contain_oxygen_bond_distance_aromatic_linkinvent_7_9_3/rearranged_h_0194.sdf

> <i_m_source_file_index>
18

> <r_mmod_Potential_Energy-OPLS-2005>
123.636207580566

> <r_mmod_Stretch_Energy-OPLS-2005>
66.6194229125977

> <r_mmod_Bend_Energy-OPLS-2005>
160.360885620117

> <r_mmod_Torsional_Energy-OPLS-2005>
299.290832519531

> <r_mmod_Improper_Torsional_Energy-OPLS-2005>
3.3506600856781

> <r_mmod_Van_der_Waal_Energy-OPLS-2005>
145.945724487305

> <r_mmod_Electrostatic_Energy-OPLS-2005>
-354.971923828125

> <r_mmod_Solvation_Energy-OPLS-2005>
-228.98078918457

> <b_mmod_Minimization_Converged-OPLS-2005>
0

> <r_mmod_RMS_Derivative-OPLS-2005>
2.31612348556519

$$$$
18
                    3D
 Structure written by MMmdl.
163171  0  0  1  0            999 V2000
  -30.6277  -14.5712   20.5146 C   0  0  0  0  0  0
  -30.4409  -12.3465   19.4451 C   0  0  0  0  0  0
  -29.5098  -12.4971   18.2190 C   0  0  0  0  0  0
  -28.0287  -12.3466   18.6269 C   0  0  0  0  0  0
  -27.6597  -13.2029   19.8677 C   0  0  2  0  0  0
  -28.7033  -13.0150   20.9926 C   0  0  0  0  0  0
  -25.2617  -13.8138   20.5695 C   0  0  0  0  0  0
  -24.1866  -13.0432   20.9176 C   0  0  0  0  0  0
  -24.6402  -11.6887   20.8723 C   0  0  0  0  0  0
  -23.9058  -10.4292   21.0397 C   0  0  0  0  0  0
  -24.3610   -9.4209   21.9176 C   0  0  0  0  0  0
  -23.6293   -8.2241   22.0748 C   0  0  0  0  0  0
  -22.4268   -8.0277   21.3543 C   0  0  0  0  0  0
  -21.9902   -9.0249   20.4643 C   0  0  0  0  0  0
  -22.7226  -10.2134   20.3049 C   0  0  0  0  0  0
  -21.6857   -6.0724   22.5279 C   0  0  0  0  0  0
  -21.4019   -6.5630   23.8211 C   0  0  0  0  0  0
  -21.3660   -5.6784   24.9177 C   0  0  0  0  0  0
  -21.6044   -4.3049   24.7230 C   0  0  0  0  0  0
  -21.8825   -3.8136   23.4355 C   0  0  0  0  0  0
  -21.9199   -4.6951   22.3409 C   0  0  0  0  0  0
  -22.7895  -13.5238   21.1841 C   0  0  0  0  0  0
  -22.1674   -4.2132   21.0987 F   0  0  0  0  0  0
  -21.5632   -3.4535   25.7747 F   0  0  0  0  0  0
  -30.0244  -13.3473   20.4432 N   0  0  0  0  0  0
  -26.3033  -12.9290   20.3331 N   0  0  0  0  0  0
  -25.9323  -11.6454   20.5735 N   0  0  0  0  0  0
  -22.0541  -12.8233   22.0393 N   0  0  0  0  0  0
  -25.4367  -15.1860   20.4123 N   0  0  0  0  0  0
  -31.8013  -14.7237   20.1580 O   0  0  0  0  0  0
  -21.6642   -6.8867   21.4237 O   0  0  0  0  0  0
  -22.3586  -14.5547   20.6688 O   0  0  0  0  0  0
  -24.6185  -31.8653   23.2056 C   0  0  0  0  0  0
  -25.9064  -32.4808   23.8373 C   0  0  1  0  0  0
  -27.2339  -27.3840   20.1244 C   0  0  0  0  0  0
  -25.5910  -33.8609   24.2315 N   0  0  0  0  0  0
  -23.4097  -30.4856   21.5461 C   0  0  2  0  0  0
  -24.8591  -28.9363   20.1227 C   0  0  0  0  0  0
  -22.7436  -29.4650   22.4972 C   0  0  0  0  0  0
  -18.0287  -28.1383   22.8494 C   0  0  0  0  0  0
  -24.1484  -36.7306   23.2638 C   0  0  0  0  0  0
  -25.9427  -30.8130   21.3683 C   0  0  0  0  0  0
  -26.0200  -29.4401   20.7244 C   0  0  0  0  0  0
  -27.2125  -28.6724   20.7196 C   0  0  0  0  0  0
  -26.0581  -26.9020   19.5166 C   0  0  0  0  0  0
  -24.8741  -27.6674   19.5152 C   0  0  0  0  0  0
  -23.6245  -29.8118   20.1641 C   0  0  0  0  0  0
  -25.4108  -36.3104   24.0334 C   0  0  1  0  0  0
  -20.5881  -28.3684   23.1312 C   0  0  2  0  0  0
  -20.6776  -26.9417   22.5425 C   0  0  0  0  0  0
  -19.5749  -26.6391   21.5229 C   0  0  0  0  0  0
  -18.1927  -26.7930   22.1636 C   0  0  0  0  0  0
  -19.1536  -28.8853   23.2895 C   0  0  0  0  0  0
  -18.9461  -30.1458   23.8900 C   0  0  0  0  0  0
  -17.6458  -30.6586   24.0574 C   0  0  0  0  0  0
  -25.9035  -34.9472   23.5125 C   0  0  0  0  0  0
  -16.5353  -29.9089   23.6323 C   0  0  0  0  0  0
  -16.7274  -28.6510   23.0338 C   0  0  0  0  0  0
  -26.4471  -31.6595   25.0716 C   0  0  0  0  0  0
  -25.3726  -31.3727   26.1464 C   0  0  0  0  0  0
  -27.0315  -30.3028   24.6135 C   0  0  0  0  0  0
  -27.6057  -32.4312   25.7474 C   0  0  0  0  0  0
  -27.5583  -37.1806   24.8462 C   0  0  0  0  0  0
  -21.4163  -29.3041   22.3707 N   0  0  0  0  0  0
  -26.4294  -37.3792   23.9408 N   0  0  0  0  0  0
  -24.6750  -31.0711   22.0980 N   0  0  0  0  0  0
  -23.4188  -28.8201   23.3038 O   0  0  0  0  0  0
  -28.3870  -26.6213   20.0577 O   0  0  0  0  0  0
  -26.5601  -34.8923   22.4688 O   0  0  0  0  0  0
  -23.5369  -32.1439   23.7413 O   0  0  0  0  0  0
  -31.2741  -17.7883   23.4951 C   0  0  0  0  0  0
  -30.9333  -16.5985   22.9041 C   0  0  0  0  0  0
  -30.3312  -18.2562   21.6007 C   0  0  0  0  0  0
  -32.4284  -19.9402   19.3713 C   0  0  0  0  0  0
  -29.7690  -15.8614   20.7787 C   0  0  0  0  0  0
  -31.4770  -20.8456   20.1731 C   0  0  0  0  0  0
  -28.9660  -21.4635   20.6569 C   0  0  0  0  0  0
  -29.2906  -23.0027   20.4734 C   0  0  0  0  0  0
  -28.5325  -25.5223   20.9933 C   0  0  0  0  0  0
  -29.9944  -20.4157   20.0716 C   0  0  2  0  0  0
  -28.1229  -24.0621   20.5381 C   0  0  2  0  0  0
  -30.8875  -18.8301   22.6621 N   0  0  0  0  0  0
  -30.3378  -16.8874   21.6751 N   0  0  0  0  0  0
  -29.8172  -19.0105   20.5295 N   0  0  0  0  0  0
  -27.1317  -23.5954   21.4383 O   0  0  0  0  0  0
  -31.4835  -12.4643   19.1468 H   0  0  0  0  0  0
  -30.3637  -11.3429   19.8657 H   0  0  0  0  0  0
  -29.7641  -11.7558   17.4602 H   0  0  0  0  0  0
  -29.6653  -13.4721   17.7547 H   0  0  0  0  0  0
  -27.8524  -11.2923   18.8434 H   0  0  0  0  0  0
  -27.3774  -12.5953   17.7875 H   0  0  0  0  0  0
  -27.6910  -14.2423   19.5430 H   0  0  0  0  0  0
  -28.7016  -11.9806   21.3405 H   0  0  0  0  0  0
  -28.4623  -13.6117   21.8730 H   0  0  0  0  0  0
  -25.2760   -9.5691   22.4743 H   0  0  0  0  0  0
  -24.0013   -7.4629   22.7457 H   0  0  0  0  0  0
  -21.0838   -8.8761   19.8947 H   0  0  0  0  0  0
  -22.3679  -10.9670   19.6157 H   0  0  0  0  0  0
  -21.1997   -7.6133   23.9712 H   0  0  0  0  0  0
  -21.1487   -6.0513   25.9077 H   0  0  0  0  0  0
  -22.0599   -2.7594   23.2863 H   0  0  0  0  0  0
  -22.4152  -11.9894   22.4787 H   0  0  0  0  0  0
  -21.1158  -13.1251   22.2584 H   0  0  0  0  0  0
  -24.6719  -15.8430   20.5232 H   0  0  0  0  0  0
  -26.2889  -15.6242   20.0874 H   0  0  0  0  0  0
  -26.7141  -32.5494   23.1134 H   0  0  0  0  0  0
  -25.0058  -33.9772   25.0461 H   0  0  0  0  0  0
  -22.7001  -31.3030   21.3993 H   0  0  0  0  0  0
  -23.3746  -35.9638   23.3313 H   0  0  0  0  0  0
  -24.3571  -36.8915   22.2049 H   0  0  0  0  0  0
  -23.7244  -37.6515   23.6650 H   0  0  0  0  0  0
  -26.0617  -31.5721   20.5931 H   0  0  0  0  0  0
  -26.8292  -30.8712   21.9885 H   0  0  0  0  0  0
  -28.1117  -29.0608   21.1778 H   0  0  0  0  0  0
  -26.0608  -25.9334   19.0373 H   0  0  0  0  0  0
  -23.9830  -27.2728   19.0462 H   0  0  0  0  0  0
  -23.7431  -30.5841   19.4032 H   0  0  0  0  0  0
  -22.7481  -29.2360   19.8617 H   0  0  0  0  0  0
  -25.1288  -36.1965   25.0829 H   0  0  0  0  0  0
  -20.9974  -28.3258   24.1431 H   0  0  0  0  0  0
  -20.5704  -26.2289   23.3618 H   0  0  0  0  0  0
  -21.6638  -26.7459   22.1200 H   0  0  0  0  0  0
  -19.6908  -25.6307   21.1242 H   0  0  0  0  0  0
  -19.6681  -27.3216   20.6770 H   0  0  0  0  0  0
  -17.4202  -26.6696   21.4029 H   0  0  0  0  0  0
  -18.0301  -26.0071   22.9026 H   0  0  0  0  0  0
  -19.7938  -30.7281   24.2259 H   0  0  0  0  0  0
  -17.5016  -31.6262   24.5188 H   0  0  0  0  0  0
  -15.5351  -30.2998   23.7646 H   0  0  0  0  0  0
  -15.8674  -28.0847   22.7028 H   0  0  0  0  0  0
  -24.5868  -30.7113   25.7789 H   0  0  0  0  0  0
  -24.8943  -32.2898   26.4916 H   0  0  0  0  0  0
  -25.8052  -30.8870   27.0221 H   0  0  0  0  0  0
  -26.2883  -29.6777   24.1170 H   0  0  0  0  0  0
  -27.4056  -29.7274   25.4612 H   0  0  0  0  0  0
  -27.8724  -30.4332   23.9322 H   0  0  0  0  0  0
  -27.2697  -33.3614   26.2067 H   0  0  0  0  0  0
  -28.3854  -32.6876   25.0288 H   0  0  0  0  0  0
  -28.0744  -31.8426   26.5371 H   0  0  0  0  0  0
  -28.2603  -38.0101   24.7512 H   0  0  0  0  0  0
  -28.1082  -36.2633   24.6285 H   0  0  0  0  0  0
  -27.2299  -37.1455   25.8866 H   0  0  0  0  0  0
  -20.9334  -29.8753   21.6914 H   0  0  0  0  0  0
  -26.0181  -38.2871   24.1411 H   0  0  0  0  0  0
  -31.7502  -17.9707   24.4489 H   0  0  0  0  0  0
  -31.0641  -15.5881   23.2670 H   0  0  0  0  0  0
  -32.4829  -18.9347   19.7899 H   0  0  0  0  0  0
  -33.4416  -20.3423   19.3709 H   0  0  0  0  0  0
  -32.1045  -19.8516   18.3334 H   0  0  0  0  0  0
  -29.5803  -16.3218   19.8098 H   0  0  0  0  0  0
  -28.7890  -15.6180   21.1805 H   0  0  0  0  0  0
  -31.5984  -21.8542   19.7819 H   0  0  0  0  0  0
  -31.7947  -20.8921   21.2147 H   0  0  0  0  0  0
  -27.9969  -21.2596   20.1998 H   0  0  0  0  0  0
  -28.8323  -21.2735   21.7223 H   0  0  0  0  0  0
  -29.7876  -23.1564   19.5148 H   0  0  0  0  0  0
  -30.0370  -23.2556   21.2266 H   0  0  0  0  0  0
  -29.5869  -25.5129   21.2689 H   0  0  0  0  0  0
  -28.0282  -25.7877   21.9253 H   0  0  0  0  0  0
  -29.7851  -20.3859   19.0009 H   0  0  0  0  0  0
  -27.6534  -24.1150   19.5552 H   0  0  0  0  0  0
  -29.3928  -18.4319   19.8133 H   0  0  0  0  0  0
  -26.7797  -22.7839   21.0873 H   0  0  0  0  0  0
  1 25  1  0  0  0
  1 30  2  0  0  0
  1 75  1  0  0  0
  2  3  1  0  0  0
  2 25  1  0  0  0
  2 86  1  0  0  0
  2 87  1  0  0  0
  3  4  1  0  0  0
  3 88  1  0  0  0
  3 89  1  0  0  0
  4  5  1  0  0  0
  4 90  1  0  0  0
  4 91  1  0  0  0
  5  6  1  0  0  0
  5 26  1  0  0  0
  5 92  1  0  0  0
  6 25  1  0  0  0
  6 93  1  0  0  0
  6 94  1  0  0  0
  7  8  2  0  0  0
  7 26  1  0  0  0
  7 29  1  0  0  0
  8  9  1  0  0  0
  8 22  1  0  0  0
  9 10  1  0  0  0
  9 27  2  0  0  0
 10 11  2  0  0  0
 10 15  1  0  0  0
 11 12  1  0  0  0
 11 95  1  0  0  0
 12 13  2  0  0  0
 12 96  1  0  0  0
 13 14  1  0  0  0
 13 31  1  0  0  0
 14 15  2  0  0  0
 14 97  1  0  0  0
 15 98  1  0  0  0
 16 17  2  0  0  0
 16 21  1  0  0  0
 16 31  1  0  0  0
 17 18  1  0  0  0
 17 99  1  0  0  0
 18 19  2  0  0  0
 18100  1  0  0  0
 19 20  1  0  0  0
 19 24  1  0  0  0
 20 21  2  0  0  0
 20101  1  0  0  0
 21 23  1  0  0  0
 22 28  1  0  0  0
 22 32  2  0  0  0
 26 27  1  0  0  0
 28102  1  0  0  0
 28103  1  0  0  0
 29104  1  0  0  0
 29105  1  0  0  0
 33 34  1  0  0  0
 33 66  1  0  0  0
 33 70  2  0  0  0
 34 36  1  0  0  0
 34 59  1  0  0  0
 34106  1  0  0  0
 35 44  2  0  0  0
 35 45  1  0  0  0
 35 68  1  0  0  0
 36 56  1  0  0  0
 36107  1  0  0  0
 37 39  1  0  0  0
 37 47  1  0  0  0
 37 66  1  0  0  0
 37108  1  0  0  0
 38 43  2  0  0  0
 38 46  1  0  0  0
 38 47  1  0  0  0
 39 64  1  0  0  0
 39 67  2  0  0  0
 40 52  1  0  0  0
 40 53  2  0  0  0
 40 58  1  0  0  0
 41109  1  0  0  0
 41110  1  0  0  0
 41111  1  0  0  0
 41 48  1  0  0  0
 42 43  1  0  0  0
 42 66  1  0  0  0
 42112  1  0  0  0
 42113  1  0  0  0
 43 44  1  0  0  0
 44114  1  0  0  0
 45 46  2  0  0  0
 45115  1  0  0  0
 46116  1  0  0  0
 47117  1  0  0  0
 47118  1  0  0  0
 48 56  1  0  0  0
 48 65  1  0  0  0
 48119  1  0  0  0
 49 50  1  0  0  0
 49 53  1  0  0  0
 49 64  1  0  0  0
 49120  1  0  0  0
 50 51  1  0  0  0
 50121  1  0  0  0
 50122  1  0  0  0
 51 52  1  0  0  0
 51123  1  0  0  0
 51124  1  0  0  0
 52125  1  0  0  0
 52126  1  0  0  0
 53 54  1  0  0  0
 54 55  2  0  0  0
 54127  1  0  0  0
 55 57  1  0  0  0
 55128  1  0  0  0
 56 69  2  0  0  0
 57 58  2  0  0  0
 57129  1  0  0  0
 58130  1  0  0  0
 59 60  1  0  0  0
 59 61  1  0  0  0
 59 62  1  0  0  0
 60131  1  0  0  0
 60132  1  0  0  0
 60133  1  0  0  0
 61134  1  0  0  0
 61135  1  0  0  0
 61136  1  0  0  0
 62137  1  0  0  0
 62138  1  0  0  0
 62139  1  0  0  0
 63 65  1  0  0  0
 63140  1  0  0  0
 63141  1  0  0  0
 63142  1  0  0  0
 64143  1  0  0  0
 65144  1  0  0  0
 68 79  1  0  0  0
 71 72  2  0  0  0
 71 82  1  0  0  0
 71145  1  0  0  0
 72 83  1  0  0  0
 72146  1  0  0  0
 73 82  2  0  0  0
 73 83  1  0  0  0
 73 84  1  0  0  0
 74 76  1  0  0  0
 74147  1  0  0  0
 74148  1  0  0  0
 74149  1  0  0  0
 75 83  1  0  0  0
 75150  1  0  0  0
 75151  1  0  0  0
 76152  1  0  0  0
 76153  1  0  0  0
 76 80  1  0  0  0
 77 78  1  0  0  0
 77 80  1  0  0  0
 77154  1  0  0  0
 77155  1  0  0  0
 78 81  1  0  0  0
 78156  1  0  0  0
 78157  1  0  0  0
 79 81  1  0  0  0
 79158  1  0  0  0
 79159  1  0  0  0
 80 84  1  0  0  0
 80160  1  0  0  0
 81 85  1  0  0  0
 81161  1  0  0  0
 84162  1  0  0  0
 85163  1  0  0  0
M  ISO  4   1 100  68 101  75 100  79 101
M  END
> <chiral flag>
0

> <version>
0

> <s_m_source_file>
/data/baiqing/PycharmProjects/Reinvent-master-3.2/result/LINK_invent/BTK/process_docking_weight1_custom_product_contain_oxygen_bond_distance_aromatic_linkinvent_7_9_3/rearranged_h_0194.sdf

> <i_m_source_file_index>
19

> <r_mmod_Potential_Energy-OPLS-2005>
-89.6093826293945

> <r_mmod_Stretch_Energy-OPLS-2005>
57.5549049377441

> <r_mmod_Bend_Energy-OPLS-2005>
132.945739746094

> <r_mmod_Torsional_Energy-OPLS-2005>
238.631134033203

> <r_mmod_Improper_Torsional_Energy-OPLS-2005>
6.87143564224243

> <r_mmod_Van_der_Waal_Energy-OPLS-2005>
117.278358459473

> <r_mmod_Electrostatic_Energy-OPLS-2005>
-417.516662597656

> <r_mmod_Solvation_Energy-OPLS-2005>
-251.04460144043

> <b_mmod_Minimization_Converged-OPLS-2005>
0

> <r_mmod_RMS_Derivative-OPLS-2005>
1.88556122779846

$$$$
19
                    3D
 Structure written by MMmdl.
154162  0  0  1  0            999 V2000
  -30.6707  -14.5538   20.5624 C   0  0  0  0  0  0
  -30.4211  -12.3569   19.4420 C   0  0  0  0  0  0
  -29.5045  -12.5236   18.2147 C   0  0  0  0  0  0
  -28.0248  -12.3670   18.6171 C   0  0  0  0  0  0
  -27.6517  -13.2186   19.8592 C   0  0  2  0  0  0
  -28.6885  -13.0509   20.9902 C   0  0  0  0  0  0
  -25.2556  -13.8184   20.5662 C   0  0  0  0  0  0
  -24.1824  -13.0450   20.9155 C   0  0  0  0  0  0
  -24.6376  -11.6911   20.8686 C   0  0  0  0  0  0
  -23.9050  -10.4299   21.0377 C   0  0  0  0  0  0
  -24.3614   -9.4218   21.9159 C   0  0  0  0  0  0
  -23.6294   -8.2256   22.0745 C   0  0  0  0  0  0
  -22.4275   -8.0286   21.3547 C   0  0  0  0  0  0
  -21.9901   -9.0249   20.4648 C   0  0  0  0  0  0
  -22.7214  -10.2132   20.3041 C   0  0  0  0  0  0
  -21.6861   -6.0736   22.5280 C   0  0  0  0  0  0
  -21.4007   -6.5643   23.8206 C   0  0  0  0  0  0
  -21.3654   -5.6798   24.9171 C   0  0  0  0  0  0
  -21.6038   -4.3059   24.7227 C   0  0  0  0  0  0
  -21.8817   -3.8154   23.4349 C   0  0  0  0  0  0
  -21.9189   -4.6966   22.3402 C   0  0  0  0  0  0
  -22.7857  -13.5244   21.1850 C   0  0  0  0  0  0
  -22.1660   -4.2150   21.0981 F   0  0  0  0  0  0
  -21.5624   -3.4541   25.7739 F   0  0  0  0  0  0
  -30.0128  -13.3665   20.4344 N   0  0  0  0  0  0
  -26.2967  -12.9359   20.3245 N   0  0  0  0  0  0
  -25.9295  -11.6507   20.5664 N   0  0  0  0  0  0
  -22.0518  -12.8227   22.0406 N   0  0  0  0  0  0
  -25.4327  -15.1909   20.4127 N   0  0  0  0  0  0
  -31.8192  -14.7124   20.1399 O   0  0  0  0  0  0
  -21.6641   -6.8881   21.4248 O   0  0  0  0  0  0
  -22.3533  -14.5539   20.6688 O   0  0  0  0  0  0
  -24.6207  -31.8629   23.2062 C   0  0  0  0  0  0
  -25.9080  -32.4784   23.8367 C   0  0  1  0  0  0
  -27.2122  -27.3638   20.1271 C   0  0  0  0  0  0
  -25.5898  -33.8583   24.2289 N   0  0  0  0  0  0
  -23.4105  -30.4890   21.5487 C   0  0  2  0  0  0
  -24.8537  -28.9458   20.1148 C   0  0  0  0  0  0
  -22.7425  -29.4661   22.4979 C   0  0  0  0  0  0
  -18.0262  -28.1353   22.8423 C   0  0  0  0  0  0
  -24.1488  -36.7311   23.2642 C   0  0  0  0  0  0
  -25.9451  -30.8124   21.3660 C   0  0  0  0  0  0
  -26.0191  -29.4416   20.7130 C   0  0  0  0  0  0
  -27.2061  -28.6613   20.7077 C   0  0  0  0  0  0
  -26.0350  -26.9059   19.5048 C   0  0  0  0  0  0
  -24.8595  -27.6812   19.5024 C   0  0  0  0  0  0
  -23.6200  -29.8211   20.1639 C   0  0  0  0  0  0
  -25.4109  -36.3087   24.0334 C   0  0  1  0  0  0
  -20.5858  -28.3662   23.1250 C   0  0  2  0  0  0
  -20.6812  -26.9464   22.5187 C   0  0  0  0  0  0
  -19.5751  -26.6478   21.5020 C   0  0  0  0  0  0
  -18.1913  -26.7974   22.1407 C   0  0  0  0  0  0
  -19.1507  -28.8796   23.2864 C   0  0  0  0  0  0
  -18.9435  -30.1389   23.8907 C   0  0  0  0  0  0
  -17.6443  -30.6534   24.0556 C   0  0  0  0  0  0
  -25.9034  -34.9454   23.5114 C   0  0  0  0  0  0
  -16.5335  -29.9051   23.6288 C   0  0  0  0  0  0
  -16.7252  -28.6478   23.0292 C   0  0  0  0  0  0
  -26.4480  -31.6577   25.0717 C   0  0  0  0  0  0
  -25.3729  -31.3722   26.1458 C   0  0  0  0  0  0
  -27.0314  -30.3006   24.6128 C   0  0  0  0  0  0
  -27.6032  -32.4318   25.7485 C   0  0  0  0  0  0
  -27.5570  -37.1817   24.8472 C   0  0  0  0  0  0
  -21.4135  -29.3125   22.3772 N   0  0  0  0  0  0
  -26.4294  -37.3777   23.9393 N   0  0  0  0  0  0
  -24.6782  -31.0701   22.0978 N   0  0  0  0  0  0
  -23.4180  -28.8138   23.2982 O   0  0  0  0  0  0
  -28.3405  -26.5568   20.1308 O   0  0  0  0  0  0
  -26.5611  -34.8913   22.4680 O   0  0  0  0  0  0
  -23.5380  -32.1404   23.7421 O   0  0  0  0  0  0
  -28.3030  -19.7346   19.4618 C   0  0  0  0  0  0
  -28.9051  -20.3182   20.5462 C   0  0  0  0  0  0
  -29.6419  -18.1168   20.7808 C   0  0  0  0  0  0
  -26.4539  -23.4496   20.3968 C   0  0  0  0  0  0
  -30.4563  -16.9605   21.3618 C   0  0  0  0  0  0
  -28.9110  -22.7989   19.9569 C   0  0  0  0  0  0
  -28.2602  -25.2752   20.8363 C   0  0  0  0  0  0
  -27.8564  -23.9764   20.0311 C   0  0  1  0  0  0
  -29.6453  -19.3736   21.2878 N   0  0  0  0  0  0
  -28.8050  -21.6867   20.9350 N   0  0  0  0  0  0
  -29.9529  -15.5933   21.0561 N   0  0  0  0  0  0
  -28.6600  -18.0216   19.3214 S   0  0  0  0  0  0
  -31.4702  -12.4506   19.1543 H   0  0  0  0  0  0
  -30.3150  -11.3557   19.8603 H   0  0  0  0  0  0
  -29.7651  -11.7934   17.4477 H   0  0  0  0  0  0
  -29.6636  -13.5077   17.7705 H   0  0  0  0  0  0
  -27.8472  -11.3117   18.8220 H   0  0  0  0  0  0
  -27.3769  -12.6255   17.7779 H   0  0  0  0  0  0
  -27.6773  -14.2598   19.5362 H   0  0  0  0  0  0
  -28.6774  -12.0288   21.3691 H   0  0  0  0  0  0
  -28.4335  -13.6843   21.8414 H   0  0  0  0  0  0
  -25.2772   -9.5687   22.4709 H   0  0  0  0  0  0
  -23.9998   -7.4658   22.7466 H   0  0  0  0  0  0
  -21.0824   -8.8761   19.8972 H   0  0  0  0  0  0
  -22.3666  -10.9661   19.6146 H   0  0  0  0  0  0
  -21.1996   -7.6154   23.9709 H   0  0  0  0  0  0
  -21.1478   -6.0531   25.9070 H   0  0  0  0  0  0
  -22.0600   -2.7617   23.2849 H   0  0  0  0  0  0
  -22.4147  -11.9859   22.4729 H   0  0  0  0  0  0
  -21.1149  -13.1256   22.2664 H   0  0  0  0  0  0
  -24.6704  -15.8518   20.5131 H   0  0  0  0  0  0
  -26.2857  -15.6206   20.0809 H   0  0  0  0  0  0
  -26.7151  -32.5478   23.1120 H   0  0  0  0  0  0
  -25.0003  -33.9739   25.0405 H   0  0  0  0  0  0
  -22.7039  -31.3090   21.4069 H   0  0  0  0  0  0
  -23.3723  -35.9678   23.3341 H   0  0  0  0  0  0
  -24.3574  -36.8890   22.2048 H   0  0  0  0  0  0
  -23.7288  -37.6545   23.6638 H   0  0  0  0  0  0
  -26.0654  -31.5794   20.5994 H   0  0  0  0  0  0
  -26.8292  -30.8626   21.9903 H   0  0  0  0  0  0
  -28.1057  -29.0384   21.1739 H   0  0  0  0  0  0
  -26.0181  -25.9430   19.0182 H   0  0  0  0  0  0
  -23.9659  -27.2986   19.0289 H   0  0  0  0  0  0
  -23.7328  -30.5960   19.4040 H   0  0  0  0  0  0
  -22.7410  -29.2445   19.8678 H   0  0  0  0  0  0
  -25.1294  -36.1941   25.0834 H   0  0  0  0  0  0
  -20.9936  -28.3132   24.1374 H   0  0  0  0  0  0
  -20.5920  -26.2201   23.3280 H   0  0  0  0  0  0
  -21.6640  -26.7691   22.0807 H   0  0  0  0  0  0
  -19.6641  -27.3353   20.6589 H   0  0  0  0  0  0
  -19.6934  -25.6426   21.0957 H   0  0  0  0  0  0
  -17.4255  -26.6916   21.3702 H   0  0  0  0  0  0
  -18.0194  -25.9964   22.8601 H   0  0  0  0  0  0
  -19.7912  -30.7165   24.2321 H   0  0  0  0  0  0
  -17.4995  -31.6204   24.5176 H   0  0  0  0  0  0
  -15.5333  -30.2955   23.7582 H   0  0  0  0  0  0
  -15.8649  -28.0828   22.6967 H   0  0  0  0  0  0
  -24.5882  -30.7087   25.7808 H   0  0  0  0  0  0
  -24.8950  -32.2900   26.4883 H   0  0  0  0  0  0
  -25.8060  -30.8902   27.0228 H   0  0  0  0  0  0
  -26.2879  -29.6758   24.1160 H   0  0  0  0  0  0
  -27.4043  -29.7240   25.4601 H   0  0  0  0  0  0
  -27.8726  -30.4305   23.9320 H   0  0  0  0  0  0
  -27.2616  -33.3597   26.2078 H   0  0  0  0  0  0
  -28.3824  -32.6909   25.0312 H   0  0  0  0  0  0
  -28.0715  -31.8444   26.5388 H   0  0  0  0  0  0
  -28.2622  -38.0071   24.7439 H   0  0  0  0  0  0
  -28.1024  -36.2598   24.6390 H   0  0  0  0  0  0
  -27.2280  -37.1589   25.8875 H   0  0  0  0  0  0
  -20.9260  -29.9044   21.7190 H   0  0  0  0  0  0
  -26.0170  -38.2862   24.1354 H   0  0  0  0  0  0
  -27.6534  -20.2005   18.7333 H   0  0  0  0  0  0
  -26.0855  -22.7661   19.6306 H   0  0  0  0  0  0
  -25.7244  -24.2535   20.4912 H   0  0  0  0  0  0
  -26.4566  -22.9111   21.3461 H   0  0  0  0  0  0
  -31.4878  -17.0798   21.0288 H   0  0  0  0  0  0
  -30.4741  -17.0734   22.4458 H   0  0  0  0  0  0
  -29.9193  -23.2121   20.0151 H   0  0  0  0  0  0
  -28.8469  -22.3603   18.9608 H   0  0  0  0  0  0
  -29.2509  -25.1078   21.2587 H   0  0  0  0  0  0
  -27.6120  -25.3844   21.7077 H   0  0  0  0  0  0
  -27.7755  -24.3287   19.0024 H   0  0  0  0  0  0
  -29.2266  -21.8865   21.8375 H   0  0  0  0  0  0
  -28.9994  -15.3969   21.3194 H   0  0  0  0  0  0
  1 25  1  0  0  0
  1 30  2  0  0  0
  1 81  1  0  0  0
  2  3  1  0  0  0
  2 25  1  0  0  0
  2 83  1  0  0  0
  2 84  1  0  0  0
  3  4  1  0  0  0
  3 85  1  0  0  0
  3 86  1  0  0  0
  4  5  1  0  0  0
  4 87  1  0  0  0
  4 88  1  0  0  0
  5  6  1  0  0  0
  5 26  1  0  0  0
  5 89  1  0  0  0
  6 25  1  0  0  0
  6 90  1  0  0  0
  6 91  1  0  0  0
  7  8  2  0  0  0
  7 26  1  0  0  0
  7 29  1  0  0  0
  8  9  1  0  0  0
  8 22  1  0  0  0
  9 10  1  0  0  0
  9 27  2  0  0  0
 10 11  2  0  0  0
 10 15  1  0  0  0
 11 12  1  0  0  0
 11 92  1  0  0  0
 12 13  2  0  0  0
 12 93  1  0  0  0
 13 14  1  0  0  0
 13 31  1  0  0  0
 14 15  2  0  0  0
 14 94  1  0  0  0
 15 95  1  0  0  0
 16 17  2  0  0  0
 16 21  1  0  0  0
 16 31  1  0  0  0
 17 18  1  0  0  0
 17 96  1  0  0  0
 18 19  2  0  0  0
 18 97  1  0  0  0
 19 20  1  0  0  0
 19 24  1  0  0  0
 20 21  2  0  0  0
 20 98  1  0  0  0
 21 23  1  0  0  0
 22 28  1  0  0  0
 22 32  2  0  0  0
 26 27  1  0  0  0
 28 99  1  0  0  0
 28100  1  0  0  0
 29101  1  0  0  0
 29102  1  0  0  0
 33 34  1  0  0  0
 33 66  1  0  0  0
 33 70  2  0  0  0
 34 36  1  0  0  0
 34 59  1  0  0  0
 34103  1  0  0  0
 35 44  2  0  0  0
 35 45  1  0  0  0
 35 68  1  0  0  0
 36 56  1  0  0  0
 36104  1  0  0  0
 37 39  1  0  0  0
 37 47  1  0  0  0
 37 66  1  0  0  0
 37105  1  0  0  0
 38 43  2  0  0  0
 38 46  1  0  0  0
 38 47  1  0  0  0
 39 64  1  0  0  0
 39 67  2  0  0  0
 40 52  1  0  0  0
 40 53  2  0  0  0
 40 58  1  0  0  0
 41106  1  0  0  0
 41107  1  0  0  0
 41108  1  0  0  0
 41 48  1  0  0  0
 42 43  1  0  0  0
 42 66  1  0  0  0
 42109  1  0  0  0
 42110  1  0  0  0
 43 44  1  0  0  0
 44111  1  0  0  0
 45 46  2  0  0  0
 45112  1  0  0  0
 46113  1  0  0  0
 47114  1  0  0  0
 47115  1  0  0  0
 48 56  1  0  0  0
 48 65  1  0  0  0
 48116  1  0  0  0
 49 50  1  0  0  0
 49 53  1  0  0  0
 49 64  1  0  0  0
 49117  1  0  0  0
 50 51  1  0  0  0
 50118  1  0  0  0
 50119  1  0  0  0
 51 52  1  0  0  0
 51120  1  0  0  0
 51121  1  0  0  0
 52122  1  0  0  0
 52123  1  0  0  0
 53 54  1  0  0  0
 54 55  2  0  0  0
 54124  1  0  0  0
 55 57  1  0  0  0
 55125  1  0  0  0
 56 69  2  0  0  0
 57 58  2  0  0  0
 57126  1  0  0  0
 58127  1  0  0  0
 59 60  1  0  0  0
 59 61  1  0  0  0
 59 62  1  0  0  0
 60128  1  0  0  0
 60129  1  0  0  0
 60130  1  0  0  0
 61131  1  0  0  0
 61132  1  0  0  0
 61133  1  0  0  0
 62134  1  0  0  0
 62135  1  0  0  0
 62136  1  0  0  0
 63 65  1  0  0  0
 63137  1  0  0  0
 63138  1  0  0  0
 63139  1  0  0  0
 64140  1  0  0  0
 65141  1  0  0  0
 68 77  1  0  0  0
 71 72  2  0  0  0
 71 82  1  0  0  0
 71142  1  0  0  0
 72 79  1  0  0  0
 72 80  1  0  0  0
 73 75  1  0  0  0
 73 79  2  0  0  0
 73 82  1  0  0  0
 74143  1  0  0  0
 74144  1  0  0  0
 74145  1  0  0  0
 74 78  1  0  0  0
 75 81  1  0  0  0
 75146  1  0  0  0
 75147  1  0  0  0
 76 78  1  0  0  0
 76 80  1  0  0  0
 76148  1  0  0  0
 76149  1  0  0  0
 77 78  1  0  0  0
 77150  1  0  0  0
 77151  1  0  0  0
 78152  1  0  0  0
 80153  1  0  0  0
 81154  1  0  0  0
M  ISO  4   1 100  68 101  77 101  81 100
M  END
> <chiral flag>
0

> <version>
0

> <s_m_source_file>
/data/baiqing/PycharmProjects/Reinvent-master-3.2/result/LINK_invent/BTK/process_docking_weight1_custom_product_contain_oxygen_bond_distance_aromatic_linkinvent_7_9_3/rearranged_h_0194.sdf

> <i_m_source_file_index>
20

> <r_mmod_Potential_Energy-OPLS-2005>
-174.265045166016

> <r_mmod_Stretch_Energy-OPLS-2005>
52.0243034362793

> <r_mmod_Bend_Energy-OPLS-2005>
121.542678833008

> <r_mmod_Torsional_Energy-OPLS-2005>
252.42692565918

> <r_mmod_Improper_Torsional_Energy-OPLS-2005>
6.09999656677246

> <r_mmod_Van_der_Waal_Energy-OPLS-2005>
119.428581237793

> <r_mmod_Electrostatic_Energy-OPLS-2005>
-530.635803222656

> <r_mmod_Solvation_Energy-OPLS-2005>
-223.242462158203

> <b_mmod_Minimization_Converged-OPLS-2005>
0

> <r_mmod_RMS_Derivative-OPLS-2005>
2.73866748809814

$$$$
20
                    3D
 Structure written by MMmdl.
158166  0  0  1  0            999 V2000
  -30.6963  -14.5123   20.5469 C   0  0  0  0  0  0
  -30.4216  -12.3270   19.4321 C   0  0  0  0  0  0
  -29.4950  -12.5043   18.2123 C   0  0  0  0  0  0
  -28.0173  -12.3613   18.6265 C   0  0  0  0  0  0
  -27.6580  -13.2146   19.8726 C   0  0  2  0  0  0
  -28.7028  -13.0281   20.9956 C   0  0  0  0  0  0
  -25.2570  -13.8173   20.5703 C   0  0  0  0  0  0
  -24.1837  -13.0438   20.9198 C   0  0  0  0  0  0
  -24.6401  -11.6910   20.8745 C   0  0  0  0  0  0
  -23.9069  -10.4295   21.0405 C   0  0  0  0  0  0
  -24.3618   -9.4216   21.9191 C   0  0  0  0  0  0
  -23.6295   -8.2254   22.0761 C   0  0  0  0  0  0
  -22.4279   -8.0294   21.3549 C   0  0  0  0  0  0
  -21.9909   -9.0266   20.4657 C   0  0  0  0  0  0
  -22.7243  -10.2142   20.3056 C   0  0  0  0  0  0
  -21.6854   -6.0742   22.5279 C   0  0  0  0  0  0
  -21.4012   -6.5638   23.8216 C   0  0  0  0  0  0
  -21.3660   -5.6790   24.9178 C   0  0  0  0  0  0
  -21.6046   -4.3054   24.7219 C   0  0  0  0  0  0
  -21.8816   -3.8149   23.4339 C   0  0  0  0  0  0
  -21.9191   -4.6971   22.3398 C   0  0  0  0  0  0
  -22.7858  -13.5233   21.1854 C   0  0  0  0  0  0
  -22.1662   -4.2157   21.0970 F   0  0  0  0  0  0
  -21.5630   -3.4536   25.7729 F   0  0  0  0  0  0
  -30.0266  -13.3319   20.4324 N   0  0  0  0  0  0
  -26.3013  -12.9361   20.3378 N   0  0  0  0  0  0
  -25.9330  -11.6507   20.5786 N   0  0  0  0  0  0
  -22.0492  -12.8228   22.0404 N   0  0  0  0  0  0
  -25.4256  -15.1890   20.4096 N   0  0  0  0  0  0
  -31.8403  -14.6642   20.1106 O   0  0  0  0  0  0
  -21.6643   -6.8893   21.4246 O   0  0  0  0  0  0
  -22.3549  -14.5541   20.6698 O   0  0  0  0  0  0
  -24.6163  -31.8665   23.2075 C   0  0  0  0  0  0
  -25.9052  -32.4814   23.8380 C   0  0  1  0  0  0
  -27.2330  -27.4125   20.1107 C   0  0  0  0  0  0
  -25.5900  -33.8612   24.2314 N   0  0  0  0  0  0
  -23.4054  -30.4879   21.5479 C   0  0  2  0  0  0
  -24.8537  -28.9479   20.1135 C   0  0  0  0  0  0
  -22.7423  -29.4640   22.4975 C   0  0  0  0  0  0
  -18.0275  -28.1380   22.8497 C   0  0  0  0  0  0
  -24.1482  -36.7300   23.2632 C   0  0  0  0  0  0
  -25.9345  -30.8277   21.3603 C   0  0  0  0  0  0
  -26.0139  -29.4597   20.7084 C   0  0  0  0  0  0
  -27.2091  -28.7017   20.6970 C   0  0  0  0  0  0
  -26.0597  -26.9188   19.5049 C   0  0  0  0  0  0
  -24.8727  -27.6798   19.5055 C   0  0  0  0  0  0
  -23.6154  -29.8168   20.1632 C   0  0  0  0  0  0
  -25.4105  -36.3113   24.0332 C   0  0  1  0  0  0
  -20.5869  -28.3660   23.1317 C   0  0  2  0  0  0
  -20.6761  -26.9391   22.5431 C   0  0  0  0  0  0
  -19.5742  -26.6380   21.5223 C   0  0  0  0  0  0
  -18.1916  -26.7930   22.1625 C   0  0  0  0  0  0
  -19.1526  -28.8834   23.2905 C   0  0  0  0  0  0
  -18.9460  -30.1440   23.8913 C   0  0  0  0  0  0
  -17.6464  -30.6589   24.0555 C   0  0  0  0  0  0
  -25.9040  -34.9472   23.5129 C   0  0  0  0  0  0
  -16.5351  -29.9094   23.6320 C   0  0  0  0  0  0
  -16.7263  -28.6506   23.0348 C   0  0  0  0  0  0
  -26.4467  -31.6602   25.0722 C   0  0  0  0  0  0
  -25.3713  -31.3724   26.1459 C   0  0  0  0  0  0
  -27.0301  -30.3047   24.6102 C   0  0  0  0  0  0
  -27.6046  -32.4318   25.7490 C   0  0  0  0  0  0
  -27.5576  -37.1805   24.8466 C   0  0  0  0  0  0
  -21.4149  -29.3025   22.3721 N   0  0  0  0  0  0
  -26.4286  -37.3802   23.9412 N   0  0  0  0  0  0
  -24.6703  -31.0751   22.0974 N   0  0  0  0  0  0
  -23.4193  -28.8187   23.3023 O   0  0  0  0  0  0
  -28.3922  -26.6569   20.1214 O   0  0  0  0  0  0
  -26.5608  -34.8923   22.4698 O   0  0  0  0  0  0
  -23.5355  -32.1422   23.7464 O   0  0  0  0  0  0
  -29.9875  -19.4251   20.6715 C   0  0  0  0  0  0
  -27.8484  -19.5752   19.7870 C   0  0  0  0  0  0
  -28.9569  -20.2902   20.1604 C   0  0  0  0  0  0
  -29.6489  -18.0832   20.7065 C   0  0  0  0  0  0
  -27.0640  -22.2542   21.3166 C   0  0  0  0  0  0
  -27.5328  -25.4813   22.1495 C   0  0  0  0  0  0
  -30.5052  -16.9371   21.2250 C   0  0  0  0  0  0
  -28.3057  -24.1118   20.0371 C   0  0  0  0  0  0
  -28.4356  -22.7390   20.8005 C   0  0  1  0  0  0
  -28.4293  -25.4233   20.8931 C   0  0  2  0  0  0
  -29.1340  -21.6986   20.0097 N   0  0  0  0  0  0
  -29.9949  -15.5598   21.0341 N   0  0  0  0  0  0
  -28.0369  -17.8586   20.0743 S   0  0  0  0  0  0
  -31.4676  -12.4191   19.1328 H   0  0  0  0  0  0
  -30.3207  -11.3241   19.8499 H   0  0  0  0  0  0
  -29.7386  -11.7700   17.4441 H   0  0  0  0  0  0
  -29.6611  -13.4850   17.7620 H   0  0  0  0  0  0
  -27.8348  -11.3076   18.8386 H   0  0  0  0  0  0
  -27.3650  -12.6234   17.7930 H   0  0  0  0  0  0
  -27.6905  -14.2574   19.5569 H   0  0  0  0  0  0
  -28.6880  -12.0016   21.3649 H   0  0  0  0  0  0
  -28.4685  -13.6527   21.8579 H   0  0  0  0  0  0
  -25.2755   -9.5700   22.4776 H   0  0  0  0  0  0
  -24.0009   -7.4648   22.7479 H   0  0  0  0  0  0
  -21.0836   -8.8794   19.8970 H   0  0  0  0  0  0
  -22.3709  -10.9681   19.6164 H   0  0  0  0  0  0
  -21.2001   -7.6149   23.9721 H   0  0  0  0  0  0
  -21.1493   -6.0517   25.9083 H   0  0  0  0  0  0
  -22.0593   -2.7611   23.2836 H   0  0  0  0  0  0
  -22.4082  -11.9865   22.4762 H   0  0  0  0  0  0
  -21.1120  -13.1283   22.2620 H   0  0  0  0  0  0
  -24.6554  -15.8409   20.5115 H   0  0  0  0  0  0
  -26.2724  -15.6308   20.0756 H   0  0  0  0  0  0
  -26.7125  -32.5511   23.1144 H   0  0  0  0  0  0
  -25.0084  -33.9782   25.0484 H   0  0  0  0  0  0
  -22.6954  -31.3053   21.4060 H   0  0  0  0  0  0
  -23.3753  -35.9630   23.3329 H   0  0  0  0  0  0
  -24.3575  -36.8885   22.2043 H   0  0  0  0  0  0
  -23.7225  -37.6506   23.6626 H   0  0  0  0  0  0
  -26.0487  -31.5925   20.5909 H   0  0  0  0  0  0
  -26.8209  -30.8836   21.9794 H   0  0  0  0  0  0
  -28.1053  -29.0918   21.1590 H   0  0  0  0  0  0
  -26.0608  -25.9457   19.0360 H   0  0  0  0  0  0
  -23.9810  -27.2840   19.0391 H   0  0  0  0  0  0
  -23.7231  -30.5902   19.4026 H   0  0  0  0  0  0
  -22.7400  -29.2367   19.8676 H   0  0  0  0  0  0
  -25.1283  -36.1983   25.0823 H   0  0  0  0  0  0
  -20.9953  -28.3229   24.1437 H   0  0  0  0  0  0
  -20.5660  -26.2263   23.3619 H   0  0  0  0  0  0
  -21.6632  -26.7433   22.1218 H   0  0  0  0  0  0
  -19.6902  -25.6294   21.1242 H   0  0  0  0  0  0
  -19.6685  -27.3198   20.6758 H   0  0  0  0  0  0
  -17.4190  -26.6684   21.4020 H   0  0  0  0  0  0
  -18.0295  -26.0072   22.9014 H   0  0  0  0  0  0
  -19.7937  -30.7247   24.2288 H   0  0  0  0  0  0
  -17.5022  -31.6271   24.5166 H   0  0  0  0  0  0
  -15.5353  -30.3004   23.7634 H   0  0  0  0  0  0
  -15.8659  -28.0829   22.7053 H   0  0  0  0  0  0
  -24.5895  -30.7062   25.7795 H   0  0  0  0  0  0
  -24.8885  -32.2887   26.4873 H   0  0  0  0  0  0
  -25.8032  -30.8918   27.0248 H   0  0  0  0  0  0
  -26.2863  -29.6830   24.1111 H   0  0  0  0  0  0
  -27.4041  -29.7255   25.4557 H   0  0  0  0  0  0
  -27.8704  -30.4383   23.9284 H   0  0  0  0  0  0
  -27.2677  -33.3621   26.2077 H   0  0  0  0  0  0
  -28.3849  -32.6880   25.0309 H   0  0  0  0  0  0
  -28.0726  -31.8440   26.5399 H   0  0  0  0  0  0
  -28.2603  -38.0095   24.7522 H   0  0  0  0  0  0
  -28.1052  -36.2629   24.6277 H   0  0  0  0  0  0
  -27.2297  -37.1447   25.8868 H   0  0  0  0  0  0
  -20.9309  -29.8763   21.6956 H   0  0  0  0  0  0
  -26.0182  -38.2878   24.1425 H   0  0  0  0  0  0
  -30.9408  -19.8101   21.0050 H   0  0  0  0  0  0
  -26.9310  -19.9431   19.3452 H   0  0  0  0  0  0
  -26.5730  -22.9946   21.9440 H   0  0  0  0  0  0
  -27.1588  -21.3565   21.9283 H   0  0  0  0  0  0
  -26.3811  -22.0340   20.4962 H   0  0  0  0  0  0
  -27.6628  -26.4244   22.6808 H   0  0  0  0  0  0
  -26.4760  -25.3793   21.9026 H   0  0  0  0  0  0
  -27.7899  -24.6935   22.8581 H   0  0  0  0  0  0
  -30.6500  -17.0710   22.2979 H   0  0  0  0  0  0
  -31.5018  -17.0362   20.7919 H   0  0  0  0  0  0
  -27.3725  -24.1222   19.4744 H   0  0  0  0  0  0
  -29.0899  -24.1702   19.2804 H   0  0  0  0  0  0
  -29.0762  -22.9127   21.6677 H   0  0  0  0  0  0
  -29.4484  -25.4087   21.2814 H   0  0  0  0  0  0
  -30.1175  -21.9379   19.8999 H   0  0  0  0  0  0
  -29.0513  -15.3731   21.3383 H   0  0  0  0  0  0
  1 25  1  0  0  0
  1 30  2  0  0  0
  1 82  1  0  0  0
  2  3  1  0  0  0
  2 25  1  0  0  0
  2 84  1  0  0  0
  2 85  1  0  0  0
  3  4  1  0  0  0
  3 86  1  0  0  0
  3 87  1  0  0  0
  4  5  1  0  0  0
  4 88  1  0  0  0
  4 89  1  0  0  0
  5  6  1  0  0  0
  5 26  1  0  0  0
  5 90  1  0  0  0
  6 25  1  0  0  0
  6 91  1  0  0  0
  6 92  1  0  0  0
  7  8  2  0  0  0
  7 26  1  0  0  0
  7 29  1  0  0  0
  8  9  1  0  0  0
  8 22  1  0  0  0
  9 10  1  0  0  0
  9 27  2  0  0  0
 10 11  2  0  0  0
 10 15  1  0  0  0
 11 12  1  0  0  0
 11 93  1  0  0  0
 12 13  2  0  0  0
 12 94  1  0  0  0
 13 14  1  0  0  0
 13 31  1  0  0  0
 14 15  2  0  0  0
 14 95  1  0  0  0
 15 96  1  0  0  0
 16 17  2  0  0  0
 16 21  1  0  0  0
 16 31  1  0  0  0
 17 18  1  0  0  0
 17 97  1  0  0  0
 18 19  2  0  0  0
 18 98  1  0  0  0
 19 20  1  0  0  0
 19 24  1  0  0  0
 20 21  2  0  0  0
 20 99  1  0  0  0
 21 23  1  0  0  0
 22 28  1  0  0  0
 22 32  2  0  0  0
 26 27  1  0  0  0
 28100  1  0  0  0
 28101  1  0  0  0
 29102  1  0  0  0
 29103  1  0  0  0
 33 34  1  0  0  0
 33 66  1  0  0  0
 33 70  2  0  0  0
 34 36  1  0  0  0
 34 59  1  0  0  0
 34104  1  0  0  0
 35 44  2  0  0  0
 35 45  1  0  0  0
 35 68  1  0  0  0
 36 56  1  0  0  0
 36105  1  0  0  0
 37 39  1  0  0  0
 37 47  1  0  0  0
 37 66  1  0  0  0
 37106  1  0  0  0
 38 43  2  0  0  0
 38 46  1  0  0  0
 38 47  1  0  0  0
 39 64  1  0  0  0
 39 67  2  0  0  0
 40 52  1  0  0  0
 40 53  2  0  0  0
 40 58  1  0  0  0
 41107  1  0  0  0
 41108  1  0  0  0
 41109  1  0  0  0
 41 48  1  0  0  0
 42 43  1  0  0  0
 42 66  1  0  0  0
 42110  1  0  0  0
 42111  1  0  0  0
 43 44  1  0  0  0
 44112  1  0  0  0
 45 46  2  0  0  0
 45113  1  0  0  0
 46114  1  0  0  0
 47115  1  0  0  0
 47116  1  0  0  0
 48 56  1  0  0  0
 48 65  1  0  0  0
 48117  1  0  0  0
 49 50  1  0  0  0
 49 53  1  0  0  0
 49 64  1  0  0  0
 49118  1  0  0  0
 50 51  1  0  0  0
 50119  1  0  0  0
 50120  1  0  0  0
 51 52  1  0  0  0
 51121  1  0  0  0
 51122  1  0  0  0
 52123  1  0  0  0
 52124  1  0  0  0
 53 54  1  0  0  0
 54 55  2  0  0  0
 54125  1  0  0  0
 55 57  1  0  0  0
 55126  1  0  0  0
 56 69  2  0  0  0
 57 58  2  0  0  0
 57127  1  0  0  0
 58128  1  0  0  0
 59 60  1  0  0  0
 59 61  1  0  0  0
 59 62  1  0  0  0
 60129  1  0  0  0
 60130  1  0  0  0
 60131  1  0  0  0
 61132  1  0  0  0
 61133  1  0  0  0
 61134  1  0  0  0
 62135  1  0  0  0
 62136  1  0  0  0
 62137  1  0  0  0
 63 65  1  0  0  0
 63138  1  0  0  0
 63139  1  0  0  0
 63140  1  0  0  0
 64141  1  0  0  0
 65142  1  0  0  0
 68 80  1  0  0  0
 71 73  1  0  0  0
 71 74  2  0  0  0
 71143  1  0  0  0
 72 73  2  0  0  0
 72 83  1  0  0  0
 72144  1  0  0  0
 73 81  1  0  0  0
 74 77  1  0  0  0
 74 83  1  0  0  0
 75145  1  0  0  0
 75146  1  0  0  0
 75147  1  0  0  0
 75 79  1  0  0  0
 76148  1  0  0  0
 76149  1  0  0  0
 76150  1  0  0  0
 76 80  1  0  0  0
 77 82  1  0  0  0
 77151  1  0  0  0
 77152  1  0  0  0
 78 79  1  0  0  0
 78 80  1  0  0  0
 78153  1  0  0  0
 78154  1  0  0  0
 79 81  1  0  0  0
 79155  1  0  0  0
 80156  1  0  0  0
 81157  1  0  0  0
 82158  1  0  0  0
M  ISO  4   1 100  68 101  80 101  82 100
M  END
> <chiral flag>
0

> <version>
0

> <s_m_source_file>
/data/baiqing/PycharmProjects/Reinvent-master-3.2/result/LINK_invent/BTK/process_docking_weight1_custom_product_contain_oxygen_bond_distance_aromatic_linkinvent_7_9_3/rearranged_h_0194.sdf

> <i_m_source_file_index>
21

> <r_mmod_Potential_Energy-OPLS-2005>
-91.0735244750977

> <r_mmod_Stretch_Energy-OPLS-2005>
45.6053352355957

> <r_mmod_Bend_Energy-OPLS-2005>
115.820434570312

> <r_mmod_Torsional_Energy-OPLS-2005>
242.65087890625

> <r_mmod_Improper_Torsional_Energy-OPLS-2005>
7.13917589187622

> <r_mmod_Van_der_Waal_Energy-OPLS-2005>
125.11222076416

> <r_mmod_Electrostatic_Energy-OPLS-2005>
-431.822631835938

> <r_mmod_Solvation_Energy-OPLS-2005>
-213.366165161133

> <b_mmod_Minimization_Converged-OPLS-2005>
0

> <r_mmod_RMS_Derivative-OPLS-2005>
1.53697121143341

$$$$
21
                    3D
 Structure written by MMmdl.
146153  0  0  1  0            999 V2000
  -30.3363  -15.5554   20.3370 C   0  0  0  0  0  0
  -30.4269  -13.0226   19.5343 C   0  0  0  0  0  0
  -29.5458  -12.6351   18.3144 C   0  0  0  0  0  0
  -28.1140  -12.2960   18.7565 C   0  0  0  0  0  0
  -27.5976  -13.3002   19.8127 C   0  0  2  0  0  0
  -28.6183  -13.6044   20.9333 C   0  0  0  0  0  0
  -25.2332  -13.8275   20.5784 C   0  0  0  0  0  0
  -24.1714  -13.0432   20.9282 C   0  0  0  0  0  0
  -24.6406  -11.6940   20.8765 C   0  0  0  0  0  0
  -23.9109  -10.4291   21.0400 C   0  0  0  0  0  0
  -24.3647   -9.4204   21.9180 C   0  0  0  0  0  0
  -23.6310   -8.2244   22.0753 C   0  0  0  0  0  0
  -22.4291   -8.0285   21.3544 C   0  0  0  0  0  0
  -21.9936   -9.0260   20.4644 C   0  0  0  0  0  0
  -22.7277  -10.2132   20.3050 C   0  0  0  0  0  0
  -21.6858   -6.0740   22.5279 C   0  0  0  0  0  0
  -21.4018   -6.5642   23.8212 C   0  0  0  0  0  0
  -21.3660   -5.6794   24.9174 C   0  0  0  0  0  0
  -21.6044   -4.3056   24.7224 C   0  0  0  0  0  0
  -21.8818   -3.8149   23.4344 C   0  0  0  0  0  0
  -21.9194   -4.6966   22.3401 C   0  0  0  0  0  0
  -22.7728  -13.5167   21.1919 C   0  0  0  0  0  0
  -22.1661   -4.2152   21.0978 F   0  0  0  0  0  0
  -21.5627   -3.4539   25.7736 F   0  0  0  0  0  0
  -29.8032  -14.2022   20.2797 N   0  0  0  0  0  0
  -26.2773  -12.9592   20.3225 N   0  0  0  0  0  0
  -25.9350  -11.6672   20.5705 N   0  0  0  0  0  0
  -22.0392  -12.8145   22.0472 N   0  0  0  0  0  0
  -25.3929  -15.2015   20.4225 N   0  0  0  0  0  0
  -31.5699  -15.4985   20.1809 O   0  0  0  0  0  0
  -21.6647   -6.8886   21.4242 O   0  0  0  0  0  0
  -22.3403  -14.5465   20.6755 O   0  0  0  0  0  0
  -24.6803  -31.8036   23.1542 C   0  0  0  0  0  0
  -25.9400  -32.4485   23.8075 C   0  0  1  0  0  0
  -27.2248  -26.7401   20.2111 C   0  0  0  0  0  0
  -25.5993  -33.8308   24.1966 N   0  0  0  0  0  0
  -23.5044  -30.4068   21.5075 C   0  0  2  0  0  0
  -24.9607  -28.7538   20.1180 C   0  0  0  0  0  0
  -22.7749  -29.4334   22.4723 C   0  0  0  0  0  0
  -18.0335  -28.1419   22.8456 C   0  0  0  0  0  0
  -24.1496  -36.7162   23.2653 C   0  0  0  0  0  0
  -26.0831  -30.5492   21.4121 C   0  0  0  0  0  0
  -26.1492  -29.1179   20.7618 C   0  0  0  0  0  0
  -27.2686  -28.1383   20.7748 C   0  0  0  0  0  0
  -26.0029  -26.5736   19.5136 C   0  0  0  0  0  0
  -24.9240  -27.5065   19.4707 C   0  0  0  0  0  0
  -23.7558  -29.7053   20.1419 C   0  0  0  0  0  0
  -25.4144  -36.2906   24.0284 C   0  0  1  0  0  0
  -20.5969  -28.3775   23.1149 C   0  0  2  0  0  0
  -20.6803  -26.9438   22.5403 C   0  0  0  0  0  0
  -19.5779  -26.6371   21.5215 C   0  0  0  0  0  0
  -18.1962  -26.7947   22.1619 C   0  0  0  0  0  0
  -19.1601  -28.8921   23.2785 C   0  0  0  0  0  0
  -18.9507  -30.1506   23.8828 C   0  0  0  0  0  0
  -17.6498  -30.6602   24.0551 C   0  0  0  0  0  0
  -25.9121  -34.9294   23.4960 C   0  0  0  0  0  0
  -16.5387  -29.9084   23.6349 C   0  0  0  0  0  0
  -16.7316  -28.6507   23.0365 C   0  0  0  0  0  0
  -26.4590  -31.6507   25.0684 C   0  0  0  0  0  0
  -25.3666  -31.3813   26.1305 C   0  0  0  0  0  0
  -27.0520  -30.2851   24.6557 C   0  0  0  0  0  0
  -27.6043  -32.4362   25.7502 C   0  0  0  0  0  0
  -27.5564  -37.1739   24.8467 C   0  0  0  0  0  0
  -21.4400  -29.3029   22.3473 N   0  0  0  0  0  0
  -26.4274  -37.3662   23.9405 N   0  0  0  0  0  0
  -24.7791  -30.9519   22.0773 N   0  0  0  0  0  0
  -23.4209  -28.7932   23.3053 O   0  0  0  0  0  0
  -28.2034  -25.5483   20.2791 O   0  0  0  0  0  0
  -26.5757  -34.8866   22.4574 O   0  0  0  0  0  0
  -23.5831  -32.1092   23.6521 O   0  0  0  0  0  0
  -30.7868  -18.9196   21.5270 C   0  0  0  0  0  0
  -28.9986  -22.1729   20.3081 C   0  0  0  0  0  0
  -28.7662  -20.2617   20.2872 C   0  0  0  0  0  0
  -28.0033  -23.8169   20.1953 C   0  0  0  0  0  0
  -29.8216  -18.6586   20.3650 C   0  0  1  0  0  0
  -29.5836  -16.9095   20.3810 N   0  0  0  0  0  0
  -31.4255  -13.2726   19.1743 H   0  0  0  0  0  0
  -30.5692  -12.1679   20.1978 H   0  0  0  0  0  0
  -29.9845  -11.7938   17.7762 H   0  0  0  0  0  0
  -29.5201  -13.4697   17.6122 H   0  0  0  0  0  0
  -28.1275  -11.2932   19.1852 H   0  0  0  0  0  0
  -27.4436  -12.2553   17.8971 H   0  0  0  0  0  0
  -27.4694  -14.2298   19.2563 H   0  0  0  0  0  0
  -28.8605  -12.7137   21.5148 H   0  0  0  0  0  0
  -28.2005  -14.3276   21.6353 H   0  0  0  0  0  0
  -25.2786   -9.5679   22.4764 H   0  0  0  0  0  0
  -24.0012   -7.4637   22.7478 H   0  0  0  0  0  0
  -21.0864   -8.8786   19.8951 H   0  0  0  0  0  0
  -22.3734  -10.9673   19.6163 H   0  0  0  0  0  0
  -21.2014   -7.6150   23.9717 H   0  0  0  0  0  0
  -21.1482   -6.0523   25.9076 H   0  0  0  0  0  0
  -22.0596   -2.7611   23.2843 H   0  0  0  0  0  0
  -22.4035  -11.9822   22.4870 H   0  0  0  0  0  0
  -21.0999  -13.1140   22.2670 H   0  0  0  0  0  0
  -24.6203  -15.8489   20.5362 H   0  0  0  0  0  0
  -26.2320  -15.6447   20.0729 H   0  0  0  0  0  0
  -26.7479  -32.4969   23.0788 H   0  0  0  0  0  0
  -25.0056  -33.9352   25.0063 H   0  0  0  0  0  0
  -22.8278  -31.2432   21.3201 H   0  0  0  0  0  0
  -23.3773  -35.9476   23.3271 H   0  0  0  0  0  0
  -24.3563  -36.8865   22.2075 H   0  0  0  0  0  0
  -23.7242  -37.6325   23.6755 H   0  0  0  0  0  0
  -26.2821  -31.2769   20.6242 H   0  0  0  0  0  0
  -26.9356  -30.6152   22.0758 H   0  0  0  0  0  0
  -28.1654  -28.4227   21.3069 H   0  0  0  0  0  0
  -25.8440  -25.6274   19.0164 H   0  0  0  0  0  0
  -24.0255  -27.2193   18.9421 H   0  0  0  0  0  0
  -23.9284  -30.4660   19.3796 H   0  0  0  0  0  0
  -22.8611  -29.1701   19.8188 H   0  0  0  0  0  0
  -25.1354  -36.1673   25.0775 H   0  0  0  0  0  0
  -21.0053  -28.3398   24.1275 H   0  0  0  0  0  0
  -20.5667  -26.2398   23.3661 H   0  0  0  0  0  0
  -21.6665  -26.7385   22.1220 H   0  0  0  0  0  0
  -19.6935  -25.6263   21.1290 H   0  0  0  0  0  0
  -19.6722  -27.3143   20.6715 H   0  0  0  0  0  0
  -17.4231  -26.6689   21.4024 H   0  0  0  0  0  0
  -18.0352  -26.0106   22.9032 H   0  0  0  0  0  0
  -19.7983  -30.7340   24.2167 H   0  0  0  0  0  0
  -17.5048  -31.6275   24.5166 H   0  0  0  0  0  0
  -15.5384  -30.2964   23.7713 H   0  0  0  0  0  0
  -15.8717  -28.0803   22.7119 H   0  0  0  0  0  0
  -24.5873  -30.7140   25.7606 H   0  0  0  0  0  0
  -24.8831  -32.3032   26.4546 H   0  0  0  0  0  0
  -25.7851  -30.9097   27.0205 H   0  0  0  0  0  0
  -26.3230  -29.6471   24.1551 H   0  0  0  0  0  0
  -27.3964  -29.7287   25.5285 H   0  0  0  0  0  0
  -27.9203  -30.3986   24.0065 H   0  0  0  0  0  0
  -27.2584  -33.3729   26.1886 H   0  0  0  0  0  0
  -28.3954  -32.6820   25.0404 H   0  0  0  0  0  0
  -28.0602  -31.8621   26.5578 H   0  0  0  0  0  0
  -28.2555  -38.0057   24.7506 H   0  0  0  0  0  0
  -28.1084  -36.2579   24.6307 H   0  0  0  0  0  0
  -27.2276  -37.1391   25.8869 H   0  0  0  0  0  0
  -20.9696  -29.8688   21.6548 H   0  0  0  0  0  0
  -26.0104  -38.2712   24.1413 H   0  0  0  0  0  0
  -31.6235  -18.2203   21.5217 H   0  0  0  0  0  0
  -30.2778  -18.8275   22.4867 H   0  0  0  0  0  0
  -31.2047  -19.9254   21.4702 H   0  0  0  0  0  0
  -29.7528  -22.3158   19.5341 H   0  0  0  0  0  0
  -29.5590  -22.3165   21.2320 H   0  0  0  0  0  0
  -28.1671  -20.1069   19.3895 H   0  0  0  0  0  0
  -28.0484  -20.1095   21.0936 H   0  0  0  0  0  0
  -27.2177  -23.6674   20.9362 H   0  0  0  0  0  0
  -27.4774  -23.7108   19.2464 H   0  0  0  0  0  0
  -30.4269  -18.7539   19.4622 H   0  0  0  0  0  0
  -28.5954  -16.7059   20.4378 H   0  0  0  0  0  0
  1 25  1  0  0  0
  1 30  2  0  0  0
  1 76  1  0  0  0
  2  3  1  0  0  0
  2 25  1  0  0  0
  2 77  1  0  0  0
  2 78  1  0  0  0
  3  4  1  0  0  0
  3 79  1  0  0  0
  3 80  1  0  0  0
  4  5  1  0  0  0
  4 81  1  0  0  0
  4 82  1  0  0  0
  5  6  1  0  0  0
  5 26  1  0  0  0
  5 83  1  0  0  0
  6 25  1  0  0  0
  6 84  1  0  0  0
  6 85  1  0  0  0
  7  8  2  0  0  0
  7 26  1  0  0  0
  7 29  1  0  0  0
  8  9  1  0  0  0
  8 22  1  0  0  0
  9 10  1  0  0  0
  9 27  2  0  0  0
 10 11  2  0  0  0
 10 15  1  0  0  0
 11 12  1  0  0  0
 11 86  1  0  0  0
 12 13  2  0  0  0
 12 87  1  0  0  0
 13 14  1  0  0  0
 13 31  1  0  0  0
 14 15  2  0  0  0
 14 88  1  0  0  0
 15 89  1  0  0  0
 16 17  2  0  0  0
 16 21  1  0  0  0
 16 31  1  0  0  0
 17 18  1  0  0  0
 17 90  1  0  0  0
 18 19  2  0  0  0
 18 91  1  0  0  0
 19 20  1  0  0  0
 19 24  1  0  0  0
 20 21  2  0  0  0
 20 92  1  0  0  0
 21 23  1  0  0  0
 22 28  1  0  0  0
 22 32  2  0  0  0
 26 27  1  0  0  0
 28 93  1  0  0  0
 28 94  1  0  0  0
 29 95  1  0  0  0
 29 96  1  0  0  0
 33 34  1  0  0  0
 33 66  1  0  0  0
 33 70  2  0  0  0
 34 36  1  0  0  0
 34 59  1  0  0  0
 34 97  1  0  0  0
 35 44  2  0  0  0
 35 45  1  0  0  0
 35 68  1  0  0  0
 36 56  1  0  0  0
 36 98  1  0  0  0
 37 39  1  0  0  0
 37 47  1  0  0  0
 37 66  1  0  0  0
 37 99  1  0  0  0
 38 43  2  0  0  0
 38 46  1  0  0  0
 38 47  1  0  0  0
 39 64  1  0  0  0
 39 67  2  0  0  0
 40 52  1  0  0  0
 40 53  2  0  0  0
 40 58  1  0  0  0
 41100  1  0  0  0
 41101  1  0  0  0
 41102  1  0  0  0
 41 48  1  0  0  0
 42 43  1  0  0  0
 42 66  1  0  0  0
 42103  1  0  0  0
 42104  1  0  0  0
 43 44  1  0  0  0
 44105  1  0  0  0
 45 46  2  0  0  0
 45106  1  0  0  0
 46107  1  0  0  0
 47108  1  0  0  0
 47109  1  0  0  0
 48 56  1  0  0  0
 48 65  1  0  0  0
 48110  1  0  0  0
 49 50  1  0  0  0
 49 53  1  0  0  0
 49 64  1  0  0  0
 49111  1  0  0  0
 50 51  1  0  0  0
 50112  1  0  0  0
 50113  1  0  0  0
 51 52  1  0  0  0
 51114  1  0  0  0
 51115  1  0  0  0
 52116  1  0  0  0
 52117  1  0  0  0
 53 54  1  0  0  0
 54 55  2  0  0  0
 54118  1  0  0  0
 55 57  1  0  0  0
 55119  1  0  0  0
 56 69  2  0  0  0
 57 58  2  0  0  0
 57120  1  0  0  0
 58121  1  0  0  0
 59 60  1  0  0  0
 59 61  1  0  0  0
 59 62  1  0  0  0
 60122  1  0  0  0
 60123  1  0  0  0
 60124  1  0  0  0
 61125  1  0  0  0
 61126  1  0  0  0
 61127  1  0  0  0
 62128  1  0  0  0
 62129  1  0  0  0
 62130  1  0  0  0
 63 65  1  0  0  0
 63131  1  0  0  0
 63132  1  0  0  0
 63133  1  0  0  0
 64134  1  0  0  0
 65135  1  0  0  0
 68 74  1  0  0  0
 71136  1  0  0  0
 71137  1  0  0  0
 71138  1  0  0  0
 71 75  1  0  0  0
 72 73  1  0  0  0
 72 74  1  0  0  0
 72139  1  0  0  0
 72140  1  0  0  0
 73 75  1  0  0  0
 73141  1  0  0  0
 73142  1  0  0  0
 74143  1  0  0  0
 74144  1  0  0  0
 75 76  1  0  0  0
 75145  1  0  0  0
 76146  1  0  0  0
M  ISO  4   1 100  68 101  74 101  76 100
M  END
> <chiral flag>
0

> <version>
0

> <s_m_source_file>
/data/baiqing/PycharmProjects/Reinvent-master-3.2/result/LINK_invent/BTK/process_docking_weight1_custom_product_contain_oxygen_bond_distance_aromatic_linkinvent_7_9_3/rearranged_h_0194.sdf

> <i_m_source_file_index>
22

> <r_mmod_Potential_Energy-OPLS-2005>
2253.46655273438

> <r_mmod_Stretch_Energy-OPLS-2005>
1092.06420898438

> <r_mmod_Bend_Energy-OPLS-2005>
602.263549804688

> <r_mmod_Torsional_Energy-OPLS-2005>
208.014434814453

> <r_mmod_Improper_Torsional_Energy-OPLS-2005>
3.63497114181519

> <r_mmod_Van_der_Waal_Energy-OPLS-2005>
107.888961791992

> <r_mmod_Electrostatic_Energy-OPLS-2005>
-349.215301513672

> <r_mmod_Solvation_Energy-OPLS-2005>
-210.752288818359

> <b_mmod_Minimization_Converged-OPLS-2005>
0

> <r_mmod_RMS_Derivative-OPLS-2005>
0.152003392577171

$$$$
22
                    3D
 Structure written by MMmdl.
180188  0  0  1  0            999 V2000
  -29.8922  -14.4891   21.4827 C   0  0  0  0  0  0
  -31.0805  -13.3348   18.9606 C   0  0  0  0  0  0
  -30.0203  -12.3152   17.1289 C   0  0  0  0  0  0
  -27.6959  -12.1567   17.2603 C   0  0  0  0  0  0
  -27.0168  -12.1949   19.3949 C   0  0  2  0  0  0
  -28.4131  -12.4865   20.9249 C   0  0  0  0  0  0
  -25.8819  -14.1079   20.7933 C   0  0  0  0  0  0
  -24.5544  -13.2426   21.0429 C   0  0  0  0  0  0
  -24.6973  -11.8224   21.0050 C   0  0  0  0  0  0
  -23.9263  -10.5305   21.0975 C   0  0  0  0  0  0
  -24.3692   -9.4837   21.9455 C   0  0  0  0  0  0
  -23.6444   -8.2748   22.0796 C   0  0  0  0  0  0
  -22.4487   -8.0717   21.3531 C   0  0  0  0  0  0
  -22.0253   -9.0889   20.4758 C   0  0  0  0  0  0
  -22.7552  -10.2942   20.3420 C   0  0  0  0  0  0
  -21.6963   -6.1007   22.5206 C   0  0  0  0  0  0
  -21.4091   -6.5843   23.8179 C   0  0  0  0  0  0
  -21.3647   -5.6941   24.9107 C   0  0  0  0  0  0
  -21.6006   -4.3193   24.7119 C   0  0  0  0  0  0
  -21.8832   -3.8351   23.4217 C   0  0  0  0  0  0
  -21.9266   -4.7215   22.3313 C   0  0  0  0  0  0
  -23.0147  -13.5577   21.2718 C   0  0  0  0  0  0
  -22.1705   -4.2376   21.0889 F   0  0  0  0  0  0
  -21.5566   -3.4647   25.7597 F   0  0  0  0  0  0
  -30.0287  -13.3728   20.7124 N   0  0  0  0  0  0
  -26.1400  -12.8494   20.1785 N   0  0  0  0  0  0
  -25.9158  -11.8109   21.0375 N   0  0  0  0  0  0
  -22.3389  -12.8714   22.2027 N   0  0  0  0  0  0
  -25.8934  -17.0103   21.0310 N   0  0  0  0  0  0
  -30.8785  -15.2186   21.1803 O   0  0  0  0  0  0
  -21.6910   -6.9201   21.4154 O   0  0  0  0  0  0
  -22.3242  -14.3337   20.6020 O   0  0  0  0  0  0
  -24.6588  -31.8325   23.1815 C   0  0  0  0  0  0
  -25.9316  -32.4606   23.8242 C   0  0  1  0  0  0
  -27.0959  -26.9851   20.1006 C   0  0  0  0  0  0
  -25.6004  -33.8427   24.2135 N   0  0  0  0  0  0
  -23.4601  -30.4597   21.5333 C   0  0  2  0  0  0
  -24.8812  -28.8751   20.0984 C   0  0  0  0  0  0
  -22.7629  -29.4488   22.4795 C   0  0  0  0  0  0
  -18.0301  -28.1393   22.8465 C   0  0  0  0  0  0
  -24.1480  -36.7200   23.2646 C   0  0  0  0  0  0
  -26.0306  -30.6463   21.4079 C   0  0  0  0  0  0
  -26.0735  -29.2518   20.7307 C   0  0  0  0  0  0
  -27.1934  -28.3171   20.7183 C   0  0  0  0  0  0
  -25.8946  -26.7588   19.4164 C   0  0  0  0  0  0
  -24.8105  -27.6506   19.4270 C   0  0  0  0  0  0
  -23.6851  -29.8095   20.1466 C   0  0  0  0  0  0
  -25.4126  -36.2975   24.0305 C   0  0  1  0  0  0
  -20.5934  -28.3738   23.1193 C   0  0  2  0  0  0
  -20.6785  -26.9426   22.5395 C   0  0  0  0  0  0
  -19.5756  -26.6368   21.5206 C   0  0  0  0  0  0
  -18.1938  -26.7923   22.1620 C   0  0  0  0  0  0
  -19.1567  -28.8884   23.2812 C   0  0  0  0  0  0
  -18.9484  -30.1473   23.8850 C   0  0  0  0  0  0
  -17.6481  -30.6591   24.0550 C   0  0  0  0  0  0
  -25.9104  -34.9356   23.5033 C   0  0  0  0  0  0
  -16.5368  -29.9086   23.6340 C   0  0  0  0  0  0
  -16.7284  -28.6500   23.0368 C   0  0  0  0  0  0
  -26.4570  -31.6543   25.0759 C   0  0  0  0  0  0
  -25.3718  -31.3795   26.1431 C   0  0  0  0  0  0
  -27.0484  -30.2913   24.6500 C   0  0  0  0  0  0
  -27.6052  -32.4372   25.7556 C   0  0  0  0  0  0
  -27.5564  -37.1753   24.8464 C   0  0  0  0  0  0
  -21.4310  -29.3043   22.3557 N   0  0  0  0  0  0
  -26.4264  -37.3720   23.9417 N   0  0  0  0  0  0
  -24.7377  -31.0058   22.0928 N   0  0  0  0  0  0
  -23.4238  -28.8020   23.2957 O   0  0  0  0  0  0
  -28.0186  -25.8562   20.0772 O   0  0  0  0  0  0
  -26.5702  -34.8879   22.4619 O   0  0  0  0  0  0
  -23.5678  -32.1276   23.6941 O   0  0  0  0  0  0
  -28.0401  -16.2815   21.0524 C   0  0  0  0  0  0
  -27.5023  -16.6461   19.4949 C   0  0  0  0  0  0
  -26.1400  -15.7225   19.1168 C   0  0  0  0  0  0
  -27.1152  -15.5317   22.2540 C   0  0  0  0  0  0
  -30.2285  -22.6582   20.6752 C   0  0  0  0  0  0
  -29.2015  -19.5163   20.5938 C   0  0  0  0  0  0
  -28.8954  -10.9615   18.8371 C   0  0  0  0  0  0
  -29.1168  -14.5208   17.4168 C   0  0  0  0  0  0
  -30.0026  -11.3657   19.4175 C   0  0  0  0  0  0
  -27.4405  -23.1136   17.9817 C   0  0  0  0  0  0
  -27.7505  -14.6595   19.1504 C   0  0  0  0  0  0
  -29.4817  -22.7232   19.3267 C   0  0  0  0  0  0
  -27.2631  -21.1923   19.7233 C   0  0  0  0  0  0
  -27.5446  -24.3147   20.2335 C   0  0  0  0  0  0
  -27.8280  -19.5191   19.9422 C   0  0  1  0  0  0
  -28.8506  -13.2814   18.7505 C   0  0  0  0  0  0
  -27.9382  -22.8092   19.4138 C   0  0  2  0  0  0
  -24.4792  -15.6414   20.2380 N   0  0  0  0  0  0
  -25.0973  -15.4603   22.2652 N   0  0  0  0  0  0
  -27.5622  -18.1504   19.1201 N   0  0  0  0  0  0
  -28.5830  -14.7036   22.3368 N   0  0  0  0  0  0
  -31.3620  -14.3657   18.7458 H   0  0  0  0  0  0
  -32.0844  -12.9232   19.1120 H   0  0  0  0  0  0
  -30.4953  -11.3660   16.8553 H   0  0  0  0  0  0
  -30.2803  -12.8049   16.1867 H   0  0  0  0  0  0
  -27.3403  -11.2678   16.7296 H   0  0  0  0  0  0
  -27.1628  -12.9464   16.7315 H   0  0  0  0  0  0
  -26.5412  -11.2141   19.1929 H   0  0  0  0  0  0
  -28.5621  -11.5248   21.4000 H   0  0  0  0  0  0
  -27.9143  -12.6725   21.8628 H   0  0  0  0  0  0
  -25.2725   -9.6224   22.5244 H   0  0  0  0  0  0
  -24.0222   -7.5121   22.7458 H   0  0  0  0  0  0
  -21.1241   -8.9493   19.8899 H   0  0  0  0  0  0
  -22.3939  -11.0585   19.6688 H   0  0  0  0  0  0
  -21.2088   -7.6351   23.9783 H   0  0  0  0  0  0
  -21.1374   -6.0601   25.9025 H   0  0  0  0  0  0
  -22.0582   -2.7823   23.2659 H   0  0  0  0  0  0
  -22.8069  -12.2026   22.8008 H   0  0  0  0  0  0
  -21.3525  -13.0431   22.3434 H   0  0  0  0  0  0
  -24.9282  -17.2875   21.1893 H   0  0  0  0  0  0
  -26.3724  -17.5816   20.3272 H   0  0  0  0  0  0
  -26.7375  -32.5114   23.0944 H   0  0  0  0  0  0
  -25.0129  -33.9532   25.0269 H   0  0  0  0  0  0
  -22.7698  -31.2921   21.3836 H   0  0  0  0  0  0
  -23.3756  -35.9512   23.3277 H   0  0  0  0  0  0
  -24.3560  -36.8875   22.2064 H   0  0  0  0  0  0
  -23.7211  -37.6372   23.6720 H   0  0  0  0  0  0
  -26.2316  -31.3972   20.6423 H   0  0  0  0  0  0
  -26.8890  -30.6723   22.0694 H   0  0  0  0  0  0
  -28.1016  -28.5807   21.2424 H   0  0  0  0  0  0
  -25.7616  -25.8345   18.8733 H   0  0  0  0  0  0
  -23.9031  -27.3760   18.9071 H   0  0  0  0  0  0
  -23.8533  -30.5931   19.4047 H   0  0  0  0  0  0
  -22.7889  -29.2813   19.8156 H   0  0  0  0  0  0
  -25.1305  -36.1777   25.0794 H   0  0  0  0  0  0
  -21.0007  -28.3317   24.1319 H   0  0  0  0  0  0
  -20.5665  -26.2345   23.3621 H   0  0  0  0  0  0
  -21.6644  -26.7404   22.1192 H   0  0  0  0  0  0
  -19.6914  -25.6267   21.1260 H   0  0  0  0  0  0
  -19.6686  -27.3157   20.6717 H   0  0  0  0  0  0
  -17.4198  -26.6644   21.4032 H   0  0  0  0  0  0
  -18.0346  -26.0084   22.9041 H   0  0  0  0  0  0
  -19.7967  -30.7290   24.2205 H   0  0  0  0  0  0
  -17.5042  -31.6269   24.5157 H   0  0  0  0  0  0
  -15.5371  -30.2979   23.7693 H   0  0  0  0  0  0
  -15.8677  -28.0802   22.7134 H   0  0  0  0  0  0
  -24.5870  -30.7173   25.7748 H   0  0  0  0  0  0
  -24.8953  -32.3010   26.4794 H   0  0  0  0  0  0
  -25.7968  -30.8996   27.0257 H   0  0  0  0  0  0
  -26.3168  -29.6569   24.1482 H   0  0  0  0  0  0
  -27.3979  -29.7292   25.5171 H   0  0  0  0  0  0
  -27.9122  -30.4087   23.9953 H   0  0  0  0  0  0
  -27.2579  -33.3673   26.2071 H   0  0  0  0  0  0
  -28.3893  -32.6952   25.0424 H   0  0  0  0  0  0
  -28.0704  -31.8575   26.5536 H   0  0  0  0  0  0
  -28.2544  -38.0091   24.7553 H   0  0  0  0  0  0
  -28.1104  -36.2614   24.6234 H   0  0  0  0  0  0
  -27.2294  -37.1325   25.8875 H   0  0  0  0  0  0
  -20.9538  -29.8785   21.6754 H   0  0  0  0  0  0
  -26.0102  -38.2762   24.1484 H   0  0  0  0  0  0
  -28.9203  -16.7871   21.3983 H   0  0  0  0  0  0
  -30.8887  -23.5147   20.8274 H   0  0  0  0  0  0
  -30.8580  -21.7671   20.7131 H   0  0  0  0  0  0
  -29.5477  -22.6240   21.5266 H   0  0  0  0  0  0
  -29.2773  -20.3845   21.2393 H   0  0  0  0  0  0
  -30.0070  -19.5187   19.8609 H   0  0  0  0  0  0
  -29.3613  -18.6943   21.2759 H   0  0  0  0  0  0
  -29.1582  -10.2971   17.9322 H   0  0  0  0  0  0
  -28.0883  -10.3331   18.4224 H   0  0  0  0  0  0
  -28.3358  -10.3150   19.6352 H   0  0  0  0  0  0
  -30.1553  -14.7044   17.1415 H   0  0  0  0  0  0
  -28.8534  -15.5910   17.4798 H   0  0  0  0  0  0
  -28.6595  -14.2940   16.4533 H   0  0  0  0  0  0
  -30.8942  -10.9363   18.8159 H   0  0  0  0  0  0
  -30.0729  -10.8803   20.4641 H   0  0  0  0  0  0
  -30.9284  -11.4490   20.0165 H   0  0  0  0  0  0
  -27.6934  -22.3088   17.2922 H   0  0  0  0  0  0
  -27.8681  -24.0349   17.5784 H   0  0  0  0  0  0
  -26.3561  -23.2407   17.9584 H   0  0  0  0  0  0
  -28.7534  -15.0917   19.3366 H   0  0  0  0  0  0
  -27.8594  -14.3766   20.0846 H   0  0  0  0  0  0
  -29.7531  -21.8638   18.7062 H   0  0  0  0  0  0
  -29.8601  -23.5963   18.7880 H   0  0  0  0  0  0
  -26.8754  -21.3941   20.7253 H   0  0  0  0  0  0
  -26.3343  -21.1240   19.1521 H   0  0  0  0  0  0
  -27.8261  -24.1188   21.2670 H   0  0  0  0  0  0
  -26.4574  -24.3228   20.3045 H   0  0  0  0  0  0
  -27.1984  -19.2849   20.8011 H   0  0  0  0  0  0
  -27.1875  -18.3333   18.1884 H   0  0  0  0  0  0
  -28.4069  -13.8137   22.7780 H   0  0  0  0  0  0
  1 25  1  0  0  0
  1 30  2  0  0  0
  1 91  1  0  0  0
  2  3  1  0  0  0
  2 25  1  0  0  0
  2 92  1  0  0  0
  2 93  1  0  0  0
  3  4  1  0  0  0
  3 94  1  0  0  0
  3 95  1  0  0  0
  4  5  1  0  0  0
  4 96  1  0  0  0
  4 97  1  0  0  0
  5  6  1  0  0  0
  5 26  1  0  0  0
  5 98  1  0  0  0
  6 25  1  0  0  0
  6 99  1  0  0  0
  6100  1  0  0  0
  7  8  2  0  0  0
  7 26  1  0  0  0
  7 29  1  0  0  0
  8  9  1  0  0  0
  8 22  1  0  0  0
  9 10  1  0  0  0
  9 27  2  0  0  0
 10 11  2  0  0  0
 10 15  1  0  0  0
 11 12  1  0  0  0
 11101  1  0  0  0
 12 13  2  0  0  0
 12102  1  0  0  0
 13 14  1  0  0  0
 13 31  1  0  0  0
 14 15  2  0  0  0
 14103  1  0  0  0
 15104  1  0  0  0
 16 17  2  0  0  0
 16 21  1  0  0  0
 16 31  1  0  0  0
 17 18  1  0  0  0
 17105  1  0  0  0
 18 19  2  0  0  0
 18106  1  0  0  0
 19 20  1  0  0  0
 19 24  1  0  0  0
 20 21  2  0  0  0
 20107  1  0  0  0
 21 23  1  0  0  0
 22 28  1  0  0  0
 22 32  2  0  0  0
 26 27  1  0  0  0
 28108  1  0  0  0
 28109  1  0  0  0
 29110  1  0  0  0
 29111  1  0  0  0
 33 34  1  0  0  0
 33 66  1  0  0  0
 33 70  2  0  0  0
 34 36  1  0  0  0
 34 59  1  0  0  0
 34112  1  0  0  0
 35 44  2  0  0  0
 35 45  1  0  0  0
 35 68  1  0  0  0
 36 56  1  0  0  0
 36113  1  0  0  0
 37 39  1  0  0  0
 37 47  1  0  0  0
 37 66  1  0  0  0
 37114  1  0  0  0
 38 43  2  0  0  0
 38 46  1  0  0  0
 38 47  1  0  0  0
 39 64  1  0  0  0
 39 67  2  0  0  0
 40 52  1  0  0  0
 40 53  2  0  0  0
 40 58  1  0  0  0
 41115  1  0  0  0
 41116  1  0  0  0
 41117  1  0  0  0
 41 48  1  0  0  0
 42 43  1  0  0  0
 42 66  1  0  0  0
 42118  1  0  0  0
 42119  1  0  0  0
 43 44  1  0  0  0
 44120  1  0  0  0
 45 46  2  0  0  0
 45121  1  0  0  0
 46122  1  0  0  0
 47123  1  0  0  0
 47124  1  0  0  0
 48 56  1  0  0  0
 48 65  1  0  0  0
 48125  1  0  0  0
 49 50  1  0  0  0
 49 53  1  0  0  0
 49 64  1  0  0  0
 49126  1  0  0  0
 50 51  1  0  0  0
 50127  1  0  0  0
 50128  1  0  0  0
 51 52  1  0  0  0
 51129  1  0  0  0
 51130  1  0  0  0
 52131  1  0  0  0
 52132  1  0  0  0
 53 54  1  0  0  0
 54 55  2  0  0  0
 54133  1  0  0  0
 55 57  1  0  0  0
 55134  1  0  0  0
 56 69  2  0  0  0
 57 58  2  0  0  0
 57135  1  0  0  0
 58136  1  0  0  0
 59 60  1  0  0  0
 59 61  1  0  0  0
 59 62  1  0  0  0
 60137  1  0  0  0
 60138  1  0  0  0
 60139  1  0  0  0
 61140  1  0  0  0
 61141  1  0  0  0
 61142  1  0  0  0
 62143  1  0  0  0
 62144  1  0  0  0
 62145  1  0  0  0
 63 65  1  0  0  0
 63146  1  0  0  0
 63147  1  0  0  0
 63148  1  0  0  0
 64149  1  0  0  0
 65150  1  0  0  0
 68 84  1  0  0  0
 71 72  2  0  0  0
 71 74  1  0  0  0
 71151  1  0  0  0
 72 73  1  0  0  0
 72 90  1  0  0  0
 73 81  1  0  0  0
 73 88  2  0  0  0
 74 89  2  0  0  0
 74 91  1  0  0  0
 75 82  1  0  0  0
 75152  1  0  0  0
 75153  1  0  0  0
 75154  1  0  0  0
 76155  1  0  0  0
 76156  1  0  0  0
 76157  1  0  0  0
 76 85  1  0  0  0
 77158  1  0  0  0
 77159  1  0  0  0
 77160  1  0  0  0
 77 86  1  0  0  0
 78 86  1  0  0  0
 78161  1  0  0  0
 78162  1  0  0  0
 78163  1  0  0  0
 79 86  1  0  0  0
 79164  1  0  0  0
 79165  1  0  0  0
 79166  1  0  0  0
 80167  1  0  0  0
 80168  1  0  0  0
 80169  1  0  0  0
 80 87  1  0  0  0
 81 86  1  0  0  0
 81170  1  0  0  0
 81171  1  0  0  0
 82 87  1  0  0  0
 82172  1  0  0  0
 82173  1  0  0  0
 83 85  1  0  0  0
 83 87  1  0  0  0
 83174  1  0  0  0
 83175  1  0  0  0
 84 87  1  0  0  0
 84176  1  0  0  0
 84177  1  0  0  0
 85 90  1  0  0  0
 85178  1  0  0  0
 88 89  1  0  0  0
 90179  1  0  0  0
 91180  1  0  0  0
M  ISO  4   1 100  68 101  84 101  91 100
M  END
> <chiral flag>
0

> <version>
0

> <s_m_source_file>
/data/baiqing/PycharmProjects/Reinvent-master-3.2/result/LINK_invent/BTK/process_docking_weight1_custom_product_contain_oxygen_bond_distance_aromatic_linkinvent_7_9_3/rearranged_h_0194.sdf

> <i_m_source_file_index>
23

> <r_mmod_Potential_Energy-OPLS-2005>
25143.9140625

> <r_mmod_Stretch_Energy-OPLS-2005>
13622.8818359375

> <r_mmod_Bend_Energy-OPLS-2005>
3160.81909179688

> <r_mmod_Torsional_Energy-OPLS-2005>
747.322570800781

> <r_mmod_Improper_Torsional_Energy-OPLS-2005>
103.318161010742

> <r_mmod_Van_der_Waal_Energy-OPLS-2005>
6277.8505859375

> <r_mmod_Electrostatic_Energy-OPLS-2005>
-364.146148681641

> <r_mmod_Solvation_Energy-OPLS-2005>
-222.046295166016

> <b_mmod_Minimization_Converged-OPLS-2005>
0

> <r_mmod_RMS_Derivative-OPLS-2005>
14.4510307312012

$$$$
23
                    3D
 Structure written by MMmdl.
167175  0  0  1  0            999 V2000
  -29.6869  -13.8005   18.8218 C   0  0  0  0  0  0
  -30.7132  -12.2073   19.9604 C   0  0  0  0  0  0
  -29.5807  -11.3104   19.7348 C   0  0  0  0  0  0
  -28.4039  -11.9069   20.6463 C   0  0  0  0  0  0
  -27.8753  -13.5756   20.6668 C   0  0  2  0  0  0
  -29.2048  -14.1371   20.9893 C   0  0  0  0  0  0
  -25.3105  -15.0607   19.9176 C   0  0  0  0  0  0
  -24.0371  -14.4900   20.1532 C   0  0  0  0  0  0
  -24.6780  -13.3478   20.1344 C   0  0  0  0  0  0
  -24.4998  -10.7146   21.5312 C   0  0  0  0  0  0
  -24.0770  -10.0262   22.7401 C   0  0  0  0  0  0
  -23.3381   -8.7414   22.8619 C   0  0  0  0  0  0
  -22.6223   -8.1808   21.7512 C   0  0  0  0  0  0
  -22.9482   -8.7900   20.5805 C   0  0  0  0  0  0
  -24.2065   -9.4385   20.7179 C   0  0  0  0  0  0
  -21.7187   -6.1503   22.6122 C   0  0  0  0  0  0
  -21.3640   -6.5663   23.9062 C   0  0  0  0  0  0
  -21.3097   -5.6497   24.9620 C   0  0  0  0  0  0
  -21.5864   -4.2892   24.7218 C   0  0  0  0  0  0
  -21.8878   -3.8466   23.4205 C   0  0  0  0  0  0
  -21.9408   -4.7747   22.3572 C   0  0  0  0  0  0
  -22.5911  -14.8349   20.6254 C   0  0  0  0  0  0
  -22.2045   -4.3235   21.1062 F   0  0  0  0  0  0
  -21.5550   -3.4066   25.7508 F   0  0  0  0  0  0
  -30.0627  -13.5014   20.0104 N   0  0  0  0  0  0
  -26.5433  -14.2516   19.8599 N   0  0  0  0  0  0
  -25.5565  -13.6834   19.1970 N   0  0  0  0  0  0
  -21.9449  -14.3975   21.7335 N   0  0  0  0  0  0
  -25.4713  -16.3269   19.5512 N   0  0  0  0  0  0
  -30.6059  -14.5953   18.4882 O   0  0  0  0  0  0
  -21.7799   -7.0878   21.6319 O   0  0  0  0  0  0
  -21.8868  -15.4113   19.8703 O   0  0  0  0  0  0
  -24.7643  -31.6540   23.0851 C   0  0  0  0  0  0
  -25.9793  -32.3690   23.7673 C   0  0  1  0  0  0
  -26.4643  -25.2879   20.7758 C   0  0  0  0  0  0
  -25.6016  -33.7642   24.1351 N   0  0  0  0  0  0
  -23.6075  -30.2315   21.4601 C   0  0  2  0  0  0
  -24.9540  -28.2767   20.2002 C   0  0  0  0  0  0
  -22.7932  -29.3595   22.4510 C   0  0  0  0  0  0
  -18.0292  -28.1434   22.8400 C   0  0  0  0  0  0
  -24.1522  -36.6838   23.2679 C   0  0  0  0  0  0
  -26.1525  -29.8879   21.6046 C   0  0  0  0  0  0
  -26.0520  -28.3021   21.0509 C   0  0  0  0  0  0
  -26.7752  -26.8763   21.2750 C   0  0  0  0  0  0
  -25.6072  -25.8035   19.6954 C   0  0  0  0  0  0
  -24.8772  -27.0646   19.4713 C   0  0  0  0  0  0
  -23.9031  -29.4402   20.1310 C   0  0  0  0  0  0
  -25.4198  -36.2471   24.0215 C   0  0  1  0  0  0
  -20.5939  -28.3776   23.1036 C   0  0  2  0  0  0
  -20.6707  -26.9362   22.5429 C   0  0  0  0  0  0
  -19.5716  -26.6325   21.5211 C   0  0  0  0  0  0
  -18.1900  -26.7953   22.1600 C   0  0  0  0  0  0
  -19.1566  -28.8947   23.2692 C   0  0  0  0  0  0
  -18.9513  -30.1532   23.8747 C   0  0  0  0  0  0
  -17.6506  -30.6609   24.0528 C   0  0  0  0  0  0
  -25.9227  -34.8872   23.4698 C   0  0  0  0  0  0
  -16.5386  -29.9080   23.6363 C   0  0  0  0  0  0
  -16.7294  -28.6509   23.0373 C   0  0  0  0  0  0
  -26.4722  -31.6326   25.0753 C   0  0  0  0  0  0
  -25.3561  -31.3954   26.1213 C   0  0  0  0  0  0
  -27.0878  -30.2579   24.7591 C   0  0  0  0  0  0
  -27.6009  -32.4520   25.7485 C   0  0  0  0  0  0
  -27.5546  -37.1535   24.8453 C   0  0  0  0  0  0
  -21.4532  -29.2842   22.3228 N   0  0  0  0  0  0
  -26.4218  -37.3357   23.9424 N   0  0  0  0  0  0
  -24.8875  -30.6761   22.0893 N   0  0  0  0  0  0
  -23.3947  -28.7383   23.3300 O   0  0  0  0  0  0
  -26.7872  -23.4176   21.0356 O   0  0  0  0  0  0
  -26.6042  -34.8660   22.4433 O   0  0  0  0  0  0
  -23.6549  -32.0353   23.5044 O   0  0  0  0  0  0
  -22.9171  -12.1350   20.8836 C   0  0  0  0  0  0
  -23.9065  -11.4118   19.4348 C   0  0  0  0  0  0
  -25.8747  -11.4964   19.9105 C   0  0  0  0  0  0
  -25.2514  -13.8954   22.3461 C   0  0  0  0  0  0
  -19.6085  -12.4235   19.2440 C   0  0  0  0  0  0
  -20.8369   -9.7110   17.8756 C   0  0  0  0  0  0
  -27.5737  -18.0413   22.2179 C   0  0  0  0  0  0
  -27.1316  -11.8406   18.5329 C   0  0  0  0  0  0
  -20.8930  -12.2318   18.3884 C   0  0  0  0  0  0
  -26.2236  -21.0809   21.5548 C   0  0  0  0  0  0
  -21.6186  -10.8686   18.5655 C   0  0  2  0  0  0
  -26.1499  -18.2850   21.7319 C   0  0  2  0  0  0
  -23.8067  -12.9916   22.2638 N   0  0  0  0  0  0
  -26.0441  -12.4644   21.6408 N   0  0  0  0  0  0
  -23.1155  -10.9502   18.3187 N   0  0  0  0  0  0
  -25.4663  -16.1189   22.2691 N   0  0  0  0  0  0
  -28.4306  -13.0933   18.2127 N   0  0  0  0  0  0
  -31.4148  -12.0958   19.1260 H   0  0  0  0  0  0
  -31.2329  -11.8833   20.8697 H   0  0  0  0  0  0
  -29.8194  -10.3460   20.1971 H   0  0  0  0  0  0
  -29.4862  -11.0432   18.6839 H   0  0  0  0  0  0
  -28.8590  -11.8958   21.6365 H   0  0  0  0  0  0
  -27.8154  -11.0261   20.9435 H   0  0  0  0  0  0
  -27.7245  -13.8312   21.7365 H   0  0  0  0  0  0
  -29.7590  -15.0756   20.9243 H   0  0  0  0  0  0
  -28.7051  -15.1195   20.9000 H   0  0  0  0  0  0
  -24.2157  -10.6023   23.6428 H   0  0  0  0  0  0
  -23.1780   -8.3777   23.8607 H   0  0  0  0  0  0
  -22.6628   -8.2688   19.6738 H   0  0  0  0  0  0
  -24.7700   -9.2880   19.8071 H   0  0  0  0  0  0
  -21.1461   -7.6038   24.1005 H   0  0  0  0  0  0
  -21.0512   -5.9906   25.9577 H   0  0  0  0  0  0
  -22.0915   -2.8008   23.2321 H   0  0  0  0  0  0
  -22.5813  -13.7322   22.2347 H   0  0  0  0  0  0
  -21.0410  -14.6723   22.0944 H   0  0  0  0  0  0
  -24.7815  -17.0761   19.4823 H   0  0  0  0  0  0
  -26.4141  -16.6764   19.6091 H   0  0  0  0  0  0
  -26.7945  -32.3903   23.0452 H   0  0  0  0  0  0
  -24.9914  -33.8516   24.9346 H   0  0  0  0  0  0
  -23.0103  -31.1009   21.1938 H   0  0  0  0  0  0
  -23.3823  -35.9114   23.3148 H   0  0  0  0  0  0
  -24.3575  -36.8752   22.2132 H   0  0  0  0  0  0
  -23.7233  -37.5903   23.6958 H   0  0  0  0  0  0
  -26.5251  -30.4488   20.7480 H   0  0  0  0  0  0
  -26.9832  -29.9327   22.2874 H   0  0  0  0  0  0
  -27.5091  -26.9361   22.0664 H   0  0  0  0  0  0
  -25.2586  -25.0128   19.0490 H   0  0  0  0  0  0
  -24.1037  -27.0187   18.7142 H   0  0  0  0  0  0
  -24.2646  -30.1244   19.3667 H   0  0  0  0  0  0
  -22.9753  -29.0284   19.7346 H   0  0  0  0  0  0
  -25.1442  -36.1078   25.0695 H   0  0  0  0  0  0
  -20.9964  -28.3438   24.1207 H   0  0  0  0  0  0
  -20.5489  -26.2394   23.3737 H   0  0  0  0  0  0
  -21.6562  -26.7188   22.1294 H   0  0  0  0  0  0
  -19.6857  -25.6212   21.1287 H   0  0  0  0  0  0
  -19.6699  -27.3094   20.6711 H   0  0  0  0  0  0
  -17.4180  -26.6702   21.4000 H   0  0  0  0  0  0
  -18.0275  -26.0123   22.9017 H   0  0  0  0  0  0
  -19.8003  -30.7358   24.2074 H   0  0  0  0  0  0
  -17.5063  -31.6278   24.5162 H   0  0  0  0  0  0
  -15.5383  -30.2963   23.7768 H   0  0  0  0  0  0
  -15.8700  -28.0804   22.7189 H   0  0  0  0  0  0
  -24.5856  -30.7155   25.7534 H   0  0  0  0  0  0
  -24.8642  -32.3262   26.4056 H   0  0  0  0  0  0
  -25.7557  -30.9524   27.0350 H   0  0  0  0  0  0
  -26.3643  -29.5603   24.3374 H   0  0  0  0  0  0
  -27.4485  -29.7795   25.6710 H   0  0  0  0  0  0
  -27.9591  -30.3405   24.1096 H   0  0  0  0  0  0
  -27.2408  -33.4001   26.1496 H   0  0  0  0  0  0
  -28.4011  -32.6799   25.0420 H   0  0  0  0  0  0
  -28.0500  -31.9111   26.5832 H   0  0  0  0  0  0
  -28.2395  -37.9984   24.7603 H   0  0  0  0  0  0
  -28.1214  -36.2498   24.6159 H   0  0  0  0  0  0
  -27.2282  -37.0983   25.8853 H   0  0  0  0  0  0
  -21.0055  -29.8300   21.5985 H   0  0  0  0  0  0
  -25.9949  -38.2337   24.1511 H   0  0  0  0  0  0
  -21.8533  -11.9912   20.9745 H   0  0  0  0  0  0
  -18.8366  -11.6729   19.0597 H   0  0  0  0  0  0
  -19.1367  -13.3878   19.0433 H   0  0  0  0  0  0
  -19.8071  -12.4261   20.3183 H   0  0  0  0  0  0
  -19.7712   -9.7850   18.0928 H   0  0  0  0  0  0
  -21.0735   -8.7219   18.2575 H   0  0  0  0  0  0
  -20.9214   -9.6764   16.7946 H   0  0  0  0  0  0
  -28.3657  -18.5671   21.6899 H   0  0  0  0  0  0
  -27.7745  -16.9826   22.0739 H   0  0  0  0  0  0
  -27.6155  -18.2808   23.2830 H   0  0  0  0  0  0
  -26.5094  -11.9343   17.6525 H   0  0  0  0  0  0
  -27.5380  -10.8507   18.3241 H   0  0  0  0  0  0
  -21.5610  -13.0461   18.6620 H   0  0  0  0  0  0
  -20.6515  -12.3806   17.3372 H   0  0  0  0  0  0
  -27.2177  -21.0767   22.0212 H   0  0  0  0  0  0
  -25.5287  -21.3184   22.3614 H   0  0  0  0  0  0
  -21.4624  -10.6059   19.6133 H   0  0  0  0  0  0
  -26.1984  -18.1830   20.6512 H   0  0  0  0  0  0
  -23.5431  -10.6329   17.4381 H   0  0  0  0  0  0
  -24.5178  -16.3880   22.5079 H   0  0  0  0  0  0
  -28.3206  -13.4284   17.2643 H   0  0  0  0  0  0
  1 25  1  0  0  0
  1 30  2  0  0  0
  1 87  1  0  0  0
  2  3  1  0  0  0
  2 25  1  0  0  0
  2 88  1  0  0  0
  2 89  1  0  0  0
  3  4  1  0  0  0
  3 90  1  0  0  0
  3 91  1  0  0  0
  4  5  1  0  0  0
  4 92  1  0  0  0
  4 93  1  0  0  0
  5  6  1  0  0  0
  5 26  1  0  0  0
  5 94  1  0  0  0
  6 25  1  0  0  0
  6 95  1  0  0  0
  6 96  1  0  0  0
  7  8  2  0  0  0
  7 26  1  0  0  0
  7 29  1  0  0  0
  8  9  1  0  0  0
  8 22  1  0  0  0
  9 10  1  0  0  0
  9 27  2  0  0  0
 10 11  2  0  0  0
 10 15  1  0  0  0
 11 12  1  0  0  0
 11 97  1  0  0  0
 12 13  2  0  0  0
 12 98  1  0  0  0
 13 14  1  0  0  0
 13 31  1  0  0  0
 14 15  2  0  0  0
 14 99  1  0  0  0
 15100  1  0  0  0
 16 17  2  0  0  0
 16 21  1  0  0  0
 16 31  1  0  0  0
 17 18  1  0  0  0
 17101  1  0  0  0
 18 19  2  0  0  0
 18102  1  0  0  0
 19 20  1  0  0  0
 19 24  1  0  0  0
 20 21  2  0  0  0
 20103  1  0  0  0
 21 23  1  0  0  0
 22 28  1  0  0  0
 22 32  2  0  0  0
 26 27  1  0  0  0
 28104  1  0  0  0
 28105  1  0  0  0
 29106  1  0  0  0
 29107  1  0  0  0
 33 34  1  0  0  0
 33 66  1  0  0  0
 33 70  2  0  0  0
 34 36  1  0  0  0
 34 59  1  0  0  0
 34108  1  0  0  0
 35 44  2  0  0  0
 35 45  1  0  0  0
 35 68  1  0  0  0
 36 56  1  0  0  0
 36109  1  0  0  0
 37 39  1  0  0  0
 37 47  1  0  0  0
 37 66  1  0  0  0
 37110  1  0  0  0
 38 43  2  0  0  0
 38 46  1  0  0  0
 38 47  1  0  0  0
 39 64  1  0  0  0
 39 67  2  0  0  0
 40 52  1  0  0  0
 40 53  2  0  0  0
 40 58  1  0  0  0
 41111  1  0  0  0
 41112  1  0  0  0
 41113  1  0  0  0
 41 48  1  0  0  0
 42 43  1  0  0  0
 42 66  1  0  0  0
 42114  1  0  0  0
 42115  1  0  0  0
 43 44  1  0  0  0
 44116  1  0  0  0
 45 46  2  0  0  0
 45117  1  0  0  0
 46118  1  0  0  0
 47119  1  0  0  0
 47120  1  0  0  0
 48 56  1  0  0  0
 48 65  1  0  0  0
 48121  1  0  0  0
 49 50  1  0  0  0
 49 53  1  0  0  0
 49 64  1  0  0  0
 49122  1  0  0  0
 50 51  1  0  0  0
 50123  1  0  0  0
 50124  1  0  0  0
 51 52  1  0  0  0
 51125  1  0  0  0
 51126  1  0  0  0
 52127  1  0  0  0
 52128  1  0  0  0
 53 54  1  0  0  0
 54 55  2  0  0  0
 54129  1  0  0  0
 55 57  1  0  0  0
 55130  1  0  0  0
 56 69  2  0  0  0
 57 58  2  0  0  0
 57131  1  0  0  0
 58132  1  0  0  0
 59 60  1  0  0  0
 59 61  1  0  0  0
 59 62  1  0  0  0
 60133  1  0  0  0
 60134  1  0  0  0
 60135  1  0  0  0
 61136  1  0  0  0
 61137  1  0  0  0
 61138  1  0  0  0
 62139  1  0  0  0
 62140  1  0  0  0
 62141  1  0  0  0
 63 65  1  0  0  0
 63142  1  0  0  0
 63143  1  0  0  0
 63144  1  0  0  0
 64145  1  0  0  0
 65146  1  0  0  0
 68 80  1  0  0  0
 71 72  2  0  0  0
 71 83  1  0  0  0
 71147  1  0  0  0
 72 73  1  0  0  0
 72 85  1  0  0  0
 73 78  1  0  0  0
 73 84  2  0  0  0
 74 83  2  0  0  0
 74 84  1  0  0  0
 74 86  1  0  0  0
 75 79  1  0  0  0
 75148  1  0  0  0
 75149  1  0  0  0
 75150  1  0  0  0
 76151  1  0  0  0
 76152  1  0  0  0
 76153  1  0  0  0
 76 81  1  0  0  0
 77154  1  0  0  0
 77155  1  0  0  0
 77156  1  0  0  0
 77 82  1  0  0  0
 78 87  1  0  0  0
 78157  1  0  0  0
 78158  1  0  0  0
 79 81  1  0  0  0
 79159  1  0  0  0
 79160  1  0  0  0
 80 82  1  0  0  0
 80161  1  0  0  0
 80162  1  0  0  0
 81 85  1  0  0  0
 81163  1  0  0  0
 82 86  1  0  0  0
 82164  1  0  0  0
 85165  1  0  0  0
 86166  1  0  0  0
 87167  1  0  0  0
M  ISO  4   1 100  68 101  80 101  87 100
M  END
> <chiral flag>
0

> <version>
0

> <s_m_source_file>
/data/baiqing/PycharmProjects/Reinvent-master-3.2/result/LINK_invent/BTK/process_docking_weight1_custom_product_contain_oxygen_bond_distance_aromatic_linkinvent_7_9_3/rearranged_h_0194.sdf

> <i_m_source_file_index>
24

> <r_mmod_Potential_Energy-OPLS-2005>
29346.4375

> <r_mmod_Stretch_Energy-OPLS-2005>
14233.658203125

> <r_mmod_Bend_Energy-OPLS-2005>
2890.52270507812

> <r_mmod_Torsional_Energy-OPLS-2005>
994.563232421875

> <r_mmod_Improper_Torsional_Energy-OPLS-2005>
65.0117797851562

> <r_mmod_Van_der_Waal_Energy-OPLS-2005>
4080.78393554688

> <r_mmod_Electrostatic_Energy-OPLS-2005>
-922.088623046875

> <r_mmod_Solvation_Energy-OPLS-2005>
-253.884979248047

> <b_mmod_Minimization_Converged-OPLS-2005>
0

> <r_mmod_RMS_Derivative-OPLS-2005>
40.9118423461914

$$$$
24
                    3D
 Structure written by MMmdl.
168176  0  0  1  0            999 V2000
  -30.3970  -14.9933   20.4630 C   0  0  0  0  0  0
  -30.4477  -12.6351   19.5034 C   0  0  0  0  0  0
  -29.5218  -12.5581   18.2613 C   0  0  0  0  0  0
  -28.0476  -12.3443   18.6589 C   0  0  0  0  0  0
  -27.6218  -13.2468   19.8434 C   0  0  2  0  0  0
  -28.6514  -13.2217   20.9888 C   0  0  0  0  0  0
  -25.2439  -13.8274   20.5701 C   0  0  0  0  0  0
  -24.1772  -13.0503   20.9286 C   0  0  0  0  0  0
  -24.6370  -11.6955   20.8802 C   0  0  0  0  0  0
  -23.9117  -10.4305   21.0480 C   0  0  0  0  0  0
  -24.3665   -9.4190   21.9230 C   0  0  0  0  0  0
  -23.6318   -8.2235   22.0750 C   0  0  0  0  0  0
  -22.4294   -8.0321   21.3534 C   0  0  0  0  0  0
  -21.9973   -9.0323   20.4642 C   0  0  0  0  0  0
  -22.7329  -10.2177   20.3086 C   0  0  0  0  0  0
  -21.6859   -6.0776   22.5287 C   0  0  0  0  0  0
  -21.4001   -6.5666   23.8226 C   0  0  0  0  0  0
  -21.3633   -5.6807   24.9176 C   0  0  0  0  0  0
  -21.6064   -4.3076   24.7220 C   0  0  0  0  0  0
  -21.8815   -3.8178   23.4332 C   0  0  0  0  0  0
  -21.9174   -4.7003   22.3395 C   0  0  0  0  0  0
  -22.7782  -13.5252   21.1926 C   0  0  0  0  0  0
  -22.1655   -4.2203   21.0972 F   0  0  0  0  0  0
  -21.5626   -3.4542   25.7721 F   0  0  0  0  0  0
  -29.9185  -13.6857   20.4237 N   0  0  0  0  0  0
  -26.2804  -12.9453   20.3202 N   0  0  0  0  0  0
  -25.9281  -11.6596   20.5778 N   0  0  0  0  0  0
  -22.0402  -12.8213   22.0428 N   0  0  0  0  0  0
  -25.4213  -15.2005   20.4086 N   0  0  0  0  0  0
  -31.5713  -15.1641   20.0982 O   0  0  0  0  0  0
  -21.6623   -6.8931   21.4251 O   0  0  0  0  0  0
  -22.3434  -14.5522   20.6745 O   0  0  0  0  0  0
  -24.5976  -31.8749   23.2253 C   0  0  0  0  0  0
  -25.8935  -32.4819   23.8443 C   0  0  1  0  0  0
  -27.5819  -27.0953   19.9309 C   0  0  0  0  0  0
  -25.5878  -33.8637   24.2397 N   0  0  0  0  0  0
  -23.3759  -30.4859   21.5750 C   0  0  2  0  0  0
  -24.6793  -28.7785   20.2226 C   0  0  0  0  0  0
  -22.7151  -29.4724   22.5299 C   0  0  0  0  0  0
  -18.0149  -28.1315   22.8574 C   0  0  0  0  0  0
  -24.1561  -36.7309   23.2631 C   0  0  0  0  0  0
  -25.9325  -30.7484   21.4765 C   0  0  0  0  0  0
  -26.0196  -29.3182   21.0092 C   0  0  0  0  0  0
  -27.4838  -28.5063   20.8865 C   0  0  0  0  0  0
  -26.1900  -26.5489   19.0968 C   0  0  0  0  0  0
  -24.7284  -27.3995   19.2756 C   0  0  0  0  0  0
  -23.5429  -29.7634   20.2115 C   0  0  0  0  0  0
  -25.4152  -36.3083   24.0343 C   0  0  1  0  0  0
  -20.5711  -28.3590   23.1553 C   0  0  2  0  0  0
  -20.6681  -26.9375   22.5602 C   0  0  0  0  0  0
  -19.5727  -26.6381   21.5325 C   0  0  0  0  0  0
  -18.1857  -26.7883   22.1644 C   0  0  0  0  0  0
  -19.1386  -28.8741   23.3076 C   0  0  0  0  0  0
  -18.9311  -30.1368   23.9034 C   0  0  0  0  0  0
  -17.6329  -30.6562   24.0570 C   0  0  0  0  0  0
  -25.9027  -34.9451   23.5169 C   0  0  0  0  0  0
  -16.5236  -29.9072   23.6291 C   0  0  0  0  0  0
  -16.7149  -28.6482   23.0329 C   0  0  0  0  0  0
  -26.4409  -31.6514   25.0701 C   0  0  0  0  0  0
  -25.3705  -31.3612   26.1426 C   0  0  0  0  0  0
  -27.0290  -30.2919   24.6227 C   0  0  0  0  0  0
  -27.5991  -32.4210   25.7385 C   0  0  0  0  0  0
  -27.5613  -37.1813   24.8459 C   0  0  0  0  0  0
  -21.3899  -29.3032   22.3980 N   0  0  0  0  0  0
  -26.4338  -37.3755   23.9380 N   0  0  0  0  0  0
  -24.6483  -31.0606   22.1321 N   0  0  0  0  0  0
  -23.3925  -28.8275   23.3329 O   0  0  0  0  0  0
  -28.6407  -26.2653   19.9508 O   0  0  0  0  0  0
  -26.5576  -34.8890   22.4732 O   0  0  0  0  0  0
  -23.5187  -32.1673   23.7542 O   0  0  0  0  0  0
  -29.3084  -19.7731   19.7538 C   0  0  0  0  0  0
  -28.6028  -20.2176   20.8722 C   0  0  0  0  0  0
  -29.3449  -17.5799   20.7169 C   0  0  0  0  0  0
  -22.4221  -24.2705   19.8398 C   0  0  0  0  0  0
  -26.5273  -28.8052   18.7896 C   0  0  0  0  0  0
  -27.7124  -23.9655   22.8679 C   0  0  0  0  0  0
  -23.3558  -24.8775   20.9006 C   0  0  0  0  0  0
  -25.7679  -26.9662   21.3272 C   0  0  0  0  0  0
  -24.8181  -24.3847   20.7839 C   0  0  0  0  0  0
  -28.6446  -25.2381   20.9766 C   0  0  0  0  0  0
  -27.5149  -22.6971   20.7371 C   0  0  0  0  0  0
  -25.9702  -25.2261   21.4335 C   0  0  2  0  0  0
  -27.4102  -24.3004   21.3814 C   0  0  1  0  0  0
  -29.6901  -18.3709   19.6726 N   0  0  0  0  0  0
  -29.4954  -16.0447   20.8198 N   0  0  0  0  0  0
  -28.2158  -21.4933   21.4300 O   0  0  0  0  0  0
  -28.4211  -18.6971   21.8649 S   0  0  0  0  0  0
  -31.4622  -12.8697   19.1797 H   0  0  0  0  0  0
  -30.5098  -11.6732   20.0157 H   0  0  0  0  0  0
  -29.8493  -11.7614   17.5897 H   0  0  0  0  0  0
  -29.6020  -13.4869   17.6928 H   0  0  0  0  0  0
  -27.9183  -11.2956   18.9287 H   0  0  0  0  0  0
  -27.3950  -12.5256   17.8007 H   0  0  0  0  0  0
  -27.5985  -14.2613   19.4441 H   0  0  0  0  0  0
  -28.7474  -12.2203   21.4098 H   0  0  0  0  0  0
  -28.3252  -13.8659   21.8077 H   0  0  0  0  0  0
  -25.2819   -9.5636   22.4805 H   0  0  0  0  0  0
  -24.0029   -7.4601   22.7435 H   0  0  0  0  0  0
  -21.0922   -8.8893   19.8920 H   0  0  0  0  0  0
  -22.3867  -10.9739   19.6189 H   0  0  0  0  0  0
  -21.1984   -7.6177   23.9755 H   0  0  0  0  0  0
  -21.1470   -6.0523   25.9090 H   0  0  0  0  0  0
  -22.0609   -2.7655   23.2815 H   0  0  0  0  0  0
  -22.4003  -11.9894   22.4844 H   0  0  0  0  0  0
  -21.1008  -13.1190   22.2596 H   0  0  0  0  0  0
  -24.6710  -15.8725   20.5259 H   0  0  0  0  0  0
  -26.2535  -15.6088   20.0068 H   0  0  0  0  0  0
  -26.6950  -32.5676   23.1173 H   0  0  0  0  0  0
  -25.0012  -33.9843   25.0517 H   0  0  0  0  0  0
  -22.6715  -31.3102   21.4320 H   0  0  0  0  0  0
  -23.3774  -35.9693   23.3296 H   0  0  0  0  0  0
  -24.3654  -36.8903   22.2037 H   0  0  0  0  0  0
  -23.7373  -37.6558   23.6620 H   0  0  0  0  0  0
  -26.0529  -31.4207   20.6210 H   0  0  0  0  0  0
  -26.8189  -30.8767   22.0780 H   0  0  0  0  0  0
  -28.3478  -28.8888   21.4038 H   0  0  0  0  0  0
  -26.2437  -25.6459   18.5084 H   0  0  0  0  0  0
  -23.8444  -27.0714   18.7447 H   0  0  0  0  0  0
  -23.7534  -30.4977   19.4331 H   0  0  0  0  0  0
  -22.6256  -29.2581   19.9076 H   0  0  0  0  0  0
  -25.1352  -36.1931   25.0828 H   0  0  0  0  0  0
  -20.9802  -28.3141   24.1668 H   0  0  0  0  0  0
  -20.5646  -26.2165   23.3723 H   0  0  0  0  0  0
  -21.6563  -26.7592   22.1428 H   0  0  0  0  0  0
  -19.6938  -25.6326   21.1301 H   0  0  0  0  0  0
  -19.6699  -27.3267   20.6936 H   0  0  0  0  0  0
  -17.4210  -26.6689   21.3961 H   0  0  0  0  0  0
  -18.0174  -25.9919   22.8928 H   0  0  0  0  0  0
  -19.7772  -30.7161   24.2493 H   0  0  0  0  0  0
  -17.4854  -31.6254   24.5136 H   0  0  0  0  0  0
  -15.5243  -30.3013   23.7493 H   0  0  0  0  0  0
  -15.8551  -28.0840   22.6971 H   0  0  0  0  0  0
  -24.6043  -30.6742   25.7821 H   0  0  0  0  0  0
  -24.8675  -32.2713   26.4667 H   0  0  0  0  0  0
  -25.8078  -30.9004   27.0276 H   0  0  0  0  0  0
  -26.2943  -29.6605   24.1194 H   0  0  0  0  0  0
  -27.3867  -29.7189   25.4789 H   0  0  0  0  0  0
  -27.8859  -30.4157   23.9596 H   0  0  0  0  0  0
  -27.2667  -33.3595   26.1816 H   0  0  0  0  0  0
  -28.3773  -32.6552   25.0117 H   0  0  0  0  0  0
  -28.0602  -31.8355   26.5338 H   0  0  0  0  0  0
  -28.2615  -38.0124   24.7467 H   0  0  0  0  0  0
  -28.1124  -36.2627   24.6326 H   0  0  0  0  0  0
  -27.2302  -37.1518   25.8861 H   0  0  0  0  0  0
  -20.8944  -29.8703   21.7261 H   0  0  0  0  0  0
  -26.0213  -38.2874   24.1219 H   0  0  0  0  0  0
  -29.6364  -20.4221   18.9548 H   0  0  0  0  0  0
  -21.4315  -24.7183   19.9155 H   0  0  0  0  0  0
  -22.3051  -23.1940   19.9490 H   0  0  0  0  0  0
  -22.7716  -24.4531   18.8238 H   0  0  0  0  0  0
  -26.1916  -29.8508   18.7469 H   0  0  0  0  0  0
  -26.1886  -28.5008   17.7906 H   0  0  0  0  0  0
  -27.5872  -28.9748   18.5424 H   0  0  0  0  0  0
  -28.6454  -23.4065   22.9766 H   0  0  0  0  0  0
  -26.9187  -23.3611   23.3088 H   0  0  0  0  0  0
  -27.8254  -24.8511   23.4897 H   0  0  0  0  0  0
  -22.9566  -24.6557   21.8913 H   0  0  0  0  0  0
  -23.2930  -25.9527   20.7919 H   0  0  0  0  0  0
  -26.2349  -27.2247   22.2907 H   0  0  0  0  0  0
  -24.7579  -27.0688   21.7376 H   0  0  0  0  0  0
  -25.0697  -24.1880   19.7418 H   0  0  0  0  0  0
  -24.8202  -23.4056   21.2606 H   0  0  0  0  0  0
  -29.4826  -24.5904   20.7023 H   0  0  0  0  0  0
  -28.9841  -25.7625   21.8685 H   0  0  0  0  0  0
  -27.8800  -22.7692   19.7131 H   0  0  0  0  0  0
  -26.5117  -22.2951   20.6261 H   0  0  0  0  0  0
  -25.6757  -25.1280   22.4810 H   0  0  0  0  0  0
  -28.6732  -15.6448   21.2373 H   0  0  0  0  0  0
  1 25  1  0  0  0
  1 30  2  0  0  0
  1 85  1  0  0  0
  2  3  1  0  0  0
  2 25  1  0  0  0
  2 88  1  0  0  0
  2 89  1  0  0  0
  3  4  1  0  0  0
  3 90  1  0  0  0
  3 91  1  0  0  0
  4  5  1  0  0  0
  4 92  1  0  0  0
  4 93  1  0  0  0
  5  6  1  0  0  0
  5 26  1  0  0  0
  5 94  1  0  0  0
  6 25  1  0  0  0
  6 95  1  0  0  0
  6 96  1  0  0  0
  7  8  2  0  0  0
  7 26  1  0  0  0
  7 29  1  0  0  0
  8  9  1  0  0  0
  8 22  1  0  0  0
  9 10  1  0  0  0
  9 27  2  0  0  0
 10 11  2  0  0  0
 10 15  1  0  0  0
 11 12  1  0  0  0
 11 97  1  0  0  0
 12 13  2  0  0  0
 12 98  1  0  0  0
 13 14  1  0  0  0
 13 31  1  0  0  0
 14 15  2  0  0  0
 14 99  1  0  0  0
 15100  1  0  0  0
 16 17  2  0  0  0
 16 21  1  0  0  0
 16 31  1  0  0  0
 17 18  1  0  0  0
 17101  1  0  0  0
 18 19  2  0  0  0
 18102  1  0  0  0
 19 20  1  0  0  0
 19 24  1  0  0  0
 20 21  2  0  0  0
 20103  1  0  0  0
 21 23  1  0  0  0
 22 28  1  0  0  0
 22 32  2  0  0  0
 26 27  1  0  0  0
 28104  1  0  0  0
 28105  1  0  0  0
 29106  1  0  0  0
 29107  1  0  0  0
 33 34  1  0  0  0
 33 66  1  0  0  0
 33 70  2  0  0  0
 34 36  1  0  0  0
 34 59  1  0  0  0
 34108  1  0  0  0
 35 44  2  0  0  0
 35 45  1  0  0  0
 35 68  1  0  0  0
 36 56  1  0  0  0
 36109  1  0  0  0
 37 39  1  0  0  0
 37 47  1  0  0  0
 37 66  1  0  0  0
 37110  1  0  0  0
 38 43  2  0  0  0
 38 46  1  0  0  0
 38 47  1  0  0  0
 39 64  1  0  0  0
 39 67  2  0  0  0
 40 52  1  0  0  0
 40 53  2  0  0  0
 40 58  1  0  0  0
 41111  1  0  0  0
 41112  1  0  0  0
 41113  1  0  0  0
 41 48  1  0  0  0
 42 43  1  0  0  0
 42 66  1  0  0  0
 42114  1  0  0  0
 42115  1  0  0  0
 43 44  1  0  0  0
 44116  1  0  0  0
 45 46  2  0  0  0
 45117  1  0  0  0
 46118  1  0  0  0
 47119  1  0  0  0
 47120  1  0  0  0
 48 56  1  0  0  0
 48 65  1  0  0  0
 48121  1  0  0  0
 49 50  1  0  0  0
 49 53  1  0  0  0
 49 64  1  0  0  0
 49122  1  0  0  0
 50 51  1  0  0  0
 50123  1  0  0  0
 50124  1  0  0  0
 51 52  1  0  0  0
 51125  1  0  0  0
 51126  1  0  0  0
 52127  1  0  0  0
 52128  1  0  0  0
 53 54  1  0  0  0
 54 55  2  0  0  0
 54129  1  0  0  0
 55 57  1  0  0  0
 55130  1  0  0  0
 56 69  2  0  0  0
 57 58  2  0  0  0
 57131  1  0  0  0
 58132  1  0  0  0
 59 60  1  0  0  0
 59 61  1  0  0  0
 59 62  1  0  0  0
 60133  1  0  0  0
 60134  1  0  0  0
 60135  1  0  0  0
 61136  1  0  0  0
 61137  1  0  0  0
 61138  1  0  0  0
 62139  1  0  0  0
 62140  1  0  0  0
 62141  1  0  0  0
 63 65  1  0  0  0
 63142  1  0  0  0
 63143  1  0  0  0
 63144  1  0  0  0
 64145  1  0  0  0
 65146  1  0  0  0
 68 80  1  0  0  0
 71 72  2  0  0  0
 71 84  1  0  0  0
 71147  1  0  0  0
 72 86  1  0  0  0
 72 87  1  0  0  0
 73 84  2  0  0  0
 73 85  1  0  0  0
 73 87  1  0  0  0
 74 77  1  0  0  0
 74148  1  0  0  0
 74149  1  0  0  0
 74150  1  0  0  0
 75 78  1  0  0  0
 75151  1  0  0  0
 75152  1  0  0  0
 75153  1  0  0  0
 76154  1  0  0  0
 76155  1  0  0  0
 76156  1  0  0  0
 76 83  1  0  0  0
 77 79  1  0  0  0
 77157  1  0  0  0
 77158  1  0  0  0
 78159  1  0  0  0
 78160  1  0  0  0
 78 82  1  0  0  0
 79 82  1  0  0  0
 79161  1  0  0  0
 79162  1  0  0  0
 80 83  1  0  0  0
 80163  1  0  0  0
 80164  1  0  0  0
 81 83  1  0  0  0
 81 86  1  0  0  0
 81165  1  0  0  0
 81166  1  0  0  0
 82 83  1  0  0  0
 82167  1  0  0  0
 85168  1  0  0  0
M  ISO  4   1 100  68 101  80 101  85 100
M  END
> <chiral flag>
0

> <version>
0

> <s_m_source_file>
/data/baiqing/PycharmProjects/Reinvent-master-3.2/result/LINK_invent/BTK/process_docking_weight1_custom_product_contain_oxygen_bond_distance_aromatic_linkinvent_7_9_3/rearranged_h_0194.sdf

> <i_m_source_file_index>
25

> <r_mmod_Potential_Energy-OPLS-2005>
7019.37646484375

> <r_mmod_Stretch_Energy-OPLS-2005>
4503.080078125

> <r_mmod_Bend_Energy-OPLS-2005>
417.775909423828

> <r_mmod_Torsional_Energy-OPLS-2005>
329.341064453125

> <r_mmod_Improper_Torsional_Energy-OPLS-2005>
10.2569646835327

> <r_mmod_Van_der_Waal_Energy-OPLS-2005>
2006.92272949219

> <r_mmod_Electrostatic_Energy-OPLS-2005>
-337.614074707031

> <r_mmod_Solvation_Energy-OPLS-2005>
-210.871490478516

> <b_mmod_Minimization_Converged-OPLS-2005>
0

> <r_mmod_RMS_Derivative-OPLS-2005>
10.2560930252075

$$$$
25
                    3D
 Structure written by MMmdl.
154162  0  0  1  0            999 V2000
  -30.6432  -14.6153   20.5144 C   0  0  0  0  0  0
  -30.4372  -12.3765   19.4497 C   0  0  0  0  0  0
  -29.5090  -12.5139   18.2211 C   0  0  0  0  0  0
  -28.0244  -12.3767   18.6234 C   0  0  0  0  0  0
  -27.6559  -13.2250   19.8714 C   0  0  2  0  0  0
  -28.7049  -13.0559   20.9950 C   0  0  0  0  0  0
  -25.2490  -13.8142   20.5641 C   0  0  0  0  0  0
  -24.1786  -13.0396   20.9142 C   0  0  0  0  0  0
  -24.6408  -11.6890   20.8726 C   0  0  0  0  0  0
  -23.9079  -10.4275   21.0396 C   0  0  0  0  0  0
  -24.3626   -9.4198   21.9184 C   0  0  0  0  0  0
  -23.6292   -8.2244   22.0760 C   0  0  0  0  0  0
  -22.4270   -8.0292   21.3559 C   0  0  0  0  0  0
  -21.9911   -9.0263   20.4662 C   0  0  0  0  0  0
  -22.7245  -10.2129   20.3059 C   0  0  0  0  0  0
  -21.6855   -6.0738   22.5273 C   0  0  0  0  0  0
  -21.4024   -6.5640   23.8207 C   0  0  0  0  0  0
  -21.3656   -5.6786   24.9167 C   0  0  0  0  0  0
  -21.6035   -4.3050   24.7220 C   0  0  0  0  0  0
  -21.8813   -3.8149   23.4341 C   0  0  0  0  0  0
  -21.9190   -4.6967   22.3395 C   0  0  0  0  0  0
  -22.7808  -13.5194   21.1805 C   0  0  0  0  0  0
  -22.1653   -4.2154   21.0971 F   0  0  0  0  0  0
  -21.5620   -3.4538   25.7736 F   0  0  0  0  0  0
  -30.0228  -13.3962   20.4322 N   0  0  0  0  0  0
  -26.3001  -12.9385   20.3377 N   0  0  0  0  0  0
  -25.9353  -11.6529   20.5801 N   0  0  0  0  0  0
  -22.0456  -12.8221   22.0400 N   0  0  0  0  0  0
  -25.3985  -15.1869   20.4034 N   0  0  0  0  0  0
  -31.8093  -14.7672   20.1334 O   0  0  0  0  0  0
  -21.6638   -6.8887   21.4246 O   0  0  0  0  0  0
  -22.3476  -14.5495   20.6656 O   0  0  0  0  0  0
  -24.6238  -31.8604   23.2049 C   0  0  0  0  0  0
  -25.9089  -32.4791   23.8373 C   0  0  1  0  0  0
  -27.2247  -27.3377   20.1245 C   0  0  0  0  0  0
  -25.5892  -33.8592   24.2292 N   0  0  0  0  0  0
  -23.4182  -30.4859   21.5450 C   0  0  2  0  0  0
  -24.8663  -28.9410   20.1139 C   0  0  0  0  0  0
  -22.7464  -29.4632   22.4916 C   0  0  0  0  0  0
  -18.0284  -28.1396   22.8484 C   0  0  0  0  0  0
  -24.1478  -36.7304   23.2641 C   0  0  0  0  0  0
  -25.9584  -30.7979   21.3752 C   0  0  0  0  0  0
  -26.0337  -29.4269   20.7174 C   0  0  0  0  0  0
  -27.2189  -28.6365   20.7111 C   0  0  0  0  0  0
  -26.0390  -26.8968   19.4987 C   0  0  0  0  0  0
  -24.8688  -27.6799   19.4965 C   0  0  0  0  0  0
  -23.6356  -29.8229   20.1601 C   0  0  0  0  0  0
  -25.4100  -36.3097   24.0332 C   0  0  1  0  0  0
  -20.5888  -28.3697   23.1275 C   0  0  2  0  0  0
  -20.6778  -26.9412   22.5420 C   0  0  0  0  0  0
  -19.5757  -26.6386   21.5220 C   0  0  0  0  0  0
  -18.1931  -26.7936   22.1627 C   0  0  0  0  0  0
  -19.1538  -28.8860   23.2883 C   0  0  0  0  0  0
  -18.9463  -30.1457   23.8910 C   0  0  0  0  0  0
  -17.6464  -30.6599   24.0562 C   0  0  0  0  0  0
  -25.9036  -34.9458   23.5118 C   0  0  0  0  0  0
  -16.5354  -29.9104   23.6324 C   0  0  0  0  0  0
  -16.7269  -28.6519   23.0347 C   0  0  0  0  0  0
  -26.4479  -31.6612   25.0746 C   0  0  0  0  0  0
  -25.3708  -31.3747   26.1471 C   0  0  0  0  0  0
  -27.0332  -30.3038   24.6209 C   0  0  0  0  0  0
  -27.6043  -32.4350   25.7507 C   0  0  0  0  0  0
  -27.5575  -37.1796   24.8452 C   0  0  0  0  0  0
  -21.4177  -29.3038   22.3652 N   0  0  0  0  0  0
  -26.4282  -37.3790   23.9412 N   0  0  0  0  0  0
  -24.6851  -31.0645   22.0984 N   0  0  0  0  0  0
  -23.4188  -28.8166   23.2991 O   0  0  0  0  0  0
  -28.3460  -26.5042   20.1353 O   0  0  0  0  0  0
  -26.5611  -34.8922   22.4689 O   0  0  0  0  0  0
  -23.5404  -32.1385   23.7386 O   0  0  0  0  0  0
  -31.0176  -19.1581   20.3261 C   0  0  0  0  0  0
  -29.7849  -19.8740   20.3299 C   0  0  0  0  0  0
  -29.9599  -17.0979   20.7206 C   0  0  0  0  0  0
  -28.7391  -17.8382   20.7897 C   0  0  0  0  0  0
  -29.7062  -21.3654   19.8383 C   0  0  0  0  0  0
  -29.0267  -23.9678   20.0038 C   0  0  0  0  0  0
  -28.1681  -25.1329   20.6549 C   0  0  0  0  0  0
  -29.0412  -22.5267   20.6971 C   0  0  2  0  0  0
  -31.1071  -17.8005   20.5028 N   0  0  0  0  0  0
  -28.6366  -19.1806   20.5621 N   0  0  0  0  0  0
  -27.5413  -17.2028   21.0876 N   0  0  0  0  0  0
  -29.8430  -15.6568   20.8770 N   0  0  0  0  0  0
  -29.7419  -22.6554   21.9267 O   0  0  0  0  0  0
  -31.4821  -12.4857   19.1534 H   0  0  0  0  0  0
  -30.3569  -11.3784   19.8834 H   0  0  0  0  0  0
  -29.7602  -11.7622   17.4711 H   0  0  0  0  0  0
  -29.6730  -13.4815   17.7436 H   0  0  0  0  0  0
  -27.8279  -11.3224   18.8189 H   0  0  0  0  0  0
  -27.3835  -12.6537   17.7851 H   0  0  0  0  0  0
  -27.6773  -14.2669   19.5518 H   0  0  0  0  0  0
  -28.7085  -12.0279   21.3592 H   0  0  0  0  0  0
  -28.4604  -13.6717   21.8624 H   0  0  0  0  0  0
  -25.2778   -9.5666   22.4757 H   0  0  0  0  0  0
  -24.0004   -7.4628   22.7474 H   0  0  0  0  0  0
  -21.0839   -8.8785   19.8970 H   0  0  0  0  0  0
  -22.3715  -10.9670   19.6168 H   0  0  0  0  0  0
  -21.2041   -7.6155   23.9713 H   0  0  0  0  0  0
  -21.1472   -6.0521   25.9059 H   0  0  0  0  0  0
  -22.0603   -2.7620   23.2829 H   0  0  0  0  0  0
  -22.4089  -11.9920   22.4838 H   0  0  0  0  0  0
  -21.1072  -13.1257   22.2593 H   0  0  0  0  0  0
  -24.6188  -15.8200   20.5370 H   0  0  0  0  0  0
  -26.2634  -15.6849   20.2087 H   0  0  0  0  0  0
  -26.7156  -32.5472   23.1125 H   0  0  0  0  0  0
  -24.9992  -33.9739   25.0403 H   0  0  0  0  0  0
  -22.7108  -31.3056   21.4026 H   0  0  0  0  0  0
  -23.3748  -35.9629   23.3295 H   0  0  0  0  0  0
  -24.3575  -36.8939   22.2059 H   0  0  0  0  0  0
  -23.7225  -37.6497   23.6674 H   0  0  0  0  0  0
  -26.0910  -31.5625   20.6088 H   0  0  0  0  0  0
  -26.8376  -30.8447   22.0068 H   0  0  0  0  0  0
  -28.1175  -29.0042   21.1866 H   0  0  0  0  0  0
  -26.0098  -25.9319   19.0134 H   0  0  0  0  0  0
  -23.9735  -27.3020   19.0223 H   0  0  0  0  0  0
  -23.7614  -30.6011   19.4065 H   0  0  0  0  0  0
  -22.7549  -29.2572   19.8518 H   0  0  0  0  0  0
  -25.1281  -36.1948   25.0825 H   0  0  0  0  0  0
  -20.9988  -28.3290   24.1393 H   0  0  0  0  0  0
  -20.5690  -26.2294   23.3621 H   0  0  0  0  0  0
  -21.6644  -26.7443   22.1207 H   0  0  0  0  0  0
  -19.6912  -25.6293   21.1256 H   0  0  0  0  0  0
  -19.6712  -27.3192   20.6747 H   0  0  0  0  0  0
  -17.4197  -26.6672   21.4033 H   0  0  0  0  0  0
  -18.0330  -26.0093   22.9039 H   0  0  0  0  0  0
  -19.7938  -30.7260   24.2303 H   0  0  0  0  0  0
  -17.5024  -31.6286   24.5152 H   0  0  0  0  0  0
  -15.5358  -30.3018   23.7646 H   0  0  0  0  0  0
  -15.8663  -28.0849   22.7062 H   0  0  0  0  0  0
  -24.5862  -30.7130   25.7782 H   0  0  0  0  0  0
  -24.8929  -32.2918   26.4926 H   0  0  0  0  0  0
  -25.8023  -30.8884   27.0229 H   0  0  0  0  0  0
  -26.2919  -29.6791   24.1210 H   0  0  0  0  0  0
  -27.3995  -29.7304   25.4737 H   0  0  0  0  0  0
  -27.8805  -30.4340   23.9473 H   0  0  0  0  0  0
  -27.2652  -33.3639   26.2110 H   0  0  0  0  0  0
  -28.3832  -32.6929   25.0317 H   0  0  0  0  0  0
  -28.0733  -31.8458   26.5400 H   0  0  0  0  0  0
  -28.2574  -38.0111   24.7523 H   0  0  0  0  0  0
  -28.1088  -36.2642   24.6243 H   0  0  0  0  0  0
  -27.2294  -37.1403   25.8854 H   0  0  0  0  0  0
  -20.9342  -29.8746   21.6860 H   0  0  0  0  0  0
  -26.0162  -38.2858   24.1452 H   0  0  0  0  0  0
  -31.9435  -19.6709   20.1080 H   0  0  0  0  0  0
  -29.1761  -21.3255   18.8862 H   0  0  0  0  0  0
  -30.7197  -21.6753   19.5762 H   0  0  0  0  0  0
  -30.0557  -24.3147   19.9018 H   0  0  0  0  0  0
  -28.6668  -23.8464   18.9814 H   0  0  0  0  0  0
  -28.4138  -25.1816   21.7166 H   0  0  0  0  0  0
  -27.1217  -24.8275   20.6306 H   0  0  0  0  0  0
  -28.0117  -22.2379   20.9147 H   0  0  0  0  0  0
  -27.5931  -16.4771   21.7908 H   0  0  0  0  0  0
  -26.7758  -17.8355   21.2849 H   0  0  0  0  0  0
  -28.9019  -15.3755   21.0965 H   0  0  0  0  0  0
  -30.6291  -22.9487   21.7396 H   0  0  0  0  0  0
  1 25  1  0  0  0
  1 30  2  0  0  0
  1 82  1  0  0  0
  2  3  1  0  0  0
  2 25  1  0  0  0
  2 84  1  0  0  0
  2 85  1  0  0  0
  3  4  1  0  0  0
  3 86  1  0  0  0
  3 87  1  0  0  0
  4  5  1  0  0  0
  4 88  1  0  0  0
  4 89  1  0  0  0
  5  6  1  0  0  0
  5 26  1  0  0  0
  5 90  1  0  0  0
  6 25  1  0  0  0
  6 91  1  0  0  0
  6 92  1  0  0  0
  7  8  2  0  0  0
  7 26  1  0  0  0
  7 29  1  0  0  0
  8  9  1  0  0  0
  8 22  1  0  0  0
  9 10  1  0  0  0
  9 27  2  0  0  0
 10 11  2  0  0  0
 10 15  1  0  0  0
 11 12  1  0  0  0
 11 93  1  0  0  0
 12 13  2  0  0  0
 12 94  1  0  0  0
 13 14  1  0  0  0
 13 31  1  0  0  0
 14 15  2  0  0  0
 14 95  1  0  0  0
 15 96  1  0  0  0
 16 17  2  0  0  0
 16 21  1  0  0  0
 16 31  1  0  0  0
 17 18  1  0  0  0
 17 97  1  0  0  0
 18 19  2  0  0  0
 18 98  1  0  0  0
 19 20  1  0  0  0
 19 24  1  0  0  0
 20 21  2  0  0  0
 20 99  1  0  0  0
 21 23  1  0  0  0
 22 28  1  0  0  0
 22 32  2  0  0  0
 26 27  1  0  0  0
 28100  1  0  0  0
 28101  1  0  0  0
 29102  1  0  0  0
 29103  1  0  0  0
 33 34  1  0  0  0
 33 66  1  0  0  0
 33 70  2  0  0  0
 34 36  1  0  0  0
 34 59  1  0  0  0
 34104  1  0  0  0
 35 44  2  0  0  0
 35 45  1  0  0  0
 35 68  1  0  0  0
 36 56  1  0  0  0
 36105  1  0  0  0
 37 39  1  0  0  0
 37 47  1  0  0  0
 37 66  1  0  0  0
 37106  1  0  0  0
 38 43  2  0  0  0
 38 46  1  0  0  0
 38 47  1  0  0  0
 39 64  1  0  0  0
 39 67  2  0  0  0
 40 52  1  0  0  0
 40 53  2  0  0  0
 40 58  1  0  0  0
 41107  1  0  0  0
 41108  1  0  0  0
 41109  1  0  0  0
 41 48  1  0  0  0
 42 43  1  0  0  0
 42 66  1  0  0  0
 42110  1  0  0  0
 42111  1  0  0  0
 43 44  1  0  0  0
 44112  1  0  0  0
 45 46  2  0  0  0
 45113  1  0  0  0
 46114  1  0  0  0
 47115  1  0  0  0
 47116  1  0  0  0
 48 56  1  0  0  0
 48 65  1  0  0  0
 48117  1  0  0  0
 49 50  1  0  0  0
 49 53  1  0  0  0
 49 64  1  0  0  0
 49118  1  0  0  0
 50 51  1  0  0  0
 50119  1  0  0  0
 50120  1  0  0  0
 51 52  1  0  0  0
 51121  1  0  0  0
 51122  1  0  0  0
 52123  1  0  0  0
 52124  1  0  0  0
 53 54  1  0  0  0
 54 55  2  0  0  0
 54125  1  0  0  0
 55 57  1  0  0  0
 55126  1  0  0  0
 56 69  2  0  0  0
 57 58  2  0  0  0
 57127  1  0  0  0
 58128  1  0  0  0
 59 60  1  0  0  0
 59 61  1  0  0  0
 59 62  1  0  0  0
 60129  1  0  0  0
 60130  1  0  0  0
 60131  1  0  0  0
 61132  1  0  0  0
 61133  1  0  0  0
 61134  1  0  0  0
 62135  1  0  0  0
 62136  1  0  0  0
 62137  1  0  0  0
 63 65  1  0  0  0
 63138  1  0  0  0
 63139  1  0  0  0
 63140  1  0  0  0
 64141  1  0  0  0
 65142  1  0  0  0
 68 77  1  0  0  0
 71 72  2  0  0  0
 71 79  1  0  0  0
 71143  1  0  0  0
 72 75  1  0  0  0
 72 80  1  0  0  0
 73 74  1  0  0  0
 73 79  2  0  0  0
 73 82  1  0  0  0
 74 80  2  0  0  0
 74 81  1  0  0  0
 75 78  1  0  0  0
 75144  1  0  0  0
 75145  1  0  0  0
 76 77  1  0  0  0
 76 78  1  0  0  0
 76146  1  0  0  0
 76147  1  0  0  0
 77148  1  0  0  0
 77149  1  0  0  0
 78 83  1  0  0  0
 78150  1  0  0  0
 81151  1  0  0  0
 81152  1  0  0  0
 82153  1  0  0  0
 83154  1  0  0  0
M  ISO  4   1 100  68 101  77 101  82 100
M  END
> <chiral flag>
0

> <version>
0

> <s_m_source_file>
/data/baiqing/PycharmProjects/Reinvent-master-3.2/result/LINK_invent/BTK/process_docking_weight1_custom_product_contain_oxygen_bond_distance_aromatic_linkinvent_7_9_3/rearranged_h_0194.sdf

> <i_m_source_file_index>
26

> <r_mmod_Potential_Energy-OPLS-2005>
-79.2291870117188

> <r_mmod_Stretch_Energy-OPLS-2005>
74.8535690307617

> <r_mmod_Bend_Energy-OPLS-2005>
134.856231689453

> <r_mmod_Torsional_Energy-OPLS-2005>
227.039779663086

> <r_mmod_Improper_Torsional_Energy-OPLS-2005>
10.3792657852173

> <r_mmod_Van_der_Waal_Energy-OPLS-2005>
148.298965454102

> <r_mmod_Electrostatic_Energy-OPLS-2005>
-461.433776855469

> <r_mmod_Solvation_Energy-OPLS-2005>
-252.919326782227

> <b_mmod_Minimization_Converged-OPLS-2005>
0

> <r_mmod_RMS_Derivative-OPLS-2005>
2.08432030677795

$$$$
26
                    3D
 Structure written by MMmdl.
160168  0  0  1  0            999 V2000
  -30.6336  -14.5654   20.5135 C   0  0  0  0  0  0
  -30.4333  -12.3511   19.4243 C   0  0  0  0  0  0
  -29.5018  -12.5127   18.2032 C   0  0  0  0  0  0
  -28.0195  -12.3576   18.6103 C   0  0  0  0  0  0
  -27.6540  -13.2051   19.8597 C   0  0  2  0  0  0
  -28.7009  -13.0168   20.9814 C   0  0  0  0  0  0
  -25.2580  -13.8145   20.5689 C   0  0  0  0  0  0
  -24.1833  -13.0420   20.9189 C   0  0  0  0  0  0
  -24.6385  -11.6882   20.8737 C   0  0  0  0  0  0
  -23.9032  -10.4266   21.0383 C   0  0  0  0  0  0
  -24.3594   -9.4196   21.9156 C   0  0  0  0  0  0
  -23.6287   -8.2217   22.0740 C   0  0  0  0  0  0
  -22.4254   -8.0263   21.3552 C   0  0  0  0  0  0
  -21.9884   -9.0216   20.4635 C   0  0  0  0  0  0
  -22.7194  -10.2096   20.3036 C   0  0  0  0  0  0
  -21.6845   -6.0719   22.5280 C   0  0  0  0  0  0
  -21.4003   -6.5623   23.8223 C   0  0  0  0  0  0
  -21.3666   -5.6782   24.9186 C   0  0  0  0  0  0
  -21.6044   -4.3038   24.7225 C   0  0  0  0  0  0
  -21.8819   -3.8129   23.4348 C   0  0  0  0  0  0
  -21.9191   -4.6948   22.3402 C   0  0  0  0  0  0
  -22.7862  -13.5222   21.1835 C   0  0  0  0  0  0
  -22.1664   -4.2145   21.0982 F   0  0  0  0  0  0
  -21.5642   -3.4521   25.7732 F   0  0  0  0  0  0
  -30.0162  -13.3533   20.4160 N   0  0  0  0  0  0
  -26.3000  -12.9293   20.3304 N   0  0  0  0  0  0
  -25.9311  -11.6458   20.5717 N   0  0  0  0  0  0
  -22.0486  -12.8254   22.0398 N   0  0  0  0  0  0
  -25.4255  -15.1866   20.4093 N   0  0  0  0  0  0
  -31.8137  -14.7335   20.1878 O   0  0  0  0  0  0
  -21.6641   -6.8853   21.4236 O   0  0  0  0  0  0
  -22.3571  -14.5522   20.6640 O   0  0  0  0  0  0
  -24.6212  -31.8652   23.2069 C   0  0  0  0  0  0
  -25.9058  -32.4811   23.8390 C   0  0  1  0  0  0
  -27.2079  -27.3660   20.0893 C   0  0  0  0  0  0
  -25.5857  -33.8611   24.2325 N   0  0  0  0  0  0
  -23.4123  -30.4905   21.5518 C   0  0  2  0  0  0
  -24.8549  -28.9589   20.1045 C   0  0  0  0  0  0
  -22.7429  -29.4662   22.4962 C   0  0  0  0  0  0
  -18.0276  -28.1417   22.8514 C   0  0  0  0  0  0
  -24.1474  -36.7314   23.2639 C   0  0  0  0  0  0
  -25.9535  -30.8019   21.3799 C   0  0  0  0  0  0
  -26.0221  -29.4376   20.7149 C   0  0  0  0  0  0
  -27.2068  -28.6490   20.7045 C   0  0  0  0  0  0
  -26.0303  -26.9406   19.4383 C   0  0  0  0  0  0
  -24.8561  -27.7146   19.4566 C   0  0  0  0  0  0
  -23.6225  -29.8345   20.1617 C   0  0  0  0  0  0
  -25.4105  -36.3106   24.0336 C   0  0  1  0  0  0
  -20.5874  -28.3708   23.1297 C   0  0  2  0  0  0
  -20.6782  -26.9429   22.5420 C   0  0  0  0  0  0
  -19.5739  -26.6412   21.5230 C   0  0  0  0  0  0
  -18.1914  -26.7972   22.1634 C   0  0  0  0  0  0
  -19.1529  -28.8868   23.2909 C   0  0  0  0  0  0
  -18.9470  -30.1487   23.8905 C   0  0  0  0  0  0
  -17.6469  -30.6617   24.0579 C   0  0  0  0  0  0
  -25.9026  -34.9474   23.5145 C   0  0  0  0  0  0
  -16.5353  -29.9129   23.6327 C   0  0  0  0  0  0
  -16.7264  -28.6546   23.0345 C   0  0  0  0  0  0
  -26.4450  -31.6602   25.0750 C   0  0  0  0  0  0
  -25.3681  -31.3750   26.1467 C   0  0  0  0  0  0
  -27.0280  -30.3025   24.6201 C   0  0  0  0  0  0
  -27.6026  -32.4320   25.7503 C   0  0  0  0  0  0
  -27.5586  -37.1818   24.8460 C   0  0  0  0  0  0
  -21.4140  -29.3072   22.3699 N   0  0  0  0  0  0
  -26.4299  -37.3795   23.9399 N   0  0  0  0  0  0
  -24.6811  -31.0669   22.1029 N   0  0  0  0  0  0
  -23.4162  -28.8195   23.3027 O   0  0  0  0  0  0
  -28.3073  -26.5092   20.1125 O   0  0  0  0  0  0
  -26.5616  -34.8931   22.4722 O   0  0  0  0  0  0
  -23.5370  -32.1444   23.7403 O   0  0  0  0  0  0
  -30.0904  -19.2655   21.1190 C   0  0  0  0  0  0
  -30.3706  -19.0089   22.4515 C   0  0  0  0  0  0
  -30.0762  -16.9388   21.1392 C   0  0  0  0  0  0
  -31.0109  -20.7049   19.2324 C   0  0  0  0  0  0
  -28.3032  -22.4893   22.2864 C   0  0  0  0  0  0
  -28.8031  -23.9027   20.1434 C   0  0  0  0  0  0
  -28.0236  -25.1778   20.6599 C   0  0  0  0  0  0
  -30.0894  -20.6702   20.4625 C   0  0  1  0  0  0
  -28.2613  -22.5352   20.7436 C   0  0  1  0  0  0
  -29.8537  -18.0558   20.4019 N   0  0  0  0  0  0
  -30.5863  -19.9019   23.4986 N   0  0  0  0  0  0
  -29.7837  -15.6093   20.6968 N   0  0  0  0  0  0
  -28.7436  -21.2358   20.1244 N   0  3  0  0  0  0
  -30.4716  -17.2980   22.8094 S   0  0  0  0  0  0
  -31.4770  -12.4718   19.1301 H   0  0  0  0  0  0
  -30.3533  -11.3446   19.8396 H   0  0  0  0  0  0
  -29.7567  -11.7865   17.4294 H   0  0  0  0  0  0
  -29.6572  -13.4988   17.7585 H   0  0  0  0  0  0
  -27.8445  -11.3004   18.8168 H   0  0  0  0  0  0
  -27.3676  -12.6187   17.7735 H   0  0  0  0  0  0
  -27.6782  -14.2472   19.5404 H   0  0  0  0  0  0
  -28.7024  -11.9843   21.3363 H   0  0  0  0  0  0
  -28.4671  -13.6295   21.8528 H   0  0  0  0  0  0
  -25.2720   -9.5708   22.4753 H   0  0  0  0  0  0
  -24.0004   -7.4620   22.7467 H   0  0  0  0  0  0
  -21.0815   -8.8700   19.8962 H   0  0  0  0  0  0
  -22.3617  -10.9625   19.6155 H   0  0  0  0  0  0
  -21.1979   -7.6133   23.9728 H   0  0  0  0  0  0
  -21.1500   -6.0510   25.9104 H   0  0  0  0  0  0
  -22.0591   -2.7594   23.2844 H   0  0  0  0  0  0
  -22.4062  -11.9922   22.4832 H   0  0  0  0  0  0
  -21.1103  -13.1311   22.2545 H   0  0  0  0  0  0
  -24.6406  -15.8232   20.4998 H   0  0  0  0  0  0
  -26.2488  -15.6303   20.0250 H   0  0  0  0  0  0
  -26.7127  -32.5451   23.1128 H   0  0  0  0  0  0
  -24.9936  -33.9797   25.0423 H   0  0  0  0  0  0
  -22.7091  -31.3144   21.4169 H   0  0  0  0  0  0
  -23.3738  -35.9638   23.3303 H   0  0  0  0  0  0
  -24.3587  -36.8925   22.2053 H   0  0  0  0  0  0
  -23.7232  -37.6529   23.6655 H   0  0  0  0  0  0
  -26.0941  -31.5677   20.6168 H   0  0  0  0  0  0
  -26.8332  -30.8393   22.0095 H   0  0  0  0  0  0
  -28.1002  -29.0053   21.1994 H   0  0  0  0  0  0
  -26.0042  -25.9959   18.9129 H   0  0  0  0  0  0
  -23.9650  -27.3516   18.9612 H   0  0  0  0  0  0
  -23.7373  -30.6193   19.4127 H   0  0  0  0  0  0
  -22.7413  -29.2658   19.8567 H   0  0  0  0  0  0
  -25.1302  -36.1979   25.0837 H   0  0  0  0  0  0
  -21.0010  -28.3285   24.1395 H   0  0  0  0  0  0
  -20.5705  -26.2308   23.3628 H   0  0  0  0  0  0
  -21.6651  -26.7489   22.1173 H   0  0  0  0  0  0
  -19.6876  -25.6315   21.1255 H   0  0  0  0  0  0
  -19.6672  -27.3243   20.6767 H   0  0  0  0  0  0
  -17.4200  -26.6730   21.4021 H   0  0  0  0  0  0
  -18.0284  -26.0149   22.9045 H   0  0  0  0  0  0
  -19.7948  -30.7316   24.2270 H   0  0  0  0  0  0
  -17.5021  -31.6296   24.5201 H   0  0  0  0  0  0
  -15.5354  -30.3029   23.7681 H   0  0  0  0  0  0
  -15.8663  -28.0884   22.7028 H   0  0  0  0  0  0
  -24.5853  -30.7105   25.7792 H   0  0  0  0  0  0
  -24.8860  -32.2921   26.4867 H   0  0  0  0  0  0
  -25.7977  -30.8939   27.0259 H   0  0  0  0  0  0
  -26.2864  -29.6804   24.1176 H   0  0  0  0  0  0
  -27.3936  -29.7248   25.4700 H   0  0  0  0  0  0
  -27.8744  -30.4336   23.9457 H   0  0  0  0  0  0
  -27.2668  -33.3620   26.2106 H   0  0  0  0  0  0
  -28.3807  -32.6891   25.0302 H   0  0  0  0  0  0
  -28.0718  -31.8421   26.5386 H   0  0  0  0  0  0
  -28.2618  -38.0104   24.7526 H   0  0  0  0  0  0
  -28.1088  -36.2653   24.6282 H   0  0  0  0  0  0
  -27.2313  -37.1450   25.8866 H   0  0  0  0  0  0
  -20.9291  -29.8846   21.6971 H   0  0  0  0  0  0
  -26.0179  -38.2872   24.1399 H   0  0  0  0  0  0
  -32.0097  -20.3505   19.4884 H   0  0  0  0  0  0
  -31.1106  -21.7192   18.8451 H   0  0  0  0  0  0
  -30.6321  -20.0743   18.4261 H   0  0  0  0  0  0
  -27.7100  -23.2887   22.7321 H   0  0  0  0  0  0
  -29.3171  -22.5940   22.6709 H   0  0  0  0  0  0
  -27.8861  -21.5548   22.6640 H   0  0  0  0  0  0
  -29.8687  -24.0145   20.3481 H   0  0  0  0  0  0
  -28.7137  -23.8632   19.0578 H   0  0  0  0  0  0
  -28.1880  -25.2692   21.7325 H   0  0  0  0  0  0
  -26.9653  -24.9343   20.5780 H   0  0  0  0  0  0
  -30.5555  -21.3560   21.1681 H   0  0  0  0  0  0
  -27.1973  -22.5415   20.4884 H   0  0  0  0  0  0
  -30.3569  -20.8899   23.4777 H   0  0  0  0  0  0
  -30.7849  -19.5880   24.4459 H   0  0  0  0  0  0
  -28.8170  -15.3425   20.7854 H   0  0  0  0  0  0
  -28.0848  -20.5206   20.3850 H   0  0  0  0  0  0
  -28.6766  -21.2943   19.1212 H   0  0  0  0  0  0
  1 25  1  0  0  0
  1 30  2  0  0  0
  1 82  1  0  0  0
  2  3  1  0  0  0
  2 25  1  0  0  0
  2 85  1  0  0  0
  2 86  1  0  0  0
  3  4  1  0  0  0
  3 87  1  0  0  0
  3 88  1  0  0  0
  4  5  1  0  0  0
  4 89  1  0  0  0
  4 90  1  0  0  0
  5  6  1  0  0  0
  5 26  1  0  0  0
  5 91  1  0  0  0
  6 25  1  0  0  0
  6 92  1  0  0  0
  6 93  1  0  0  0
  7  8  2  0  0  0
  7 26  1  0  0  0
  7 29  1  0  0  0
  8  9  1  0  0  0
  8 22  1  0  0  0
  9 10  1  0  0  0
  9 27  2  0  0  0
 10 11  2  0  0  0
 10 15  1  0  0  0
 11 12  1  0  0  0
 11 94  1  0  0  0
 12 13  2  0  0  0
 12 95  1  0  0  0
 13 14  1  0  0  0
 13 31  1  0  0  0
 14 15  2  0  0  0
 14 96  1  0  0  0
 15 97  1  0  0  0
 16 17  2  0  0  0
 16 21  1  0  0  0
 16 31  1  0  0  0
 17 18  1  0  0  0
 17 98  1  0  0  0
 18 19  2  0  0  0
 18 99  1  0  0  0
 19 20  1  0  0  0
 19 24  1  0  0  0
 20 21  2  0  0  0
 20100  1  0  0  0
 21 23  1  0  0  0
 22 28  1  0  0  0
 22 32  2  0  0  0
 26 27  1  0  0  0
 28101  1  0  0  0
 28102  1  0  0  0
 29103  1  0  0  0
 29104  1  0  0  0
 33 34  1  0  0  0
 33 66  1  0  0  0
 33 70  2  0  0  0
 34 36  1  0  0  0
 34 59  1  0  0  0
 34105  1  0  0  0
 35 44  2  0  0  0
 35 45  1  0  0  0
 35 68  1  0  0  0
 36 56  1  0  0  0
 36106  1  0  0  0
 37 39  1  0  0  0
 37 47  1  0  0  0
 37 66  1  0  0  0
 37107  1  0  0  0
 38 43  2  0  0  0
 38 46  1  0  0  0
 38 47  1  0  0  0
 39 64  1  0  0  0
 39 67  2  0  0  0
 40 52  1  0  0  0
 40 53  2  0  0  0
 40 58  1  0  0  0
 41108  1  0  0  0
 41109  1  0  0  0
 41110  1  0  0  0
 41 48  1  0  0  0
 42 43  1  0  0  0
 42 66  1  0  0  0
 42111  1  0  0  0
 42112  1  0  0  0
 43 44  1  0  0  0
 44113  1  0  0  0
 45 46  2  0  0  0
 45114  1  0  0  0
 46115  1  0  0  0
 47116  1  0  0  0
 47117  1  0  0  0
 48 56  1  0  0  0
 48 65  1  0  0  0
 48118  1  0  0  0
 49 50  1  0  0  0
 49 53  1  0  0  0
 49 64  1  0  0  0
 49119  1  0  0  0
 50 51  1  0  0  0
 50120  1  0  0  0
 50121  1  0  0  0
 51 52  1  0  0  0
 51122  1  0  0  0
 51123  1  0  0  0
 52124  1  0  0  0
 52125  1  0  0  0
 53 54  1  0  0  0
 54 55  2  0  0  0
 54126  1  0  0  0
 55 57  1  0  0  0
 55127  1  0  0  0
 56 69  2  0  0  0
 57 58  2  0  0  0
 57128  1  0  0  0
 58129  1  0  0  0
 59 60  1  0  0  0
 59 61  1  0  0  0
 59 62  1  0  0  0
 60130  1  0  0  0
 60131  1  0  0  0
 60132  1  0  0  0
 61133  1  0  0  0
 61134  1  0  0  0
 61135  1  0  0  0
 62136  1  0  0  0
 62137  1  0  0  0
 62138  1  0  0  0
 63 65  1  0  0  0
 63139  1  0  0  0
 63140  1  0  0  0
 63141  1  0  0  0
 64142  1  0  0  0
 65143  1  0  0  0
 68 77  1  0  0  0
 71 72  2  0  0  0
 71 78  1  0  0  0
 71 80  1  0  0  0
 72 81  1  0  0  0
 72 84  1  0  0  0
 73 80  2  0  0  0
 73 82  1  0  0  0
 73 84  1  0  0  0
 74144  1  0  0  0
 74145  1  0  0  0
 74146  1  0  0  0
 74 78  1  0  0  0
 75147  1  0  0  0
 75148  1  0  0  0
 75149  1  0  0  0
 75 79  1  0  0  0
 76 77  1  0  0  0
 76 79  1  0  0  0
 76150  1  0  0  0
 76151  1  0  0  0
 77152  1  0  0  0
 77153  1  0  0  0
 78 83  1  0  0  0
 78154  1  0  0  0
 79 83  1  0  0  0
 79155  1  0  0  0
 81156  1  0  0  0
 81157  1  0  0  0
 82158  1  0  0  0
 83159  1  0  0  0
 83160  1  0  0  0
M  CHG  1  83   1
M  ISO  4   1 100  68 101  77 101  82 100
M  END
> <chiral flag>
0

> <version>
0

> <s_m_source_file>
/data/baiqing/PycharmProjects/Reinvent-master-3.2/result/LINK_invent/BTK/process_docking_weight1_custom_product_contain_oxygen_bond_distance_aromatic_linkinvent_7_9_3/rearranged_h_0194.sdf

> <i_m_source_file_index>
27

> <r_mmod_Potential_Energy-OPLS-2005>
-145.806442260742

> <r_mmod_Stretch_Energy-OPLS-2005>
59.2803001403809

> <r_mmod_Bend_Energy-OPLS-2005>
133.293930053711

> <r_mmod_Torsional_Energy-OPLS-2005>
266.620422363281

> <r_mmod_Improper_Torsional_Energy-OPLS-2005>
10.2700138092041

> <r_mmod_Van_der_Waal_Energy-OPLS-2005>
119.44164276123

> <r_mmod_Electrostatic_Energy-OPLS-2005>
-291.145629882812

> <r_mmod_Solvation_Energy-OPLS-2005>
-477.987152099609

> <b_mmod_Minimization_Converged-OPLS-2005>
0

> <r_mmod_RMS_Derivative-OPLS-2005>
4.17251205444336

$$$$
27
                    3D
 Structure written by MMmdl.
158166  0  0  1  0            999 V2000
  -30.6540  -14.6798   20.4955 C   0  0  0  0  0  0
  -30.4144  -12.4309   19.4648 C   0  0  0  0  0  0
  -29.4962  -12.5142   18.2290 C   0  0  0  0  0  0
  -28.0231  -12.3503   18.6379 C   0  0  0  0  0  0
  -27.6387  -13.2356   19.8536 C   0  0  2  0  0  0
  -28.6793  -13.1581   20.9913 C   0  0  0  0  0  0
  -25.2477  -13.8207   20.5681 C   0  0  0  0  0  0
  -24.1795  -13.0443   20.9201 C   0  0  0  0  0  0
  -24.6390  -11.6912   20.8768 C   0  0  0  0  0  0
  -23.9070  -10.4296   21.0432 C   0  0  0  0  0  0
  -24.3629   -9.4208   21.9195 C   0  0  0  0  0  0
  -23.6309   -8.2252   22.0741 C   0  0  0  0  0  0
  -22.4294   -8.0286   21.3532 C   0  0  0  0  0  0
  -21.9930   -9.0266   20.4650 C   0  0  0  0  0  0
  -22.7255  -10.2140   20.3073 C   0  0  0  0  0  0
  -21.6867   -6.0755   22.5283 C   0  0  0  0  0  0
  -21.4024   -6.5642   23.8214 C   0  0  0  0  0  0
  -21.3653   -5.6788   24.9172 C   0  0  0  0  0  0
  -21.6049   -4.3059   24.7225 C   0  0  0  0  0  0
  -21.8815   -3.8153   23.4350 C   0  0  0  0  0  0
  -21.9189   -4.6982   22.3401 C   0  0  0  0  0  0
  -22.7813  -13.5217   21.1854 C   0  0  0  0  0  0
  -22.1657   -4.2154   21.0986 F   0  0  0  0  0  0
  -21.5616   -3.4540   25.7736 F   0  0  0  0  0  0
  -29.9852  -13.4859   20.4102 N   0  0  0  0  0  0
  -26.2916  -12.9429   20.3290 N   0  0  0  0  0  0
  -25.9319  -11.6558   20.5772 N   0  0  0  0  0  0
  -22.0468  -12.8229   22.0428 N   0  0  0  0  0  0
  -25.4126  -15.1953   20.4084 N   0  0  0  0  0  0
  -31.8396  -14.7474   20.1592 O   0  0  0  0  0  0
  -21.6636   -6.8911   21.4246 O   0  0  0  0  0  0
  -22.3481  -14.5515   20.6678 O   0  0  0  0  0  0
  -24.6259  -31.8593   23.2009 C   0  0  0  0  0  0
  -25.9113  -32.4755   23.8321 C   0  0  1  0  0  0
  -27.2016  -27.3234   20.1308 C   0  0  0  0  0  0
  -25.5907  -33.8549   24.2243 N   0  0  0  0  0  0
  -23.4160  -30.4869   21.5434 C   0  0  2  0  0  0
  -24.8620  -28.9488   20.0980 C   0  0  0  0  0  0
  -22.7491  -29.4618   22.4922 C   0  0  0  0  0  0
  -18.0296  -28.1363   22.8479 C   0  0  0  0  0  0
  -24.1500  -36.7298   23.2638 C   0  0  0  0  0  0
  -25.9563  -30.7914   21.3744 C   0  0  0  0  0  0
  -26.0298  -29.4239   20.7121 C   0  0  0  0  0  0
  -27.2080  -28.6204   20.7208 C   0  0  0  0  0  0
  -26.0344  -26.9159   19.4541 C   0  0  0  0  0  0
  -24.8672  -27.7007   19.4548 C   0  0  0  0  0  0
  -23.6271  -29.8248   20.1567 C   0  0  0  0  0  0
  -25.4120  -36.3070   24.0330 C   0  0  1  0  0  0
  -20.5900  -28.3666   23.1276 C   0  0  2  0  0  0
  -20.6821  -26.9404   22.5399 C   0  0  0  0  0  0
  -19.5776  -26.6370   21.5214 C   0  0  0  0  0  0
  -18.1945  -26.7897   22.1628 C   0  0  0  0  0  0
  -19.1543  -28.8838   23.2871 C   0  0  0  0  0  0
  -18.9457  -30.1461   23.8871 C   0  0  0  0  0  0
  -17.6458  -30.6575   24.0554 C   0  0  0  0  0  0
  -25.9049  -34.9436   23.5086 C   0  0  0  0  0  0
  -16.5343  -29.9078   23.6298 C   0  0  0  0  0  0
  -16.7277  -28.6490   23.0325 C   0  0  0  0  0  0
  -26.4506  -31.6561   25.0687 C   0  0  0  0  0  0
  -25.3739  -31.3707   26.1411 C   0  0  0  0  0  0
  -27.0341  -30.2967   24.6145 C   0  0  0  0  0  0
  -27.6062  -32.4300   25.7446 C   0  0  0  0  0  0
  -27.5581  -37.1801   24.8455 C   0  0  0  0  0  0
  -21.4203  -29.3039   22.3682 N   0  0  0  0  0  0
  -26.4297  -37.3759   23.9396 N   0  0  0  0  0  0
  -24.6841  -31.0632   22.0954 N   0  0  0  0  0  0
  -23.4224  -28.8153   23.2994 O   0  0  0  0  0  0
  -28.2495  -26.3999   20.2369 O   0  0  0  0  0  0
  -26.5636  -34.8903   22.4664 O   0  0  0  0  0  0
  -23.5432  -32.1366   23.7362 O   0  0  0  0  0  0
  -28.1797  -20.2265   20.5994 C   0  0  0  0  0  0
  -29.1501  -21.0289   21.1748 C   0  0  0  0  0  0
  -29.7812  -18.5356   20.8098 C   0  0  0  0  0  0
  -26.6904  -25.2007   21.8671 C   0  0  0  0  0  0
  -29.0123  -23.5725   24.1252 C   0  0  0  0  0  0
  -30.5767  -17.2123   20.5721 C   0  0  0  0  0  0
  -28.6969  -23.7879   20.7836 C   0  0  0  0  0  0
  -29.1280  -22.5028   21.7249 C   0  0  1  0  0  0
  -28.1019  -25.2671   21.2061 C   0  0  1  0  0  0
  -28.4752  -22.5073   23.1501 C   0  0  1  0  0  0
  -28.5427  -18.8587   20.3921 N   0  0  0  0  0  0
  -29.9572  -15.8416   20.7447 N   0  0  0  0  0  0
  -28.7259  -21.3475   23.7594 F   0  0  0  0  0  0
  -30.5692  -20.0016   21.4664 S   0  0  0  0  0  0
  -31.4568  -12.5438   19.1573 H   0  0  0  0  0  0
  -30.3418  -11.4517   19.9387 H   0  0  0  0  0  0
  -29.7667  -11.7471   17.5042 H   0  0  0  0  0  0
  -29.6355  -13.4726   17.7281 H   0  0  0  0  0  0
  -27.8698  -11.2980   18.8759 H   0  0  0  0  0  0
  -27.3693  -12.5647   17.7920 H   0  0  0  0  0  0
  -27.6377  -14.2640   19.4883 H   0  0  0  0  0  0
  -28.7019  -12.1660   21.4410 H   0  0  0  0  0  0
  -28.4157  -13.8486   21.7936 H   0  0  0  0  0  0
  -25.2786   -9.5661   22.4744 H   0  0  0  0  0  0
  -24.0001   -7.4648   22.7456 H   0  0  0  0  0  0
  -21.0847   -8.8824   19.8968 H   0  0  0  0  0  0
  -22.3746  -10.9688   19.6171 H   0  0  0  0  0  0
  -21.2024   -7.6147   23.9722 H   0  0  0  0  0  0
  -21.1474   -6.0520   25.9070 H   0  0  0  0  0  0
  -22.0598   -2.7618   23.2846 H   0  0  0  0  0  0
  -22.4102  -11.9915   22.4866 H   0  0  0  0  0  0
  -21.1076  -13.1228   22.2616 H   0  0  0  0  0  0
  -24.6342  -15.8384   20.5049 H   0  0  0  0  0  0
  -26.2544  -15.6444   20.0689 H   0  0  0  0  0  0
  -26.7186  -32.5442   23.1081 H   0  0  0  0  0  0
  -25.0054  -33.9646   25.0391 H   0  0  0  0  0  0
  -22.7094  -31.3088   21.4066 H   0  0  0  0  0  0
  -23.3728  -35.9661   23.3297 H   0  0  0  0  0  0
  -24.3592  -36.8899   22.2041 H   0  0  0  0  0  0
  -23.7252  -37.6508   23.6665 H   0  0  0  0  0  0
  -26.0921  -31.5581   20.6114 H   0  0  0  0  0  0
  -26.8363  -30.8300   22.0044 H   0  0  0  0  0  0
  -28.1004  -28.9694   21.2209 H   0  0  0  0  0  0
  -26.0064  -25.9464   18.9781 H   0  0  0  0  0  0
  -23.9757  -27.3330   18.9644 H   0  0  0  0  0  0
  -23.7380  -30.5991   19.3976 H   0  0  0  0  0  0
  -22.7466  -29.2508   19.8597 H   0  0  0  0  0  0
  -25.1301  -36.1933   25.0822 H   0  0  0  0  0  0
  -21.0022  -28.3246   24.1388 H   0  0  0  0  0  0
  -20.5743  -26.2294   23.3604 H   0  0  0  0  0  0
  -21.6699  -26.7436   22.1218 H   0  0  0  0  0  0
  -19.6955  -25.6304   21.1184 H   0  0  0  0  0  0
  -19.6685  -27.3159   20.6737 H   0  0  0  0  0  0
  -17.4248  -26.6671   21.4000 H   0  0  0  0  0  0
  -18.0341  -26.0011   22.8999 H   0  0  0  0  0  0
  -19.7935  -30.7275   24.2244 H   0  0  0  0  0  0
  -17.4997  -31.6257   24.5170 H   0  0  0  0  0  0
  -15.5341  -30.2968   23.7624 H   0  0  0  0  0  0
  -15.8698  -28.0796   22.7036 H   0  0  0  0  0  0
  -24.5931  -30.7039   25.7727 H   0  0  0  0  0  0
  -24.8944  -32.2891   26.4811 H   0  0  0  0  0  0
  -25.8073  -30.8890   27.0184 H   0  0  0  0  0  0
  -26.2912  -29.6693   24.1207 H   0  0  0  0  0  0
  -27.4046  -29.7232   25.4648 H   0  0  0  0  0  0
  -27.8787  -30.4190   23.9358 H   0  0  0  0  0  0
  -27.2672  -33.3597   26.2018 H   0  0  0  0  0  0
  -28.3888  -32.6840   25.0289 H   0  0  0  0  0  0
  -28.0737  -31.8431   26.5357 H   0  0  0  0  0  0
  -28.2617  -38.0091   24.7514 H   0  0  0  0  0  0
  -28.1076  -36.2614   24.6310 H   0  0  0  0  0  0
  -27.2306  -37.1473   25.8864 H   0  0  0  0  0  0
  -20.9406  -29.8739   21.6852 H   0  0  0  0  0  0
  -26.0179  -38.2839   24.1383 H   0  0  0  0  0  0
  -27.1777  -20.5339   20.3307 H   0  0  0  0  0  0
  -26.6654  -24.5398   22.7285 H   0  0  0  0  0  0
  -25.9329  -24.8462   21.1693 H   0  0  0  0  0  0
  -26.3727  -26.1663   22.2614 H   0  0  0  0  0  0
  -28.6812  -24.5780   23.8874 H   0  0  0  0  0  0
  -30.1008  -23.5776   24.1476 H   0  0  0  0  0  0
  -28.6693  -23.3709   25.1410 H   0  0  0  0  0  0
  -31.4599  -17.2540   21.2103 H   0  0  0  0  0  0
  -30.9641  -17.2748   19.5537 H   0  0  0  0  0  0
  -29.5899  -24.2111   21.2401 H   0  0  0  0  0  0
  -27.7274  -23.3567   21.0107 H   0  0  0  0  0  0
  -30.1911  -22.6219   21.9666 H   0  0  0  0  0  0
  -28.7035  -25.6766   22.0262 H   0  0  0  0  0  0
  -27.3870  -22.5276   23.0924 H   0  0  0  0  0  0
  -28.9761  -15.7910   20.9722 H   0  0  0  0  0  0
  1 25  1  0  0  0
  1 30  2  0  0  0
  1 82  1  0  0  0
  2  3  1  0  0  0
  2 25  1  0  0  0
  2 85  1  0  0  0
  2 86  1  0  0  0
  3  4  1  0  0  0
  3 87  1  0  0  0
  3 88  1  0  0  0
  4  5  1  0  0  0
  4 89  1  0  0  0
  4 90  1  0  0  0
  5  6  1  0  0  0
  5 26  1  0  0  0
  5 91  1  0  0  0
  6 25  1  0  0  0
  6 92  1  0  0  0
  6 93  1  0  0  0
  7  8  2  0  0  0
  7 26  1  0  0  0
  7 29  1  0  0  0
  8  9  1  0  0  0
  8 22  1  0  0  0
  9 10  1  0  0  0
  9 27  2  0  0  0
 10 11  2  0  0  0
 10 15  1  0  0  0
 11 12  1  0  0  0
 11 94  1  0  0  0
 12 13  2  0  0  0
 12 95  1  0  0  0
 13 14  1  0  0  0
 13 31  1  0  0  0
 14 15  2  0  0  0
 14 96  1  0  0  0
 15 97  1  0  0  0
 16 17  2  0  0  0
 16 21  1  0  0  0
 16 31  1  0  0  0
 17 18  1  0  0  0
 17 98  1  0  0  0
 18 19  2  0  0  0
 18 99  1  0  0  0
 19 20  1  0  0  0
 19 24  1  0  0  0
 20 21  2  0  0  0
 20100  1  0  0  0
 21 23  1  0  0  0
 22 28  1  0  0  0
 22 32  2  0  0  0
 26 27  1  0  0  0
 28101  1  0  0  0
 28102  1  0  0  0
 29103  1  0  0  0
 29104  1  0  0  0
 33 34  1  0  0  0
 33 66  1  0  0  0
 33 70  2  0  0  0
 34 36  1  0  0  0
 34 59  1  0  0  0
 34105  1  0  0  0
 35 44  2  0  0  0
 35 45  1  0  0  0
 35 68  1  0  0  0
 36 56  1  0  0  0
 36106  1  0  0  0
 37 39  1  0  0  0
 37 47  1  0  0  0
 37 66  1  0  0  0
 37107  1  0  0  0
 38 43  2  0  0  0
 38 46  1  0  0  0
 38 47  1  0  0  0
 39 64  1  0  0  0
 39 67  2  0  0  0
 40 52  1  0  0  0
 40 53  2  0  0  0
 40 58  1  0  0  0
 41108  1  0  0  0
 41109  1  0  0  0
 41110  1  0  0  0
 41 48  1  0  0  0
 42 43  1  0  0  0
 42 66  1  0  0  0
 42111  1  0  0  0
 42112  1  0  0  0
 43 44  1  0  0  0
 44113  1  0  0  0
 45 46  2  0  0  0
 45114  1  0  0  0
 46115  1  0  0  0
 47116  1  0  0  0
 47117  1  0  0  0
 48 56  1  0  0  0
 48 65  1  0  0  0
 48118  1  0  0  0
 49 50  1  0  0  0
 49 53  1  0  0  0
 49 64  1  0  0  0
 49119  1  0  0  0
 50 51  1  0  0  0
 50120  1  0  0  0
 50121  1  0  0  0
 51 52  1  0  0  0
 51122  1  0  0  0
 51123  1  0  0  0
 52124  1  0  0  0
 52125  1  0  0  0
 53 54  1  0  0  0
 54 55  2  0  0  0
 54126  1  0  0  0
 55 57  1  0  0  0
 55127  1  0  0  0
 56 69  2  0  0  0
 57 58  2  0  0  0
 57128  1  0  0  0
 58129  1  0  0  0
 59 60  1  0  0  0
 59 61  1  0  0  0
 59 62  1  0  0  0
 60130  1  0  0  0
 60131  1  0  0  0
 60132  1  0  0  0
 61133  1  0  0  0
 61134  1  0  0  0
 61135  1  0  0  0
 62136  1  0  0  0
 62137  1  0  0  0
 62138  1  0  0  0
 63 65  1  0  0  0
 63139  1  0  0  0
 63140  1  0  0  0
 63141  1  0  0  0
 64142  1  0  0  0
 65143  1  0  0  0
 68 79  1  0  0  0
 71 72  2  0  0  0
 71 81  1  0  0  0
 71144  1  0  0  0
 72 78  1  0  0  0
 72 84  1  0  0  0
 73 76  1  0  0  0
 73 81  2  0  0  0
 73 84  1  0  0  0
 74145  1  0  0  0
 74146  1  0  0  0
 74147  1  0  0  0
 74 79  1  0  0  0
 75148  1  0  0  0
 75149  1  0  0  0
 75150  1  0  0  0
 75 80  1  0  0  0
 76 82  1  0  0  0
 76151  1  0  0  0
 76152  1  0  0  0
 77 79  1  0  0  0
 77153  1  0  0  0
 77154  1  0  0  0
 77 78  1  0  0  0
 78 80  1  0  0  0
 78155  1  0  0  0
 79156  1  0  0  0
 80 83  1  0  0  0
 80157  1  0  0  0
 82158  1  0  0  0
M  ISO  4   1 100  68 101  79 101  82 100
M  END
> <chiral flag>
0

> <version>
0

> <s_m_source_file>
/data/baiqing/PycharmProjects/Reinvent-master-3.2/result/LINK_invent/BTK/process_docking_weight1_custom_product_contain_oxygen_bond_distance_aromatic_linkinvent_7_9_3/rearranged_h_0194.sdf

> <i_m_source_file_index>
28

> <r_mmod_Potential_Energy-OPLS-2005>
328.188507080078

> <r_mmod_Stretch_Energy-OPLS-2005>
111.611801147461

> <r_mmod_Bend_Energy-OPLS-2005>
405.217681884766

> <r_mmod_Torsional_Energy-OPLS-2005>
244.646347045898

> <r_mmod_Improper_Torsional_Energy-OPLS-2005>
6.33752059936523

> <r_mmod_Van_der_Waal_Energy-OPLS-2005>
153.920333862305

> <r_mmod_Electrostatic_Energy-OPLS-2005>
-451.338439941406

> <r_mmod_Solvation_Energy-OPLS-2005>
-209.435195922852

> <b_mmod_Minimization_Converged-OPLS-2005>
0

> <r_mmod_RMS_Derivative-OPLS-2005>
4.0068507194519

$$$$
28
                    3D
 Structure written by MMmdl.
153161  0  0  1  0            999 V2000
  -30.6106  -14.7655   20.4546 C   0  0  0  0  0  0
  -30.4282  -12.4664   19.4671 C   0  0  0  0  0  0
  -29.5081  -12.5127   18.2278 C   0  0  0  0  0  0
  -28.0348  -12.3323   18.6422 C   0  0  0  0  0  0
  -27.6376  -13.2321   19.8432 C   0  0  2  0  0  0
  -28.6854  -13.1805   20.9760 C   0  0  0  0  0  0
  -25.2504  -13.8191   20.5694 C   0  0  0  0  0  0
  -24.1797  -13.0430   20.9222 C   0  0  0  0  0  0
  -24.6389  -11.6917   20.8757 C   0  0  0  0  0  0
  -23.9056  -10.4292   21.0408 C   0  0  0  0  0  0
  -24.3610   -9.4214   21.9189 C   0  0  0  0  0  0
  -23.6294   -8.2245   22.0759 C   0  0  0  0  0  0
  -22.4279   -8.0274   21.3545 C   0  0  0  0  0  0
  -21.9904   -9.0245   20.4649 C   0  0  0  0  0  0
  -22.7224  -10.2133   20.3062 C   0  0  0  0  0  0
  -21.6856   -6.0734   22.5282 C   0  0  0  0  0  0
  -21.4021   -6.5645   23.8214 C   0  0  0  0  0  0
  -21.3669   -5.6794   24.9173 C   0  0  0  0  0  0
  -21.6049   -4.3054   24.7230 C   0  0  0  0  0  0
  -21.8816   -3.8144   23.4351 C   0  0  0  0  0  0
  -21.9198   -4.6959   22.3406 C   0  0  0  0  0  0
  -22.7821  -13.5216   21.1877 C   0  0  0  0  0  0
  -22.1663   -4.2141   21.0985 F   0  0  0  0  0  0
  -21.5628   -3.4543   25.7742 F   0  0  0  0  0  0
  -29.9797  -13.5398   20.3838 N   0  0  0  0  0  0
  -26.2917  -12.9397   20.3249 N   0  0  0  0  0  0
  -25.9319  -11.6541   20.5743 N   0  0  0  0  0  0
  -22.0475  -12.8193   22.0428 N   0  0  0  0  0  0
  -25.4151  -15.1924   20.4115 N   0  0  0  0  0  0
  -31.8146  -14.8296   20.1860 O   0  0  0  0  0  0
  -21.6647   -6.8871   21.4242 O   0  0  0  0  0  0
  -22.3512  -14.5522   20.6723 O   0  0  0  0  0  0
  -24.6311  -31.8554   23.1959 C   0  0  0  0  0  0
  -25.9132  -32.4758   23.8314 C   0  0  1  0  0  0
  -27.2235  -27.2594   20.1383 C   0  0  0  0  0  0
  -25.5923  -33.8557   24.2237 N   0  0  0  0  0  0
  -23.4285  -30.4743   21.5415 C   0  0  2  0  0  0
  -24.8760  -28.9124   20.1186 C   0  0  0  0  0  0
  -22.7498  -29.4606   22.4935 C   0  0  0  0  0  0
  -18.0291  -28.1397   22.8494 C   0  0  0  0  0  0
  -24.1489  -36.7286   23.2632 C   0  0  0  0  0  0
  -25.9729  -30.7686   21.3734 C   0  0  0  0  0  0
  -26.0486  -29.3864   20.7225 C   0  0  0  0  0  0
  -27.2289  -28.5741   20.7154 C   0  0  0  0  0  0
  -26.0288  -26.8456   19.5166 C   0  0  0  0  0  0
  -24.8706  -27.6489   19.5049 C   0  0  0  0  0  0
  -23.6473  -29.8014   20.1611 C   0  0  0  0  0  0
  -25.4115  -36.3071   24.0318 C   0  0  1  0  0  0
  -20.5891  -28.3707   23.1282 C   0  0  2  0  0  0
  -20.6784  -26.9427   22.5419 C   0  0  0  0  0  0
  -19.5764  -26.6395   21.5218 C   0  0  0  0  0  0
  -18.1936  -26.7937   22.1625 C   0  0  0  0  0  0
  -19.1543  -28.8869   23.2880 C   0  0  0  0  0  0
  -18.9462  -30.1464   23.8901 C   0  0  0  0  0  0
  -17.6465  -30.6601   24.0558 C   0  0  0  0  0  0
  -25.9062  -34.9442   23.5086 C   0  0  0  0  0  0
  -16.5356  -29.9098   23.6333 C   0  0  0  0  0  0
  -16.7278  -28.6514   23.0360 C   0  0  0  0  0  0
  -26.4486  -31.6576   25.0704 C   0  0  0  0  0  0
  -25.3697  -31.3726   26.1416 C   0  0  0  0  0  0
  -27.0320  -30.2992   24.6172 C   0  0  0  0  0  0
  -27.6044  -32.4310   25.7484 C   0  0  0  0  0  0
  -27.5587  -37.1784   24.8449 C   0  0  0  0  0  0
  -21.4208  -29.3045   22.3667 N   0  0  0  0  0  0
  -26.4284  -37.3779   23.9418 N   0  0  0  0  0  0
  -24.6964  -31.0512   22.0937 N   0  0  0  0  0  0
  -23.4192  -28.8165   23.3054 O   0  0  0  0  0  0
  -28.3239  -26.3741   20.1122 O   0  0  0  0  0  0
  -26.5654  -34.8923   22.4666 O   0  0  0  0  0  0
  -23.5462  -32.1372   23.7256 O   0  0  0  0  0  0
  -31.3060  -17.6856   21.4631 C   0  0  0  0  0  0
  -30.1463  -17.3588   20.7447 C   0  0  0  0  0  0
  -31.5889  -19.0299   21.7383 C   0  0  0  0  0  0
  -29.7176  -19.7390   20.6472 C   0  0  0  0  0  0
  -28.9798  -25.1981   22.0644 C   0  0  0  0  0  0
  -28.6847  -23.6347   20.0107 C   0  0  0  0  0  0
  -28.8323  -22.2458   20.8628 C   0  0  0  0  0  0
  -28.2103  -25.0155   20.7502 C   0  0  2  0  0  0
  -29.3615  -18.4494   20.3450 N   0  0  0  0  0  0
  -30.7961  -20.0416   21.3412 N   0  0  0  0  0  0
  -29.8210  -15.9137   20.5587 N   0  0  0  0  0  0
  -28.9658  -20.8791   20.1927 N   0  0  0  0  0  0
  -32.7039  -19.3348   22.4421 F   0  0  0  0  0  0
  -31.4716  -12.5827   19.1690 H   0  0  0  0  0  0
  -30.3636  -11.4929   19.9558 H   0  0  0  0  0  0
  -29.7895  -11.7387   17.5131 H   0  0  0  0  0  0
  -29.6325  -13.4672   17.7121 H   0  0  0  0  0  0
  -27.8946  -11.2828   18.9048 H   0  0  0  0  0  0
  -27.3761  -12.5271   17.7946 H   0  0  0  0  0  0
  -27.6221  -14.2505   19.4554 H   0  0  0  0  0  0
  -28.7303  -12.1865   21.4232 H   0  0  0  0  0  0
  -28.4205  -13.8656   21.7835 H   0  0  0  0  0  0
  -25.2758   -9.5704   22.4756 H   0  0  0  0  0  0
  -24.0014   -7.4644   22.7479 H   0  0  0  0  0  0
  -21.0837   -8.8759   19.8949 H   0  0  0  0  0  0
  -22.3680  -10.9670   19.6167 H   0  0  0  0  0  0
  -21.2015   -7.6151   23.9713 H   0  0  0  0  0  0
  -21.1494   -6.0528   25.9078 H   0  0  0  0  0  0
  -22.0586   -2.7604   23.2855 H   0  0  0  0  0  0
  -22.4086  -11.9850   22.4801 H   0  0  0  0  0  0
  -21.1101  -13.1220   22.2650 H   0  0  0  0  0  0
  -24.6365  -15.8338   20.5169 H   0  0  0  0  0  0
  -26.2425  -15.6413   20.0421 H   0  0  0  0  0  0
  -26.7197  -32.5410   23.1055 H   0  0  0  0  0  0
  -25.0013  -33.9683   25.0343 H   0  0  0  0  0  0
  -22.7251  -31.2952   21.3916 H   0  0  0  0  0  0
  -23.3766  -35.9601   23.3255 H   0  0  0  0  0  0
  -24.3593  -36.8961   22.2060 H   0  0  0  0  0  0
  -23.7223  -37.6459   23.6695 H   0  0  0  0  0  0
  -26.1026  -31.5254   20.5980 H   0  0  0  0  0  0
  -26.8536  -30.8259   22.0022 H   0  0  0  0  0  0
  -28.1323  -28.9366   21.1852 H   0  0  0  0  0  0
  -25.9902  -25.8750   19.0424 H   0  0  0  0  0  0
  -23.9729  -27.2787   19.0294 H   0  0  0  0  0  0
  -23.7730  -30.5729   19.4013 H   0  0  0  0  0  0
  -22.7650  -29.2345   19.8586 H   0  0  0  0  0  0
  -25.1293  -36.1901   25.0808 H   0  0  0  0  0  0
  -20.9971  -28.3287   24.1408 H   0  0  0  0  0  0
  -20.5705  -26.2309   23.3620 H   0  0  0  0  0  0
  -21.6653  -26.7475   22.1199 H   0  0  0  0  0  0
  -19.6929  -25.6301   21.1258 H   0  0  0  0  0  0
  -19.6701  -27.3199   20.6740 H   0  0  0  0  0  0
  -17.4205  -26.6686   21.4024 H   0  0  0  0  0  0
  -18.0336  -26.0079   22.9029 H   0  0  0  0  0  0
  -19.7934  -30.7279   24.2278 H   0  0  0  0  0  0
  -17.5018  -31.6284   24.5161 H   0  0  0  0  0  0
  -15.5355  -30.3004   23.7660 H   0  0  0  0  0  0
  -15.8673  -28.0832   22.7084 H   0  0  0  0  0  0
  -24.5877  -30.7076   25.7726 H   0  0  0  0  0  0
  -24.8876  -32.2894   26.4822 H   0  0  0  0  0  0
  -25.8003  -30.8906   27.0201 H   0  0  0  0  0  0
  -26.2892  -29.6756   24.1185 H   0  0  0  0  0  0
  -27.3983  -29.7241   25.4682 H   0  0  0  0  0  0
  -27.8777  -30.4258   23.9412 H   0  0  0  0  0  0
  -27.2654  -33.3611   26.2054 H   0  0  0  0  0  0
  -28.3864  -32.6867   25.0324 H   0  0  0  0  0  0
  -28.0692  -31.8432   26.5406 H   0  0  0  0  0  0
  -28.2549  -38.0131   24.7580 H   0  0  0  0  0  0
  -28.1136  -36.2675   24.6167 H   0  0  0  0  0  0
  -27.2323  -37.1298   25.8849 H   0  0  0  0  0  0
  -20.9400  -29.8719   21.6823 H   0  0  0  0  0  0
  -26.0152  -38.2835   24.1478 H   0  0  0  0  0  0
  -31.9839  -16.9270   21.8287 H   0  0  0  0  0  0
  -28.8615  -24.3391   22.7239 H   0  0  0  0  0  0
  -28.6254  -26.0742   22.6093 H   0  0  0  0  0  0
  -30.0455  -25.3329   21.8751 H   0  0  0  0  0  0
  -27.9937  -23.4616   19.1853 H   0  0  0  0  0  0
  -29.6475  -23.8296   19.5382 H   0  0  0  0  0  0
  -27.9527  -22.1640   21.5024 H   0  0  0  0  0  0
  -29.6666  -22.3677   21.5557 H   0  0  0  0  0  0
  -27.1647  -24.8648   21.0226 H   0  0  0  0  0  0
  -28.8353  -15.7219   20.5100 H   0  0  0  0  0  0
  -28.1810  -20.6247   19.6035 H   0  0  0  0  0  0
  1 25  1  0  0  0
  1 30  2  0  0  0
  1 81  1  0  0  0
  2  3  1  0  0  0
  2 25  1  0  0  0
  2 84  1  0  0  0
  2 85  1  0  0  0
  3  4  1  0  0  0
  3 86  1  0  0  0
  3 87  1  0  0  0
  4  5  1  0  0  0
  4 88  1  0  0  0
  4 89  1  0  0  0
  5  6  1  0  0  0
  5 26  1  0  0  0
  5 90  1  0  0  0
  6 25  1  0  0  0
  6 91  1  0  0  0
  6 92  1  0  0  0
  7  8  2  0  0  0
  7 26  1  0  0  0
  7 29  1  0  0  0
  8  9  1  0  0  0
  8 22  1  0  0  0
  9 10  1  0  0  0
  9 27  2  0  0  0
 10 11  2  0  0  0
 10 15  1  0  0  0
 11 12  1  0  0  0
 11 93  1  0  0  0
 12 13  2  0  0  0
 12 94  1  0  0  0
 13 14  1  0  0  0
 13 31  1  0  0  0
 14 15  2  0  0  0
 14 95  1  0  0  0
 15 96  1  0  0  0
 16 17  2  0  0  0
 16 21  1  0  0  0
 16 31  1  0  0  0
 17 18  1  0  0  0
 17 97  1  0  0  0
 18 19  2  0  0  0
 18 98  1  0  0  0
 19 20  1  0  0  0
 19 24  1  0  0  0
 20 21  2  0  0  0
 20 99  1  0  0  0
 21 23  1  0  0  0
 22 28  1  0  0  0
 22 32  2  0  0  0
 26 27  1  0  0  0
 28100  1  0  0  0
 28101  1  0  0  0
 29102  1  0  0  0
 29103  1  0  0  0
 33 34  1  0  0  0
 33 66  1  0  0  0
 33 70  2  0  0  0
 34 36  1  0  0  0
 34 59  1  0  0  0
 34104  1  0  0  0
 35 44  2  0  0  0
 35 45  1  0  0  0
 35 68  1  0  0  0
 36 56  1  0  0  0
 36105  1  0  0  0
 37 39  1  0  0  0
 37 47  1  0  0  0
 37 66  1  0  0  0
 37106  1  0  0  0
 38 43  2  0  0  0
 38 46  1  0  0  0
 38 47  1  0  0  0
 39 64  1  0  0  0
 39 67  2  0  0  0
 40 52  1  0  0  0
 40 53  2  0  0  0
 40 58  1  0  0  0
 41107  1  0  0  0
 41108  1  0  0  0
 41109  1  0  0  0
 41 48  1  0  0  0
 42 43  1  0  0  0
 42 66  1  0  0  0
 42110  1  0  0  0
 42111  1  0  0  0
 43 44  1  0  0  0
 44112  1  0  0  0
 45 46  2  0  0  0
 45113  1  0  0  0
 46114  1  0  0  0
 47115  1  0  0  0
 47116  1  0  0  0
 48 56  1  0  0  0
 48 65  1  0  0  0
 48117  1  0  0  0
 49 50  1  0  0  0
 49 53  1  0  0  0
 49 64  1  0  0  0
 49118  1  0  0  0
 50 51  1  0  0  0
 50119  1  0  0  0
 50120  1  0  0  0
 51 52  1  0  0  0
 51121  1  0  0  0
 51122  1  0  0  0
 52123  1  0  0  0
 52124  1  0  0  0
 53 54  1  0  0  0
 54 55  2  0  0  0
 54125  1  0  0  0
 55 57  1  0  0  0
 55126  1  0  0  0
 56 69  2  0  0  0
 57 58  2  0  0  0
 57127  1  0  0  0
 58128  1  0  0  0
 59 60  1  0  0  0
 59 61  1  0  0  0
 59 62  1  0  0  0
 60129  1  0  0  0
 60130  1  0  0  0
 60131  1  0  0  0
 61132  1  0  0  0
 61133  1  0  0  0
 61134  1  0  0  0
 62135  1  0  0  0
 62136  1  0  0  0
 62137  1  0  0  0
 63 65  1  0  0  0
 63138  1  0  0  0
 63139  1  0  0  0
 63140  1  0  0  0
 64141  1  0  0  0
 65142  1  0  0  0
 68 78  1  0  0  0
 71 72  2  0  0  0
 71 73  1  0  0  0
 71143  1  0  0  0
 72 79  1  0  0  0
 72 81  1  0  0  0
 73 80  2  0  0  0
 73 83  1  0  0  0
 74 79  2  0  0  0
 74 80  1  0  0  0
 74 82  1  0  0  0
 75144  1  0  0  0
 75145  1  0  0  0
 75146  1  0  0  0
 75 78  1  0  0  0
 76 77  1  0  0  0
 76 78  1  0  0  0
 76147  1  0  0  0
 76148  1  0  0  0
 77 82  1  0  0  0
 77149  1  0  0  0
 77150  1  0  0  0
 78151  1  0  0  0
 81152  1  0  0  0
 82153  1  0  0  0
M  ISO  4   1 100  68 101  78 101  81 100
M  END
> <chiral flag>
0

> <version>
0

> <s_m_source_file>
/data/baiqing/PycharmProjects/Reinvent-master-3.2/result/LINK_invent/BTK/process_docking_weight1_custom_product_contain_oxygen_bond_distance_aromatic_linkinvent_7_9_3/rearranged_h_0194.sdf

> <i_m_source_file_index>
29

> <r_mmod_Potential_Energy-OPLS-2005>
-329.572265625

> <r_mmod_Stretch_Energy-OPLS-2005>
130.927795410156

> <r_mmod_Bend_Energy-OPLS-2005>
177.230209350586

> <r_mmod_Torsional_Energy-OPLS-2005>
237.850204467773

> <r_mmod_Improper_Torsional_Energy-OPLS-2005>
8.22523307800293

> <r_mmod_Van_der_Waal_Energy-OPLS-2005>
142.638824462891

> <r_mmod_Electrostatic_Energy-OPLS-2005>
-883.830810546875

> <r_mmod_Solvation_Energy-OPLS-2005>
-231.213958740234

> <b_mmod_Minimization_Converged-OPLS-2005>
0

> <r_mmod_RMS_Derivative-OPLS-2005>
2.04385304450989

$$$$
29
                    3D
 Structure written by MMmdl.
154162  0  0  1  0            999 V2000
  -30.5902  -14.8062   20.4137 C   0  0  0  0  0  0
  -30.4175  -12.4848   19.4895 C   0  0  0  0  0  0
  -29.5071  -12.5045   18.2449 C   0  0  0  0  0  0
  -28.0302  -12.3300   18.6478 C   0  0  0  0  0  0
  -27.6289  -13.2399   19.8399 C   0  0  2  0  0  0
  -28.6697  -13.2073   20.9759 C   0  0  0  0  0  0
  -25.2433  -13.8216   20.5659 C   0  0  0  0  0  0
  -24.1758  -13.0432   20.9229 C   0  0  0  0  0  0
  -24.6366  -11.6926   20.8735 C   0  0  0  0  0  0
  -23.9044  -10.4300   21.0395 C   0  0  0  0  0  0
  -24.3617   -9.4217   21.9170 C   0  0  0  0  0  0
  -23.6314   -8.2248   22.0731 C   0  0  0  0  0  0
  -22.4294   -8.0274   21.3514 C   0  0  0  0  0  0
  -21.9913   -9.0244   20.4632 C   0  0  0  0  0  0
  -22.7213  -10.2136   20.3044 C   0  0  0  0  0  0
  -21.6862   -6.0732   22.5273 C   0  0  0  0  0  0
  -21.4025   -6.5634   23.8207 C   0  0  0  0  0  0
  -21.3660   -5.6773   24.9163 C   0  0  0  0  0  0
  -21.6049   -4.3042   24.7213 C   0  0  0  0  0  0
  -21.8809   -3.8147   23.4333 C   0  0  0  0  0  0
  -21.9197   -4.6956   22.3395 C   0  0  0  0  0  0
  -22.7778  -13.5204   21.1890 C   0  0  0  0  0  0
  -22.1657   -4.2138   21.0980 F   0  0  0  0  0  0
  -21.5634   -3.4527   25.7736 F   0  0  0  0  0  0
  -29.9614  -13.5747   20.3892 N   0  0  0  0  0  0
  -26.2863  -12.9438   20.3264 N   0  0  0  0  0  0
  -25.9310  -11.6567   20.5770 N   0  0  0  0  0  0
  -22.0444  -12.8203   22.0471 N   0  0  0  0  0  0
  -25.4116  -15.1935   20.3996 N   0  0  0  0  0  0
  -31.8022  -14.8233   20.1589 O   0  0  0  0  0  0
  -21.6639   -6.8878   21.4238 O   0  0  0  0  0  0
  -22.3457  -14.5501   20.6740 O   0  0  0  0  0  0
  -24.6324  -31.8554   23.1958 C   0  0  0  0  0  0
  -25.9149  -32.4745   23.8312 C   0  0  1  0  0  0
  -27.2110  -27.2493   20.1289 C   0  0  0  0  0  0
  -25.5930  -33.8550   24.2236 N   0  0  0  0  0  0
  -23.4313  -30.4761   21.5415 C   0  0  2  0  0  0
  -24.8743  -28.9146   20.1132 C   0  0  0  0  0  0
  -22.7511  -29.4579   22.4905 C   0  0  0  0  0  0
  -18.0295  -28.1393   22.8478 C   0  0  0  0  0  0
  -24.1490  -36.7279   23.2639 C   0  0  0  0  0  0
  -25.9787  -30.7624   21.3762 C   0  0  0  0  0  0
  -26.0497  -29.3829   20.7156 C   0  0  0  0  0  0
  -27.2262  -28.5663   20.7030 C   0  0  0  0  0  0
  -26.0137  -26.8415   19.5092 C   0  0  0  0  0  0
  -24.8613  -27.6532   19.4967 C   0  0  0  0  0  0
  -23.6502  -29.8081   20.1585 C   0  0  0  0  0  0
  -25.4121  -36.3070   24.0326 C   0  0  1  0  0  0
  -20.5893  -28.3696   23.1277 C   0  0  2  0  0  0
  -20.6780  -26.9412   22.5414 C   0  0  0  0  0  0
  -19.5764  -26.6376   21.5212 C   0  0  0  0  0  0
  -18.1943  -26.7938   22.1618 C   0  0  0  0  0  0
  -19.1550  -28.8861   23.2869 C   0  0  0  0  0  0
  -18.9462  -30.1457   23.8894 C   0  0  0  0  0  0
  -17.6459  -30.6593   24.0563 C   0  0  0  0  0  0
  -25.9053  -34.9442   23.5088 C   0  0  0  0  0  0
  -16.5347  -29.9080   23.6329 C   0  0  0  0  0  0
  -16.7272  -28.6497   23.0343 C   0  0  0  0  0  0
  -26.4504  -31.6585   25.0719 C   0  0  0  0  0  0
  -25.3718  -31.3748   26.1434 C   0  0  0  0  0  0
  -27.0336  -30.2994   24.6215 C   0  0  0  0  0  0
  -27.6054  -32.4327   25.7496 C   0  0  0  0  0  0
  -27.5584  -37.1798   24.8461 C   0  0  0  0  0  0
  -21.4207  -29.3040   22.3663 N   0  0  0  0  0  0
  -26.4290  -37.3772   23.9414 N   0  0  0  0  0  0
  -24.7000  -31.0504   22.0938 N   0  0  0  0  0  0
  -23.4211  -28.8123   23.3014 O   0  0  0  0  0  0
  -28.2992  -26.3521   20.1128 O   0  0  0  0  0  0
  -26.5634  -34.8909   22.4662 O   0  0  0  0  0  0
  -23.5462  -32.1357   23.7257 O   0  0  0  0  0  0
  -31.3841  -18.9278   19.2740 C   0  0  0  0  0  0
  -30.0731  -17.3873   20.2327 C   0  0  0  0  0  0
  -29.5335  -19.6691   20.2085 C   0  0  0  0  0  0
  -30.3634  -22.5027   21.3365 C   0  0  0  0  0  0
  -28.3843  -23.5397   20.0070 C   0  0  0  0  0  0
  -28.1540  -24.9891   20.7389 C   0  0  0  0  0  0
  -28.9140  -22.2516   20.8733 C   0  0  1  0  0  0
  -31.1910  -17.6542   19.5599 N   0  0  0  0  0  0
  -30.6464  -19.9734   19.5699 N   0  0  0  0  0  0
  -29.1724  -18.3883   20.5528 N   0  0  0  0  0  0
  -32.5000  -19.1987   18.5510 N   0  0  0  0  0  0
  -29.8261  -15.9841   20.5340 N   0  0  0  0  0  0
  -28.6600  -20.8017   20.4212 N   0  0  0  0  0  0
  -31.4581  -12.5945   19.1861 H   0  0  0  0  0  0
  -30.3577  -11.5239   20.0007 H   0  0  0  0  0  0
  -29.8088  -11.7173   17.5529 H   0  0  0  0  0  0
  -29.6349  -13.4493   17.7124 H   0  0  0  0  0  0
  -27.8813  -11.2837   18.9201 H   0  0  0  0  0  0
  -27.3760  -12.5127   17.7933 H   0  0  0  0  0  0
  -27.6116  -14.2567   19.4458 H   0  0  0  0  0  0
  -28.7152  -12.2154   21.4285 H   0  0  0  0  0  0
  -28.3918  -13.8975   21.7738 H   0  0  0  0  0  0
  -25.2749   -9.5703   22.4735 H   0  0  0  0  0  0
  -24.0018   -7.4629   22.7443 H   0  0  0  0  0  0
  -21.0834   -8.8745   19.8943 H   0  0  0  0  0  0
  -22.3647  -10.9672   19.6152 H   0  0  0  0  0  0
  -21.2022   -7.6129   23.9711 H   0  0  0  0  0  0
  -21.1494   -6.0501   25.9064 H   0  0  0  0  0  0
  -22.0599   -2.7601   23.2831 H   0  0  0  0  0  0
  -22.4080  -11.9876   22.4865 H   0  0  0  0  0  0
  -21.1057  -13.1202   22.2679 H   0  0  0  0  0  0
  -24.6352  -15.8412   20.4811 H   0  0  0  0  0  0
  -26.2392  -15.6201   20.0027 H   0  0  0  0  0  0
  -26.7226  -32.5386   23.1052 H   0  0  0  0  0  0
  -25.0095  -33.9688   25.0395 H   0  0  0  0  0  0
  -22.7285  -31.2990   21.3936 H   0  0  0  0  0  0
  -23.3756  -35.9601   23.3291 H   0  0  0  0  0  0
  -24.3576  -36.8914   22.2052 H   0  0  0  0  0  0
  -23.7229  -37.6472   23.6671 H   0  0  0  0  0  0
  -26.1200  -31.5236   20.6061 H   0  0  0  0  0  0
  -26.8576  -30.8111   22.0105 H   0  0  0  0  0  0
  -28.1360  -28.9256   21.1637 H   0  0  0  0  0  0
  -25.9668  -25.8723   19.0320 H   0  0  0  0  0  0
  -23.9599  -27.2910   19.0184 H   0  0  0  0  0  0
  -23.7832  -30.5849   19.4045 H   0  0  0  0  0  0
  -22.7662  -29.2469   19.8488 H   0  0  0  0  0  0
  -25.1307  -36.1911   25.0817 H   0  0  0  0  0  0
  -20.9985  -28.3275   24.1397 H   0  0  0  0  0  0
  -20.5662  -26.2310   23.3627 H   0  0  0  0  0  0
  -21.6656  -26.7433   22.1217 H   0  0  0  0  0  0
  -19.6923  -25.6275   21.1269 H   0  0  0  0  0  0
  -19.6712  -27.3168   20.6736 H   0  0  0  0  0  0
  -17.4214  -26.6673   21.4012 H   0  0  0  0  0  0
  -18.0329  -26.0077   22.9013 H   0  0  0  0  0  0
  -19.7931  -30.7273   24.2269 H   0  0  0  0  0  0
  -17.5007  -31.6277   24.5162 H   0  0  0  0  0  0
  -15.5354  -30.2981   23.7651 H   0  0  0  0  0  0
  -15.8662  -28.0813   22.7059 H   0  0  0  0  0  0
  -24.5878  -30.7113   25.7769 H   0  0  0  0  0  0
  -24.8910  -32.2914   26.4858 H   0  0  0  0  0  0
  -25.8007  -30.8921   27.0221 H   0  0  0  0  0  0
  -26.2909  -29.6750   24.1221 H   0  0  0  0  0  0
  -27.3995  -29.7250   25.4737 H   0  0  0  0  0  0
  -27.8806  -30.4262   23.9464 H   0  0  0  0  0  0
  -27.2664  -33.3632   26.2059 H   0  0  0  0  0  0
  -28.3866  -32.6883   25.0327 H   0  0  0  0  0  0
  -28.0720  -31.8463   26.5415 H   0  0  0  0  0  0
  -28.2597  -38.0098   24.7519 H   0  0  0  0  0  0
  -28.1083  -36.2635   24.6275 H   0  0  0  0  0  0
  -27.2305  -37.1437   25.8860 H   0  0  0  0  0  0
  -20.9397  -29.8783   21.6876 H   0  0  0  0  0  0
  -26.0167  -38.2841   24.1419 H   0  0  0  0  0  0
  -30.4399  -23.4495   21.8695 H   0  0  0  0  0  0
  -31.0576  -22.5512   20.4965 H   0  0  0  0  0  0
  -30.7146  -21.7317   22.0206 H   0  0  0  0  0  0
  -29.0643  -23.6814   19.1667 H   0  0  0  0  0  0
  -27.4297  -23.2725   19.5512 H   0  0  0  0  0  0
  -28.8543  -25.0315   21.5709 H   0  0  0  0  0  0
  -27.1844  -24.9432   21.2279 H   0  0  0  0  0  0
  -28.3196  -22.2855   21.7906 H   0  0  0  0  0  0
  -32.8247  -18.4387   17.9684 H   0  0  0  0  0  0
  -32.5114  -20.1067   18.1052 H   0  0  0  0  0  0
  -28.8818  -15.8097   20.8281 H   0  0  0  0  0  0
  -27.7378  -20.4952   20.7112 H   0  0  0  0  0  0
  1 25  1  0  0  0
  1 30  2  0  0  0
  1 82  1  0  0  0
  2  3  1  0  0  0
  2 25  1  0  0  0
  2 84  1  0  0  0
  2 85  1  0  0  0
  3  4  1  0  0  0
  3 86  1  0  0  0
  3 87  1  0  0  0
  4  5  1  0  0  0
  4 88  1  0  0  0
  4 89  1  0  0  0
  5  6  1  0  0  0
  5 26  1  0  0  0
  5 90  1  0  0  0
  6 25  1  0  0  0
  6 91  1  0  0  0
  6 92  1  0  0  0
  7  8  2  0  0  0
  7 26  1  0  0  0
  7 29  1  0  0  0
  8  9  1  0  0  0
  8 22  1  0  0  0
  9 10  1  0  0  0
  9 27  2  0  0  0
 10 11  2  0  0  0
 10 15  1  0  0  0
 11 12  1  0  0  0
 11 93  1  0  0  0
 12 13  2  0  0  0
 12 94  1  0  0  0
 13 14  1  0  0  0
 13 31  1  0  0  0
 14 15  2  0  0  0
 14 95  1  0  0  0
 15 96  1  0  0  0
 16 17  2  0  0  0
 16 21  1  0  0  0
 16 31  1  0  0  0
 17 18  1  0  0  0
 17 97  1  0  0  0
 18 19  2  0  0  0
 18 98  1  0  0  0
 19 20  1  0  0  0
 19 24  1  0  0  0
 20 21  2  0  0  0
 20 99  1  0  0  0
 21 23  1  0  0  0
 22 28  1  0  0  0
 22 32  2  0  0  0
 26 27  1  0  0  0
 28100  1  0  0  0
 28101  1  0  0  0
 29102  1  0  0  0
 29103  1  0  0  0
 33 34  1  0  0  0
 33 66  1  0  0  0
 33 70  2  0  0  0
 34 36  1  0  0  0
 34 59  1  0  0  0
 34104  1  0  0  0
 35 44  2  0  0  0
 35 45  1  0  0  0
 35 68  1  0  0  0
 36 56  1  0  0  0
 36105  1  0  0  0
 37 39  1  0  0  0
 37 47  1  0  0  0
 37 66  1  0  0  0
 37106  1  0  0  0
 38 43  2  0  0  0
 38 46  1  0  0  0
 38 47  1  0  0  0
 39 64  1  0  0  0
 39 67  2  0  0  0
 40 52  1  0  0  0
 40 53  2  0  0  0
 40 58  1  0  0  0
 41107  1  0  0  0
 41108  1  0  0  0
 41109  1  0  0  0
 41 48  1  0  0  0
 42 43  1  0  0  0
 42 66  1  0  0  0
 42110  1  0  0  0
 42111  1  0  0  0
 43 44  1  0  0  0
 44112  1  0  0  0
 45 46  2  0  0  0
 45113  1  0  0  0
 46114  1  0  0  0
 47115  1  0  0  0
 47116  1  0  0  0
 48 56  1  0  0  0
 48 65  1  0  0  0
 48117  1  0  0  0
 49 50  1  0  0  0
 49 53  1  0  0  0
 49 64  1  0  0  0
 49118  1  0  0  0
 50 51  1  0  0  0
 50119  1  0  0  0
 50120  1  0  0  0
 51 52  1  0  0  0
 51121  1  0  0  0
 51122  1  0  0  0
 52123  1  0  0  0
 52124  1  0  0  0
 53 54  1  0  0  0
 54 55  2  0  0  0
 54125  1  0  0  0
 55 57  1  0  0  0
 55126  1  0  0  0
 56 69  2  0  0  0
 57 58  2  0  0  0
 57127  1  0  0  0
 58128  1  0  0  0
 59 60  1  0  0  0
 59 61  1  0  0  0
 59 62  1  0  0  0
 60129  1  0  0  0
 60130  1  0  0  0
 60131  1  0  0  0
 61132  1  0  0  0
 61133  1  0  0  0
 61134  1  0  0  0
 62135  1  0  0  0
 62136  1  0  0  0
 62137  1  0  0  0
 63 65  1  0  0  0
 63138  1  0  0  0
 63139  1  0  0  0
 63140  1  0  0  0
 64141  1  0  0  0
 65142  1  0  0  0
 68 76  1  0  0  0
 71 78  2  0  0  0
 71 79  1  0  0  0
 71 81  1  0  0  0
 72 78  1  0  0  0
 72 80  2  0  0  0
 72 82  1  0  0  0
 73 79  2  0  0  0
 73 80  1  0  0  0
 73 83  1  0  0  0
 74143  1  0  0  0
 74144  1  0  0  0
 74145  1  0  0  0
 74 77  1  0  0  0
 75 76  1  0  0  0
 75 77  1  0  0  0
 75146  1  0  0  0
 75147  1  0  0  0
 76148  1  0  0  0
 76149  1  0  0  0
 77 83  1  0  0  0
 77150  1  0  0  0
 81151  1  0  0  0
 81152  1  0  0  0
 82153  1  0  0  0
 83154  1  0  0  0
M  ISO  4   1 100  68 101  76 101  82 100
M  END
> <chiral flag>
0

> <version>
0

> <s_m_source_file>
/data/baiqing/PycharmProjects/Reinvent-master-3.2/result/LINK_invent/BTK/process_docking_weight1_custom_product_contain_oxygen_bond_distance_aromatic_linkinvent_7_9_3/rearranged_h_0194.sdf

> <i_m_source_file_index>
30

> <r_mmod_Potential_Energy-OPLS-2005>
-547.938537597656

> <r_mmod_Stretch_Energy-OPLS-2005>
146.338714599609

> <r_mmod_Bend_Energy-OPLS-2005>
204.792282104492

> <r_mmod_Torsional_Energy-OPLS-2005>
248.592422485352

> <r_mmod_Improper_Torsional_Energy-OPLS-2005>
10.8510465621948

> <r_mmod_Van_der_Waal_Energy-OPLS-2005>
155.214584350586

> <r_mmod_Electrostatic_Energy-OPLS-2005>
-1159.92749023438

> <r_mmod_Solvation_Energy-OPLS-2005>
-257.220397949219

> <b_mmod_Minimization_Converged-OPLS-2005>
0

> <r_mmod_RMS_Derivative-OPLS-2005>
4.7195348739624

$$$$
30
                    3D
 Structure written by MMmdl.
158166  0  0  1  0            999 V2000
  -30.5957  -14.7867   20.4568 C   0  0  0  0  0  0
  -30.4385  -12.4849   19.4661 C   0  0  0  0  0  0
  -29.5130  -12.5000   18.2307 C   0  0  0  0  0  0
  -28.0389  -12.3218   18.6452 C   0  0  0  0  0  0
  -27.6373  -13.2323   19.8355 C   0  0  2  0  0  0
  -28.6825  -13.1870   20.9688 C   0  0  0  0  0  0
  -25.2509  -13.8200   20.5680 C   0  0  0  0  0  0
  -24.1811  -13.0446   20.9232 C   0  0  0  0  0  0
  -24.6392  -11.6930   20.8749 C   0  0  0  0  0  0
  -23.9066  -10.4308   21.0398 C   0  0  0  0  0  0
  -24.3624   -9.4218   21.9166 C   0  0  0  0  0  0
  -23.6298   -8.2251   22.0741 C   0  0  0  0  0  0
  -22.4275   -8.0285   21.3538 C   0  0  0  0  0  0
  -21.9911   -9.0255   20.4637 C   0  0  0  0  0  0
  -22.7239  -10.2133   20.3043 C   0  0  0  0  0  0
  -21.6856   -6.0723   22.5276 C   0  0  0  0  0  0
  -21.4020   -6.5627   23.8208 C   0  0  0  0  0  0
  -21.3673   -5.6783   24.9171 C   0  0  0  0  0  0
  -21.6050   -4.3044   24.7210 C   0  0  0  0  0  0
  -21.8824   -3.8130   23.4329 C   0  0  0  0  0  0
  -21.9191   -4.6951   22.3386 C   0  0  0  0  0  0
  -22.7830  -13.5230   21.1868 C   0  0  0  0  0  0
  -22.1665   -4.2143   21.0964 F   0  0  0  0  0  0
  -21.5634   -3.4527   25.7720 F   0  0  0  0  0  0
  -29.9748  -13.5564   20.3783 N   0  0  0  0  0  0
  -26.2913  -12.9402   20.3180 N   0  0  0  0  0  0
  -25.9307  -11.6547   20.5697 N   0  0  0  0  0  0
  -22.0467  -12.8233   22.0425 N   0  0  0  0  0  0
  -25.4191  -15.1936   20.4123 N   0  0  0  0  0  0
  -31.7976  -14.8761   20.1974 O   0  0  0  0  0  0
  -21.6648   -6.8873   21.4236 O   0  0  0  0  0  0
  -22.3497  -14.5496   20.6658 O   0  0  0  0  0  0
  -24.6325  -31.8529   23.1958 C   0  0  0  0  0  0
  -25.9148  -32.4738   23.8302 C   0  0  1  0  0  0
  -27.2156  -27.2372   20.1341 C   0  0  0  0  0  0
  -25.5930  -33.8536   24.2230 N   0  0  0  0  0  0
  -23.4303  -30.4763   21.5398 C   0  0  2  0  0  0
  -24.8776  -28.9199   20.1098 C   0  0  0  0  0  0
  -22.7508  -29.4596   22.4899 C   0  0  0  0  0  0
  -18.0290  -28.1399   22.8483 C   0  0  0  0  0  0
  -24.1492  -36.7288   23.2636 C   0  0  0  0  0  0
  -25.9780  -30.7604   21.3761 C   0  0  0  0  0  0
  -26.0512  -29.3809   20.7182 C   0  0  0  0  0  0
  -27.2239  -28.5547   20.7147 C   0  0  0  0  0  0
  -26.0158  -26.8496   19.4957 C   0  0  0  0  0  0
  -24.8670  -27.6644   19.4857 C   0  0  0  0  0  0
  -23.6490  -29.8090   20.1572 C   0  0  0  0  0  0
  -25.4118  -36.3053   24.0314 C   0  0  1  0  0  0
  -20.5891  -28.3706   23.1262 C   0  0  2  0  0  0
  -20.6776  -26.9419   22.5407 C   0  0  0  0  0  0
  -19.5755  -26.6385   21.5212 C   0  0  0  0  0  0
  -18.1935  -26.7944   22.1624 C   0  0  0  0  0  0
  -19.1543  -28.8870   23.2870 C   0  0  0  0  0  0
  -18.9466  -30.1469   23.8887 C   0  0  0  0  0  0
  -17.6463  -30.6592   24.0566 C   0  0  0  0  0  0
  -25.9061  -34.9435   23.5080 C   0  0  0  0  0  0
  -16.5357  -29.9087   23.6326 C   0  0  0  0  0  0
  -16.7275  -28.6510   23.0344 C   0  0  0  0  0  0
  -26.4507  -31.6566   25.0698 C   0  0  0  0  0  0
  -25.3723  -31.3755   26.1416 C   0  0  0  0  0  0
  -27.0345  -30.2966   24.6215 C   0  0  0  0  0  0
  -27.6047  -32.4316   25.7498 C   0  0  0  0  0  0
  -27.5586  -37.1787   24.8456 C   0  0  0  0  0  0
  -21.4216  -29.3053   22.3643 N   0  0  0  0  0  0
  -26.4286  -37.3763   23.9413 N   0  0  0  0  0  0
  -24.6996  -31.0485   22.0939 N   0  0  0  0  0  0
  -23.4203  -28.8123   23.2991 O   0  0  0  0  0  0
  -28.3053  -26.3288   20.1914 O   0  0  0  0  0  0
  -26.5637  -34.8911   22.4649 O   0  0  0  0  0  0
  -23.5468  -32.1350   23.7248 O   0  0  0  0  0  0
  -29.4997  -18.6057   18.8145 C   0  0  0  0  0  0
  -29.6916  -18.6635   20.2006 C   0  0  0  0  0  0
  -29.1787  -19.7969   18.1517 C   0  0  0  0  0  0
  -29.2074  -21.0228   20.0849 C   0  0  0  0  0  0
  -31.7248  -23.3698   19.7229 C   0  0  0  0  0  0
  -30.2120  -17.3686   20.9865 C   0  0  0  0  0  0
  -30.3603  -23.9450   19.3115 C   0  0  0  0  0  0
  -28.0552  -24.8321   20.1249 C   0  0  0  0  0  0
  -29.2559  -23.7592   20.3714 C   0  0  1  0  0  0
  -29.5195  -19.9060   20.8175 N   0  0  0  0  0  0
  -29.0370  -20.9825   18.7704 N   0  0  0  0  0  0
  -28.9804  -19.8078   16.7807 N   0  0  0  0  0  0
  -28.9715  -22.2905   20.7279 N   0  0  0  0  0  0
  -29.8168  -15.9235   20.6435 N   0  0  0  0  0  0
  -31.4750  -12.6280   19.1585 H   0  0  0  0  0  0
  -30.4047  -11.5171   19.9662 H   0  0  0  0  0  0
  -29.8003  -11.7120   17.5319 H   0  0  0  0  0  0
  -29.6343  -13.4434   17.6972 H   0  0  0  0  0  0
  -27.9000  -11.2754   18.9179 H   0  0  0  0  0  0
  -27.3822  -12.5034   17.7948 H   0  0  0  0  0  0
  -27.6219  -14.2490   19.4402 H   0  0  0  0  0  0
  -28.7339  -12.1917   21.4127 H   0  0  0  0  0  0
  -28.4084  -13.8703   21.7736 H   0  0  0  0  0  0
  -25.2777   -9.5690   22.4728 H   0  0  0  0  0  0
  -24.0007   -7.4642   22.7458 H   0  0  0  0  0  0
  -21.0838   -8.8772   19.8937 H   0  0  0  0  0  0
  -22.3706  -10.9662   19.6142 H   0  0  0  0  0  0
  -21.2027   -7.6141   23.9712 H   0  0  0  0  0  0
  -21.1497   -6.0505   25.9073 H   0  0  0  0  0  0
  -22.0588   -2.7591   23.2828 H   0  0  0  0  0  0
  -22.4081  -11.9931   22.4880 H   0  0  0  0  0  0
  -21.1053  -13.1221   22.2553 H   0  0  0  0  0  0
  -24.6516  -15.8440   20.5354 H   0  0  0  0  0  0
  -26.2541  -15.6348   20.0500 H   0  0  0  0  0  0
  -26.7217  -32.5378   23.1033 H   0  0  0  0  0  0
  -25.0036  -33.9673   25.0349 H   0  0  0  0  0  0
  -22.7270  -31.2987   21.3926 H   0  0  0  0  0  0
  -23.3750  -35.9623   23.3267 H   0  0  0  0  0  0
  -24.3580  -36.8950   22.2057 H   0  0  0  0  0  0
  -23.7254  -37.6481   23.6688 H   0  0  0  0  0  0
  -26.1144  -31.5188   20.6044 H   0  0  0  0  0  0
  -26.8565  -30.8131   22.0086 H   0  0  0  0  0  0
  -28.1228  -28.9034   21.2035 H   0  0  0  0  0  0
  -25.9281  -25.8907   19.0095 H   0  0  0  0  0  0
  -23.9676  -27.3069   19.0029 H   0  0  0  0  0  0
  -23.7728  -30.5834   19.3999 H   0  0  0  0  0  0
  -22.7670  -29.2433   19.8525 H   0  0  0  0  0  0
  -25.1300  -36.1885   25.0804 H   0  0  0  0  0  0
  -20.9988  -28.3288   24.1388 H   0  0  0  0  0  0
  -20.5685  -26.2314   23.3612 H   0  0  0  0  0  0
  -21.6646  -26.7443   22.1198 H   0  0  0  0  0  0
  -19.6918  -25.6301   21.1247 H   0  0  0  0  0  0
  -19.6699  -27.3193   20.6745 H   0  0  0  0  0  0
  -17.4205  -26.6671   21.4034 H   0  0  0  0  0  0
  -18.0341  -26.0091   22.9030 H   0  0  0  0  0  0
  -19.7942  -30.7288   24.2247 H   0  0  0  0  0  0
  -17.5021  -31.6275   24.5174 H   0  0  0  0  0  0
  -15.5358  -30.2991   23.7677 H   0  0  0  0  0  0
  -15.8674  -28.0842   22.7055 H   0  0  0  0  0  0
  -24.5859  -30.7151   25.7751 H   0  0  0  0  0  0
  -24.8961  -32.2948   26.4839 H   0  0  0  0  0  0
  -25.8007  -30.8916   27.0203 H   0  0  0  0  0  0
  -26.2931  -29.6715   24.1221 H   0  0  0  0  0  0
  -27.3985  -29.7233   25.4758 H   0  0  0  0  0  0
  -27.8834  -30.4216   23.9483 H   0  0  0  0  0  0
  -27.2626  -33.3617   26.2056 H   0  0  0  0  0  0
  -28.3875  -32.6876   25.0346 H   0  0  0  0  0  0
  -28.0688  -31.8449   26.5438 H   0  0  0  0  0  0
  -28.2561  -38.0122   24.7519 H   0  0  0  0  0  0
  -28.1110  -36.2643   24.6241 H   0  0  0  0  0  0
  -27.2297  -37.1391   25.8855 H   0  0  0  0  0  0
  -20.9391  -29.8777   21.6858 H   0  0  0  0  0  0
  -26.0150  -38.2826   24.1432 H   0  0  0  0  0  0
  -29.6335  -17.6713   18.2851 H   0  0  0  0  0  0
  -31.9719  -23.6256   20.7542 H   0  0  0  0  0  0
  -32.5180  -23.7669   19.0884 H   0  0  0  0  0  0
  -31.7421  -22.2838   19.6352 H   0  0  0  0  0  0
  -29.9363  -17.5137   22.0307 H   0  0  0  0  0  0
  -31.3007  -17.4231   20.9806 H   0  0  0  0  0  0
  -30.0456  -23.5398   18.3486 H   0  0  0  0  0  0
  -30.4911  -25.0162   19.1501 H   0  0  0  0  0  0
  -27.2671  -24.6144   20.8470 H   0  0  0  0  0  0
  -27.6354  -24.5992   19.1461 H   0  0  0  0  0  0
  -29.7001  -24.1174   21.2998 H   0  0  0  0  0  0
  -29.2292  -19.0109   16.2082 H   0  0  0  0  0  0
  -28.8799  -20.6855   16.2870 H   0  0  0  0  0  0
  -28.9398  -22.1776   21.7339 H   0  0  0  0  0  0
  -28.8268  -15.7506   20.7049 H   0  0  0  0  0  0
  1 25  1  0  0  0
  1 30  2  0  0  0
  1 84  1  0  0  0
  2  3  1  0  0  0
  2 25  1  0  0  0
  2 85  1  0  0  0
  2 86  1  0  0  0
  3  4  1  0  0  0
  3 87  1  0  0  0
  3 88  1  0  0  0
  4  5  1  0  0  0
  4 89  1  0  0  0
  4 90  1  0  0  0
  5  6  1  0  0  0
  5 26  1  0  0  0
  5 91  1  0  0  0
  6 25  1  0  0  0
  6 92  1  0  0  0
  6 93  1  0  0  0
  7  8  2  0  0  0
  7 26  1  0  0  0
  7 29  1  0  0  0
  8  9  1  0  0  0
  8 22  1  0  0  0
  9 10  1  0  0  0
  9 27  2  0  0  0
 10 11  2  0  0  0
 10 15  1  0  0  0
 11 12  1  0  0  0
 11 94  1  0  0  0
 12 13  2  0  0  0
 12 95  1  0  0  0
 13 14  1  0  0  0
 13 31  1  0  0  0
 14 15  2  0  0  0
 14 96  1  0  0  0
 15 97  1  0  0  0
 16 17  2  0  0  0
 16 21  1  0  0  0
 16 31  1  0  0  0
 17 18  1  0  0  0
 17 98  1  0  0  0
 18 19  2  0  0  0
 18 99  1  0  0  0
 19 20  1  0  0  0
 19 24  1  0  0  0
 20 21  2  0  0  0
 20100  1  0  0  0
 21 23  1  0  0  0
 22 28  1  0  0  0
 22 32  2  0  0  0
 26 27  1  0  0  0
 28101  1  0  0  0
 28102  1  0  0  0
 29103  1  0  0  0
 29104  1  0  0  0
 33 34  1  0  0  0
 33 66  1  0  0  0
 33 70  2  0  0  0
 34 36  1  0  0  0
 34 59  1  0  0  0
 34105  1  0  0  0
 35 44  2  0  0  0
 35 45  1  0  0  0
 35 68  1  0  0  0
 36 56  1  0  0  0
 36106  1  0  0  0
 37 39  1  0  0  0
 37 47  1  0  0  0
 37 66  1  0  0  0
 37107  1  0  0  0
 38 43  2  0  0  0
 38 46  1  0  0  0
 38 47  1  0  0  0
 39 64  1  0  0  0
 39 67  2  0  0  0
 40 52  1  0  0  0
 40 53  2  0  0  0
 40 58  1  0  0  0
 41108  1  0  0  0
 41109  1  0  0  0
 41110  1  0  0  0
 41 48  1  0  0  0
 42 43  1  0  0  0
 42 66  1  0  0  0
 42111  1  0  0  0
 42112  1  0  0  0
 43 44  1  0  0  0
 44113  1  0  0  0
 45 46  2  0  0  0
 45114  1  0  0  0
 46115  1  0  0  0
 47116  1  0  0  0
 47117  1  0  0  0
 48 56  1  0  0  0
 48 65  1  0  0  0
 48118  1  0  0  0
 49 50  1  0  0  0
 49 53  1  0  0  0
 49 64  1  0  0  0
 49119  1  0  0  0
 50 51  1  0  0  0
 50120  1  0  0  0
 50121  1  0  0  0
 51 52  1  0  0  0
 51122  1  0  0  0
 51123  1  0  0  0
 52124  1  0  0  0
 52125  1  0  0  0
 53 54  1  0  0  0
 54 55  2  0  0  0
 54126  1  0  0  0
 55 57  1  0  0  0
 55127  1  0  0  0
 56 69  2  0  0  0
 57 58  2  0  0  0
 57128  1  0  0  0
 58129  1  0  0  0
 59 60  1  0  0  0
 59 61  1  0  0  0
 59 62  1  0  0  0
 60130  1  0  0  0
 60131  1  0  0  0
 60132  1  0  0  0
 61133  1  0  0  0
 61134  1  0  0  0
 61135  1  0  0  0
 62136  1  0  0  0
 62137  1  0  0  0
 62138  1  0  0  0
 63 65  1  0  0  0
 63139  1  0  0  0
 63140  1  0  0  0
 63141  1  0  0  0
 64142  1  0  0  0
 65143  1  0  0  0
 68 78  1  0  0  0
 71 72  2  0  0  0
 71 73  1  0  0  0
 71144  1  0  0  0
 72 76  1  0  0  0
 72 80  1  0  0  0
 73 81  2  0  0  0
 73 82  1  0  0  0
 74 80  2  0  0  0
 74 81  1  0  0  0
 74 83  1  0  0  0
 75 77  1  0  0  0
 75145  1  0  0  0
 75146  1  0  0  0
 75147  1  0  0  0
 76 84  1  0  0  0
 76148  1  0  0  0
 76149  1  0  0  0
 77150  1  0  0  0
 77151  1  0  0  0
 77 79  1  0  0  0
 78 79  1  0  0  0
 78152  1  0  0  0
 78153  1  0  0  0
 79 83  1  0  0  0
 79154  1  0  0  0
 82155  1  0  0  0
 82156  1  0  0  0
 83157  1  0  0  0
 84158  1  0  0  0
M  ISO  4   1 100  68 101  78 101  84 100
M  END
> <chiral flag>
0

> <version>
0

> <s_m_source_file>
/data/baiqing/PycharmProjects/Reinvent-master-3.2/result/LINK_invent/BTK/process_docking_weight1_custom_product_contain_oxygen_bond_distance_aromatic_linkinvent_7_9_3/rearranged_h_0194.sdf

> <i_m_source_file_index>
31

> <r_mmod_Potential_Energy-OPLS-2005>
-603.173461914062

> <r_mmod_Stretch_Energy-OPLS-2005>
133.448837280273

> <r_mmod_Bend_Energy-OPLS-2005>
203.75505065918

> <r_mmod_Torsional_Energy-OPLS-2005>
218.043823242188

> <r_mmod_Improper_Torsional_Energy-OPLS-2005>
7.31665420532227

> <r_mmod_Van_der_Waal_Energy-OPLS-2005>
138.03662109375

> <r_mmod_Electrostatic_Energy-OPLS-2005>
-1152.89685058594

> <r_mmod_Solvation_Energy-OPLS-2005>
-255.192245483398

> <b_mmod_Minimization_Converged-OPLS-2005>
0

> <r_mmod_RMS_Derivative-OPLS-2005>
2.63756775856018

$$$$
31
                    3D
 Structure written by MMmdl.
154162  0  0  1  0            999 V2000
  -30.7267  -14.5008   20.5813 C   0  0  0  0  0  0
  -30.4061  -12.3125   19.4654 C   0  0  0  0  0  0
  -29.5169  -12.5520   18.2379 C   0  0  0  0  0  0
  -28.0385  -12.3950   18.6409 C   0  0  0  0  0  0
  -27.6737  -13.2212   19.9060 C   0  0  2  0  0  0
  -28.7156  -13.0290   21.0358 C   0  0  0  0  0  0
  -25.2637  -13.8205   20.5736 C   0  0  0  0  0  0
  -24.1911  -13.0457   20.9196 C   0  0  0  0  0  0
  -24.6488  -11.6918   20.8792 C   0  0  0  0  0  0
  -23.9158  -10.4284   21.0415 C   0  0  0  0  0  0
  -24.3673   -9.4158   21.9183 C   0  0  0  0  0  0
  -23.6306   -8.2222   22.0752 C   0  0  0  0  0  0
  -22.4289   -8.0304   21.3543 C   0  0  0  0  0  0
  -21.9956   -9.0286   20.4647 C   0  0  0  0  0  0
  -22.7322  -10.2146   20.3038 C   0  0  0  0  0  0
  -21.6859   -6.0758   22.5280 C   0  0  0  0  0  0
  -21.4031   -6.5649   23.8215 C   0  0  0  0  0  0
  -21.3641   -5.6797   24.9171 C   0  0  0  0  0  0
  -21.6033   -4.3060   24.7227 C   0  0  0  0  0  0
  -21.8805   -3.8152   23.4345 C   0  0  0  0  0  0
  -21.9179   -4.6985   22.3396 C   0  0  0  0  0  0
  -22.7913  -13.5190   21.1850 C   0  0  0  0  0  0
  -22.1644   -4.2150   21.0981 F   0  0  0  0  0  0
  -21.5623   -3.4537   25.7746 F   0  0  0  0  0  0
  -30.0331  -13.3301   20.4683 N   0  0  0  0  0  0
  -26.3109  -12.9386   20.3490 N   0  0  0  0  0  0
  -25.9445  -11.6529   20.5935 N   0  0  0  0  0  0
  -22.0606  -12.8133   22.0401 N   0  0  0  0  0  0
  -25.4375  -15.1931   20.4145 N   0  0  0  0  0  0
  -31.8354  -14.6423   20.0701 O   0  0  0  0  0  0
  -21.6628   -6.8919   21.4257 O   0  0  0  0  0  0
  -22.3567  -14.5470   20.6701 O   0  0  0  0  0  0
  -24.6140  -31.8669   23.2162 C   0  0  0  0  0  0
  -25.9043  -32.4815   23.8401 C   0  0  1  0  0  0
  -27.2157  -27.4099   20.0998 C   0  0  0  0  0  0
  -25.5915  -33.8600   24.2312 N   0  0  0  0  0  0
  -23.4004  -30.4947   21.5615 C   0  0  2  0  0  0
  -24.8390  -28.9579   20.1175 C   0  0  0  0  0  0
  -22.7457  -29.4613   22.5073 C   0  0  0  0  0  0
  -18.0276  -28.1451   22.8495 C   0  0  0  0  0  0
  -24.1502  -36.7304   23.2634 C   0  0  0  0  0  0
  -25.9292  -30.8303   21.3653 C   0  0  0  0  0  0
  -26.0053  -29.4659   20.7075 C   0  0  0  0  0  0
  -27.2008  -28.7026   20.6874 C   0  0  0  0  0  0
  -26.0328  -26.9281   19.4995 C   0  0  0  0  0  0
  -24.8513  -27.6934   19.5054 C   0  0  0  0  0  0
  -23.6030  -29.8302   20.1715 C   0  0  0  0  0  0
  -25.4120  -36.3067   24.0321 C   0  0  1  0  0  0
  -20.5848  -28.3781   23.1482 C   0  0  2  0  0  0
  -20.6862  -26.9540   22.5505 C   0  0  0  0  0  0
  -19.5829  -26.6530   21.5310 C   0  0  0  0  0  0
  -18.1920  -26.8056   22.1586 C   0  0  0  0  0  0
  -19.1506  -28.8861   23.3068 C   0  0  0  0  0  0
  -18.9399  -30.1300   23.9336 C   0  0  0  0  0  0
  -17.6407  -30.6469   24.0929 C   0  0  0  0  0  0
  -25.9018  -34.9447   23.5088 C   0  0  0  0  0  0
  -16.5338  -29.9154   23.6321 C   0  0  0  0  0  0
  -16.7268  -28.6586   23.0264 C   0  0  0  0  0  0
  -26.4487  -31.6560   25.0708 C   0  0  0  0  0  0
  -25.3752  -31.3670   26.1460 C   0  0  0  0  0  0
  -27.0331  -30.3007   24.6051 C   0  0  0  0  0  0
  -27.6058  -32.4261   25.7482 C   0  0  0  0  0  0
  -27.5583  -37.1801   24.8452 C   0  0  0  0  0  0
  -21.4150  -29.3273   22.4047 N   0  0  0  0  0  0
  -26.4307  -37.3769   23.9397 N   0  0  0  0  0  0
  -24.6698  -31.0767   22.1058 N   0  0  0  0  0  0
  -23.4263  -28.7922   23.2911 O   0  0  0  0  0  0
  -28.3554  -26.6275   20.0667 O   0  0  0  0  0  0
  -26.5589  -34.8857   22.4652 O   0  0  0  0  0  0
  -23.5323  -32.1453   23.7556 O   0  0  0  0  0  0
  -29.7711  -18.0718   21.6071 C   0  0  0  0  0  0
  -28.7741  -18.1334   22.5654 C   0  0  0  0  0  0
  -29.0800  -20.2825   21.3657 C   0  0  0  0  0  0
  -30.7007  -16.9048   21.2592 C   0  0  0  0  0  0
  -28.5036  -22.8919   21.3626 C   0  0  0  0  0  0
  -28.3749  -25.4895   20.9663 C   0  0  0  0  0  0
  -28.5367  -24.0694   20.3139 C   0  0  1  0  0  0
  -29.9381  -19.3250   20.9620 N   0  0  0  0  0  0
  -28.3431  -17.1659   23.4660 N   0  0  0  0  0  0
  -29.0930  -21.6077   20.9023 N   0  0  0  0  0  0
  -30.1123  -15.5456   21.1884 N   0  0  0  0  0  0
  -29.8045  -23.9769   19.6824 O   0  0  0  0  0  0
  -27.9943  -19.7025   22.6137 S   0  0  0  0  0  0
  -31.4642  -12.3321   19.2107 H   0  0  0  0  0  0
  -30.2300  -11.3154   19.8628 H   0  0  0  0  0  0
  -29.7747  -11.8638   17.4309 H   0  0  0  0  0  0
  -29.6972  -13.5574   17.8598 H   0  0  0  0  0  0
  -27.8512  -11.3344   18.8278 H   0  0  0  0  0  0
  -27.3968  -12.6809   17.8102 H   0  0  0  0  0  0
  -27.7228  -14.2658   19.5979 H   0  0  0  0  0  0
  -28.7211  -12.0030   21.4044 H   0  0  0  0  0  0
  -28.4989  -13.6525   21.9070 H   0  0  0  0  0  0
  -25.2851   -9.5597   22.4717 H   0  0  0  0  0  0
  -24.0005   -7.4605   22.7443 H   0  0  0  0  0  0
  -21.0878   -8.8802   19.8960 H   0  0  0  0  0  0
  -22.3796  -10.9675   19.6101 H   0  0  0  0  0  0
  -21.2047   -7.6152   23.9728 H   0  0  0  0  0  0
  -21.1484   -6.0524   25.9071 H   0  0  0  0  0  0
  -22.0618   -2.7618   23.2845 H   0  0  0  0  0  0
  -22.4270  -11.9741   22.4629 H   0  0  0  0  0  0
  -21.1257  -13.1133   22.2725 H   0  0  0  0  0  0
  -24.6802  -15.8580   20.5226 H   0  0  0  0  0  0
  -26.2935  -15.6329   20.0982 H   0  0  0  0  0  0
  -26.7058  -32.5489   23.1101 H   0  0  0  0  0  0
  -25.0090  -33.9773   25.0471 H   0  0  0  0  0  0
  -22.6776  -31.3112   21.4379 H   0  0  0  0  0  0
  -23.3747  -35.9658   23.3291 H   0  0  0  0  0  0
  -24.3588  -36.8942   22.2047 H   0  0  0  0  0  0
  -23.7280  -37.6508   23.6657 H   0  0  0  0  0  0
  -26.0336  -31.6029   20.6051 H   0  0  0  0  0  0
  -26.8206  -30.8840   21.9784 H   0  0  0  0  0  0
  -28.1092  -29.0933   21.1260 H   0  0  0  0  0  0
  -26.0251  -25.9588   19.0232 H   0  0  0  0  0  0
  -23.9563  -27.3034   19.0443 H   0  0  0  0  0  0
  -23.7108  -30.6066   19.4114 H   0  0  0  0  0  0
  -22.7211  -29.2600   19.8796 H   0  0  0  0  0  0
  -25.1300  -36.1939   25.0823 H   0  0  0  0  0  0
  -20.9817  -28.3364   24.1629 H   0  0  0  0  0  0
  -20.5792  -26.2300   23.3601 H   0  0  0  0  0  0
  -21.6761  -26.7677   22.1419 H   0  0  0  0  0  0
  -19.6853  -25.6456   21.1235 H   0  0  0  0  0  0
  -19.6850  -27.3400   20.6929 H   0  0  0  0  0  0
  -17.4310  -26.6767   21.3886 H   0  0  0  0  0  0
  -18.0125  -26.0265   22.8970 H   0  0  0  0  0  0
  -19.7872  -30.6996   24.2960 H   0  0  0  0  0  0
  -17.5064  -31.6095   24.5787 H   0  0  0  0  0  0
  -15.5370  -30.3192   23.7394 H   0  0  0  0  0  0
  -15.8688  -28.0941   22.6817 H   0  0  0  0  0  0
  -24.5941  -30.7006   25.7770 H   0  0  0  0  0  0
  -24.8969  -32.2849   26.4866 H   0  0  0  0  0  0
  -25.8145  -30.8856   27.0212 H   0  0  0  0  0  0
  -26.2888  -29.6792   24.1059 H   0  0  0  0  0  0
  -27.4071  -29.7204   25.4490 H   0  0  0  0  0  0
  -27.8717  -30.4339   23.9228 H   0  0  0  0  0  0
  -27.2669  -33.3547   26.2075 H   0  0  0  0  0  0
  -28.3884  -32.6831   25.0333 H   0  0  0  0  0  0
  -28.0674  -31.8357   26.5404 H   0  0  0  0  0  0
  -28.2565  -38.0119   24.7491 H   0  0  0  0  0  0
  -28.1112  -36.2647   24.6299 H   0  0  0  0  0  0
  -27.2272  -37.1447   25.8842 H   0  0  0  0  0  0
  -20.9302  -29.9706   21.7894 H   0  0  0  0  0  0
  -26.0175  -38.2830   24.1456 H   0  0  0  0  0  0
  -31.5150  -16.8632   21.9857 H   0  0  0  0  0  0
  -31.1764  -17.1065   20.2998 H   0  0  0  0  0  0
  -29.0690  -23.2011   22.2459 H   0  0  0  0  0  0
  -27.4733  -22.7545   21.7096 H   0  0  0  0  0  0
  -29.2185  -25.6573   21.6399 H   0  0  0  0  0  0
  -27.4741  -25.4779   21.5914 H   0  0  0  0  0  0
  -27.7561  -23.9479   19.5581 H   0  0  0  0  0  0
  -28.5798  -16.1839   23.4402 H   0  0  0  0  0  0
  -27.4911  -17.3435   23.9947 H   0  0  0  0  0  0
  -29.9755  -21.7763   20.4346 H   0  0  0  0  0  0
  -29.2124  -15.4095   21.6215 H   0  0  0  0  0  0
  -29.7402  -23.2580   19.0651 H   0  0  0  0  0  0
  1 25  1  0  0  0
  1 30  2  0  0  0
  1 81  1  0  0  0
  2  3  1  0  0  0
  2 25  1  0  0  0
  2 84  1  0  0  0
  2 85  1  0  0  0
  3  4  1  0  0  0
  3 86  1  0  0  0
  3 87  1  0  0  0
  4  5  1  0  0  0
  4 88  1  0  0  0
  4 89  1  0  0  0
  5  6  1  0  0  0
  5 26  1  0  0  0
  5 90  1  0  0  0
  6 25  1  0  0  0
  6 91  1  0  0  0
  6 92  1  0  0  0
  7  8  2  0  0  0
  7 26  1  0  0  0
  7 29  1  0  0  0
  8  9  1  0  0  0
  8 22  1  0  0  0
  9 10  1  0  0  0
  9 27  2  0  0  0
 10 11  2  0  0  0
 10 15  1  0  0  0
 11 12  1  0  0  0
 11 93  1  0  0  0
 12 13  2  0  0  0
 12 94  1  0  0  0
 13 14  1  0  0  0
 13 31  1  0  0  0
 14 15  2  0  0  0
 14 95  1  0  0  0
 15 96  1  0  0  0
 16 17  2  0  0  0
 16 21  1  0  0  0
 16 31  1  0  0  0
 17 18  1  0  0  0
 17 97  1  0  0  0
 18 19  2  0  0  0
 18 98  1  0  0  0
 19 20  1  0  0  0
 19 24  1  0  0  0
 20 21  2  0  0  0
 20 99  1  0  0  0
 21 23  1  0  0  0
 22 28  1  0  0  0
 22 32  2  0  0  0
 26 27  1  0  0  0
 28100  1  0  0  0
 28101  1  0  0  0
 29102  1  0  0  0
 29103  1  0  0  0
 33 34  1  0  0  0
 33 66  1  0  0  0
 33 70  2  0  0  0
 34 36  1  0  0  0
 34 59  1  0  0  0
 34104  1  0  0  0
 35 44  2  0  0  0
 35 45  1  0  0  0
 35 68  1  0  0  0
 36 56  1  0  0  0
 36105  1  0  0  0
 37 39  1  0  0  0
 37 47  1  0  0  0
 37 66  1  0  0  0
 37106  1  0  0  0
 38 43  2  0  0  0
 38 46  1  0  0  0
 38 47  1  0  0  0
 39 64  1  0  0  0
 39 67  2  0  0  0
 40 52  1  0  0  0
 40 53  2  0  0  0
 40 58  1  0  0  0
 41107  1  0  0  0
 41108  1  0  0  0
 41109  1  0  0  0
 41 48  1  0  0  0
 42 43  1  0  0  0
 42 66  1  0  0  0
 42110  1  0  0  0
 42111  1  0  0  0
 43 44  1  0  0  0
 44112  1  0  0  0
 45 46  2  0  0  0
 45113  1  0  0  0
 46114  1  0  0  0
 47115  1  0  0  0
 47116  1  0  0  0
 48 56  1  0  0  0
 48 65  1  0  0  0
 48117  1  0  0  0
 49 50  1  0  0  0
 49 53  1  0  0  0
 49 64  1  0  0  0
 49118  1  0  0  0
 50 51  1  0  0  0
 50119  1  0  0  0
 50120  1  0  0  0
 51 52  1  0  0  0
 51121  1  0  0  0
 51122  1  0  0  0
 52123  1  0  0  0
 52124  1  0  0  0
 53 54  1  0  0  0
 54 55  2  0  0  0
 54125  1  0  0  0
 55 57  1  0  0  0
 55126  1  0  0  0
 56 69  2  0  0  0
 57 58  2  0  0  0
 57127  1  0  0  0
 58128  1  0  0  0
 59 60  1  0  0  0
 59 61  1  0  0  0
 59 62  1  0  0  0
 60129  1  0  0  0
 60130  1  0  0  0
 60131  1  0  0  0
 61132  1  0  0  0
 61133  1  0  0  0
 61134  1  0  0  0
 62135  1  0  0  0
 62136  1  0  0  0
 62137  1  0  0  0
 63 65  1  0  0  0
 63138  1  0  0  0
 63139  1  0  0  0
 63140  1  0  0  0
 64141  1  0  0  0
 65142  1  0  0  0
 68 76  1  0  0  0
 71 72  2  0  0  0
 71 74  1  0  0  0
 71 78  1  0  0  0
 72 79  1  0  0  0
 72 83  1  0  0  0
 73 78  2  0  0  0
 73 80  1  0  0  0
 73 83  1  0  0  0
 74 81  1  0  0  0
 74143  1  0  0  0
 74144  1  0  0  0
 75 77  1  0  0  0
 75 80  1  0  0  0
 75145  1  0  0  0
 75146  1  0  0  0
 76 77  1  0  0  0
 76147  1  0  0  0
 76148  1  0  0  0
 77 82  1  0  0  0
 77149  1  0  0  0
 79150  1  0  0  0
 79151  1  0  0  0
 80152  1  0  0  0
 81153  1  0  0  0
 82154  1  0  0  0
M  ISO  4   1 100  68 101  76 101  81 100
M  END
> <chiral flag>
0

> <version>
0

> <s_m_source_file>
/data/baiqing/PycharmProjects/Reinvent-master-3.2/result/LINK_invent/BTK/process_docking_weight1_custom_product_contain_oxygen_bond_distance_aromatic_linkinvent_7_9_3/rearranged_h_0194.sdf

> <i_m_source_file_index>
32

> <r_mmod_Potential_Energy-OPLS-2005>
-127.79833984375

> <r_mmod_Stretch_Energy-OPLS-2005>
47.8382034301758

> <r_mmod_Bend_Energy-OPLS-2005>
112.995475769043

> <r_mmod_Torsional_Energy-OPLS-2005>
251.839599609375

> <r_mmod_Improper_Torsional_Energy-OPLS-2005>
6.17232704162598

> <r_mmod_Van_der_Waal_Energy-OPLS-2005>
123.820098876953

> <r_mmod_Electrostatic_Energy-OPLS-2005>
-438.837036132812

> <r_mmod_Solvation_Energy-OPLS-2005>
-249.417877197266

> <b_mmod_Minimization_Converged-OPLS-2005>
0

> <r_mmod_RMS_Derivative-OPLS-2005>
11.0547571182251

$$$$
32
                    3D
 Structure written by MMmdl.
157165  0  0  1  0            999 V2000
  -30.9593  -13.9275   20.4593 C   0  0  0  0  0  0
  -31.0213  -11.7473   18.9949 C   0  0  0  0  0  0
  -29.7547  -12.3752   17.6006 C   0  0  0  0  0  0
  -28.2839  -13.5728   18.1041 C   0  0  0  0  0  0
  -27.9399  -14.1010   20.0143 C   0  0  2  0  0  0
  -29.0326  -13.4097   21.4304 C   0  0  0  0  0  0
  -25.9202  -14.4126   21.0346 C   0  0  0  0  0  0
  -24.1393  -13.7375   20.7743 C   0  0  0  0  0  0
  -23.9533  -12.4242   20.4578 C   0  0  0  0  0  0
  -23.6786  -10.8684   20.9111 C   0  0  0  0  0  0
  -24.2194   -9.8568   21.8297 C   0  0  0  0  0  0
  -23.6442   -8.5456   22.0304 C   0  0  0  0  0  0
  -22.4707   -8.1582   21.3368 C   0  0  0  0  0  0
  -21.9762   -9.0846   20.4072 C   0  0  0  0  0  0
  -22.5689  -10.3540   20.2022 C   0  0  0  0  0  0
  -21.7618   -6.1245   22.5220 C   0  0  0  0  0  0
  -21.4572   -6.6010   23.8164 C   0  0  0  0  0  0
  -21.3816   -5.7058   24.9048 C   0  0  0  0  0  0
  -21.6004   -4.3290   24.7093 C   0  0  0  0  0  0
  -21.8767   -3.8430   23.4199 C   0  0  0  0  0  0
  -21.9451   -4.7342   22.3317 C   0  0  0  0  0  0
  -22.5312  -14.0245   21.1481 C   0  0  0  0  0  0
  -22.1795   -4.2445   21.0908 F   0  0  0  0  0  0
  -21.5458   -3.4711   25.7563 F   0  0  0  0  0  0
  -30.5716  -12.7260   20.6107 N   0  0  0  0  0  0
  -26.7463  -14.0408   20.8895 N   0  0  0  0  0  0
  -24.8303  -13.6819   20.7360 N   0  0  0  0  0  0
  -21.9006  -13.1760   21.9867 N   0  0  0  0  0  0
  -26.7456  -15.5001   21.5994 N   0  0  0  0  0  0
  -31.9342  -14.5381   20.0287 O   0  0  0  0  0  0
  -21.7928   -6.9473   21.4135 O   0  0  0  0  0  0
  -21.9690  -14.9401   20.5871 O   0  0  0  0  0  0
  -24.7343  -31.7261   23.1189 C   0  0  0  0  0  0
  -25.9715  -32.4045   23.7868 C   0  0  1  0  0  0
  -26.5051  -25.8961   20.2766 C   0  0  0  0  0  0
  -25.6074  -33.7956   24.1612 N   0  0  0  0  0  0
  -23.5446  -30.3576   21.4883 C   0  0  2  0  0  0
  -24.8744  -28.5886   20.0673 C   0  0  0  0  0  0
  -22.7806  -29.4022   22.4476 C   0  0  0  0  0  0
  -18.0323  -28.1432   22.8422 C   0  0  0  0  0  0
  -24.1483  -36.6950   23.2659 C   0  0  0  0  0  0
  -26.1194  -30.1481   21.5103 C   0  0  0  0  0  0
  -26.0290  -28.6608   20.8394 C   0  0  0  0  0  0
  -26.8413  -27.3376   20.9137 C   0  0  0  0  0  0
  -25.5346  -26.2662   19.3263 C   0  0  0  0  0  0
  -24.7339  -27.4488   19.2664 C   0  0  0  0  0  0
  -23.7946  -29.6878   20.1037 C   0  0  0  0  0  0
  -25.4167  -36.2669   24.0231 C   0  0  1  0  0  0
  -20.5957  -28.3798   23.1033 C   0  0  2  0  0  0
  -20.6756  -26.9421   22.5377 C   0  0  0  0  0  0
  -19.5752  -26.6343   21.5186 C   0  0  0  0  0  0
  -18.1936  -26.7947   22.1592 C   0  0  0  0  0  0
  -19.1595  -28.8945   23.2715 C   0  0  0  0  0  0
  -18.9527  -30.1512   23.8794 C   0  0  0  0  0  0
  -17.6520  -30.6609   24.0542 C   0  0  0  0  0  0
  -25.9206  -34.9078   23.4794 C   0  0  0  0  0  0
  -16.5397  -29.9099   23.6350 C   0  0  0  0  0  0
  -16.7311  -28.6514   23.0380 C   0  0  0  0  0  0
  -26.4719  -31.6468   25.0807 C   0  0  0  0  0  0
  -25.3642  -31.3997   26.1328 C   0  0  0  0  0  0
  -27.0838  -30.2764   24.7325 C   0  0  0  0  0  0
  -27.6005  -32.4575   25.7598 C   0  0  0  0  0  0
  -27.5542  -37.1619   24.8450 C   0  0  0  0  0  0
  -21.4428  -29.2963   22.3270 N   0  0  0  0  0  0
  -26.4214  -37.3534   23.9433 N   0  0  0  0  0  0
  -24.8410  -30.8039   22.0826 N   0  0  0  0  0  0
  -23.4079  -28.7624   23.2958 O   0  0  0  0  0  0
  -26.8203  -24.2093   20.4063 O   0  0  0  0  0  0
  -26.5936  -34.8778   22.4475 O   0  0  0  0  0  0
  -23.6303  -32.0809   23.5754 O   0  0  0  0  0  0
  -26.1230  -12.4649   19.4951 C   0  0  0  0  0  0
  -25.1576  -13.5879   22.9605 C   0  0  0  0  0  0
  -24.7948  -16.1442   20.2399 C   0  0  0  0  0  0
  -24.3699  -20.2516   21.4127 C   0  0  0  0  0  0
  -27.2286  -11.4977   19.0500 C   0  0  0  0  0  0
  -28.7260  -11.7916   19.7064 C   0  0  0  0  0  0
  -26.1720  -22.2139   20.0463 C   0  0  0  0  0  0
  -25.5995  -19.9575   20.5428 C   0  0  2  0  0  0
  -26.0003  -12.0896   21.7007 N   0  0  0  0  0  0
  -25.5324  -14.5731   18.8287 N   0  0  0  0  0  0
  -24.4797  -15.5187   22.2828 N   0  0  0  0  0  0
  -24.9978  -13.2638   24.2785 N   0  0  0  0  0  0
  -25.2379  -18.0178   20.0168 N   0  0  0  0  0  0
  -30.1084  -13.5556   19.5802 N   0  0  0  0  0  0
  -32.0420  -12.0042   18.6958 H   0  0  0  0  0  0
  -31.0625  -10.6651   19.1394 H   0  0  0  0  0  0
  -29.3614  -11.5072   17.0694 H   0  0  0  0  0  0
  -30.3386  -12.8841   16.8335 H   0  0  0  0  0  0
  -27.4045  -13.4335   17.4721 H   0  0  0  0  0  0
  -28.5975  -14.5236   17.6673 H   0  0  0  0  0  0
  -28.2384  -15.1493   19.8944 H   0  0  0  0  0  0
  -28.5482  -12.6980   22.1016 H   0  0  0  0  0  0
  -29.2549  -14.2246   22.1286 H   0  0  0  0  0  0
  -25.0780  -10.0682   22.4452 H   0  0  0  0  0  0
  -24.0984   -7.8655   22.7369 H   0  0  0  0  0  0
  -21.1035   -8.8251   19.8256 H   0  0  0  0  0  0
  -22.0934  -10.9973   19.4752 H   0  0  0  0  0  0
  -21.2811   -7.6548   23.9762 H   0  0  0  0  0  0
  -21.1560   -6.0759   25.8951 H   0  0  0  0  0  0
  -22.0291   -2.7861   23.2610 H   0  0  0  0  0  0
  -22.3725  -12.3877   22.4025 H   0  0  0  0  0  0
  -20.9195  -13.3154   22.1844 H   0  0  0  0  0  0
  -25.9076  -15.8439   22.1235 H   0  0  0  0  0  0
  -27.1012  -16.2147   20.9766 H   0  0  0  0  0  0
  -26.7812  -32.4283   23.0564 H   0  0  0  0  0  0
  -25.0082  -33.8936   24.9675 H   0  0  0  0  0  0
  -22.9103  -31.2258   21.3050 H   0  0  0  0  0  0
  -23.3843  -35.9171   23.3162 H   0  0  0  0  0  0
  -24.3537  -36.8831   22.2104 H   0  0  0  0  0  0
  -23.7123  -37.5996   23.6917 H   0  0  0  0  0  0
  -26.4818  -30.8195   20.7296 H   0  0  0  0  0  0
  -26.9250  -30.1228   22.2254 H   0  0  0  0  0  0
  -27.6565  -27.3492   21.6264 H   0  0  0  0  0  0
  -25.2066  -25.4681   18.6720 H   0  0  0  0  0  0
  -23.9041  -27.4265   18.5759 H   0  0  0  0  0  0
  -24.0939  -30.4522   19.3868 H   0  0  0  0  0  0
  -22.8582  -29.2794   19.7190 H   0  0  0  0  0  0
  -25.1401  -36.1340   25.0719 H   0  0  0  0  0  0
  -21.0075  -28.3465   24.1150 H   0  0  0  0  0  0
  -20.5562  -26.2442   23.3682 H   0  0  0  0  0  0
  -21.6623  -26.7275   22.1240 H   0  0  0  0  0  0
  -19.6910  -25.6228   21.1291 H   0  0  0  0  0  0
  -19.6715  -27.3078   20.6668 H   0  0  0  0  0  0
  -17.4196  -26.6667   21.4001 H   0  0  0  0  0  0
  -18.0338  -26.0109   22.9019 H   0  0  0  0  0  0
  -19.8023  -30.7326   24.2123 H   0  0  0  0  0  0
  -17.5098  -31.6289   24.5166 H   0  0  0  0  0  0
  -15.5410  -30.3002   23.7749 H   0  0  0  0  0  0
  -15.8689  -28.0824   22.7179 H   0  0  0  0  0  0
  -24.5799  -30.7372   25.7641 H   0  0  0  0  0  0
  -24.8892  -32.3314   26.4433 H   0  0  0  0  0  0
  -25.7711  -30.9355   27.0330 H   0  0  0  0  0  0
  -26.3606  -29.5902   24.2913 H   0  0  0  0  0  0
  -27.4495  -29.7824   25.6343 H   0  0  0  0  0  0
  -27.9509  -30.3729   24.0784 H   0  0  0  0  0  0
  -27.2412  -33.4022   26.1715 H   0  0  0  0  0  0
  -28.4025  -32.6923   25.0577 H   0  0  0  0  0  0
  -28.0476  -31.9088   26.5904 H   0  0  0  0  0  0
  -28.2413  -38.0053   24.7660 H   0  0  0  0  0  0
  -28.1191  -36.2582   24.6105 H   0  0  0  0  0  0
  -27.2279  -37.1019   25.8848 H   0  0  0  0  0  0
  -20.9780  -29.8656   21.6325 H   0  0  0  0  0  0
  -25.9975  -38.2524   24.1579 H   0  0  0  0  0  0
  -24.5125  -21.1536   22.0096 H   0  0  0  0  0  0
  -24.1490  -19.4306   22.0953 H   0  0  0  0  0  0
  -23.4889  -20.4109   20.7879 H   0  0  0  0  0  0
  -27.2217  -11.3414   17.9713 H   0  0  0  0  0  0
  -26.8996  -10.5285   19.4218 H   0  0  0  0  0  0
  -29.0472  -10.8297   19.3069 H   0  0  0  0  0  0
  -28.6191  -11.3051   20.6813 H   0  0  0  0  0  0
  -25.3818  -22.4494   19.3349 H   0  0  0  0  0  0
  -27.0275  -21.9742   19.4097 H   0  0  0  0  0  0
  -26.4259  -19.7406   21.2243 H   0  0  0  0  0  0
  -25.3233  -12.3754   24.6317 H   0  0  0  0  0  0
  -24.4737  -13.8630   24.8986 H   0  0  0  0  0  0
  -25.4673  -18.0742   19.0295 H   0  0  0  0  0  0
  -30.1180  -14.0530   18.7034 H   0  0  0  0  0  0
  1 25  1  0  0  0
  1 30  2  0  0  0
  1 84  1  0  0  0
  2  3  1  0  0  0
  2 25  1  0  0  0
  2 85  1  0  0  0
  2 86  1  0  0  0
  3  4  1  0  0  0
  3 87  1  0  0  0
  3 88  1  0  0  0
  4  5  1  0  0  0
  4 89  1  0  0  0
  4 90  1  0  0  0
  5  6  1  0  0  0
  5 26  1  0  0  0
  5 91  1  0  0  0
  6 25  1  0  0  0
  6 92  1  0  0  0
  6 93  1  0  0  0
  7  8  2  0  0  0
  7 26  1  0  0  0
  7 29  1  0  0  0
  8  9  1  0  0  0
  8 22  1  0  0  0
  9 10  1  0  0  0
  9 27  2  0  0  0
 10 11  2  0  0  0
 10 15  1  0  0  0
 11 12  1  0  0  0
 11 94  1  0  0  0
 12 13  2  0  0  0
 12 95  1  0  0  0
 13 14  1  0  0  0
 13 31  1  0  0  0
 14 15  2  0  0  0
 14 96  1  0  0  0
 15 97  1  0  0  0
 16 17  2  0  0  0
 16 21  1  0  0  0
 16 31  1  0  0  0
 17 18  1  0  0  0
 17 98  1  0  0  0
 18 19  2  0  0  0
 18 99  1  0  0  0
 19 20  1  0  0  0
 19 24  1  0  0  0
 20 21  2  0  0  0
 20100  1  0  0  0
 21 23  1  0  0  0
 22 28  1  0  0  0
 22 32  2  0  0  0
 26 27  1  0  0  0
 28101  1  0  0  0
 28102  1  0  0  0
 29103  1  0  0  0
 29104  1  0  0  0
 33 34  1  0  0  0
 33 66  1  0  0  0
 33 70  2  0  0  0
 34 36  1  0  0  0
 34 59  1  0  0  0
 34105  1  0  0  0
 35 44  2  0  0  0
 35 45  1  0  0  0
 35 68  1  0  0  0
 36 56  1  0  0  0
 36106  1  0  0  0
 37 39  1  0  0  0
 37 47  1  0  0  0
 37 66  1  0  0  0
 37107  1  0  0  0
 38 43  2  0  0  0
 38 46  1  0  0  0
 38 47  1  0  0  0
 39 64  1  0  0  0
 39 67  2  0  0  0
 40 52  1  0  0  0
 40 53  2  0  0  0
 40 58  1  0  0  0
 41108  1  0  0  0
 41109  1  0  0  0
 41110  1  0  0  0
 41 48  1  0  0  0
 42 43  1  0  0  0
 42 66  1  0  0  0
 42111  1  0  0  0
 42112  1  0  0  0
 43 44  1  0  0  0
 44113  1  0  0  0
 45 46  2  0  0  0
 45114  1  0  0  0
 46115  1  0  0  0
 47116  1  0  0  0
 47117  1  0  0  0
 48 56  1  0  0  0
 48 65  1  0  0  0
 48118  1  0  0  0
 49 50  1  0  0  0
 49 53  1  0  0  0
 49 64  1  0  0  0
 49119  1  0  0  0
 50 51  1  0  0  0
 50120  1  0  0  0
 50121  1  0  0  0
 51 52  1  0  0  0
 51122  1  0  0  0
 51123  1  0  0  0
 52124  1  0  0  0
 52125  1  0  0  0
 53 54  1  0  0  0
 54 55  2  0  0  0
 54126  1  0  0  0
 55 57  1  0  0  0
 55127  1  0  0  0
 56 69  2  0  0  0
 57 58  2  0  0  0
 57128  1  0  0  0
 58129  1  0  0  0
 59 60  1  0  0  0
 59 61  1  0  0  0
 59 62  1  0  0  0
 60130  1  0  0  0
 60131  1  0  0  0
 60132  1  0  0  0
 61133  1  0  0  0
 61134  1  0  0  0
 61135  1  0  0  0
 62136  1  0  0  0
 62137  1  0  0  0
 62138  1  0  0  0
 63 65  1  0  0  0
 63139  1  0  0  0
 63140  1  0  0  0
 63141  1  0  0  0
 64142  1  0  0  0
 65143  1  0  0  0
 68 77  1  0  0  0
 71 75  1  0  0  0
 71 79  1  0  0  0
 71 80  2  0  0  0
 72 79  2  0  0  0
 72 81  1  0  0  0
 72 82  1  0  0  0
 73 80  1  0  0  0
 73 81  2  0  0  0
 73 83  1  0  0  0
 74144  1  0  0  0
 74145  1  0  0  0
 74146  1  0  0  0
 74 78  1  0  0  0
 75 76  1  0  0  0
 75147  1  0  0  0
 75148  1  0  0  0
 76 84  1  0  0  0
 76149  1  0  0  0
 76150  1  0  0  0
 77 78  1  0  0  0
 77151  1  0  0  0
 77152  1  0  0  0
 78 83  1  0  0  0
 78153  1  0  0  0
 82154  1  0  0  0
 82155  1  0  0  0
 83156  1  0  0  0
 84157  1  0  0  0
M  ISO  4   1 100  68 101  77 101  84 100
M  END
> <chiral flag>
0

> <version>
0

> <s_m_source_file>
/data/baiqing/PycharmProjects/Reinvent-master-3.2/result/LINK_invent/BTK/process_docking_weight1_custom_product_contain_oxygen_bond_distance_aromatic_linkinvent_7_9_3/rearranged_h_0194.sdf

> <i_m_source_file_index>
33

> <r_mmod_Potential_Energy-OPLS-2005>
29705.23046875

> <r_mmod_Stretch_Energy-OPLS-2005>
17159.96484375

> <r_mmod_Bend_Energy-OPLS-2005>
3329.818359375

> <r_mmod_Torsional_Energy-OPLS-2005>
571.642272949219

> <r_mmod_Improper_Torsional_Energy-OPLS-2005>
131.405883789062

> <r_mmod_Van_der_Waal_Energy-OPLS-2005>
6143.04296875

> <r_mmod_Electrostatic_Energy-OPLS-2005>
-1020.51934814453

> <r_mmod_Solvation_Energy-OPLS-2005>
-305.596099853516

> <b_mmod_Minimization_Converged-OPLS-2005>
0

> <r_mmod_RMS_Derivative-OPLS-2005>
7.50357866287231

$$$$
33
                    3D
 Structure written by MMmdl.
157165  0  0  1  0            999 V2000
  -30.6666  -14.4732   20.5802 C   0  0  0  0  0  0
  -30.4366  -12.3097   19.4143 C   0  0  0  0  0  0
  -29.4961  -12.5063   18.2052 C   0  0  0  0  0  0
  -28.0160  -12.3654   18.6164 C   0  0  0  0  0  0
  -27.6657  -13.1955   19.8790 C   0  0  2  0  0  0
  -28.7065  -12.9448   20.9943 C   0  0  0  0  0  0
  -25.2632  -13.8153   20.5678 C   0  0  0  0  0  0
  -24.1856  -13.0440   20.9146 C   0  0  0  0  0  0
  -24.6390  -11.6900   20.8729 C   0  0  0  0  0  0
  -23.9050  -10.4299   21.0408 C   0  0  0  0  0  0
  -24.3607   -9.4220   21.9182 C   0  0  0  0  0  0
  -23.6293   -8.2251   22.0756 C   0  0  0  0  0  0
  -22.4277   -8.0285   21.3545 C   0  0  0  0  0  0
  -21.9902   -9.0257   20.4647 C   0  0  0  0  0  0
  -22.7225  -10.2141   20.3059 C   0  0  0  0  0  0
  -21.6852   -6.0742   22.5282 C   0  0  0  0  0  0
  -21.4010   -6.5644   23.8216 C   0  0  0  0  0  0
  -21.3654   -5.6796   24.9175 C   0  0  0  0  0  0
  -21.6042   -4.3059   24.7223 C   0  0  0  0  0  0
  -21.8822   -3.8154   23.4345 C   0  0  0  0  0  0
  -21.9197   -4.6971   22.3404 C   0  0  0  0  0  0
  -22.7886  -13.5257   21.1816 C   0  0  0  0  0  0
  -22.1668   -4.2161   21.0981 F   0  0  0  0  0  0
  -21.5624   -3.4540   25.7733 F   0  0  0  0  0  0
  -30.0401  -13.2714   20.4532 N   0  0  0  0  0  0
  -26.3048  -12.9287   20.3380 N   0  0  0  0  0  0
  -25.9315  -11.6460   20.5763 N   0  0  0  0  0  0
  -22.0520  -12.8257   22.0380 N   0  0  0  0  0  0
  -25.4403  -15.1867   20.4123 N   0  0  0  0  0  0
  -31.7862  -14.7080   20.1114 O   0  0  0  0  0  0
  -21.6640   -6.8886   21.4245 O   0  0  0  0  0  0
  -22.3571  -14.5566   20.6672 O   0  0  0  0  0  0
  -24.6159  -31.8672   23.2085 C   0  0  0  0  0  0
  -25.9045  -32.4815   23.8391 C   0  0  1  0  0  0
  -27.2382  -27.4299   20.1018 C   0  0  0  0  0  0
  -25.5903  -33.8613   24.2324 N   0  0  0  0  0  0
  -23.4053  -30.4894   21.5487 C   0  0  2  0  0  0
  -24.8532  -28.9476   20.1192 C   0  0  0  0  0  0
  -22.7412  -29.4656   22.4984 C   0  0  0  0  0  0
  -18.0275  -28.1374   22.8494 C   0  0  0  0  0  0
  -24.1483  -36.7312   23.2641 C   0  0  0  0  0  0
  -25.9340  -30.8300   21.3632 C   0  0  0  0  0  0
  -26.0128  -29.4621   20.7143 C   0  0  0  0  0  0
  -27.2106  -28.7104   20.7011 C   0  0  0  0  0  0
  -26.0646  -26.9261   19.5054 C   0  0  0  0  0  0
  -24.8730  -27.6780   19.5133 C   0  0  0  0  0  0
  -23.6161  -29.8169   20.1651 C   0  0  0  0  0  0
  -25.4104  -36.3106   24.0341 C   0  0  1  0  0  0
  -20.5862  -28.3663   23.1313 C   0  0  2  0  0  0
  -20.6762  -26.9399   22.5417 C   0  0  0  0  0  0
  -19.5739  -26.6380   21.5214 C   0  0  0  0  0  0
  -18.1918  -26.7924   22.1623 C   0  0  0  0  0  0
  -19.1522  -28.8833   23.2902 C   0  0  0  0  0  0
  -18.9458  -30.1441   23.8909 C   0  0  0  0  0  0
  -17.6461  -30.6581   24.0565 C   0  0  0  0  0  0
  -25.9032  -34.9470   23.5129 C   0  0  0  0  0  0
  -16.5349  -29.9089   23.6325 C   0  0  0  0  0  0
  -16.7263  -28.6502   23.0351 C   0  0  0  0  0  0
  -26.4469  -31.6603   25.0729 C   0  0  0  0  0  0
  -25.3739  -31.3716   26.1486 C   0  0  0  0  0  0
  -27.0316  -30.3052   24.6113 C   0  0  0  0  0  0
  -27.6044  -32.4330   25.7499 C   0  0  0  0  0  0
  -27.5575  -37.1811   24.8467 C   0  0  0  0  0  0
  -21.4138  -29.3036   22.3719 N   0  0  0  0  0  0
  -26.4286  -37.3791   23.9412 N   0  0  0  0  0  0
  -24.6696  -31.0769   22.0985 N   0  0  0  0  0  0
  -23.4183  -28.8191   23.3024 O   0  0  0  0  0  0
  -28.3959  -26.6832   20.0746 O   0  0  0  0  0  0
  -26.5586  -34.8924   22.4689 O   0  0  0  0  0  0
  -23.5347  -32.1419   23.7480 O   0  0  0  0  0  0
  -30.8472  -17.6897   21.1062 C   0  0  0  0  0  0
  -28.6133  -18.5332   19.8454 C   0  0  0  0  0  0
  -29.8223  -16.7703   20.7655 C   0  0  0  0  0  0
  -29.6263  -19.4585   20.2354 C   0  0  0  0  0  0
  -27.3868  -18.9360   19.0458 C   0  0  0  0  0  0
  -28.5708  -24.1675   20.1519 C   0  0  0  0  0  0
  -28.3490  -21.5491   20.4566 C   0  0  0  0  0  0
  -28.3930  -25.5125   20.9116 C   0  0  0  0  0  0
  -28.6289  -22.9361   21.1012 C   0  0  1  0  0  0
  -30.7477  -19.0220   20.8515 N   0  0  0  0  0  0
  -28.7036  -17.2097   20.1347 N   0  0  0  0  0  0
  -29.9181  -15.4173   21.1743 N   0  0  0  0  0  0
  -29.5663  -20.8488   20.0280 N   0  0  0  0  0  0
  -29.8825  -22.8712   21.7658 O   0  0  0  0  0  0
  -31.4766  -12.4375   19.1076 H   0  0  0  0  0  0
  -30.3632  -11.2908   19.7983 H   0  0  0  0  0  0
  -29.7367  -11.7851   17.4235 H   0  0  0  0  0  0
  -29.6600  -13.4932   17.7707 H   0  0  0  0  0  0
  -27.8205  -11.3085   18.8015 H   0  0  0  0  0  0
  -27.3669  -12.6526   17.7890 H   0  0  0  0  0  0
  -27.7176  -14.2464   19.5947 H   0  0  0  0  0  0
  -28.6864  -11.8971   21.2985 H   0  0  0  0  0  0
  -28.4592  -13.5054   21.8970 H   0  0  0  0  0  0
  -25.2753   -9.5695   22.4749 H   0  0  0  0  0  0
  -24.0003   -7.4643   22.7471 H   0  0  0  0  0  0
  -21.0837   -8.8770   19.8954 H   0  0  0  0  0  0
  -22.3681  -10.9675   19.6168 H   0  0  0  0  0  0
  -21.2002   -7.6153   23.9720 H   0  0  0  0  0  0
  -21.1468   -6.0526   25.9076 H   0  0  0  0  0  0
  -22.0607   -2.7619   23.2840 H   0  0  0  0  0  0
  -22.4126  -11.9910   22.4762 H   0  0  0  0  0  0
  -21.1142  -13.1298   22.2580 H   0  0  0  0  0  0
  -24.6788  -15.8452   20.5333 H   0  0  0  0  0  0
  -26.3072  -15.6315   20.1330 H   0  0  0  0  0  0
  -26.7121  -32.5523   23.1159 H   0  0  0  0  0  0
  -25.0097  -33.9779   25.0500 H   0  0  0  0  0  0
  -22.6942  -31.3061   21.4053 H   0  0  0  0  0  0
  -23.3738  -35.9652   23.3317 H   0  0  0  0  0  0
  -24.3572  -36.8913   22.2051 H   0  0  0  0  0  0
  -23.7246  -37.6526   23.6645 H   0  0  0  0  0  0
  -26.0472  -31.5916   20.5907 H   0  0  0  0  0  0
  -26.8217  -30.8857   21.9809 H   0  0  0  0  0  0
  -28.1079  -29.1020   21.1592 H   0  0  0  0  0  0
  -26.0757  -25.9545   19.0320 H   0  0  0  0  0  0
  -23.9812  -27.2747   19.0523 H   0  0  0  0  0  0
  -23.7272  -30.5899   19.4040 H   0  0  0  0  0  0
  -22.7401  -29.2379   19.8673 H   0  0  0  0  0  0
  -25.1279  -36.1968   25.0832 H   0  0  0  0  0  0
  -20.9958  -28.3229   24.1429 H   0  0  0  0  0  0
  -20.5660  -26.2271   23.3606 H   0  0  0  0  0  0
  -21.6636  -26.7437   22.1209 H   0  0  0  0  0  0
  -19.6903  -25.6294   21.1236 H   0  0  0  0  0  0
  -19.6679  -27.3195   20.6748 H   0  0  0  0  0  0
  -17.4192  -26.6678   21.4020 H   0  0  0  0  0  0
  -18.0311  -26.0058   22.9009 H   0  0  0  0  0  0
  -19.7936  -30.7252   24.2281 H   0  0  0  0  0  0
  -17.5022  -31.6263   24.5167 H   0  0  0  0  0  0
  -15.5350  -30.3001   23.7641 H   0  0  0  0  0  0
  -15.8663  -28.0829   22.7063 H   0  0  0  0  0  0
  -24.5894  -30.7081   25.7825 H   0  0  0  0  0  0
  -24.8953  -32.2879   26.4953 H   0  0  0  0  0  0
  -25.8093  -30.8870   27.0233 H   0  0  0  0  0  0
  -26.2860  -29.6794   24.1194 H   0  0  0  0  0  0
  -27.4123  -29.7307   25.4565 H   0  0  0  0  0  0
  -27.8671  -30.4381   23.9239 H   0  0  0  0  0  0
  -27.2651  -33.3612   26.2111 H   0  0  0  0  0  0
  -28.3837  -32.6926   25.0320 H   0  0  0  0  0  0
  -28.0730  -31.8441   26.5391 H   0  0  0  0  0  0
  -28.2604  -38.0096   24.7504 H   0  0  0  0  0  0
  -28.1055  -36.2629   24.6297 H   0  0  0  0  0  0
  -27.2296  -37.1475   25.8871 H   0  0  0  0  0  0
  -20.9293  -29.8775   21.6957 H   0  0  0  0  0  0
  -26.0175  -38.2870   24.1403 H   0  0  0  0  0  0
  -31.7350  -17.3647   21.6290 H   0  0  0  0  0  0
  -26.6051  -19.3107   19.7058 H   0  0  0  0  0  0
  -26.9825  -18.0916   18.4864 H   0  0  0  0  0  0
  -27.6396  -19.7110   18.3220 H   0  0  0  0  0  0
  -29.4577  -24.1975   19.5184 H   0  0  0  0  0  0
  -27.7235  -24.0515   19.4756 H   0  0  0  0  0  0
  -27.6550  -21.6599   19.6221 H   0  0  0  0  0  0
  -27.8367  -20.9310   21.1977 H   0  0  0  0  0  0
  -29.2126  -25.6330   21.6206 H   0  0  0  0  0  0
  -27.4880  -25.4637   21.5216 H   0  0  0  0  0  0
  -27.8555  -23.0858   21.8580 H   0  0  0  0  0  0
  -29.0587  -15.0364   21.5337 H   0  0  0  0  0  0
  -30.3934  -21.3515   20.3378 H   0  0  0  0  0  0
  -29.8487  -22.1258   22.3589 H   0  0  0  0  0  0
  1 25  1  0  0  0
  1 30  2  0  0  0
  1 82  1  0  0  0
  2  3  1  0  0  0
  2 25  1  0  0  0
  2 85  1  0  0  0
  2 86  1  0  0  0
  3  4  1  0  0  0
  3 87  1  0  0  0
  3 88  1  0  0  0
  4  5  1  0  0  0
  4 89  1  0  0  0
  4 90  1  0  0  0
  5  6  1  0  0  0
  5 26  1  0  0  0
  5 91  1  0  0  0
  6 25  1  0  0  0
  6 92  1  0  0  0
  6 93  1  0  0  0
  7  8  2  0  0  0
  7 26  1  0  0  0
  7 29  1  0  0  0
  8  9  1  0  0  0
  8 22  1  0  0  0
  9 10  1  0  0  0
  9 27  2  0  0  0
 10 11  2  0  0  0
 10 15  1  0  0  0
 11 12  1  0  0  0
 11 94  1  0  0  0
 12 13  2  0  0  0
 12 95  1  0  0  0
 13 14  1  0  0  0
 13 31  1  0  0  0
 14 15  2  0  0  0
 14 96  1  0  0  0
 15 97  1  0  0  0
 16 17  2  0  0  0
 16 21  1  0  0  0
 16 31  1  0  0  0
 17 18  1  0  0  0
 17 98  1  0  0  0
 18 19  2  0  0  0
 18 99  1  0  0  0
 19 20  1  0  0  0
 19 24  1  0  0  0
 20 21  2  0  0  0
 20100  1  0  0  0
 21 23  1  0  0  0
 22 28  1  0  0  0
 22 32  2  0  0  0
 26 27  1  0  0  0
 28101  1  0  0  0
 28102  1  0  0  0
 29103  1  0  0  0
 29104  1  0  0  0
 33 34  1  0  0  0
 33 66  1  0  0  0
 33 70  2  0  0  0
 34 36  1  0  0  0
 34 59  1  0  0  0
 34105  1  0  0  0
 35 44  2  0  0  0
 35 45  1  0  0  0
 35 68  1  0  0  0
 36 56  1  0  0  0
 36106  1  0  0  0
 37 39  1  0  0  0
 37 47  1  0  0  0
 37 66  1  0  0  0
 37107  1  0  0  0
 38 43  2  0  0  0
 38 46  1  0  0  0
 38 47  1  0  0  0
 39 64  1  0  0  0
 39 67  2  0  0  0
 40 52  1  0  0  0
 40 53  2  0  0  0
 40 58  1  0  0  0
 41108  1  0  0  0
 41109  1  0  0  0
 41110  1  0  0  0
 41 48  1  0  0  0
 42 43  1  0  0  0
 42 66  1  0  0  0
 42111  1  0  0  0
 42112  1  0  0  0
 43 44  1  0  0  0
 44113  1  0  0  0
 45 46  2  0  0  0
 45114  1  0  0  0
 46115  1  0  0  0
 47116  1  0  0  0
 47117  1  0  0  0
 48 56  1  0  0  0
 48 65  1  0  0  0
 48118  1  0  0  0
 49 50  1  0  0  0
 49 53  1  0  0  0
 49 64  1  0  0  0
 49119  1  0  0  0
 50 51  1  0  0  0
 50120  1  0  0  0
 50121  1  0  0  0
 51 52  1  0  0  0
 51122  1  0  0  0
 51123  1  0  0  0
 52124  1  0  0  0
 52125  1  0  0  0
 53 54  1  0  0  0
 54 55  2  0  0  0
 54126  1  0  0  0
 55 57  1  0  0  0
 55127  1  0  0  0
 56 69  2  0  0  0
 57 58  2  0  0  0
 57128  1  0  0  0
 58129  1  0  0  0
 59 60  1  0  0  0
 59 61  1  0  0  0
 59 62  1  0  0  0
 60130  1  0  0  0
 60131  1  0  0  0
 60132  1  0  0  0
 61133  1  0  0  0
 61134  1  0  0  0
 61135  1  0  0  0
 62136  1  0  0  0
 62137  1  0  0  0
 62138  1  0  0  0
 63 65  1  0  0  0
 63139  1  0  0  0
 63140  1  0  0  0
 63141  1  0  0  0
 64142  1  0  0  0
 65143  1  0  0  0
 68 78  1  0  0  0
 71 73  2  0  0  0
 71 80  1  0  0  0
 71144  1  0  0  0
 72 74  1  0  0  0
 72 75  1  0  0  0
 72 81  2  0  0  0
 73 81  1  0  0  0
 73 82  1  0  0  0
 74 80  2  0  0  0
 74 83  1  0  0  0
 75145  1  0  0  0
 75146  1  0  0  0
 75147  1  0  0  0
 76 78  1  0  0  0
 76 79  1  0  0  0
 76148  1  0  0  0
 76149  1  0  0  0
 77 79  1  0  0  0
 77 83  1  0  0  0
 77150  1  0  0  0
 77151  1  0  0  0
 78152  1  0  0  0
 78153  1  0  0  0
 79 84  1  0  0  0
 79154  1  0  0  0
 82155  1  0  0  0
 83156  1  0  0  0
 84157  1  0  0  0
M  ISO  4   1 100  68 101  78 101  82 100
M  END
> <chiral flag>
0

> <version>
0

> <s_m_source_file>
/data/baiqing/PycharmProjects/Reinvent-master-3.2/result/LINK_invent/BTK/process_docking_weight1_custom_product_contain_oxygen_bond_distance_aromatic_linkinvent_7_9_3/rearranged_h_0194.sdf

> <i_m_source_file_index>
34

> <r_mmod_Potential_Energy-OPLS-2005>
-137.326431274414

> <r_mmod_Stretch_Energy-OPLS-2005>
39.833667755127

> <r_mmod_Bend_Energy-OPLS-2005>
101.683235168457

> <r_mmod_Torsional_Energy-OPLS-2005>
302.151428222656

> <r_mmod_Improper_Torsional_Energy-OPLS-2005>
10.2733249664307

> <r_mmod_Van_der_Waal_Energy-OPLS-2005>
155.891616821289

> <r_mmod_Electrostatic_Energy-OPLS-2005>
-526.365112304688

> <r_mmod_Solvation_Energy-OPLS-2005>
-233.187881469727

> <b_mmod_Minimization_Converged-OPLS-2005>
0

> <r_mmod_RMS_Derivative-OPLS-2005>
1.4261292219162

$$$$
34
                    3D
 Structure written by MMmdl.
186194  0  0  1  0            999 V2000
  -30.5997  -14.6506   20.5597 C   0  0  0  0  0  0
  -30.4512  -12.4140   19.4509 C   0  0  0  0  0  0
  -29.5125  -12.5299   18.2284 C   0  0  0  0  0  0
  -28.0352  -12.3588   18.6380 C   0  0  0  0  0  0
  -27.6610  -13.2139   19.8763 C   0  0  2  0  0  0
  -28.7040  -13.0288   21.0006 C   0  0  0  0  0  0
  -25.2585  -13.8156   20.5667 C   0  0  0  0  0  0
  -24.1851  -13.0424   20.9173 C   0  0  0  0  0  0
  -24.6427  -11.6897   20.8737 C   0  0  0  0  0  0
  -23.9094  -10.4287   21.0405 C   0  0  0  0  0  0
  -24.3640   -9.4202   21.9169 C   0  0  0  0  0  0
  -23.6311   -8.2240   22.0741 C   0  0  0  0  0  0
  -22.4284   -8.0291   21.3535 C   0  0  0  0  0  0
  -21.9926   -9.0263   20.4629 C   0  0  0  0  0  0
  -22.7276  -10.2129   20.3036 C   0  0  0  0  0  0
  -21.6860   -6.0750   22.5283 C   0  0  0  0  0  0
  -21.4019   -6.5642   23.8222 C   0  0  0  0  0  0
  -21.3656   -5.6786   24.9175 C   0  0  0  0  0  0
  -21.6042   -4.3049   24.7216 C   0  0  0  0  0  0
  -21.8830   -3.8150   23.4338 C   0  0  0  0  0  0
  -21.9192   -4.6974   22.3397 C   0  0  0  0  0  0
  -22.7870  -13.5211   21.1841 C   0  0  0  0  0  0
  -22.1659   -4.2165   21.0968 F   0  0  0  0  0  0
  -21.5628   -3.4533   25.7725 F   0  0  0  0  0  0
  -30.0245  -13.4060   20.4618 N   0  0  0  0  0  0
  -26.3033  -12.9343   20.3371 N   0  0  0  0  0  0
  -25.9357  -11.6494   20.5776 N   0  0  0  0  0  0
  -22.0524  -12.8189   22.0385 N   0  0  0  0  0  0
  -25.4297  -15.1872   20.4051 N   0  0  0  0  0  0
  -31.6734  -14.9041   19.9988 O   0  0  0  0  0  0
  -21.6637   -6.8896   21.4247 O   0  0  0  0  0  0
  -22.3535  -14.5525   20.6717 O   0  0  0  0  0  0
  -24.6272  -31.8558   23.2016 C   0  0  0  0  0  0
  -25.9120  -32.4754   23.8350 C   0  0  1  0  0  0
  -27.2384  -27.3166   20.1194 C   0  0  0  0  0  0
  -25.5939  -33.8556   24.2290 N   0  0  0  0  0  0
  -23.4214  -30.4772   21.5405 C   0  0  2  0  0  0
  -24.8720  -28.9240   20.1096 C   0  0  0  0  0  0
  -22.7460  -29.4609   22.4921 C   0  0  0  0  0  0
  -18.0281  -28.1363   22.8483 C   0  0  0  0  0  0
  -24.1484  -36.7279   23.2645 C   0  0  0  0  0  0
  -25.9591  -30.7874   21.3691 C   0  0  0  0  0  0
  -26.0354  -29.4109   20.7170 C   0  0  0  0  0  0
  -27.2158  -28.6151   20.7165 C   0  0  0  0  0  0
  -26.0533  -26.8730   19.4944 C   0  0  0  0  0  0
  -24.8817  -27.6604   19.4934 C   0  0  0  0  0  0
  -23.6381  -29.8035   20.1574 C   0  0  0  0  0  0
  -25.4104  -36.3070   24.0338 C   0  0  1  0  0  0
  -20.5880  -28.3678   23.1268 C   0  0  2  0  0  0
  -20.6765  -26.9393   22.5409 C   0  0  0  0  0  0
  -19.5752  -26.6355   21.5206 C   0  0  0  0  0  0
  -18.1927  -26.7905   22.1614 C   0  0  0  0  0  0
  -19.1532  -28.8835   23.2877 C   0  0  0  0  0  0
  -18.9465  -30.1439   23.8898 C   0  0  0  0  0  0
  -17.6466  -30.6578   24.0556 C   0  0  0  0  0  0
  -25.9040  -34.9439   23.5107 C   0  0  0  0  0  0
  -16.5357  -29.9075   23.6332 C   0  0  0  0  0  0
  -16.7270  -28.6486   23.0360 C   0  0  0  0  0  0
  -26.4523  -31.6569   25.0721 C   0  0  0  0  0  0
  -25.3778  -31.3675   26.1464 C   0  0  0  0  0  0
  -27.0391  -30.3008   24.6168 C   0  0  0  0  0  0
  -27.6081  -32.4309   25.7493 C   0  0  0  0  0  0
  -27.5569  -37.1798   24.8470 C   0  0  0  0  0  0
  -21.4173  -29.3036   22.3659 N   0  0  0  0  0  0
  -26.4277  -37.3769   23.9418 N   0  0  0  0  0  0
  -24.6878  -31.0568   22.0954 N   0  0  0  0  0  0
  -23.4177  -28.8148   23.3005 O   0  0  0  0  0  0
  -28.3826  -26.5100   20.1999 O   0  0  0  0  0  0
  -26.5595  -34.8905   22.4667 O   0  0  0  0  0  0
  -23.5438  -32.1353   23.7351 O   0  0  0  0  0  0
  -27.2151  -17.7640   22.2706 C   0  0  0  0  0  0
  -28.1005  -16.6940   22.1191 C   0  0  0  0  0  0
  -27.4584  -18.9769   21.6015 C   0  0  0  0  0  0
  -29.2332  -16.7839   21.2918 C   0  0  0  0  0  0
  -28.6177  -19.0651   20.7917 C   0  0  0  0  0  0
  -24.3448  -19.4697   26.1798 C   0  0  0  0  0  0
  -26.7639  -20.4813   24.4831 C   0  0  0  0  0  0
  -30.7792  -21.1414   21.0303 C   0  0  0  0  0  0
  -22.8165  -20.7406   22.2152 C   0  0  0  0  0  0
  -24.1474  -20.4909   20.1388 C   0  0  0  0  0  0
  -24.6148  -22.4055   21.6847 C   0  0  0  0  0  0
  -24.5922  -19.1415   24.6999 C   0  0  0  0  0  0
  -27.8984  -23.8486   20.1507 C   0  0  0  0  0  0
  -28.7701  -22.7628   20.9403 C   0  0  0  0  0  0
  -28.5149  -25.1898   19.5445 C   0  0  0  0  0  0
  -25.3443  -20.2473   23.9190 C   0  0  2  0  0  0
  -29.4919  -21.4947   20.2661 C   0  0  2  0  0  0
  -25.2696  -20.0018   22.3673 C   0  0  1  0  0  0
  -24.2313  -20.9110   21.6229 C   0  0  0  0  0  0
  -29.4861  -17.9862   20.6320 N   0  0  0  0  0  0
  -26.5787  -20.0769   21.7041 N   0  0  0  0  0  0
  -29.9733  -15.5254   21.4030 N   0  0  0  0  0  0
  -28.6876  -20.2594   20.0026 N   0  0  0  0  0  0
  -31.4883  -12.5632   19.1447 H   0  0  0  0  0  0
  -30.4086  -11.4080   19.8710 H   0  0  0  0  0  0
  -29.7788  -11.7845   17.4769 H   0  0  0  0  0  0
  -29.6494  -13.5044   17.7576 H   0  0  0  0  0  0
  -27.8715  -11.3023   18.8570 H   0  0  0  0  0  0
  -27.3826  -12.6028   17.7994 H   0  0  0  0  0  0
  -27.6908  -14.2578   19.5611 H   0  0  0  0  0  0
  -28.7250  -11.9898   21.3334 H   0  0  0  0  0  0
  -28.4230  -13.6022   21.8833 H   0  0  0  0  0  0
  -25.2799   -9.5665   22.4736 H   0  0  0  0  0  0
  -24.0027   -7.4627   22.7452 H   0  0  0  0  0  0
  -21.0866   -8.8802   19.8922 H   0  0  0  0  0  0
  -22.3765  -10.9670   19.6141 H   0  0  0  0  0  0
  -21.2015   -7.6147   23.9743 H   0  0  0  0  0  0
  -21.1464   -6.0497   25.9084 H   0  0  0  0  0  0
  -22.0613   -2.7611   23.2828 H   0  0  0  0  0  0
  -22.4158  -11.9821   22.4700 H   0  0  0  0  0  0
  -21.1160  -13.1235   22.2654 H   0  0  0  0  0  0
  -24.6678  -15.8473   20.5102 H   0  0  0  0  0  0
  -26.2933  -15.6229   20.1103 H   0  0  0  0  0  0
  -26.7181  -32.5438   23.1098 H   0  0  0  0  0  0
  -25.0149  -33.9688   25.0480 H   0  0  0  0  0  0
  -22.7178  -31.2989   21.3922 H   0  0  0  0  0  0
  -23.3749  -35.9607   23.3286 H   0  0  0  0  0  0
  -24.3571  -36.8914   22.2059 H   0  0  0  0  0  0
  -23.7236  -37.6474   23.6675 H   0  0  0  0  0  0
  -26.0817  -31.5469   20.5956 H   0  0  0  0  0  0
  -26.8432  -30.8458   21.9930 H   0  0  0  0  0  0
  -28.1075  -28.9820   21.2052 H   0  0  0  0  0  0
  -26.0102  -25.8999   19.0272 H   0  0  0  0  0  0
  -23.9877  -27.2772   19.0217 H   0  0  0  0  0  0
  -23.7561  -30.5769   19.3970 H   0  0  0  0  0  0
  -22.7595  -29.2288   19.8583 H   0  0  0  0  0  0
  -25.1285  -36.1914   25.0830 H   0  0  0  0  0  0
  -20.9977  -28.3260   24.1388 H   0  0  0  0  0  0
  -20.5641  -26.2292   23.3614 H   0  0  0  0  0  0
  -21.6634  -26.7387   22.1227 H   0  0  0  0  0  0
  -19.6902  -25.6261   21.1251 H   0  0  0  0  0  0
  -19.6688  -27.3148   20.6725 H   0  0  0  0  0  0
  -17.4191  -26.6657   21.4018 H   0  0  0  0  0  0
  -18.0321  -26.0041   22.9011 H   0  0  0  0  0  0
  -19.7944  -30.7251   24.2265 H   0  0  0  0  0  0
  -17.5026  -31.6260   24.5159 H   0  0  0  0  0  0
  -15.5361  -30.2984   23.7656 H   0  0  0  0  0  0
  -15.8664  -28.0813   22.7082 H   0  0  0  0  0  0
  -24.5988  -30.6967   25.7820 H   0  0  0  0  0  0
  -24.8930  -32.2816   26.4898 H   0  0  0  0  0  0
  -25.8151  -30.8885   27.0236 H   0  0  0  0  0  0
  -26.2964  -29.6714   24.1251 H   0  0  0  0  0  0
  -27.4172  -29.7304   25.4666 H   0  0  0  0  0  0
  -27.8789  -30.4312   23.9337 H   0  0  0  0  0  0
  -27.2712  -33.3639   26.2022 H   0  0  0  0  0  0
  -28.3928  -32.6805   25.0340 H   0  0  0  0  0  0
  -28.0706  -31.8455   26.5454 H   0  0  0  0  0  0
  -28.2587  -38.0097   24.7516 H   0  0  0  0  0  0
  -28.1065  -36.2624   24.6299 H   0  0  0  0  0  0
  -27.2280  -37.1450   25.8873 H   0  0  0  0  0  0
  -20.9341  -29.8777   21.6892 H   0  0  0  0  0  0
  -26.0151  -38.2836   24.1441 H   0  0  0  0  0  0
  -26.3600  -17.6238   22.9092 H   0  0  0  0  0  0
  -27.8706  -15.7912   22.6681 H   0  0  0  0  0  0
  -23.7437  -18.6914   26.6517 H   0  0  0  0  0  0
  -23.8118  -20.4140   26.2909 H   0  0  0  0  0  0
  -25.2761  -19.5389   26.7412 H   0  0  0  0  0  0
  -26.7330  -20.7871   25.5282 H   0  0  0  0  0  0
  -27.2745  -21.2828   23.9494 H   0  0  0  0  0  0
  -27.3813  -19.5866   24.4211 H   0  0  0  0  0  0
  -31.4437  -22.0027   21.1066 H   0  0  0  0  0  0
  -31.3365  -20.3509   20.5249 H   0  0  0  0  0  0
  -30.5634  -20.8000   22.0431 H   0  0  0  0  0  0
  -22.0790  -21.3162   21.6545 H   0  0  0  0  0  0
  -22.7526  -21.0797   23.2487 H   0  0  0  0  0  0
  -22.4979  -19.6980   22.1892 H   0  0  0  0  0  0
  -23.3784  -21.0509   19.6051 H   0  0  0  0  0  0
  -23.9070  -19.4318   20.0411 H   0  0  0  0  0  0
  -25.0861  -20.6618   19.6116 H   0  0  0  0  0  0
  -23.9050  -23.0183   21.1281 H   0  0  0  0  0  0
  -25.5951  -22.5799   21.2498 H   0  0  0  0  0  0
  -24.6341  -22.7959   22.7021 H   0  0  0  0  0  0
  -23.6233  -18.9623   24.2335 H   0  0  0  0  0  0
  -25.1266  -18.1951   24.6323 H   0  0  0  0  0  0
  -27.1119  -24.1826   20.8264 H   0  0  0  0  0  0
  -27.3692  -23.3251   19.3540 H   0  0  0  0  0  0
  -28.1539  -22.3828   21.7546 H   0  0  0  0  0  0
  -29.5327  -23.3438   21.4594 H   0  0  0  0  0  0
  -28.1530  -25.2975   18.5208 H   0  0  0  0  0  0
  -29.5853  -25.0240   19.4209 H   0  0  0  0  0  0
  -24.8143  -21.1709   24.1381 H   0  0  0  0  0  0
  -29.8185  -21.8284   19.2799 H   0  0  0  0  0  0
  -24.9001  -18.9875   22.2141 H   0  0  0  0  0  0
  -26.9605  -21.0046   21.5723 H   0  0  0  0  0  0
  -29.5091  -14.9495   22.0850 H   0  0  0  0  0  0
  -27.7125  -20.5302   19.9147 H   0  0  0  0  0  0
  1 25  1  0  0  0
  1 30  2  0  0  0
  1 92  1  0  0  0
  2  3  1  0  0  0
  2 25  1  0  0  0
  2 94  1  0  0  0
  2 95  1  0  0  0
  3  4  1  0  0  0
  3 96  1  0  0  0
  3 97  1  0  0  0
  4  5  1  0  0  0
  4 98  1  0  0  0
  4 99  1  0  0  0
  5  6  1  0  0  0
  5 26  1  0  0  0
  5100  1  0  0  0
  6 25  1  0  0  0
  6101  1  0  0  0
  6102  1  0  0  0
  7  8  2  0  0  0
  7 26  1  0  0  0
  7 29  1  0  0  0
  8  9  1  0  0  0
  8 22  1  0  0  0
  9 10  1  0  0  0
  9 27  2  0  0  0
 10 11  2  0  0  0
 10 15  1  0  0  0
 11 12  1  0  0  0
 11103  1  0  0  0
 12 13  2  0  0  0
 12104  1  0  0  0
 13 14  1  0  0  0
 13 31  1  0  0  0
 14 15  2  0  0  0
 14105  1  0  0  0
 15106  1  0  0  0
 16 17  2  0  0  0
 16 21  1  0  0  0
 16 31  1  0  0  0
 17 18  1  0  0  0
 17107  1  0  0  0
 18 19  2  0  0  0
 18108  1  0  0  0
 19 20  1  0  0  0
 19 24  1  0  0  0
 20 21  2  0  0  0
 20109  1  0  0  0
 21 23  1  0  0  0
 22 28  1  0  0  0
 22 32  2  0  0  0
 26 27  1  0  0  0
 28110  1  0  0  0
 28111  1  0  0  0
 29112  1  0  0  0
 29113  1  0  0  0
 33 34  1  0  0  0
 33 66  1  0  0  0
 33 70  2  0  0  0
 34 36  1  0  0  0
 34 59  1  0  0  0
 34114  1  0  0  0
 35 44  2  0  0  0
 35 45  1  0  0  0
 35 68  1  0  0  0
 36 56  1  0  0  0
 36115  1  0  0  0
 37 39  1  0  0  0
 37 47  1  0  0  0
 37 66  1  0  0  0
 37116  1  0  0  0
 38 43  2  0  0  0
 38 46  1  0  0  0
 38 47  1  0  0  0
 39 64  1  0  0  0
 39 67  2  0  0  0
 40 52  1  0  0  0
 40 53  2  0  0  0
 40 58  1  0  0  0
 41117  1  0  0  0
 41118  1  0  0  0
 41119  1  0  0  0
 41 48  1  0  0  0
 42 43  1  0  0  0
 42 66  1  0  0  0
 42120  1  0  0  0
 42121  1  0  0  0
 43 44  1  0  0  0
 44122  1  0  0  0
 45 46  2  0  0  0
 45123  1  0  0  0
 46124  1  0  0  0
 47125  1  0  0  0
 47126  1  0  0  0
 48 56  1  0  0  0
 48 65  1  0  0  0
 48127  1  0  0  0
 49 50  1  0  0  0
 49 53  1  0  0  0
 49 64  1  0  0  0
 49128  1  0  0  0
 50 51  1  0  0  0
 50129  1  0  0  0
 50130  1  0  0  0
 51 52  1  0  0  0
 51131  1  0  0  0
 51132  1  0  0  0
 52133  1  0  0  0
 52134  1  0  0  0
 53 54  1  0  0  0
 54 55  2  0  0  0
 54135  1  0  0  0
 55 57  1  0  0  0
 55136  1  0  0  0
 56 69  2  0  0  0
 57 58  2  0  0  0
 57137  1  0  0  0
 58138  1  0  0  0
 59 60  1  0  0  0
 59 61  1  0  0  0
 59 62  1  0  0  0
 60139  1  0  0  0
 60140  1  0  0  0
 60141  1  0  0  0
 61142  1  0  0  0
 61143  1  0  0  0
 61144  1  0  0  0
 62145  1  0  0  0
 62146  1  0  0  0
 62147  1  0  0  0
 63 65  1  0  0  0
 63148  1  0  0  0
 63149  1  0  0  0
 63150  1  0  0  0
 64151  1  0  0  0
 65152  1  0  0  0
 68 85  1  0  0  0
 71 72  2  0  0  0
 71 73  1  0  0  0
 71153  1  0  0  0
 72 74  1  0  0  0
 72154  1  0  0  0
 73 75  2  0  0  0
 73 91  1  0  0  0
 74 90  2  0  0  0
 74 92  1  0  0  0
 75 90  1  0  0  0
 75 93  1  0  0  0
 76 82  1  0  0  0
 76155  1  0  0  0
 76156  1  0  0  0
 76157  1  0  0  0
 77158  1  0  0  0
 77159  1  0  0  0
 77160  1  0  0  0
 77 86  1  0  0  0
 78161  1  0  0  0
 78162  1  0  0  0
 78163  1  0  0  0
 78 87  1  0  0  0
 79164  1  0  0  0
 79165  1  0  0  0
 79166  1  0  0  0
 79 89  1  0  0  0
 80 89  1  0  0  0
 80167  1  0  0  0
 80168  1  0  0  0
 80169  1  0  0  0
 81 89  1  0  0  0
 81170  1  0  0  0
 81171  1  0  0  0
 81172  1  0  0  0
 82 86  1  0  0  0
 82173  1  0  0  0
 82174  1  0  0  0
 83 84  1  0  0  0
 83 85  1  0  0  0
 83175  1  0  0  0
 83176  1  0  0  0
 84 87  1  0  0  0
 84177  1  0  0  0
 84178  1  0  0  0
 85179  1  0  0  0
 85180  1  0  0  0
 86 88  1  0  0  0
 86181  1  0  0  0
 87 93  1  0  0  0
 87182  1  0  0  0
 88 89  1  0  0  0
 88 91  1  0  0  0
 88183  1  0  0  0
 91184  1  0  0  0
 92185  1  0  0  0
 93186  1  0  0  0
M  ISO  4   1 100  68 101  85 101  92 100
M  END
> <chiral flag>
0

> <version>
0

> <s_m_source_file>
/data/baiqing/PycharmProjects/Reinvent-master-3.2/result/LINK_invent/BTK/process_docking_weight1_custom_product_contain_oxygen_bond_distance_aromatic_linkinvent_7_9_3/rearranged_h_0194.sdf

> <i_m_source_file_index>
35

> <r_mmod_Potential_Energy-OPLS-2005>
-7.67326641082764

> <r_mmod_Stretch_Energy-OPLS-2005>
97.6859970092773

> <r_mmod_Bend_Energy-OPLS-2005>
270.738616943359

> <r_mmod_Torsional_Energy-OPLS-2005>
314.760467529297

> <r_mmod_Improper_Torsional_Energy-OPLS-2005>
14.056321144104

> <r_mmod_Van_der_Waal_Energy-OPLS-2005>
142.344024658203

> <r_mmod_Electrostatic_Energy-OPLS-2005>
-681.104919433594

> <r_mmod_Solvation_Energy-OPLS-2005>
-218.08918762207

> <b_mmod_Minimization_Converged-OPLS-2005>
0

> <r_mmod_RMS_Derivative-OPLS-2005>
1.88094592094421

$$$$
35
                    3D
 Structure written by MMmdl.
156164  0  0  1  0            999 V2000
  -30.6641  -14.5235   20.5097 C   0  0  0  0  0  0
  -30.4177  -12.3047   19.4669 C   0  0  0  0  0  0
  -29.5092  -12.4824   18.2315 C   0  0  0  0  0  0
  -28.0232  -12.3563   18.6248 C   0  0  0  0  0  0
  -27.6551  -13.2129   19.8677 C   0  0  2  0  0  0
  -28.6897  -13.0280   21.0017 C   0  0  0  0  0  0
  -25.2553  -13.8180   20.5674 C   0  0  0  0  0  0
  -24.1824  -13.0434   20.9177 C   0  0  0  0  0  0
  -24.6400  -11.6906   20.8719 C   0  0  0  0  0  0
  -23.9074  -10.4285   21.0379 C   0  0  0  0  0  0
  -24.3627   -9.4203   21.9154 C   0  0  0  0  0  0
  -23.6309   -8.2234   22.0724 C   0  0  0  0  0  0
  -22.4287   -8.0280   21.3520 C   0  0  0  0  0  0
  -21.9921   -9.0248   20.4610 C   0  0  0  0  0  0
  -22.7241  -10.2130   20.3015 C   0  0  0  0  0  0
  -21.6859   -6.0736   22.5280 C   0  0  0  0  0  0
  -21.4014   -6.5633   23.8219 C   0  0  0  0  0  0
  -21.3673   -5.6781   24.9176 C   0  0  0  0  0  0
  -21.6044   -4.3034   24.7208 C   0  0  0  0  0  0
  -21.8817   -3.8132   23.4324 C   0  0  0  0  0  0
  -21.9184   -4.6967   22.3390 C   0  0  0  0  0  0
  -22.7828  -13.5208   21.1849 C   0  0  0  0  0  0
  -22.1643   -4.2158   21.0957 F   0  0  0  0  0  0
  -21.5645   -3.4516   25.7717 F   0  0  0  0  0  0
  -30.0253  -13.3207   20.4562 N   0  0  0  0  0  0
  -26.2981  -12.9350   20.3297 N   0  0  0  0  0  0
  -25.9323  -11.6512   20.5720 N   0  0  0  0  0  0
  -22.0488  -12.8217   22.0442 N   0  0  0  0  0  0
  -25.4290  -15.1910   20.4145 N   0  0  0  0  0  0
  -31.8175  -14.6758   20.0857 O   0  0  0  0  0  0
  -21.6630   -6.8888   21.4243 O   0  0  0  0  0  0
  -22.3517  -14.5508   20.6710 O   0  0  0  0  0  0
  -24.6137  -31.8666   23.2042 C   0  0  0  0  0  0
  -25.9016  -32.4823   23.8355 C   0  0  1  0  0  0
  -27.2360  -27.4266   20.1088 C   0  0  0  0  0  0
  -25.5834  -33.8615   24.2260 N   0  0  0  0  0  0
  -23.4059  -30.4855   21.5449 C   0  0  2  0  0  0
  -24.8535  -28.9473   20.1164 C   0  0  0  0  0  0
  -22.7410  -29.4644   22.4964 C   0  0  0  0  0  0
  -18.0257  -28.1404   22.8473 C   0  0  0  0  0  0
  -24.1474  -36.7342   23.2643 C   0  0  0  0  0  0
  -25.9350  -30.8343   21.3557 C   0  0  0  0  0  0
  -26.0164  -29.4670   20.7032 C   0  0  0  0  0  0
  -27.2159  -28.7181   20.6848 C   0  0  0  0  0  0
  -26.0592  -26.9205   19.5214 C   0  0  0  0  0  0
  -24.8685  -27.6718   19.5244 C   0  0  0  0  0  0
  -23.6158  -29.8119   20.1629 C   0  0  0  0  0  0
  -25.4099  -36.3119   24.0321 C   0  0  1  0  0  0
  -20.5852  -28.3681   23.1307 C   0  0  2  0  0  0
  -20.6748  -26.9417   22.5424 C   0  0  0  0  0  0
  -19.5732  -26.6387   21.5222 C   0  0  0  0  0  0
  -18.1908  -26.7934   22.1626 C   0  0  0  0  0  0
  -19.1511  -28.8853   23.2882 C   0  0  0  0  0  0
  -18.9456  -30.1457   23.8890 C   0  0  0  0  0  0
  -17.6469  -30.6603   24.0577 C   0  0  0  0  0  0
  -25.9033  -34.9485   23.5106 C   0  0  0  0  0  0
  -16.5353  -29.9128   23.6327 C   0  0  0  0  0  0
  -16.7251  -28.6559   23.0317 C   0  0  0  0  0  0
  -26.4403  -31.6629   25.0719 C   0  0  0  0  0  0
  -25.3650  -31.3812   26.1473 C   0  0  0  0  0  0
  -27.0220  -30.3038   24.6167 C   0  0  0  0  0  0
  -27.5934  -32.4390   25.7503 C   0  0  0  0  0  0
  -27.5580  -37.1818   24.8449 C   0  0  0  0  0  0
  -21.4137  -29.3038   22.3702 N   0  0  0  0  0  0
  -26.4277  -37.3819   23.9414 N   0  0  0  0  0  0
  -24.6705  -31.0763   22.0946 N   0  0  0  0  0  0
  -23.4160  -28.8203   23.3034 O   0  0  0  0  0  0
  -28.3790  -26.6561   20.1219 O   0  0  0  0  0  0
  -26.5657  -34.8956   22.4704 O   0  0  0  0  0  0
  -23.5314  -32.1405   23.7427 O   0  0  0  0  0  0
  -29.5345  -16.7046   18.7531 C   0  0  0  0  0  0
  -29.2110  -17.8705   18.0596 C   0  0  0  0  0  0
  -29.6998  -16.7875   20.1535 C   0  0  0  0  0  0
  -29.2356  -19.0641   19.9894 C   0  0  0  0  0  0
  -28.6540  -24.1523   20.0038 C   0  0  0  0  0  0
  -28.9352  -21.5631   19.8680 C   0  0  0  0  0  0
  -28.2680  -25.4073   20.8394 C   0  0  0  0  0  0
  -28.6871  -22.7958   20.7837 C   0  0  1  0  0  0
  -29.0590  -19.0434   18.6761 N   0  0  0  0  0  0
  -29.5290  -18.0043   20.7539 N   0  0  0  0  0  0
  -28.9841  -17.8660   16.6925 N   0  0  0  0  0  0
  -29.9099  -15.5780   20.8977 N   0  0  0  0  0  0
  -29.0804  -20.2959   20.6040 N   0  0  0  0  0  0
  -29.7516  -22.8128   21.7242 O   0  0  0  0  0  0
  -31.4706  -12.3788   19.1887 H   0  0  0  0  0  0
  -30.2920  -11.3037   19.8896 H   0  0  0  0  0  0
  -29.7607  -11.7408   17.4704 H   0  0  0  0  0  0
  -29.6949  -13.4556   17.7768 H   0  0  0  0  0  0
  -27.8265  -11.3031   18.8309 H   0  0  0  0  0  0
  -27.3861  -12.6215   17.7781 H   0  0  0  0  0  0
  -27.6863  -14.2520   19.5458 H   0  0  0  0  0  0
  -28.6639  -12.0023   21.3737 H   0  0  0  0  0  0
  -28.4487  -13.6598   21.8585 H   0  0  0  0  0  0
  -25.2774   -9.5683   22.4731 H   0  0  0  0  0  0
  -24.0020   -7.4611   22.7445 H   0  0  0  0  0  0
  -21.0847   -8.8738   19.8930 H   0  0  0  0  0  0
  -22.3678  -10.9653   19.6115 H   0  0  0  0  0  0
  -21.2007   -7.6142   23.9733 H   0  0  0  0  0  0
  -21.1509   -6.0493   25.9085 H   0  0  0  0  0  0
  -22.0589   -2.7604   23.2799 H   0  0  0  0  0  0
  -22.4094  -11.9877   22.4840 H   0  0  0  0  0  0
  -21.1097  -13.1217   22.2623 H   0  0  0  0  0  0
  -24.6674  -15.8502   20.5348 H   0  0  0  0  0  0
  -26.2887  -15.6293   20.1105 H   0  0  0  0  0  0
  -26.7107  -32.5534   23.1141 H   0  0  0  0  0  0
  -24.9836  -33.9753   25.0300 H   0  0  0  0  0  0
  -22.6967  -31.3020   21.3963 H   0  0  0  0  0  0
  -23.3731  -35.9679   23.3289 H   0  0  0  0  0  0
  -24.3573  -36.8981   22.2062 H   0  0  0  0  0  0
  -23.7224  -37.6531   23.6691 H   0  0  0  0  0  0
  -26.0450  -31.5988   20.5843 H   0  0  0  0  0  0
  -26.8240  -30.8880   21.9743 H   0  0  0  0  0  0
  -28.1182  -29.1148   21.1307 H   0  0  0  0  0  0
  -26.0623  -25.9341   19.0801 H   0  0  0  0  0  0
  -23.9739  -27.2531   19.0842 H   0  0  0  0  0  0
  -23.7279  -30.5803   19.3967 H   0  0  0  0  0  0
  -22.7430  -29.2261   19.8686 H   0  0  0  0  0  0
  -25.1277  -36.1962   25.0812 H   0  0  0  0  0  0
  -20.9933  -28.3265   24.1432 H   0  0  0  0  0  0
  -20.5646  -26.2312   23.3625 H   0  0  0  0  0  0
  -21.6625  -26.7461   22.1227 H   0  0  0  0  0  0
  -19.6907  -25.6302   21.1248 H   0  0  0  0  0  0
  -19.6669  -27.3202   20.6756 H   0  0  0  0  0  0
  -17.4180  -26.6648   21.4033 H   0  0  0  0  0  0
  -18.0319  -26.0093   22.9039 H   0  0  0  0  0  0
  -19.7950  -30.7258   24.2250 H   0  0  0  0  0  0
  -17.5055  -31.6274   24.5212 H   0  0  0  0  0  0
  -15.5369  -30.3057   23.7670 H   0  0  0  0  0  0
  -15.8633  -28.0925   22.6991 H   0  0  0  0  0  0
  -24.5730  -30.7261   25.7834 H   0  0  0  0  0  0
  -24.8958  -32.3020   26.4950 H   0  0  0  0  0  0
  -25.7955  -30.8932   27.0224 H   0  0  0  0  0  0
  -26.2808  -29.6867   24.1078 H   0  0  0  0  0  0
  -27.3759  -29.7221   25.4692 H   0  0  0  0  0  0
  -27.8731  -30.4293   23.9472 H   0  0  0  0  0  0
  -27.2443  -33.3612   26.2166 H   0  0  0  0  0  0
  -28.3689  -32.7106   25.0331 H   0  0  0  0  0  0
  -28.0675  -31.8505   26.5367 H   0  0  0  0  0  0
  -28.2584  -38.0131   24.7522 H   0  0  0  0  0  0
  -28.1072  -36.2661   24.6212 H   0  0  0  0  0  0
  -27.2314  -37.1402   25.8855 H   0  0  0  0  0  0
  -20.9327  -29.8733   21.6880 H   0  0  0  0  0  0
  -26.0151  -38.2878   24.1453 H   0  0  0  0  0  0
  -29.6263  -15.7657   18.2273 H   0  0  0  0  0  0
  -29.6217  -24.3221   19.5279 H   0  0  0  0  0  0
  -27.9361  -24.0608   19.1880 H   0  0  0  0  0  0
  -29.8360  -21.7127   19.2684 H   0  0  0  0  0  0
  -28.1075  -21.4673   19.1619 H   0  0  0  0  0  0
  -28.9288  -25.4884   21.7034 H   0  0  0  0  0  0
  -27.2684  -25.2629   21.2546 H   0  0  0  0  0  0
  -27.7413  -22.6657   21.3183 H   0  0  0  0  0  0
  -29.2959  -17.0827   16.1344 H   0  0  0  0  0  0
  -28.9576  -18.7517   16.2010 H   0  0  0  0  0  0
  -29.1503  -15.3399   21.5145 H   0  0  0  0  0  0
  -29.3931  -20.3761   21.5634 H   0  0  0  0  0  0
  -29.5611  -23.4702   22.3857 H   0  0  0  0  0  0
  1 25  1  0  0  0
  1 30  2  0  0  0
  1 82  1  0  0  0
  2  3  1  0  0  0
  2 25  1  0  0  0
  2 85  1  0  0  0
  2 86  1  0  0  0
  3  4  1  0  0  0
  3 87  1  0  0  0
  3 88  1  0  0  0
  4  5  1  0  0  0
  4 89  1  0  0  0
  4 90  1  0  0  0
  5  6  1  0  0  0
  5 26  1  0  0  0
  5 91  1  0  0  0
  6 25  1  0  0  0
  6 92  1  0  0  0
  6 93  1  0  0  0
  7  8  2  0  0  0
  7 26  1  0  0  0
  7 29  1  0  0  0
  8  9  1  0  0  0
  8 22  1  0  0  0
  9 10  1  0  0  0
  9 27  2  0  0  0
 10 11  2  0  0  0
 10 15  1  0  0  0
 11 12  1  0  0  0
 11 94  1  0  0  0
 12 13  2  0  0  0
 12 95  1  0  0  0
 13 14  1  0  0  0
 13 31  1  0  0  0
 14 15  2  0  0  0
 14 96  1  0  0  0
 15 97  1  0  0  0
 16 17  2  0  0  0
 16 21  1  0  0  0
 16 31  1  0  0  0
 17 18  1  0  0  0
 17 98  1  0  0  0
 18 19  2  0  0  0
 18 99  1  0  0  0
 19 20  1  0  0  0
 19 24  1  0  0  0
 20 21  2  0  0  0
 20100  1  0  0  0
 21 23  1  0  0  0
 22 28  1  0  0  0
 22 32  2  0  0  0
 26 27  1  0  0  0
 28101  1  0  0  0
 28102  1  0  0  0
 29103  1  0  0  0
 29104  1  0  0  0
 33 34  1  0  0  0
 33 66  1  0  0  0
 33 70  2  0  0  0
 34 36  1  0  0  0
 34 59  1  0  0  0
 34105  1  0  0  0
 35 44  2  0  0  0
 35 45  1  0  0  0
 35 68  1  0  0  0
 36 56  1  0  0  0
 36106  1  0  0  0
 37 39  1  0  0  0
 37 47  1  0  0  0
 37 66  1  0  0  0
 37107  1  0  0  0
 38 43  2  0  0  0
 38 46  1  0  0  0
 38 47  1  0  0  0
 39 64  1  0  0  0
 39 67  2  0  0  0
 40 52  1  0  0  0
 40 53  2  0  0  0
 40 58  1  0  0  0
 41108  1  0  0  0
 41109  1  0  0  0
 41110  1  0  0  0
 41 48  1  0  0  0
 42 43  1  0  0  0
 42 66  1  0  0  0
 42111  1  0  0  0
 42112  1  0  0  0
 43 44  1  0  0  0
 44113  1  0  0  0
 45 46  2  0  0  0
 45114  1  0  0  0
 46115  1  0  0  0
 47116  1  0  0  0
 47117  1  0  0  0
 48 56  1  0  0  0
 48 65  1  0  0  0
 48118  1  0  0  0
 49 50  1  0  0  0
 49 53  1  0  0  0
 49 64  1  0  0  0
 49119  1  0  0  0
 50 51  1  0  0  0
 50120  1  0  0  0
 50121  1  0  0  0
 51 52  1  0  0  0
 51122  1  0  0  0
 51123  1  0  0  0
 52124  1  0  0  0
 52125  1  0  0  0
 53 54  1  0  0  0
 54 55  2  0  0  0
 54126  1  0  0  0
 55 57  1  0  0  0
 55127  1  0  0  0
 56 69  2  0  0  0
 57 58  2  0  0  0
 57128  1  0  0  0
 58129  1  0  0  0
 59 60  1  0  0  0
 59 61  1  0  0  0
 59 62  1  0  0  0
 60130  1  0  0  0
 60131  1  0  0  0
 60132  1  0  0  0
 61133  1  0  0  0
 61134  1  0  0  0
 61135  1  0  0  0
 62136  1  0  0  0
 62137  1  0  0  0
 62138  1  0  0  0
 63 65  1  0  0  0
 63139  1  0  0  0
 63140  1  0  0  0
 63141  1  0  0  0
 64142  1  0  0  0
 65143  1  0  0  0
 68 77  1  0  0  0
 71 72  2  0  0  0
 71 73  1  0  0  0
 71144  1  0  0  0
 72 79  1  0  0  0
 72 81  1  0  0  0
 73 80  2  0  0  0
 73 82  1  0  0  0
 74 79  2  0  0  0
 74 80  1  0  0  0
 74 83  1  0  0  0
 75 77  1  0  0  0
 75 78  1  0  0  0
 75145  1  0  0  0
 75146  1  0  0  0
 76 78  1  0  0  0
 76 83  1  0  0  0
 76147  1  0  0  0
 76148  1  0  0  0
 77149  1  0  0  0
 77150  1  0  0  0
 78 84  1  0  0  0
 78151  1  0  0  0
 81152  1  0  0  0
 81153  1  0  0  0
 82154  1  0  0  0
 83155  1  0  0  0
 84156  1  0  0  0
M  ISO  4   1 100  68 101  77 101  82 100
M  END
> <chiral flag>
0

> <version>
0

> <s_m_source_file>
/data/baiqing/PycharmProjects/Reinvent-master-3.2/result/LINK_invent/BTK/process_docking_weight1_custom_product_contain_oxygen_bond_distance_aromatic_linkinvent_7_9_3/rearranged_h_0194.sdf

> <i_m_source_file_index>
36

> <r_mmod_Potential_Energy-OPLS-2005>
-659.509216308594

> <r_mmod_Stretch_Energy-OPLS-2005>
41.4657402038574

> <r_mmod_Bend_Energy-OPLS-2005>
104.924522399902

> <r_mmod_Torsional_Energy-OPLS-2005>
285.730255126953

> <r_mmod_Improper_Torsional_Energy-OPLS-2005>
9.49720287322998

> <r_mmod_Van_der_Waal_Energy-OPLS-2005>
157.215057373047

> <r_mmod_Electrostatic_Energy-OPLS-2005>
-1012.04370117188

> <r_mmod_Solvation_Energy-OPLS-2005>
-265.819396972656

> <b_mmod_Minimization_Converged-OPLS-2005>
0

> <r_mmod_RMS_Derivative-OPLS-2005>
3.72010946273804

$$$$
36
                    3D
 Structure written by MMmdl.
163171  0  0  1  0            999 V2000
  -30.6599  -14.5545   20.6342 C   0  0  0  0  0  0
  -30.4439  -12.3741   19.4399 C   0  0  0  0  0  0
  -29.5093  -12.5446   18.2202 C   0  0  0  0  0  0
  -28.0305  -12.3776   18.6234 C   0  0  0  0  0  0
  -27.6644  -13.2087   19.8807 C   0  0  2  0  0  0
  -28.7042  -12.9827   21.0051 C   0  0  0  0  0  0
  -25.2540  -13.8116   20.5555 C   0  0  0  0  0  0
  -24.1834  -13.0410   20.9165 C   0  0  0  0  0  0
  -24.6396  -11.6885   20.8740 C   0  0  0  0  0  0
  -23.9050  -10.4277   21.0408 C   0  0  0  0  0  0
  -24.3591   -9.4194   21.9185 C   0  0  0  0  0  0
  -23.6258   -8.2229   22.0752 C   0  0  0  0  0  0
  -22.4246   -8.0261   21.3537 C   0  0  0  0  0  0
  -21.9877   -9.0241   20.4648 C   0  0  0  0  0  0
  -22.7215  -10.2114   20.3062 C   0  0  0  0  0  0
  -21.6845   -6.0703   22.5261 C   0  0  0  0  0  0
  -21.4013   -6.5611   23.8197 C   0  0  0  0  0  0
  -21.3669   -5.6768   24.9162 C   0  0  0  0  0  0
  -21.6055   -4.3032   24.7220 C   0  0  0  0  0  0
  -21.8823   -3.8120   23.4343 C   0  0  0  0  0  0
  -21.9189   -4.6936   22.3388 C   0  0  0  0  0  0
  -22.7872  -13.5242   21.1823 C   0  0  0  0  0  0
  -22.1663   -4.2119   21.0968 F   0  0  0  0  0  0
  -21.5633   -3.4524   25.7739 F   0  0  0  0  0  0
  -30.0382  -13.3397   20.4821 N   0  0  0  0  0  0
  -26.3019  -12.9314   20.3329 N   0  0  0  0  0  0
  -25.9334  -11.6482   20.5779 N   0  0  0  0  0  0
  -22.0488  -12.8258   22.0380 N   0  0  0  0  0  0
  -25.4137  -15.1803   20.3703 N   0  0  0  0  0  0
  -31.7085  -14.8248   20.0265 O   0  0  0  0  0  0
  -21.6628   -6.8853   21.4225 O   0  0  0  0  0  0
  -22.3601  -14.5567   20.6667 O   0  0  0  0  0  0
  -24.6190  -31.8635   23.2052 C   0  0  0  0  0  0
  -25.9055  -32.4800   23.8376 C   0  0  1  0  0  0
  -27.2439  -27.3858   20.1157 C   0  0  0  0  0  0
  -25.5887  -33.8600   24.2309 N   0  0  0  0  0  0
  -23.4112  -30.4825   21.5456 C   0  0  2  0  0  0
  -24.8615  -28.9322   20.1246 C   0  0  0  0  0  0
  -22.7425  -29.4637   22.4968 C   0  0  0  0  0  0
  -18.0280  -28.1381   22.8487 C   0  0  0  0  0  0
  -24.1476  -36.7297   23.2643 C   0  0  0  0  0  0
  -25.9435  -30.8137   21.3653 C   0  0  0  0  0  0
  -26.0230  -29.4398   20.7205 C   0  0  0  0  0  0
  -27.2187  -28.6759   20.7082 C   0  0  0  0  0  0
  -26.0638  -26.8969   19.5208 C   0  0  0  0  0  0
  -24.8778  -27.6603   19.5223 C   0  0  0  0  0  0
  -23.6253  -29.8063   20.1649 C   0  0  0  0  0  0
  -25.4098  -36.3097   24.0340 C   0  0  1  0  0  0
  -20.5871  -28.3675   23.1302 C   0  0  2  0  0  0
  -20.6766  -26.9405   22.5417 C   0  0  0  0  0  0
  -19.5746  -26.6389   21.5207 C   0  0  0  0  0  0
  -18.1924  -26.7928   22.1619 C   0  0  0  0  0  0
  -19.1525  -28.8843   23.2897 C   0  0  0  0  0  0
  -18.9455  -30.1439   23.8921 C   0  0  0  0  0  0
  -17.6458  -30.6582   24.0570 C   0  0  0  0  0  0
  -25.9026  -34.9463   23.5124 C   0  0  0  0  0  0
  -16.5352  -29.9089   23.6319 C   0  0  0  0  0  0
  -16.7267  -28.6504   23.0346 C   0  0  0  0  0  0
  -26.4476  -31.6592   25.0721 C   0  0  0  0  0  0
  -25.3740  -31.3701   26.1470 C   0  0  0  0  0  0
  -27.0317  -30.3034   24.6114 C   0  0  0  0  0  0
  -27.6050  -32.4317   25.7477 C   0  0  0  0  0  0
  -27.5572  -37.1800   24.8469 C   0  0  0  0  0  0
  -21.4150  -29.3033   22.3700 N   0  0  0  0  0  0
  -26.4281  -37.3785   23.9413 N   0  0  0  0  0  0
  -24.6760  -31.0693   22.0967 N   0  0  0  0  0  0
  -23.4169  -28.8178   23.3039 O   0  0  0  0  0  0
  -28.4109  -26.6439   20.0330 O   0  0  0  0  0  0
  -26.5594  -34.8927   22.4689 O   0  0  0  0  0  0
  -23.5365  -32.1405   23.7410 O   0  0  0  0  0  0
  -27.8787  -19.0486   21.2919 C   0  0  0  0  0  0
  -28.0358  -16.6733   21.7300 C   0  0  0  0  0  0
  -27.2731  -17.8520   21.6946 C   0  0  0  0  0  0
  -29.2438  -19.0704   20.9368 C   0  0  0  0  0  0
  -29.3967  -16.6630   21.3403 C   0  0  0  0  0  0
  -30.9709  -20.7461   21.6925 C   0  0  0  0  0  0
  -30.5046  -23.1857   19.2611 C   0  0  0  0  0  0
  -28.3118  -24.0466   20.2117 C   0  0  0  0  0  0
  -28.5496  -25.4619   20.8645 C   0  0  0  0  0  0
  -29.9377  -20.4257   20.5960 C   0  0  2  0  0  0
  -29.4708  -22.9831   20.3827 C   0  0  1  0  0  0
  -29.9416  -17.8776   20.9595 N   0  3  0  0  0  0
  -25.9329  -17.8312   22.0811 N   0  0  0  0  0  0
  -30.0898  -15.3990   21.5339 N   0  0  0  0  0  0
  -28.9934  -21.5722   20.4069 N   0  0  0  0  0  0
  -31.4849  -12.5069   19.1383 H   0  0  0  0  0  0
  -30.3812  -11.3564   19.8281 H   0  0  0  0  0  0
  -29.7682  -11.8279   17.4395 H   0  0  0  0  0  0
  -29.6596  -13.5322   17.7818 H   0  0  0  0  0  0
  -27.8489  -11.3186   18.8107 H   0  0  0  0  0  0
  -27.3859  -12.6556   17.7886 H   0  0  0  0  0  0
  -27.7078  -14.2586   19.5897 H   0  0  0  0  0  0
  -28.7013  -11.9344   21.3077 H   0  0  0  0  0  0
  -28.4252  -13.5296   21.9052 H   0  0  0  0  0  0
  -25.2721   -9.5656   22.4777 H   0  0  0  0  0  0
  -23.9953   -7.4616   22.7472 H   0  0  0  0  0  0
  -21.0806   -8.8755   19.8955 H   0  0  0  0  0  0
  -22.3666  -10.9643   19.6181 H   0  0  0  0  0  0
  -21.2000   -7.6116   23.9686 H   0  0  0  0  0  0
  -21.1498   -6.0502   25.9061 H   0  0  0  0  0  0
  -22.0593   -2.7582   23.2858 H   0  0  0  0  0  0
  -22.4056  -11.9886   22.4740 H   0  0  0  0  0  0
  -21.1121  -13.1340   22.2593 H   0  0  0  0  0  0
  -24.5531  -15.7045   20.2533 H   0  0  0  0  0  0
  -26.1243  -15.4868   19.7181 H   0  0  0  0  0  0
  -26.7136  -32.5503   23.1150 H   0  0  0  0  0  0
  -25.0049  -33.9758   25.0462 H   0  0  0  0  0  0
  -22.7024  -31.2999   21.3980 H   0  0  0  0  0  0
  -23.3740  -35.9626   23.3318 H   0  0  0  0  0  0
  -24.3579  -36.8900   22.2057 H   0  0  0  0  0  0
  -23.7234  -37.6505   23.6654 H   0  0  0  0  0  0
  -26.0613  -31.5725   20.5904 H   0  0  0  0  0  0
  -26.8289  -30.8725   21.9868 H   0  0  0  0  0  0
  -28.1207  -29.0699   21.1548 H   0  0  0  0  0  0
  -26.0673  -25.9275   19.0427 H   0  0  0  0  0  0
  -23.9861  -27.2622   19.0577 H   0  0  0  0  0  0
  -23.7431  -30.5763   19.4018 H   0  0  0  0  0  0
  -22.7480  -29.2293   19.8669 H   0  0  0  0  0  0
  -25.1274  -36.1959   25.0833 H   0  0  0  0  0  0
  -20.9965  -28.3257   24.1420 H   0  0  0  0  0  0
  -20.5653  -26.2282   23.3607 H   0  0  0  0  0  0
  -21.6639  -26.7439   22.1220 H   0  0  0  0  0  0
  -19.6908  -25.6302   21.1228 H   0  0  0  0  0  0
  -19.6681  -27.3200   20.6738 H   0  0  0  0  0  0
  -17.4187  -26.6673   21.4028 H   0  0  0  0  0  0
  -18.0329  -26.0069   22.9014 H   0  0  0  0  0  0
  -19.7933  -30.7242   24.2311 H   0  0  0  0  0  0
  -17.5019  -31.6263   24.5166 H   0  0  0  0  0  0
  -15.5352  -30.3000   23.7628 H   0  0  0  0  0  0
  -15.8670  -28.0825   22.7060 H   0  0  0  0  0  0
  -24.5893  -30.7071   25.7809 H   0  0  0  0  0  0
  -24.8956  -32.2856   26.4955 H   0  0  0  0  0  0
  -25.8091  -30.8842   27.0212 H   0  0  0  0  0  0
  -26.2867  -29.6779   24.1181 H   0  0  0  0  0  0
  -27.4102  -29.7285   25.4580 H   0  0  0  0  0  0
  -27.8695  -30.4357   23.9263 H   0  0  0  0  0  0
  -27.2672  -33.3613   26.2070 H   0  0  0  0  0  0
  -28.3841  -32.6883   25.0286 H   0  0  0  0  0  0
  -28.0739  -31.8436   26.5378 H   0  0  0  0  0  0
  -28.2598  -38.0087   24.7509 H   0  0  0  0  0  0
  -28.1058  -36.2624   24.6295 H   0  0  0  0  0  0
  -27.2300  -37.1462   25.8875 H   0  0  0  0  0  0
  -20.9309  -29.8752   21.6919 H   0  0  0  0  0  0
  -26.0168  -38.2861   24.1413 H   0  0  0  0  0  0
  -27.2850  -19.9488   21.2786 H   0  0  0  0  0  0
  -27.5514  -15.7717   22.0732 H   0  0  0  0  0  0
  -31.6680  -19.9183   21.8178 H   0  0  0  0  0  0
  -30.5020  -20.9222   22.6606 H   0  0  0  0  0  0
  -31.5808  -21.6139   21.4482 H   0  0  0  0  0  0
  -30.8520  -24.2198   19.2445 H   0  0  0  0  0  0
  -30.0724  -22.9772   18.2816 H   0  0  0  0  0  0
  -31.3889  -22.5598   19.3753 H   0  0  0  0  0  0
  -28.0888  -24.1764   19.1518 H   0  0  0  0  0  0
  -27.3917  -23.6486   20.6409 H   0  0  0  0  0  0
  -29.5735  -25.4962   21.2369 H   0  0  0  0  0  0
  -27.9285  -25.5638   21.7565 H   0  0  0  0  0  0
  -30.4730  -20.2824   19.6567 H   0  0  0  0  0  0
  -29.9410  -23.1764   21.3479 H   0  0  0  0  0  0
  -30.9400  -17.9097   20.7259 H   0  0  0  0  0  0
  -25.3662  -18.6044   21.7556 H   0  0  0  0  0  0
  -25.4706  -16.9424   21.9106 H   0  0  0  0  0  0
  -29.6048  -14.8227   22.1983 H   0  0  0  0  0  0
  -28.2393  -21.4797   21.0772 H   0  0  0  0  0  0
  1 25  1  0  0  0
  1 30  2  0  0  0
  1 84  1  0  0  0
  2  3  1  0  0  0
  2 25  1  0  0  0
  2 86  1  0  0  0
  2 87  1  0  0  0
  3  4  1  0  0  0
  3 88  1  0  0  0
  3 89  1  0  0  0
  4  5  1  0  0  0
  4 90  1  0  0  0
  4 91  1  0  0  0
  5  6  1  0  0  0
  5 26  1  0  0  0
  5 92  1  0  0  0
  6 25  1  0  0  0
  6 93  1  0  0  0
  6 94  1  0  0  0
  7  8  2  0  0  0
  7 26  1  0  0  0
  7 29  1  0  0  0
  8  9  1  0  0  0
  8 22  1  0  0  0
  9 10  1  0  0  0
  9 27  2  0  0  0
 10 11  2  0  0  0
 10 15  1  0  0  0
 11 12  1  0  0  0
 11 95  1  0  0  0
 12 13  2  0  0  0
 12 96  1  0  0  0
 13 14  1  0  0  0
 13 31  1  0  0  0
 14 15  2  0  0  0
 14 97  1  0  0  0
 15 98  1  0  0  0
 16 17  2  0  0  0
 16 21  1  0  0  0
 16 31  1  0  0  0
 17 18  1  0  0  0
 17 99  1  0  0  0
 18 19  2  0  0  0
 18100  1  0  0  0
 19 20  1  0  0  0
 19 24  1  0  0  0
 20 21  2  0  0  0
 20101  1  0  0  0
 21 23  1  0  0  0
 22 28  1  0  0  0
 22 32  2  0  0  0
 26 27  1  0  0  0
 28102  1  0  0  0
 28103  1  0  0  0
 29104  1  0  0  0
 29105  1  0  0  0
 33 34  1  0  0  0
 33 66  1  0  0  0
 33 70  2  0  0  0
 34 36  1  0  0  0
 34 59  1  0  0  0
 34106  1  0  0  0
 35 44  2  0  0  0
 35 45  1  0  0  0
 35 68  1  0  0  0
 36 56  1  0  0  0
 36107  1  0  0  0
 37 39  1  0  0  0
 37 47  1  0  0  0
 37 66  1  0  0  0
 37108  1  0  0  0
 38 43  2  0  0  0
 38 46  1  0  0  0
 38 47  1  0  0  0
 39 64  1  0  0  0
 39 67  2  0  0  0
 40 52  1  0  0  0
 40 53  2  0  0  0
 40 58  1  0  0  0
 41109  1  0  0  0
 41110  1  0  0  0
 41111  1  0  0  0
 41 48  1  0  0  0
 42 43  1  0  0  0
 42 66  1  0  0  0
 42112  1  0  0  0
 42113  1  0  0  0
 43 44  1  0  0  0
 44114  1  0  0  0
 45 46  2  0  0  0
 45115  1  0  0  0
 46116  1  0  0  0
 47117  1  0  0  0
 47118  1  0  0  0
 48 56  1  0  0  0
 48 65  1  0  0  0
 48119  1  0  0  0
 49 50  1  0  0  0
 49 53  1  0  0  0
 49 64  1  0  0  0
 49120  1  0  0  0
 50 51  1  0  0  0
 50121  1  0  0  0
 50122  1  0  0  0
 51 52  1  0  0  0
 51123  1  0  0  0
 51124  1  0  0  0
 52125  1  0  0  0
 52126  1  0  0  0
 53 54  1  0  0  0
 54 55  2  0  0  0
 54127  1  0  0  0
 55 57  1  0  0  0
 55128  1  0  0  0
 56 69  2  0  0  0
 57 58  2  0  0  0
 57129  1  0  0  0
 58130  1  0  0  0
 59 60  1  0  0  0
 59 61  1  0  0  0
 59 62  1  0  0  0
 60131  1  0  0  0
 60132  1  0  0  0
 60133  1  0  0  0
 61134  1  0  0  0
 61135  1  0  0  0
 61136  1  0  0  0
 62137  1  0  0  0
 62138  1  0  0  0
 62139  1  0  0  0
 63 65  1  0  0  0
 63140  1  0  0  0
 63141  1  0  0  0
 63142  1  0  0  0
 64143  1  0  0  0
 65144  1  0  0  0
 68 79  1  0  0  0
 71 73  2  0  0  0
 71 74  1  0  0  0
 71145  1  0  0  0
 72 73  1  0  0  0
 72 75  2  0  0  0
 72146  1  0  0  0
 73 83  1  0  0  0
 74 80  1  0  0  0
 74 82  2  0  0  0
 75 82  1  0  0  0
 75 84  1  0  0  0
 76147  1  0  0  0
 76148  1  0  0  0
 76149  1  0  0  0
 76 80  1  0  0  0
 77150  1  0  0  0
 77151  1  0  0  0
 77152  1  0  0  0
 77 81  1  0  0  0
 78 79  1  0  0  0
 78 81  1  0  0  0
 78153  1  0  0  0
 78154  1  0  0  0
 79155  1  0  0  0
 79156  1  0  0  0
 80 85  1  0  0  0
 80157  1  0  0  0
 81 85  1  0  0  0
 81158  1  0  0  0
 82159  1  0  0  0
 83160  1  0  0  0
 83161  1  0  0  0
 84162  1  0  0  0
 85163  1  0  0  0
M  CHG  1  82   1
M  ISO  4   1 100  68 101  79 101  84 100
M  END
> <chiral flag>
0

> <version>
0

> <s_m_source_file>
/data/baiqing/PycharmProjects/Reinvent-master-3.2/result/LINK_invent/BTK/process_docking_weight1_custom_product_contain_oxygen_bond_distance_aromatic_linkinvent_7_9_3/rearranged_h_0194.sdf

> <i_m_source_file_index>
37

> <r_mmod_Potential_Energy-OPLS-2005>
-31.5478630065918

> <r_mmod_Stretch_Energy-OPLS-2005>
65.5232925415039

> <r_mmod_Bend_Energy-OPLS-2005>
140.582977294922

> <r_mmod_Torsional_Energy-OPLS-2005>
292.192016601562

> <r_mmod_Improper_Torsional_Energy-OPLS-2005>
15.966329574585

> <r_mmod_Van_der_Waal_Energy-OPLS-2005>
139.456848144531

> <r_mmod_Electrostatic_Energy-OPLS-2005>
-283.179809570312

> <r_mmod_Solvation_Energy-OPLS-2005>
-425.004486083984

> <b_mmod_Minimization_Converged-OPLS-2005>
0

> <r_mmod_RMS_Derivative-OPLS-2005>
1.92896616458893

$$$$
37
                    3D
 Structure written by MMmdl.
157165  0  0  1  0            999 V2000
  -30.7153  -14.4589   20.5539 C   0  0  0  0  0  0
  -30.4222  -12.2972   19.4168 C   0  0  0  0  0  0
  -29.5012  -12.5233   18.1996 C   0  0  0  0  0  0
  -28.0187  -12.3830   18.6040 C   0  0  0  0  0  0
  -27.6630  -13.2115   19.8694 C   0  0  2  0  0  0
  -28.7068  -12.9906   20.9894 C   0  0  0  0  0  0
  -25.2596  -13.8172   20.5644 C   0  0  0  0  0  0
  -24.1855  -13.0440   20.9129 C   0  0  0  0  0  0
  -24.6406  -11.6914   20.8706 C   0  0  0  0  0  0
  -23.9067  -10.4297   21.0381 C   0  0  0  0  0  0
  -24.3620   -9.4222   21.9164 C   0  0  0  0  0  0
  -23.6287   -8.2266   22.0757 C   0  0  0  0  0  0
  -22.4276   -8.0298   21.3548 C   0  0  0  0  0  0
  -21.9899   -9.0264   20.4655 C   0  0  0  0  0  0
  -22.7235  -10.2132   20.3034 C   0  0  0  0  0  0
  -21.6851   -6.0742   22.5289 C   0  0  0  0  0  0
  -21.4023   -6.5635   23.8226 C   0  0  0  0  0  0
  -21.3664   -5.6787   24.9185 C   0  0  0  0  0  0
  -21.6039   -4.3045   24.7228 C   0  0  0  0  0  0
  -21.8820   -3.8146   23.4341 C   0  0  0  0  0  0
  -21.9187   -4.6968   22.3408 C   0  0  0  0  0  0
  -22.7866  -13.5240   21.1804 C   0  0  0  0  0  0
  -22.1651   -4.2160   21.0978 F   0  0  0  0  0  0
  -21.5629   -3.4522   25.7726 F   0  0  0  0  0  0
  -30.0464  -13.2793   20.4418 N   0  0  0  0  0  0
  -26.3045  -12.9365   20.3328 N   0  0  0  0  0  0
  -25.9339  -11.6523   20.5724 N   0  0  0  0  0  0
  -22.0471  -12.8292   22.0370 N   0  0  0  0  0  0
  -25.4266  -15.1898   20.4096 N   0  0  0  0  0  0
  -31.8398  -14.6333   20.0775 O   0  0  0  0  0  0
  -21.6644   -6.8889   21.4257 O   0  0  0  0  0  0
  -22.3561  -14.5555   20.6650 O   0  0  0  0  0  0
  -24.6149  -31.8679   23.2126 C   0  0  0  0  0  0
  -25.9071  -32.4807   23.8408 C   0  0  1  0  0  0
  -27.2295  -27.4424   20.1029 C   0  0  0  0  0  0
  -25.5946  -33.8614   24.2340 N   0  0  0  0  0  0
  -23.4012  -30.4926   21.5507 C   0  0  2  0  0  0
  -24.8499  -28.9599   20.1118 C   0  0  0  0  0  0
  -22.7402  -29.4672   22.4990 C   0  0  0  0  0  0
  -18.0272  -28.1379   22.8492 C   0  0  0  0  0  0
  -24.1488  -36.7317   23.2631 C   0  0  0  0  0  0
  -25.9289  -30.8349   21.3663 C   0  0  0  0  0  0
  -26.0070  -29.4712   20.7126 C   0  0  0  0  0  0
  -27.2042  -28.7185   20.7088 C   0  0  0  0  0  0
  -26.0630  -26.9404   19.4946 C   0  0  0  0  0  0
  -24.8724  -27.6937   19.4976 C   0  0  0  0  0  0
  -23.6098  -29.8259   20.1640 C   0  0  0  0  0  0
  -25.4110  -36.3099   24.0322 C   0  0  1  0  0  0
  -20.5857  -28.3672   23.1332 C   0  0  2  0  0  0
  -20.6774  -26.9412   22.5425 C   0  0  0  0  0  0
  -19.5754  -26.6381   21.5230 C   0  0  0  0  0  0
  -18.1926  -26.7929   22.1628 C   0  0  0  0  0  0
  -19.1515  -28.8840   23.2912 C   0  0  0  0  0  0
  -18.9445  -30.1447   23.8921 C   0  0  0  0  0  0
  -17.6449  -30.6585   24.0576 C   0  0  0  0  0  0
  -25.9045  -34.9462   23.5118 C   0  0  0  0  0  0
  -16.5342  -29.9094   23.6313 C   0  0  0  0  0  0
  -16.7264  -28.6511   23.0333 C   0  0  0  0  0  0
  -26.4499  -31.6578   25.0736 C   0  0  0  0  0  0
  -25.3772  -31.3707   26.1490 C   0  0  0  0  0  0
  -27.0325  -30.3006   24.6124 C   0  0  0  0  0  0
  -27.6064  -32.4291   25.7518 C   0  0  0  0  0  0
  -27.5570  -37.1830   24.8466 C   0  0  0  0  0  0
  -21.4127  -29.3055   22.3750 N   0  0  0  0  0  0
  -26.4295  -37.3779   23.9387 N   0  0  0  0  0  0
  -24.6654  -31.0783   22.1026 N   0  0  0  0  0  0
  -23.4184  -28.8197   23.3015 O   0  0  0  0  0  0
  -28.3611  -26.6628   20.1237 O   0  0  0  0  0  0
  -26.5573  -34.8903   22.4661 O   0  0  0  0  0  0
  -23.5349  -32.1432   23.7534 O   0  0  0  0  0  0
  -31.2886  -17.5174   20.5448 C   0  0  0  0  0  0
  -30.3129  -19.5987   20.8694 C   0  0  0  0  0  0
  -30.1153  -16.8551   21.0104 C   0  0  0  0  0  0
  -29.1344  -18.9450   21.3391 C   0  0  0  0  0  0
  -30.5481  -21.0699   20.8429 C   0  0  0  0  0  0
  -29.6756  -23.4457   20.8928 C   0  0  0  0  0  0
  -28.3452  -25.6655   21.1613 C   0  0  0  0  0  0
  -28.3328  -24.1847   20.6668 C   0  0  2  0  0  0
  -31.3874  -18.8682   20.4669 N   0  0  0  0  0  0
  -29.0426  -17.5977   21.3880 N   0  0  0  0  0  0
  -27.9932  -19.5949   21.8006 N   0  0  0  0  0  0
  -31.8123  -21.5084   20.9812 N   0  0  0  0  0  0
  -30.0044  -15.4408   21.1308 N   0  0  0  0  0  0
  -29.5585  -21.9813   20.7009 N   0  3  0  0  0  0
  -27.3061  -23.4577   21.3390 O   0  0  0  0  0  0
  -31.4699  -12.3826   19.1225 H   0  0  0  0  0  0
  -30.3022  -11.2868   19.8089 H   0  0  0  0  0  0
  -29.7480  -11.8201   17.4032 H   0  0  0  0  0  0
  -29.6747  -13.5181   17.7877 H   0  0  0  0  0  0
  -27.8232  -11.3256   18.7825 H   0  0  0  0  0  0
  -27.3737  -12.6706   17.7721 H   0  0  0  0  0  0
  -27.7019  -14.2598   19.5759 H   0  0  0  0  0  0
  -28.6727  -11.9600   21.3432 H   0  0  0  0  0  0
  -28.4647  -13.5995   21.8614 H   0  0  0  0  0  0
  -25.2756   -9.5708   22.4743 H   0  0  0  0  0  0
  -23.9994   -7.4658   22.7472 H   0  0  0  0  0  0
  -21.0819   -8.8765   19.8970 H   0  0  0  0  0  0
  -22.3673  -10.9657   19.6136 H   0  0  0  0  0  0
  -21.2033   -7.6138   23.9740 H   0  0  0  0  0  0
  -21.1483   -6.0501   25.9084 H   0  0  0  0  0  0
  -22.0600   -2.7606   23.2828 H   0  0  0  0  0  0
  -22.4019  -11.9922   22.4772 H   0  0  0  0  0  0
  -21.1099  -13.1404   22.2566 H   0  0  0  0  0  0
  -24.6550  -15.8391   20.5158 H   0  0  0  0  0  0
  -26.2914  -15.6473   20.1478 H   0  0  0  0  0  0
  -26.7157  -32.5529   23.1182 H   0  0  0  0  0  0
  -25.0166  -33.9779   25.0536 H   0  0  0  0  0  0
  -22.6909  -31.3108   21.4145 H   0  0  0  0  0  0
  -23.3706  -35.9705   23.3366 H   0  0  0  0  0  0
  -24.3570  -36.8858   22.2034 H   0  0  0  0  0  0
  -23.7298  -37.6568   23.6599 H   0  0  0  0  0  0
  -26.0446  -31.6016   20.5986 H   0  0  0  0  0  0
  -26.8157  -30.8854   21.9863 H   0  0  0  0  0  0
  -28.0945  -29.1021   21.1885 H   0  0  0  0  0  0
  -26.0764  -25.9615   19.0339 H   0  0  0  0  0  0
  -23.9835  -27.2937   19.0286 H   0  0  0  0  0  0
  -23.7163  -30.6028   19.4057 H   0  0  0  0  0  0
  -22.7327  -29.2446   19.8692 H   0  0  0  0  0  0
  -25.1292  -36.1965   25.0813 H   0  0  0  0  0  0
  -20.9952  -28.3241   24.1455 H   0  0  0  0  0  0
  -20.5693  -26.2288   23.3614 H   0  0  0  0  0  0
  -21.6644  -26.7477   22.1207 H   0  0  0  0  0  0
  -19.6917  -25.6287   21.1268 H   0  0  0  0  0  0
  -19.6693  -27.3182   20.6752 H   0  0  0  0  0  0
  -17.4203  -26.6674   21.4021 H   0  0  0  0  0  0
  -18.0321  -26.0064   22.9015 H   0  0  0  0  0  0
  -19.7924  -30.7251   24.2296 H   0  0  0  0  0  0
  -17.5008  -31.6259   24.5188 H   0  0  0  0  0  0
  -15.5343  -30.3012   23.7613 H   0  0  0  0  0  0
  -15.8667  -28.0850   22.7018 H   0  0  0  0  0  0
  -24.5920  -30.7076   25.7843 H   0  0  0  0  0  0
  -24.9002  -32.2881   26.4949 H   0  0  0  0  0  0
  -25.8130  -30.8866   27.0239 H   0  0  0  0  0  0
  -26.2878  -29.6775   24.1155 H   0  0  0  0  0  0
  -27.4056  -29.7233   25.4595 H   0  0  0  0  0  0
  -27.8736  -30.4300   23.9308 H   0  0  0  0  0  0
  -27.2659  -33.3552   26.2164 H   0  0  0  0  0  0
  -28.3865  -32.6912   25.0362 H   0  0  0  0  0  0
  -28.0749  -31.8379   26.5393 H   0  0  0  0  0  0
  -28.2623  -38.0087   24.7430 H   0  0  0  0  0  0
  -28.1021  -36.2609   24.6390 H   0  0  0  0  0  0
  -27.2279  -37.1607   25.8870 H   0  0  0  0  0  0
  -20.9267  -29.8851   21.7047 H   0  0  0  0  0  0
  -26.0178  -38.2866   24.1344 H   0  0  0  0  0  0
  -32.1775  -16.9876   20.2424 H   0  0  0  0  0  0
  -30.0341  -23.6076   21.9114 H   0  0  0  0  0  0
  -30.4331  -23.8567   20.2237 H   0  0  0  0  0  0
  -29.2099  -25.8441   21.7985 H   0  0  0  0  0  0
  -27.4938  -25.8250   21.8256 H   0  0  0  0  0  0
  -28.0931  -24.1744   19.6038 H   0  0  0  0  0  0
  -28.1010  -20.4949   22.2473 H   0  0  0  0  0  0
  -27.3237  -19.0087   22.2880 H   0  0  0  0  0  0
  -32.5347  -20.8031   20.9709 H   0  0  0  0  0  0
  -32.0829  -22.4727   20.9023 H   0  0  0  0  0  0
  -29.1288  -15.1251   21.5138 H   0  0  0  0  0  0
  -28.6144  -21.6475   20.5389 H   0  0  0  0  0  0
  -27.4518  -23.5403   22.2776 H   0  0  0  0  0  0
  1 25  1  0  0  0
  1 30  2  0  0  0
  1 83  1  0  0  0
  2  3  1  0  0  0
  2 25  1  0  0  0
  2 86  1  0  0  0
  2 87  1  0  0  0
  3  4  1  0  0  0
  3 88  1  0  0  0
  3 89  1  0  0  0
  4  5  1  0  0  0
  4 90  1  0  0  0
  4 91  1  0  0  0
  5  6  1  0  0  0
  5 26  1  0  0  0
  5 92  1  0  0  0
  6 25  1  0  0  0
  6 93  1  0  0  0
  6 94  1  0  0  0
  7  8  2  0  0  0
  7 26  1  0  0  0
  7 29  1  0  0  0
  8  9  1  0  0  0
  8 22  1  0  0  0
  9 10  1  0  0  0
  9 27  2  0  0  0
 10 11  2  0  0  0
 10 15  1  0  0  0
 11 12  1  0  0  0
 11 95  1  0  0  0
 12 13  2  0  0  0
 12 96  1  0  0  0
 13 14  1  0  0  0
 13 31  1  0  0  0
 14 15  2  0  0  0
 14 97  1  0  0  0
 15 98  1  0  0  0
 16 17  2  0  0  0
 16 21  1  0  0  0
 16 31  1  0  0  0
 17 18  1  0  0  0
 17 99  1  0  0  0
 18 19  2  0  0  0
 18100  1  0  0  0
 19 20  1  0  0  0
 19 24  1  0  0  0
 20 21  2  0  0  0
 20101  1  0  0  0
 21 23  1  0  0  0
 22 28  1  0  0  0
 22 32  2  0  0  0
 26 27  1  0  0  0
 28102  1  0  0  0
 28103  1  0  0  0
 29104  1  0  0  0
 29105  1  0  0  0
 33 34  1  0  0  0
 33 66  1  0  0  0
 33 70  2  0  0  0
 34 36  1  0  0  0
 34 59  1  0  0  0
 34106  1  0  0  0
 35 44  2  0  0  0
 35 45  1  0  0  0
 35 68  1  0  0  0
 36 56  1  0  0  0
 36107  1  0  0  0
 37 39  1  0  0  0
 37 47  1  0  0  0
 37 66  1  0  0  0
 37108  1  0  0  0
 38 43  2  0  0  0
 38 46  1  0  0  0
 38 47  1  0  0  0
 39 64  1  0  0  0
 39 67  2  0  0  0
 40 52  1  0  0  0
 40 53  2  0  0  0
 40 58  1  0  0  0
 41109  1  0  0  0
 41110  1  0  0  0
 41111  1  0  0  0
 41 48  1  0  0  0
 42 43  1  0  0  0
 42 66  1  0  0  0
 42112  1  0  0  0
 42113  1  0  0  0
 43 44  1  0  0  0
 44114  1  0  0  0
 45 46  2  0  0  0
 45115  1  0  0  0
 46116  1  0  0  0
 47117  1  0  0  0
 47118  1  0  0  0
 48 56  1  0  0  0
 48 65  1  0  0  0
 48119  1  0  0  0
 49 50  1  0  0  0
 49 53  1  0  0  0
 49 64  1  0  0  0
 49120  1  0  0  0
 50 51  1  0  0  0
 50121  1  0  0  0
 50122  1  0  0  0
 51 52  1  0  0  0
 51123  1  0  0  0
 51124  1  0  0  0
 52125  1  0  0  0
 52126  1  0  0  0
 53 54  1  0  0  0
 54 55  2  0  0  0
 54127  1  0  0  0
 55 57  1  0  0  0
 55128  1  0  0  0
 56 69  2  0  0  0
 57 58  2  0  0  0
 57129  1  0  0  0
 58130  1  0  0  0
 59 60  1  0  0  0
 59 61  1  0  0  0
 59 62  1  0  0  0
 60131  1  0  0  0
 60132  1  0  0  0
 60133  1  0  0  0
 61134  1  0  0  0
 61135  1  0  0  0
 61136  1  0  0  0
 62137  1  0  0  0
 62138  1  0  0  0
 62139  1  0  0  0
 63 65  1  0  0  0
 63140  1  0  0  0
 63141  1  0  0  0
 63142  1  0  0  0
 64143  1  0  0  0
 65144  1  0  0  0
 68 77  1  0  0  0
 71 73  2  0  0  0
 71 79  1  0  0  0
 71145  1  0  0  0
 72 74  1  0  0  0
 72 75  1  0  0  0
 72 79  2  0  0  0
 73 80  1  0  0  0
 73 83  1  0  0  0
 74 80  2  0  0  0
 74 81  1  0  0  0
 75 82  1  0  0  0
 75 84  2  0  0  0
 76 78  1  0  0  0
 76 84  1  0  0  0
 76146  1  0  0  0
 76147  1  0  0  0
 77 78  1  0  0  0
 77148  1  0  0  0
 77149  1  0  0  0
 78 85  1  0  0  0
 78150  1  0  0  0
 81151  1  0  0  0
 81152  1  0  0  0
 82153  1  0  0  0
 82154  1  0  0  0
 83155  1  0  0  0
 84156  1  0  0  0
 85157  1  0  0  0
M  CHG  1  84   1
M  ISO  4   1 100  68 101  77 101  83 100
M  END
> <chiral flag>
0

> <version>
0

> <s_m_source_file>
/data/baiqing/PycharmProjects/Reinvent-master-3.2/result/LINK_invent/BTK/process_docking_weight1_custom_product_contain_oxygen_bond_distance_aromatic_linkinvent_7_9_3/rearranged_h_0194.sdf

> <i_m_source_file_index>
38

> <r_mmod_Potential_Energy-OPLS-2005>
-104.728652954102

> <r_mmod_Stretch_Energy-OPLS-2005>
41.8666000366211

> <r_mmod_Bend_Energy-OPLS-2005>
113.08812713623

> <r_mmod_Torsional_Energy-OPLS-2005>
286.811492919922

> <r_mmod_Improper_Torsional_Energy-OPLS-2005>
8.04314804077148

> <r_mmod_Van_der_Waal_Energy-OPLS-2005>
169.567810058594

> <r_mmod_Electrostatic_Energy-OPLS-2005>
-267.736480712891

> <r_mmod_Solvation_Energy-OPLS-2005>
-469.004150390625

> <b_mmod_Minimization_Converged-OPLS-2005>
0

> <r_mmod_RMS_Derivative-OPLS-2005>
3.32766652107239

$$$$
38
                    3D
 Structure written by MMmdl.
160168  0  0  1  0            999 V2000
  -30.7009  -14.5280   20.5000 C   0  0  0  0  0  0
  -30.4110  -12.3188   19.4436 C   0  0  0  0  0  0
  -29.4933  -12.4859   18.2155 C   0  0  0  0  0  0
  -28.0152  -12.3497   18.6267 C   0  0  0  0  0  0
  -27.6517  -13.2170   19.8625 C   0  0  2  0  0  0
  -28.6953  -13.0587   20.9916 C   0  0  0  0  0  0
  -25.2540  -13.8185   20.5684 C   0  0  0  0  0  0
  -24.1814  -13.0445   20.9189 C   0  0  0  0  0  0
  -24.6381  -11.6917   20.8744 C   0  0  0  0  0  0
  -23.9062  -10.4298   21.0406 C   0  0  0  0  0  0
  -24.3613   -9.4214   21.9185 C   0  0  0  0  0  0
  -23.6295   -8.2246   22.0751 C   0  0  0  0  0  0
  -22.4279   -8.0281   21.3544 C   0  0  0  0  0  0
  -21.9911   -9.0256   20.4645 C   0  0  0  0  0  0
  -22.7231  -10.2136   20.3058 C   0  0  0  0  0  0
  -21.6846   -6.0740   22.5284 C   0  0  0  0  0  0
  -21.4010   -6.5642   23.8219 C   0  0  0  0  0  0
  -21.3661   -5.6793   24.9177 C   0  0  0  0  0  0
  -21.6044   -4.3060   24.7227 C   0  0  0  0  0  0
  -21.8816   -3.8151   23.4350 C   0  0  0  0  0  0
  -21.9191   -4.6968   22.3404 C   0  0  0  0  0  0
  -22.7834  -13.5229   21.1860 C   0  0  0  0  0  0
  -22.1658   -4.2154   21.0984 F   0  0  0  0  0  0
  -21.5632   -3.4540   25.7741 F   0  0  0  0  0  0
  -30.0205  -13.3474   20.4247 N   0  0  0  0  0  0
  -26.2977  -12.9375   20.3329 N   0  0  0  0  0  0
  -25.9308  -11.6525   20.5764 N   0  0  0  0  0  0
  -22.0481  -12.8227   22.0417 N   0  0  0  0  0  0
  -25.4254  -15.1912   20.4105 N   0  0  0  0  0  0
  -31.8751  -14.5911   20.1287 O   0  0  0  0  0  0
  -21.6635   -6.8881   21.4248 O   0  0  0  0  0  0
  -22.3520  -14.5538   20.6706 O   0  0  0  0  0  0
  -24.6178  -31.8666   23.2073 C   0  0  0  0  0  0
  -25.9063  -32.4814   23.8378 C   0  0  1  0  0  0
  -27.2250  -27.3919   20.0931 C   0  0  0  0  0  0
  -25.5910  -33.8615   24.2313 N   0  0  0  0  0  0
  -23.4061  -30.4925   21.5494 C   0  0  2  0  0  0
  -24.8477  -28.9551   20.1142 C   0  0  0  0  0  0
  -22.7420  -29.4669   22.4971 C   0  0  0  0  0  0
  -18.0278  -28.1377   22.8493 C   0  0  0  0  0  0
  -24.1482  -36.7309   23.2640 C   0  0  0  0  0  0
  -25.9403  -30.8189   21.3652 C   0  0  0  0  0  0
  -26.0129  -29.4517   20.7092 C   0  0  0  0  0  0
  -27.2019  -28.6792   20.6928 C   0  0  0  0  0  0
  -26.0296  -26.9206   19.4999 C   0  0  0  0  0  0
  -24.8527  -27.6904   19.5074 C   0  0  0  0  0  0
  -23.6144  -29.8284   20.1635 C   0  0  0  0  0  0
  -25.4109  -36.3110   24.0334 C   0  0  1  0  0  0
  -20.5870  -28.3674   23.1300 C   0  0  2  0  0  0
  -20.6762  -26.9400   22.5419 C   0  0  0  0  0  0
  -19.5744  -26.6381   21.5211 C   0  0  0  0  0  0
  -18.1924  -26.7923   22.1626 C   0  0  0  0  0  0
  -19.1528  -28.8839   23.2898 C   0  0  0  0  0  0
  -18.9458  -30.1444   23.8911 C   0  0  0  0  0  0
  -17.6461  -30.6582   24.0564 C   0  0  0  0  0  0
  -25.9041  -34.9478   23.5125 C   0  0  0  0  0  0
  -16.5347  -29.9090   23.6326 C   0  0  0  0  0  0
  -16.7267  -28.6507   23.0352 C   0  0  0  0  0  0
  -26.4481  -31.6601   25.0722 C   0  0  0  0  0  0
  -25.3737  -31.3715   26.1469 C   0  0  0  0  0  0
  -27.0308  -30.3035   24.6117 C   0  0  0  0  0  0
  -27.6050  -32.4322   25.7488 C   0  0  0  0  0  0
  -27.5579  -37.1812   24.8469 C   0  0  0  0  0  0
  -21.4141  -29.3044   22.3706 N   0  0  0  0  0  0
  -26.4291  -37.3799   23.9411 N   0  0  0  0  0  0
  -24.6735  -31.0749   22.0983 N   0  0  0  0  0  0
  -23.4178  -28.8206   23.3014 O   0  0  0  0  0  0
  -28.4009  -26.6490   20.1124 O   0  0  0  0  0  0
  -26.5605  -34.8934   22.4684 O   0  0  0  0  0  0
  -23.5369  -32.1423   23.7458 O   0  0  0  0  0  0
  -31.5138  -17.5104   20.2153 C   0  0  0  0  0  0
  -31.7082  -18.8846   20.0320 C   0  0  0  0  0  0
  -30.2465  -17.0414   20.6268 C   0  0  0  0  0  0
  -29.5582  -19.2788   20.6395 C   0  0  0  0  0  0
  -33.0367  -19.4336   19.5576 C   0  0  0  0  0  0
  -27.8885  -21.7264   22.6290 C   0  0  0  0  0  0
  -28.3679  -22.6905   20.2622 C   0  0  0  0  0  0
  -28.4268  -25.2690   19.6511 C   0  0  0  0  0  0
  -28.7018  -21.5808   21.3298 C   0  0  1  0  0  0
  -28.1972  -24.1803   20.7528 C   0  0  1  0  0  0
  -30.7228  -19.7683   20.2541 N   0  0  0  0  0  0
  -29.2753  -17.9822   20.8271 N   0  0  0  0  0  0
  -29.9715  -15.6317   20.8258 N   0  0  0  0  0  0
  -28.5353  -20.1982   20.8255 N   0  0  0  0  0  0
  -26.8599  -24.3151   21.2111 O   0  0  0  0  0  0
  -31.4584  -12.3893   19.1434 H   0  0  0  0  0  0
  -30.2974  -11.3238   19.8765 H   0  0  0  0  0  0
  -29.7388  -11.7407   17.4571 H   0  0  0  0  0  0
  -29.6611  -13.4608   17.7547 H   0  0  0  0  0  0
  -27.8304  -11.2974   18.8461 H   0  0  0  0  0  0
  -27.3651  -12.6002   17.7877 H   0  0  0  0  0  0
  -27.6766  -14.2540   19.5284 H   0  0  0  0  0  0
  -28.6759  -12.0419   21.3872 H   0  0  0  0  0  0
  -28.4632  -13.7114   21.8346 H   0  0  0  0  0  0
  -25.2759   -9.5688   22.4754 H   0  0  0  0  0  0
  -24.0005   -7.4634   22.7466 H   0  0  0  0  0  0
  -21.0841   -8.8771   19.8947 H   0  0  0  0  0  0
  -22.3691  -10.9676   19.6166 H   0  0  0  0  0  0
  -21.1995   -7.6147   23.9723 H   0  0  0  0  0  0
  -21.1488   -6.0523   25.9082 H   0  0  0  0  0  0
  -22.0592   -2.7614   23.2847 H   0  0  0  0  0  0
  -22.4091  -11.9891   22.4816 H   0  0  0  0  0  0
  -21.1095  -13.1257   22.2619 H   0  0  0  0  0  0
  -24.6596  -15.8453   20.5271 H   0  0  0  0  0  0
  -26.2755  -15.6356   20.0880 H   0  0  0  0  0  0
  -26.7127  -32.5498   23.1130 H   0  0  0  0  0  0
  -25.0057  -33.9768   25.0457 H   0  0  0  0  0  0
  -22.6963  -31.3111   21.4121 H   0  0  0  0  0  0
  -23.3747  -35.9639   23.3312 H   0  0  0  0  0  0
  -24.3578  -36.8914   22.2055 H   0  0  0  0  0  0
  -23.7232  -37.6513   23.6648 H   0  0  0  0  0  0
  -26.0589  -31.5824   20.5951 H   0  0  0  0  0  0
  -26.8258  -30.8695   21.9873 H   0  0  0  0  0  0
  -28.1015  -29.0636   21.1520 H   0  0  0  0  0  0
  -25.9602  -25.9488   19.0380 H   0  0  0  0  0  0
  -23.9539  -27.2982   19.0502 H   0  0  0  0  0  0
  -23.7268  -30.6047   19.4054 H   0  0  0  0  0  0
  -22.7351  -29.2540   19.8655 H   0  0  0  0  0  0
  -25.1284  -36.1971   25.0827 H   0  0  0  0  0  0
  -20.9976  -28.3245   24.1412 H   0  0  0  0  0  0
  -20.5656  -26.2280   23.3613 H   0  0  0  0  0  0
  -21.6635  -26.7427   22.1217 H   0  0  0  0  0  0
  -19.6902  -25.6295   21.1237 H   0  0  0  0  0  0
  -19.6685  -27.3196   20.6745 H   0  0  0  0  0  0
  -17.4193  -26.6674   21.4030 H   0  0  0  0  0  0
  -18.0327  -26.0060   22.9019 H   0  0  0  0  0  0
  -19.7934  -30.7257   24.2285 H   0  0  0  0  0  0
  -17.5017  -31.6266   24.5161 H   0  0  0  0  0  0
  -15.5353  -30.3000   23.7636 H   0  0  0  0  0  0
  -15.8668  -28.0829   22.7059 H   0  0  0  0  0  0
  -24.5911  -30.7064   25.7808 H   0  0  0  0  0  0
  -24.8936  -32.2876   26.4918 H   0  0  0  0  0  0
  -25.8093  -30.8885   27.0223 H   0  0  0  0  0  0
  -26.2855  -29.6806   24.1160 H   0  0  0  0  0  0
  -27.4053  -29.7270   25.4583 H   0  0  0  0  0  0
  -27.8701  -30.4347   23.9283 H   0  0  0  0  0  0
  -27.2663  -33.3608   26.2091 H   0  0  0  0  0  0
  -28.3847  -32.6905   25.0310 H   0  0  0  0  0  0
  -28.0730  -31.8431   26.5383 H   0  0  0  0  0  0
  -28.2608  -38.0096   24.7508 H   0  0  0  0  0  0
  -28.1056  -36.2630   24.6298 H   0  0  0  0  0  0
  -27.2297  -37.1471   25.8872 H   0  0  0  0  0  0
  -20.9294  -29.8773   21.6937 H   0  0  0  0  0  0
  -26.0178  -38.2874   24.1409 H   0  0  0  0  0  0
  -32.3496  -16.8555   20.0223 H   0  0  0  0  0  0
  -33.1271  -19.3168   18.4777 H   0  0  0  0  0  0
  -33.8636  -18.8994   20.0271 H   0  0  0  0  0  0
  -33.1391  -20.4927   19.7966 H   0  0  0  0  0  0
  -28.1018  -22.6704   23.1325 H   0  0  0  0  0  0
  -28.1356  -20.9369   23.3408 H   0  0  0  0  0  0
  -26.8149  -21.6760   22.4431 H   0  0  0  0  0  0
  -27.4803  -22.4021   19.6968 H   0  0  0  0  0  0
  -29.1776  -22.6689   19.5315 H   0  0  0  0  0  0
  -27.8093  -25.0918   18.7729 H   0  0  0  0  0  0
  -29.4408  -25.1251   19.2754 H   0  0  0  0  0  0
  -29.7469  -21.7147   21.6131 H   0  0  0  0  0  0
  -28.8901  -24.3730   21.5730 H   0  0  0  0  0  0
  -29.0343  -15.4265   21.1296 H   0  0  0  0  0  0
  -27.6562  -19.7585   21.0671 H   0  0  0  0  0  0
  -26.7441  -23.7308   21.9514 H   0  0  0  0  0  0
  1 25  1  0  0  0
  1 30  2  0  0  0
  1 83  1  0  0  0
  2  3  1  0  0  0
  2 25  1  0  0  0
  2 86  1  0  0  0
  2 87  1  0  0  0
  3  4  1  0  0  0
  3 88  1  0  0  0
  3 89  1  0  0  0
  4  5  1  0  0  0
  4 90  1  0  0  0
  4 91  1  0  0  0
  5  6  1  0  0  0
  5 26  1  0  0  0
  5 92  1  0  0  0
  6 25  1  0  0  0
  6 93  1  0  0  0
  6 94  1  0  0  0
  7  8  2  0  0  0
  7 26  1  0  0  0
  7 29  1  0  0  0
  8  9  1  0  0  0
  8 22  1  0  0  0
  9 10  1  0  0  0
  9 27  2  0  0  0
 10 11  2  0  0  0
 10 15  1  0  0  0
 11 12  1  0  0  0
 11 95  1  0  0  0
 12 13  2  0  0  0
 12 96  1  0  0  0
 13 14  1  0  0  0
 13 31  1  0  0  0
 14 15  2  0  0  0
 14 97  1  0  0  0
 15 98  1  0  0  0
 16 17  2  0  0  0
 16 21  1  0  0  0
 16 31  1  0  0  0
 17 18  1  0  0  0
 17 99  1  0  0  0
 18 19  2  0  0  0
 18100  1  0  0  0
 19 20  1  0  0  0
 19 24  1  0  0  0
 20 21  2  0  0  0
 20101  1  0  0  0
 21 23  1  0  0  0
 22 28  1  0  0  0
 22 32  2  0  0  0
 26 27  1  0  0  0
 28102  1  0  0  0
 28103  1  0  0  0
 29104  1  0  0  0
 29105  1  0  0  0
 33 34  1  0  0  0
 33 66  1  0  0  0
 33 70  2  0  0  0
 34 36  1  0  0  0
 34 59  1  0  0  0
 34106  1  0  0  0
 35 44  2  0  0  0
 35 45  1  0  0  0
 35 68  1  0  0  0
 36 56  1  0  0  0
 36107  1  0  0  0
 37 39  1  0  0  0
 37 47  1  0  0  0
 37 66  1  0  0  0
 37108  1  0  0  0
 38 43  2  0  0  0
 38 46  1  0  0  0
 38 47  1  0  0  0
 39 64  1  0  0  0
 39 67  2  0  0  0
 40 52  1  0  0  0
 40 53  2  0  0  0
 40 58  1  0  0  0
 41109  1  0  0  0
 41110  1  0  0  0
 41111  1  0  0  0
 41 48  1  0  0  0
 42 43  1  0  0  0
 42 66  1  0  0  0
 42112  1  0  0  0
 42113  1  0  0  0
 43 44  1  0  0  0
 44114  1  0  0  0
 45 46  2  0  0  0
 45115  1  0  0  0
 46116  1  0  0  0
 47117  1  0  0  0
 47118  1  0  0  0
 48 56  1  0  0  0
 48 65  1  0  0  0
 48119  1  0  0  0
 49 50  1  0  0  0
 49 53  1  0  0  0
 49 64  1  0  0  0
 49120  1  0  0  0
 50 51  1  0  0  0
 50121  1  0  0  0
 50122  1  0  0  0
 51 52  1  0  0  0
 51123  1  0  0  0
 51124  1  0  0  0
 52125  1  0  0  0
 52126  1  0  0  0
 53 54  1  0  0  0
 54 55  2  0  0  0
 54127  1  0  0  0
 55 57  1  0  0  0
 55128  1  0  0  0
 56 69  2  0  0  0
 57 58  2  0  0  0
 57129  1  0  0  0
 58130  1  0  0  0
 59 60  1  0  0  0
 59 61  1  0  0  0
 59 62  1  0  0  0
 60131  1  0  0  0
 60132  1  0  0  0
 60133  1  0  0  0
 61134  1  0  0  0
 61135  1  0  0  0
 61136  1  0  0  0
 62137  1  0  0  0
 62138  1  0  0  0
 62139  1  0  0  0
 63 65  1  0  0  0
 63140  1  0  0  0
 63141  1  0  0  0
 63142  1  0  0  0
 64143  1  0  0  0
 65144  1  0  0  0
 68 78  1  0  0  0
 71 72  2  0  0  0
 71 73  1  0  0  0
 71145  1  0  0  0
 72 75  1  0  0  0
 72 81  1  0  0  0
 73 82  2  0  0  0
 73 83  1  0  0  0
 74 81  2  0  0  0
 74 82  1  0  0  0
 74 84  1  0  0  0
 75146  1  0  0  0
 75147  1  0  0  0
 75148  1  0  0  0
 76149  1  0  0  0
 76150  1  0  0  0
 76151  1  0  0  0
 76 79  1  0  0  0
 77 79  1  0  0  0
 77 80  1  0  0  0
 77152  1  0  0  0
 77153  1  0  0  0
 78 80  1  0  0  0
 78154  1  0  0  0
 78155  1  0  0  0
 79 84  1  0  0  0
 79156  1  0  0  0
 80 85  1  0  0  0
 80157  1  0  0  0
 83158  1  0  0  0
 84159  1  0  0  0
 85160  1  0  0  0
M  ISO  4   1 100  68 101  78 101  83 100
M  END
> <chiral flag>
0

> <version>
0

> <s_m_source_file>
/data/baiqing/PycharmProjects/Reinvent-master-3.2/result/LINK_invent/BTK/process_docking_weight1_custom_product_contain_oxygen_bond_distance_aromatic_linkinvent_7_9_3/rearranged_h_0194.sdf

> <i_m_source_file_index>
39

> <r_mmod_Potential_Energy-OPLS-2005>
-458.140563964844

> <r_mmod_Stretch_Energy-OPLS-2005>
51.119743347168

> <r_mmod_Bend_Energy-OPLS-2005>
131.14208984375

> <r_mmod_Torsional_Energy-OPLS-2005>
218.480880737305

> <r_mmod_Improper_Torsional_Energy-OPLS-2005>
6.35639953613281

> <r_mmod_Van_der_Waal_Energy-OPLS-2005>
165.939025878906

> <r_mmod_Electrostatic_Energy-OPLS-2005>
-811.039245605469

> <r_mmod_Solvation_Energy-OPLS-2005>
-243.994354248047

> <b_mmod_Minimization_Converged-OPLS-2005>
0

> <r_mmod_RMS_Derivative-OPLS-2005>
1.60118448734283

$$$$
39
                    3D
 Structure written by MMmdl.
159167  0  0  1  0            999 V2000
  -30.7821  -14.4189   20.5972 C   0  0  0  0  0  0
  -30.3999  -12.2854   19.4287 C   0  0  0  0  0  0
  -29.4953  -12.5254   18.2067 C   0  0  0  0  0  0
  -28.0126  -12.4152   18.6088 C   0  0  0  0  0  0
  -27.6626  -13.2391   19.8803 C   0  0  2  0  0  0
  -28.7051  -13.0332   21.0061 C   0  0  0  0  0  0
  -25.2556  -13.8251   20.5731 C   0  0  0  0  0  0
  -24.1847  -13.0464   20.9250 C   0  0  0  0  0  0
  -24.6461  -11.6957   20.8774 C   0  0  0  0  0  0
  -23.9131  -10.4315   21.0412 C   0  0  0  0  0  0
  -24.3670   -9.4224   21.9185 C   0  0  0  0  0  0
  -23.6345   -8.2252   22.0750 C   0  0  0  0  0  0
  -22.4313   -8.0307   21.3537 C   0  0  0  0  0  0
  -21.9970   -9.0286   20.4644 C   0  0  0  0  0  0
  -22.7305  -10.2154   20.3059 C   0  0  0  0  0  0
  -21.6854   -6.0775   22.5316 C   0  0  0  0  0  0
  -21.3990   -6.5644   23.8252 C   0  0  0  0  0  0
  -21.3672   -5.6803   24.9206 C   0  0  0  0  0  0
  -21.6057   -4.3067   24.7263 C   0  0  0  0  0  0
  -21.8810   -3.8158   23.4373 C   0  0  0  0  0  0
  -21.9183   -4.6997   22.3419 C   0  0  0  0  0  0
  -22.7853  -13.5209   21.1928 C   0  0  0  0  0  0
  -22.1644   -4.2182   21.1010 F   0  0  0  0  0  0
  -21.5666   -3.4532   25.7755 F   0  0  0  0  0  0
  -30.0470  -13.2842   20.4532 N   0  0  0  0  0  0
  -26.3045  -12.9498   20.3418 N   0  0  0  0  0  0
  -25.9378  -11.6605   20.5806 N   0  0  0  0  0  0
  -22.0481  -12.8142   22.0453 N   0  0  0  0  0  0
  -25.4134  -15.1992   20.4133 N   0  0  0  0  0  0
  -31.8653  -14.5867   20.0309 O   0  0  0  0  0  0
  -21.6656   -6.8917   21.4273 O   0  0  0  0  0  0
  -22.3518  -14.5522   20.6836 O   0  0  0  0  0  0
  -24.6119  -31.8680   23.2120 C   0  0  0  0  0  0
  -25.9016  -32.4841   23.8422 C   0  0  1  0  0  0
  -27.2531  -27.4633   20.1089 C   0  0  0  0  0  0
  -25.5894  -33.8658   24.2349 N   0  0  0  0  0  0
  -23.4036  -30.4905   21.5488 C   0  0  2  0  0  0
  -24.8537  -28.9494   20.1210 C   0  0  0  0  0  0
  -22.7411  -29.4677   22.4995 C   0  0  0  0  0  0
  -18.0274  -28.1392   22.8485 C   0  0  0  0  0  0
  -24.1485  -36.7330   23.2642 C   0  0  0  0  0  0
  -25.9290  -30.8369   21.3657 C   0  0  0  0  0  0
  -26.0056  -29.4730   20.7196 C   0  0  0  0  0  0
  -27.2084  -28.7371   20.7085 C   0  0  0  0  0  0
  -26.0867  -26.9448   19.5042 C   0  0  0  0  0  0
  -24.8863  -27.6850   19.5086 C   0  0  0  0  0  0
  -23.6160  -29.8188   20.1647 C   0  0  0  0  0  0
  -25.4118  -36.3151   24.0336 C   0  0  1  0  0  0
  -20.5860  -28.3684   23.1312 C   0  0  2  0  0  0
  -20.6779  -26.9428   22.5412 C   0  0  0  0  0  0
  -19.5761  -26.6396   21.5215 C   0  0  0  0  0  0
  -18.1931  -26.7946   22.1608 C   0  0  0  0  0  0
  -19.1515  -28.8851   23.2898 C   0  0  0  0  0  0
  -18.9452  -30.1454   23.8932 C   0  0  0  0  0  0
  -17.6457  -30.6599   24.0574 C   0  0  0  0  0  0
  -25.9032  -34.9499   23.5140 C   0  0  0  0  0  0
  -16.5347  -29.9117   23.6316 C   0  0  0  0  0  0
  -16.7263  -28.6523   23.0346 C   0  0  0  0  0  0
  -26.4460  -31.6637   25.0748 C   0  0  0  0  0  0
  -25.3738  -31.3685   26.1492 C   0  0  0  0  0  0
  -27.0289  -30.3091   24.6097 C   0  0  0  0  0  0
  -27.6050  -32.4345   25.7513 C   0  0  0  0  0  0
  -27.5590  -37.1833   24.8463 C   0  0  0  0  0  0
  -21.4125  -29.3037   22.3706 N   0  0  0  0  0  0
  -26.4310  -37.3821   23.9404 N   0  0  0  0  0  0
  -24.6667  -31.0809   22.1002 N   0  0  0  0  0  0
  -23.4165  -28.8213   23.3046 O   0  0  0  0  0  0
  -28.4520  -26.7887   20.0717 O   0  0  0  0  0  0
  -26.5593  -34.8939   22.4699 O   0  0  0  0  0  0
  -23.5315  -32.1436   23.7515 O   0  0  0  0  0  0
  -28.8656  -19.8272   19.1867 C   0  0  0  0  0  0
  -30.1148  -17.8583   20.5726 C   0  0  0  0  0  0
  -29.2084  -19.9901   20.5562 C   0  0  0  0  0  0
  -29.8202  -17.7467   19.1804 C   0  0  0  0  0  0
  -30.8256  -16.7757   21.3903 C   0  0  0  0  0  0
  -29.8262  -24.8131   20.3525 C   0  0  0  0  0  0
  -28.9048  -22.4297   20.5371 C   0  0  0  0  0  0
  -28.4477  -25.4662   20.5985 C   0  0  0  0  0  0
  -29.9942  -23.4142   20.9890 C   0  0  1  0  0  0
  -29.1815  -18.7125   18.4989 N   0  0  0  0  0  0
  -29.8074  -18.9959   21.2506 N   0  0  0  0  0  0
  -30.1644  -16.6614   18.3938 N   0  0  0  0  0  0
  -28.9789  -21.1676   21.2734 N   0  0  0  0  0  0
  -30.2340  -15.4252   21.2936 N   0  0  0  0  0  0
  -31.2183  -22.8446   20.5510 O   0  0  0  0  0  0
  -31.4508  -12.3320   19.1370 H   0  0  0  0  0  0
  -30.2491  -11.2787   19.8225 H   0  0  0  0  0  0
  -29.7246  -11.8131   17.4127 H   0  0  0  0  0  0
  -29.6975  -13.5155   17.7964 H   0  0  0  0  0  0
  -27.7871  -11.3627   18.7700 H   0  0  0  0  0  0
  -27.3809  -12.7351   17.7792 H   0  0  0  0  0  0
  -27.6999  -14.2918   19.5895 H   0  0  0  0  0  0
  -28.6584  -12.0126   21.3944 H   0  0  0  0  0  0
  -28.4782  -13.6829   21.8525 H   0  0  0  0  0  0
  -25.2786   -9.5699   22.4790 H   0  0  0  0  0  0
  -24.0074   -7.4620   22.7398 H   0  0  0  0  0  0
  -21.0932   -8.8775   19.8905 H   0  0  0  0  0  0
  -22.3752  -10.9702   19.6189 H   0  0  0  0  0  0
  -21.1922   -7.6140   23.9766 H   0  0  0  0  0  0
  -21.1528   -6.0523   25.9130 H   0  0  0  0  0  0
  -22.0568   -2.7625   23.2862 H   0  0  0  0  0  0
  -22.4034  -11.9791   22.4863 H   0  0  0  0  0  0
  -21.1095  -13.1173   22.2612 H   0  0  0  0  0  0
  -24.6412  -15.8473   20.5276 H   0  0  0  0  0  0
  -26.2669  -15.6459   20.1000 H   0  0  0  0  0  0
  -26.7108  -32.5568   23.1214 H   0  0  0  0  0  0
  -25.0092  -33.9836   25.0528 H   0  0  0  0  0  0
  -22.6950  -31.3065   21.4056 H   0  0  0  0  0  0
  -23.3749  -35.9660   23.3331 H   0  0  0  0  0  0
  -24.3559  -36.8916   22.2048 H   0  0  0  0  0  0
  -23.7226  -37.6540   23.6636 H   0  0  0  0  0  0
  -26.0380  -31.5969   20.5912 H   0  0  0  0  0  0
  -26.8196  -30.8987   21.9812 H   0  0  0  0  0  0
  -28.1076  -29.1325   21.1620 H   0  0  0  0  0  0
  -26.1002  -25.9848   19.0079 H   0  0  0  0  0  0
  -24.0039  -27.2841   19.0297 H   0  0  0  0  0  0
  -23.7362  -30.5922   19.4055 H   0  0  0  0  0  0
  -22.7412  -29.2408   19.8630 H   0  0  0  0  0  0
  -25.1299  -36.2041   25.0828 H   0  0  0  0  0  0
  -20.9958  -28.3271   24.1425 H   0  0  0  0  0  0
  -20.5723  -26.2299   23.3594 H   0  0  0  0  0  0
  -21.6653  -26.7504   22.1180 H   0  0  0  0  0  0
  -19.6939  -25.6303   21.1260 H   0  0  0  0  0  0
  -19.6719  -27.3193   20.6733 H   0  0  0  0  0  0
  -17.4208  -26.6690   21.3995 H   0  0  0  0  0  0
  -18.0329  -26.0081   22.8994 H   0  0  0  0  0  0
  -19.7922  -30.7246   24.2339 H   0  0  0  0  0  0
  -17.5014  -31.6282   24.5170 H   0  0  0  0  0  0
  -15.5356  -30.3039   23.7624 H   0  0  0  0  0  0
  -15.8650  -28.0864   22.7060 H   0  0  0  0  0  0
  -24.5886  -30.7081   25.7775 H   0  0  0  0  0  0
  -24.8950  -32.2813   26.5052 H   0  0  0  0  0  0
  -25.8085  -30.8739   27.0188 H   0  0  0  0  0  0
  -26.2800  -29.6852   24.1179 H   0  0  0  0  0  0
  -27.4107  -29.7328   25.4542 H   0  0  0  0  0  0
  -27.8635  -30.4431   23.9200 H   0  0  0  0  0  0
  -27.2683  -33.3613   26.2172 H   0  0  0  0  0  0
  -28.3822  -32.6955   25.0317 H   0  0  0  0  0  0
  -28.0774  -31.8418   26.5361 H   0  0  0  0  0  0
  -28.2620  -38.0115   24.7526 H   0  0  0  0  0  0
  -28.1071  -36.2656   24.6292 H   0  0  0  0  0  0
  -27.2295  -37.1489   25.8856 H   0  0  0  0  0  0
  -20.9311  -29.8728   21.6877 H   0  0  0  0  0  0
  -26.0210  -38.2904   24.1392 H   0  0  0  0  0  0
  -28.3524  -20.5828   18.6132 H   0  0  0  0  0  0
  -30.8557  -17.0499   22.4454 H   0  0  0  0  0  0
  -31.8683  -16.7840   21.0699 H   0  0  0  0  0  0
  -30.6058  -25.4745   20.7374 H   0  0  0  0  0  0
  -29.9813  -24.7567   19.2761 H   0  0  0  0  0  0
  -28.9977  -22.3222   19.4590 H   0  0  0  0  0  0
  -27.9093  -22.8317   20.7148 H   0  0  0  0  0  0
  -28.2214  -25.4932   21.6675 H   0  0  0  0  0  0
  -27.6709  -24.8750   20.1139 H   0  0  0  0  0  0
  -30.0003  -23.5014   22.0788 H   0  0  0  0  0  0
  -30.8639  -16.0183   18.7445 H   0  0  0  0  0  0
  -30.2204  -16.8251   17.3952 H   0  0  0  0  0  0
  -29.4419  -21.2290   22.1757 H   0  0  0  0  0  0
  -29.3285  -15.2802   21.7105 H   0  0  0  0  0  0
  -31.9369  -23.4246   20.7844 H   0  0  0  0  0  0
  1 25  1  0  0  0
  1 30  2  0  0  0
  1 84  1  0  0  0
  2  3  1  0  0  0
  2 25  1  0  0  0
  2 86  1  0  0  0
  2 87  1  0  0  0
  3  4  1  0  0  0
  3 88  1  0  0  0
  3 89  1  0  0  0
  4  5  1  0  0  0
  4 90  1  0  0  0
  4 91  1  0  0  0
  5  6  1  0  0  0
  5 26  1  0  0  0
  5 92  1  0  0  0
  6 25  1  0  0  0
  6 93  1  0  0  0
  6 94  1  0  0  0
  7  8  2  0  0  0
  7 26  1  0  0  0
  7 29  1  0  0  0
  8  9  1  0  0  0
  8 22  1  0  0  0
  9 10  1  0  0  0
  9 27  2  0  0  0
 10 11  2  0  0  0
 10 15  1  0  0  0
 11 12  1  0  0  0
 11 95  1  0  0  0
 12 13  2  0  0  0
 12 96  1  0  0  0
 13 14  1  0  0  0
 13 31  1  0  0  0
 14 15  2  0  0  0
 14 97  1  0  0  0
 15 98  1  0  0  0
 16 17  2  0  0  0
 16 21  1  0  0  0
 16 31  1  0  0  0
 17 18  1  0  0  0
 17 99  1  0  0  0
 18 19  2  0  0  0
 18100  1  0  0  0
 19 20  1  0  0  0
 19 24  1  0  0  0
 20 21  2  0  0  0
 20101  1  0  0  0
 21 23  1  0  0  0
 22 28  1  0  0  0
 22 32  2  0  0  0
 26 27  1  0  0  0
 28102  1  0  0  0
 28103  1  0  0  0
 29104  1  0  0  0
 29105  1  0  0  0
 33 34  1  0  0  0
 33 66  1  0  0  0
 33 70  2  0  0  0
 34 36  1  0  0  0
 34 59  1  0  0  0
 34106  1  0  0  0
 35 44  2  0  0  0
 35 45  1  0  0  0
 35 68  1  0  0  0
 36 56  1  0  0  0
 36107  1  0  0  0
 37 39  1  0  0  0
 37 47  1  0  0  0
 37 66  1  0  0  0
 37108  1  0  0  0
 38 43  2  0  0  0
 38 46  1  0  0  0
 38 47  1  0  0  0
 39 64  1  0  0  0
 39 67  2  0  0  0
 40 52  1  0  0  0
 40 53  2  0  0  0
 40 58  1  0  0  0
 41109  1  0  0  0
 41110  1  0  0  0
 41111  1  0  0  0
 41 48  1  0  0  0
 42 43  1  0  0  0
 42 66  1  0  0  0
 42112  1  0  0  0
 42113  1  0  0  0
 43 44  1  0  0  0
 44114  1  0  0  0
 45 46  2  0  0  0
 45115  1  0  0  0
 46116  1  0  0  0
 47117  1  0  0  0
 47118  1  0  0  0
 48 56  1  0  0  0
 48 65  1  0  0  0
 48119  1  0  0  0
 49 50  1  0  0  0
 49 53  1  0  0  0
 49 64  1  0  0  0
 49120  1  0  0  0
 50 51  1  0  0  0
 50121  1  0  0  0
 50122  1  0  0  0
 51 52  1  0  0  0
 51123  1  0  0  0
 51124  1  0  0  0
 52125  1  0  0  0
 52126  1  0  0  0
 53 54  1  0  0  0
 54 55  2  0  0  0
 54127  1  0  0  0
 55 57  1  0  0  0
 55128  1  0  0  0
 56 69  2  0  0  0
 57 58  2  0  0  0
 57129  1  0  0  0
 58130  1  0  0  0
 59 60  1  0  0  0
 59 61  1  0  0  0
 59 62  1  0  0  0
 60131  1  0  0  0
 60132  1  0  0  0
 60133  1  0  0  0
 61134  1  0  0  0
 61135  1  0  0  0
 61136  1  0  0  0
 62137  1  0  0  0
 62138  1  0  0  0
 62139  1  0  0  0
 63 65  1  0  0  0
 63140  1  0  0  0
 63141  1  0  0  0
 63142  1  0  0  0
 64143  1  0  0  0
 65144  1  0  0  0
 68 78  1  0  0  0
 71 73  2  0  0  0
 71 80  1  0  0  0
 71145  1  0  0  0
 72 74  1  0  0  0
 72 75  1  0  0  0
 72 81  2  0  0  0
 73 81  1  0  0  0
 73 83  1  0  0  0
 74 80  2  0  0  0
 74 82  1  0  0  0
 75 84  1  0  0  0
 75146  1  0  0  0
 75147  1  0  0  0
 76 78  1  0  0  0
 76 79  1  0  0  0
 76148  1  0  0  0
 76149  1  0  0  0
 77 79  1  0  0  0
 77 83  1  0  0  0
 77150  1  0  0  0
 77151  1  0  0  0
 78152  1  0  0  0
 78153  1  0  0  0
 79 85  1  0  0  0
 79154  1  0  0  0
 82155  1  0  0  0
 82156  1  0  0  0
 83157  1  0  0  0
 84158  1  0  0  0
 85159  1  0  0  0
M  ISO  4   1 100  68 101  78 101  84 100
M  END
> <chiral flag>
0

> <version>
0

> <s_m_source_file>
/data/baiqing/PycharmProjects/Reinvent-master-3.2/result/LINK_invent/BTK/process_docking_weight1_custom_product_contain_oxygen_bond_distance_aromatic_linkinvent_7_9_3/rearranged_h_0194.sdf

> <i_m_source_file_index>
40

> <r_mmod_Potential_Energy-OPLS-2005>
-211.757797241211

> <r_mmod_Stretch_Energy-OPLS-2005>
37.1193008422852

> <r_mmod_Bend_Energy-OPLS-2005>
106.06160736084

> <r_mmod_Torsional_Energy-OPLS-2005>
230.763168334961

> <r_mmod_Improper_Torsional_Energy-OPLS-2005>
9.33183860778809

> <r_mmod_Van_der_Waal_Energy-OPLS-2005>
168.145950317383

> <r_mmod_Electrostatic_Energy-OPLS-2005>
-527.290588378906

> <r_mmod_Solvation_Energy-OPLS-2005>
-246.799758911133

> <b_mmod_Minimization_Converged-OPLS-2005>
0

> <r_mmod_RMS_Derivative-OPLS-2005>
5.53869009017944

$$$$
40
                    3D
 Structure written by MMmdl.
155163  0  0  1  0            999 V2000
  -30.5950  -14.7666   20.4538 C   0  0  0  0  0  0
  -30.4301  -12.4674   19.4764 C   0  0  0  0  0  0
  -29.5114  -12.5164   18.2349 C   0  0  0  0  0  0
  -28.0360  -12.3391   18.6443 C   0  0  0  0  0  0
  -27.6394  -13.2350   19.8481 C   0  0  2  0  0  0
  -28.6831  -13.1755   20.9852 C   0  0  0  0  0  0
  -25.2501  -13.8201   20.5688 C   0  0  0  0  0  0
  -24.1811  -13.0433   20.9228 C   0  0  0  0  0  0
  -24.6410  -11.6915   20.8764 C   0  0  0  0  0  0
  -23.9089  -10.4286   21.0428 C   0  0  0  0  0  0
  -24.3631   -9.4192   21.9198 C   0  0  0  0  0  0
  -23.6300   -8.2231   22.0757 C   0  0  0  0  0  0
  -22.4281   -8.0280   21.3552 C   0  0  0  0  0  0
  -21.9924   -9.0260   20.4655 C   0  0  0  0  0  0
  -22.7262  -10.2134   20.3075 C   0  0  0  0  0  0
  -21.6851   -6.0736   22.5286 C   0  0  0  0  0  0
  -21.4009   -6.5640   23.8222 C   0  0  0  0  0  0
  -21.3664   -5.6793   24.9184 C   0  0  0  0  0  0
  -21.6041   -4.3055   24.7237 C   0  0  0  0  0  0
  -21.8817   -3.8148   23.4360 C   0  0  0  0  0  0
  -21.9185   -4.6961   22.3413 C   0  0  0  0  0  0
  -22.7832  -13.5218   21.1881 C   0  0  0  0  0  0
  -22.1649   -4.2152   21.0993 F   0  0  0  0  0  0
  -21.5637   -3.4538   25.7744 F   0  0  0  0  0  0
  -29.9808  -13.5336   20.4034 N   0  0  0  0  0  0
  -26.2930  -12.9413   20.3262 N   0  0  0  0  0  0
  -25.9335  -11.6553   20.5747 N   0  0  0  0  0  0
  -22.0468  -12.8214   22.0430 N   0  0  0  0  0  0
  -25.4135  -15.1923   20.4058 N   0  0  0  0  0  0
  -31.7838  -14.8678   20.1385 O   0  0  0  0  0  0
  -21.6633   -6.8881   21.4250 O   0  0  0  0  0  0
  -22.3517  -14.5519   20.6720 O   0  0  0  0  0  0
  -24.6324  -31.8526   23.1948 C   0  0  0  0  0  0
  -25.9142  -32.4730   23.8302 C   0  0  1  0  0  0
  -27.2219  -27.2373   20.1333 C   0  0  0  0  0  0
  -25.5928  -33.8536   24.2226 N   0  0  0  0  0  0
  -23.4299  -30.4728   21.5381 C   0  0  2  0  0  0
  -24.8778  -28.9131   20.1089 C   0  0  0  0  0  0
  -22.7495  -29.4605   22.4901 C   0  0  0  0  0  0
  -18.0288  -28.1384   22.8495 C   0  0  0  0  0  0
  -24.1484  -36.7272   23.2642 C   0  0  0  0  0  0
  -25.9757  -30.7575   21.3787 C   0  0  0  0  0  0
  -26.0476  -29.3775   20.7210 C   0  0  0  0  0  0
  -27.2179  -28.5515   20.7212 C   0  0  0  0  0  0
  -26.0257  -26.8389   19.4990 C   0  0  0  0  0  0
  -24.8728  -27.6526   19.4886 C   0  0  0  0  0  0
  -23.6501  -29.8033   20.1546 C   0  0  0  0  0  0
  -25.4115  -36.3056   24.0321 C   0  0  1  0  0  0
  -20.5891  -28.3718   23.1282 C   0  0  2  0  0  0
  -20.6773  -26.9432   22.5426 C   0  0  0  0  0  0
  -19.5757  -26.6399   21.5217 C   0  0  0  0  0  0
  -18.1938  -26.7926   22.1637 C   0  0  0  0  0  0
  -19.1538  -28.8863   23.2890 C   0  0  0  0  0  0
  -18.9454  -30.1464   23.8901 C   0  0  0  0  0  0
  -17.6452  -30.6588   24.0554 C   0  0  0  0  0  0
  -25.9060  -34.9426   23.5082 C   0  0  0  0  0  0
  -16.5346  -29.9084   23.6320 C   0  0  0  0  0  0
  -16.7274  -28.6494   23.0361 C   0  0  0  0  0  0
  -26.4502  -31.6575   25.0707 C   0  0  0  0  0  0
  -25.3718  -31.3748   26.1422 C   0  0  0  0  0  0
  -27.0353  -30.2980   24.6232 C   0  0  0  0  0  0
  -27.6031  -32.4337   25.7490 C   0  0  0  0  0  0
  -27.5574  -37.1796   24.8468 C   0  0  0  0  0  0
  -21.4196  -29.3065   22.3657 N   0  0  0  0  0  0
  -26.4285  -37.3762   23.9411 N   0  0  0  0  0  0
  -24.6981  -31.0478   22.0928 N   0  0  0  0  0  0
  -23.4182  -28.8148   23.3009 O   0  0  0  0  0  0
  -28.3381  -26.3673   20.2177 O   0  0  0  0  0  0
  -26.5642  -34.8910   22.4657 O   0  0  0  0  0  0
  -23.5469  -32.1358   23.7230 O   0  0  0  0  0  0
  -27.8741  -18.2787   21.0684 C   0  0  0  0  0  0
  -29.1643  -18.5637   20.6019 C   0  0  0  0  0  0
  -26.9920  -19.3509   21.2137 C   0  0  0  0  0  0
  -28.5457  -20.8894   20.4987 C   0  0  0  0  0  0
  -26.8168  -23.5525   21.1796 C   0  0  0  0  0  0
  -30.2216  -17.3741   20.4663 C   0  0  0  0  0  0
  -28.3972  -24.9400   19.7124 C   0  0  0  0  0  0
  -28.2675  -23.6211   20.6689 C   0  0  2  0  0  0
  -29.4722  -19.8968   20.3077 N   0  0  0  0  0  0
  -27.3236  -20.6220   20.9419 N   0  0  0  0  0  0
  -25.7018  -19.1418   21.6721 N   0  0  0  0  0  0
  -28.8226  -22.2720   20.1635 N   0  0  0  0  0  0
  -29.8210  -15.9023   20.6444 N   0  0  0  0  0  0
  -31.4727  -12.5911   19.1792 H   0  0  0  0  0  0
  -30.3719  -11.4911   19.9603 H   0  0  0  0  0  0
  -29.7967  -11.7467   17.5166 H   0  0  0  0  0  0
  -29.6379  -13.4727   17.7241 H   0  0  0  0  0  0
  -27.8872  -11.2893   18.8988 H   0  0  0  0  0  0
  -27.3832  -12.5404   17.7945 H   0  0  0  0  0  0
  -27.6316  -14.2569   19.4688 H   0  0  0  0  0  0
  -28.7220  -12.1794   21.4279 H   0  0  0  0  0  0
  -28.4166  -13.8579   21.7941 H   0  0  0  0  0  0
  -25.2778   -9.5649   22.4771 H   0  0  0  0  0  0
  -23.9997   -7.4615   22.7482 H   0  0  0  0  0  0
  -21.0845   -8.8804   19.8962 H   0  0  0  0  0  0
  -22.3740  -10.9683   19.6189 H   0  0  0  0  0  0
  -21.1994   -7.6147   23.9728 H   0  0  0  0  0  0
  -21.1489   -6.0524   25.9091 H   0  0  0  0  0  0
  -22.0588   -2.7611   23.2865 H   0  0  0  0  0  0
  -22.4080  -11.9876   22.4827 H   0  0  0  0  0  0
  -21.1095  -13.1269   22.2640 H   0  0  0  0  0  0
  -24.6166  -15.8159   20.4624 H   0  0  0  0  0  0
  -26.2100  -15.6139   19.9472 H   0  0  0  0  0  0
  -26.7199  -32.5370   23.1031 H   0  0  0  0  0  0
  -25.0056  -33.9665   25.0355 H   0  0  0  0  0  0
  -22.7279  -31.2952   21.3878 H   0  0  0  0  0  0
  -23.3747  -35.9607   23.3310 H   0  0  0  0  0  0
  -24.3571  -36.8891   22.2058 H   0  0  0  0  0  0
  -23.7240  -37.6470   23.6670 H   0  0  0  0  0  0
  -26.1215  -31.5199   20.6113 H   0  0  0  0  0  0
  -26.8497  -30.8043   22.0168 H   0  0  0  0  0  0
  -28.1125  -28.9035   21.2164 H   0  0  0  0  0  0
  -25.9407  -25.8704   19.0310 H   0  0  0  0  0  0
  -23.9746  -27.2885   19.0090 H   0  0  0  0  0  0
  -23.7789  -30.5772   19.3970 H   0  0  0  0  0  0
  -22.7684  -29.2380   19.8489 H   0  0  0  0  0  0
  -25.1302  -36.1896   25.0814 H   0  0  0  0  0  0
  -20.9980  -28.3295   24.1404 H   0  0  0  0  0  0
  -20.5670  -26.2326   23.3639 H   0  0  0  0  0  0
  -21.6638  -26.7456   22.1216 H   0  0  0  0  0  0
  -19.6932  -25.6309   21.1248 H   0  0  0  0  0  0
  -19.6700  -27.3215   20.6751 H   0  0  0  0  0  0
  -17.4207  -26.6674   21.4040 H   0  0  0  0  0  0
  -18.0349  -26.0056   22.9030 H   0  0  0  0  0  0
  -19.7930  -30.7268   24.2285 H   0  0  0  0  0  0
  -17.5008  -31.6278   24.5137 H   0  0  0  0  0  0
  -15.5345  -30.2987   23.7639 H   0  0  0  0  0  0
  -15.8671  -28.0807   22.7089 H   0  0  0  0  0  0
  -24.5886  -30.7101   25.7763 H   0  0  0  0  0  0
  -24.8915  -32.2926   26.4827 H   0  0  0  0  0  0
  -25.8025  -30.8943   27.0216 H   0  0  0  0  0  0
  -26.2953  -29.6719   24.1228 H   0  0  0  0  0  0
  -27.3978  -29.7256   25.4781 H   0  0  0  0  0  0
  -27.8856  -30.4225   23.9521 H   0  0  0  0  0  0
  -27.2611  -33.3638   26.2047 H   0  0  0  0  0  0
  -28.3857  -32.6906   25.0338 H   0  0  0  0  0  0
  -28.0687  -31.8486   26.5431 H   0  0  0  0  0  0
  -28.2593  -38.0088   24.7501 H   0  0  0  0  0  0
  -28.1063  -36.2618   24.6309 H   0  0  0  0  0  0
  -27.2291  -37.1464   25.8869 H   0  0  0  0  0  0
  -20.9393  -29.8792   21.6859 H   0  0  0  0  0  0
  -26.0156  -38.2832   24.1411 H   0  0  0  0  0  0
  -27.5737  -17.2726   21.3209 H   0  0  0  0  0  0
  -26.7217  -22.8977   22.0462 H   0  0  0  0  0  0
  -26.1328  -23.2023   20.4070 H   0  0  0  0  0  0
  -26.4698  -24.5348   21.5032 H   0  0  0  0  0  0
  -31.0097  -17.5802   21.1920 H   0  0  0  0  0  0
  -30.6953  -17.4721   19.4885 H   0  0  0  0  0  0
  -29.3984  -24.8848   19.2836 H   0  0  0  0  0  0
  -27.7514  -24.8147   18.8453 H   0  0  0  0  0  0
  -28.8859  -23.8415   21.5395 H   0  0  0  0  0  0
  -25.3276  -18.2009   21.6751 H   0  0  0  0  0  0
  -25.0095  -19.8634   21.5148 H   0  0  0  0  0  0
  -29.7352  -22.3773   19.7361 H   0  0  0  0  0  0
  -28.8509  -15.7508   20.8703 H   0  0  0  0  0  0
  1 25  1  0  0  0
  1 30  2  0  0  0
  1 83  1  0  0  0
  2  3  1  0  0  0
  2 25  1  0  0  0
  2 84  1  0  0  0
  2 85  1  0  0  0
  3  4  1  0  0  0
  3 86  1  0  0  0
  3 87  1  0  0  0
  4  5  1  0  0  0
  4 88  1  0  0  0
  4 89  1  0  0  0
  5  6  1  0  0  0
  5 26  1  0  0  0
  5 90  1  0  0  0
  6 25  1  0  0  0
  6 91  1  0  0  0
  6 92  1  0  0  0
  7  8  2  0  0  0
  7 26  1  0  0  0
  7 29  1  0  0  0
  8  9  1  0  0  0
  8 22  1  0  0  0
  9 10  1  0  0  0
  9 27  2  0  0  0
 10 11  2  0  0  0
 10 15  1  0  0  0
 11 12  1  0  0  0
 11 93  1  0  0  0
 12 13  2  0  0  0
 12 94  1  0  0  0
 13 14  1  0  0  0
 13 31  1  0  0  0
 14 15  2  0  0  0
 14 95  1  0  0  0
 15 96  1  0  0  0
 16 17  2  0  0  0
 16 21  1  0  0  0
 16 31  1  0  0  0
 17 18  1  0  0  0
 17 97  1  0  0  0
 18 19  2  0  0  0
 18 98  1  0  0  0
 19 20  1  0  0  0
 19 24  1  0  0  0
 20 21  2  0  0  0
 20 99  1  0  0  0
 21 23  1  0  0  0
 22 28  1  0  0  0
 22 32  2  0  0  0
 26 27  1  0  0  0
 28100  1  0  0  0
 28101  1  0  0  0
 29102  1  0  0  0
 29103  1  0  0  0
 33 34  1  0  0  0
 33 66  1  0  0  0
 33 70  2  0  0  0
 34 36  1  0  0  0
 34 59  1  0  0  0
 34104  1  0  0  0
 35 44  2  0  0  0
 35 45  1  0  0  0
 35 68  1  0  0  0
 36 56  1  0  0  0
 36105  1  0  0  0
 37 39  1  0  0  0
 37 47  1  0  0  0
 37 66  1  0  0  0
 37106  1  0  0  0
 38 43  2  0  0  0
 38 46  1  0  0  0
 38 47  1  0  0  0
 39 64  1  0  0  0
 39 67  2  0  0  0
 40 52  1  0  0  0
 40 53  2  0  0  0
 40 58  1  0  0  0
 41107  1  0  0  0
 41108  1  0  0  0
 41109  1  0  0  0
 41 48  1  0  0  0
 42 43  1  0  0  0
 42 66  1  0  0  0
 42110  1  0  0  0
 42111  1  0  0  0
 43 44  1  0  0  0
 44112  1  0  0  0
 45 46  2  0  0  0
 45113  1  0  0  0
 46114  1  0  0  0
 47115  1  0  0  0
 47116  1  0  0  0
 48 56  1  0  0  0
 48 65  1  0  0  0
 48117  1  0  0  0
 49 50  1  0  0  0
 49 53  1  0  0  0
 49 64  1  0  0  0
 49118  1  0  0  0
 50 51  1  0  0  0
 50119  1  0  0  0
 50120  1  0  0  0
 51 52  1  0  0  0
 51121  1  0  0  0
 51122  1  0  0  0
 52123  1  0  0  0
 52124  1  0  0  0
 53 54  1  0  0  0
 54 55  2  0  0  0
 54125  1  0  0  0
 55 57  1  0  0  0
 55126  1  0  0  0
 56 69  2  0  0  0
 57 58  2  0  0  0
 57127  1  0  0  0
 58128  1  0  0  0
 59 60  1  0  0  0
 59 61  1  0  0  0
 59 62  1  0  0  0
 60129  1  0  0  0
 60130  1  0  0  0
 60131  1  0  0  0
 61132  1  0  0  0
 61133  1  0  0  0
 61134  1  0  0  0
 62135  1  0  0  0
 62136  1  0  0  0
 62137  1  0  0  0
 63 65  1  0  0  0
 63138  1  0  0  0
 63139  1  0  0  0
 63140  1  0  0  0
 64141  1  0  0  0
 65142  1  0  0  0
 68 77  1  0  0  0
 71 72  2  0  0  0
 71 73  1  0  0  0
 71143  1  0  0  0
 72 76  1  0  0  0
 72 79  1  0  0  0
 73 80  2  0  0  0
 73 81  1  0  0  0
 74 79  2  0  0  0
 74 80  1  0  0  0
 74 82  1  0  0  0
 75144  1  0  0  0
 75145  1  0  0  0
 75146  1  0  0  0
 75 78  1  0  0  0
 76 83  1  0  0  0
 76147  1  0  0  0
 76148  1  0  0  0
 77 78  1  0  0  0
 77149  1  0  0  0
 77150  1  0  0  0
 78 82  1  0  0  0
 78151  1  0  0  0
 81152  1  0  0  0
 81153  1  0  0  0
 82154  1  0  0  0
 83155  1  0  0  0
M  ISO  4   1 100  68 101  77 101  83 100
M  END
> <chiral flag>
0

> <version>
0

> <s_m_source_file>
/data/baiqing/PycharmProjects/Reinvent-master-3.2/result/LINK_invent/BTK/process_docking_weight1_custom_product_contain_oxygen_bond_distance_aromatic_linkinvent_7_9_3/rearranged_h_0194.sdf

> <i_m_source_file_index>
41

> <r_mmod_Potential_Energy-OPLS-2005>
-622.27685546875

> <r_mmod_Stretch_Energy-OPLS-2005>
134.569320678711

> <r_mmod_Bend_Energy-OPLS-2005>
199.582672119141

> <r_mmod_Torsional_Energy-OPLS-2005>
194.73095703125

> <r_mmod_Improper_Torsional_Energy-OPLS-2005>
9.51573657989502

> <r_mmod_Van_der_Waal_Energy-OPLS-2005>
139.6484375

> <r_mmod_Electrostatic_Energy-OPLS-2005>
-1140.00537109375

> <r_mmod_Solvation_Energy-OPLS-2005>
-255.595184326172

> <b_mmod_Minimization_Converged-OPLS-2005>
0

> <r_mmod_RMS_Derivative-OPLS-2005>
1.80854332447052

$$$$
41
                    3D
 Structure written by MMmdl.
160168  0  0  1  0            999 V2000
  -30.7740  -14.4030   20.6340 C   0  0  0  0  0  0
  -30.4018  -12.2861   19.4138 C   0  0  0  0  0  0
  -29.4850  -12.5309   18.2000 C   0  0  0  0  0  0
  -28.0086  -12.3933   18.6172 C   0  0  0  0  0  0
  -27.6662  -13.2125   19.8865 C   0  0  2  0  0  0
  -28.7111  -12.9757   21.0047 C   0  0  0  0  0  0
  -25.2625  -13.8182   20.5693 C   0  0  0  0  0  0
  -24.1849  -13.0419   20.9122 C   0  0  0  0  0  0
  -24.6396  -11.6908   20.8727 C   0  0  0  0  0  0
  -23.9047  -10.4274   21.0393 C   0  0  0  0  0  0
  -24.3589   -9.4213   21.9198 C   0  0  0  0  0  0
  -23.6263   -8.2258   22.0786 C   0  0  0  0  0  0
  -22.4250   -8.0282   21.3571 C   0  0  0  0  0  0
  -21.9883   -9.0243   20.4672 C   0  0  0  0  0  0
  -22.7203  -10.2119   20.3070 C   0  0  0  0  0  0
  -21.6847   -6.0710   22.5283 C   0  0  0  0  0  0
  -21.4012   -6.5637   23.8213 C   0  0  0  0  0  0
  -21.3654   -5.6805   24.9176 C   0  0  0  0  0  0
  -21.6074   -4.3074   24.7240 C   0  0  0  0  0  0
  -21.8808   -3.8135   23.4358 C   0  0  0  0  0  0
  -21.9188   -4.6941   22.3403 C   0  0  0  0  0  0
  -22.7891  -13.5276   21.1749 C   0  0  0  0  0  0
  -22.1670   -4.2141   21.0982 F   0  0  0  0  0  0
  -21.5611   -3.4549   25.7737 F   0  0  0  0  0  0
  -30.0501  -13.2611   20.4600 N   0  0  0  0  0  0
  -26.3070  -12.9355   20.3455 N   0  0  0  0  0  0
  -25.9342  -11.6506   20.5803 N   0  0  0  0  0  0
  -22.0474  -12.8306   22.0328 N   0  0  0  0  0  0
  -25.4337  -15.1856   20.4064 N   0  0  0  0  0  0
  -31.8071  -14.6265   19.9978 O   0  0  0  0  0  0
  -21.6644   -6.8838   21.4235 O   0  0  0  0  0  0
  -22.3595  -14.5569   20.6553 O   0  0  0  0  0  0
  -24.6120  -31.8674   23.2142 C   0  0  0  0  0  0
  -25.9037  -32.4839   23.8394 C   0  0  1  0  0  0
  -27.2305  -27.4126   20.1280 C   0  0  0  0  0  0
  -25.5889  -33.8632   24.2325 N   0  0  0  0  0  0
  -23.4004  -30.4955   21.5451 C   0  0  2  0  0  0
  -24.8584  -28.9667   20.0963 C   0  0  0  0  0  0
  -22.7374  -29.4727   22.4940 C   0  0  0  0  0  0
  -18.0317  -28.1354   22.8392 C   0  0  0  0  0  0
  -24.1486  -36.7323   23.2642 C   0  0  0  0  0  0
  -25.9293  -30.8346   21.3675 C   0  0  0  0  0  0
  -26.0117  -29.4676   20.7157 C   0  0  0  0  0  0
  -27.1949  -28.6925   20.7373 C   0  0  0  0  0  0
  -26.0807  -26.9647   19.4459 C   0  0  0  0  0  0
  -24.8906  -27.7158   19.4561 C   0  0  0  0  0  0
  -23.6157  -29.8277   20.1570 C   0  0  0  0  0  0
  -25.4099  -36.3133   24.0366 C   0  0  1  0  0  0
  -20.5859  -28.3764   23.1377 C   0  0  2  0  0  0
  -20.6937  -26.9483   22.5522 C   0  0  0  0  0  0
  -19.5977  -26.6285   21.5296 C   0  0  0  0  0  0
  -18.2045  -26.7954   22.1422 C   0  0  0  0  0  0
  -19.1490  -28.8835   23.2946 C   0  0  0  0  0  0
  -18.9343  -30.1391   23.9033 C   0  0  0  0  0  0
  -17.6281  -30.6461   24.0593 C   0  0  0  0  0  0
  -25.9009  -34.9480   23.5136 C   0  0  0  0  0  0
  -16.5275  -29.8965   23.6085 C   0  0  0  0  0  0
  -16.7295  -28.6416   23.0037 C   0  0  0  0  0  0
  -26.4482  -31.6613   25.0716 C   0  0  0  0  0  0
  -25.3772  -31.3671   26.1472 C   0  0  0  0  0  0
  -27.0313  -30.3069   24.6054 C   0  0  0  0  0  0
  -27.6063  -32.4305   25.7497 C   0  0  0  0  0  0
  -27.5577  -37.1842   24.8477 C   0  0  0  0  0  0
  -21.4066  -29.3235   22.3821 N   0  0  0  0  0  0
  -26.4287  -37.3818   23.9435 N   0  0  0  0  0  0
  -24.6650  -31.0789   22.1017 N   0  0  0  0  0  0
  -23.4171  -28.8208   23.2909 O   0  0  0  0  0  0
  -28.3738  -26.6403   20.2519 O   0  0  0  0  0  0
  -26.5562  -34.8910   22.4687 O   0  0  0  0  0  0
  -23.5332  -32.1481   23.7519 O   0  0  0  0  0  0
  -31.3187  -18.6793   20.5841 C   0  0  0  0  0  0
  -30.5642  -17.8055   21.3315 C   0  0  0  0  0  0
  -29.1509  -19.5995   21.2359 C   0  0  0  0  0  0
  -26.5147  -21.8581   22.6914 C   0  0  0  0  0  0
  -31.0613  -16.5067   21.9262 C   0  0  0  0  0  0
  -27.7624  -22.7047   20.5338 C   0  0  0  0  0  0
  -28.4034  -25.2273   19.8972 C   0  0  0  0  0  0
  -27.7943  -21.8105   21.8304 C   0  0  1  0  0  0
  -27.3825  -24.2438   20.5880 C   0  0  2  0  0  0
  -29.3064  -18.3344   21.6577 N   0  0  0  0  0  0
  -28.0467  -20.3844   21.5587 N   0  0  0  0  0  0
  -30.3305  -15.2854   21.5419 N   0  0  0  0  0  0
  -26.9446  -24.7378   21.9151 N   0  3  0  0  0  0
  -30.5035  -20.1996   20.3042 S   0  0  0  0  0  0
  -31.4528  -12.3406   19.1229 H   0  0  0  0  0  0
  -30.2503  -11.2668   19.7856 H   0  0  0  0  0  0
  -29.7127  -11.8267   17.3982 H   0  0  0  0  0  0
  -29.6692  -13.5239   17.7935 H   0  0  0  0  0  0
  -27.8160  -11.3355   18.7968 H   0  0  0  0  0  0
  -27.3538  -12.6886   17.7946 H   0  0  0  0  0  0
  -27.7157  -14.2666   19.6116 H   0  0  0  0  0  0
  -28.6673  -11.9382   21.3457 H   0  0  0  0  0  0
  -28.4744  -13.5742   21.8816 H   0  0  0  0  0  0
  -25.2702   -9.5727   22.4804 H   0  0  0  0  0  0
  -23.9960   -7.4679   22.7562 H   0  0  0  0  0  0
  -21.0799   -8.8746   19.9007 H   0  0  0  0  0  0
  -22.3629  -10.9647   19.6216 H   0  0  0  0  0  0
  -21.2016   -7.6156   23.9703 H   0  0  0  0  0  0
  -21.1502   -6.0539   25.9076 H   0  0  0  0  0  0
  -22.0582   -2.7600   23.2860 H   0  0  0  0  0  0
  -22.3998  -11.9965   22.4732 H   0  0  0  0  0  0
  -21.1152  -13.1497   22.2519 H   0  0  0  0  0  0
  -24.6665  -15.8418   20.4879 H   0  0  0  0  0  0
  -26.3021  -15.6244   20.1186 H   0  0  0  0  0  0
  -26.7093  -32.5553   23.1141 H   0  0  0  0  0  0
  -25.0097  -33.9789   25.0510 H   0  0  0  0  0  0
  -22.6908  -31.3136   21.4002 H   0  0  0  0  0  0
  -23.3752  -35.9659   23.3336 H   0  0  0  0  0  0
  -24.3567  -36.8902   22.2044 H   0  0  0  0  0  0
  -23.7219  -37.6521   23.6629 H   0  0  0  0  0  0
  -26.0421  -31.5981   20.5972 H   0  0  0  0  0  0
  -26.8168  -30.8918   21.9861 H   0  0  0  0  0  0
  -28.0659  -29.0699   21.2530 H   0  0  0  0  0  0
  -26.0801  -26.0342   18.9035 H   0  0  0  0  0  0
  -24.0236  -27.3314   18.9385 H   0  0  0  0  0  0
  -23.7171  -30.6099   19.4041 H   0  0  0  0  0  0
  -22.7433  -29.2445   19.8569 H   0  0  0  0  0  0
  -25.1281  -36.1992   25.0872 H   0  0  0  0  0  0
  -20.9964  -28.3471   24.1538 H   0  0  0  0  0  0
  -20.6011  -26.2361   23.3767 H   0  0  0  0  0  0
  -21.6829  -26.7692   22.1250 H   0  0  0  0  0  0
  -19.7071  -25.6088   21.1539 H   0  0  0  0  0  0
  -19.7037  -27.2858   20.6617 H   0  0  0  0  0  0
  -17.4557  -26.6826   21.3542 H   0  0  0  0  0  0
  -18.0202  -26.0033   22.8713 H   0  0  0  0  0  0
  -19.7747  -30.7217   24.2569 H   0  0  0  0  0  0
  -17.4632  -31.6041   24.5400 H   0  0  0  0  0  0
  -15.5187  -30.2733   23.7172 H   0  0  0  0  0  0
  -15.8784  -28.0793   22.6388 H   0  0  0  0  0  0
  -24.5967  -30.6990   25.7819 H   0  0  0  0  0  0
  -24.8951  -32.2794   26.4977 H   0  0  0  0  0  0
  -25.8179  -30.8810   27.0189 H   0  0  0  0  0  0
  -26.2839  -29.6827   24.1143 H   0  0  0  0  0  0
  -27.4140  -29.7295   25.4485 H   0  0  0  0  0  0
  -27.8655  -30.4427   23.9175 H   0  0  0  0  0  0
  -27.2710  -33.3600   26.2099 H   0  0  0  0  0  0
  -28.3888  -32.6855   25.0347 H   0  0  0  0  0  0
  -28.0707  -31.8389   26.5396 H   0  0  0  0  0  0
  -28.2634  -38.0104   24.7499 H   0  0  0  0  0  0
  -28.1031  -36.2638   24.6341 H   0  0  0  0  0  0
  -27.2299  -37.1538   25.8879 H   0  0  0  0  0  0
  -20.9102  -29.9260   21.7405 H   0  0  0  0  0  0
  -26.0178  -38.2909   24.1397 H   0  0  0  0  0  0
  -32.3364  -18.5457   20.2477 H   0  0  0  0  0  0
  -26.4919  -21.0445   23.4245 H   0  0  0  0  0  0
  -25.6141  -21.7728   22.0903 H   0  0  0  0  0  0
  -26.4452  -22.7630   23.2853 H   0  0  0  0  0  0
  -32.1177  -16.4016   21.6792 H   0  0  0  0  0  0
  -31.0623  -16.5872   23.0110 H   0  0  0  0  0  0
  -27.0576  -22.2416   19.8422 H   0  0  0  0  0  0
  -28.7264  -22.6088   20.0366 H   0  0  0  0  0  0
  -28.3560  -25.1432   18.8078 H   0  0  0  0  0  0
  -29.4129  -24.9013   20.1500 H   0  0  0  0  0  0
  -28.6172  -22.1552   22.4613 H   0  0  0  0  0  0
  -26.4620  -24.2900   20.0020 H   0  0  0  0  0  0
  -27.3618  -19.8131   22.0440 H   0  0  0  0  0  0
  -29.5212  -15.0506   22.0977 H   0  0  0  0  0  0
  -26.4245  -25.5970   21.8086 H   0  0  0  0  0  0
  -27.7078  -24.8976   22.5529 H   0  0  0  0  0  0
  -26.3217  -24.0693   22.3411 H   0  0  0  0  0  0
  1 25  1  0  0  0
  1 30  2  0  0  0
  1 82  1  0  0  0
  2  3  1  0  0  0
  2 25  1  0  0  0
  2 85  1  0  0  0
  2 86  1  0  0  0
  3  4  1  0  0  0
  3 87  1  0  0  0
  3 88  1  0  0  0
  4  5  1  0  0  0
  4 89  1  0  0  0
  4 90  1  0  0  0
  5  6  1  0  0  0
  5 26  1  0  0  0
  5 91  1  0  0  0
  6 25  1  0  0  0
  6 92  1  0  0  0
  6 93  1  0  0  0
  7  8  2  0  0  0
  7 26  1  0  0  0
  7 29  1  0  0  0
  8  9  1  0  0  0
  8 22  1  0  0  0
  9 10  1  0  0  0
  9 27  2  0  0  0
 10 11  2  0  0  0
 10 15  1  0  0  0
 11 12  1  0  0  0
 11 94  1  0  0  0
 12 13  2  0  0  0
 12 95  1  0  0  0
 13 14  1  0  0  0
 13 31  1  0  0  0
 14 15  2  0  0  0
 14 96  1  0  0  0
 15 97  1  0  0  0
 16 17  2  0  0  0
 16 21  1  0  0  0
 16 31  1  0  0  0
 17 18  1  0  0  0
 17 98  1  0  0  0
 18 19  2  0  0  0
 18 99  1  0  0  0
 19 20  1  0  0  0
 19 24  1  0  0  0
 20 21  2  0  0  0
 20100  1  0  0  0
 21 23  1  0  0  0
 22 28  1  0  0  0
 22 32  2  0  0  0
 26 27  1  0  0  0
 28101  1  0  0  0
 28102  1  0  0  0
 29103  1  0  0  0
 29104  1  0  0  0
 33 34  1  0  0  0
 33 66  1  0  0  0
 33 70  2  0  0  0
 34 36  1  0  0  0
 34 59  1  0  0  0
 34105  1  0  0  0
 35 44  2  0  0  0
 35 45  1  0  0  0
 35 68  1  0  0  0
 36 56  1  0  0  0
 36106  1  0  0  0
 37 39  1  0  0  0
 37 47  1  0  0  0
 37 66  1  0  0  0
 37107  1  0  0  0
 38 43  2  0  0  0
 38 46  1  0  0  0
 38 47  1  0  0  0
 39 64  1  0  0  0
 39 67  2  0  0  0
 40 52  1  0  0  0
 40 53  2  0  0  0
 40 58  1  0  0  0
 41108  1  0  0  0
 41109  1  0  0  0
 41110  1  0  0  0
 41 48  1  0  0  0
 42 43  1  0  0  0
 42 66  1  0  0  0
 42111  1  0  0  0
 42112  1  0  0  0
 43 44  1  0  0  0
 44113  1  0  0  0
 45 46  2  0  0  0
 45114  1  0  0  0
 46115  1  0  0  0
 47116  1  0  0  0
 47117  1  0  0  0
 48 56  1  0  0  0
 48 65  1  0  0  0
 48118  1  0  0  0
 49 50  1  0  0  0
 49 53  1  0  0  0
 49 64  1  0  0  0
 49119  1  0  0  0
 50 51  1  0  0  0
 50120  1  0  0  0
 50121  1  0  0  0
 51 52  1  0  0  0
 51122  1  0  0  0
 51123  1  0  0  0
 52124  1  0  0  0
 52125  1  0  0  0
 53 54  1  0  0  0
 54 55  2  0  0  0
 54126  1  0  0  0
 55 57  1  0  0  0
 55127  1  0  0  0
 56 69  2  0  0  0
 57 58  2  0  0  0
 57128  1  0  0  0
 58129  1  0  0  0
 59 60  1  0  0  0
 59 61  1  0  0  0
 59 62  1  0  0  0
 60130  1  0  0  0
 60131  1  0  0  0
 60132  1  0  0  0
 61133  1  0  0  0
 61134  1  0  0  0
 61135  1  0  0  0
 62136  1  0  0  0
 62137  1  0  0  0
 62138  1  0  0  0
 63 65  1  0  0  0
 63139  1  0  0  0
 63140  1  0  0  0
 63141  1  0  0  0
 64142  1  0  0  0
 65143  1  0  0  0
 68 77  1  0  0  0
 71 72  2  0  0  0
 71 84  1  0  0  0
 71144  1  0  0  0
 72 75  1  0  0  0
 72 80  1  0  0  0
 73 80  2  0  0  0
 73 81  1  0  0  0
 73 84  1  0  0  0
 74145  1  0  0  0
 74146  1  0  0  0
 74147  1  0  0  0
 74 78  1  0  0  0
 75 82  1  0  0  0
 75148  1  0  0  0
 75149  1  0  0  0
 76 78  1  0  0  0
 76 79  1  0  0  0
 76150  1  0  0  0
 76151  1  0  0  0
 77 79  1  0  0  0
 77152  1  0  0  0
 77153  1  0  0  0
 78 81  1  0  0  0
 78154  1  0  0  0
 79 83  1  0  0  0
 79155  1  0  0  0
 81156  1  0  0  0
 82157  1  0  0  0
 83158  1  0  0  0
 83159  1  0  0  0
 83160  1  0  0  0
M  CHG  1  83   1
M  ISO  4   1 100  68 101  77 101  82 100
M  END
> <chiral flag>
0

> <version>
0

> <s_m_source_file>
/data/baiqing/PycharmProjects/Reinvent-master-3.2/result/LINK_invent/BTK/process_docking_weight1_custom_product_contain_oxygen_bond_distance_aromatic_linkinvent_7_9_3/rearranged_h_0194.sdf

> <i_m_source_file_index>
42

> <r_mmod_Potential_Energy-OPLS-2005>
-380.080383300781

> <r_mmod_Stretch_Energy-OPLS-2005>
46.5763397216797

> <r_mmod_Bend_Energy-OPLS-2005>
135.803100585938

> <r_mmod_Torsional_Energy-OPLS-2005>
230.726852416992

> <r_mmod_Improper_Torsional_Energy-OPLS-2005>
4.62963962554932

> <r_mmod_Van_der_Waal_Energy-OPLS-2005>
134.128662109375

> <r_mmod_Electrostatic_Energy-OPLS-2005>
-494.616119384766

> <r_mmod_Solvation_Energy-OPLS-2005>
-454.36328125

> <b_mmod_Minimization_Converged-OPLS-2005>
0

> <r_mmod_RMS_Derivative-OPLS-2005>
8.99226665496826

$$$$
42
                    3D
 Structure written by MMmdl.
156164  0  0  1  0            999 V2000
  -30.7085  -14.4998   20.5720 C   0  0  0  0  0  0
  -30.4195  -12.3258   19.4325 C   0  0  0  0  0  0
  -29.4946  -12.5092   18.2120 C   0  0  0  0  0  0
  -28.0180  -12.3613   18.6254 C   0  0  0  0  0  0
  -27.6586  -13.2138   19.8718 C   0  0  2  0  0  0
  -28.7000  -13.0242   20.9981 C   0  0  0  0  0  0
  -25.2573  -13.8177   20.5678 C   0  0  0  0  0  0
  -24.1831  -13.0444   20.9181 C   0  0  0  0  0  0
  -24.6393  -11.6912   20.8736 C   0  0  0  0  0  0
  -23.9062  -10.4290   21.0407 C   0  0  0  0  0  0
  -24.3615   -9.4208   21.9187 C   0  0  0  0  0  0
  -23.6289   -8.2242   22.0758 C   0  0  0  0  0  0
  -22.4270   -8.0280   21.3550 C   0  0  0  0  0  0
  -21.9905   -9.0253   20.4650 C   0  0  0  0  0  0
  -22.7232  -10.2131   20.3057 C   0  0  0  0  0  0
  -21.6856   -6.0732   22.5281 C   0  0  0  0  0  0
  -21.4015   -6.5636   23.8212 C   0  0  0  0  0  0
  -21.3660   -5.6792   24.9175 C   0  0  0  0  0  0
  -21.6045   -4.3056   24.7231 C   0  0  0  0  0  0
  -21.8817   -3.8143   23.4355 C   0  0  0  0  0  0
  -21.9191   -4.6957   22.3406 C   0  0  0  0  0  0
  -22.7852  -13.5236   21.1846 C   0  0  0  0  0  0
  -22.1659   -4.2142   21.0986 F   0  0  0  0  0  0
  -21.5633   -3.4540   25.7745 F   0  0  0  0  0  0
  -30.0287  -13.3258   20.4412 N   0  0  0  0  0  0
  -26.3010  -12.9356   20.3353 N   0  0  0  0  0  0
  -25.9324  -11.6507   20.5763 N   0  0  0  0  0  0
  -22.0495  -12.8221   22.0402 N   0  0  0  0  0  0
  -25.4305  -15.1895   20.4085 N   0  0  0  0  0  0
  -31.8382  -14.6629   20.1059 O   0  0  0  0  0  0
  -21.6642   -6.8875   21.4243 O   0  0  0  0  0  0
  -22.3533  -14.5541   20.6695 O   0  0  0  0  0  0
  -24.6195  -31.8668   23.2101 C   0  0  0  0  0  0
  -25.9080  -32.4815   23.8396 C   0  0  1  0  0  0
  -27.2211  -27.3877   20.0961 C   0  0  0  0  0  0
  -25.5928  -33.8614   24.2323 N   0  0  0  0  0  0
  -23.4083  -30.4937   21.5528 C   0  0  2  0  0  0
  -24.8525  -28.9667   20.1101 C   0  0  0  0  0  0
  -22.7441  -29.4653   22.4980 C   0  0  0  0  0  0
  -18.0280  -28.1374   22.8495 C   0  0  0  0  0  0
  -24.1495  -36.7310   23.2634 C   0  0  0  0  0  0
  -25.9449  -30.8174   21.3741 C   0  0  0  0  0  0
  -26.0188  -29.4523   20.7142 C   0  0  0  0  0  0
  -27.2053  -28.6711   20.7061 C   0  0  0  0  0  0
  -26.0328  -26.9519   19.4572 C   0  0  0  0  0  0
  -24.8574  -27.7179   19.4761 C   0  0  0  0  0  0
  -23.6178  -29.8373   20.1645 C   0  0  0  0  0  0
  -25.4116  -36.3104   24.0331 C   0  0  1  0  0  0
  -20.5877  -28.3669   23.1315 C   0  0  2  0  0  0
  -20.6781  -26.9404   22.5417 C   0  0  0  0  0  0
  -19.5753  -26.6386   21.5220 C   0  0  0  0  0  0
  -18.1929  -26.7922   22.1627 C   0  0  0  0  0  0
  -19.1530  -28.8838   23.2900 C   0  0  0  0  0  0
  -18.9452  -30.1446   23.8905 C   0  0  0  0  0  0
  -17.6452  -30.6581   24.0563 C   0  0  0  0  0  0
  -25.9044  -34.9471   23.5119 C   0  0  0  0  0  0
  -16.5344  -29.9077   23.6330 C   0  0  0  0  0  0
  -16.7268  -28.6496   23.0351 C   0  0  0  0  0  0
  -26.4487  -31.6595   25.0732 C   0  0  0  0  0  0
  -25.3740  -31.3711   26.1468 C   0  0  0  0  0  0
  -27.0320  -30.3029   24.6133 C   0  0  0  0  0  0
  -27.6056  -32.4312   25.7503 C   0  0  0  0  0  0
  -27.5583  -37.1815   24.8462 C   0  0  0  0  0  0
  -21.4164  -29.3032   22.3717 N   0  0  0  0  0  0
  -26.4300  -37.3790   23.9400 N   0  0  0  0  0  0
  -24.6759  -31.0737   22.1029 N   0  0  0  0  0  0
  -23.4201  -28.8184   23.3022 O   0  0  0  0  0  0
  -28.3526  -26.5738   20.1510 O   0  0  0  0  0  0
  -26.5596  -34.8920   22.4674 O   0  0  0  0  0  0
  -23.5379  -32.1439   23.7472 O   0  0  0  0  0  0
  -28.9103  -18.8810   18.2882 C   0  0  0  0  0  0
  -29.4046  -17.7592   18.9810 C   0  0  0  0  0  0
  -29.9228  -18.0093   20.2803 C   0  0  0  0  0  0
  -29.4808  -20.2663   19.9961 C   0  0  0  0  0  0
  -30.5257  -16.9287   21.2109 C   0  0  0  0  0  0
  -28.8106  -22.6894   19.8923 C   0  0  0  0  0  0
  -28.1174  -25.1538   19.9310 C   0  0  0  0  0  0
  -29.1716  -24.1132   20.4245 C   0  0  1  0  0  0
  -28.9542  -20.1230   18.7947 N   0  0  0  0  0  0
  -29.9514  -19.2832   20.7614 N   0  0  0  0  0  0
  -29.3977  -16.5132   18.3424 N   0  0  0  0  0  0
  -29.5763  -21.5682   20.4691 N   0  0  0  0  0  0
  -30.0311  -15.5360   21.1018 N   0  0  0  0  0  0
  -29.1151  -24.0444   21.8401 O   0  0  0  0  0  0
  -31.4647  -12.4184   19.1319 H   0  0  0  0  0  0
  -30.3162  -11.3201   19.8428 H   0  0  0  0  0  0
  -29.7408  -11.7821   17.4375 H   0  0  0  0  0  0
  -29.6560  -13.4938   17.7701 H   0  0  0  0  0  0
  -27.8376  -11.3063   18.8348 H   0  0  0  0  0  0
  -27.3649  -12.6206   17.7914 H   0  0  0  0  0  0
  -27.6941  -14.2576   19.5583 H   0  0  0  0  0  0
  -28.6804  -11.9970   21.3654 H   0  0  0  0  0  0
  -28.4581  -13.6493   21.8593 H   0  0  0  0  0  0
  -25.2762   -9.5683   22.4760 H   0  0  0  0  0  0
  -23.9999   -7.4636   22.7477 H   0  0  0  0  0  0
  -21.0837   -8.8766   19.8958 H   0  0  0  0  0  0
  -22.3693  -10.9666   19.6161 H   0  0  0  0  0  0
  -21.2004   -7.6144   23.9710 H   0  0  0  0  0  0
  -21.1489   -6.0529   25.9080 H   0  0  0  0  0  0
  -22.0595   -2.7604   23.2861 H   0  0  0  0  0  0
  -22.4110  -11.9872   22.4774 H   0  0  0  0  0  0
  -21.1120  -13.1253   22.2618 H   0  0  0  0  0  0
  -24.6644  -15.8474   20.5019 H   0  0  0  0  0  0
  -26.2809  -15.6166   20.0608 H   0  0  0  0  0  0
  -26.7145  -32.5507   23.1149 H   0  0  0  0  0  0
  -25.0110  -33.9779   25.0489 H   0  0  0  0  0  0
  -22.6980  -31.3119   21.4180 H   0  0  0  0  0  0
  -23.3752  -35.9649   23.3307 H   0  0  0  0  0  0
  -24.3591  -36.8914   22.2046 H   0  0  0  0  0  0
  -23.7255  -37.6521   23.6641 H   0  0  0  0  0  0
  -26.0684  -31.5850   20.6090 H   0  0  0  0  0  0
  -26.8290  -30.8634   21.9980 H   0  0  0  0  0  0
  -28.0981  -29.0362   21.1936 H   0  0  0  0  0  0
  -25.9747  -26.0082   18.9364 H   0  0  0  0  0  0
  -23.9653  -27.3426   18.9936 H   0  0  0  0  0  0
  -23.7297  -30.6175   19.4108 H   0  0  0  0  0  0
  -22.7397  -29.2628   19.8637 H   0  0  0  0  0  0
  -25.1296  -36.1969   25.0825 H   0  0  0  0  0  0
  -20.9964  -28.3229   24.1438 H   0  0  0  0  0  0
  -20.5720  -26.2261   23.3598 H   0  0  0  0  0  0
  -21.6647  -26.7468   22.1182 H   0  0  0  0  0  0
  -19.6919  -25.6303   21.1233 H   0  0  0  0  0  0
  -19.6695  -27.3214   20.6764 H   0  0  0  0  0  0
  -17.4208  -26.6680   21.4020 H   0  0  0  0  0  0
  -18.0319  -26.0058   22.9015 H   0  0  0  0  0  0
  -19.7925  -30.7265   24.2274 H   0  0  0  0  0  0
  -17.5003  -31.6264   24.5160 H   0  0  0  0  0  0
  -15.5345  -30.2976   23.7654 H   0  0  0  0  0  0
  -15.8670  -28.0819   22.7057 H   0  0  0  0  0  0
  -24.5915  -30.7057   25.7800 H   0  0  0  0  0  0
  -24.8932  -32.2873   26.4908 H   0  0  0  0  0  0
  -25.8085  -30.8882   27.0230 H   0  0  0  0  0  0
  -26.2876  -29.6791   24.1170 H   0  0  0  0  0  0
  -27.4057  -29.7265   25.4605 H   0  0  0  0  0  0
  -27.8729  -30.4333   23.9317 H   0  0  0  0  0  0
  -27.2670  -33.3601   26.2103 H   0  0  0  0  0  0
  -28.3862  -32.6885   25.0332 H   0  0  0  0  0  0
  -28.0725  -31.8418   26.5404 H   0  0  0  0  0  0
  -28.2603  -38.0109   24.7505 H   0  0  0  0  0  0
  -28.1078  -36.2639   24.6300 H   0  0  0  0  0  0
  -27.2296  -37.1476   25.8864 H   0  0  0  0  0  0
  -20.9323  -29.8752   21.6940 H   0  0  0  0  0  0
  -26.0188  -38.2869   24.1392 H   0  0  0  0  0  0
  -28.5027  -18.7874   17.2922 H   0  0  0  0  0  0
  -30.3530  -17.2391   22.2414 H   0  0  0  0  0  0
  -31.6082  -16.9630   21.0834 H   0  0  0  0  0  0
  -28.9367  -22.6884   18.8083 H   0  0  0  0  0  0
  -27.7527  -22.4882   20.0699 H   0  0  0  0  0  0
  -27.1687  -24.8535   20.3805 H   0  0  0  0  0  0
  -28.0110  -25.0208   18.8532 H   0  0  0  0  0  0
  -30.1735  -24.3996   20.0997 H   0  0  0  0  0  0
  -29.2178  -16.5034   17.3411 H   0  0  0  0  0  0
  -30.1280  -15.8568   18.5985 H   0  0  0  0  0  0
  -29.8956  -21.6865   21.4239 H   0  0  0  0  0  0
  -29.0792  -15.3741   21.3881 H   0  0  0  0  0  0
  -29.2738  -24.9264   22.1654 H   0  0  0  0  0  0
  1 25  1  0  0  0
  1 30  2  0  0  0
  1 83  1  0  0  0
  2  3  1  0  0  0
  2 25  1  0  0  0
  2 85  1  0  0  0
  2 86  1  0  0  0
  3  4  1  0  0  0
  3 87  1  0  0  0
  3 88  1  0  0  0
  4  5  1  0  0  0
  4 89  1  0  0  0
  4 90  1  0  0  0
  5  6  1  0  0  0
  5 26  1  0  0  0
  5 91  1  0  0  0
  6 25  1  0  0  0
  6 92  1  0  0  0
  6 93  1  0  0  0
  7  8  2  0  0  0
  7 26  1  0  0  0
  7 29  1  0  0  0
  8  9  1  0  0  0
  8 22  1  0  0  0
  9 10  1  0  0  0
  9 27  2  0  0  0
 10 11  2  0  0  0
 10 15  1  0  0  0
 11 12  1  0  0  0
 11 94  1  0  0  0
 12 13  2  0  0  0
 12 95  1  0  0  0
 13 14  1  0  0  0
 13 31  1  0  0  0
 14 15  2  0  0  0
 14 96  1  0  0  0
 15 97  1  0  0  0
 16 17  2  0  0  0
 16 21  1  0  0  0
 16 31  1  0  0  0
 17 18  1  0  0  0
 17 98  1  0  0  0
 18 19  2  0  0  0
 18 99  1  0  0  0
 19 20  1  0  0  0
 19 24  1  0  0  0
 20 21  2  0  0  0
 20100  1  0  0  0
 21 23  1  0  0  0
 22 28  1  0  0  0
 22 32  2  0  0  0
 26 27  1  0  0  0
 28101  1  0  0  0
 28102  1  0  0  0
 29103  1  0  0  0
 29104  1  0  0  0
 33 34  1  0  0  0
 33 66  1  0  0  0
 33 70  2  0  0  0
 34 36  1  0  0  0
 34 59  1  0  0  0
 34105  1  0  0  0
 35 44  2  0  0  0
 35 45  1  0  0  0
 35 68  1  0  0  0
 36 56  1  0  0  0
 36106  1  0  0  0
 37 39  1  0  0  0
 37 47  1  0  0  0
 37 66  1  0  0  0
 37107  1  0  0  0
 38 43  2  0  0  0
 38 46  1  0  0  0
 38 47  1  0  0  0
 39 64  1  0  0  0
 39 67  2  0  0  0
 40 52  1  0  0  0
 40 53  2  0  0  0
 40 58  1  0  0  0
 41108  1  0  0  0
 41109  1  0  0  0
 41110  1  0  0  0
 41 48  1  0  0  0
 42 43  1  0  0  0
 42 66  1  0  0  0
 42111  1  0  0  0
 42112  1  0  0  0
 43 44  1  0  0  0
 44113  1  0  0  0
 45 46  2  0  0  0
 45114  1  0  0  0
 46115  1  0  0  0
 47116  1  0  0  0
 47117  1  0  0  0
 48 56  1  0  0  0
 48 65  1  0  0  0
 48118  1  0  0  0
 49 50  1  0  0  0
 49 53  1  0  0  0
 49 64  1  0  0  0
 49119  1  0  0  0
 50 51  1  0  0  0
 50120  1  0  0  0
 50121  1  0  0  0
 51 52  1  0  0  0
 51122  1  0  0  0
 51123  1  0  0  0
 52124  1  0  0  0
 52125  1  0  0  0
 53 54  1  0  0  0
 54 55  2  0  0  0
 54126  1  0  0  0
 55 57  1  0  0  0
 55127  1  0  0  0
 56 69  2  0  0  0
 57 58  2  0  0  0
 57128  1  0  0  0
 58129  1  0  0  0
 59 60  1  0  0  0
 59 61  1  0  0  0
 59 62  1  0  0  0
 60130  1  0  0  0
 60131  1  0  0  0
 60132  1  0  0  0
 61133  1  0  0  0
 61134  1  0  0  0
 61135  1  0  0  0
 62136  1  0  0  0
 62137  1  0  0  0
 62138  1  0  0  0
 63 65  1  0  0  0
 63139  1  0  0  0
 63140  1  0  0  0
 63141  1  0  0  0
 64142  1  0  0  0
 65143  1  0  0  0
 68 77  1  0  0  0
 71 72  2  0  0  0
 71 79  1  0  0  0
 71144  1  0  0  0
 72 73  1  0  0  0
 72 81  1  0  0  0
 73 75  1  0  0  0
 73 80  2  0  0  0
 74 79  2  0  0  0
 74 80  1  0  0  0
 74 82  1  0  0  0
 75 83  1  0  0  0
 75145  1  0  0  0
 75146  1  0  0  0
 76 78  1  0  0  0
 76 82  1  0  0  0
 76147  1  0  0  0
 76148  1  0  0  0
 77 78  1  0  0  0
 77149  1  0  0  0
 77150  1  0  0  0
 78 84  1  0  0  0
 78151  1  0  0  0
 81152  1  0  0  0
 81153  1  0  0  0
 82154  1  0  0  0
 83155  1  0  0  0
 84156  1  0  0  0
M  ISO  4   1 100  68 101  77 101  83 100
M  END
> <chiral flag>
0

> <version>
0

> <s_m_source_file>
/data/baiqing/PycharmProjects/Reinvent-master-3.2/result/LINK_invent/BTK/process_docking_weight1_custom_product_contain_oxygen_bond_distance_aromatic_linkinvent_7_9_3/rearranged_h_0194.sdf

> <i_m_source_file_index>
43

> <r_mmod_Potential_Energy-OPLS-2005>
-682.944458007812

> <r_mmod_Stretch_Energy-OPLS-2005>
45.7648506164551

> <r_mmod_Bend_Energy-OPLS-2005>
116.559600830078

> <r_mmod_Torsional_Energy-OPLS-2005>
217.362426757812

> <r_mmod_Improper_Torsional_Energy-OPLS-2005>
8.72024059295654

> <r_mmod_Van_der_Waal_Energy-OPLS-2005>
173.350845336914

> <r_mmod_Electrostatic_Energy-OPLS-2005>
-1013.19995117188

> <r_mmod_Solvation_Energy-OPLS-2005>
-253.042144775391

> <b_mmod_Minimization_Converged-OPLS-2005>
0

> <r_mmod_RMS_Derivative-OPLS-2005>
0.846407473087311

$$$$
43
                    3D
 Structure written by MMmdl.
158166  0  0  1  0            999 V2000
  -30.6840  -14.5439   20.5105 C   0  0  0  0  0  0
  -30.4239  -12.3384   19.4317 C   0  0  0  0  0  0
  -29.4933  -12.4857   18.2108 C   0  0  0  0  0  0
  -28.0166  -12.3373   18.6287 C   0  0  0  0  0  0
  -27.6546  -13.1942   19.8698 C   0  0  2  0  0  0
  -28.7046  -13.0463   20.9921 C   0  0  0  0  0  0
  -25.2616  -13.8150   20.5698 C   0  0  0  0  0  0
  -24.1843  -13.0450   20.9204 C   0  0  0  0  0  0
  -24.6364  -11.6900   20.8764 C   0  0  0  0  0  0
  -23.9016  -10.4295   21.0416 C   0  0  0  0  0  0
  -24.3580   -9.4214   21.9185 C   0  0  0  0  0  0
  -23.6287   -8.2236   22.0739 C   0  0  0  0  0  0
  -22.4270   -8.0268   21.3534 C   0  0  0  0  0  0
  -21.9894   -9.0235   20.4636 C   0  0  0  0  0  0
  -22.7194  -10.2133   20.3056 C   0  0  0  0  0  0
  -21.6849   -6.0735   22.5276 C   0  0  0  0  0  0
  -21.4008   -6.5636   23.8212 C   0  0  0  0  0  0
  -21.3668   -5.6787   24.9172 C   0  0  0  0  0  0
  -21.6051   -4.3054   24.7218 C   0  0  0  0  0  0
  -21.8818   -3.8143   23.4340 C   0  0  0  0  0  0
  -21.9193   -4.6962   22.3396 C   0  0  0  0  0  0
  -22.7867  -13.5256   21.1857 C   0  0  0  0  0  0
  -22.1654   -4.2145   21.0975 F   0  0  0  0  0  0
  -21.5650   -3.4543   25.7738 F   0  0  0  0  0  0
  -30.0207  -13.3565   20.4148 N   0  0  0  0  0  0
  -26.2998  -12.9259   20.3379 N   0  0  0  0  0  0
  -25.9288  -11.6440   20.5811 N   0  0  0  0  0  0
  -22.0489  -12.8258   22.0409 N   0  0  0  0  0  0
  -25.4466  -15.1865   20.4094 N   0  0  0  0  0  0
  -31.8526  -14.6725   20.1399 O   0  0  0  0  0  0
  -21.6632   -6.8871   21.4236 O   0  0  0  0  0  0
  -22.3556  -14.5552   20.6690 O   0  0  0  0  0  0
  -24.6193  -31.8656   23.2081 C   0  0  0  0  0  0
  -25.9067  -32.4817   23.8394 C   0  0  1  0  0  0
  -27.2317  -27.3977   20.1181 C   0  0  0  0  0  0
  -25.5917  -33.8614   24.2332 N   0  0  0  0  0  0
  -23.4101  -30.4894   21.5475 C   0  0  2  0  0  0
  -24.8587  -28.9506   20.1134 C   0  0  0  0  0  0
  -22.7439  -29.4654   22.4953 C   0  0  0  0  0  0
  -18.0285  -28.1395   22.8497 C   0  0  0  0  0  0
  -24.1483  -36.7310   23.2637 C   0  0  0  0  0  0
  -25.9413  -30.8224   21.3652 C   0  0  0  0  0  0
  -26.0198  -29.4528   20.7148 C   0  0  0  0  0  0
  -27.2125  -28.6859   20.7097 C   0  0  0  0  0  0
  -26.0568  -26.9239   19.4965 C   0  0  0  0  0  0
  -24.8740  -27.6885   19.4952 C   0  0  0  0  0  0
  -23.6229  -29.8227   20.1616 C   0  0  0  0  0  0
  -25.4105  -36.3108   24.0340 C   0  0  1  0  0  0
  -20.5881  -28.3685   23.1307 C   0  0  2  0  0  0
  -20.6775  -26.9418   22.5416 C   0  0  0  0  0  0
  -19.5749  -26.6392   21.5221 C   0  0  0  0  0  0
  -18.1929  -26.7944   22.1630 C   0  0  0  0  0  0
  -19.1536  -28.8856   23.2902 C   0  0  0  0  0  0
  -18.9460  -30.1459   23.8916 C   0  0  0  0  0  0
  -17.6459  -30.6600   24.0574 C   0  0  0  0  0  0
  -25.9028  -34.9474   23.5130 C   0  0  0  0  0  0
  -16.5351  -29.9104   23.6326 C   0  0  0  0  0  0
  -16.7271  -28.6522   23.0349 C   0  0  0  0  0  0
  -26.4485  -31.6602   25.0730 C   0  0  0  0  0  0
  -25.3738  -31.3721   26.1474 C   0  0  0  0  0  0
  -27.0325  -30.3053   24.6111 C   0  0  0  0  0  0
  -27.6065  -32.4318   25.7495 C   0  0  0  0  0  0
  -27.5582  -37.1813   24.8469 C   0  0  0  0  0  0
  -21.4162  -29.3054   22.3707 N   0  0  0  0  0  0
  -26.4288  -37.3796   23.9410 N   0  0  0  0  0  0
  -24.6754  -31.0738   22.0991 N   0  0  0  0  0  0
  -23.4190  -28.8188   23.3009 O   0  0  0  0  0  0
  -28.3710  -26.6100   20.1254 O   0  0  0  0  0  0
  -26.5579  -34.8924   22.4683 O   0  0  0  0  0  0
  -23.5373  -32.1415   23.7449 O   0  0  0  0  0  0
  -27.7987  -18.9468   18.6680 C   0  0  0  0  0  0
  -28.4747  -17.8310   19.2010 C   0  0  0  0  0  0
  -29.5132  -18.1127   20.1281 C   0  0  0  0  0  0
  -29.1346  -20.3784   19.8058 C   0  0  0  0  0  0
  -29.3802  -22.6610   22.1542 C   0  0  0  0  0  0
  -30.4042  -17.0389   20.8071 C   0  0  0  0  0  0
  -29.0335  -24.1501   20.0676 C   0  0  0  0  0  0
  -28.2336  -25.3060   20.7542 C   0  0  0  0  0  0
  -28.8909  -22.7096   20.6961 C   0  0  1  0  0  0
  -28.1473  -20.2131   18.9518 N   0  0  0  0  0  0
  -29.8189  -19.4087   20.4164 N   0  0  0  0  0  0
  -28.1306  -16.5534   18.7483 N   0  0  0  0  0  0
  -29.5982  -21.6827   19.9070 N   0  0  0  0  0  0
  -29.9445  -15.6248   20.8360 N   0  0  0  0  0  0
  -31.4659  -12.4415   19.1256 H   0  0  0  0  0  0
  -30.3374  -11.3410   19.8650 H   0  0  0  0  0  0
  -29.7426  -11.7387   17.4557 H   0  0  0  0  0  0
  -29.6486  -13.4585   17.7427 H   0  0  0  0  0  0
  -27.8376  -11.2835   18.8437 H   0  0  0  0  0  0
  -27.3591  -12.5897   17.7955 H   0  0  0  0  0  0
  -27.6734  -14.2246   19.5378 H   0  0  0  0  0  0
  -28.7030  -12.0291   21.3865 H   0  0  0  0  0  0
  -28.4674  -13.6971   21.8356 H   0  0  0  0  0  0
  -25.2731   -9.5702   22.4757 H   0  0  0  0  0  0
  -24.0015   -7.4625   22.7443 H   0  0  0  0  0  0
  -21.0833   -8.8729   19.8941 H   0  0  0  0  0  0
  -22.3640  -10.9664   19.6162 H   0  0  0  0  0  0
  -21.1982   -7.6142   23.9716 H   0  0  0  0  0  0
  -21.1501   -6.0514   25.9080 H   0  0  0  0  0  0
  -22.0593   -2.7605   23.2834 H   0  0  0  0  0  0
  -22.4090  -11.9936   22.4845 H   0  0  0  0  0  0
  -21.1104  -13.1292   22.2578 H   0  0  0  0  0  0
  -24.6892  -15.8533   20.5024 H   0  0  0  0  0  0
  -26.3022  -15.6108   20.0555 H   0  0  0  0  0  0
  -26.7142  -32.5526   23.1161 H   0  0  0  0  0  0
  -25.0125  -33.9772   25.0521 H   0  0  0  0  0  0
  -22.7018  -31.3079   21.4066 H   0  0  0  0  0  0
  -23.3744  -35.9646   23.3311 H   0  0  0  0  0  0
  -24.3581  -36.8908   22.2051 H   0  0  0  0  0  0
  -23.7234  -37.6518   23.6639 H   0  0  0  0  0  0
  -26.0521  -31.5837   20.5915 H   0  0  0  0  0  0
  -26.8302  -30.8819   21.9814 H   0  0  0  0  0  0
  -28.1076  -29.0674   21.1812 H   0  0  0  0  0  0
  -26.0541  -25.9570   19.0138 H   0  0  0  0  0  0
  -23.9858  -27.3005   19.0163 H   0  0  0  0  0  0
  -23.7377  -30.5992   19.4037 H   0  0  0  0  0  0
  -22.7461  -29.2465   19.8607 H   0  0  0  0  0  0
  -25.1281  -36.1979   25.0834 H   0  0  0  0  0  0
  -20.9979  -28.3254   24.1422 H   0  0  0  0  0  0
  -20.5690  -26.2293   23.3607 H   0  0  0  0  0  0
  -21.6642  -26.7464   22.1201 H   0  0  0  0  0  0
  -19.6902  -25.6300   21.1258 H   0  0  0  0  0  0
  -19.6692  -27.3196   20.6747 H   0  0  0  0  0  0
  -17.4202  -26.6703   21.4028 H   0  0  0  0  0  0
  -18.0319  -26.0089   22.9025 H   0  0  0  0  0  0
  -19.7932  -30.7281   24.2289 H   0  0  0  0  0  0
  -17.5013  -31.6277   24.5180 H   0  0  0  0  0  0
  -15.5353  -30.3014   23.7636 H   0  0  0  0  0  0
  -15.8672  -28.0848   22.7046 H   0  0  0  0  0  0
  -24.5911  -30.7072   25.7811 H   0  0  0  0  0  0
  -24.8926  -32.2878   26.4921 H   0  0  0  0  0  0
  -25.8076  -30.8893   27.0238 H   0  0  0  0  0  0
  -26.2880  -29.6816   24.1154 H   0  0  0  0  0  0
  -27.4098  -29.7296   25.4570 H   0  0  0  0  0  0
  -27.8708  -30.4401   23.9272 H   0  0  0  0  0  0
  -27.2704  -33.3619   26.2098 H   0  0  0  0  0  0
  -28.3866  -32.6876   25.0310 H   0  0  0  0  0  0
  -28.0745  -31.8421   26.5391 H   0  0  0  0  0  0
  -28.2606  -38.0103   24.7506 H   0  0  0  0  0  0
  -28.1065  -36.2635   24.6302 H   0  0  0  0  0  0
  -27.2298  -37.1477   25.8870 H   0  0  0  0  0  0
  -20.9316  -29.8799   21.6955 H   0  0  0  0  0  0
  -26.0183  -38.2873   24.1404 H   0  0  0  0  0  0
  -27.0007  -18.8217   17.9517 H   0  0  0  0  0  0
  -28.8526  -23.3740   22.7879 H   0  0  0  0  0  0
  -30.4453  -22.8824   22.2235 H   0  0  0  0  0  0
  -29.2219  -21.6723   22.5879 H   0  0  0  0  0  0
  -30.5675  -17.3422   21.8413 H   0  0  0  0  0  0
  -31.3799  -17.1108   20.3251 H   0  0  0  0  0  0
  -30.0874  -24.4296   20.0332 H   0  0  0  0  0  0
  -28.7018  -24.1100   19.0299 H   0  0  0  0  0  0
  -28.5859  -25.4241   21.7791 H   0  0  0  0  0  0
  -27.1903  -25.0010   20.8445 H   0  0  0  0  0  0
  -27.8300  -22.4493   20.6909 H   0  0  0  0  0  0
  -28.8768  -15.8666   18.7380 H   0  0  0  0  0  0
  -27.5780  -16.5049   17.8956 H   0  0  0  0  0  0
  -29.6901  -22.0579   18.9716 H   0  0  0  0  0  0
  -28.9574  -15.4903   20.9991 H   0  0  0  0  0  0
  1 25  1  0  0  0
  1 30  2  0  0  0
  1 84  1  0  0  0
  2  3  1  0  0  0
  2 25  1  0  0  0
  2 85  1  0  0  0
  2 86  1  0  0  0
  3  4  1  0  0  0
  3 87  1  0  0  0
  3 88  1  0  0  0
  4  5  1  0  0  0
  4 89  1  0  0  0
  4 90  1  0  0  0
  5  6  1  0  0  0
  5 26  1  0  0  0
  5 91  1  0  0  0
  6 25  1  0  0  0
  6 92  1  0  0  0
  6 93  1  0  0  0
  7  8  2  0  0  0
  7 26  1  0  0  0
  7 29  1  0  0  0
  8  9  1  0  0  0
  8 22  1  0  0  0
  9 10  1  0  0  0
  9 27  2  0  0  0
 10 11  2  0  0  0
 10 15  1  0  0  0
 11 12  1  0  0  0
 11 94  1  0  0  0
 12 13  2  0  0  0
 12 95  1  0  0  0
 13 14  1  0  0  0
 13 31  1  0  0  0
 14 15  2  0  0  0
 14 96  1  0  0  0
 15 97  1  0  0  0
 16 17  2  0  0  0
 16 21  1  0  0  0
 16 31  1  0  0  0
 17 18  1  0  0  0
 17 98  1  0  0  0
 18 19  2  0  0  0
 18 99  1  0  0  0
 19 20  1  0  0  0
 19 24  1  0  0  0
 20 21  2  0  0  0
 20100  1  0  0  0
 21 23  1  0  0  0
 22 28  1  0  0  0
 22 32  2  0  0  0
 26 27  1  0  0  0
 28101  1  0  0  0
 28102  1  0  0  0
 29103  1  0  0  0
 29104  1  0  0  0
 33 34  1  0  0  0
 33 66  1  0  0  0
 33 70  2  0  0  0
 34 36  1  0  0  0
 34 59  1  0  0  0
 34105  1  0  0  0
 35 44  2  0  0  0
 35 45  1  0  0  0
 35 68  1  0  0  0
 36 56  1  0  0  0
 36106  1  0  0  0
 37 39  1  0  0  0
 37 47  1  0  0  0
 37 66  1  0  0  0
 37107  1  0  0  0
 38 43  2  0  0  0
 38 46  1  0  0  0
 38 47  1  0  0  0
 39 64  1  0  0  0
 39 67  2  0  0  0
 40 52  1  0  0  0
 40 53  2  0  0  0
 40 58  1  0  0  0
 41108  1  0  0  0
 41109  1  0  0  0
 41110  1  0  0  0
 41 48  1  0  0  0
 42 43  1  0  0  0
 42 66  1  0  0  0
 42111  1  0  0  0
 42112  1  0  0  0
 43 44  1  0  0  0
 44113  1  0  0  0
 45 46  2  0  0  0
 45114  1  0  0  0
 46115  1  0  0  0
 47116  1  0  0  0
 47117  1  0  0  0
 48 56  1  0  0  0
 48 65  1  0  0  0
 48118  1  0  0  0
 49 50  1  0  0  0
 49 53  1  0  0  0
 49 64  1  0  0  0
 49119  1  0  0  0
 50 51  1  0  0  0
 50120  1  0  0  0
 50121  1  0  0  0
 51 52  1  0  0  0
 51122  1  0  0  0
 51123  1  0  0  0
 52124  1  0  0  0
 52125  1  0  0  0
 53 54  1  0  0  0
 54 55  2  0  0  0
 54126  1  0  0  0
 55 57  1  0  0  0
 55127  1  0  0  0
 56 69  2  0  0  0
 57 58  2  0  0  0
 57128  1  0  0  0
 58129  1  0  0  0
 59 60  1  0  0  0
 59 61  1  0  0  0
 59 62  1  0  0  0
 60130  1  0  0  0
 60131  1  0  0  0
 60132  1  0  0  0
 61133  1  0  0  0
 61134  1  0  0  0
 61135  1  0  0  0
 62136  1  0  0  0
 62137  1  0  0  0
 62138  1  0  0  0
 63 65  1  0  0  0
 63139  1  0  0  0
 63140  1  0  0  0
 63141  1  0  0  0
 64142  1  0  0  0
 65143  1  0  0  0
 68 78  1  0  0  0
 71 72  2  0  0  0
 71 80  1  0  0  0
 71144  1  0  0  0
 72 73  1  0  0  0
 72 82  1  0  0  0
 73 76  1  0  0  0
 73 81  2  0  0  0
 74 80  2  0  0  0
 74 81  1  0  0  0
 74 83  1  0  0  0
 75145  1  0  0  0
 75146  1  0  0  0
 75147  1  0  0  0
 75 79  1  0  0  0
 76 84  1  0  0  0
 76148  1  0  0  0
 76149  1  0  0  0
 77 78  1  0  0  0
 77 79  1  0  0  0
 77150  1  0  0  0
 77151  1  0  0  0
 78152  1  0  0  0
 78153  1  0  0  0
 79 83  1  0  0  0
 79154  1  0  0  0
 82155  1  0  0  0
 82156  1  0  0  0
 83157  1  0  0  0
 84158  1  0  0  0
M  ISO  4   1 100  68 101  78 101  84 100
M  END
> <chiral flag>
0

> <version>
0

> <s_m_source_file>
/data/baiqing/PycharmProjects/Reinvent-master-3.2/result/LINK_invent/BTK/process_docking_weight1_custom_product_contain_oxygen_bond_distance_aromatic_linkinvent_7_9_3/rearranged_h_0194.sdf

> <i_m_source_file_index>
44

> <r_mmod_Potential_Energy-OPLS-2005>
-539.781677246094

> <r_mmod_Stretch_Energy-OPLS-2005>
46.6509437561035

> <r_mmod_Bend_Energy-OPLS-2005>
113.62084197998

> <r_mmod_Torsional_Energy-OPLS-2005>
251.396865844727

> <r_mmod_Improper_Torsional_Energy-OPLS-2005>
15.7339057922363

> <r_mmod_Van_der_Waal_Energy-OPLS-2005>
155.833847045898

> <r_mmod_Electrostatic_Energy-OPLS-2005>
-912.435913085938

> <r_mmod_Solvation_Energy-OPLS-2005>
-235.012634277344

> <b_mmod_Minimization_Converged-OPLS-2005>
0

> <r_mmod_RMS_Derivative-OPLS-2005>
1.65629982948303

$$$$
44
                    3D
 Structure written by MMmdl.
156164  0  0  1  0            999 V2000
  -30.5628  -14.7160   20.5011 C   0  0  0  0  0  0
  -30.4461  -12.4385   19.4710 C   0  0  0  0  0  0
  -29.5146  -12.5107   18.2391 C   0  0  0  0  0  0
  -28.0414  -12.3197   18.6524 C   0  0  0  0  0  0
  -27.6471  -13.2112   19.8585 C   0  0  2  0  0  0
  -28.6839  -13.0874   20.9946 C   0  0  0  0  0  0
  -25.2531  -13.8143   20.5650 C   0  0  0  0  0  0
  -24.1811  -13.0425   20.9224 C   0  0  0  0  0  0
  -24.6360  -11.6898   20.8727 C   0  0  0  0  0  0
  -23.9052  -10.4269   21.0394 C   0  0  0  0  0  0
  -24.3606   -9.4194   21.9191 C   0  0  0  0  0  0
  -23.6274   -8.2231   22.0755 C   0  0  0  0  0  0
  -22.4260   -8.0269   21.3537 C   0  0  0  0  0  0
  -21.9907   -9.0254   20.4645 C   0  0  0  0  0  0
  -22.7224  -10.2128   20.3048 C   0  0  0  0  0  0
  -21.6848   -6.0733   22.5273 C   0  0  0  0  0  0
  -21.4015   -6.5635   23.8215 C   0  0  0  0  0  0
  -21.3653   -5.6785   24.9176 C   0  0  0  0  0  0
  -21.6036   -4.3051   24.7219 C   0  0  0  0  0  0
  -21.8821   -3.8145   23.4343 C   0  0  0  0  0  0
  -21.9198   -4.6962   22.3397 C   0  0  0  0  0  0
  -22.7835  -13.5225   21.1894 C   0  0  0  0  0  0
  -22.1665   -4.2153   21.0973 F   0  0  0  0  0  0
  -21.5627   -3.4538   25.7736 F   0  0  0  0  0  0
  -29.9942  -13.4637   20.4392 N   0  0  0  0  0  0
  -26.2927  -12.9307   20.3246 N   0  0  0  0  0  0
  -25.9290  -11.6472   20.5733 N   0  0  0  0  0  0
  -22.0481  -12.8211   22.0435 N   0  0  0  0  0  0
  -25.4268  -15.1850   20.3943 N   0  0  0  0  0  0
  -31.7304  -14.8899   20.1350 O   0  0  0  0  0  0
  -21.6617   -6.8876   21.4237 O   0  0  0  0  0  0
  -22.3515  -14.5528   20.6742 O   0  0  0  0  0  0
  -24.6257  -31.8549   23.2019 C   0  0  0  0  0  0
  -25.9122  -32.4734   23.8325 C   0  0  1  0  0  0
  -27.2276  -27.2875   20.1262 C   0  0  0  0  0  0
  -25.5959  -33.8526   24.2261 N   0  0  0  0  0  0
  -23.4199  -30.4750   21.5439 C   0  0  2  0  0  0
  -24.8673  -28.9112   20.1184 C   0  0  0  0  0  0
  -22.7462  -29.4576   22.4953 C   0  0  0  0  0  0
  -18.0281  -28.1358   22.8422 C   0  0  0  0  0  0
  -24.1488  -36.7249   23.2650 C   0  0  0  0  0  0
  -25.9621  -30.7702   21.3785 C   0  0  0  0  0  0
  -26.0340  -29.3916   20.7259 C   0  0  0  0  0  0
  -27.2168  -28.5921   20.7144 C   0  0  0  0  0  0
  -26.0412  -26.8519   19.5044 C   0  0  0  0  0  0
  -24.8748  -27.6486   19.4970 C   0  0  0  0  0  0
  -23.6365  -29.8003   20.1611 C   0  0  0  0  0  0
  -25.4113  -36.3043   24.0348 C   0  0  1  0  0  0
  -20.5873  -28.3660   23.1263 C   0  0  2  0  0  0
  -20.6758  -26.9372   22.5405 C   0  0  0  0  0  0
  -19.5747  -26.6344   21.5181 C   0  0  0  0  0  0
  -18.1913  -26.7883   22.1587 C   0  0  0  0  0  0
  -19.1528  -28.8827   23.2812 C   0  0  0  0  0  0
  -18.9480  -30.1416   23.8856 C   0  0  0  0  0  0
  -17.6482  -30.6574   24.0524 C   0  0  0  0  0  0
  -25.9046  -34.9416   23.5096 C   0  0  0  0  0  0
  -16.5372  -29.9049   23.6338 C   0  0  0  0  0  0
  -16.7274  -28.6477   23.0327 C   0  0  0  0  0  0
  -26.4526  -31.6555   25.0702 C   0  0  0  0  0  0
  -25.3763  -31.3682   26.1432 C   0  0  0  0  0  0
  -27.0418  -30.3011   24.6143 C   0  0  0  0  0  0
  -27.6082  -32.4301   25.7470 C   0  0  0  0  0  0
  -27.5574  -37.1770   24.8472 C   0  0  0  0  0  0
  -21.4180  -29.3009   22.3677 N   0  0  0  0  0  0
  -26.4287  -37.3739   23.9421 N   0  0  0  0  0  0
  -24.6884  -31.0513   22.0995 N   0  0  0  0  0  0
  -23.4171  -28.8104   23.3026 O   0  0  0  0  0  0
  -28.3841  -26.4935   20.0539 O   0  0  0  0  0  0
  -26.5579  -34.8896   22.4630 O   0  0  0  0  0  0
  -23.5425  -32.1408   23.7341 O   0  0  0  0  0  0
  -28.4065  -17.8481   20.7919 C   0  0  0  0  0  0
  -30.5382  -19.4229   20.4301 C   0  0  0  0  0  0
  -29.6836  -17.2138   20.6818 C   0  0  0  0  0  0
  -29.2444  -20.0379   20.5548 C   0  0  0  0  0  0
  -31.7911  -20.2618   20.2602 C   0  0  0  0  0  0
  -28.3646  -21.7047   18.2665 C   0  0  0  0  0  0
  -28.0273  -23.8114   19.6955 C   0  0  0  0  0  0
  -28.4672  -25.0885   20.5561 C   0  0  0  0  0  0
  -28.8831  -22.4327   19.5260 C   0  0  1  0  0  0
  -28.1867  -19.2028   20.7225 N   0  0  0  0  0  0
  -30.7465  -18.0553   20.4849 N   0  0  0  0  0  0
  -29.7006  -15.7431   20.8287 N   0  0  0  0  0  0
  -28.9787  -21.4569   20.6718 N   0  0  0  0  0  0
  -31.4846  -12.5914   19.1725 H   0  0  0  0  0  0
  -30.4113  -11.4474   19.9241 H   0  0  0  0  0  0
  -29.7988  -11.7537   17.5074 H   0  0  0  0  0  0
  -29.6336  -13.4773   17.7444 H   0  0  0  0  0  0
  -27.9129  -11.2688   18.9164 H   0  0  0  0  0  0
  -27.3780  -12.5025   17.8058 H   0  0  0  0  0  0
  -27.6585  -14.2378   19.4934 H   0  0  0  0  0  0
  -28.7118  -12.0643   21.3736 H   0  0  0  0  0  0
  -28.4072  -13.7092   21.8477 H   0  0  0  0  0  0
  -25.2745   -9.5665   22.4763 H   0  0  0  0  0  0
  -23.9993   -7.4609   22.7456 H   0  0  0  0  0  0
  -21.0866   -8.8750   19.8927 H   0  0  0  0  0  0
  -22.3692  -10.9669   19.6145 H   0  0  0  0  0  0
  -21.1999   -7.6137   23.9724 H   0  0  0  0  0  0
  -21.1475   -6.0511   25.9085 H   0  0  0  0  0  0
  -22.0604   -2.7606   23.2836 H   0  0  0  0  0  0
  -22.4097  -11.9866   22.4813 H   0  0  0  0  0  0
  -21.1082  -13.1222   22.2630 H   0  0  0  0  0  0
  -24.6460  -15.8285   20.4548 H   0  0  0  0  0  0
  -26.2310  -15.5900   19.9345 H   0  0  0  0  0  0
  -26.7156  -32.5415   23.1032 H   0  0  0  0  0  0
  -25.0216  -33.9654   25.0499 H   0  0  0  0  0  0
  -22.7164  -31.2960   21.3948 H   0  0  0  0  0  0
  -23.3750  -35.9575   23.3311 H   0  0  0  0  0  0
  -24.3616  -36.8903   22.2069 H   0  0  0  0  0  0
  -23.7230  -37.6450   23.6684 H   0  0  0  0  0  0
  -26.0974  -31.5275   20.6058 H   0  0  0  0  0  0
  -26.8443  -30.8203   22.0058 H   0  0  0  0  0  0
  -28.1196  -28.9623   21.1771 H   0  0  0  0  0  0
  -26.0209  -25.8962   19.0004 H   0  0  0  0  0  0
  -23.9866  -27.2798   19.0020 H   0  0  0  0  0  0
  -23.7579  -30.5760   19.4042 H   0  0  0  0  0  0
  -22.7547  -29.2329   19.8572 H   0  0  0  0  0  0
  -25.1281  -36.1903   25.0850 H   0  0  0  0  0  0
  -20.9943  -28.3231   24.1393 H   0  0  0  0  0  0
  -20.5641  -26.2255   23.3605 H   0  0  0  0  0  0
  -21.6620  -26.7366   22.1219 H   0  0  0  0  0  0
  -19.6912  -25.6245   21.1242 H   0  0  0  0  0  0
  -19.6725  -27.3103   20.6678 H   0  0  0  0  0  0
  -17.4176  -26.6613   21.3982 H   0  0  0  0  0  0
  -18.0310  -26.0030   22.9008 H   0  0  0  0  0  0
  -19.7964  -30.7174   24.2255 H   0  0  0  0  0  0
  -17.5066  -31.6271   24.5056 H   0  0  0  0  0  0
  -15.5363  -30.2923   23.7737 H   0  0  0  0  0  0
  -15.8665  -28.0803   22.7069 H   0  0  0  0  0  0
  -24.5952  -30.7006   25.7778 H   0  0  0  0  0  0
  -24.8906  -32.2821   26.4864 H   0  0  0  0  0  0
  -25.8087  -30.8880   27.0215 H   0  0  0  0  0  0
  -26.2994  -29.6693   24.1247 H   0  0  0  0  0  0
  -27.4260  -29.7325   25.4631 H   0  0  0  0  0  0
  -27.8790  -30.4377   23.9281 H   0  0  0  0  0  0
  -27.2716  -33.3639   26.1985 H   0  0  0  0  0  0
  -28.3903  -32.6817   25.0289 H   0  0  0  0  0  0
  -28.0704  -31.8450   26.5441 H   0  0  0  0  0  0
  -28.2550  -38.0092   24.7529 H   0  0  0  0  0  0
  -28.1109  -36.2627   24.6286 H   0  0  0  0  0  0
  -27.2295  -37.1408   25.8872 H   0  0  0  0  0  0
  -20.9374  -29.8809   21.6946 H   0  0  0  0  0  0
  -26.0166  -38.2821   24.1435 H   0  0  0  0  0  0
  -27.5203  -17.2529   20.9577 H   0  0  0  0  0  0
  -32.0346  -20.7685   21.1944 H   0  0  0  0  0  0
  -31.6481  -21.0157   19.4859 H   0  0  0  0  0  0
  -32.6436  -19.6473   19.9674 H   0  0  0  0  0  0
  -28.2718  -22.3790   17.4145 H   0  0  0  0  0  0
  -27.3786  -21.2652   18.4356 H   0  0  0  0  0  0
  -29.0419  -20.9118   17.9506 H   0  0  0  0  0  0
  -27.9346  -24.2204   18.6889 H   0  0  0  0  0  0
  -27.0045  -23.5574   19.9723 H   0  0  0  0  0  0
  -29.5268  -24.9539   20.7793 H   0  0  0  0  0  0
  -27.9823  -25.0403   21.5326 H   0  0  0  0  0  0
  -29.9070  -22.7384   19.3027 H   0  0  0  0  0  0
  -28.8121  -15.3729   21.1249 H   0  0  0  0  0  0
  -29.6429  -21.8416   21.3375 H   0  0  0  0  0  0
  1 25  1  0  0  0
  1 30  2  0  0  0
  1 82  1  0  0  0
  2  3  1  0  0  0
  2 25  1  0  0  0
  2 84  1  0  0  0
  2 85  1  0  0  0
  3  4  1  0  0  0
  3 86  1  0  0  0
  3 87  1  0  0  0
  4  5  1  0  0  0
  4 88  1  0  0  0
  4 89  1  0  0  0
  5  6  1  0  0  0
  5 26  1  0  0  0
  5 90  1  0  0  0
  6 25  1  0  0  0
  6 91  1  0  0  0
  6 92  1  0  0  0
  7  8  2  0  0  0
  7 26  1  0  0  0
  7 29  1  0  0  0
  8  9  1  0  0  0
  8 22  1  0  0  0
  9 10  1  0  0  0
  9 27  2  0  0  0
 10 11  2  0  0  0
 10 15  1  0  0  0
 11 12  1  0  0  0
 11 93  1  0  0  0
 12 13  2  0  0  0
 12 94  1  0  0  0
 13 14  1  0  0  0
 13 31  1  0  0  0
 14 15  2  0  0  0
 14 95  1  0  0  0
 15 96  1  0  0  0
 16 17  2  0  0  0
 16 21  1  0  0  0
 16 31  1  0  0  0
 17 18  1  0  0  0
 17 97  1  0  0  0
 18 19  2  0  0  0
 18 98  1  0  0  0
 19 20  1  0  0  0
 19 24  1  0  0  0
 20 21  2  0  0  0
 20 99  1  0  0  0
 21 23  1  0  0  0
 22 28  1  0  0  0
 22 32  2  0  0  0
 26 27  1  0  0  0
 28100  1  0  0  0
 28101  1  0  0  0
 29102  1  0  0  0
 29103  1  0  0  0
 33 34  1  0  0  0
 33 66  1  0  0  0
 33 70  2  0  0  0
 34 36  1  0  0  0
 34 59  1  0  0  0
 34104  1  0  0  0
 35 44  2  0  0  0
 35 45  1  0  0  0
 35 68  1  0  0  0
 36 56  1  0  0  0
 36105  1  0  0  0
 37 39  1  0  0  0
 37 47  1  0  0  0
 37 66  1  0  0  0
 37106  1  0  0  0
 38 43  2  0  0  0
 38 46  1  0  0  0
 38 47  1  0  0  0
 39 64  1  0  0  0
 39 67  2  0  0  0
 40 52  1  0  0  0
 40 53  2  0  0  0
 40 58  1  0  0  0
 41107  1  0  0  0
 41108  1  0  0  0
 41109  1  0  0  0
 41 48  1  0  0  0
 42 43  1  0  0  0
 42 66  1  0  0  0
 42110  1  0  0  0
 42111  1  0  0  0
 43 44  1  0  0  0
 44112  1  0  0  0
 45 46  2  0  0  0
 45113  1  0  0  0
 46114  1  0  0  0
 47115  1  0  0  0
 47116  1  0  0  0
 48 56  1  0  0  0
 48 65  1  0  0  0
 48117  1  0  0  0
 49 50  1  0  0  0
 49 53  1  0  0  0
 49 64  1  0  0  0
 49118  1  0  0  0
 50 51  1  0  0  0
 50119  1  0  0  0
 50120  1  0  0  0
 51 52  1  0  0  0
 51121  1  0  0  0
 51122  1  0  0  0
 52123  1  0  0  0
 52124  1  0  0  0
 53 54  1  0  0  0
 54 55  2  0  0  0
 54125  1  0  0  0
 55 57  1  0  0  0
 55126  1  0  0  0
 56 69  2  0  0  0
 57 58  2  0  0  0
 57127  1  0  0  0
 58128  1  0  0  0
 59 60  1  0  0  0
 59 61  1  0  0  0
 59 62  1  0  0  0
 60129  1  0  0  0
 60130  1  0  0  0
 60131  1  0  0  0
 61132  1  0  0  0
 61133  1  0  0  0
 61134  1  0  0  0
 62135  1  0  0  0
 62136  1  0  0  0
 62137  1  0  0  0
 63 65  1  0  0  0
 63138  1  0  0  0
 63139  1  0  0  0
 63140  1  0  0  0
 64141  1  0  0  0
 65142  1  0  0  0
 68 78  1  0  0  0
 71 73  2  0  0  0
 71 80  1  0  0  0
 71143  1  0  0  0
 72 74  1  0  0  0
 72 75  1  0  0  0
 72 81  2  0  0  0
 73 81  1  0  0  0
 73 82  1  0  0  0
 74 80  2  0  0  0
 74 83  1  0  0  0
 75144  1  0  0  0
 75145  1  0  0  0
 75146  1  0  0  0
 76147  1  0  0  0
 76148  1  0  0  0
 76149  1  0  0  0
 76 79  1  0  0  0
 77 78  1  0  0  0
 77 79  1  0  0  0
 77150  1  0  0  0
 77151  1  0  0  0
 78152  1  0  0  0
 78153  1  0  0  0
 79 83  1  0  0  0
 79154  1  0  0  0
 82155  1  0  0  0
 83156  1  0  0  0
M  ISO  4   1 100  68 101  78 101  82 100
M  END
> <chiral flag>
0

> <version>
0

> <s_m_source_file>
/data/baiqing/PycharmProjects/Reinvent-master-3.2/result/LINK_invent/BTK/process_docking_weight1_custom_product_contain_oxygen_bond_distance_aromatic_linkinvent_7_9_3/rearranged_h_0194.sdf

> <i_m_source_file_index>
45

> <r_mmod_Potential_Energy-OPLS-2005>
135.967025756836

> <r_mmod_Stretch_Energy-OPLS-2005>
105.883331298828

> <r_mmod_Bend_Energy-OPLS-2005>
202.504348754883

> <r_mmod_Torsional_Energy-OPLS-2005>
260.411956787109

> <r_mmod_Improper_Torsional_Energy-OPLS-2005>
11.0423545837402

> <r_mmod_Van_der_Waal_Energy-OPLS-2005>
133.11474609375

> <r_mmod_Electrostatic_Energy-OPLS-2005>
-398.146179199219

> <r_mmod_Solvation_Energy-OPLS-2005>
-243.904052734375

> <b_mmod_Minimization_Converged-OPLS-2005>
0

> <r_mmod_RMS_Derivative-OPLS-2005>
3.65418553352356

$$$$
45
                    3D
 Structure written by MMmdl.
156164  0  0  1  0            999 V2000
  -30.6140  -14.7709   20.4662 C   0  0  0  0  0  0
  -30.4347  -12.4767   19.4625 C   0  0  0  0  0  0
  -29.5074  -12.5048   18.2284 C   0  0  0  0  0  0
  -28.0354  -12.3229   18.6485 C   0  0  0  0  0  0
  -27.6370  -13.2316   19.8420 C   0  0  2  0  0  0
  -28.6865  -13.1876   20.9733 C   0  0  0  0  0  0
  -25.2494  -13.8190   20.5694 C   0  0  0  0  0  0
  -24.1795  -13.0433   20.9219 C   0  0  0  0  0  0
  -24.6390  -11.6912   20.8757 C   0  0  0  0  0  0
  -23.9069  -10.4288   21.0413 C   0  0  0  0  0  0
  -24.3621   -9.4203   21.9188 C   0  0  0  0  0  0
  -23.6295   -8.2239   22.0754 C   0  0  0  0  0  0
  -22.4276   -8.0279   21.3544 C   0  0  0  0  0  0
  -21.9914   -9.0252   20.4646 C   0  0  0  0  0  0
  -22.7243  -10.2131   20.3058 C   0  0  0  0  0  0
  -21.6852   -6.0734   22.5278 C   0  0  0  0  0  0
  -21.4015   -6.5640   23.8212 C   0  0  0  0  0  0
  -21.3659   -5.6792   24.9175 C   0  0  0  0  0  0
  -21.6044   -4.3055   24.7226 C   0  0  0  0  0  0
  -21.8819   -3.8146   23.4347 C   0  0  0  0  0  0
  -21.9193   -4.6962   22.3402 C   0  0  0  0  0  0
  -22.7817  -13.5214   21.1875 C   0  0  0  0  0  0
  -22.1662   -4.2149   21.0979 F   0  0  0  0  0  0
  -21.5628   -3.4538   25.7738 F   0  0  0  0  0  0
  -29.9783  -13.5489   20.3770 N   0  0  0  0  0  0
  -26.2916  -12.9397   20.3257 N   0  0  0  0  0  0
  -25.9317  -11.6542   20.5750 N   0  0  0  0  0  0
  -22.0463  -12.8202   22.0431 N   0  0  0  0  0  0
  -25.4146  -15.1919   20.4091 N   0  0  0  0  0  0
  -31.8221  -14.8303   20.2076 O   0  0  0  0  0  0
  -21.6639   -6.8876   21.4240 O   0  0  0  0  0  0
  -22.3505  -14.5519   20.6719 O   0  0  0  0  0  0
  -24.6350  -31.8544   23.1984 C   0  0  0  0  0  0
  -25.9165  -32.4749   23.8334 C   0  0  1  0  0  0
  -27.2106  -27.2350   20.1258 C   0  0  0  0  0  0
  -25.5950  -33.8551   24.2254 N   0  0  0  0  0  0
  -23.4322  -30.4795   21.5433 C   0  0  2  0  0  0
  -24.8768  -28.9280   20.1116 C   0  0  0  0  0  0
  -22.7522  -29.4603   22.4903 C   0  0  0  0  0  0
  -18.0298  -28.1390   22.8482 C   0  0  0  0  0  0
  -24.1491  -36.7277   23.2640 C   0  0  0  0  0  0
  -25.9827  -30.7591   21.3833 C   0  0  0  0  0  0
  -26.0533  -29.3811   20.7220 C   0  0  0  0  0  0
  -27.2242  -28.5489   20.7162 C   0  0  0  0  0  0
  -26.0076  -26.8668   19.4787 C   0  0  0  0  0  0
  -24.8611  -27.6800   19.4782 C   0  0  0  0  0  0
  -23.6513  -29.8195   20.1583 C   0  0  0  0  0  0
  -25.4118  -36.3063   24.0326 C   0  0  1  0  0  0
  -20.5904  -28.3707   23.1256 C   0  0  2  0  0  0
  -20.6786  -26.9420   22.5403 C   0  0  0  0  0  0
  -19.5758  -26.6385   21.5210 C   0  0  0  0  0  0
  -18.1939  -26.7931   22.1624 C   0  0  0  0  0  0
  -19.1552  -28.8864   23.2864 C   0  0  0  0  0  0
  -18.9471  -30.1464   23.8884 C   0  0  0  0  0  0
  -17.6470  -30.6588   24.0561 C   0  0  0  0  0  0
  -25.9063  -34.9435   23.5090 C   0  0  0  0  0  0
  -16.5361  -29.9084   23.6330 C   0  0  0  0  0  0
  -16.7283  -28.6503   23.0353 C   0  0  0  0  0  0
  -26.4515  -31.6578   25.0731 C   0  0  0  0  0  0
  -25.3726  -31.3737   26.1441 C   0  0  0  0  0  0
  -27.0371  -30.2991   24.6243 C   0  0  0  0  0  0
  -27.6062  -32.4325   25.7510 C   0  0  0  0  0  0
  -27.5577  -37.1797   24.8467 C   0  0  0  0  0  0
  -21.4227  -29.3051   22.3644 N   0  0  0  0  0  0
  -26.4291  -37.3766   23.9408 N   0  0  0  0  0  0
  -24.7027  -31.0492   22.0974 N   0  0  0  0  0  0
  -23.4214  -28.8134   23.3002 O   0  0  0  0  0  0
  -28.2873  -26.3054   20.1739 O   0  0  0  0  0  0
  -26.5633  -34.8915   22.4658 O   0  0  0  0  0  0
  -23.5492  -32.1377   23.7264 O   0  0  0  0  0  0
  -30.4976  -19.8225   21.8704 C   0  0  0  0  0  0
  -31.0669  -18.6831   22.4563 C   0  0  0  0  0  0
  -29.6875  -19.6553   20.7479 C   0  0  0  0  0  0
  -30.0982  -17.2832   20.8951 C   0  0  0  0  0  0
  -31.9562  -18.7986   23.6753 C   0  0  0  0  0  0
  -28.0717  -21.9415   22.0762 C   0  0  0  0  0  0
  -29.0192  -23.5829   20.2701 C   0  0  0  0  0  0
  -27.9580  -24.8242   20.2399 C   0  0  0  0  0  0
  -28.4734  -22.0727   20.5964 C   0  0  1  0  0  0
  -30.8667  -17.4414   21.9698 N   0  0  0  0  0  0
  -29.4938  -18.3602   20.2787 N   0  0  0  0  0  0
  -29.1791  -20.8242   20.0562 N   0  0  0  0  0  0
  -29.8293  -15.9226   20.5294 N   0  0  0  0  0  0
  -31.4725  -12.6108   19.1520 H   0  0  0  0  0  0
  -30.3931  -11.5061   19.9589 H   0  0  0  0  0  0
  -29.7938  -11.7244   17.5219 H   0  0  0  0  0  0
  -29.6248  -13.4531   17.7012 H   0  0  0  0  0  0
  -27.8999  -11.2760   18.9220 H   0  0  0  0  0  0
  -27.3747  -12.5026   17.7992 H   0  0  0  0  0  0
  -27.6209  -14.2473   19.4478 H   0  0  0  0  0  0
  -28.7336  -12.1956   21.4248 H   0  0  0  0  0  0
  -28.4203  -13.8786   21.7751 H   0  0  0  0  0  0
  -25.2765   -9.5680   22.4763 H   0  0  0  0  0  0
  -24.0002   -7.4631   22.7474 H   0  0  0  0  0  0
  -21.0845   -8.8772   19.8952 H   0  0  0  0  0  0
  -22.3702  -10.9671   19.6168 H   0  0  0  0  0  0
  -21.2007   -7.6148   23.9716 H   0  0  0  0  0  0
  -21.1482   -6.0523   25.9078 H   0  0  0  0  0  0
  -22.0599   -2.7608   23.2847 H   0  0  0  0  0  0
  -22.4082  -11.9865   22.4819 H   0  0  0  0  0  0
  -21.1077  -13.1222   22.2633 H   0  0  0  0  0  0
  -24.6365  -15.8348   20.5113 H   0  0  0  0  0  0
  -26.2429  -15.6364   20.0369 H   0  0  0  0  0  0
  -26.7230  -32.5390   23.1073 H   0  0  0  0  0  0
  -25.0092  -33.9682   25.0398 H   0  0  0  0  0  0
  -22.7303  -31.3031   21.3983 H   0  0  0  0  0  0
  -23.3754  -35.9607   23.3299 H   0  0  0  0  0  0
  -24.3578  -36.8905   22.2055 H   0  0  0  0  0  0
  -23.7242  -37.6477   23.6668 H   0  0  0  0  0  0
  -26.1279  -31.5202   20.6154 H   0  0  0  0  0  0
  -26.8579  -30.8048   22.0195 H   0  0  0  0  0  0
  -28.1231  -28.8899   21.2103 H   0  0  0  0  0  0
  -25.9042  -25.9279   18.9611 H   0  0  0  0  0  0
  -23.9634  -27.3306   18.9871 H   0  0  0  0  0  0
  -23.7815  -30.5984   19.4060 H   0  0  0  0  0  0
  -22.7680  -29.2581   19.8487 H   0  0  0  0  0  0
  -25.1299  -36.1908   25.0818 H   0  0  0  0  0  0
  -20.9997  -28.3285   24.1375 H   0  0  0  0  0  0
  -20.5688  -26.2315   23.3612 H   0  0  0  0  0  0
  -21.6652  -26.7441   22.1192 H   0  0  0  0  0  0
  -19.6918  -25.6294   21.1244 H   0  0  0  0  0  0
  -19.6690  -27.3192   20.6736 H   0  0  0  0  0  0
  -17.4207  -26.6674   21.4031 H   0  0  0  0  0  0
  -18.0338  -26.0079   22.9026 H   0  0  0  0  0  0
  -19.7948  -30.7280   24.2251 H   0  0  0  0  0  0
  -17.5024  -31.6268   24.5164 H   0  0  0  0  0  0
  -15.5361  -30.2980   23.7665 H   0  0  0  0  0  0
  -15.8684  -28.0818   22.7070 H   0  0  0  0  0  0
  -24.5915  -30.7070   25.7770 H   0  0  0  0  0  0
  -24.8898  -32.2906   26.4832 H   0  0  0  0  0  0
  -25.8030  -30.8943   27.0241 H   0  0  0  0  0  0
  -26.2967  -29.6730   24.1250 H   0  0  0  0  0  0
  -27.4021  -29.7264   25.4778 H   0  0  0  0  0  0
  -27.8857  -30.4256   23.9518 H   0  0  0  0  0  0
  -27.2669  -33.3639   26.2056 H   0  0  0  0  0  0
  -28.3890  -32.6863   25.0349 H   0  0  0  0  0  0
  -28.0709  -31.8469   26.5453 H   0  0  0  0  0  0
  -28.2593  -38.0097   24.7511 H   0  0  0  0  0  0
  -28.1076  -36.2625   24.6295 H   0  0  0  0  0  0
  -27.2293  -37.1444   25.8871 H   0  0  0  0  0  0
  -20.9417  -29.8785   21.6855 H   0  0  0  0  0  0
  -26.0166  -38.2837   24.1411 H   0  0  0  0  0  0
  -30.7175  -20.8051   22.2620 H   0  0  0  0  0  0
  -31.6038  -19.5917   24.3347 H   0  0  0  0  0  0
  -32.9784  -19.0301   23.3771 H   0  0  0  0  0  0
  -31.9676  -17.8702   24.2467 H   0  0  0  0  0  0
  -27.3468  -22.7068   22.3541 H   0  0  0  0  0  0
  -28.9234  -22.0588   22.7453 H   0  0  0  0  0  0
  -27.6054  -20.9780   22.2848 H   0  0  0  0  0  0
  -29.8070  -23.8212   20.9847 H   0  0  0  0  0  0
  -29.5135  -23.5646   19.2987 H   0  0  0  0  0  0
  -27.3027  -24.7105   21.1038 H   0  0  0  0  0  0
  -27.3463  -24.5751   19.3771 H   0  0  0  0  0  0
  -27.5281  -22.0258   20.0530 H   0  0  0  0  0  0
  -28.8275  -20.5694   19.1382 H   0  0  0  0  0  0
  -28.8528  -15.7448   20.3765 H   0  0  0  0  0  0
  1 25  1  0  0  0
  1 30  2  0  0  0
  1 83  1  0  0  0
  2  3  1  0  0  0
  2 25  1  0  0  0
  2 84  1  0  0  0
  2 85  1  0  0  0
  3  4  1  0  0  0
  3 86  1  0  0  0
  3 87  1  0  0  0
  4  5  1  0  0  0
  4 88  1  0  0  0
  4 89  1  0  0  0
  5  6  1  0  0  0
  5 26  1  0  0  0
  5 90  1  0  0  0
  6 25  1  0  0  0
  6 91  1  0  0  0
  6 92  1  0  0  0
  7  8  2  0  0  0
  7 26  1  0  0  0
  7 29  1  0  0  0
  8  9  1  0  0  0
  8 22  1  0  0  0
  9 10  1  0  0  0
  9 27  2  0  0  0
 10 11  2  0  0  0
 10 15  1  0  0  0
 11 12  1  0  0  0
 11 93  1  0  0  0
 12 13  2  0  0  0
 12 94  1  0  0  0
 13 14  1  0  0  0
 13 31  1  0  0  0
 14 15  2  0  0  0
 14 95  1  0  0  0
 15 96  1  0  0  0
 16 17  2  0  0  0
 16 21  1  0  0  0
 16 31  1  0  0  0
 17 18  1  0  0  0
 17 97  1  0  0  0
 18 19  2  0  0  0
 18 98  1  0  0  0
 19 20  1  0  0  0
 19 24  1  0  0  0
 20 21  2  0  0  0
 20 99  1  0  0  0
 21 23  1  0  0  0
 22 28  1  0  0  0
 22 32  2  0  0  0
 26 27  1  0  0  0
 28100  1  0  0  0
 28101  1  0  0  0
 29102  1  0  0  0
 29103  1  0  0  0
 33 34  1  0  0  0
 33 66  1  0  0  0
 33 70  2  0  0  0
 34 36  1  0  0  0
 34 59  1  0  0  0
 34104  1  0  0  0
 35 44  2  0  0  0
 35 45  1  0  0  0
 35 68  1  0  0  0
 36 56  1  0  0  0
 36105  1  0  0  0
 37 39  1  0  0  0
 37 47  1  0  0  0
 37 66  1  0  0  0
 37106  1  0  0  0
 38 43  2  0  0  0
 38 46  1  0  0  0
 38 47  1  0  0  0
 39 64  1  0  0  0
 39 67  2  0  0  0
 40 52  1  0  0  0
 40 53  2  0  0  0
 40 58  1  0  0  0
 41107  1  0  0  0
 41108  1  0  0  0
 41109  1  0  0  0
 41 48  1  0  0  0
 42 43  1  0  0  0
 42 66  1  0  0  0
 42110  1  0  0  0
 42111  1  0  0  0
 43 44  1  0  0  0
 44112  1  0  0  0
 45 46  2  0  0  0
 45113  1  0  0  0
 46114  1  0  0  0
 47115  1  0  0  0
 47116  1  0  0  0
 48 56  1  0  0  0
 48 65  1  0  0  0
 48117  1  0  0  0
 49 50  1  0  0  0
 49 53  1  0  0  0
 49 64  1  0  0  0
 49118  1  0  0  0
 50 51  1  0  0  0
 50119  1  0  0  0
 50120  1  0  0  0
 51 52  1  0  0  0
 51121  1  0  0  0
 51122  1  0  0  0
 52123  1  0  0  0
 52124  1  0  0  0
 53 54  1  0  0  0
 54 55  2  0  0  0
 54125  1  0  0  0
 55 57  1  0  0  0
 55126  1  0  0  0
 56 69  2  0  0  0
 57 58  2  0  0  0
 57127  1  0  0  0
 58128  1  0  0  0
 59 60  1  0  0  0
 59 61  1  0  0  0
 59 62  1  0  0  0
 60129  1  0  0  0
 60130  1  0  0  0
 60131  1  0  0  0
 61132  1  0  0  0
 61133  1  0  0  0
 61134  1  0  0  0
 62135  1  0  0  0
 62136  1  0  0  0
 62137  1  0  0  0
 63 65  1  0  0  0
 63138  1  0  0  0
 63139  1  0  0  0
 63140  1  0  0  0
 64141  1  0  0  0
 65142  1  0  0  0
 68 78  1  0  0  0
 71 72  2  0  0  0
 71 73  1  0  0  0
 71143  1  0  0  0
 72 75  1  0  0  0
 72 80  1  0  0  0
 73 81  2  0  0  0
 73 82  1  0  0  0
 74 80  2  0  0  0
 74 81  1  0  0  0
 74 83  1  0  0  0
 75144  1  0  0  0
 75145  1  0  0  0
 75146  1  0  0  0
 76147  1  0  0  0
 76148  1  0  0  0
 76149  1  0  0  0
 76 79  1  0  0  0
 77 78  1  0  0  0
 77 79  1  0  0  0
 77150  1  0  0  0
 77151  1  0  0  0
 78152  1  0  0  0
 78153  1  0  0  0
 79 82  1  0  0  0
 79154  1  0  0  0
 82155  1  0  0  0
 83156  1  0  0  0
M  ISO  4   1 100  68 101  78 101  83 100
M  END
> <chiral flag>
0

> <version>
0

> <s_m_source_file>
/data/baiqing/PycharmProjects/Reinvent-master-3.2/result/LINK_invent/BTK/process_docking_weight1_custom_product_contain_oxygen_bond_distance_aromatic_linkinvent_7_9_3/rearranged_h_0194.sdf

> <i_m_source_file_index>
46

> <r_mmod_Potential_Energy-OPLS-2005>
-232.902328491211

> <r_mmod_Stretch_Energy-OPLS-2005>
134.895141601562

> <r_mmod_Bend_Energy-OPLS-2005>
200.76399230957

> <r_mmod_Torsional_Energy-OPLS-2005>
239.475570678711

> <r_mmod_Improper_Torsional_Energy-OPLS-2005>
11.3889169692993

> <r_mmod_Van_der_Waal_Energy-OPLS-2005>
146.634841918945

> <r_mmod_Electrostatic_Energy-OPLS-2005>
-825.770324707031

> <r_mmod_Solvation_Energy-OPLS-2005>
-241.956649780273

> <b_mmod_Minimization_Converged-OPLS-2005>
0

> <r_mmod_RMS_Derivative-OPLS-2005>
0.58773285150528

$$$$
46
                    3D
 Structure written by MMmdl.
160168  0  0  1  0            999 V2000
  -30.6773  -14.5501   20.5755 C   0  0  0  0  0  0
  -30.4335  -12.3717   19.4162 C   0  0  0  0  0  0
  -29.4927  -12.5528   18.2055 C   0  0  0  0  0  0
  -28.0217  -12.3814   18.6206 C   0  0  0  0  0  0
  -27.6613  -13.2162   19.8741 C   0  0  2  0  0  0
  -28.7096  -13.0074   20.9928 C   0  0  0  0  0  0
  -25.2501  -13.8041   20.5679 C   0  0  0  0  0  0
  -24.1794  -13.0336   20.9152 C   0  0  0  0  0  0
  -24.6380  -11.6831   20.8686 C   0  0  0  0  0  0
  -23.9040  -10.4220   21.0348 C   0  0  0  0  0  0
  -24.3558   -9.4149   21.9154 C   0  0  0  0  0  0
  -23.6224   -8.2199   22.0751 C   0  0  0  0  0  0
  -22.4199   -8.0240   21.3554 C   0  0  0  0  0  0
  -21.9810   -9.0200   20.4678 C   0  0  0  0  0  0
  -22.7187  -10.2057   20.3045 C   0  0  0  0  0  0
  -21.6854   -6.0671   22.5269 C   0  0  0  0  0  0
  -21.4026   -6.5572   23.8199 C   0  0  0  0  0  0
  -21.3684   -5.6743   24.9173 C   0  0  0  0  0  0
  -21.6041   -4.2998   24.7226 C   0  0  0  0  0  0
  -21.8828   -3.8106   23.4356 C   0  0  0  0  0  0
  -21.9214   -4.6903   22.3417 C   0  0  0  0  0  0
  -22.7835  -13.5214   21.1807 C   0  0  0  0  0  0
  -22.1690   -4.2091   21.0982 F   0  0  0  0  0  0
  -21.5612   -3.4515   25.7756 F   0  0  0  0  0  0
  -30.0390  -13.3464   20.4519 N   0  0  0  0  0  0
  -26.3007  -12.9314   20.3357 N   0  0  0  0  0  0
  -25.9326  -11.6450   20.5692 N   0  0  0  0  0  0
  -22.0436  -12.8263   22.0371 N   0  0  0  0  0  0
  -25.3981  -15.1753   20.4149 N   0  0  0  0  0  0
  -31.7728  -14.7725   20.0529 O   0  0  0  0  0  0
  -21.6615   -6.8797   21.4232 O   0  0  0  0  0  0
  -22.3551  -14.5553   20.6708 O   0  0  0  0  0  0
  -24.6160  -31.8660   23.2051 C   0  0  0  0  0  0
  -25.9043  -32.4816   23.8375 C   0  0  1  0  0  0
  -27.2533  -27.4017   20.1243 C   0  0  0  0  0  0
  -25.5865  -33.8610   24.2294 N   0  0  0  0  0  0
  -23.4087  -30.4843   21.5456 C   0  0  2  0  0  0
  -24.8647  -28.9380   20.1223 C   0  0  0  0  0  0
  -22.7424  -29.4650   22.4971 C   0  0  0  0  0  0
  -18.0275  -28.1377   22.8504 C   0  0  0  0  0  0
  -24.1479  -36.7307   23.2639 C   0  0  0  0  0  0
  -25.9419  -30.8211   21.3665 C   0  0  0  0  0  0
  -26.0241  -29.4506   20.7193 C   0  0  0  0  0  0
  -27.2226  -28.6920   20.7113 C   0  0  0  0  0  0
  -26.0778  -26.9092   19.5204 C   0  0  0  0  0  0
  -24.8869  -27.6673   19.5195 C   0  0  0  0  0  0
  -23.6230  -29.8047   20.1653 C   0  0  0  0  0  0
  -25.4096  -36.3107   24.0349 C   0  0  1  0  0  0
  -20.5868  -28.3676   23.1300 C   0  0  2  0  0  0
  -20.6773  -26.9394   22.5428 C   0  0  0  0  0  0
  -19.5750  -26.6398   21.5217 C   0  0  0  0  0  0
  -18.1921  -26.7932   22.1625 C   0  0  0  0  0  0
  -19.1528  -28.8849   23.2911 C   0  0  0  0  0  0
  -18.9456  -30.1447   23.8927 C   0  0  0  0  0  0
  -17.6461  -30.6580   24.0570 C   0  0  0  0  0  0
  -25.9026  -34.9469   23.5129 C   0  0  0  0  0  0
  -16.5349  -29.9081   23.6317 C   0  0  0  0  0  0
  -16.7274  -28.6493   23.0356 C   0  0  0  0  0  0
  -26.4455  -31.6625   25.0732 C   0  0  0  0  0  0
  -25.3704  -31.3827   26.1483 C   0  0  0  0  0  0
  -27.0261  -30.3030   24.6192 C   0  0  0  0  0  0
  -27.6053  -32.4350   25.7447 C   0  0  0  0  0  0
  -27.5583  -37.1795   24.8446 C   0  0  0  0  0  0
  -21.4150  -29.3032   22.3694 N   0  0  0  0  0  0
  -26.4281  -37.3792   23.9414 N   0  0  0  0  0  0
  -24.6734  -31.0729   22.0960 N   0  0  0  0  0  0
  -23.4173  -28.8198   23.3036 O   0  0  0  0  0  0
  -28.4171  -26.6496   20.0661 O   0  0  0  0  0  0
  -26.5605  -34.8932   22.4699 O   0  0  0  0  0  0
  -23.5347  -32.1428   23.7425 O   0  0  0  0  0  0
  -28.2922  -18.8450   20.4689 C   0  0  0  0  0  0
  -29.6142  -19.1228   20.7194 C   0  0  0  0  0  0
  -29.6229  -16.8008   20.8819 C   0  0  0  0  0  0
  -27.9718  -22.5204   21.9809 C   0  0  0  0  0  0
  -27.9714  -23.0367   23.4175 C   0  0  0  0  0  0
  -29.6623  -25.9271   21.9536 C   0  0  0  0  0  0
  -30.2230  -20.5288   20.8303 C   0  0  0  0  0  0
  -28.8883  -24.1764   20.2138 C   0  0  0  0  0  0
  -29.1693  -22.8676   21.0678 C   0  0  2  0  0  0
  -28.5510  -25.5210   20.9677 C   0  0  2  0  0  0
  -30.3632  -17.9323   20.9635 N   0  0  0  0  0  0
  -30.0184  -15.4858   21.2998 N   0  0  0  0  0  0
  -29.3965  -21.6340   20.2368 N   0  3  0  0  0  0
  -27.0282  -21.8288   21.5852 O   0  0  0  0  0  0
  -27.9445  -17.1374   20.4997 S   0  0  0  0  0  0
  -31.4717  -12.4895   19.1010 H   0  0  0  0  0  0
  -30.3536  -11.3575   19.8061 H   0  0  0  0  0  0
  -29.7386  -11.8445   17.4140 H   0  0  0  0  0  0
  -29.6352  -13.5477   17.7792 H   0  0  0  0  0  0
  -27.8521  -11.3241   18.8188 H   0  0  0  0  0  0
  -27.3655  -12.6466   17.7913 H   0  0  0  0  0  0
  -27.6917  -14.2638   19.5670 H   0  0  0  0  0  0
  -28.7035  -11.9653   21.3182 H   0  0  0  0  0  0
  -28.4493  -13.5873   21.8777 H   0  0  0  0  0  0
  -25.2674   -9.5645   22.4767 H   0  0  0  0  0  0
  -23.9955   -7.4589   22.7466 H   0  0  0  0  0  0
  -21.0721   -8.8708   19.9008 H   0  0  0  0  0  0
  -22.3602  -10.9571   19.6171 H   0  0  0  0  0  0
  -21.1987   -7.6073   23.9686 H   0  0  0  0  0  0
  -21.1525   -6.0465   25.9057 H   0  0  0  0  0  0
  -22.0585   -2.7559   23.2900 H   0  0  0  0  0  0
  -22.3988  -11.9942   22.4854 H   0  0  0  0  0  0
  -21.1095  -13.1408   22.2554 H   0  0  0  0  0  0
  -24.6231  -15.8131   20.5586 H   0  0  0  0  0  0
  -26.2510  -15.6413   20.1414 H   0  0  0  0  0  0
  -26.7114  -32.5526   23.1145 H   0  0  0  0  0  0
  -24.9970  -33.9764   25.0411 H   0  0  0  0  0  0
  -22.6977  -31.3002   21.3975 H   0  0  0  0  0  0
  -23.3757  -35.9618   23.3288 H   0  0  0  0  0  0
  -24.3602  -36.8946   22.2063 H   0  0  0  0  0  0
  -23.7211  -37.6496   23.6676 H   0  0  0  0  0  0
  -26.0662  -31.5864   20.5987 H   0  0  0  0  0  0
  -26.8213  -30.8710   21.9963 H   0  0  0  0  0  0
  -28.1223  -29.0932   21.1566 H   0  0  0  0  0  0
  -26.0897  -25.9416   19.0406 H   0  0  0  0  0  0
  -23.9974  -27.2642   19.0543 H   0  0  0  0  0  0
  -23.7260  -30.5719   19.3972 H   0  0  0  0  0  0
  -22.7485  -29.2192   19.8755 H   0  0  0  0  0  0
  -25.1272  -36.1972   25.0837 H   0  0  0  0  0  0
  -20.9978  -28.3266   24.1415 H   0  0  0  0  0  0
  -20.5647  -26.2281   23.3626 H   0  0  0  0  0  0
  -21.6642  -26.7425   22.1238 H   0  0  0  0  0  0
  -19.6898  -25.6316   21.1225 H   0  0  0  0  0  0
  -19.6664  -27.3220   20.6760 H   0  0  0  0  0  0
  -17.4184  -26.6698   21.4022 H   0  0  0  0  0  0
  -18.0296  -26.0059   22.8998 H   0  0  0  0  0  0
  -19.7933  -30.7254   24.2297 H   0  0  0  0  0  0
  -17.5014  -31.6256   24.5180 H   0  0  0  0  0  0
  -15.5350  -30.2991   23.7624 H   0  0  0  0  0  0
  -15.8679  -28.0810   22.7069 H   0  0  0  0  0  0
  -24.5768  -30.7297   25.7832 H   0  0  0  0  0  0
  -24.9022  -32.3034   26.4982 H   0  0  0  0  0  0
  -25.8001  -30.8920   27.0226 H   0  0  0  0  0  0
  -26.2824  -29.6817   24.1185 H   0  0  0  0  0  0
  -27.3888  -29.7278   25.4730 H   0  0  0  0  0  0
  -27.8744  -30.4291   23.9456 H   0  0  0  0  0  0
  -27.2699  -33.3652   26.2056 H   0  0  0  0  0  0
  -28.3818  -32.6916   25.0222 H   0  0  0  0  0  0
  -28.0778  -31.8462   26.5330 H   0  0  0  0  0  0
  -28.2595  -38.0099   24.7521 H   0  0  0  0  0  0
  -28.1087  -36.2643   24.6211 H   0  0  0  0  0  0
  -27.2336  -37.1401   25.8859 H   0  0  0  0  0  0
  -20.9297  -29.8717   21.6897 H   0  0  0  0  0  0
  -26.0180  -38.2875   24.1411 H   0  0  0  0  0  0
  -27.4769  -19.5379   20.3030 H   0  0  0  0  0  0
  -28.9860  -23.0820   23.8124 H   0  0  0  0  0  0
  -27.3970  -22.3675   24.0593 H   0  0  0  0  0  0
  -27.5244  -24.0279   23.4870 H   0  0  0  0  0  0
  -29.7696  -25.2140   22.7703 H   0  0  0  0  0  0
  -29.4507  -26.8940   22.4126 H   0  0  0  0  0  0
  -30.6304  -26.0059   21.4521 H   0  0  0  0  0  0
  -31.1983  -20.5489   20.3409 H   0  0  0  0  0  0
  -30.4267  -20.7495   21.8777 H   0  0  0  0  0  0
  -28.0740  -23.9798   19.5141 H   0  0  0  0  0  0
  -29.7655  -24.3635   19.5878 H   0  0  0  0  0  0
  -30.0578  -23.0410   21.6751 H   0  0  0  0  0  0
  -27.6220  -25.3955   21.5301 H   0  0  0  0  0  0
  -29.2840  -15.0245   21.8140 H   0  0  0  0  0  0
  -28.4837  -21.2578   20.0355 H   0  0  0  0  0  0
  -29.8269  -21.8856   19.3632 H   0  0  0  0  0  0
  1 25  1  0  0  0
  1 30  2  0  0  0
  1 82  1  0  0  0
  2  3  1  0  0  0
  2 25  1  0  0  0
  2 86  1  0  0  0
  2 87  1  0  0  0
  3  4  1  0  0  0
  3 88  1  0  0  0
  3 89  1  0  0  0
  4  5  1  0  0  0
  4 90  1  0  0  0
  4 91  1  0  0  0
  5  6  1  0  0  0
  5 26  1  0  0  0
  5 92  1  0  0  0
  6 25  1  0  0  0
  6 93  1  0  0  0
  6 94  1  0  0  0
  7  8  2  0  0  0
  7 26  1  0  0  0
  7 29  1  0  0  0
  8  9  1  0  0  0
  8 22  1  0  0  0
  9 10  1  0  0  0
  9 27  2  0  0  0
 10 11  2  0  0  0
 10 15  1  0  0  0
 11 12  1  0  0  0
 11 95  1  0  0  0
 12 13  2  0  0  0
 12 96  1  0  0  0
 13 14  1  0  0  0
 13 31  1  0  0  0
 14 15  2  0  0  0
 14 97  1  0  0  0
 15 98  1  0  0  0
 16 17  2  0  0  0
 16 21  1  0  0  0
 16 31  1  0  0  0
 17 18  1  0  0  0
 17 99  1  0  0  0
 18 19  2  0  0  0
 18100  1  0  0  0
 19 20  1  0  0  0
 19 24  1  0  0  0
 20 21  2  0  0  0
 20101  1  0  0  0
 21 23  1  0  0  0
 22 28  1  0  0  0
 22 32  2  0  0  0
 26 27  1  0  0  0
 28102  1  0  0  0
 28103  1  0  0  0
 29104  1  0  0  0
 29105  1  0  0  0
 33 34  1  0  0  0
 33 66  1  0  0  0
 33 70  2  0  0  0
 34 36  1  0  0  0
 34 59  1  0  0  0
 34106  1  0  0  0
 35 44  2  0  0  0
 35 45  1  0  0  0
 35 68  1  0  0  0
 36 56  1  0  0  0
 36107  1  0  0  0
 37 39  1  0  0  0
 37 47  1  0  0  0
 37 66  1  0  0  0
 37108  1  0  0  0
 38 43  2  0  0  0
 38 46  1  0  0  0
 38 47  1  0  0  0
 39 64  1  0  0  0
 39 67  2  0  0  0
 40 52  1  0  0  0
 40 53  2  0  0  0
 40 58  1  0  0  0
 41109  1  0  0  0
 41110  1  0  0  0
 41111  1  0  0  0
 41 48  1  0  0  0
 42 43  1  0  0  0
 42 66  1  0  0  0
 42112  1  0  0  0
 42113  1  0  0  0
 43 44  1  0  0  0
 44114  1  0  0  0
 45 46  2  0  0  0
 45115  1  0  0  0
 46116  1  0  0  0
 47117  1  0  0  0
 47118  1  0  0  0
 48 56  1  0  0  0
 48 65  1  0  0  0
 48119  1  0  0  0
 49 50  1  0  0  0
 49 53  1  0  0  0
 49 64  1  0  0  0
 49120  1  0  0  0
 50 51  1  0  0  0
 50121  1  0  0  0
 50122  1  0  0  0
 51 52  1  0  0  0
 51123  1  0  0  0
 51124  1  0  0  0
 52125  1  0  0  0
 52126  1  0  0  0
 53 54  1  0  0  0
 54 55  2  0  0  0
 54127  1  0  0  0
 55 57  1  0  0  0
 55128  1  0  0  0
 56 69  2  0  0  0
 57 58  2  0  0  0
 57129  1  0  0  0
 58130  1  0  0  0
 59 60  1  0  0  0
 59 61  1  0  0  0
 59 62  1  0  0  0
 60131  1  0  0  0
 60132  1  0  0  0
 60133  1  0  0  0
 61134  1  0  0  0
 61135  1  0  0  0
 61136  1  0  0  0
 62137  1  0  0  0
 62138  1  0  0  0
 62139  1  0  0  0
 63 65  1  0  0  0
 63140  1  0  0  0
 63141  1  0  0  0
 63142  1  0  0  0
 64143  1  0  0  0
 65144  1  0  0  0
 68 80  1  0  0  0
 71 72  2  0  0  0
 71 85  1  0  0  0
 71145  1  0  0  0
 72 77  1  0  0  0
 72 81  1  0  0  0
 73 81  2  0  0  0
 73 82  1  0  0  0
 73 85  1  0  0  0
 74 75  1  0  0  0
 74 79  1  0  0  0
 74 84  2  0  0  0
 75146  1  0  0  0
 75147  1  0  0  0
 75148  1  0  0  0
 76149  1  0  0  0
 76150  1  0  0  0
 76151  1  0  0  0
 76 80  1  0  0  0
 77 83  1  0  0  0
 77152  1  0  0  0
 77153  1  0  0  0
 78 80  1  0  0  0
 78154  1  0  0  0
 78155  1  0  0  0
 78 79  1  0  0  0
 79 83  1  0  0  0
 79156  1  0  0  0
 80157  1  0  0  0
 82158  1  0  0  0
 83159  1  0  0  0
 83160  1  0  0  0
M  CHG  1  83   1
M  ISO  4   1 100  68 101  80 101  82 100
M  END
> <chiral flag>
0

> <version>
0

> <s_m_source_file>
/data/baiqing/PycharmProjects/Reinvent-master-3.2/result/LINK_invent/BTK/process_docking_weight1_custom_product_contain_oxygen_bond_distance_aromatic_linkinvent_7_9_3/rearranged_h_0194.sdf

> <i_m_source_file_index>
47

> <r_mmod_Potential_Energy-OPLS-2005>
-429.779510498047

> <r_mmod_Stretch_Energy-OPLS-2005>
52.9551849365234

> <r_mmod_Bend_Energy-OPLS-2005>
117.653266906738

> <r_mmod_Torsional_Energy-OPLS-2005>
275.827789306641

> <r_mmod_Improper_Torsional_Energy-OPLS-2005>
7.37068319320679

> <r_mmod_Van_der_Waal_Energy-OPLS-2005>
110.532661437988

> <r_mmod_Electrostatic_Energy-OPLS-2005>
-513.221069335938

> <r_mmod_Solvation_Energy-OPLS-2005>
-501.216247558594

> <b_mmod_Minimization_Converged-OPLS-2005>
0

> <r_mmod_RMS_Derivative-OPLS-2005>
4.7801685333252

$$$$
47
                    3D
 Structure written by MMmdl.
156164  0  0  1  0            999 V2000
  -30.7125  -14.4610   20.5661 C   0  0  0  0  0  0
  -30.4161  -12.2954   19.4251 C   0  0  0  0  0  0
  -29.4948  -12.5040   18.2057 C   0  0  0  0  0  0
  -28.0153  -12.3651   18.6158 C   0  0  0  0  0  0
  -27.6604  -13.2055   19.8718 C   0  0  2  0  0  0
  -28.7013  -12.9978   20.9963 C   0  0  0  0  0  0
  -25.2585  -13.8155   20.5654 C   0  0  0  0  0  0
  -24.1838  -13.0438   20.9175 C   0  0  0  0  0  0
  -24.6381  -11.6902   20.8718 C   0  0  0  0  0  0
  -23.9042  -10.4295   21.0394 C   0  0  0  0  0  0
  -24.3601   -9.4216   21.9174 C   0  0  0  0  0  0
  -23.6285   -8.2245   22.0753 C   0  0  0  0  0  0
  -22.4269   -8.0274   21.3544 C   0  0  0  0  0  0
  -21.9893   -9.0242   20.4647 C   0  0  0  0  0  0
  -22.7212  -10.2128   20.3046 C   0  0  0  0  0  0
  -21.6856   -6.0724   22.5277 C   0  0  0  0  0  0
  -21.4016   -6.5632   23.8209 C   0  0  0  0  0  0
  -21.3661   -5.6787   24.9172 C   0  0  0  0  0  0
  -21.6045   -4.3048   24.7226 C   0  0  0  0  0  0
  -21.8820   -3.8140   23.4347 C   0  0  0  0  0  0
  -21.9196   -4.6954   22.3401 C   0  0  0  0  0  0
  -22.7860  -13.5243   21.1846 C   0  0  0  0  0  0
  -22.1664   -4.2138   21.0978 F   0  0  0  0  0  0
  -21.5631   -3.4536   25.7740 F   0  0  0  0  0  0
  -30.0333  -13.2884   20.4417 N   0  0  0  0  0  0
  -26.3014  -12.9322   20.3332 N   0  0  0  0  0  0
  -25.9312  -11.6484   20.5742 N   0  0  0  0  0  0
  -22.0487  -12.8243   22.0394 N   0  0  0  0  0  0
  -25.4291  -15.1874   20.4030 N   0  0  0  0  0  0
  -31.8527  -14.6089   20.1125 O   0  0  0  0  0  0
  -21.6638   -6.8868   21.4238 O   0  0  0  0  0  0
  -22.3544  -14.5548   20.6694 O   0  0  0  0  0  0
  -24.6152  -31.8703   23.2112 C   0  0  0  0  0  0
  -25.9058  -32.4842   23.8401 C   0  0  1  0  0  0
  -27.2374  -27.4405   20.0816 C   0  0  0  0  0  0
  -25.5916  -33.8638   24.2337 N   0  0  0  0  0  0
  -23.4004  -30.4933   21.5529 C   0  0  2  0  0  0
  -24.8439  -28.9562   20.1150 C   0  0  0  0  0  0
  -22.7397  -29.4687   22.5023 C   0  0  0  0  0  0
  -18.0270  -28.1379   22.8487 C   0  0  0  0  0  0
  -24.1482  -36.7321   23.2635 C   0  0  0  0  0  0
  -25.9281  -30.8320   21.3638 C   0  0  0  0  0  0
  -26.0022  -29.4655   20.7145 C   0  0  0  0  0  0
  -27.1947  -28.7088   20.7057 C   0  0  0  0  0  0
  -26.0593  -26.9451   19.4761 C   0  0  0  0  0  0
  -24.8669  -27.6933   19.4983 C   0  0  0  0  0  0
  -23.6055  -29.8221   20.1679 C   0  0  0  0  0  0
  -25.4103  -36.3120   24.0340 C   0  0  1  0  0  0
  -20.5855  -28.3669   23.1324 C   0  0  2  0  0  0
  -20.6765  -26.9413   22.5407 C   0  0  0  0  0  0
  -19.5740  -26.6386   21.5209 C   0  0  0  0  0  0
  -18.1921  -26.7934   22.1616 C   0  0  0  0  0  0
  -19.1518  -28.8841   23.2899 C   0  0  0  0  0  0
  -18.9447  -30.1452   23.8900 C   0  0  0  0  0  0
  -17.6452  -30.6584   24.0565 C   0  0  0  0  0  0
  -25.9028  -34.9491   23.5131 C   0  0  0  0  0  0
  -16.5338  -29.9081   23.6331 C   0  0  0  0  0  0
  -16.7263  -28.6499   23.0352 C   0  0  0  0  0  0
  -26.4475  -31.6624   25.0736 C   0  0  0  0  0  0
  -25.3733  -31.3753   26.1481 C   0  0  0  0  0  0
  -27.0315  -30.3063   24.6135 C   0  0  0  0  0  0
  -27.6052  -32.4340   25.7496 C   0  0  0  0  0  0
  -27.5583  -37.1821   24.8464 C   0  0  0  0  0  0
  -21.4130  -29.3040   22.3740 N   0  0  0  0  0  0
  -26.4294  -37.3800   23.9408 N   0  0  0  0  0  0
  -24.6661  -31.0817   22.0998 N   0  0  0  0  0  0
  -23.4166  -28.8249   23.3078 O   0  0  0  0  0  0
  -28.4272  -26.7395   20.1090 O   0  0  0  0  0  0
  -26.5577  -34.8943   22.4680 O   0  0  0  0  0  0
  -23.5356  -32.1451   23.7528 O   0  0  0  0  0  0
  -29.4585  -17.8618   20.4718 C   0  0  0  0  0  0
  -30.3675  -16.8696   20.9779 C   0  0  0  0  0  0
  -30.0642  -19.0927   20.3392 C   0  0  0  0  0  0
  -28.4174  -20.7798   19.7555 C   0  0  0  0  0  0
  -28.2592  -24.2632   19.6569 C   0  0  0  0  0  0
  -28.7696  -23.1754   18.6718 C   0  0  0  0  0  0
  -28.6649  -25.6818   19.1748 C   0  0  0  0  0  0
  -28.0702  -21.7813   18.6323 C   0  0  2  0  0  0
  -31.5560  -17.3049   21.3443 N   0  0  0  0  0  0
  -29.9982  -15.4964   21.0524 N   0  0  0  0  0  0
  -29.6446  -20.2347   19.7306 N   0  0  0  0  0  0
  -26.6104  -21.8873   18.4633 N   0  3  0  0  0  0
  -27.5718  -20.4919   20.6096 O   0  0  0  0  0  0
  -31.6792  -18.9367   20.9618 S   0  0  0  0  0  0
  -31.4639  -12.3756   19.1282 H   0  0  0  0  0  0
  -30.2962  -11.2860   19.8219 H   0  0  0  0  0  0
  -29.7350  -11.7842   17.4218 H   0  0  0  0  0  0
  -29.6658  -13.4920   17.7754 H   0  0  0  0  0  0
  -27.8242  -11.3094   18.8106 H   0  0  0  0  0  0
  -27.3664  -12.6414   17.7835 H   0  0  0  0  0  0
  -27.7018  -14.2513   19.5669 H   0  0  0  0  0  0
  -28.6727  -11.9688   21.3582 H   0  0  0  0  0  0
  -28.4669  -13.6151   21.8650 H   0  0  0  0  0  0
  -25.2746   -9.5709   22.4739 H   0  0  0  0  0  0
  -24.0010   -7.4640   22.7471 H   0  0  0  0  0  0
  -21.0825   -8.8746   19.8953 H   0  0  0  0  0  0
  -22.3658  -10.9657   19.6150 H   0  0  0  0  0  0
  -21.2003   -7.6138   23.9712 H   0  0  0  0  0  0
  -21.1484   -6.0513   25.9077 H   0  0  0  0  0  0
  -22.0599   -2.7601   23.2844 H   0  0  0  0  0  0
  -22.4099  -11.9909   22.4796 H   0  0  0  0  0  0
  -21.1099  -13.1278   22.2583 H   0  0  0  0  0  0
  -24.6532  -15.8348   20.4947 H   0  0  0  0  0  0
  -26.2680  -15.6240   20.0431 H   0  0  0  0  0  0
  -26.7137  -32.5549   23.1172 H   0  0  0  0  0  0
  -25.0150  -33.9787   25.0542 H   0  0  0  0  0  0
  -22.6873  -31.3088   21.4146 H   0  0  0  0  0  0
  -23.3746  -35.9648   23.3302 H   0  0  0  0  0  0
  -24.3586  -36.8926   22.2047 H   0  0  0  0  0  0
  -23.7224  -37.6530   23.6639 H   0  0  0  0  0  0
  -26.0413  -31.5942   20.5912 H   0  0  0  0  0  0
  -26.8171  -30.8870   21.9814 H   0  0  0  0  0  0
  -28.0892  -29.0998   21.1711 H   0  0  0  0  0  0
  -26.0357  -25.9821   18.9898 H   0  0  0  0  0  0
  -23.9743  -27.2939   19.0361 H   0  0  0  0  0  0
  -23.7091  -30.5926   19.4031 H   0  0  0  0  0  0
  -22.7284  -29.2402   19.8790 H   0  0  0  0  0  0
  -25.1277  -36.1996   25.0834 H   0  0  0  0  0  0
  -20.9936  -28.3243   24.1453 H   0  0  0  0  0  0
  -20.5696  -26.2279   23.3593 H   0  0  0  0  0  0
  -21.6640  -26.7487   22.1193 H   0  0  0  0  0  0
  -19.6899  -25.6298   21.1244 H   0  0  0  0  0  0
  -19.6691  -27.3184   20.6731 H   0  0  0  0  0  0
  -17.4203  -26.6694   21.4008 H   0  0  0  0  0  0
  -18.0313  -26.0076   22.9005 H   0  0  0  0  0  0
  -19.7924  -30.7263   24.2278 H   0  0  0  0  0  0
  -17.5006  -31.6265   24.5165 H   0  0  0  0  0  0
  -15.5339  -30.2975   23.7672 H   0  0  0  0  0  0
  -15.8661  -28.0813   22.7076 H   0  0  0  0  0  0
  -24.5874  -30.7139   25.7816 H   0  0  0  0  0  0
  -24.8964  -32.2930   26.4941 H   0  0  0  0  0  0
  -25.8065  -30.8903   27.0239 H   0  0  0  0  0  0
  -26.2870  -29.6822   24.1174 H   0  0  0  0  0  0
  -27.4060  -29.7316   25.4624 H   0  0  0  0  0  0
  -27.8717  -30.4379   23.9306 H   0  0  0  0  0  0
  -27.2664  -33.3622   26.2104 H   0  0  0  0  0  0
  -28.3836  -32.6930   25.0308 H   0  0  0  0  0  0
  -28.0742  -31.8452   26.5387 H   0  0  0  0  0  0
  -28.2614  -38.0108   24.7514 H   0  0  0  0  0  0
  -28.1070  -36.2653   24.6275 H   0  0  0  0  0  0
  -27.2319  -37.1443   25.8870 H   0  0  0  0  0  0
  -20.9303  -29.8755   21.6945 H   0  0  0  0  0  0
  -26.0204  -38.2898   24.1367 H   0  0  0  0  0  0
  -28.4546  -17.6235   20.1510 H   0  0  0  0  0  0
  -28.6706  -24.0775   20.6492 H   0  0  0  0  0  0
  -27.1780  -24.2167   19.7670 H   0  0  0  0  0  0
  -29.8407  -23.0387   18.8280 H   0  0  0  0  0  0
  -28.6939  -23.5807   17.6625 H   0  0  0  0  0  0
  -28.2160  -25.9108   18.2065 H   0  0  0  0  0  0
  -29.7403  -25.6863   18.9953 H   0  0  0  0  0  0
  -28.4217  -21.2972   17.7191 H   0  0  0  0  0  0
  -29.0390  -15.2935   21.2820 H   0  0  0  0  0  0
  -30.3228  -20.6887   19.1339 H   0  0  0  0  0  0
  -26.1896  -22.2403   19.3036 H   0  0  0  0  0  0
  -26.2363  -20.9674   18.3075 H   0  0  0  0  0  0
  -26.3721  -22.4681   17.6814 H   0  0  0  0  0  0
  1 25  1  0  0  0
  1 30  2  0  0  0
  1 80  1  0  0  0
  2  3  1  0  0  0
  2 25  1  0  0  0
  2 85  1  0  0  0
  2 86  1  0  0  0
  3  4  1  0  0  0
  3 87  1  0  0  0
  3 88  1  0  0  0
  4  5  1  0  0  0
  4 89  1  0  0  0
  4 90  1  0  0  0
  5  6  1  0  0  0
  5 26  1  0  0  0
  5 91  1  0  0  0
  6 25  1  0  0  0
  6 92  1  0  0  0
  6 93  1  0  0  0
  7  8  2  0  0  0
  7 26  1  0  0  0
  7 29  1  0  0  0
  8  9  1  0  0  0
  8 22  1  0  0  0
  9 10  1  0  0  0
  9 27  2  0  0  0
 10 11  2  0  0  0
 10 15  1  0  0  0
 11 12  1  0  0  0
 11 94  1  0  0  0
 12 13  2  0  0  0
 12 95  1  0  0  0
 13 14  1  0  0  0
 13 31  1  0  0  0
 14 15  2  0  0  0
 14 96  1  0  0  0
 15 97  1  0  0  0
 16 17  2  0  0  0
 16 21  1  0  0  0
 16 31  1  0  0  0
 17 18  1  0  0  0
 17 98  1  0  0  0
 18 19  2  0  0  0
 18 99  1  0  0  0
 19 20  1  0  0  0
 19 24  1  0  0  0
 20 21  2  0  0  0
 20100  1  0  0  0
 21 23  1  0  0  0
 22 28  1  0  0  0
 22 32  2  0  0  0
 26 27  1  0  0  0
 28101  1  0  0  0
 28102  1  0  0  0
 29103  1  0  0  0
 29104  1  0  0  0
 33 34  1  0  0  0
 33 66  1  0  0  0
 33 70  2  0  0  0
 34 36  1  0  0  0
 34 59  1  0  0  0
 34105  1  0  0  0
 35 44  2  0  0  0
 35 45  1  0  0  0
 35 68  1  0  0  0
 36 56  1  0  0  0
 36106  1  0  0  0
 37 39  1  0  0  0
 37 47  1  0  0  0
 37 66  1  0  0  0
 37107  1  0  0  0
 38 43  2  0  0  0
 38 46  1  0  0  0
 38 47  1  0  0  0
 39 64  1  0  0  0
 39 67  2  0  0  0
 40 52  1  0  0  0
 40 53  2  0  0  0
 40 58  1  0  0  0
 41108  1  0  0  0
 41109  1  0  0  0
 41110  1  0  0  0
 41 48  1  0  0  0
 42 43  1  0  0  0
 42 66  1  0  0  0
 42111  1  0  0  0
 42112  1  0  0  0
 43 44  1  0  0  0
 44113  1  0  0  0
 45 46  2  0  0  0
 45114  1  0  0  0
 46115  1  0  0  0
 47116  1  0  0  0
 47117  1  0  0  0
 48 56  1  0  0  0
 48 65  1  0  0  0
 48118  1  0  0  0
 49 50  1  0  0  0
 49 53  1  0  0  0
 49 64  1  0  0  0
 49119  1  0  0  0
 50 51  1  0  0  0
 50120  1  0  0  0
 50121  1  0  0  0
 51 52  1  0  0  0
 51122  1  0  0  0
 51123  1  0  0  0
 52124  1  0  0  0
 52125  1  0  0  0
 53 54  1  0  0  0
 54 55  2  0  0  0
 54126  1  0  0  0
 55 57  1  0  0  0
 55127  1  0  0  0
 56 69  2  0  0  0
 57 58  2  0  0  0
 57128  1  0  0  0
 58129  1  0  0  0
 59 60  1  0  0  0
 59 61  1  0  0  0
 59 62  1  0  0  0
 60130  1  0  0  0
 60131  1  0  0  0
 60132  1  0  0  0
 61133  1  0  0  0
 61134  1  0  0  0
 61135  1  0  0  0
 62136  1  0  0  0
 62137  1  0  0  0
 62138  1  0  0  0
 63 65  1  0  0  0
 63139  1  0  0  0
 63140  1  0  0  0
 63141  1  0  0  0
 64142  1  0  0  0
 65143  1  0  0  0
 68 77  1  0  0  0
 71 72  1  0  0  0
 71 73  2  0  0  0
 71144  1  0  0  0
 72 79  2  0  0  0
 72 80  1  0  0  0
 73 81  1  0  0  0
 73 84  1  0  0  0
 74 78  1  0  0  0
 74 81  1  0  0  0
 74 83  2  0  0  0
 75 76  1  0  0  0
 75 77  1  0  0  0
 75145  1  0  0  0
 75146  1  0  0  0
 76 78  1  0  0  0
 76147  1  0  0  0
 76148  1  0  0  0
 77149  1  0  0  0
 77150  1  0  0  0
 78 82  1  0  0  0
 78151  1  0  0  0
 79 84  1  0  0  0
 80152  1  0  0  0
 81153  1  0  0  0
 82154  1  0  0  0
 82155  1  0  0  0
 82156  1  0  0  0
M  CHG  1  82   1
M  ISO  4   1 100  68 101  77 101  80 100
M  END
> <chiral flag>
0

> <version>
0

> <s_m_source_file>
/data/baiqing/PycharmProjects/Reinvent-master-3.2/result/LINK_invent/BTK/process_docking_weight1_custom_product_contain_oxygen_bond_distance_aromatic_linkinvent_7_9_3/rearranged_h_0194.sdf

> <i_m_source_file_index>
48

> <r_mmod_Potential_Energy-OPLS-2005>
-448.443908691406

> <r_mmod_Stretch_Energy-OPLS-2005>
35.8318252563477

> <r_mmod_Bend_Energy-OPLS-2005>
114.96395111084

> <r_mmod_Torsional_Energy-OPLS-2005>
240.876434326172

> <r_mmod_Improper_Torsional_Energy-OPLS-2005>
5.15450048446655

> <r_mmod_Van_der_Waal_Energy-OPLS-2005>
132.607543945312

> <r_mmod_Electrostatic_Energy-OPLS-2005>
-429.587738037109

> <r_mmod_Solvation_Energy-OPLS-2005>
-561.422546386719

> <b_mmod_Minimization_Converged-OPLS-2005>
0

> <r_mmod_RMS_Derivative-OPLS-2005>
1.8630143404007

$$$$
48
                    3D
 Structure written by MMmdl.
167175  0  0  1  0            999 V2000
  -30.6633  -14.5730   20.4723 C   0  0  0  0  0  0
  -30.4202  -12.3438   19.4535 C   0  0  0  0  0  0
  -29.4986  -12.4849   18.2235 C   0  0  0  0  0  0
  -28.0167  -12.3576   18.6280 C   0  0  0  0  0  0
  -27.6509  -13.2208   19.8640 C   0  0  2  0  0  0
  -28.6945  -13.0711   20.9939 C   0  0  0  0  0  0
  -25.2530  -13.8184   20.5683 C   0  0  0  0  0  0
  -24.1803  -13.0443   20.9189 C   0  0  0  0  0  0
  -24.6380  -11.6912   20.8770 C   0  0  0  0  0  0
  -23.9063  -10.4290   21.0423 C   0  0  0  0  0  0
  -24.3611   -9.4199   21.9197 C   0  0  0  0  0  0
  -23.6281   -8.2236   22.0751 C   0  0  0  0  0  0
  -22.4264   -8.0280   21.3543 C   0  0  0  0  0  0
  -21.9906   -9.0262   20.4654 C   0  0  0  0  0  0
  -22.7237  -10.2134   20.3069 C   0  0  0  0  0  0
  -21.6848   -6.0737   22.5281 C   0  0  0  0  0  0
  -21.4020   -6.5639   23.8219 C   0  0  0  0  0  0
  -21.3667   -5.6787   24.9176 C   0  0  0  0  0  0
  -21.6028   -4.3044   24.7222 C   0  0  0  0  0  0
  -21.8814   -3.8150   23.4350 C   0  0  0  0  0  0
  -21.9190   -4.6966   22.3400 C   0  0  0  0  0  0
  -22.7826  -13.5255   21.1845 C   0  0  0  0  0  0
  -22.1653   -4.2156   21.0977 F   0  0  0  0  0  0
  -21.5628   -3.4526   25.7741 F   0  0  0  0  0  0
  -30.0169  -13.3710   20.4303 N   0  0  0  0  0  0
  -26.2969  -12.9379   20.3337 N   0  0  0  0  0  0
  -25.9314  -11.6528   20.5799 N   0  0  0  0  0  0
  -22.0449  -12.8270   22.0389 N   0  0  0  0  0  0
  -25.4238  -15.1892   20.4094 N   0  0  0  0  0  0
  -31.8415  -14.6832   20.1211 O   0  0  0  0  0  0
  -21.6620   -6.8878   21.4245 O   0  0  0  0  0  0
  -22.3542  -14.5585   20.6705 O   0  0  0  0  0  0
  -24.6217  -31.8645   23.2072 C   0  0  0  0  0  0
  -25.9084  -32.4799   23.8384 C   0  0  1  0  0  0
  -27.2155  -27.3624   20.1171 C   0  0  0  0  0  0
  -25.5920  -33.8595   24.2314 N   0  0  0  0  0  0
  -23.4115  -30.4928   21.5478 C   0  0  2  0  0  0
  -24.8551  -28.9551   20.1105 C   0  0  0  0  0  0
  -22.7443  -29.4658   22.4932 C   0  0  0  0  0  0
  -18.0290  -28.1378   22.8477 C   0  0  0  0  0  0
  -24.1484  -36.7308   23.2631 C   0  0  0  0  0  0
  -25.9479  -30.8104   21.3694 C   0  0  0  0  0  0
  -26.0224  -29.4405   20.7161 C   0  0  0  0  0  0
  -27.2069  -28.6543   20.7131 C   0  0  0  0  0  0
  -26.0351  -26.9287   19.4715 C   0  0  0  0  0  0
  -24.8609  -27.7018   19.4815 C   0  0  0  0  0  0
  -23.6234  -29.8331   20.1603 C   0  0  0  0  0  0
  -25.4099  -36.3100   24.0335 C   0  0  1  0  0  0
  -20.5888  -28.3681   23.1276 C   0  0  2  0  0  0
  -20.6784  -26.9404   22.5408 C   0  0  0  0  0  0
  -19.5761  -26.6379   21.5204 C   0  0  0  0  0  0
  -18.1939  -26.7921   22.1614 C   0  0  0  0  0  0
  -19.1542  -28.8840   23.2884 C   0  0  0  0  0  0
  -18.9472  -30.1437   23.8912 C   0  0  0  0  0  0
  -17.6474  -30.6580   24.0568 C   0  0  0  0  0  0
  -25.9043  -34.9469   23.5126 C   0  0  0  0  0  0
  -16.5366  -29.9090   23.6317 C   0  0  0  0  0  0
  -16.7278  -28.6510   23.0336 C   0  0  0  0  0  0
  -26.4487  -31.6579   25.0720 C   0  0  0  0  0  0
  -25.3743  -31.3708   26.1460 C   0  0  0  0  0  0
  -27.0287  -30.3003   24.6110 C   0  0  0  0  0  0
  -27.6066  -32.4281   25.7488 C   0  0  0  0  0  0
  -27.5588  -37.1796   24.8454 C   0  0  0  0  0  0
  -21.4168  -29.3049   22.3671 N   0  0  0  0  0  0
  -26.4278  -37.3796   23.9429 N   0  0  0  0  0  0
  -24.6791  -31.0707   22.0997 N   0  0  0  0  0  0
  -23.4190  -28.8194   23.2990 O   0  0  0  0  0  0
  -28.3351  -26.5307   20.1624 O   0  0  0  0  0  0
  -26.5607  -34.8925   22.4686 O   0  0  0  0  0  0
  -23.5393  -32.1424   23.7434 O   0  0  0  0  0  0
  -30.2151  -17.9552   17.7765 C   0  0  0  0  0  0
  -30.0648  -16.8128   18.5727 C   0  0  0  0  0  0
  -30.2585  -19.2141   18.3976 C   0  0  0  0  0  0
  -29.9667  -16.9210   19.9783 C   0  0  0  0  0  0
  -30.0161  -19.2881   19.7835 C   0  0  0  0  0  0
  -27.5090  -20.6218   20.6605 C   0  0  0  0  0  0
  -25.1302  -21.1074   21.4323 C   0  0  0  0  0  0
  -28.0027  -25.1065   22.1076 C   0  0  0  0  0  0
  -26.5884  -20.8665   21.8559 C   0  0  0  0  0  0
  -28.6681  -22.6663   19.6577 C   0  0  0  0  0  0
  -29.1795  -24.1037   20.0684 C   0  0  0  0  0  0
  -28.8360  -21.4175   20.6216 C   0  0  2  0  0  0
  -28.1074  -25.1370   20.5748 C   0  0  2  0  0  0
  -29.8809  -18.1681   20.5612 N   0  0  0  0  0  0
  -30.5727  -20.3585   17.6559 N   0  0  0  0  0  0
  -29.8988  -15.6765   20.7121 N   0  0  0  0  0  0
  -30.0446  -20.5946   20.3304 N   0  0  0  0  0  0
  -27.1426  -19.8674   19.7541 O   0  0  0  0  0  0
  -31.4657  -12.4348   19.1528 H   0  0  0  0  0  0
  -30.3272  -11.3515   19.8950 H   0  0  0  0  0  0
  -29.7436  -11.7213   17.4851 H   0  0  0  0  0  0
  -29.6662  -13.4479   17.7372 H   0  0  0  0  0  0
  -27.8188  -11.3068   18.8386 H   0  0  0  0  0  0
  -27.3773  -12.6228   17.7865 H   0  0  0  0  0  0
  -27.6718  -14.2577   19.5275 H   0  0  0  0  0  0
  -28.6822  -12.0581   21.3973 H   0  0  0  0  0  0
  -28.4600  -13.7301   21.8323 H   0  0  0  0  0  0
  -25.2739   -9.5683   22.4798 H   0  0  0  0  0  0
  -23.9984   -7.4628   22.7472 H   0  0  0  0  0  0
  -21.0838   -8.8791   19.8972 H   0  0  0  0  0  0
  -22.3690  -10.9682   19.6203 H   0  0  0  0  0  0
  -21.2003   -7.6145   23.9730 H   0  0  0  0  0  0
  -21.1505   -6.0509   25.9081 H   0  0  0  0  0  0
  -22.0595   -2.7615   23.2836 H   0  0  0  0  0  0
  -22.4028  -11.9931   22.4794 H   0  0  0  0  0  0
  -21.1086  -13.1362   22.2605 H   0  0  0  0  0  0
  -24.6475  -15.8374   20.4916 H   0  0  0  0  0  0
  -26.2674  -15.6306   20.0676 H   0  0  0  0  0  0
  -26.7150  -32.5490   23.1140 H   0  0  0  0  0  0
  -25.0059  -33.9752   25.0454 H   0  0  0  0  0  0
  -22.7031  -31.3120   21.4108 H   0  0  0  0  0  0
  -23.3757  -35.9626   23.3263 H   0  0  0  0  0  0
  -24.3600  -36.8956   22.2053 H   0  0  0  0  0  0
  -23.7225  -37.6494   23.6669 H   0  0  0  0  0  0
  -26.0676  -31.5722   20.5977 H   0  0  0  0  0  0
  -26.8340  -30.8643   21.9900 H   0  0  0  0  0  0
  -28.1011  -29.0174   21.2001 H   0  0  0  0  0  0
  -25.9982  -25.9822   18.9527 H   0  0  0  0  0  0
  -23.9689  -27.3272   18.9975 H   0  0  0  0  0  0
  -23.7454  -30.6140   19.4087 H   0  0  0  0  0  0
  -22.7415  -29.2673   19.8533 H   0  0  0  0  0  0
  -25.1272  -36.1950   25.0825 H   0  0  0  0  0  0
  -20.9992  -28.3267   24.1386 H   0  0  0  0  0  0
  -20.5667  -26.2295   23.3610 H   0  0  0  0  0  0
  -21.6658  -26.7427   22.1217 H   0  0  0  0  0  0
  -19.6931  -25.6290   21.1235 H   0  0  0  0  0  0
  -19.6700  -27.3184   20.6729 H   0  0  0  0  0  0
  -17.4206  -26.6645   21.4026 H   0  0  0  0  0  0
  -18.0361  -26.0071   22.9018 H   0  0  0  0  0  0
  -19.7947  -30.7244   24.2299 H   0  0  0  0  0  0
  -17.5034  -31.6253   24.5177 H   0  0  0  0  0  0
  -15.5372  -30.3003   23.7628 H   0  0  0  0  0  0
  -15.8677  -28.0838   22.7037 H   0  0  0  0  0  0
  -24.5923  -30.7036   25.7823 H   0  0  0  0  0  0
  -24.8916  -32.2859   26.4893 H   0  0  0  0  0  0
  -25.8088  -30.8904   27.0236 H   0  0  0  0  0  0
  -26.2819  -29.6782   24.1155 H   0  0  0  0  0  0
  -27.4030  -29.7223   25.4575 H   0  0  0  0  0  0
  -27.8685  -30.4294   23.9274 H   0  0  0  0  0  0
  -27.2704  -33.3591   26.2064 H   0  0  0  0  0  0
  -28.3885  -32.6808   25.0318 H   0  0  0  0  0  0
  -28.0711  -31.8387   26.5405 H   0  0  0  0  0  0
  -28.2566  -38.0133   24.7564 H   0  0  0  0  0  0
  -28.1126  -36.2673   24.6189 H   0  0  0  0  0  0
  -27.2331  -37.1339   25.8861 H   0  0  0  0  0  0
  -20.9329  -29.8758   21.6884 H   0  0  0  0  0  0
  -26.0163  -38.2860   24.1469 H   0  0  0  0  0  0
  -30.3437  -17.8573   16.7075 H   0  0  0  0  0  0
  -30.0707  -15.8490   18.0825 H   0  0  0  0  0  0
  -24.5219  -21.4154   22.2828 H   0  0  0  0  0  0
  -24.6821  -20.2073   21.0093 H   0  0  0  0  0  0
  -25.0658  -21.8949   20.6811 H   0  0  0  0  0  0
  -27.8119  -24.0956   22.4697 H   0  0  0  0  0  0
  -27.1898  -25.7397   22.4629 H   0  0  0  0  0  0
  -28.9242  -25.4569   22.5716 H   0  0  0  0  0  0
  -26.9506  -21.7308   22.4112 H   0  0  0  0  0  0
  -26.6513  -20.0122   22.5303 H   0  0  0  0  0  0
  -29.1367  -22.4147   18.7074 H   0  0  0  0  0  0
  -27.6181  -22.7755   19.3790 H   0  0  0  0  0  0
  -29.6071  -24.5392   19.1649 H   0  0  0  0  0  0
  -30.0191  -24.0320   20.7601 H   0  0  0  0  0  0
  -28.9911  -21.8111   21.6266 H   0  0  0  0  0  0
  -27.1548  -24.7800   20.1954 H   0  0  0  0  0  0
  -30.6825  -20.1878   16.6602 H   0  0  0  0  0  0
  -31.3907  -20.8713   17.9732 H   0  0  0  0  0  0
  -29.0295  -15.5118   21.1911 H   0  0  0  0  0  0
  -30.4721  -21.0723   19.5438 H   0  0  0  0  0  0
  1 25  1  0  0  0
  1 30  2  0  0  0
  1 86  1  0  0  0
  2  3  1  0  0  0
  2 25  1  0  0  0
  2 89  1  0  0  0
  2 90  1  0  0  0
  3  4  1  0  0  0
  3 91  1  0  0  0
  3 92  1  0  0  0
  4  5  1  0  0  0
  4 93  1  0  0  0
  4 94  1  0  0  0
  5  6  1  0  0  0
  5 26  1  0  0  0
  5 95  1  0  0  0
  6 25  1  0  0  0
  6 96  1  0  0  0
  6 97  1  0  0  0
  7  8  2  0  0  0
  7 26  1  0  0  0
  7 29  1  0  0  0
  8  9  1  0  0  0
  8 22  1  0  0  0
  9 10  1  0  0  0
  9 27  2  0  0  0
 10 11  2  0  0  0
 10 15  1  0  0  0
 11 12  1  0  0  0
 11 98  1  0  0  0
 12 13  2  0  0  0
 12 99  1  0  0  0
 13 14  1  0  0  0
 13 31  1  0  0  0
 14 15  2  0  0  0
 14100  1  0  0  0
 15101  1  0  0  0
 16 17  2  0  0  0
 16 21  1  0  0  0
 16 31  1  0  0  0
 17 18  1  0  0  0
 17102  1  0  0  0
 18 19  2  0  0  0
 18103  1  0  0  0
 19 20  1  0  0  0
 19 24  1  0  0  0
 20 21  2  0  0  0
 20104  1  0  0  0
 21 23  1  0  0  0
 22 28  1  0  0  0
 22 32  2  0  0  0
 26 27  1  0  0  0
 28105  1  0  0  0
 28106  1  0  0  0
 29107  1  0  0  0
 29108  1  0  0  0
 33 34  1  0  0  0
 33 66  1  0  0  0
 33 70  2  0  0  0
 34 36  1  0  0  0
 34 59  1  0  0  0
 34109  1  0  0  0
 35 44  2  0  0  0
 35 45  1  0  0  0
 35 68  1  0  0  0
 36 56  1  0  0  0
 36110  1  0  0  0
 37 39  1  0  0  0
 37 47  1  0  0  0
 37 66  1  0  0  0
 37111  1  0  0  0
 38 43  2  0  0  0
 38 46  1  0  0  0
 38 47  1  0  0  0
 39 64  1  0  0  0
 39 67  2  0  0  0
 40 52  1  0  0  0
 40 53  2  0  0  0
 40 58  1  0  0  0
 41112  1  0  0  0
 41113  1  0  0  0
 41114  1  0  0  0
 41 48  1  0  0  0
 42 43  1  0  0  0
 42 66  1  0  0  0
 42115  1  0  0  0
 42116  1  0  0  0
 43 44  1  0  0  0
 44117  1  0  0  0
 45 46  2  0  0  0
 45118  1  0  0  0
 46119  1  0  0  0
 47120  1  0  0  0
 47121  1  0  0  0
 48 56  1  0  0  0
 48 65  1  0  0  0
 48122  1  0  0  0
 49 50  1  0  0  0
 49 53  1  0  0  0
 49 64  1  0  0  0
 49123  1  0  0  0
 50 51  1  0  0  0
 50124  1  0  0  0
 50125  1  0  0  0
 51 52  1  0  0  0
 51126  1  0  0  0
 51127  1  0  0  0
 52128  1  0  0  0
 52129  1  0  0  0
 53 54  1  0  0  0
 54 55  2  0  0  0
 54130  1  0  0  0
 55 57  1  0  0  0
 55131  1  0  0  0
 56 69  2  0  0  0
 57 58  2  0  0  0
 57132  1  0  0  0
 58133  1  0  0  0
 59 60  1  0  0  0
 59 61  1  0  0  0
 59 62  1  0  0  0
 60134  1  0  0  0
 60135  1  0  0  0
 60136  1  0  0  0
 61137  1  0  0  0
 61138  1  0  0  0
 61139  1  0  0  0
 62140  1  0  0  0
 62141  1  0  0  0
 62142  1  0  0  0
 63 65  1  0  0  0
 63143  1  0  0  0
 63144  1  0  0  0
 63145  1  0  0  0
 64146  1  0  0  0
 65147  1  0  0  0
 68 83  1  0  0  0
 71 72  2  0  0  0
 71 73  1  0  0  0
 71148  1  0  0  0
 72 74  1  0  0  0
 72149  1  0  0  0
 73 75  2  0  0  0
 73 85  1  0  0  0
 74 84  2  0  0  0
 74 86  1  0  0  0
 75 84  1  0  0  0
 75 87  1  0  0  0
 76 79  1  0  0  0
 76 82  1  0  0  0
 76 88  2  0  0  0
 77 79  1  0  0  0
 77150  1  0  0  0
 77151  1  0  0  0
 77152  1  0  0  0
 78153  1  0  0  0
 78154  1  0  0  0
 78155  1  0  0  0
 78 83  1  0  0  0
 79156  1  0  0  0
 79157  1  0  0  0
 80 81  1  0  0  0
 80158  1  0  0  0
 80159  1  0  0  0
 80 82  1  0  0  0
 81 83  1  0  0  0
 81160  1  0  0  0
 81161  1  0  0  0
 82 87  1  0  0  0
 82162  1  0  0  0
 83163  1  0  0  0
 85164  1  0  0  0
 85165  1  0  0  0
 86166  1  0  0  0
 87167  1  0  0  0
M  ISO  4   1 100  68 101  83 101  86 100
M  END
> <chiral flag>
0

> <version>
0

> <s_m_source_file>
/data/baiqing/PycharmProjects/Reinvent-master-3.2/result/LINK_invent/BTK/process_docking_weight1_custom_product_contain_oxygen_bond_distance_aromatic_linkinvent_7_9_3/rearranged_h_0194.sdf

> <i_m_source_file_index>
49

> <r_mmod_Potential_Energy-OPLS-2005>
-166.300338745117

> <r_mmod_Stretch_Energy-OPLS-2005>
62.3510665893555

> <r_mmod_Bend_Energy-OPLS-2005>
144.084411621094

> <r_mmod_Torsional_Energy-OPLS-2005>
320.9052734375

> <r_mmod_Improper_Torsional_Energy-OPLS-2005>
19.6895122528076

> <r_mmod_Van_der_Waal_Energy-OPLS-2005>
156.147689819336

> <r_mmod_Electrostatic_Energy-OPLS-2005>
-658.037170410156

> <r_mmod_Solvation_Energy-OPLS-2005>
-245.818374633789

> <b_mmod_Minimization_Converged-OPLS-2005>
0

> <r_mmod_RMS_Derivative-OPLS-2005>
2.49497222900391

$$$$
49
                    3D
 Structure written by MMmdl.
155163  0  0  1  0            999 V2000
  -30.5910  -14.7690   20.4381 C   0  0  0  0  0  0
  -30.4414  -12.4520   19.4856 C   0  0  0  0  0  0
  -29.5250  -12.4934   18.2414 C   0  0  0  0  0  0
  -28.0444  -12.3322   18.6480 C   0  0  0  0  0  0
  -27.6444  -13.2329   19.8497 C   0  0  2  0  0  0
  -28.6906  -13.1611   20.9851 C   0  0  0  0  0  0
  -25.2492  -13.8205   20.5682 C   0  0  0  0  0  0
  -24.1792  -13.0451   20.9220 C   0  0  0  0  0  0
  -24.6394  -11.6925   20.8748 C   0  0  0  0  0  0
  -23.9083  -10.4297   21.0422 C   0  0  0  0  0  0
  -24.3631   -9.4211   21.9202 C   0  0  0  0  0  0
  -23.6287   -8.2264   22.0782 C   0  0  0  0  0  0
  -22.4268   -8.0283   21.3566 C   0  0  0  0  0  0
  -21.9904   -9.0280   20.4682 C   0  0  0  0  0  0
  -22.7252  -10.2158   20.3071 C   0  0  0  0  0  0
  -21.6840   -6.0736   22.5276 C   0  0  0  0  0  0
  -21.4030   -6.5636   23.8222 C   0  0  0  0  0  0
  -21.3674   -5.6788   24.9176 C   0  0  0  0  0  0
  -21.6040   -4.3047   24.7220 C   0  0  0  0  0  0
  -21.8820   -3.8139   23.4348 C   0  0  0  0  0  0
  -21.9194   -4.6956   22.3407 C   0  0  0  0  0  0
  -22.7797  -13.5260   21.1831 C   0  0  0  0  0  0
  -22.1641   -4.2150   21.0965 F   0  0  0  0  0  0
  -21.5638   -3.4513   25.7745 F   0  0  0  0  0  0
  -29.9895  -13.5253   20.4058 N   0  0  0  0  0  0
  -26.2941  -12.9426   20.3266 N   0  0  0  0  0  0
  -25.9326  -11.6557   20.5739 N   0  0  0  0  0  0
  -22.0378  -12.8327   22.0395 N   0  0  0  0  0  0
  -25.4112  -15.1941   20.4150 N   0  0  0  0  0  0
  -31.7844  -14.8568   20.1242 O   0  0  0  0  0  0
  -21.6632   -6.8886   21.4239 O   0  0  0  0  0  0
  -22.3495  -14.5539   20.6614 O   0  0  0  0  0  0
  -24.6301  -31.8521   23.1969 C   0  0  0  0  0  0
  -25.9095  -32.4781   23.8288 C   0  0  1  0  0  0
  -27.2208  -27.2613   20.1160 C   0  0  0  0  0  0
  -25.5834  -33.8573   24.2170 N   0  0  0  0  0  0
  -23.4273  -30.4741   21.5414 C   0  0  2  0  0  0
  -24.8719  -28.9148   20.1118 C   0  0  0  0  0  0
  -22.7503  -29.4574   22.4933 C   0  0  0  0  0  0
  -18.0286  -28.1400   22.8472 C   0  0  0  0  0  0
  -24.1462  -36.7333   23.2639 C   0  0  0  0  0  0
  -25.9731  -30.7626   21.3748 C   0  0  0  0  0  0
  -26.0463  -29.3863   20.7169 C   0  0  0  0  0  0
  -27.2247  -28.5747   20.6995 C   0  0  0  0  0  0
  -26.0270  -26.8553   19.4887 C   0  0  0  0  0  0
  -24.8673  -27.6579   19.4879 C   0  0  0  0  0  0
  -23.6465  -29.8060   20.1592 C   0  0  0  0  0  0
  -25.4098  -36.3088   24.0299 C   0  0  1  0  0  0
  -20.5881  -28.3690   23.1299 C   0  0  2  0  0  0
  -20.6763  -26.9416   22.5445 C   0  0  0  0  0  0
  -19.5737  -26.6370   21.5257 C   0  0  0  0  0  0
  -18.1913  -26.7929   22.1637 C   0  0  0  0  0  0
  -19.1543  -28.8871   23.2861 C   0  0  0  0  0  0
  -18.9469  -30.1472   23.8886 C   0  0  0  0  0  0
  -17.6470  -30.6597   24.0587 C   0  0  0  0  0  0
  -25.9045  -34.9473   23.5062 C   0  0  0  0  0  0
  -16.5353  -29.9112   23.6334 C   0  0  0  0  0  0
  -16.7278  -28.6535   23.0330 C   0  0  0  0  0  0
  -26.4543  -31.6670   25.0691 C   0  0  0  0  0  0
  -25.3809  -31.3816   26.1469 C   0  0  0  0  0  0
  -27.0468  -30.3129   24.6184 C   0  0  0  0  0  0
  -27.6065  -32.4492   25.7428 C   0  0  0  0  0  0
  -27.5570  -37.1805   24.8441 C   0  0  0  0  0  0
  -21.4206  -29.3026   22.3693 N   0  0  0  0  0  0
  -26.4280  -37.3787   23.9404 N   0  0  0  0  0  0
  -24.6973  -31.0470   22.0952 N   0  0  0  0  0  0
  -23.4199  -28.8123   23.3032 O   0  0  0  0  0  0
  -28.3367  -26.3927   20.1066 O   0  0  0  0  0  0
  -26.5710  -34.8955   22.4697 O   0  0  0  0  0  0
  -23.5441  -32.1367   23.7253 O   0  0  0  0  0  0
  -30.7247  -19.1982   19.7604 C   0  0  0  0  0  0
  -29.9547  -17.3459   20.4167 C   0  0  0  0  0  0
  -27.0864  -24.6812   21.5146 C   0  0  0  0  0  0
  -28.5966  -23.6747   19.6509 C   0  0  0  0  0  0
  -28.7840  -20.8710   20.4172 C   0  0  0  0  0  0
  -29.4620  -22.3175   20.0406 C   0  0  2  0  0  0
  -28.3037  -24.9617   20.6120 C   0  0  1  0  0  0
  -31.0495  -17.8908   19.7999 N   0  0  0  0  0  0
  -29.0143  -18.2879   20.7266 N   0  0  0  0  0  0
  -29.5370  -19.5232   20.3002 N   0  0  0  0  0  0
  -29.7850  -15.8852   20.6561 N   0  0  0  0  0  0
  -30.5797  -22.6602   20.9474 N   0  3  0  0  0  0
  -31.4891  -12.5551   19.1995 H   0  0  0  0  0  0
  -30.3700  -11.4783   19.9758 H   0  0  0  0  0  0
  -29.8033  -11.7025   17.5442 H   0  0  0  0  0  0
  -29.6678  -13.4354   17.7074 H   0  0  0  0  0  0
  -27.8963  -11.2831   18.9095 H   0  0  0  0  0  0
  -27.3950  -12.5241   17.7926 H   0  0  0  0  0  0
  -27.6423  -14.2591   19.4732 H   0  0  0  0  0  0
  -28.7298  -12.1576   21.4126 H   0  0  0  0  0  0
  -28.4208  -13.8314   21.8035 H   0  0  0  0  0  0
  -25.2786   -9.5664   22.4780 H   0  0  0  0  0  0
  -23.9975   -7.4653   22.7525 H   0  0  0  0  0  0
  -21.0828   -8.8831   19.9012 H   0  0  0  0  0  0
  -22.3724  -10.9693   19.6174 H   0  0  0  0  0  0
  -21.2021   -7.6146   23.9729 H   0  0  0  0  0  0
  -21.1482   -6.0506   25.9093 H   0  0  0  0  0  0
  -22.0577   -2.7592   23.2835 H   0  0  0  0  0  0
  -22.3917  -12.0031   22.4926 H   0  0  0  0  0  0
  -21.1004  -13.1424   22.2520 H   0  0  0  0  0  0
  -24.6286  -15.8278   20.5434 H   0  0  0  0  0  0
  -26.2404  -15.6536   20.0604 H   0  0  0  0  0  0
  -26.7161  -32.5446   23.1026 H   0  0  0  0  0  0
  -24.9752  -33.9697   25.0140 H   0  0  0  0  0  0
  -22.7223  -31.2971   21.3988 H   0  0  0  0  0  0
  -23.3721  -35.9672   23.3280 H   0  0  0  0  0  0
  -24.3504  -36.8995   22.2051 H   0  0  0  0  0  0
  -23.7256  -37.6527   23.6722 H   0  0  0  0  0  0
  -26.1126  -31.5240   20.6060 H   0  0  0  0  0  0
  -26.8503  -30.8143   22.0095 H   0  0  0  0  0  0
  -28.1279  -28.9335   21.1721 H   0  0  0  0  0  0
  -25.9824  -25.8903   19.0021 H   0  0  0  0  0  0
  -23.9712  -27.2960   19.0039 H   0  0  0  0  0  0
  -23.7798  -30.5841   19.4058 H   0  0  0  0  0  0
  -22.7617  -29.2459   19.8506 H   0  0  0  0  0  0
  -25.1295  -36.1909   25.0793 H   0  0  0  0  0  0
  -20.9973  -28.3276   24.1417 H   0  0  0  0  0  0
  -20.5694  -26.2306   23.3637 H   0  0  0  0  0  0
  -21.6625  -26.7453   22.1239 H   0  0  0  0  0  0
  -19.6877  -25.6290   21.1273 H   0  0  0  0  0  0
  -19.6658  -27.3197   20.6807 H   0  0  0  0  0  0
  -17.4194  -26.6699   21.4030 H   0  0  0  0  0  0
  -18.0272  -26.0101   22.9060 H   0  0  0  0  0  0
  -19.7962  -30.7303   24.2203 H   0  0  0  0  0  0
  -17.5044  -31.6276   24.5212 H   0  0  0  0  0  0
  -15.5360  -30.3028   23.7665 H   0  0  0  0  0  0
  -15.8663  -28.0897   22.6978 H   0  0  0  0  0  0
  -24.5876  -30.7338   25.7785 H   0  0  0  0  0  0
  -24.9191  -32.3012   26.5087 H   0  0  0  0  0  0
  -25.8116  -30.8800   27.0138 H   0  0  0  0  0  0
  -26.3161  -29.6842   24.1095 H   0  0  0  0  0  0
  -27.4127  -29.7392   25.4705 H   0  0  0  0  0  0
  -27.8990  -30.4486   23.9541 H   0  0  0  0  0  0
  -27.2628  -33.3763   26.2004 H   0  0  0  0  0  0
  -28.3848  -32.7108   25.0231 H   0  0  0  0  0  0
  -28.0819  -31.8704   26.5350 H   0  0  0  0  0  0
  -28.2595  -38.0097   24.7518 H   0  0  0  0  0  0
  -28.1046  -36.2640   24.6221 H   0  0  0  0  0  0
  -27.2282  -37.1420   25.8836 H   0  0  0  0  0  0
  -20.9396  -29.8733   21.6895 H   0  0  0  0  0  0
  -26.0145  -38.2838   24.1461 H   0  0  0  0  0  0
  -31.3773  -19.9348   19.3151 H   0  0  0  0  0  0
  -26.1872  -24.4896   20.9296 H   0  0  0  0  0  0
  -26.8763  -25.5163   22.1837 H   0  0  0  0  0  0
  -27.2541  -23.8023   22.1376 H   0  0  0  0  0  0
  -27.6541  -23.3606   19.1982 H   0  0  0  0  0  0
  -29.1393  -24.1050   18.8077 H   0  0  0  0  0  0
  -27.8983  -20.7651   19.7923 H   0  0  0  0  0  0
  -28.4025  -20.9306   21.4372 H   0  0  0  0  0  0
  -29.9638  -22.0874   19.0993 H   0  0  0  0  0  0
  -29.1498  -24.9911   21.2947 H   0  0  0  0  0  0
  -28.8552  -15.6403   20.9530 H   0  0  0  0  0  0
  -31.2407  -21.9052   21.0238 H   0  0  0  0  0  0
  -30.2615  -22.8843   21.8736 H   0  0  0  0  0  0
  -31.0875  -23.4504   20.5908 H   0  0  0  0  0  0
  1 25  1  0  0  0
  1 30  2  0  0  0
  1 81  1  0  0  0
  2  3  1  0  0  0
  2 25  1  0  0  0
  2 83  1  0  0  0
  2 84  1  0  0  0
  3  4  1  0  0  0
  3 85  1  0  0  0
  3 86  1  0  0  0
  4  5  1  0  0  0
  4 87  1  0  0  0
  4 88  1  0  0  0
  5  6  1  0  0  0
  5 26  1  0  0  0
  5 89  1  0  0  0
  6 25  1  0  0  0
  6 90  1  0  0  0
  6 91  1  0  0  0
  7  8  2  0  0  0
  7 26  1  0  0  0
  7 29  1  0  0  0
  8  9  1  0  0  0
  8 22  1  0  0  0
  9 10  1  0  0  0
  9 27  2  0  0  0
 10 11  2  0  0  0
 10 15  1  0  0  0
 11 12  1  0  0  0
 11 92  1  0  0  0
 12 13  2  0  0  0
 12 93  1  0  0  0
 13 14  1  0  0  0
 13 31  1  0  0  0
 14 15  2  0  0  0
 14 94  1  0  0  0
 15 95  1  0  0  0
 16 17  2  0  0  0
 16 21  1  0  0  0
 16 31  1  0  0  0
 17 18  1  0  0  0
 17 96  1  0  0  0
 18 19  2  0  0  0
 18 97  1  0  0  0
 19 20  1  0  0  0
 19 24  1  0  0  0
 20 21  2  0  0  0
 20 98  1  0  0  0
 21 23  1  0  0  0
 22 28  1  0  0  0
 22 32  2  0  0  0
 26 27  1  0  0  0
 28 99  1  0  0  0
 28100  1  0  0  0
 29101  1  0  0  0
 29102  1  0  0  0
 33 34  1  0  0  0
 33 66  1  0  0  0
 33 70  2  0  0  0
 34 36  1  0  0  0
 34 59  1  0  0  0
 34103  1  0  0  0
 35 44  2  0  0  0
 35 45  1  0  0  0
 35 68  1  0  0  0
 36 56  1  0  0  0
 36104  1  0  0  0
 37 39  1  0  0  0
 37 47  1  0  0  0
 37 66  1  0  0  0
 37105  1  0  0  0
 38 43  2  0  0  0
 38 46  1  0  0  0
 38 47  1  0  0  0
 39 64  1  0  0  0
 39 67  2  0  0  0
 40 52  1  0  0  0
 40 53  2  0  0  0
 40 58  1  0  0  0
 41106  1  0  0  0
 41107  1  0  0  0
 41108  1  0  0  0
 41 48  1  0  0  0
 42 43  1  0  0  0
 42 66  1  0  0  0
 42109  1  0  0  0
 42110  1  0  0  0
 43 44  1  0  0  0
 44111  1  0  0  0
 45 46  2  0  0  0
 45112  1  0  0  0
 46113  1  0  0  0
 47114  1  0  0  0
 47115  1  0  0  0
 48 56  1  0  0  0
 48 65  1  0  0  0
 48116  1  0  0  0
 49 50  1  0  0  0
 49 53  1  0  0  0
 49 64  1  0  0  0
 49117  1  0  0  0
 50 51  1  0  0  0
 50118  1  0  0  0
 50119  1  0  0  0
 51 52  1  0  0  0
 51120  1  0  0  0
 51121  1  0  0  0
 52122  1  0  0  0
 52123  1  0  0  0
 53 54  1  0  0  0
 54 55  2  0  0  0
 54124  1  0  0  0
 55 57  1  0  0  0
 55125  1  0  0  0
 56 69  2  0  0  0
 57 58  2  0  0  0
 57126  1  0  0  0
 58127  1  0  0  0
 59 60  1  0  0  0
 59 61  1  0  0  0
 59 62  1  0  0  0
 60128  1  0  0  0
 60129  1  0  0  0
 60130  1  0  0  0
 61131  1  0  0  0
 61132  1  0  0  0
 61133  1  0  0  0
 62134  1  0  0  0
 62135  1  0  0  0
 62136  1  0  0  0
 63 65  1  0  0  0
 63137  1  0  0  0
 63138  1  0  0  0
 63139  1  0  0  0
 64140  1  0  0  0
 65141  1  0  0  0
 68 77  1  0  0  0
 71 78  2  0  0  0
 71 80  1  0  0  0
 71142  1  0  0  0
 72 78  1  0  0  0
 72 79  2  0  0  0
 72 81  1  0  0  0
 73143  1  0  0  0
 73144  1  0  0  0
 73145  1  0  0  0
 73 77  1  0  0  0
 74 76  1  0  0  0
 74 77  1  0  0  0
 74146  1  0  0  0
 74147  1  0  0  0
 75 76  1  0  0  0
 75 80  1  0  0  0
 75148  1  0  0  0
 75149  1  0  0  0
 76 82  1  0  0  0
 76150  1  0  0  0
 77151  1  0  0  0
 79 80  1  0  0  0
 81152  1  0  0  0
 82153  1  0  0  0
 82154  1  0  0  0
 82155  1  0  0  0
M  CHG  1  82   1
M  ISO  4   1 100  68 101  77 101  81 100
M  END
> <chiral flag>
0

> <version>
0

> <s_m_source_file>
/data/baiqing/PycharmProjects/Reinvent-master-3.2/result/LINK_invent/BTK/process_docking_weight1_custom_product_contain_oxygen_bond_distance_aromatic_linkinvent_7_9_3/rearranged_h_0194.sdf

> <i_m_source_file_index>
50

> <r_mmod_Potential_Energy-OPLS-2005>
-41.694149017334

> <r_mmod_Stretch_Energy-OPLS-2005>
148.206970214844

> <r_mmod_Bend_Energy-OPLS-2005>
220.070663452148

> <r_mmod_Torsional_Energy-OPLS-2005>
261.338348388672

> <r_mmod_Improper_Torsional_Energy-OPLS-2005>
4.15714025497437

> <r_mmod_Van_der_Waal_Energy-OPLS-2005>
110.203018188477

> <r_mmod_Electrostatic_Energy-OPLS-2005>
-310.117828369141

> <r_mmod_Solvation_Energy-OPLS-2005>
-561.943542480469

> <b_mmod_Minimization_Converged-OPLS-2005>
0

> <r_mmod_RMS_Derivative-OPLS-2005>
4.49312400817871

$$$$
50
                    3D
 Structure written by MMmdl.
161169  0  0  1  0            999 V2000
  -30.6904  -14.4758   20.4747 C   0  0  0  0  0  0
  -30.4264  -12.2717   19.4402 C   0  0  0  0  0  0
  -29.5017  -12.4415   18.2167 C   0  0  0  0  0  0
  -28.0217  -12.3174   18.6287 C   0  0  0  0  0  0
  -27.6594  -13.1945   19.8585 C   0  0  2  0  0  0
  -28.7037  -13.0335   20.9886 C   0  0  0  0  0  0
  -25.2628  -13.8114   20.5638 C   0  0  0  0  0  0
  -24.1857  -13.0431   20.9115 C   0  0  0  0  0  0
  -24.6387  -11.6870   20.8705 C   0  0  0  0  0  0
  -23.9045  -10.4270   21.0403 C   0  0  0  0  0  0
  -24.3598   -9.4196   21.9185 C   0  0  0  0  0  0
  -23.6277   -8.2217   22.0751 C   0  0  0  0  0  0
  -22.4275   -8.0245   21.3523 C   0  0  0  0  0  0
  -21.9892   -9.0236   20.4637 C   0  0  0  0  0  0
  -22.7201  -10.2114   20.3056 C   0  0  0  0  0  0
  -21.6859   -6.0722   22.5268 C   0  0  0  0  0  0
  -21.4014   -6.5637   23.8198 C   0  0  0  0  0  0
  -21.3663   -5.6790   24.9157 C   0  0  0  0  0  0
  -21.6047   -4.3065   24.7207 C   0  0  0  0  0  0
  -21.8832   -3.8138   23.4330 C   0  0  0  0  0  0
  -21.9200   -4.6948   22.3385 C   0  0  0  0  0  0
  -22.7903  -13.5242   21.1787 C   0  0  0  0  0  0
  -22.1683   -4.2130   21.0976 F   0  0  0  0  0  0
  -21.5620   -3.4560   25.7728 F   0  0  0  0  0  0
  -30.0304  -13.2923   20.4174 N   0  0  0  0  0  0
  -26.3037  -12.9261   20.3301 N   0  0  0  0  0  0
  -25.9315  -11.6441   20.5750 N   0  0  0  0  0  0
  -22.0550  -12.8258   22.0345 N   0  0  0  0  0  0
  -25.4430  -15.1820   20.4132 N   0  0  0  0  0  0
  -31.8923  -14.5914   20.2287 O   0  0  0  0  0  0
  -21.6637   -6.8845   21.4221 O   0  0  0  0  0  0
  -22.3591  -14.5563   20.6644 O   0  0  0  0  0  0
  -24.6132  -31.8680   23.2088 C   0  0  0  0  0  0
  -25.9051  -32.4796   23.8351 C   0  0  1  0  0  0
  -27.2257  -27.4501   20.0680 C   0  0  0  0  0  0
  -25.5915  -33.8582   24.2309 N   0  0  0  0  0  0
  -23.3971  -30.4907   21.5555 C   0  0  2  0  0  0
  -24.8349  -28.9468   20.1290 C   0  0  0  0  0  0
  -22.7380  -29.4667   22.5071 C   0  0  0  0  0  0
  -18.0262  -28.1386   22.8500 C   0  0  0  0  0  0
  -24.1493  -36.7270   23.2630 C   0  0  0  0  0  0
  -25.9246  -30.8327   21.3605 C   0  0  0  0  0  0
  -25.9964  -29.4665   20.7124 C   0  0  0  0  0  0
  -27.1969  -28.7247   20.6750 C   0  0  0  0  0  0
  -26.0462  -26.9318   19.4968 C   0  0  0  0  0  0
  -24.8504  -27.6761   19.5284 C   0  0  0  0  0  0
  -23.5967  -29.8126   20.1756 C   0  0  0  0  0  0
  -25.4119  -36.3055   24.0318 C   0  0  1  0  0  0
  -20.5839  -28.3656   23.1356 C   0  0  2  0  0  0
  -20.6746  -26.9397   22.5444 C   0  0  0  0  0  0
  -19.5732  -26.6414   21.5219 C   0  0  0  0  0  0
  -18.1913  -26.7935   22.1631 C   0  0  0  0  0  0
  -19.1500  -28.8841   23.2928 C   0  0  0  0  0  0
  -18.9430  -30.1457   23.8939 C   0  0  0  0  0  0
  -17.6428  -30.6590   24.0577 C   0  0  0  0  0  0
  -25.9070  -34.9440   23.5120 C   0  0  0  0  0  0
  -16.5326  -29.9098   23.6322 C   0  0  0  0  0  0
  -16.7247  -28.6513   23.0335 C   0  0  0  0  0  0
  -26.4497  -31.6536   25.0649 C   0  0  0  0  0  0
  -25.3762  -31.3604   26.1388 C   0  0  0  0  0  0
  -27.0313  -30.2972   24.6003 C   0  0  0  0  0  0
  -27.6110  -32.4222   25.7386 C   0  0  0  0  0  0
  -27.5584  -37.1778   24.8471 C   0  0  0  0  0  0
  -21.4109  -29.3015   22.3764 N   0  0  0  0  0  0
  -26.4299  -37.3756   23.9413 N   0  0  0  0  0  0
  -24.6643  -31.0782   22.0993 N   0  0  0  0  0  0
  -23.4163  -28.8237   23.3118 O   0  0  0  0  0  0
  -28.4291  -26.8069   19.9238 O   0  0  0  0  0  0
  -26.5629  -34.8890   22.4683 O   0  0  0  0  0  0
  -23.5338  -32.1447   23.7507 O   0  0  0  0  0  0
  -28.9339  -18.7169   21.9190 C   0  0  0  0  0  0
  -29.5166  -16.5531   21.0155 C   0  0  0  0  0  0
  -29.3488  -20.2987   23.8413 C   0  0  0  0  0  0
  -30.1380  -23.2229   22.2440 C   0  0  0  0  0  0
  -29.0257  -22.9891   19.9340 C   0  0  0  0  0  0
  -28.6243  -25.5256   20.5181 C   0  0  0  0  0  0
  -28.7801  -20.1376   22.4174 C   0  0  1  0  0  0
  -29.0938  -22.4517   21.3972 C   0  0  1  0  0  0
  -28.2585  -24.3144   19.6265 C   0  0  1  0  0  0
  -27.9671  -17.7961   22.0913 N   0  0  0  0  0  0
  -28.2906  -16.5553   21.5495 N   0  0  0  0  0  0
  -29.9178  -15.5165   20.1501 N   0  0  0  0  0  0
  -29.4410  -20.9980   21.3949 N   0  3  0  0  0  0
  -28.6142  -24.6564   18.2934 O   0  0  0  0  0  0
  -30.4010  -18.0689   21.1674 S   0  0  0  0  0  0
  -31.4720  -12.3629   19.1389 H   0  0  0  0  0  0
  -30.3302  -11.2744   19.8754 H   0  0  0  0  0  0
  -29.7382  -11.6882   17.4625 H   0  0  0  0  0  0
  -29.6780  -13.4124   17.7533 H   0  0  0  0  0  0
  -27.8443  -11.2661   18.8640 H   0  0  0  0  0  0
  -27.3706  -12.5585   17.7885 H   0  0  0  0  0  0
  -27.6840  -14.2264   19.5128 H   0  0  0  0  0  0
  -28.6692  -12.0270   21.4094 H   0  0  0  0  0  0
  -28.4900  -13.7151   21.8134 H   0  0  0  0  0  0
  -25.2739   -9.5715   22.4763 H   0  0  0  0  0  0
  -23.9991   -7.4641   22.7506 H   0  0  0  0  0  0
  -21.0789   -8.8744   19.8967 H   0  0  0  0  0  0
  -22.3627  -10.9656   19.6183 H   0  0  0  0  0  0
  -21.2007   -7.6153   23.9698 H   0  0  0  0  0  0
  -21.1491   -6.0521   25.9064 H   0  0  0  0  0  0
  -22.0607   -2.7593   23.2837 H   0  0  0  0  0  0
  -22.4128  -11.9894   22.4732 H   0  0  0  0  0  0
  -21.1172  -13.1314   22.2509 H   0  0  0  0  0  0
  -24.7136  -15.8553   20.6157 H   0  0  0  0  0  0
  -26.3576  -15.6098   20.3208 H   0  0  0  0  0  0
  -26.7105  -32.5517   23.1085 H   0  0  0  0  0  0
  -24.9973  -33.9725   25.0388 H   0  0  0  0  0  0
  -22.6842  -31.3067   21.4146 H   0  0  0  0  0  0
  -23.3755  -35.9612   23.3296 H   0  0  0  0  0  0
  -24.3602  -36.8897   22.2052 H   0  0  0  0  0  0
  -23.7232  -37.6457   23.6666 H   0  0  0  0  0  0
  -26.0348  -31.6013   20.5935 H   0  0  0  0  0  0
  -26.8131  -30.8800   21.9785 H   0  0  0  0  0  0
  -28.1067  -29.1335   21.0916 H   0  0  0  0  0  0
  -26.0459  -25.9794   18.9900 H   0  0  0  0  0  0
  -23.9531  -27.2763   19.0751 H   0  0  0  0  0  0
  -23.6867  -30.5777   19.4044 H   0  0  0  0  0  0
  -22.7216  -29.2202   19.9001 H   0  0  0  0  0  0
  -25.1288  -36.1897   25.0806 H   0  0  0  0  0  0
  -20.9924  -28.3231   24.1472 H   0  0  0  0  0  0
  -20.5628  -26.2260   23.3618 H   0  0  0  0  0  0
  -21.6628  -26.7451   22.1242 H   0  0  0  0  0  0
  -19.6904  -25.6344   21.1195 H   0  0  0  0  0  0
  -19.6683  -27.3282   20.6793 H   0  0  0  0  0  0
  -17.4173  -26.6671   21.4044 H   0  0  0  0  0  0
  -18.0346  -26.0084   22.9036 H   0  0  0  0  0  0
  -19.7899  -30.7263   24.2332 H   0  0  0  0  0  0
  -17.4970  -31.6267   24.5173 H   0  0  0  0  0  0
  -15.5319  -30.2993   23.7634 H   0  0  0  0  0  0
  -15.8652  -28.0854   22.7007 H   0  0  0  0  0  0
  -24.5978  -30.6919   25.7674 H   0  0  0  0  0  0
  -24.8904  -32.2739   26.4823 H   0  0  0  0  0  0
  -25.8122  -30.8744   27.0133 H   0  0  0  0  0  0
  -26.2843  -29.6709   24.1103 H   0  0  0  0  0  0
  -27.4122  -29.7192   25.4435 H   0  0  0  0  0  0
  -27.8662  -30.4246   23.9110 H   0  0  0  0  0  0
  -27.2790  -33.3526   26.1994 H   0  0  0  0  0  0
  -28.3899  -32.6762   25.0184 H   0  0  0  0  0  0
  -28.0806  -31.8297   26.5252 H   0  0  0  0  0  0
  -28.2587  -38.0083   24.7515 H   0  0  0  0  0  0
  -28.1075  -36.2607   24.6294 H   0  0  0  0  0  0
  -27.2305  -37.1431   25.8874 H   0  0  0  0  0  0
  -20.9279  -29.8627   21.6885 H   0  0  0  0  0  0
  -26.0162  -38.2816   24.1451 H   0  0  0  0  0  0
  -28.8278  -19.6459   24.5411 H   0  0  0  0  0  0
  -29.2131  -21.3077   24.2201 H   0  0  0  0  0  0
  -30.4117  -20.0554   23.8860 H   0  0  0  0  0  0
  -29.8342  -24.2456   22.4487 H   0  0  0  0  0  0
  -31.1078  -23.2550   21.7471 H   0  0  0  0  0  0
  -30.3053  -22.7967   23.2292 H   0  0  0  0  0  0
  -28.5616  -22.2251   19.3053 H   0  0  0  0  0  0
  -30.0478  -23.0791   19.5640 H   0  0  0  0  0  0
  -29.6946  -25.5048   20.7179 H   0  0  0  0  0  0
  -28.1076  -25.4681   21.4773 H   0  0  0  0  0  0
  -27.7138  -20.3676   22.4214 H   0  0  0  0  0  0
  -28.1052  -22.5723   21.8408 H   0  0  0  0  0  0
  -27.1816  -24.1387   19.6668 H   0  0  0  0  0  0
  -30.3587  -15.9283   19.3451 H   0  0  0  0  0  0
  -29.1661  -20.6259   20.5001 H   0  0  0  0  0  0
  -30.4411  -20.8957   21.4631 H   0  0  0  0  0  0
  -28.5127  -25.6031   18.2165 H   0  0  0  0  0  0
  1 25  1  0  0  0
  1 30  2  0  0  0
  1 82  1  0  0  0
  2  3  1  0  0  0
  2 25  1  0  0  0
  2 86  1  0  0  0
  2 87  1  0  0  0
  3  4  1  0  0  0
  3 88  1  0  0  0
  3 89  1  0  0  0
  4  5  1  0  0  0
  4 90  1  0  0  0
  4 91  1  0  0  0
  5  6  1  0  0  0
  5 26  1  0  0  0
  5 92  1  0  0  0
  6 25  1  0  0  0
  6 93  1  0  0  0
  6 94  1  0  0  0
  7  8  2  0  0  0
  7 26  1  0  0  0
  7 29  1  0  0  0
  8  9  1  0  0  0
  8 22  1  0  0  0
  9 10  1  0  0  0
  9 27  2  0  0  0
 10 11  2  0  0  0
 10 15  1  0  0  0
 11 12  1  0  0  0
 11 95  1  0  0  0
 12 13  2  0  0  0
 12 96  1  0  0  0
 13 14  1  0  0  0
 13 31  1  0  0  0
 14 15  2  0  0  0
 14 97  1  0  0  0
 15 98  1  0  0  0
 16 17  2  0  0  0
 16 21  1  0  0  0
 16 31  1  0  0  0
 17 18  1  0  0  0
 17 99  1  0  0  0
 18 19  2  0  0  0
 18100  1  0  0  0
 19 20  1  0  0  0
 19 24  1  0  0  0
 20 21  2  0  0  0
 20101  1  0  0  0
 21 23  1  0  0  0
 22 28  1  0  0  0
 22 32  2  0  0  0
 26 27  1  0  0  0
 28102  1  0  0  0
 28103  1  0  0  0
 29104  1  0  0  0
 29105  1  0  0  0
 33 34  1  0  0  0
 33 66  1  0  0  0
 33 70  2  0  0  0
 34 36  1  0  0  0
 34 59  1  0  0  0
 34106  1  0  0  0
 35 44  2  0  0  0
 35 45  1  0  0  0
 35 68  1  0  0  0
 36 56  1  0  0  0
 36107  1  0  0  0
 37 39  1  0  0  0
 37 47  1  0  0  0
 37 66  1  0  0  0
 37108  1  0  0  0
 38 43  2  0  0  0
 38 46  1  0  0  0
 38 47  1  0  0  0
 39 64  1  0  0  0
 39 67  2  0  0  0
 40 52  1  0  0  0
 40 53  2  0  0  0
 40 58  1  0  0  0
 41109  1  0  0  0
 41110  1  0  0  0
 41111  1  0  0  0
 41 48  1  0  0  0
 42 43  1  0  0  0
 42 66  1  0  0  0
 42112  1  0  0  0
 42113  1  0  0  0
 43 44  1  0  0  0
 44114  1  0  0  0
 45 46  2  0  0  0
 45115  1  0  0  0
 46116  1  0  0  0
 47117  1  0  0  0
 47118  1  0  0  0
 48 56  1  0  0  0
 48 65  1  0  0  0
 48119  1  0  0  0
 49 50  1  0  0  0
 49 53  1  0  0  0
 49 64  1  0  0  0
 49120  1  0  0  0
 50 51  1  0  0  0
 50121  1  0  0  0
 50122  1  0  0  0
 51 52  1  0  0  0
 51123  1  0  0  0
 51124  1  0  0  0
 52125  1  0  0  0
 52126  1  0  0  0
 53 54  1  0  0  0
 54 55  2  0  0  0
 54127  1  0  0  0
 55 57  1  0  0  0
 55128  1  0  0  0
 56 69  2  0  0  0
 57 58  2  0  0  0
 57129  1  0  0  0
 58130  1  0  0  0
 59 60  1  0  0  0
 59 61  1  0  0  0
 59 62  1  0  0  0
 60131  1  0  0  0
 60132  1  0  0  0
 60133  1  0  0  0
 61134  1  0  0  0
 61135  1  0  0  0
 61136  1  0  0  0
 62137  1  0  0  0
 62138  1  0  0  0
 62139  1  0  0  0
 63 65  1  0  0  0
 63140  1  0  0  0
 63141  1  0  0  0
 63142  1  0  0  0
 64143  1  0  0  0
 65144  1  0  0  0
 68 76  1  0  0  0
 71 77  1  0  0  0
 71 80  2  0  0  0
 71 85  1  0  0  0
 72 81  2  0  0  0
 72 82  1  0  0  0
 72 85  1  0  0  0
 73145  1  0  0  0
 73146  1  0  0  0
 73147  1  0  0  0
 73 77  1  0  0  0
 74148  1  0  0  0
 74149  1  0  0  0
 74150  1  0  0  0
 74 78  1  0  0  0
 75 78  1  0  0  0
 75 79  1  0  0  0
 75151  1  0  0  0
 75152  1  0  0  0
 76 79  1  0  0  0
 76153  1  0  0  0
 76154  1  0  0  0
 77 83  1  0  0  0
 77155  1  0  0  0
 78 83  1  0  0  0
 78156  1  0  0  0
 79 84  1  0  0  0
 79157  1  0  0  0
 80 81  1  0  0  0
 82158  1  0  0  0
 83159  1  0  0  0
 83160  1  0  0  0
 84161  1  0  0  0
M  CHG  1  83   1
M  ISO  4   1 100  68 101  76 101  82 100
M  END
> <chiral flag>
0

> <version>
0

> <s_m_source_file>
/data/baiqing/PycharmProjects/Reinvent-master-3.2/result/LINK_invent/BTK/process_docking_weight1_custom_product_contain_oxygen_bond_distance_aromatic_linkinvent_7_9_3/rearranged_h_0194.sdf

> <i_m_source_file_index>
51

> <r_mmod_Potential_Energy-OPLS-2005>
-240.9775390625

> <r_mmod_Stretch_Energy-OPLS-2005>
34.7613372802734

> <r_mmod_Bend_Energy-OPLS-2005>
128.815521240234

> <r_mmod_Torsional_Energy-OPLS-2005>
318.690765380859

> <r_mmod_Improper_Torsional_Energy-OPLS-2005>
31.676326751709

> <r_mmod_Van_der_Waal_Energy-OPLS-2005>
119.900253295898

> <r_mmod_Electrostatic_Energy-OPLS-2005>
-389.797943115234

> <r_mmod_Solvation_Energy-OPLS-2005>
-507.577545166016

> <b_mmod_Minimization_Converged-OPLS-2005>
0

> <r_mmod_RMS_Derivative-OPLS-2005>
4.19005441665649

$$$$
51
                    3D
 Structure written by MMmdl.
157165  0  0  1  0            999 V2000
  -30.5842  -14.8055   20.5240 C   0  0  0  0  0  0
  -30.4436  -12.5073   19.5022 C   0  0  0  0  0  0
  -29.5281  -12.5319   18.2595 C   0  0  0  0  0  0
  -28.0605  -12.3310   18.6721 C   0  0  0  0  0  0
  -27.6489  -13.2326   19.8617 C   0  0  2  0  0  0
  -28.6790  -13.1863   21.0138 C   0  0  0  0  0  0
  -25.2533  -13.8192   20.5655 C   0  0  0  0  0  0
  -24.1846  -13.0451   20.9162 C   0  0  0  0  0  0
  -24.6446  -11.6921   20.8771 C   0  0  0  0  0  0
  -23.9151  -10.4292   21.0418 C   0  0  0  0  0  0
  -24.3700   -9.4182   21.9189 C   0  0  0  0  0  0
  -23.6328   -8.2258   22.0762 C   0  0  0  0  0  0
  -22.4292   -8.0327   21.3567 C   0  0  0  0  0  0
  -21.9947   -9.0305   20.4658 C   0  0  0  0  0  0
  -22.7327  -10.2161   20.3044 C   0  0  0  0  0  0
  -21.6839   -6.0767   22.5273 C   0  0  0  0  0  0
  -21.4026   -6.5652   23.8227 C   0  0  0  0  0  0
  -21.3672   -5.6790   24.9168 C   0  0  0  0  0  0
  -21.6044   -4.3043   24.7201 C   0  0  0  0  0  0
  -21.8836   -3.8164   23.4311 C   0  0  0  0  0  0
  -21.9192   -4.6986   22.3391 C   0  0  0  0  0  0
  -22.7886  -13.5224   21.1777 C   0  0  0  0  0  0
  -22.1656   -4.2188   21.0950 F   0  0  0  0  0  0
  -21.5610   -3.4534   25.7714 F   0  0  0  0  0  0
  -29.9774  -13.5680   20.4425 N   0  0  0  0  0  0
  -26.2968  -12.9423   20.3278 N   0  0  0  0  0  0
  -25.9368  -11.6571   20.5781 N   0  0  0  0  0  0
  -22.0512  -12.8297   22.0352 N   0  0  0  0  0  0
  -25.4125  -15.1956   20.4090 N   0  0  0  0  0  0
  -31.7539  -14.9091   20.1382 O   0  0  0  0  0  0
  -21.6622   -6.8925   21.4254 O   0  0  0  0  0  0
  -22.3592  -14.5535   20.6549 O   0  0  0  0  0  0
  -24.6319  -31.8536   23.2029 C   0  0  0  0  0  0
  -25.9146  -32.4783   23.8329 C   0  0  1  0  0  0
  -27.2091  -27.2246   20.1703 C   0  0  0  0  0  0
  -25.5882  -33.8594   24.2234 N   0  0  0  0  0  0
  -23.4259  -30.4776   21.5502 C   0  0  2  0  0  0
  -24.8763  -28.9059   20.1351 C   0  0  0  0  0  0
  -22.7465  -29.4625   22.5027 C   0  0  0  0  0  0
  -18.0261  -28.1419   22.8509 C   0  0  0  0  0  0
  -24.1494  -36.7246   23.2644 C   0  0  0  0  0  0
  -25.9741  -30.7615   21.3871 C   0  0  0  0  0  0
  -26.0502  -29.3730   20.7408 C   0  0  0  0  0  0
  -27.2263  -28.5469   20.7409 C   0  0  0  0  0  0
  -26.0090  -26.8211   19.5525 C   0  0  0  0  0  0
  -24.8583  -27.6371   19.5349 C   0  0  0  0  0  0
  -23.6528  -29.8087   20.1723 C   0  0  0  0  0  0
  -25.4125  -36.3091   24.0355 C   0  0  1  0  0  0
  -20.5853  -28.3713   23.1364 C   0  0  2  0  0  0
  -20.6774  -26.9445   22.5471 C   0  0  0  0  0  0
  -19.5752  -26.6390   21.5258 C   0  0  0  0  0  0
  -18.1915  -26.7972   22.1637 C   0  0  0  0  0  0
  -19.1508  -28.8869   23.2933 C   0  0  0  0  0  0
  -18.9428  -30.1460   23.8958 C   0  0  0  0  0  0
  -17.6428  -30.6618   24.0553 C   0  0  0  0  0  0
  -25.9047  -34.9459   23.5086 C   0  0  0  0  0  0
  -16.5322  -29.9112   23.6354 C   0  0  0  0  0  0
  -16.7245  -28.6536   23.0396 C   0  0  0  0  0  0
  -26.4495  -31.6652   25.0725 C   0  0  0  0  0  0
  -25.3668  -31.3830   26.1398 C   0  0  0  0  0  0
  -27.0354  -30.3083   24.6234 C   0  0  0  0  0  0
  -27.6045  -32.4369   25.7483 C   0  0  0  0  0  0
  -27.5580  -37.1770   24.8463 C   0  0  0  0  0  0
  -21.4190  -29.3053   22.3764 N   0  0  0  0  0  0
  -26.4279  -37.3785   23.9426 N   0  0  0  0  0  0
  -24.6946  -31.0503   22.1021 N   0  0  0  0  0  0
  -23.4160  -28.8157   23.3105 O   0  0  0  0  0  0
  -28.3286  -26.3641   20.0630 O   0  0  0  0  0  0
  -26.5607  -34.8900   22.4649 O   0  0  0  0  0  0
  -23.5486  -32.1338   23.7378 O   0  0  0  0  0  0
  -29.2855  -18.6701   21.0301 C   0  0  0  0  0  0
  -27.4892  -19.5074   22.0426 C   0  0  0  0  0  0
  -28.7552  -20.9485   20.9299 C   0  0  0  0  0  0
  -28.1367  -23.5919   18.6745 C   0  0  0  0  0  0
  -30.0173  -25.1145   21.0798 C   0  0  0  0  0  0
  -30.2611  -17.4158   20.7732 C   0  0  0  0  0  0
  -28.1932  -23.5345   20.2063 C   0  0  1  0  0  0
  -28.5107  -25.0448   20.7975 C   0  0  1  0  0  0
  -28.2021  -18.4213   21.7706 N   0  0  0  0  0  0
  -29.6166  -19.9427   20.6035 N   0  0  0  0  0  0
  -27.6640  -20.7653   21.6586 N   0  0  0  0  0  0
  -26.4338  -19.3199   22.8821 N   0  0  0  0  0  0
  -29.0641  -22.3270   20.6070 N   0  0  0  0  0  0
  -29.8344  -15.9375   20.8544 N   0  0  0  0  0  0
  -31.4848  -12.6334   19.1978 H   0  0  0  0  0  0
  -30.4038  -11.5320   19.9930 H   0  0  0  0  0  0
  -29.8304  -11.7651   17.5482 H   0  0  0  0  0  0
  -29.6389  -13.4822   17.7363 H   0  0  0  0  0  0
  -27.9326  -11.2807   18.9381 H   0  0  0  0  0  0
  -27.4059  -12.5140   17.8189 H   0  0  0  0  0  0
  -27.6387  -14.2513   19.4732 H   0  0  0  0  0  0
  -28.7448  -12.1863   21.4527 H   0  0  0  0  0  0
  -28.3810  -13.8481   21.8307 H   0  0  0  0  0  0
  -25.2862   -9.5626   22.4748 H   0  0  0  0  0  0
  -24.0010   -7.4640   22.7516 H   0  0  0  0  0  0
  -21.0867   -8.8899   19.8995 H   0  0  0  0  0  0
  -22.3835  -10.9731   19.6144 H   0  0  0  0  0  0
  -21.2043   -7.6156   23.9765 H   0  0  0  0  0  0
  -21.1453   -6.0479   25.9082 H   0  0  0  0  0  0
  -22.0596   -2.7617   23.2772 H   0  0  0  0  0  0
  -22.4119  -11.9955   22.4773 H   0  0  0  0  0  0
  -21.1160  -13.1401   22.2526 H   0  0  0  0  0  0
  -24.6475  -15.8492   20.5374 H   0  0  0  0  0  0
  -26.2559  -15.6497   20.0885 H   0  0  0  0  0  0
  -26.7203  -32.5435   23.1047 H   0  0  0  0  0  0
  -25.0050  -33.9767   25.0410 H   0  0  0  0  0  0
  -22.7170  -31.2957   21.4076 H   0  0  0  0  0  0
  -23.3799  -35.9535   23.3327 H   0  0  0  0  0  0
  -24.3568  -36.8805   22.2034 H   0  0  0  0  0  0
  -23.7189  -37.6423   23.6669 H   0  0  0  0  0  0
  -26.1090  -31.5215   20.6166 H   0  0  0  0  0  0
  -26.8540  -30.8122   22.0189 H   0  0  0  0  0  0
  -28.1325  -28.9192   21.1986 H   0  0  0  0  0  0
  -25.9436  -25.8567   19.0721 H   0  0  0  0  0  0
  -23.9493  -27.2743   19.0700 H   0  0  0  0  0  0
  -23.7966  -30.5816   19.4145 H   0  0  0  0  0  0
  -22.7657  -29.2561   19.8649 H   0  0  0  0  0  0
  -25.1351  -36.1890   25.0859 H   0  0  0  0  0  0
  -20.9912  -28.3295   24.1500 H   0  0  0  0  0  0
  -20.5739  -26.2289   23.3674 H   0  0  0  0  0  0
  -21.6642  -26.7567   22.1190 H   0  0  0  0  0  0
  -19.6923  -25.6294   21.1303 H   0  0  0  0  0  0
  -19.6694  -27.3220   20.6809 H   0  0  0  0  0  0
  -17.4197  -26.6734   21.4029 H   0  0  0  0  0  0
  -18.0279  -26.0127   22.9038 H   0  0  0  0  0  0
  -19.7901  -30.7248   24.2399 H   0  0  0  0  0  0
  -17.5008  -31.6347   24.5072 H   0  0  0  0  0  0
  -15.5353  -30.3021   23.7708 H   0  0  0  0  0  0
  -15.8639  -28.0865   22.7146 H   0  0  0  0  0  0
  -24.5831  -30.7214   25.7710 H   0  0  0  0  0  0
  -24.8851  -32.3008   26.4779 H   0  0  0  0  0  0
  -25.7861  -30.8970   27.0204 H   0  0  0  0  0  0
  -26.2987  -29.6793   24.1204 H   0  0  0  0  0  0
  -27.4002  -29.7383   25.4787 H   0  0  0  0  0  0
  -27.8877  -30.4418   23.9561 H   0  0  0  0  0  0
  -27.2708  -33.3692   26.2065 H   0  0  0  0  0  0
  -28.3846  -32.6847   25.0282 H   0  0  0  0  0  0
  -28.0741  -31.8441   26.5334 H   0  0  0  0  0  0
  -28.2621  -38.0052   24.7533 H   0  0  0  0  0  0
  -28.1011  -36.2549   24.6287 H   0  0  0  0  0  0
  -27.2254  -37.1463   25.8850 H   0  0  0  0  0  0
  -20.9417  -29.8614   21.6841 H   0  0  0  0  0  0
  -26.0133  -38.2840   24.1442 H   0  0  0  0  0  0
  -27.8289  -22.6346   18.2552 H   0  0  0  0  0  0
  -29.1090  -23.8438   18.2498 H   0  0  0  0  0  0
  -27.4109  -24.3315   18.3401 H   0  0  0  0  0  0
  -30.3026  -26.0695   21.5125 H   0  0  0  0  0  0
  -30.5713  -24.9873   20.1483 H   0  0  0  0  0  0
  -30.3447  -24.3456   21.7827 H   0  0  0  0  0  0
  -31.0585  -17.5380   21.5067 H   0  0  0  0  0  0
  -30.7305  -17.5741   19.8009 H   0  0  0  0  0  0
  -27.1786  -23.2910   20.5174 H   0  0  0  0  0  0
  -27.9896  -25.1487   21.7531 H   0  0  0  0  0  0
  -26.4625  -18.4993   23.4698 H   0  0  0  0  0  0
  -26.1095  -20.1533   23.3538 H   0  0  0  0  0  0
  -30.0167  -22.4175   20.2821 H   0  0  0  0  0  0
  -28.8767  -15.8015   21.1415 H   0  0  0  0  0  0
  1 25  1  0  0  0
  1 30  2  0  0  0
  1 84  1  0  0  0
  2  3  1  0  0  0
  2 25  1  0  0  0
  2 85  1  0  0  0
  2 86  1  0  0  0
  3  4  1  0  0  0
  3 87  1  0  0  0
  3 88  1  0  0  0
  4  5  1  0  0  0
  4 89  1  0  0  0
  4 90  1  0  0  0
  5  6  1  0  0  0
  5 26  1  0  0  0
  5 91  1  0  0  0
  6 25  1  0  0  0
  6 92  1  0  0  0
  6 93  1  0  0  0
  7  8  2  0  0  0
  7 26  1  0  0  0
  7 29  1  0  0  0
  8  9  1  0  0  0
  8 22  1  0  0  0
  9 10  1  0  0  0
  9 27  2  0  0  0
 10 11  2  0  0  0
 10 15  1  0  0  0
 11 12  1  0  0  0
 11 94  1  0  0  0
 12 13  2  0  0  0
 12 95  1  0  0  0
 13 14  1  0  0  0
 13 31  1  0  0  0
 14 15  2  0  0  0
 14 96  1  0  0  0
 15 97  1  0  0  0
 16 17  2  0  0  0
 16 21  1  0  0  0
 16 31  1  0  0  0
 17 18  1  0  0  0
 17 98  1  0  0  0
 18 19  2  0  0  0
 18 99  1  0  0  0
 19 20  1  0  0  0
 19 24  1  0  0  0
 20 21  2  0  0  0
 20100  1  0  0  0
 21 23  1  0  0  0
 22 28  1  0  0  0
 22 32  2  0  0  0
 26 27  1  0  0  0
 28101  1  0  0  0
 28102  1  0  0  0
 29103  1  0  0  0
 29104  1  0  0  0
 33 34  1  0  0  0
 33 66  1  0  0  0
 33 70  2  0  0  0
 34 36  1  0  0  0
 34 59  1  0  0  0
 34105  1  0  0  0
 35 44  2  0  0  0
 35 45  1  0  0  0
 35 68  1  0  0  0
 36 56  1  0  0  0
 36106  1  0  0  0
 37 39  1  0  0  0
 37 47  1  0  0  0
 37 66  1  0  0  0
 37107  1  0  0  0
 38 43  2  0  0  0
 38 46  1  0  0  0
 38 47  1  0  0  0
 39 64  1  0  0  0
 39 67  2  0  0  0
 40 52  1  0  0  0
 40 53  2  0  0  0
 40 58  1  0  0  0
 41108  1  0  0  0
 41109  1  0  0  0
 41110  1  0  0  0
 41 48  1  0  0  0
 42 43  1  0  0  0
 42 66  1  0  0  0
 42111  1  0  0  0
 42112  1  0  0  0
 43 44  1  0  0  0
 44113  1  0  0  0
 45 46  2  0  0  0
 45114  1  0  0  0
 46115  1  0  0  0
 47116  1  0  0  0
 47117  1  0  0  0
 48 56  1  0  0  0
 48 65  1  0  0  0
 48118  1  0  0  0
 49 50  1  0  0  0
 49 53  1  0  0  0
 49 64  1  0  0  0
 49119  1  0  0  0
 50 51  1  0  0  0
 50120  1  0  0  0
 50121  1  0  0  0
 51 52  1  0  0  0
 51122  1  0  0  0
 51123  1  0  0  0
 52124  1  0  0  0
 52125  1  0  0  0
 53 54  1  0  0  0
 54 55  2  0  0  0
 54126  1  0  0  0
 55 57  1  0  0  0
 55127  1  0  0  0
 56 69  2  0  0  0
 57 58  2  0  0  0
 57128  1  0  0  0
 58129  1  0  0  0
 59 60  1  0  0  0
 59 61  1  0  0  0
 59 62  1  0  0  0
 60130  1  0  0  0
 60131  1  0  0  0
 60132  1  0  0  0
 61133  1  0  0  0
 61134  1  0  0  0
 61135  1  0  0  0
 62136  1  0  0  0
 62137  1  0  0  0
 62138  1  0  0  0
 63 65  1  0  0  0
 63139  1  0  0  0
 63140  1  0  0  0
 63141  1  0  0  0
 64142  1  0  0  0
 65143  1  0  0  0
 68 78  1  0  0  0
 71 76  1  0  0  0
 71 79  1  0  0  0
 71 80  2  0  0  0
 72 79  2  0  0  0
 72 81  1  0  0  0
 72 82  1  0  0  0
 73 80  1  0  0  0
 73 81  2  0  0  0
 73 83  1  0  0  0
 74144  1  0  0  0
 74145  1  0  0  0
 74146  1  0  0  0
 74 77  1  0  0  0
 75147  1  0  0  0
 75148  1  0  0  0
 75149  1  0  0  0
 75 78  1  0  0  0
 76 84  1  0  0  0
 76150  1  0  0  0
 76151  1  0  0  0
 77 78  1  0  0  0
 77 83  1  0  0  0
 77152  1  0  0  0
 78153  1  0  0  0
 82154  1  0  0  0
 82155  1  0  0  0
 83156  1  0  0  0
 84157  1  0  0  0
M  ISO  4   1 100  68 101  78 101  84 100
M  END
> <chiral flag>
0

> <version>
0

> <s_m_source_file>
/data/baiqing/PycharmProjects/Reinvent-master-3.2/result/LINK_invent/BTK/process_docking_weight1_custom_product_contain_oxygen_bond_distance_aromatic_linkinvent_7_9_3/rearranged_h_0194.sdf

> <i_m_source_file_index>
52

> <r_mmod_Potential_Energy-OPLS-2005>
-878.186706542969

> <r_mmod_Stretch_Energy-OPLS-2005>
147.032699584961

> <r_mmod_Bend_Energy-OPLS-2005>
216.585556030273

> <r_mmod_Torsional_Energy-OPLS-2005>
251.294662475586

> <r_mmod_Improper_Torsional_Energy-OPLS-2005>
10.2673997879028

> <r_mmod_Van_der_Waal_Energy-OPLS-2005>
145.081481933594

> <r_mmod_Electrostatic_Energy-OPLS-2005>
-1512.85266113281

> <r_mmod_Solvation_Energy-OPLS-2005>
-238.52165222168

> <b_mmod_Minimization_Converged-OPLS-2005>
0

> <r_mmod_RMS_Derivative-OPLS-2005>
8.27642154693604

$$$$
52
                    3D
 Structure written by MMmdl.
156164  0  0  1  0            999 V2000
  -30.6600  -14.5655   20.5393 C   0  0  0  0  0  0
  -30.4276  -12.3574   19.4283 C   0  0  0  0  0  0
  -29.4961  -12.4998   18.2058 C   0  0  0  0  0  0
  -28.0196  -12.3446   18.6249 C   0  0  0  0  0  0
  -27.6527  -13.2096   19.8616 C   0  0  2  0  0  0
  -28.6977  -13.0353   20.9849 C   0  0  0  0  0  0
  -25.2558  -13.8146   20.5680 C   0  0  0  0  0  0
  -24.1813  -13.0420   20.9180 C   0  0  0  0  0  0
  -24.6369  -11.6893   20.8725 C   0  0  0  0  0  0
  -23.9037  -10.4280   21.0394 C   0  0  0  0  0  0
  -24.3595   -9.4201   21.9177 C   0  0  0  0  0  0
  -23.6275   -8.2236   22.0751 C   0  0  0  0  0  0
  -22.4261   -8.0270   21.3546 C   0  0  0  0  0  0
  -21.9895   -9.0231   20.4638 C   0  0  0  0  0  0
  -22.7210  -10.2114   20.3040 C   0  0  0  0  0  0
  -21.6844   -6.0721   22.5275 C   0  0  0  0  0  0
  -21.4007   -6.5628   23.8205 C   0  0  0  0  0  0
  -21.3661   -5.6788   24.9170 C   0  0  0  0  0  0
  -21.6046   -4.3050   24.7224 C   0  0  0  0  0  0
  -21.8820   -3.8141   23.4351 C   0  0  0  0  0  0
  -21.9188   -4.6952   22.3404 C   0  0  0  0  0  0
  -22.7841  -13.5217   21.1857 C   0  0  0  0  0  0
  -22.1658   -4.2136   21.0982 F   0  0  0  0  0  0
  -21.5633   -3.4542   25.7742 F   0  0  0  0  0  0
  -30.0144  -13.3674   20.4174 N   0  0  0  0  0  0
  -26.2977  -12.9317   20.3317 N   0  0  0  0  0  0
  -25.9292  -11.6477   20.5730 N   0  0  0  0  0  0
  -22.0487  -12.8203   22.0400 N   0  0  0  0  0  0
  -25.4293  -15.1874   20.4117 N   0  0  0  0  0  0
  -31.8205  -14.7256   20.1526 O   0  0  0  0  0  0
  -21.6632   -6.8867   21.4238 O   0  0  0  0  0  0
  -22.3538  -14.5535   20.6711 O   0  0  0  0  0  0
  -24.6194  -31.8625   23.2061 C   0  0  0  0  0  0
  -25.9073  -32.4792   23.8380 C   0  0  1  0  0  0
  -27.2334  -27.3800   20.1101 C   0  0  0  0  0  0
  -25.5910  -33.8594   24.2303 N   0  0  0  0  0  0
  -23.4123  -30.4830   21.5469 C   0  0  2  0  0  0
  -24.8630  -28.9433   20.1181 C   0  0  0  0  0  0
  -22.7435  -29.4616   22.4958 C   0  0  0  0  0  0
  -18.0275  -28.1390   22.8476 C   0  0  0  0  0  0
  -24.1491  -36.7300   23.2637 C   0  0  0  0  0  0
  -25.9460  -30.8135   21.3678 C   0  0  0  0  0  0
  -26.0265  -29.4408   20.7213 C   0  0  0  0  0  0
  -27.2186  -28.6660   20.7175 C   0  0  0  0  0  0
  -26.0570  -26.9152   19.4925 C   0  0  0  0  0  0
  -24.8744  -27.6793   19.5041 C   0  0  0  0  0  0
  -23.6258  -29.8158   20.1633 C   0  0  0  0  0  0
  -25.4116  -36.3090   24.0331 C   0  0  1  0  0  0
  -20.5865  -28.3687   23.1294 C   0  0  2  0  0  0
  -20.6770  -26.9413   22.5428 C   0  0  0  0  0  0
  -19.5763  -26.6398   21.5205 C   0  0  0  0  0  0
  -18.1918  -26.7942   22.1587 C   0  0  0  0  0  0
  -19.1526  -28.8847   23.2879 C   0  0  0  0  0  0
  -18.9459  -30.1440   23.8915 C   0  0  0  0  0  0
  -17.6461  -30.6592   24.0564 C   0  0  0  0  0  0
  -25.9041  -34.9457   23.5110 C   0  0  0  0  0  0
  -16.5351  -29.9103   23.6330 C   0  0  0  0  0  0
  -16.7264  -28.6518   23.0345 C   0  0  0  0  0  0
  -26.4489  -31.6588   25.0721 C   0  0  0  0  0  0
  -25.3720  -31.3693   26.1436 C   0  0  0  0  0  0
  -27.0335  -30.3022   24.6131 C   0  0  0  0  0  0
  -27.6063  -32.4306   25.7487 C   0  0  0  0  0  0
  -27.5578  -37.1791   24.8460 C   0  0  0  0  0  0
  -21.4157  -29.3031   22.3691 N   0  0  0  0  0  0
  -26.4290  -37.3781   23.9410 N   0  0  0  0  0  0
  -24.6774  -31.0682   22.0985 N   0  0  0  0  0  0
  -23.4171  -28.8159   23.3028 O   0  0  0  0  0  0
  -28.3584  -26.5709   20.0498 O   0  0  0  0  0  0
  -26.5612  -34.8915   22.4678 O   0  0  0  0  0  0
  -23.5374  -32.1405   23.7417 O   0  0  0  0  0  0
  -29.7182  -19.2727   18.5986 C   0  0  0  0  0  0
  -29.3632  -19.3852   21.2390 C   0  0  0  0  0  0
  -29.8650  -18.1982   20.6139 C   0  0  0  0  0  0
  -29.1089  -20.5079   20.4040 C   0  0  0  0  0  0
  -30.3877  -16.9557   21.3872 C   0  0  0  0  0  0
  -28.9659  -23.0609   20.4397 C   0  0  0  0  0  0
  -28.6060  -25.7091   21.1898 C   0  0  0  0  0  0
  -28.1747  -24.1838   21.1981 C   0  0  1  0  0  0
  -30.0130  -18.1636   19.2783 N   0  0  0  0  0  0
  -29.2951  -20.4407   19.0832 N   0  0  0  0  0  0
  -29.1088  -19.4776   22.6162 N   0  0  0  0  0  0
  -28.6211  -21.7127   20.9636 N   0  0  0  0  0  0
  -29.9137  -15.6036   20.9878 N   0  0  0  0  0  0
  -26.8077  -24.0100   20.8918 O   0  0  0  0  0  0
  -31.4698  -12.4718   19.1271 H   0  0  0  0  0  0
  -30.3482  -11.3575   19.8570 H   0  0  0  0  0  0
  -29.7492  -11.7529   17.4517 H   0  0  0  0  0  0
  -29.6460  -13.4734   17.7365 H   0  0  0  0  0  0
  -27.8504  -11.2907   18.8512 H   0  0  0  0  0  0
  -27.3613  -12.5842   17.7876 H   0  0  0  0  0  0
  -27.6806  -14.2491   19.5336 H   0  0  0  0  0  0
  -28.7004  -12.0053   21.3443 H   0  0  0  0  0  0
  -28.4543  -13.6516   21.8513 H   0  0  0  0  0  0
  -25.2733   -9.5678   22.4758 H   0  0  0  0  0  0
  -23.9972   -7.4635   22.7482 H   0  0  0  0  0  0
  -21.0826   -8.8739   19.8949 H   0  0  0  0  0  0
  -22.3664  -10.9644   19.6153 H   0  0  0  0  0  0
  -21.2003   -7.6136   23.9699 H   0  0  0  0  0  0
  -21.1484   -6.0525   25.9070 H   0  0  0  0  0  0
  -22.0603   -2.7601   23.2855 H   0  0  0  0  0  0
  -22.4084  -11.9838   22.4745 H   0  0  0  0  0  0
  -21.1104  -13.1221   22.2606 H   0  0  0  0  0  0
  -24.6653  -15.8441   20.5295 H   0  0  0  0  0  0
  -26.2794  -15.6276   20.0845 H   0  0  0  0  0  0
  -26.7144  -32.5503   23.1143 H   0  0  0  0  0  0
  -25.0058  -33.9763   25.0441 H   0  0  0  0  0  0
  -22.7023  -31.2996   21.4012 H   0  0  0  0  0  0
  -23.3748  -35.9629   23.3309 H   0  0  0  0  0  0
  -24.3578  -36.8920   22.2047 H   0  0  0  0  0  0
  -23.7235  -37.6498   23.6670 H   0  0  0  0  0  0
  -26.0561  -31.5763   20.5954 H   0  0  0  0  0  0
  -26.8329  -30.8734   21.9876 H   0  0  0  0  0  0
  -28.1165  -29.0470   21.1842 H   0  0  0  0  0  0
  -26.0551  -25.9457   19.0132 H   0  0  0  0  0  0
  -23.9810  -27.2881   19.0375 H   0  0  0  0  0  0
  -23.7366  -30.5915   19.4049 H   0  0  0  0  0  0
  -22.7493  -29.2355   19.8678 H   0  0  0  0  0  0
  -25.1273  -36.1962   25.0816 H   0  0  0  0  0  0
  -20.9931  -28.3299   24.1421 H   0  0  0  0  0  0
  -20.5668  -26.2294   23.3624 H   0  0  0  0  0  0
  -21.6641  -26.7447   22.1215 H   0  0  0  0  0  0
  -19.6940  -25.6315   21.1224 H   0  0  0  0  0  0
  -19.6748  -27.3220   20.6740 H   0  0  0  0  0  0
  -17.4204  -26.6719   21.3968 H   0  0  0  0  0  0
  -18.0296  -26.0066   22.8963 H   0  0  0  0  0  0
  -19.7935  -30.7235   24.2321 H   0  0  0  0  0  0
  -17.5026  -31.6271   24.5169 H   0  0  0  0  0  0
  -15.5354  -30.3007   23.7659 H   0  0  0  0  0  0
  -15.8658  -28.0850   22.7057 H   0  0  0  0  0  0
  -24.6067  -30.6816   25.7827 H   0  0  0  0  0  0
  -24.8676  -32.2795   26.4671 H   0  0  0  0  0  0
  -25.8058  -30.9110   27.0326 H   0  0  0  0  0  0
  -26.2892  -29.6757   24.1174 H   0  0  0  0  0  0
  -27.4088  -29.7279   25.4618 H   0  0  0  0  0  0
  -27.8741  -30.4333   23.9296 H   0  0  0  0  0  0
  -27.2723  -33.3647   26.2009 H   0  0  0  0  0  0
  -28.3903  -32.6772   25.0322 H   0  0  0  0  0  0
  -28.0686  -31.8444   26.5439 H   0  0  0  0  0  0
  -28.2572  -38.0100   24.7494 H   0  0  0  0  0  0
  -28.1075  -36.2619   24.6283 H   0  0  0  0  0  0
  -27.2287  -37.1451   25.8857 H   0  0  0  0  0  0
  -20.9345  -29.8754   21.6893 H   0  0  0  0  0  0
  -26.0175  -38.2849   24.1439 H   0  0  0  0  0  0
  -29.8533  -19.2229   17.5291 H   0  0  0  0  0  0
  -30.1482  -17.0676   22.4432 H   0  0  0  0  0  0
  -31.4770  -16.9937   21.3464 H   0  0  0  0  0  0
  -30.0350  -23.2133   20.5902 H   0  0  0  0  0  0
  -28.7920  -23.1201   19.3643 H   0  0  0  0  0  0
  -29.6835  -25.7355   21.3604 H   0  0  0  0  0  0
  -28.1853  -26.1875   22.0766 H   0  0  0  0  0  0
  -28.2648  -23.9121   22.2518 H   0  0  0  0  0  0
  -29.1189  -18.6150   23.1518 H   0  0  0  0  0  0
  -28.3159  -20.0525   22.8871 H   0  0  0  0  0  0
  -28.6504  -21.6291   21.9731 H   0  0  0  0  0  0
  -28.9430  -15.4131   21.1780 H   0  0  0  0  0  0
  -26.6957  -23.0673   20.7971 H   0  0  0  0  0  0
  1 25  1  0  0  0
  1 30  2  0  0  0
  1 83  1  0  0  0
  2  3  1  0  0  0
  2 25  1  0  0  0
  2 85  1  0  0  0
  2 86  1  0  0  0
  3  4  1  0  0  0
  3 87  1  0  0  0
  3 88  1  0  0  0
  4  5  1  0  0  0
  4 89  1  0  0  0
  4 90  1  0  0  0
  5  6  1  0  0  0
  5 26  1  0  0  0
  5 91  1  0  0  0
  6 25  1  0  0  0
  6 92  1  0  0  0
  6 93  1  0  0  0
  7  8  2  0  0  0
  7 26  1  0  0  0
  7 29  1  0  0  0
  8  9  1  0  0  0
  8 22  1  0  0  0
  9 10  1  0  0  0
  9 27  2  0  0  0
 10 11  2  0  0  0
 10 15  1  0  0  0
 11 12  1  0  0  0
 11 94  1  0  0  0
 12 13  2  0  0  0
 12 95  1  0  0  0
 13 14  1  0  0  0
 13 31  1  0  0  0
 14 15  2  0  0  0
 14 96  1  0  0  0
 15 97  1  0  0  0
 16 17  2  0  0  0
 16 21  1  0  0  0
 16 31  1  0  0  0
 17 18  1  0  0  0
 17 98  1  0  0  0
 18 19  2  0  0  0
 18 99  1  0  0  0
 19 20  1  0  0  0
 19 24  1  0  0  0
 20 21  2  0  0  0
 20100  1  0  0  0
 21 23  1  0  0  0
 22 28  1  0  0  0
 22 32  2  0  0  0
 26 27  1  0  0  0
 28101  1  0  0  0
 28102  1  0  0  0
 29103  1  0  0  0
 29104  1  0  0  0
 33 34  1  0  0  0
 33 66  1  0  0  0
 33 70  2  0  0  0
 34 36  1  0  0  0
 34 59  1  0  0  0
 34105  1  0  0  0
 35 44  2  0  0  0
 35 45  1  0  0  0
 35 68  1  0  0  0
 36 56  1  0  0  0
 36106  1  0  0  0
 37 39  1  0  0  0
 37 47  1  0  0  0
 37 66  1  0  0  0
 37107  1  0  0  0
 38 43  2  0  0  0
 38 46  1  0  0  0
 38 47  1  0  0  0
 39 64  1  0  0  0
 39 67  2  0  0  0
 40 52  1  0  0  0
 40 53  2  0  0  0
 40 58  1  0  0  0
 41108  1  0  0  0
 41109  1  0  0  0
 41110  1  0  0  0
 41 48  1  0  0  0
 42 43  1  0  0  0
 42 66  1  0  0  0
 42111  1  0  0  0
 42112  1  0  0  0
 43 44  1  0  0  0
 44113  1  0  0  0
 45 46  2  0  0  0
 45114  1  0  0  0
 46115  1  0  0  0
 47116  1  0  0  0
 47117  1  0  0  0
 48 56  1  0  0  0
 48 65  1  0  0  0
 48118  1  0  0  0
 49 50  1  0  0  0
 49 53  1  0  0  0
 49 64  1  0  0  0
 49119  1  0  0  0
 50 51  1  0  0  0
 50120  1  0  0  0
 50121  1  0  0  0
 51 52  1  0  0  0
 51122  1  0  0  0
 51123  1  0  0  0
 52124  1  0  0  0
 52125  1  0  0  0
 53 54  1  0  0  0
 54 55  2  0  0  0
 54126  1  0  0  0
 55 57  1  0  0  0
 55127  1  0  0  0
 56 69  2  0  0  0
 57 58  2  0  0  0
 57128  1  0  0  0
 58129  1  0  0  0
 59 60  1  0  0  0
 59 61  1  0  0  0
 59 62  1  0  0  0
 60130  1  0  0  0
 60131  1  0  0  0
 60132  1  0  0  0
 61133  1  0  0  0
 61134  1  0  0  0
 61135  1  0  0  0
 62136  1  0  0  0
 62137  1  0  0  0
 62138  1  0  0  0
 63 65  1  0  0  0
 63139  1  0  0  0
 63140  1  0  0  0
 63141  1  0  0  0
 64142  1  0  0  0
 65143  1  0  0  0
 68 77  1  0  0  0
 71 79  2  0  0  0
 71 80  1  0  0  0
 71144  1  0  0  0
 72 73  2  0  0  0
 72 74  1  0  0  0
 72 81  1  0  0  0
 73 75  1  0  0  0
 73 79  1  0  0  0
 74 80  2  0  0  0
 74 82  1  0  0  0
 75 83  1  0  0  0
 75145  1  0  0  0
 75146  1  0  0  0
 76 78  1  0  0  0
 76 82  1  0  0  0
 76147  1  0  0  0
 76148  1  0  0  0
 77 78  1  0  0  0
 77149  1  0  0  0
 77150  1  0  0  0
 78 84  1  0  0  0
 78151  1  0  0  0
 81152  1  0  0  0
 81153  1  0  0  0
 82154  1  0  0  0
 83155  1  0  0  0
 84156  1  0  0  0
M  ISO  4   1 100  68 101  77 101  83 100
M  END
> <chiral flag>
0

> <version>
0

> <s_m_source_file>
/data/baiqing/PycharmProjects/Reinvent-master-3.2/result/LINK_invent/BTK/process_docking_weight1_custom_product_contain_oxygen_bond_distance_aromatic_linkinvent_7_9_3/rearranged_h_0194.sdf

> <i_m_source_file_index>
53

> <r_mmod_Potential_Energy-OPLS-2005>
-626.111694335938

> <r_mmod_Stretch_Energy-OPLS-2005>
52.702522277832

> <r_mmod_Bend_Energy-OPLS-2005>
140.193206787109

> <r_mmod_Torsional_Energy-OPLS-2005>
267.618469238281

> <r_mmod_Improper_Torsional_Energy-OPLS-2005>
11.3395843505859

> <r_mmod_Van_der_Waal_Energy-OPLS-2005>
154.537292480469

> <r_mmod_Electrostatic_Energy-OPLS-2005>
-1003.60925292969

> <r_mmod_Solvation_Energy-OPLS-2005>
-275.458129882812

> <b_mmod_Minimization_Converged-OPLS-2005>
0

> <r_mmod_RMS_Derivative-OPLS-2005>
2.44880151748657

$$$$
53
                    3D
 Structure written by MMmdl.
162170  0  0  1  0            999 V2000
  -30.7803  -14.3742   20.6694 C   0  0  0  0  0  0
  -30.4076  -12.2949   19.3869 C   0  0  0  0  0  0
  -29.4912  -12.5529   18.1780 C   0  0  0  0  0  0
  -28.0082  -12.4194   18.5775 C   0  0  0  0  0  0
  -27.6652  -13.2062   19.8700 C   0  0  2  0  0  0
  -28.7078  -12.9316   20.9807 C   0  0  0  0  0  0
  -25.2605  -13.8141   20.5624 C   0  0  0  0  0  0
  -24.1859  -13.0420   20.9117 C   0  0  0  0  0  0
  -24.6413  -11.6881   20.8664 C   0  0  0  0  0  0
  -23.9072  -10.4271   21.0369 C   0  0  0  0  0  0
  -24.3615   -9.4188   21.9164 C   0  0  0  0  0  0
  -23.6281   -8.2233   22.0753 C   0  0  0  0  0  0
  -22.4266   -8.0267   21.3542 C   0  0  0  0  0  0
  -21.9903   -9.0233   20.4636 C   0  0  0  0  0  0
  -22.7240  -10.2102   20.3031 C   0  0  0  0  0  0
  -21.6838   -6.0718   22.5275 C   0  0  0  0  0  0
  -21.4005   -6.5625   23.8202 C   0  0  0  0  0  0
  -21.3662   -5.6792   24.9170 C   0  0  0  0  0  0
  -21.6055   -4.3054   24.7224 C   0  0  0  0  0  0
  -21.8819   -3.8135   23.4348 C   0  0  0  0  0  0
  -21.9183   -4.6950   22.3404 C   0  0  0  0  0  0
  -22.7879  -13.5219   21.1809 C   0  0  0  0  0  0
  -22.1655   -4.2131   21.0977 F   0  0  0  0  0  0
  -21.5635   -3.4545   25.7742 F   0  0  0  0  0  0
  -30.0450  -13.2463   20.4515 N   0  0  0  0  0  0
  -26.3043  -12.9314   20.3280 N   0  0  0  0  0  0
  -25.9337  -11.6472   20.5661 N   0  0  0  0  0  0
  -22.0511  -12.8203   22.0345 N   0  0  0  0  0  0
  -25.4347  -15.1864   20.4044 N   0  0  0  0  0  0
  -31.8235  -14.6024   20.0480 O   0  0  0  0  0  0
  -21.6623   -6.8864   21.4243 O   0  0  0  0  0  0
  -22.3552  -14.5529   20.6663 O   0  0  0  0  0  0
  -24.6120  -31.8677   23.2091 C   0  0  0  0  0  0
  -25.9018  -32.4809   23.8391 C   0  0  1  0  0  0
  -27.2320  -27.4463   20.0901 C   0  0  0  0  0  0
  -25.5901  -33.8611   24.2329 N   0  0  0  0  0  0
  -23.4008  -30.4883   21.5496 C   0  0  2  0  0  0
  -24.8444  -28.9580   20.1156 C   0  0  0  0  0  0
  -22.7403  -29.4621   22.4976 C   0  0  0  0  0  0
  -18.0281  -28.1358   22.8449 C   0  0  0  0  0  0
  -24.1491  -36.7323   23.2633 C   0  0  0  0  0  0
  -25.9250  -30.8376   21.3577 C   0  0  0  0  0  0
  -26.0039  -29.4703   20.7118 C   0  0  0  0  0  0
  -27.1999  -28.7214   20.6949 C   0  0  0  0  0  0
  -26.0577  -26.9516   19.4777 C   0  0  0  0  0  0
  -24.8664  -27.6979   19.4950 C   0  0  0  0  0  0
  -23.6085  -29.8231   20.1631 C   0  0  0  0  0  0
  -25.4105  -36.3097   24.0338 C   0  0  1  0  0  0
  -20.5863  -28.3639   23.1296 C   0  0  2  0  0  0
  -20.6774  -26.9376   22.5392 C   0  0  0  0  0  0
  -19.5775  -26.6362   21.5170 C   0  0  0  0  0  0
  -18.1945  -26.7896   22.1580 C   0  0  0  0  0  0
  -19.1531  -28.8806   23.2874 C   0  0  0  0  0  0
  -18.9467  -30.1421   23.8874 C   0  0  0  0  0  0
  -17.6474  -30.6559   24.0553 C   0  0  0  0  0  0
  -25.9036  -34.9466   23.5131 C   0  0  0  0  0  0
  -16.5365  -29.9068   23.6312 C   0  0  0  0  0  0
  -16.7278  -28.6504   23.0298 C   0  0  0  0  0  0
  -26.4458  -31.6574   25.0705 C   0  0  0  0  0  0
  -25.3732  -31.3683   26.1469 C   0  0  0  0  0  0
  -27.0295  -30.3037   24.6026 C   0  0  0  0  0  0
  -27.6061  -32.4266   25.7452 C   0  0  0  0  0  0
  -27.5579  -37.1810   24.8468 C   0  0  0  0  0  0
  -21.4135  -29.3017   22.3722 N   0  0  0  0  0  0
  -26.4285  -37.3784   23.9420 N   0  0  0  0  0  0
  -24.6643  -31.0789   22.0985 N   0  0  0  0  0  0
  -23.4166  -28.8134   23.3002 O   0  0  0  0  0  0
  -28.4208  -26.7504   20.0751 O   0  0  0  0  0  0
  -26.5586  -34.8911   22.4683 O   0  0  0  0  0  0
  -23.5318  -32.1419   23.7495 O   0  0  0  0  0  0
  -30.1787  -18.8720   19.3455 C   0  0  0  0  0  0
  -30.1944  -17.5984   19.9399 C   0  0  0  0  0  0
  -28.6270  -19.5569   21.0597 C   0  0  0  0  0  0
  -29.3682  -19.8814   19.8991 C   0  0  0  0  0  0
  -29.4075  -17.3676   21.0844 C   0  0  0  0  0  0
  -28.5349  -22.1997   19.4546 C   0  0  0  0  0  0
  -28.9232  -25.0469   21.6536 C   0  0  0  0  0  0
  -31.5361  -15.6304   22.6012 C   0  0  0  0  0  0
  -29.2673  -15.9983   21.7440 C   0  0  0  0  0  0
  -28.6894  -23.3877   18.4995 C   0  0  0  0  0  0
  -29.2412  -24.6895   19.1268 C   0  0  0  0  0  0
  -28.3848  -25.3291   20.2440 C   0  0  2  0  0  0
  -28.6485  -18.3347   21.6339 N   0  0  0  0  0  0
  -29.3451  -21.1485   19.2426 N   0  0  0  0  0  0
  -30.4565  -15.1325   21.7409 N   0  0  0  0  0  0
  -27.6667  -22.2338   20.3250 O   0  0  0  0  0  0
  -31.4556  -12.3650   19.0913 H   0  0  0  0  0  0
  -30.2753  -11.2713   19.7390 H   0  0  0  0  0  0
  -29.7274  -11.8651   17.3645 H   0  0  0  0  0  0
  -29.6805  -13.5537   17.7852 H   0  0  0  0  0  0
  -27.7807  -11.3610   18.7080 H   0  0  0  0  0  0
  -27.3781  -12.7645   17.7568 H   0  0  0  0  0  0
  -27.7165  -14.2601   19.6003 H   0  0  0  0  0  0
  -28.6759  -11.8781   21.2586 H   0  0  0  0  0  0
  -28.4689  -13.4623   21.9008 H   0  0  0  0  0  0
  -25.2751   -9.5651   22.4741 H   0  0  0  0  0  0
  -23.9968   -7.4628   22.7496 H   0  0  0  0  0  0
  -21.0823   -8.8752   19.8953 H   0  0  0  0  0  0
  -22.3700  -10.9634   19.6126 H   0  0  0  0  0  0
  -21.1997   -7.6134   23.9698 H   0  0  0  0  0  0
  -21.1496   -6.0522   25.9071 H   0  0  0  0  0  0
  -22.0600   -2.7599   23.2857 H   0  0  0  0  0  0
  -22.4114  -11.9834   22.4694 H   0  0  0  0  0  0
  -21.1138  -13.1237   22.2573 H   0  0  0  0  0  0
  -24.6685  -15.8445   20.5018 H   0  0  0  0  0  0
  -26.2874  -15.6212   20.0757 H   0  0  0  0  0  0
  -26.7070  -32.5538   23.1150 H   0  0  0  0  0  0
  -25.0078  -33.9795   25.0486 H   0  0  0  0  0  0
  -22.6889  -31.3041   21.4079 H   0  0  0  0  0  0
  -23.3747  -35.9659   23.3274 H   0  0  0  0  0  0
  -24.3593  -36.8974   22.2053 H   0  0  0  0  0  0
  -23.7255  -37.6528   23.6666 H   0  0  0  0  0  0
  -26.0225  -31.5935   20.5770 H   0  0  0  0  0  0
  -26.8189  -30.9057   21.9650 H   0  0  0  0  0  0
  -28.1004  -29.1138   21.1466 H   0  0  0  0  0  0
  -26.0525  -26.0011   18.9625 H   0  0  0  0  0  0
  -23.9803  -27.3043   19.0171 H   0  0  0  0  0  0
  -23.7177  -30.5970   19.4016 H   0  0  0  0  0  0
  -22.7335  -29.2430   19.8645 H   0  0  0  0  0  0
  -25.1271  -36.1968   25.0830 H   0  0  0  0  0  0
  -20.9958  -28.3204   24.1417 H   0  0  0  0  0  0
  -20.5648  -26.2253   23.3580 H   0  0  0  0  0  0
  -21.6667  -26.7377   22.1224 H   0  0  0  0  0  0
  -19.6956  -25.6275   21.1226 H   0  0  0  0  0  0
  -19.6737  -27.3155   20.6680 H   0  0  0  0  0  0
  -17.4212  -26.6591   21.3992 H   0  0  0  0  0  0
  -18.0381  -26.0028   22.8963 H   0  0  0  0  0  0
  -19.7951  -30.7241   24.2216 H   0  0  0  0  0  0
  -17.5042  -31.6235   24.5168 H   0  0  0  0  0  0
  -15.5382  -30.2981   23.7647 H   0  0  0  0  0  0
  -15.8672  -28.0871   22.6951 H   0  0  0  0  0  0
  -24.5939  -30.6971   25.7851 H   0  0  0  0  0  0
  -24.8856  -32.2825   26.4855 H   0  0  0  0  0  0
  -25.8092  -30.8932   27.0265 H   0  0  0  0  0  0
  -26.2818  -29.6782   24.1135 H   0  0  0  0  0  0
  -27.4200  -29.7275   25.4426 H   0  0  0  0  0  0
  -27.8573  -30.4417   23.9069 H   0  0  0  0  0  0
  -27.2750  -33.3629   26.1955 H   0  0  0  0  0  0
  -28.3896  -32.6710   25.0267 H   0  0  0  0  0  0
  -28.0670  -31.8404   26.5415 H   0  0  0  0  0  0
  -28.2581  -38.0116   24.7511 H   0  0  0  0  0  0
  -28.1092  -36.2649   24.6287 H   0  0  0  0  0  0
  -27.2314  -37.1472   25.8876 H   0  0  0  0  0  0
  -20.9303  -29.8777   21.6971 H   0  0  0  0  0  0
  -26.0179  -38.2858   24.1442 H   0  0  0  0  0  0
  -30.7683  -19.0560   18.4592 H   0  0  0  0  0  0
  -30.7975  -16.8291   19.4853 H   0  0  0  0  0  0
  -27.9800  -20.2568   21.5616 H   0  0  0  0  0  0
  -28.9171  -23.9813   21.8810 H   0  0  0  0  0  0
  -28.3116  -25.5456   22.4068 H   0  0  0  0  0  0
  -29.9476  -25.4040   21.7647 H   0  0  0  0  0  0
  -31.1594  -15.9728   23.5655 H   0  0  0  0  0  0
  -32.0559  -16.4631   22.1245 H   0  0  0  0  0  0
  -32.2695  -14.8476   22.8010 H   0  0  0  0  0  0
  -28.4272  -15.5344   21.2395 H   0  0  0  0  0  0
  -28.9397  -16.1195   22.7789 H   0  0  0  0  0  0
  -27.7119  -23.5916   18.0608 H   0  0  0  0  0  0
  -29.3277  -23.0922   17.6654 H   0  0  0  0  0  0
  -29.3181  -25.4108   18.3127 H   0  0  0  0  0  0
  -30.2671  -24.5420   19.4663 H   0  0  0  0  0  0
  -27.3753  -24.9236   20.2043 H   0  0  0  0  0  0
  -29.9869  -21.2489   18.4663 H   0  0  0  0  0  0
  1 25  1  0  0  0
  1 30  2  0  0  0
  1 85  1  0  0  0
  2  3  1  0  0  0
  2 25  1  0  0  0
  2 87  1  0  0  0
  2 88  1  0  0  0
  3  4  1  0  0  0
  3 89  1  0  0  0
  3 90  1  0  0  0
  4  5  1  0  0  0
  4 91  1  0  0  0
  4 92  1  0  0  0
  5  6  1  0  0  0
  5 26  1  0  0  0
  5 93  1  0  0  0
  6 25  1  0  0  0
  6 94  1  0  0  0
  6 95  1  0  0  0
  7  8  2  0  0  0
  7 26  1  0  0  0
  7 29  1  0  0  0
  8  9  1  0  0  0
  8 22  1  0  0  0
  9 10  1  0  0  0
  9 27  2  0  0  0
 10 11  2  0  0  0
 10 15  1  0  0  0
 11 12  1  0  0  0
 11 96  1  0  0  0
 12 13  2  0  0  0
 12 97  1  0  0  0
 13 14  1  0  0  0
 13 31  1  0  0  0
 14 15  2  0  0  0
 14 98  1  0  0  0
 15 99  1  0  0  0
 16 17  2  0  0  0
 16 21  1  0  0  0
 16 31  1  0  0  0
 17 18  1  0  0  0
 17100  1  0  0  0
 18 19  2  0  0  0
 18101  1  0  0  0
 19 20  1  0  0  0
 19 24  1  0  0  0
 20 21  2  0  0  0
 20102  1  0  0  0
 21 23  1  0  0  0
 22 28  1  0  0  0
 22 32  2  0  0  0
 26 27  1  0  0  0
 28103  1  0  0  0
 28104  1  0  0  0
 29105  1  0  0  0
 29106  1  0  0  0
 33 34  1  0  0  0
 33 66  1  0  0  0
 33 70  2  0  0  0
 34 36  1  0  0  0
 34 59  1  0  0  0
 34107  1  0  0  0
 35 44  2  0  0  0
 35 45  1  0  0  0
 35 68  1  0  0  0
 36 56  1  0  0  0
 36108  1  0  0  0
 37 39  1  0  0  0
 37 47  1  0  0  0
 37 66  1  0  0  0
 37109  1  0  0  0
 38 43  2  0  0  0
 38 46  1  0  0  0
 38 47  1  0  0  0
 39 64  1  0  0  0
 39 67  2  0  0  0
 40 52  1  0  0  0
 40 53  2  0  0  0
 40 58  1  0  0  0
 41110  1  0  0  0
 41111  1  0  0  0
 41112  1  0  0  0
 41 48  1  0  0  0
 42 43  1  0  0  0
 42 66  1  0  0  0
 42113  1  0  0  0
 42114  1  0  0  0
 43 44  1  0  0  0
 44115  1  0  0  0
 45 46  2  0  0  0
 45116  1  0  0  0
 46117  1  0  0  0
 47118  1  0  0  0
 47119  1  0  0  0
 48 56  1  0  0  0
 48 65  1  0  0  0
 48120  1  0  0  0
 49 50  1  0  0  0
 49 53  1  0  0  0
 49 64  1  0  0  0
 49121  1  0  0  0
 50 51  1  0  0  0
 50122  1  0  0  0
 50123  1  0  0  0
 51 52  1  0  0  0
 51124  1  0  0  0
 51125  1  0  0  0
 52126  1  0  0  0
 52127  1  0  0  0
 53 54  1  0  0  0
 54 55  2  0  0  0
 54128  1  0  0  0
 55 57  1  0  0  0
 55129  1  0  0  0
 56 69  2  0  0  0
 57 58  2  0  0  0
 57130  1  0  0  0
 58131  1  0  0  0
 59 60  1  0  0  0
 59 61  1  0  0  0
 59 62  1  0  0  0
 60132  1  0  0  0
 60133  1  0  0  0
 60134  1  0  0  0
 61135  1  0  0  0
 61136  1  0  0  0
 61137  1  0  0  0
 62138  1  0  0  0
 62139  1  0  0  0
 62140  1  0  0  0
 63 65  1  0  0  0
 63141  1  0  0  0
 63142  1  0  0  0
 63143  1  0  0  0
 64144  1  0  0  0
 65145  1  0  0  0
 68 82  1  0  0  0
 71 72  2  0  0  0
 71 74  1  0  0  0
 71146  1  0  0  0
 72 75  1  0  0  0
 72147  1  0  0  0
 73 74  2  0  0  0
 73 83  1  0  0  0
 73148  1  0  0  0
 74 84  1  0  0  0
 75 79  1  0  0  0
 75 83  2  0  0  0
 76 80  1  0  0  0
 76 84  1  0  0  0
 76 86  2  0  0  0
 77149  1  0  0  0
 77150  1  0  0  0
 77151  1  0  0  0
 77 82  1  0  0  0
 78 85  1  0  0  0
 78152  1  0  0  0
 78153  1  0  0  0
 78154  1  0  0  0
 79 85  1  0  0  0
 79155  1  0  0  0
 79156  1  0  0  0
 80 81  1  0  0  0
 80157  1  0  0  0
 80158  1  0  0  0
 81 82  1  0  0  0
 81159  1  0  0  0
 81160  1  0  0  0
 82161  1  0  0  0
 84162  1  0  0  0
M  ISO  4   1 100  68 101  82 101  85 100
M  END
> <chiral flag>
0

> <version>
0

> <s_m_source_file>
/data/baiqing/PycharmProjects/Reinvent-master-3.2/result/LINK_invent/BTK/process_docking_weight1_custom_product_contain_oxygen_bond_distance_aromatic_linkinvent_7_9_3/rearranged_h_0194.sdf

> <i_m_source_file_index>
54

> <r_mmod_Potential_Energy-OPLS-2005>
-232.655364990234

> <r_mmod_Stretch_Energy-OPLS-2005>
35.3258895874023

> <r_mmod_Bend_Energy-OPLS-2005>
114.87181854248

> <r_mmod_Torsional_Energy-OPLS-2005>
269.100311279297

> <r_mmod_Improper_Torsional_Energy-OPLS-2005>
7.15364551544189

> <r_mmod_Van_der_Waal_Energy-OPLS-2005>
168.717819213867

> <r_mmod_Electrostatic_Energy-OPLS-2005>
-612.320434570312

> <r_mmod_Solvation_Energy-OPLS-2005>
-224.216857910156

> <b_mmod_Minimization_Converged-OPLS-2005>
0

> <r_mmod_RMS_Derivative-OPLS-2005>
2.77213549613953

$$$$
54
                    3D
 Structure written by MMmdl.
157165  0  0  1  0            999 V2000
  -30.6327  -14.5705   20.5661 C   0  0  0  0  0  0
  -30.4484  -12.3657   19.4269 C   0  0  0  0  0  0
  -29.5068  -12.5179   18.2113 C   0  0  0  0  0  0
  -28.0275  -12.3593   18.6228 C   0  0  0  0  0  0
  -27.6618  -13.2036   19.8724 C   0  0  2  0  0  0
  -28.7079  -12.9900   20.9904 C   0  0  0  0  0  0
  -25.2600  -13.8142   20.5670 C   0  0  0  0  0  0
  -24.1849  -13.0429   20.9183 C   0  0  0  0  0  0
  -24.6401  -11.6895   20.8737 C   0  0  0  0  0  0
  -23.9059  -10.4286   21.0401 C   0  0  0  0  0  0
  -24.3615   -9.4204   21.9176 C   0  0  0  0  0  0
  -23.6290   -8.2241   22.0746 C   0  0  0  0  0  0
  -22.4270   -8.0283   21.3542 C   0  0  0  0  0  0
  -21.9904   -9.0255   20.4642 C   0  0  0  0  0  0
  -22.7232  -10.2132   20.3050 C   0  0  0  0  0  0
  -21.6851   -6.0734   22.5281 C   0  0  0  0  0  0
  -21.4016   -6.5636   23.8216 C   0  0  0  0  0  0
  -21.3662   -5.6784   24.9176 C   0  0  0  0  0  0
  -21.6047   -4.3047   24.7225 C   0  0  0  0  0  0
  -21.8819   -3.8142   23.4343 C   0  0  0  0  0  0
  -21.9195   -4.6962   22.3401 C   0  0  0  0  0  0
  -22.7873  -13.5237   21.1849 C   0  0  0  0  0  0
  -22.1661   -4.2150   21.0977 F   0  0  0  0  0  0
  -21.5631   -3.4531   25.7735 F   0  0  0  0  0  0
  -30.0302  -13.3480   20.4409 N   0  0  0  0  0  0
  -26.3029  -12.9299   20.3344 N   0  0  0  0  0  0
  -25.9331  -11.6468   20.5760 N   0  0  0  0  0  0
  -22.0506  -12.8239   22.0404 N   0  0  0  0  0  0
  -25.4335  -15.1861   20.4060 N   0  0  0  0  0  0
  -31.7669  -14.7966   20.1287 O   0  0  0  0  0  0
  -21.6638   -6.8879   21.4242 O   0  0  0  0  0  0
  -22.3565  -14.5545   20.6693 O   0  0  0  0  0  0
  -24.6232  -31.8633   23.2066 C   0  0  0  0  0  0
  -25.9098  -32.4795   23.8374 C   0  0  1  0  0  0
  -27.2269  -27.3622   20.1013 C   0  0  0  0  0  0
  -25.5926  -33.8596   24.2305 N   0  0  0  0  0  0
  -23.4133  -30.4908   21.5492 C   0  0  2  0  0  0
  -24.8574  -28.9533   20.1141 C   0  0  0  0  0  0
  -22.7449  -29.4658   22.4956 C   0  0  0  0  0  0
  -18.0282  -28.1391   22.8484 C   0  0  0  0  0  0
  -24.1487  -36.7310   23.2636 C   0  0  0  0  0  0
  -25.9521  -30.8087   21.3703 C   0  0  0  0  0  0
  -26.0268  -29.4408   20.7101 C   0  0  0  0  0  0
  -27.2157  -28.6580   20.6922 C   0  0  0  0  0  0
  -26.0275  -26.9174   19.4924 C   0  0  0  0  0  0
  -24.8571  -27.6942   19.4992 C   0  0  0  0  0  0
  -23.6244  -29.8292   20.1632 C   0  0  0  0  0  0
  -25.4110  -36.3098   24.0331 C   0  0  1  0  0  0
  -20.5878  -28.3697   23.1288 C   0  0  2  0  0  0
  -20.6773  -26.9424   22.5409 C   0  0  0  0  0  0
  -19.5750  -26.6388   21.5212 C   0  0  0  0  0  0
  -18.1929  -26.7932   22.1623 C   0  0  0  0  0  0
  -19.1532  -28.8858   23.2882 C   0  0  0  0  0  0
  -18.9459  -30.1461   23.8897 C   0  0  0  0  0  0
  -17.6460  -30.6592   24.0569 C   0  0  0  0  0  0
  -25.9046  -34.9465   23.5118 C   0  0  0  0  0  0
  -16.5350  -29.9096   23.6328 C   0  0  0  0  0  0
  -16.7268  -28.6515   23.0342 C   0  0  0  0  0  0
  -26.4486  -31.6587   25.0728 C   0  0  0  0  0  0
  -25.3735  -31.3726   26.1467 C   0  0  0  0  0  0
  -27.0323  -30.3009   24.6168 C   0  0  0  0  0  0
  -27.6042  -32.4319   25.7507 C   0  0  0  0  0  0
  -27.5581  -37.1812   24.8462 C   0  0  0  0  0  0
  -21.4169  -29.3057   22.3687 N   0  0  0  0  0  0
  -26.4293  -37.3786   23.9408 N   0  0  0  0  0  0
  -24.6818  -31.0686   22.0998 N   0  0  0  0  0  0
  -23.4190  -28.8197   23.3018 O   0  0  0  0  0  0
  -28.3635  -26.5464   20.1327 O   0  0  0  0  0  0
  -26.5609  -34.8924   22.4682 O   0  0  0  0  0  0
  -23.5405  -32.1418   23.7419 O   0  0  0  0  0  0
  -30.2006  -19.2193   21.2316 C   0  0  0  0  0  0
  -29.6471  -19.1241   22.4948 C   0  0  0  0  0  0
  -29.9635  -16.9093   21.4241 C   0  0  0  0  0  0
  -28.9121  -22.6047   20.5695 C   0  0  0  0  0  0
  -29.3360  -24.1063   20.2935 C   0  0  0  0  0  0
  -29.6383  -21.4228   19.8156 C   0  0  0  0  0  0
  -28.1290  -25.0990   20.1182 C   0  0  0  0  0  0
  -30.6976  -20.5254   20.5720 C   0  0  2  0  0  0
  -30.3646  -17.9303   20.6272 N   0  0  0  0  0  0
  -29.3537  -20.1284   23.4144 N   0  0  0  0  0  0
  -29.8129  -15.5237   21.0731 N   0  0  0  0  0  0
  -31.8054  -20.1682   19.6740 N   0  3  0  0  0  0
  -29.3030  -17.4743   22.9504 S   0  0  0  0  0  0
  -31.4867  -12.5076   19.1220 H   0  0  0  0  0  0
  -30.3910  -11.3550   19.8344 H   0  0  0  0  0  0
  -29.7613  -11.7854   17.4446 H   0  0  0  0  0  0
  -29.6554  -13.4986   17.7560 H   0  0  0  0  0  0
  -27.8494  -11.3028   18.8268 H   0  0  0  0  0  0
  -27.3745  -12.6193   17.7885 H   0  0  0  0  0  0
  -27.6987  -14.2492   19.5672 H   0  0  0  0  0  0
  -28.7123  -11.9452   21.3051 H   0  0  0  0  0  0
  -28.4525  -13.5563   21.8872 H   0  0  0  0  0  0
  -25.2764   -9.5683   22.4743 H   0  0  0  0  0  0
  -24.0010   -7.4626   22.7456 H   0  0  0  0  0  0
  -21.0838   -8.8772   19.8940 H   0  0  0  0  0  0
  -22.3695  -10.9672   19.6158 H   0  0  0  0  0  0
  -21.2004   -7.6142   23.9722 H   0  0  0  0  0  0
  -21.1487   -6.0509   25.9078 H   0  0  0  0  0  0
  -22.0598   -2.7606   23.2841 H   0  0  0  0  0  0
  -22.4109  -11.9911   22.4824 H   0  0  0  0  0  0
  -21.1123  -13.1266   22.2589 H   0  0  0  0  0  0
  -24.6630  -15.8385   20.5027 H   0  0  0  0  0  0
  -26.2775  -15.6218   20.0561 H   0  0  0  0  0  0
  -26.7169  -32.5470   23.1127 H   0  0  0  0  0  0
  -25.0064  -33.9738   25.0442 H   0  0  0  0  0  0
  -22.7067  -31.3113   21.4099 H   0  0  0  0  0  0
  -23.3740  -35.9650   23.3296 H   0  0  0  0  0  0
  -24.3578  -36.8931   22.2050 H   0  0  0  0  0  0
  -23.7248  -37.6518   23.6655 H   0  0  0  0  0  0
  -26.0773  -31.5759   20.6045 H   0  0  0  0  0  0
  -26.8350  -30.8545   21.9964 H   0  0  0  0  0  0
  -28.1156  -29.0321   21.1596 H   0  0  0  0  0  0
  -25.9533  -25.9593   19.0040 H   0  0  0  0  0  0
  -23.9593  -27.3128   19.0324 H   0  0  0  0  0  0
  -23.7416  -30.6071   19.4078 H   0  0  0  0  0  0
  -22.7444  -29.2585   19.8607 H   0  0  0  0  0  0
  -25.1287  -36.1952   25.0822 H   0  0  0  0  0  0
  -20.9968  -28.3265   24.1408 H   0  0  0  0  0  0
  -20.5680  -26.2307   23.3607 H   0  0  0  0  0  0
  -21.6646  -26.7460   22.1204 H   0  0  0  0  0  0
  -19.6915  -25.6294   21.1251 H   0  0  0  0  0  0
  -19.6688  -27.3189   20.6737 H   0  0  0  0  0  0
  -17.4200  -26.6678   21.4021 H   0  0  0  0  0  0
  -18.0332  -26.0074   22.9021 H   0  0  0  0  0  0
  -19.7936  -30.7283   24.2256 H   0  0  0  0  0  0
  -17.5017  -31.6269   24.5181 H   0  0  0  0  0  0
  -15.5353  -30.3007   23.7651 H   0  0  0  0  0  0
  -15.8665  -28.0847   22.7045 H   0  0  0  0  0  0
  -24.5896  -30.7083   25.7809 H   0  0  0  0  0  0
  -24.8943  -32.2899   26.4901 H   0  0  0  0  0  0
  -25.8072  -30.8900   27.0237 H   0  0  0  0  0  0
  -26.2896  -29.6769   24.1178 H   0  0  0  0  0  0
  -27.4004  -29.7248   25.4670 H   0  0  0  0  0  0
  -27.8773  -30.4285   23.9398 H   0  0  0  0  0  0
  -27.2631  -33.3597   26.2111 H   0  0  0  0  0  0
  -28.3844  -32.6917   25.0342 H   0  0  0  0  0  0
  -28.0722  -31.8435   26.5408 H   0  0  0  0  0  0
  -28.2597  -38.0109   24.7508 H   0  0  0  0  0  0
  -28.1080  -36.2643   24.6286 H   0  0  0  0  0  0
  -27.2305  -37.1462   25.8867 H   0  0  0  0  0  0
  -20.9339  -29.8781   21.6905 H   0  0  0  0  0  0
  -26.0175  -38.2863   24.1403 H   0  0  0  0  0  0
  -27.8615  -22.5245   20.2871 H   0  0  0  0  0  0
  -28.9098  -22.4182   21.6436 H   0  0  0  0  0  0
  -29.9574  -24.1646   19.3996 H   0  0  0  0  0  0
  -29.9678  -24.4476   21.1138 H   0  0  0  0  0  0
  -30.1066  -21.8644   18.9360 H   0  0  0  0  0  0
  -28.8847  -20.7528   19.3994 H   0  0  0  0  0  0
  -27.3940  -24.8761   20.8944 H   0  0  0  0  0  0
  -27.6772  -24.8228   19.1665 H   0  0  0  0  0  0
  -31.1478  -21.1519   21.3436 H   0  0  0  0  0  0
  -29.4941  -21.1237   23.2704 H   0  0  0  0  0  0
  -28.9077  -19.9369   24.3073 H   0  0  0  0  0  0
  -28.9618  -15.1170   21.4253 H   0  0  0  0  0  0
  -31.4690  -19.5383   18.9690 H   0  0  0  0  0  0
  -32.5100  -19.6871   20.2022 H   0  0  0  0  0  0
  -32.2114  -20.9810   19.2500 H   0  0  0  0  0  0
  1 25  1  0  0  0
  1 30  2  0  0  0
  1 81  1  0  0  0
  2  3  1  0  0  0
  2 25  1  0  0  0
  2 84  1  0  0  0
  2 85  1  0  0  0
  3  4  1  0  0  0
  3 86  1  0  0  0
  3 87  1  0  0  0
  4  5  1  0  0  0
  4 88  1  0  0  0
  4 89  1  0  0  0
  5  6  1  0  0  0
  5 26  1  0  0  0
  5 90  1  0  0  0
  6 25  1  0  0  0
  6 91  1  0  0  0
  6 92  1  0  0  0
  7  8  2  0  0  0
  7 26  1  0  0  0
  7 29  1  0  0  0
  8  9  1  0  0  0
  8 22  1  0  0  0
  9 10  1  0  0  0
  9 27  2  0  0  0
 10 11  2  0  0  0
 10 15  1  0  0  0
 11 12  1  0  0  0
 11 93  1  0  0  0
 12 13  2  0  0  0
 12 94  1  0  0  0
 13 14  1  0  0  0
 13 31  1  0  0  0
 14 15  2  0  0  0
 14 95  1  0  0  0
 15 96  1  0  0  0
 16 17  2  0  0  0
 16 21  1  0  0  0
 16 31  1  0  0  0
 17 18  1  0  0  0
 17 97  1  0  0  0
 18 19  2  0  0  0
 18 98  1  0  0  0
 19 20  1  0  0  0
 19 24  1  0  0  0
 20 21  2  0  0  0
 20 99  1  0  0  0
 21 23  1  0  0  0
 22 28  1  0  0  0
 22 32  2  0  0  0
 26 27  1  0  0  0
 28100  1  0  0  0
 28101  1  0  0  0
 29102  1  0  0  0
 29103  1  0  0  0
 33 34  1  0  0  0
 33 66  1  0  0  0
 33 70  2  0  0  0
 34 36  1  0  0  0
 34 59  1  0  0  0
 34104  1  0  0  0
 35 44  2  0  0  0
 35 45  1  0  0  0
 35 68  1  0  0  0
 36 56  1  0  0  0
 36105  1  0  0  0
 37 39  1  0  0  0
 37 47  1  0  0  0
 37 66  1  0  0  0
 37106  1  0  0  0
 38 43  2  0  0  0
 38 46  1  0  0  0
 38 47  1  0  0  0
 39 64  1  0  0  0
 39 67  2  0  0  0
 40 52  1  0  0  0
 40 53  2  0  0  0
 40 58  1  0  0  0
 41107  1  0  0  0
 41108  1  0  0  0
 41109  1  0  0  0
 41 48  1  0  0  0
 42 43  1  0  0  0
 42 66  1  0  0  0
 42110  1  0  0  0
 42111  1  0  0  0
 43 44  1  0  0  0
 44112  1  0  0  0
 45 46  2  0  0  0
 45113  1  0  0  0
 46114  1  0  0  0
 47115  1  0  0  0
 47116  1  0  0  0
 48 56  1  0  0  0
 48 65  1  0  0  0
 48117  1  0  0  0
 49 50  1  0  0  0
 49 53  1  0  0  0
 49 64  1  0  0  0
 49118  1  0  0  0
 50 51  1  0  0  0
 50119  1  0  0  0
 50120  1  0  0  0
 51 52  1  0  0  0
 51121  1  0  0  0
 51122  1  0  0  0
 52123  1  0  0  0
 52124  1  0  0  0
 53 54  1  0  0  0
 54 55  2  0  0  0
 54125  1  0  0  0
 55 57  1  0  0  0
 55126  1  0  0  0
 56 69  2  0  0  0
 57 58  2  0  0  0
 57127  1  0  0  0
 58128  1  0  0  0
 59 60  1  0  0  0
 59 61  1  0  0  0
 59 62  1  0  0  0
 60129  1  0  0  0
 60130  1  0  0  0
 60131  1  0  0  0
 61132  1  0  0  0
 61133  1  0  0  0
 61134  1  0  0  0
 62135  1  0  0  0
 62136  1  0  0  0
 62137  1  0  0  0
 63 65  1  0  0  0
 63138  1  0  0  0
 63139  1  0  0  0
 63140  1  0  0  0
 64141  1  0  0  0
 65142  1  0  0  0
 68 77  1  0  0  0
 71 72  2  0  0  0
 71 78  1  0  0  0
 71 79  1  0  0  0
 72 80  1  0  0  0
 72 83  1  0  0  0
 73 79  2  0  0  0
 73 81  1  0  0  0
 73 83  1  0  0  0
 74 75  1  0  0  0
 74 76  1  0  0  0
 74143  1  0  0  0
 74144  1  0  0  0
 75 77  1  0  0  0
 75145  1  0  0  0
 75146  1  0  0  0
 76 78  1  0  0  0
 76147  1  0  0  0
 76148  1  0  0  0
 77149  1  0  0  0
 77150  1  0  0  0
 78 82  1  0  0  0
 78151  1  0  0  0
 80152  1  0  0  0
 80153  1  0  0  0
 81154  1  0  0  0
 82155  1  0  0  0
 82156  1  0  0  0
 82157  1  0  0  0
M  CHG  1  82   1
M  ISO  4   1 100  68 101  77 101  81 100
M  END
> <chiral flag>
0

> <version>
0

> <s_m_source_file>
/data/baiqing/PycharmProjects/Reinvent-master-3.2/result/LINK_invent/BTK/process_docking_weight1_custom_product_contain_oxygen_bond_distance_aromatic_linkinvent_7_9_3/rearranged_h_0194.sdf

> <i_m_source_file_index>
55

> <r_mmod_Potential_Energy-OPLS-2005>
-248.666229248047

> <r_mmod_Stretch_Energy-OPLS-2005>
61.0597534179688

> <r_mmod_Bend_Energy-OPLS-2005>
146.358932495117

> <r_mmod_Torsional_Energy-OPLS-2005>
238.679946899414

> <r_mmod_Improper_Torsional_Energy-OPLS-2005>
5.17543077468872

> <r_mmod_Van_der_Waal_Energy-OPLS-2005>
128.787826538086

> <r_mmod_Electrostatic_Energy-OPLS-2005>
-362.988128662109

> <r_mmod_Solvation_Energy-OPLS-2005>
-495.790985107422

> <b_mmod_Minimization_Converged-OPLS-2005>
0

> <r_mmod_RMS_Derivative-OPLS-2005>
1.09154772758484

$$$$
55
                    3D
 Structure written by MMmdl.
170178  0  0  1  0            999 V2000
  -30.7354  -14.3810   20.6564 C   0  0  0  0  0  0
  -30.4285  -12.2889   19.3818 C   0  0  0  0  0  0
  -29.4895  -12.5379   18.1848 C   0  0  0  0  0  0
  -28.0106  -12.3932   18.6012 C   0  0  0  0  0  0
  -27.6715  -13.2000   19.8811 C   0  0  2  0  0  0
  -28.7122  -12.9116   20.9857 C   0  0  0  0  0  0
  -25.2660  -13.8151   20.5709 C   0  0  0  0  0  0
  -24.1882  -13.0438   20.9171 C   0  0  0  0  0  0
  -24.6417  -11.6899   20.8714 C   0  0  0  0  0  0
  -23.9076  -10.4284   21.0380 C   0  0  0  0  0  0
  -24.3629   -9.4211   21.9169 C   0  0  0  0  0  0
  -23.6301   -8.2245   22.0737 C   0  0  0  0  0  0
  -22.4279   -8.0284   21.3532 C   0  0  0  0  0  0
  -21.9920   -9.0257   20.4645 C   0  0  0  0  0  0
  -22.7249  -10.2127   20.3038 C   0  0  0  0  0  0
  -21.6862   -6.0734   22.5284 C   0  0  0  0  0  0
  -21.4009   -6.5641   23.8220 C   0  0  0  0  0  0
  -21.3654   -5.6792   24.9177 C   0  0  0  0  0  0
  -21.6044   -4.3051   24.7228 C   0  0  0  0  0  0
  -21.8817   -3.8144   23.4351 C   0  0  0  0  0  0
  -21.9203   -4.6964   22.3408 C   0  0  0  0  0  0
  -22.7902  -13.5238   21.1845 C   0  0  0  0  0  0
  -22.1669   -4.2151   21.0983 F   0  0  0  0  0  0
  -21.5630   -3.4532   25.7734 F   0  0  0  0  0  0
  -30.0529  -13.2238   20.4516 N   0  0  0  0  0  0
  -26.3086  -12.9312   20.3378 N   0  0  0  0  0  0
  -25.9351  -11.6474   20.5734 N   0  0  0  0  0  0
  -22.0535  -12.8207   22.0389 N   0  0  0  0  0  0
  -25.4456  -15.1866   20.4157 N   0  0  0  0  0  0
  -31.7944  -14.6520   20.0793 O   0  0  0  0  0  0
  -21.6640   -6.8873   21.4238 O   0  0  0  0  0  0
  -22.3593  -14.5549   20.6714 O   0  0  0  0  0  0
  -24.6156  -31.8678   23.2119 C   0  0  0  0  0  0
  -25.9065  -32.4810   23.8375 C   0  0  1  0  0  0
  -27.2262  -27.4327   20.0779 C   0  0  0  0  0  0
  -25.5959  -33.8605   24.2326 N   0  0  0  0  0  0
  -23.4001  -30.4958   21.5546 C   0  0  2  0  0  0
  -24.8405  -28.9633   20.1155 C   0  0  0  0  0  0
  -22.7403  -29.4672   22.5018 C   0  0  0  0  0  0
  -18.0272  -28.1358   22.8497 C   0  0  0  0  0  0
  -24.1496  -36.7302   23.2631 C   0  0  0  0  0  0
  -25.9302  -30.8324   21.3643 C   0  0  0  0  0  0
  -26.0032  -29.4683   20.7075 C   0  0  0  0  0  0
  -27.1975  -28.7128   20.6819 C   0  0  0  0  0  0
  -26.0318  -26.9379   19.4995 C   0  0  0  0  0  0
  -24.8498  -27.6979   19.5111 C   0  0  0  0  0  0
  -23.6022  -29.8288   20.1690 C   0  0  0  0  0  0
  -25.4114  -36.3102   24.0337 C   0  0  1  0  0  0
  -20.5864  -28.3638   23.1341 C   0  0  2  0  0  0
  -20.6775  -26.9382   22.5424 C   0  0  0  0  0  0
  -19.5762  -26.6371   21.5216 C   0  0  0  0  0  0
  -18.1928  -26.7921   22.1600 C   0  0  0  0  0  0
  -19.1513  -28.8814   23.2916 C   0  0  0  0  0  0
  -18.9436  -30.1447   23.8886 C   0  0  0  0  0  0
  -17.6441  -30.6575   24.0553 C   0  0  0  0  0  0
  -25.9038  -34.9468   23.5112 C   0  0  0  0  0  0
  -16.5329  -29.9051   23.6342 C   0  0  0  0  0  0
  -16.7258  -28.6487   23.0342 C   0  0  0  0  0  0
  -26.4509  -31.6560   25.0679 C   0  0  0  0  0  0
  -25.3811  -31.3753   26.1472 C   0  0  0  0  0  0
  -27.0253  -30.2953   24.6065 C   0  0  0  0  0  0
  -27.6127  -32.4247   25.7413 C   0  0  0  0  0  0
  -27.5588  -37.1812   24.8454 C   0  0  0  0  0  0
  -21.4134  -29.3014   22.3745 N   0  0  0  0  0  0
  -26.4294  -37.3784   23.9413 N   0  0  0  0  0  0
  -24.6666  -31.0780   22.1017 N   0  0  0  0  0  0
  -23.4193  -28.8192   23.3023 O   0  0  0  0  0  0
  -28.4239  -26.7413   20.0557 O   0  0  0  0  0  0
  -26.5551  -34.8927   22.4645 O   0  0  0  0  0  0
  -23.5353  -32.1431   23.7529 O   0  0  0  0  0  0
  -31.5128  -18.4750   22.2190 C   0  0  0  0  0  0
  -30.3049  -19.0336   21.8667 C   0  0  0  0  0  0
  -30.3884  -16.5939   21.6503 C   0  0  0  0  0  0
  -32.6851  -26.2021   18.8437 C   0  0  0  0  0  0
  -29.5619  -25.0099   16.8176 C   0  0  0  0  0  0
  -31.8211  -22.9177   21.0720 C   0  0  0  0  0  0
  -29.9327  -20.4844   21.9131 C   0  0  0  0  0  0
  -31.8417  -25.4497   17.8073 C   0  0  0  0  0  0
  -29.9733  -23.3096   19.3542 C   0  0  0  0  0  0
  -28.4307  -25.3328   19.7794 C   0  0  0  0  0  0
  -30.3186  -25.5265   18.0582 C   0  0  2  0  0  0
  -29.8564  -24.8638   19.3922 C   0  0  2  0  0  0
  -30.3509  -22.6284   20.6935 C   0  0  1  0  0  0
  -31.5527  -17.0819   22.0874 N   0  0  0  0  0  0
  -30.1428  -15.2165   21.5184 N   0  0  0  0  0  0
  -30.1287  -21.1623   20.6126 N   0  3  0  0  0  0
  -29.1515  -17.8136   21.3846 S   0  0  0  0  0  0
  -31.4703  -12.4001   19.0738 H   0  0  0  0  0  0
  -30.3347  -11.2604   19.7318 H   0  0  0  0  0  0
  -29.7213  -11.8467   17.3731 H   0  0  0  0  0  0
  -29.6611  -13.5400   17.7889 H   0  0  0  0  0  0
  -27.8094  -11.3343   18.7642 H   0  0  0  0  0  0
  -27.3583  -12.6980   17.7824 H   0  0  0  0  0  0
  -27.7342  -14.2569   19.6225 H   0  0  0  0  0  0
  -28.6799  -11.8566   21.2602 H   0  0  0  0  0  0
  -28.4642  -13.4435   21.9053 H   0  0  0  0  0  0
  -25.2781   -9.5689   22.4740 H   0  0  0  0  0  0
  -24.0029   -7.4628   22.7443 H   0  0  0  0  0  0
  -21.0847   -8.8772   19.8956 H   0  0  0  0  0  0
  -22.3718  -10.9655   19.6127 H   0  0  0  0  0  0
  -21.1985   -7.6146   23.9722 H   0  0  0  0  0  0
  -21.1477   -6.0512   25.9080 H   0  0  0  0  0  0
  -22.0601   -2.7603   23.2844 H   0  0  0  0  0  0
  -22.4115  -11.9850   22.4753 H   0  0  0  0  0  0
  -21.1149  -13.1225   22.2579 H   0  0  0  0  0  0
  -24.6883  -15.8515   20.5246 H   0  0  0  0  0  0
  -26.3132  -15.6157   20.1176 H   0  0  0  0  0  0
  -26.7113  -32.5515   23.1103 H   0  0  0  0  0  0
  -25.0232  -33.9772   25.0560 H   0  0  0  0  0  0
  -22.6896  -31.3135   21.4196 H   0  0  0  0  0  0
  -23.3786  -35.9597   23.3220 H   0  0  0  0  0  0
  -24.3625  -36.8988   22.2062 H   0  0  0  0  0  0
  -23.7199  -37.6465   23.6686 H   0  0  0  0  0  0
  -26.0438  -31.5992   20.5967 H   0  0  0  0  0  0
  -26.8209  -30.8796   21.9794 H   0  0  0  0  0  0
  -28.0982  -29.1098   21.1292 H   0  0  0  0  0  0
  -25.9722  -25.9782   19.0143 H   0  0  0  0  0  0
  -23.9540  -27.3044   19.0497 H   0  0  0  0  0  0
  -23.6993  -30.6021   19.4053 H   0  0  0  0  0  0
  -22.7277  -29.2404   19.8833 H   0  0  0  0  0  0
  -25.1290  -36.1953   25.0826 H   0  0  0  0  0  0
  -20.9954  -28.3178   24.1467 H   0  0  0  0  0  0
  -20.5709  -26.2224   23.3595 H   0  0  0  0  0  0
  -21.6640  -26.7464   22.1186 H   0  0  0  0  0  0
  -19.6924  -25.6289   21.1232 H   0  0  0  0  0  0
  -19.6731  -27.3192   20.6768 H   0  0  0  0  0  0
  -17.4235  -26.6727   21.3952 H   0  0  0  0  0  0
  -18.0275  -26.0033   22.8941 H   0  0  0  0  0  0
  -19.7903  -30.7281   24.2215 H   0  0  0  0  0  0
  -17.4978  -31.6252   24.5143 H   0  0  0  0  0  0
  -15.5322  -30.2928   23.7701 H   0  0  0  0  0  0
  -15.8658  -28.0815   22.7023 H   0  0  0  0  0  0
  -24.5852  -30.7238   25.7839 H   0  0  0  0  0  0
  -24.9169  -32.2961   26.5007 H   0  0  0  0  0  0
  -25.8156  -30.8810   27.0164 H   0  0  0  0  0  0
  -26.2711  -29.6713   24.1238 H   0  0  0  0  0  0
  -27.4087  -29.7211   25.4508 H   0  0  0  0  0  0
  -27.8561  -30.4163   23.9113 H   0  0  0  0  0  0
  -27.2828  -33.3646   26.1847 H   0  0  0  0  0  0
  -28.4018  -32.6615   25.0262 H   0  0  0  0  0  0
  -28.0660  -31.8408   26.5431 H   0  0  0  0  0  0
  -28.2608  -38.0106   24.7483 H   0  0  0  0  0  0
  -28.1088  -36.2639   24.6280 H   0  0  0  0  0  0
  -27.2325  -37.1451   25.8864 H   0  0  0  0  0  0
  -20.9267  -29.8722   21.6972 H   0  0  0  0  0  0
  -26.0186  -38.2871   24.1383 H   0  0  0  0  0  0
  -32.3903  -18.9956   22.5817 H   0  0  0  0  0  0
  -33.7151  -26.3056   18.5012 H   0  0  0  0  0  0
  -32.7132  -25.6785   19.7972 H   0  0  0  0  0  0
  -32.2913  -27.2029   19.0209 H   0  0  0  0  0  0
  -29.8341  -25.5886   15.9340 H   0  0  0  0  0  0
  -28.4809  -25.0992   16.9175 H   0  0  0  0  0  0
  -29.7869  -23.9635   16.6072 H   0  0  0  0  0  0
  -32.0071  -23.9817   21.2000 H   0  0  0  0  0  0
  -32.5085  -22.5619   20.3036 H   0  0  0  0  0  0
  -32.1114  -22.4444   22.0101 H   0  0  0  0  0  0
  -30.5223  -20.9696   22.6906 H   0  0  0  0  0  0
  -28.8912  -20.5958   22.2166 H   0  0  0  0  0  0
  -32.1829  -24.4158   17.7349 H   0  0  0  0  0  0
  -32.0513  -25.8921   16.8321 H   0  0  0  0  0  0
  -30.7136  -23.0047   18.6146 H   0  0  0  0  0  0
  -29.0303  -22.9055   18.9838 H   0  0  0  0  0  0
  -28.0799  -24.8082   20.6688 H   0  0  0  0  0  0
  -27.7644  -25.0474   18.9708 H   0  0  0  0  0  0
  -30.0833  -26.5880   18.1357 H   0  0  0  0  0  0
  -30.5014  -25.2395   20.1840 H   0  0  0  0  0  0
  -29.6962  -23.0228   21.4730 H   0  0  0  0  0  0
  -29.2522  -14.8936   21.8591 H   0  0  0  0  0  0
  -29.3055  -20.9829   20.0599 H   0  0  0  0  0  0
  -30.9076  -20.7418   20.1312 H   0  0  0  0  0  0
  1 25  1  0  0  0
  1 30  2  0  0  0
  1 85  1  0  0  0
  2  3  1  0  0  0
  2 25  1  0  0  0
  2 88  1  0  0  0
  2 89  1  0  0  0
  3  4  1  0  0  0
  3 90  1  0  0  0
  3 91  1  0  0  0
  4  5  1  0  0  0
  4 92  1  0  0  0
  4 93  1  0  0  0
  5  6  1  0  0  0
  5 26  1  0  0  0
  5 94  1  0  0  0
  6 25  1  0  0  0
  6 95  1  0  0  0
  6 96  1  0  0  0
  7  8  2  0  0  0
  7 26  1  0  0  0
  7 29  1  0  0  0
  8  9  1  0  0  0
  8 22  1  0  0  0
  9 10  1  0  0  0
  9 27  2  0  0  0
 10 11  2  0  0  0
 10 15  1  0  0  0
 11 12  1  0  0  0
 11 97  1  0  0  0
 12 13  2  0  0  0
 12 98  1  0  0  0
 13 14  1  0  0  0
 13 31  1  0  0  0
 14 15  2  0  0  0
 14 99  1  0  0  0
 15100  1  0  0  0
 16 17  2  0  0  0
 16 21  1  0  0  0
 16 31  1  0  0  0
 17 18  1  0  0  0
 17101  1  0  0  0
 18 19  2  0  0  0
 18102  1  0  0  0
 19 20  1  0  0  0
 19 24  1  0  0  0
 20 21  2  0  0  0
 20103  1  0  0  0
 21 23  1  0  0  0
 22 28  1  0  0  0
 22 32  2  0  0  0
 26 27  1  0  0  0
 28104  1  0  0  0
 28105  1  0  0  0
 29106  1  0  0  0
 29107  1  0  0  0
 33 34  1  0  0  0
 33 66  1  0  0  0
 33 70  2  0  0  0
 34 36  1  0  0  0
 34 59  1  0  0  0
 34108  1  0  0  0
 35 44  2  0  0  0
 35 45  1  0  0  0
 35 68  1  0  0  0
 36 56  1  0  0  0
 36109  1  0  0  0
 37 39  1  0  0  0
 37 47  1  0  0  0
 37 66  1  0  0  0
 37110  1  0  0  0
 38 43  2  0  0  0
 38 46  1  0  0  0
 38 47  1  0  0  0
 39 64  1  0  0  0
 39 67  2  0  0  0
 40 52  1  0  0  0
 40 53  2  0  0  0
 40 58  1  0  0  0
 41111  1  0  0  0
 41112  1  0  0  0
 41113  1  0  0  0
 41 48  1  0  0  0
 42 43  1  0  0  0
 42 66  1  0  0  0
 42114  1  0  0  0
 42115  1  0  0  0
 43 44  1  0  0  0
 44116  1  0  0  0
 45 46  2  0  0  0
 45117  1  0  0  0
 46118  1  0  0  0
 47119  1  0  0  0
 47120  1  0  0  0
 48 56  1  0  0  0
 48 65  1  0  0  0
 48121  1  0  0  0
 49 50  1  0  0  0
 49 53  1  0  0  0
 49 64  1  0  0  0
 49122  1  0  0  0
 50 51  1  0  0  0
 50123  1  0  0  0
 50124  1  0  0  0
 51 52  1  0  0  0
 51125  1  0  0  0
 51126  1  0  0  0
 52127  1  0  0  0
 52128  1  0  0  0
 53 54  1  0  0  0
 54 55  2  0  0  0
 54129  1  0  0  0
 55 57  1  0  0  0
 55130  1  0  0  0
 56 69  2  0  0  0
 57 58  2  0  0  0
 57131  1  0  0  0
 58132  1  0  0  0
 59 60  1  0  0  0
 59 61  1  0  0  0
 59 62  1  0  0  0
 60133  1  0  0  0
 60134  1  0  0  0
 60135  1  0  0  0
 61136  1  0  0  0
 61137  1  0  0  0
 61138  1  0  0  0
 62139  1  0  0  0
 62140  1  0  0  0
 62141  1  0  0  0
 63 65  1  0  0  0
 63142  1  0  0  0
 63143  1  0  0  0
 63144  1  0  0  0
 64145  1  0  0  0
 65146  1  0  0  0
 68 80  1  0  0  0
 71 72  2  0  0  0
 71 84  1  0  0  0
 71147  1  0  0  0
 72 77  1  0  0  0
 72 87  1  0  0  0
 73 84  2  0  0  0
 73 85  1  0  0  0
 73 87  1  0  0  0
 74 78  1  0  0  0
 74148  1  0  0  0
 74149  1  0  0  0
 74150  1  0  0  0
 75151  1  0  0  0
 75152  1  0  0  0
 75153  1  0  0  0
 75 81  1  0  0  0
 76154  1  0  0  0
 76155  1  0  0  0
 76156  1  0  0  0
 76 83  1  0  0  0
 77 86  1  0  0  0
 77157  1  0  0  0
 77158  1  0  0  0
 78 81  1  0  0  0
 78159  1  0  0  0
 78160  1  0  0  0
 79 83  1  0  0  0
 79161  1  0  0  0
 79162  1  0  0  0
 79 82  1  0  0  0
 80 82  1  0  0  0
 80163  1  0  0  0
 80164  1  0  0  0
 81 82  1  0  0  0
 81165  1  0  0  0
 82166  1  0  0  0
 83 86  1  0  0  0
 83167  1  0  0  0
 85168  1  0  0  0
 86169  1  0  0  0
 86170  1  0  0  0
M  CHG  1  86   1
M  ISO  4   1 100  68 101  80 101  85 100
M  END
> <chiral flag>
0

> <version>
0

> <s_m_source_file>
/data/baiqing/PycharmProjects/Reinvent-master-3.2/result/LINK_invent/BTK/process_docking_weight1_custom_product_contain_oxygen_bond_distance_aromatic_linkinvent_7_9_3/rearranged_h_0194.sdf

> <i_m_source_file_index>
56

> <r_mmod_Potential_Energy-OPLS-2005>
-260.922393798828

> <r_mmod_Stretch_Energy-OPLS-2005>
35.4589157104492

> <r_mmod_Bend_Energy-OPLS-2005>
105.235130310059

> <r_mmod_Torsional_Energy-OPLS-2005>
240.315399169922

> <r_mmod_Improper_Torsional_Energy-OPLS-2005>
3.31382632255554

> <r_mmod_Van_der_Waal_Energy-OPLS-2005>
134.868637084961

> <r_mmod_Electrostatic_Energy-OPLS-2005>
-308.568634033203

> <r_mmod_Solvation_Energy-OPLS-2005>
-480.31103515625

> <b_mmod_Minimization_Converged-OPLS-2005>
0

> <r_mmod_RMS_Derivative-OPLS-2005>
3.13862347602844

$$$$
56
                    3D
 Structure written by MMmdl.
154162  0  0  1  0            999 V2000
  -30.6180  -14.7860   20.4368 C   0  0  0  0  0  0
  -30.4232  -12.4740   19.4964 C   0  0  0  0  0  0
  -29.5093  -12.5056   18.2521 C   0  0  0  0  0  0
  -28.0440  -12.2964   18.6715 C   0  0  0  0  0  0
  -27.6351  -13.2317   19.8391 C   0  0  2  0  0  0
  -28.6735  -13.2258   20.9818 C   0  0  0  0  0  0
  -25.2558  -13.8210   20.5734 C   0  0  0  0  0  0
  -24.1838  -13.0484   20.9194 C   0  0  0  0  0  0
  -24.6399  -11.6949   20.8781 C   0  0  0  0  0  0
  -23.9064  -10.4315   21.0426 C   0  0  0  0  0  0
  -24.3598   -9.4216   21.9198 C   0  0  0  0  0  0
  -23.6271   -8.2262   22.0741 C   0  0  0  0  0  0
  -22.4244   -8.0292   21.3557 C   0  0  0  0  0  0
  -21.9904   -9.0268   20.4656 C   0  0  0  0  0  0
  -22.7238  -10.2146   20.3076 C   0  0  0  0  0  0
  -21.6840   -6.0752   22.5312 C   0  0  0  0  0  0
  -21.4029   -6.5668   23.8244 C   0  0  0  0  0  0
  -21.3666   -5.6822   24.9199 C   0  0  0  0  0  0
  -21.6012   -4.3085   24.7258 C   0  0  0  0  0  0
  -21.8819   -3.8170   23.4393 C   0  0  0  0  0  0
  -21.9198   -4.6983   22.3436 C   0  0  0  0  0  0
  -22.7865  -13.5272   21.1863 C   0  0  0  0  0  0
  -22.1660   -4.2184   21.1010 F   0  0  0  0  0  0
  -21.5574   -3.4549   25.7762 F   0  0  0  0  0  0
  -29.9800  -13.5612   20.4008 N   0  0  0  0  0  0
  -26.2938  -12.9418   20.3265 N   0  0  0  0  0  0
  -25.9325  -11.6561   20.5767 N   0  0  0  0  0  0
  -22.0492  -12.8265   22.0404 N   0  0  0  0  0  0
  -25.4382  -15.1913   20.4191 N   0  0  0  0  0  0
  -31.8076  -14.8578   20.1237 O   0  0  0  0  0  0
  -21.6614   -6.8886   21.4256 O   0  0  0  0  0  0
  -22.3577  -14.5582   20.6691 O   0  0  0  0  0  0
  -24.6361  -31.8511   23.1937 C   0  0  0  0  0  0
  -25.9177  -32.4725   23.8262 C   0  0  1  0  0  0
  -27.1920  -27.2128   20.1111 C   0  0  0  0  0  0
  -25.5959  -33.8509   24.2186 N   0  0  0  0  0  0
  -23.4329  -30.4739   21.5397 C   0  0  2  0  0  0
  -24.8702  -28.9084   20.1106 C   0  0  0  0  0  0
  -22.7479  -29.4589   22.4884 C   0  0  0  0  0  0
  -18.0257  -28.1423   22.8459 C   0  0  0  0  0  0
  -24.1498  -36.7278   23.2637 C   0  0  0  0  0  0
  -25.9845  -30.7425   21.3841 C   0  0  0  0  0  0
  -26.0480  -29.3615   20.7209 C   0  0  0  0  0  0
  -27.2168  -28.5257   20.7028 C   0  0  0  0  0  0
  -25.9912  -26.8289   19.4873 C   0  0  0  0  0  0
  -24.8466  -27.6515   19.4856 C   0  0  0  0  0  0
  -23.6516  -29.8120   20.1545 C   0  0  0  0  0  0
  -25.4134  -36.3042   24.0301 C   0  0  1  0  0  0
  -20.5852  -28.3744   23.1249 C   0  0  2  0  0  0
  -20.6759  -26.9474   22.5397 C   0  0  0  0  0  0
  -19.5764  -26.6433   21.5197 C   0  0  0  0  0  0
  -18.1938  -26.7958   22.1599 C   0  0  0  0  0  0
  -19.1518  -28.8884   23.2853 C   0  0  0  0  0  0
  -18.9457  -30.1482   23.8896 C   0  0  0  0  0  0
  -17.6453  -30.6617   24.0579 C   0  0  0  0  0  0
  -25.9088  -34.9410   23.5052 C   0  0  0  0  0  0
  -16.5350  -29.9129   23.6307 C   0  0  0  0  0  0
  -16.7240  -28.6518   23.0370 C   0  0  0  0  0  0
  -26.4530  -31.6559   25.0660 C   0  0  0  0  0  0
  -25.3731  -31.3721   26.1367 C   0  0  0  0  0  0
  -27.0389  -30.2952   24.6188 C   0  0  0  0  0  0
  -27.6074  -32.4323   25.7456 C   0  0  0  0  0  0
  -27.5576  -37.1798   24.8458 C   0  0  0  0  0  0
  -21.4168  -29.3096   22.3642 N   0  0  0  0  0  0
  -26.4290  -37.3769   23.9394 N   0  0  0  0  0  0
  -24.7041  -31.0413   22.0953 N   0  0  0  0  0  0
  -23.4140  -28.8123   23.3002 O   0  0  0  0  0  0
  -28.2797  -26.3049   20.0675 O   0  0  0  0  0  0
  -26.5684  -34.8925   22.4626 O   0  0  0  0  0  0
  -23.5501  -32.1357   23.7219 O   0  0  0  0  0  0
  -29.2653  -18.6130   20.5221 C   0  0  0  0  0  0
  -27.2116  -19.2724   21.0309 C   0  0  0  0  0  0
  -28.6405  -20.8493   20.3816 C   0  0  0  0  0  0
  -28.4772  -23.7260   18.2162 C   0  0  0  0  0  0
  -30.3017  -17.4054   20.3869 C   0  0  0  0  0  0
  -28.1573  -24.8716   20.5680 C   0  0  0  0  0  0
  -28.1380  -23.4624   19.7016 C   0  0  2  0  0  0
  -28.0541  -18.2570   20.9328 N   0  0  0  0  0  0
  -29.6219  -19.9113   20.2448 N   0  0  0  0  0  0
  -27.4046  -20.5642   20.7738 N   0  0  0  0  0  0
  -25.9590  -18.9100   21.4261 N   0  0  0  0  0  0
  -28.9561  -22.2497   20.1850 N   0  0  0  0  0  0
  -29.8747  -15.9479   20.6122 N   0  0  0  0  0  0
  -31.4665  -12.5833   19.1974 H   0  0  0  0  0  0
  -30.3544  -11.5081   20.0026 H   0  0  0  0  0  0
  -29.8102  -11.7396   17.5347 H   0  0  0  0  0  0
  -29.6087  -13.4642   17.7409 H   0  0  0  0  0  0
  -27.9334  -11.2542   18.9752 H   0  0  0  0  0  0
  -27.3795  -12.4311   17.8154 H   0  0  0  0  0  0
  -27.6171  -14.2392   19.4200 H   0  0  0  0  0  0
  -28.7035  -12.2577   21.4876 H   0  0  0  0  0  0
  -28.3892  -13.9581   21.7391 H   0  0  0  0  0  0
  -25.2734   -9.5699   22.4788 H   0  0  0  0  0  0
  -24.0008   -7.4652   22.7462 H   0  0  0  0  0  0
  -21.0838   -8.8797   19.8953 H   0  0  0  0  0  0
  -22.3696  -10.9684   19.6201 H   0  0  0  0  0  0
  -21.2027   -7.6181   23.9774 H   0  0  0  0  0  0
  -21.1463   -6.0537   25.9108 H   0  0  0  0  0  0
  -22.0574   -2.7639   23.2892 H   0  0  0  0  0  0
  -22.4088  -11.9877   22.4747 H   0  0  0  0  0  0
  -21.1154  -13.1362   22.2641 H   0  0  0  0  0  0
  -24.6807  -15.8601   20.4878 H   0  0  0  0  0  0
  -26.3117  -15.6144   20.1286 H   0  0  0  0  0  0
  -26.7216  -32.5321   23.0973 H   0  0  0  0  0  0
  -25.0091  -33.9636   25.0315 H   0  0  0  0  0  0
  -22.7335  -31.2995   21.3903 H   0  0  0  0  0  0
  -23.3765  -35.9612   23.3312 H   0  0  0  0  0  0
  -24.3582  -36.8901   22.2052 H   0  0  0  0  0  0
  -23.7272  -37.6467   23.6685 H   0  0  0  0  0  0
  -26.1378  -31.5056   20.6216 H   0  0  0  0  0  0
  -26.8624  -30.7824   22.0186 H   0  0  0  0  0  0
  -28.1284  -28.8627   21.1765 H   0  0  0  0  0  0
  -25.9342  -25.8709   18.9871 H   0  0  0  0  0  0
  -23.9434  -27.3051   19.0015 H   0  0  0  0  0  0
  -23.7961  -30.5947   19.4098 H   0  0  0  0  0  0
  -22.7655  -29.2593   19.8359 H   0  0  0  0  0  0
  -25.1325  -36.1866   25.0796 H   0  0  0  0  0  0
  -20.9911  -28.3378   24.1395 H   0  0  0  0  0  0
  -20.5683  -26.2359   23.3585 H   0  0  0  0  0  0
  -21.6616  -26.7536   22.1159 H   0  0  0  0  0  0
  -19.6967  -25.6342   21.1252 H   0  0  0  0  0  0
  -19.6742  -27.3225   20.6726 H   0  0  0  0  0  0
  -17.4205  -26.6663   21.4023 H   0  0  0  0  0  0
  -18.0403  -26.0102   22.9010 H   0  0  0  0  0  0
  -19.7934  -30.7234   24.2298 H   0  0  0  0  0  0
  -17.5029  -31.6300   24.5175 H   0  0  0  0  0  0
  -15.5364  -30.3036   23.7623 H   0  0  0  0  0  0
  -15.8636  -28.0812   22.7107 H   0  0  0  0  0  0
  -24.5926  -30.7068   25.7660 H   0  0  0  0  0  0
  -24.8917  -32.2897   26.4742 H   0  0  0  0  0  0
  -25.8026  -30.8898   27.0153 H   0  0  0  0  0  0
  -26.2950  -29.6684   24.1257 H   0  0  0  0  0  0
  -27.4078  -29.7231   25.4701 H   0  0  0  0  0  0
  -27.8837  -30.4178   23.9425 H   0  0  0  0  0  0
  -27.2655  -33.3631   26.2009 H   0  0  0  0  0  0
  -28.3920  -32.6890   25.0319 H   0  0  0  0  0  0
  -28.0733  -31.8468   26.5395 H   0  0  0  0  0  0
  -28.2599  -38.0099   24.7512 H   0  0  0  0  0  0
  -28.1079  -36.2612   24.6290 H   0  0  0  0  0  0
  -27.2289  -37.1456   25.8868 H   0  0  0  0  0  0
  -20.9330  -29.8810   21.6852 H   0  0  0  0  0  0
  -26.0153  -38.2826   24.1423 H   0  0  0  0  0  0
  -28.3549  -22.8198   17.6209 H   0  0  0  0  0  0
  -29.5092  -24.0638   18.0866 H   0  0  0  0  0  0
  -27.8287  -24.4841   17.7662 H   0  0  0  0  0  0
  -30.7226  -17.4650   19.3806 H   0  0  0  0  0  0
  -31.1323  -17.6270   21.0626 H   0  0  0  0  0  0
  -29.0130  -24.7809   21.2329 H   0  0  0  0  0  0
  -27.3060  -24.8436   21.2489 H   0  0  0  0  0  0
  -27.0979  -23.1267   19.7078 H   0  0  0  0  0  0
  -25.3551  -19.6380   21.7856 H   0  0  0  0  0  0
  -25.8635  -18.0121   21.8822 H   0  0  0  0  0  0
  -29.9381  -22.3544   19.9683 H   0  0  0  0  0  0
  -28.8987  -15.8543   20.8492 H   0  0  0  0  0  0
  1 25  1  0  0  0
  1 30  2  0  0  0
  1 83  1  0  0  0
  2  3  1  0  0  0
  2 25  1  0  0  0
  2 84  1  0  0  0
  2 85  1  0  0  0
  3  4  1  0  0  0
  3 86  1  0  0  0
  3 87  1  0  0  0
  4  5  1  0  0  0
  4 88  1  0  0  0
  4 89  1  0  0  0
  5  6  1  0  0  0
  5 26  1  0  0  0
  5 90  1  0  0  0
  6 25  1  0  0  0
  6 91  1  0  0  0
  6 92  1  0  0  0
  7  8  2  0  0  0
  7 26  1  0  0  0
  7 29  1  0  0  0
  8  9  1  0  0  0
  8 22  1  0  0  0
  9 10  1  0  0  0
  9 27  2  0  0  0
 10 11  2  0  0  0
 10 15  1  0  0  0
 11 12  1  0  0  0
 11 93  1  0  0  0
 12 13  2  0  0  0
 12 94  1  0  0  0
 13 14  1  0  0  0
 13 31  1  0  0  0
 14 15  2  0  0  0
 14 95  1  0  0  0
 15 96  1  0  0  0
 16 17  2  0  0  0
 16 21  1  0  0  0
 16 31  1  0  0  0
 17 18  1  0  0  0
 17 97  1  0  0  0
 18 19  2  0  0  0
 18 98  1  0  0  0
 19 20  1  0  0  0
 19 24  1  0  0  0
 20 21  2  0  0  0
 20 99  1  0  0  0
 21 23  1  0  0  0
 22 28  1  0  0  0
 22 32  2  0  0  0
 26 27  1  0  0  0
 28100  1  0  0  0
 28101  1  0  0  0
 29102  1  0  0  0
 29103  1  0  0  0
 33 34  1  0  0  0
 33 66  1  0  0  0
 33 70  2  0  0  0
 34 36  1  0  0  0
 34 59  1  0  0  0
 34104  1  0  0  0
 35 44  2  0  0  0
 35 45  1  0  0  0
 35 68  1  0  0  0
 36 56  1  0  0  0
 36105  1  0  0  0
 37 39  1  0  0  0
 37 47  1  0  0  0
 37 66  1  0  0  0
 37106  1  0  0  0
 38 43  2  0  0  0
 38 46  1  0  0  0
 38 47  1  0  0  0
 39 64  1  0  0  0
 39 67  2  0  0  0
 40 52  1  0  0  0
 40 53  2  0  0  0
 40 58  1  0  0  0
 41107  1  0  0  0
 41108  1  0  0  0
 41109  1  0  0  0
 41 48  1  0  0  0
 42 43  1  0  0  0
 42 66  1  0  0  0
 42110  1  0  0  0
 42111  1  0  0  0
 43 44  1  0  0  0
 44112  1  0  0  0
 45 46  2  0  0  0
 45113  1  0  0  0
 46114  1  0  0  0
 47115  1  0  0  0
 47116  1  0  0  0
 48 56  1  0  0  0
 48 65  1  0  0  0
 48117  1  0  0  0
 49 50  1  0  0  0
 49 53  1  0  0  0
 49 64  1  0  0  0
 49118  1  0  0  0
 50 51  1  0  0  0
 50119  1  0  0  0
 50120  1  0  0  0
 51 52  1  0  0  0
 51121  1  0  0  0
 51122  1  0  0  0
 52123  1  0  0  0
 52124  1  0  0  0
 53 54  1  0  0  0
 54 55  2  0  0  0
 54125  1  0  0  0
 55 57  1  0  0  0
 55126  1  0  0  0
 56 69  2  0  0  0
 57 58  2  0  0  0
 57127  1  0  0  0
 58128  1  0  0  0
 59 60  1  0  0  0
 59 61  1  0  0  0
 59 62  1  0  0  0
 60129  1  0  0  0
 60130  1  0  0  0
 60131  1  0  0  0
 61132  1  0  0  0
 61133  1  0  0  0
 61134  1  0  0  0
 62135  1  0  0  0
 62136  1  0  0  0
 62137  1  0  0  0
 63 65  1  0  0  0
 63138  1  0  0  0
 63139  1  0  0  0
 63140  1  0  0  0
 64141  1  0  0  0
 65142  1  0  0  0
 68 76  1  0  0  0
 71 75  1  0  0  0
 71 78  1  0  0  0
 71 79  2  0  0  0
 72 78  2  0  0  0
 72 80  1  0  0  0
 72 81  1  0  0  0
 73 79  1  0  0  0
 73 80  2  0  0  0
 73 82  1  0  0  0
 74143  1  0  0  0
 74144  1  0  0  0
 74145  1  0  0  0
 74 77  1  0  0  0
 75 83  1  0  0  0
 75146  1  0  0  0
 75147  1  0  0  0
 76 77  1  0  0  0
 76148  1  0  0  0
 76149  1  0  0  0
 77 82  1  0  0  0
 77150  1  0  0  0
 81151  1  0  0  0
 81152  1  0  0  0
 82153  1  0  0  0
 83154  1  0  0  0
M  ISO  4   1 100  68 101  76 101  83 100
M  END
> <chiral flag>
0

> <version>
0

> <s_m_source_file>
/data/baiqing/PycharmProjects/Reinvent-master-3.2/result/LINK_invent/BTK/process_docking_weight1_custom_product_contain_oxygen_bond_distance_aromatic_linkinvent_7_9_3/rearranged_h_0194.sdf

> <i_m_source_file_index>
57

> <r_mmod_Potential_Energy-OPLS-2005>
-887.424560546875

> <r_mmod_Stretch_Energy-OPLS-2005>
139.992568969727

> <r_mmod_Bend_Energy-OPLS-2005>
198.147796630859

> <r_mmod_Torsional_Energy-OPLS-2005>
234.474914550781

> <r_mmod_Improper_Torsional_Energy-OPLS-2005>
9.71615505218506

> <r_mmod_Van_der_Waal_Energy-OPLS-2005>
143.857513427734

> <r_mmod_Electrostatic_Energy-OPLS-2005>
-1484.69543457031

> <r_mmod_Solvation_Energy-OPLS-2005>
-239.072204589844

> <b_mmod_Minimization_Converged-OPLS-2005>
0

> <r_mmod_RMS_Derivative-OPLS-2005>
6.60506629943848

$$$$
57
                    3D
 Structure written by MMmdl.
155163  0  0  1  0            999 V2000
  -30.6063  -14.7901   20.4425 C   0  0  0  0  0  0
  -30.4377  -12.4853   19.4714 C   0  0  0  0  0  0
  -29.5135  -12.5106   18.2341 C   0  0  0  0  0  0
  -28.0431  -12.3180   18.6536 C   0  0  0  0  0  0
  -27.6384  -13.2346   19.8397 C   0  0  2  0  0  0
  -28.6862  -13.1964   20.9726 C   0  0  0  0  0  0
  -25.2494  -13.8182   20.5657 C   0  0  0  0  0  0
  -24.1811  -13.0420   20.9238 C   0  0  0  0  0  0
  -24.6427  -11.6900   20.8785 C   0  0  0  0  0  0
  -23.9098  -10.4273   21.0446 C   0  0  0  0  0  0
  -24.3642   -9.4187   21.9230 C   0  0  0  0  0  0
  -23.6304   -8.2221   22.0788 C   0  0  0  0  0  0
  -22.4294   -8.0274   21.3563 C   0  0  0  0  0  0
  -21.9930   -9.0260   20.4678 C   0  0  0  0  0  0
  -22.7266  -10.2132   20.3096 C   0  0  0  0  0  0
  -21.6853   -6.0736   22.5282 C   0  0  0  0  0  0
  -21.4011   -6.5637   23.8219 C   0  0  0  0  0  0
  -21.3658   -5.6791   24.9176 C   0  0  0  0  0  0
  -21.6042   -4.3054   24.7223 C   0  0  0  0  0  0
  -21.8822   -3.8151   23.4346 C   0  0  0  0  0  0
  -21.9185   -4.6968   22.3401 C   0  0  0  0  0  0
  -22.7816  -13.5183   21.1872 C   0  0  0  0  0  0
  -22.1657   -4.2147   21.0984 F   0  0  0  0  0  0
  -21.5630   -3.4542   25.7743 F   0  0  0  0  0  0
  -29.9804  -13.5608   20.3837 N   0  0  0  0  0  0
  -26.2935  -12.9412   20.3232 N   0  0  0  0  0  0
  -25.9356  -11.6552   20.5777 N   0  0  0  0  0  0
  -22.0440  -12.8205   22.0434 N   0  0  0  0  0  0
  -25.4064  -15.1920   20.4017 N   0  0  0  0  0  0
  -31.8047  -14.8706   20.1626 O   0  0  0  0  0  0
  -21.6647   -6.8886   21.4252 O   0  0  0  0  0  0
  -22.3494  -14.5482   20.6700 O   0  0  0  0  0  0
  -24.6325  -31.8529   23.1963 C   0  0  0  0  0  0
  -25.9143  -32.4738   23.8323 C   0  0  1  0  0  0
  -27.2223  -27.2400   20.1284 C   0  0  0  0  0  0
  -25.5928  -33.8540   24.2242 N   0  0  0  0  0  0
  -23.4308  -30.4742   21.5399 C   0  0  2  0  0  0
  -24.8775  -28.9156   20.1087 C   0  0  0  0  0  0
  -22.7511  -29.4594   22.4903 C   0  0  0  0  0  0
  -18.0292  -28.1385   22.8481 C   0  0  0  0  0  0
  -24.1497  -36.7272   23.2641 C   0  0  0  0  0  0
  -25.9786  -30.7582   21.3807 C   0  0  0  0  0  0
  -26.0488  -29.3809   20.7173 C   0  0  0  0  0  0
  -27.2198  -28.5558   20.7135 C   0  0  0  0  0  0
  -26.0222  -26.8401   19.5006 C   0  0  0  0  0  0
  -24.8714  -27.6557   19.4895 C   0  0  0  0  0  0
  -23.6511  -29.8073   20.1561 C   0  0  0  0  0  0
  -25.4121  -36.3053   24.0327 C   0  0  1  0  0  0
  -20.5898  -28.3701   23.1269 C   0  0  2  0  0  0
  -20.6779  -26.9414   22.5418 C   0  0  0  0  0  0
  -19.5761  -26.6380   21.5219 C   0  0  0  0  0  0
  -18.1934  -26.7930   22.1620 C   0  0  0  0  0  0
  -19.1543  -28.8861   23.2871 C   0  0  0  0  0  0
  -18.9467  -30.1458   23.8896 C   0  0  0  0  0  0
  -17.6465  -30.6587   24.0558 C   0  0  0  0  0  0
  -25.9058  -34.9423   23.5084 C   0  0  0  0  0  0
  -16.5356  -29.9082   23.6323 C   0  0  0  0  0  0
  -16.7279  -28.6497   23.0351 C   0  0  0  0  0  0
  -26.4510  -31.6578   25.0724 C   0  0  0  0  0  0
  -25.3730  -31.3753   26.1454 C   0  0  0  0  0  0
  -27.0379  -30.2984   24.6257 C   0  0  0  0  0  0
  -27.6055  -32.4346   25.7483 C   0  0  0  0  0  0
  -27.5581  -37.1798   24.8460 C   0  0  0  0  0  0
  -21.4214  -29.3040   22.3647 N   0  0  0  0  0  0
  -26.4290  -37.3757   23.9402 N   0  0  0  0  0  0
  -24.6998  -31.0481   22.0945 N   0  0  0  0  0  0
  -23.4209  -28.8135   23.3007 O   0  0  0  0  0  0
  -28.3416  -26.3713   20.2097 O   0  0  0  0  0  0
  -26.5647  -34.8905   22.4672 O   0  0  0  0  0  0
  -23.5474  -32.1364   23.7250 O   0  0  0  0  0  0
  -27.1925  -19.5206   19.3264 C   0  0  0  0  0  0
  -27.9995  -18.3871   19.5757 C   0  0  0  0  0  0
  -29.2482  -18.6210   20.2055 C   0  0  0  0  0  0
  -28.7421  -20.9785   20.1514 C   0  0  0  0  0  0
  -26.9437  -23.3927   21.1927 C   0  0  0  0  0  0
  -30.2627  -17.4211   20.5484 C   0  0  0  0  0  0
  -28.4047  -24.9453   19.7038 C   0  0  0  0  0  0
  -28.3727  -23.6437   20.6850 C   0  0  2  0  0  0
  -27.5577  -20.7866   19.6068 N   0  0  0  0  0  0
  -29.5932  -19.9511   20.4577 N   0  0  0  0  0  0
  -27.5677  -17.1253   19.1423 N   0  0  0  0  0  0
  -29.1309  -22.3542   20.3219 N   0  0  0  0  0  0
  -29.8447  -15.9406   20.6043 N   0  0  0  0  0  0
  -31.4777  -12.6128   19.1673 H   0  0  0  0  0  0
  -30.3915  -11.5149   19.9693 H   0  0  0  0  0  0
  -29.8078  -11.7356   17.5247 H   0  0  0  0  0  0
  -29.6262  -13.4624   17.7129 H   0  0  0  0  0  0
  -27.9228  -11.2720   18.9395 H   0  0  0  0  0  0
  -27.3800  -12.4765   17.8023 H   0  0  0  0  0  0
  -27.6213  -14.2478   19.4402 H   0  0  0  0  0  0
  -28.7377  -12.2016   21.4176 H   0  0  0  0  0  0
  -28.4137  -13.8816   21.7764 H   0  0  0  0  0  0
  -25.2776   -9.5649   22.4817 H   0  0  0  0  0  0
  -24.0005   -7.4616   22.7514 H   0  0  0  0  0  0
  -21.0857   -8.8789   19.8984 H   0  0  0  0  0  0
  -22.3730  -10.9690   19.6217 H   0  0  0  0  0  0
  -21.2011   -7.6151   23.9711 H   0  0  0  0  0  0
  -21.1475   -6.0532   25.9076 H   0  0  0  0  0  0
  -22.0599   -2.7608   23.2848 H   0  0  0  0  0  0
  -22.4027  -11.9884   22.4893 H   0  0  0  0  0  0
  -21.1078  -13.1279   22.2612 H   0  0  0  0  0  0
  -24.6214  -15.8233   20.5158 H   0  0  0  0  0  0
  -26.2325  -15.6681   20.0404 H   0  0  0  0  0  0
  -26.7201  -32.5366   23.1054 H   0  0  0  0  0  0
  -25.0031  -33.9674   25.0358 H   0  0  0  0  0  0
  -22.7281  -31.2967   21.3919 H   0  0  0  0  0  0
  -23.3752  -35.9610   23.3295 H   0  0  0  0  0  0
  -24.3581  -36.8908   22.2054 H   0  0  0  0  0  0
  -23.7261  -37.6472   23.6682 H   0  0  0  0  0  0
  -26.1284  -31.5241   20.6192 H   0  0  0  0  0  0
  -26.8518  -30.7984   22.0208 H   0  0  0  0  0  0
  -28.1181  -28.9093   21.1994 H   0  0  0  0  0  0
  -25.9305  -25.8715   19.0359 H   0  0  0  0  0  0
  -23.9715  -27.2893   19.0140 H   0  0  0  0  0  0
  -23.7818  -30.5865   19.4038 H   0  0  0  0  0  0
  -22.7679  -29.2465   19.8438 H   0  0  0  0  0  0
  -25.1304  -36.1893   25.0821 H   0  0  0  0  0  0
  -20.9983  -28.3292   24.1395 H   0  0  0  0  0  0
  -20.5670  -26.2313   23.3626 H   0  0  0  0  0  0
  -21.6650  -26.7439   22.1222 H   0  0  0  0  0  0
  -19.6926  -25.6288   21.1258 H   0  0  0  0  0  0
  -19.6703  -27.3184   20.6744 H   0  0  0  0  0  0
  -17.4209  -26.6677   21.4012 H   0  0  0  0  0  0
  -18.0324  -26.0076   22.9017 H   0  0  0  0  0  0
  -19.7943  -30.7261   24.2278 H   0  0  0  0  0  0
  -17.5022  -31.6269   24.5157 H   0  0  0  0  0  0
  -15.5353  -30.2987   23.7648 H   0  0  0  0  0  0
  -15.8677  -28.0809   22.7084 H   0  0  0  0  0  0
  -24.5910  -30.7088   25.7799 H   0  0  0  0  0  0
  -24.8913  -32.2930   26.4835 H   0  0  0  0  0  0
  -25.8055  -30.8965   27.0247 H   0  0  0  0  0  0
  -26.2982  -29.6683   24.1306 H   0  0  0  0  0  0
  -27.4060  -29.7303   25.4805 H   0  0  0  0  0  0
  -27.8856  -30.4224   23.9517 H   0  0  0  0  0  0
  -27.2662  -33.3673   26.1996 H   0  0  0  0  0  0
  -28.3887  -32.6870   25.0324 H   0  0  0  0  0  0
  -28.0696  -31.8508   26.5441 H   0  0  0  0  0  0
  -28.2584  -38.0101   24.7491 H   0  0  0  0  0  0
  -28.1096  -36.2634   24.6304 H   0  0  0  0  0  0
  -27.2302  -37.1457   25.8862 H   0  0  0  0  0  0
  -20.9410  -29.8743   21.6825 H   0  0  0  0  0  0
  -26.0162  -38.2829   24.1396 H   0  0  0  0  0  0
  -26.2336  -19.4110   18.8424 H   0  0  0  0  0  0
  -26.5317  -24.3024   21.6310 H   0  0  0  0  0  0
  -26.9221  -22.6240   21.9662 H   0  0  0  0  0  0
  -26.2745  -23.0894   20.3863 H   0  0  0  0  0  0
  -30.7109  -17.6642   21.5134 H   0  0  0  0  0  0
  -31.0766  -17.5091   19.8279 H   0  0  0  0  0  0
  -27.7060  -24.7903   18.8848 H   0  0  0  0  0  0
  -29.3735  -24.9116   19.2067 H   0  0  0  0  0  0
  -28.9282  -23.9718   21.5643 H   0  0  0  0  0  0
  -26.8264  -17.1456   18.4450 H   0  0  0  0  0  0
  -28.3061  -16.5023   18.8313 H   0  0  0  0  0  0
  -30.1061  -22.4213   20.5886 H   0  0  0  0  0  0
  -28.8492  -15.8135   20.7244 H   0  0  0  0  0  0
  1 25  1  0  0  0
  1 30  2  0  0  0
  1 83  1  0  0  0
  2  3  1  0  0  0
  2 25  1  0  0  0
  2 84  1  0  0  0
  2 85  1  0  0  0
  3  4  1  0  0  0
  3 86  1  0  0  0
  3 87  1  0  0  0
  4  5  1  0  0  0
  4 88  1  0  0  0
  4 89  1  0  0  0
  5  6  1  0  0  0
  5 26  1  0  0  0
  5 90  1  0  0  0
  6 25  1  0  0  0
  6 91  1  0  0  0
  6 92  1  0  0  0
  7  8  2  0  0  0
  7 26  1  0  0  0
  7 29  1  0  0  0
  8  9  1  0  0  0
  8 22  1  0  0  0
  9 10  1  0  0  0
  9 27  2  0  0  0
 10 11  2  0  0  0
 10 15  1  0  0  0
 11 12  1  0  0  0
 11 93  1  0  0  0
 12 13  2  0  0  0
 12 94  1  0  0  0
 13 14  1  0  0  0
 13 31  1  0  0  0
 14 15  2  0  0  0
 14 95  1  0  0  0
 15 96  1  0  0  0
 16 17  2  0  0  0
 16 21  1  0  0  0
 16 31  1  0  0  0
 17 18  1  0  0  0
 17 97  1  0  0  0
 18 19  2  0  0  0
 18 98  1  0  0  0
 19 20  1  0  0  0
 19 24  1  0  0  0
 20 21  2  0  0  0
 20 99  1  0  0  0
 21 23  1  0  0  0
 22 28  1  0  0  0
 22 32  2  0  0  0
 26 27  1  0  0  0
 28100  1  0  0  0
 28101  1  0  0  0
 29102  1  0  0  0
 29103  1  0  0  0
 33 34  1  0  0  0
 33 66  1  0  0  0
 33 70  2  0  0  0
 34 36  1  0  0  0
 34 59  1  0  0  0
 34104  1  0  0  0
 35 44  2  0  0  0
 35 45  1  0  0  0
 35 68  1  0  0  0
 36 56  1  0  0  0
 36105  1  0  0  0
 37 39  1  0  0  0
 37 47  1  0  0  0
 37 66  1  0  0  0
 37106  1  0  0  0
 38 43  2  0  0  0
 38 46  1  0  0  0
 38 47  1  0  0  0
 39 64  1  0  0  0
 39 67  2  0  0  0
 40 52  1  0  0  0
 40 53  2  0  0  0
 40 58  1  0  0  0
 41107  1  0  0  0
 41108  1  0  0  0
 41109  1  0  0  0
 41 48  1  0  0  0
 42 43  1  0  0  0
 42 66  1  0  0  0
 42110  1  0  0  0
 42111  1  0  0  0
 43 44  1  0  0  0
 44112  1  0  0  0
 45 46  2  0  0  0
 45113  1  0  0  0
 46114  1  0  0  0
 47115  1  0  0  0
 47116  1  0  0  0
 48 56  1  0  0  0
 48 65  1  0  0  0
 48117  1  0  0  0
 49 50  1  0  0  0
 49 53  1  0  0  0
 49 64  1  0  0  0
 49118  1  0  0  0
 50 51  1  0  0  0
 50119  1  0  0  0
 50120  1  0  0  0
 51 52  1  0  0  0
 51121  1  0  0  0
 51122  1  0  0  0
 52123  1  0  0  0
 52124  1  0  0  0
 53 54  1  0  0  0
 54 55  2  0  0  0
 54125  1  0  0  0
 55 57  1  0  0  0
 55126  1  0  0  0
 56 69  2  0  0  0
 57 58  2  0  0  0
 57127  1  0  0  0
 58128  1  0  0  0
 59 60  1  0  0  0
 59 61  1  0  0  0
 59 62  1  0  0  0
 60129  1  0  0  0
 60130  1  0  0  0
 60131  1  0  0  0
 61132  1  0  0  0
 61133  1  0  0  0
 61134  1  0  0  0
 62135  1  0  0  0
 62136  1  0  0  0
 62137  1  0  0  0
 63 65  1  0  0  0
 63138  1  0  0  0
 63139  1  0  0  0
 63140  1  0  0  0
 64141  1  0  0  0
 65142  1  0  0  0
 68 77  1  0  0  0
 71 72  2  0  0  0
 71 79  1  0  0  0
 71143  1  0  0  0
 72 73  1  0  0  0
 72 81  1  0  0  0
 73 76  1  0  0  0
 73 80  2  0  0  0
 74 79  2  0  0  0
 74 80  1  0  0  0
 74 82  1  0  0  0
 75144  1  0  0  0
 75145  1  0  0  0
 75146  1  0  0  0
 75 78  1  0  0  0
 76 83  1  0  0  0
 76147  1  0  0  0
 76148  1  0  0  0
 77 78  1  0  0  0
 77149  1  0  0  0
 77150  1  0  0  0
 78 82  1  0  0  0
 78151  1  0  0  0
 81152  1  0  0  0
 81153  1  0  0  0
 82154  1  0  0  0
 83155  1  0  0  0
M  ISO  4   1 100  68 101  77 101  83 100
M  END
> <chiral flag>
0

> <version>
0

> <s_m_source_file>
/data/baiqing/PycharmProjects/Reinvent-master-3.2/result/LINK_invent/BTK/process_docking_weight1_custom_product_contain_oxygen_bond_distance_aromatic_linkinvent_7_9_3/rearranged_h_0194.sdf

> <i_m_source_file_index>
58

> <r_mmod_Potential_Energy-OPLS-2005>
-375.154510498047

> <r_mmod_Stretch_Energy-OPLS-2005>
135.189712524414

> <r_mmod_Bend_Energy-OPLS-2005>
208.353698730469

> <r_mmod_Torsional_Energy-OPLS-2005>
203.652252197266

> <r_mmod_Improper_Torsional_Energy-OPLS-2005>
11.8906164169312

> <r_mmod_Van_der_Waal_Energy-OPLS-2005>
140.354049682617

> <r_mmod_Electrostatic_Energy-OPLS-2005>
-935.399291992188

> <r_mmod_Solvation_Energy-OPLS-2005>
-240.691757202148

> <b_mmod_Minimization_Converged-OPLS-2005>
0

> <r_mmod_RMS_Derivative-OPLS-2005>
2.48320627212524

$$$$
58
                    3D
 Structure written by MMmdl.
159167  0  0  1  0            999 V2000
  -30.7308  -14.5210   20.5344 C   0  0  0  0  0  0
  -30.4139  -12.3326   19.4355 C   0  0  0  0  0  0
  -29.5021  -12.5070   18.2070 C   0  0  0  0  0  0
  -28.0238  -12.3657   18.6139 C   0  0  0  0  0  0
  -27.6570  -13.2206   19.8577 C   0  0  2  0  0  0
  -28.6995  -13.0768   20.9889 C   0  0  0  0  0  0
  -25.2575  -13.8200   20.5697 C   0  0  0  0  0  0
  -24.1850  -13.0449   20.9192 C   0  0  0  0  0  0
  -24.6403  -11.6906   20.8687 C   0  0  0  0  0  0
  -23.9065  -10.4300   21.0366 C   0  0  0  0  0  0
  -24.3623   -9.4236   21.9174 C   0  0  0  0  0  0
  -23.6309   -8.2276   22.0745 C   0  0  0  0  0  0
  -22.4298   -8.0298   21.3546 C   0  0  0  0  0  0
  -21.9915   -9.0264   20.4648 C   0  0  0  0  0  0
  -22.7226  -10.2142   20.3046 C   0  0  0  0  0  0
  -21.6868   -6.0762   22.5284 C   0  0  0  0  0  0
  -21.4025   -6.5650   23.8218 C   0  0  0  0  0  0
  -21.3660   -5.6793   24.9175 C   0  0  0  0  0  0
  -21.6047   -4.3058   24.7225 C   0  0  0  0  0  0
  -21.8820   -3.8166   23.4334 C   0  0  0  0  0  0
  -21.9204   -4.6994   22.3400 C   0  0  0  0  0  0
  -22.7867  -13.5274   21.1829 C   0  0  0  0  0  0
  -22.1672   -4.2180   21.0974 F   0  0  0  0  0  0
  -21.5617   -3.4531   25.7735 F   0  0  0  0  0  0
  -30.0253  -13.3586   20.4228 N   0  0  0  0  0  0
  -26.3015  -12.9392   20.3276 N   0  0  0  0  0  0
  -25.9352  -11.6532   20.5699 N   0  0  0  0  0  0
  -22.0476  -12.8280   22.0373 N   0  0  0  0  0  0
  -25.4280  -15.1925   20.4145 N   0  0  0  0  0  0
  -31.8753  -14.6326   20.0971 O   0  0  0  0  0  0
  -21.6644   -6.8915   21.4253 O   0  0  0  0  0  0
  -22.3558  -14.5594   20.6685 O   0  0  0  0  0  0
  -24.6208  -31.8680   23.2072 C   0  0  0  0  0  0
  -25.9083  -32.4823   23.8408 C   0  0  1  0  0  0
  -27.2400  -27.3974   20.1052 C   0  0  0  0  0  0
  -25.5921  -33.8623   24.2337 N   0  0  0  0  0  0
  -23.4115  -30.4910   21.5498 C   0  0  2  0  0  0
  -24.8603  -28.9562   20.1198 C   0  0  0  0  0  0
  -22.7461  -29.4661   22.4978 C   0  0  0  0  0  0
  -18.0285  -28.1386   22.8496 C   0  0  0  0  0  0
  -24.1488  -36.7301   23.2637 C   0  0  0  0  0  0
  -25.9468  -30.8252   21.3645 C   0  0  0  0  0  0
  -26.0262  -29.4566   20.7119 C   0  0  0  0  0  0
  -27.2202  -28.6882   20.6940 C   0  0  0  0  0  0
  -26.0480  -26.9281   19.4994 C   0  0  0  0  0  0
  -24.8674  -27.6916   19.5127 C   0  0  0  0  0  0
  -23.6241  -29.8259   20.1666 C   0  0  0  0  0  0
  -25.4109  -36.3105   24.0340 C   0  0  1  0  0  0
  -20.5883  -28.3685   23.1316 C   0  0  2  0  0  0
  -20.6788  -26.9411   22.5426 C   0  0  0  0  0  0
  -19.5761  -26.6393   21.5230 C   0  0  0  0  0  0
  -18.1933  -26.7933   22.1622 C   0  0  0  0  0  0
  -19.1533  -28.8848   23.2901 C   0  0  0  0  0  0
  -18.9451  -30.1455   23.8920 C   0  0  0  0  0  0
  -17.6452  -30.6584   24.0569 C   0  0  0  0  0  0
  -25.9036  -34.9475   23.5130 C   0  0  0  0  0  0
  -16.5343  -29.9085   23.6328 C   0  0  0  0  0  0
  -16.7277  -28.6497   23.0355 C   0  0  0  0  0  0
  -26.4479  -31.6605   25.0754 C   0  0  0  0  0  0
  -25.3719  -31.3753   26.1492 C   0  0  0  0  0  0
  -27.0336  -30.3051   24.6166 C   0  0  0  0  0  0
  -27.6054  -32.4329   25.7510 C   0  0  0  0  0  0
  -27.5587  -37.1806   24.8469 C   0  0  0  0  0  0
  -21.4178  -29.3050   22.3730 N   0  0  0  0  0  0
  -26.4298  -37.3793   23.9401 N   0  0  0  0  0  0
  -24.6781  -31.0773   22.0976 N   0  0  0  0  0  0
  -23.4215  -28.8222   23.3043 O   0  0  0  0  0  0
  -28.3959  -26.6200   20.1537 O   0  0  0  0  0  0
  -26.5597  -34.8928   22.4687 O   0  0  0  0  0  0
  -23.5385  -32.1442   23.7435 O   0  0  0  0  0  0
  -28.6010  -17.8931   19.8701 C   0  0  0  0  0  0
  -29.7735  -18.1289   20.6072 C   0  0  0  0  0  0
  -27.8818  -19.0149   19.4661 C   0  0  0  0  0  0
  -29.3979  -20.4053   20.4447 C   0  0  0  0  0  0
  -28.2637  -22.7676   22.3245 C   0  0  0  0  0  0
  -30.6733  -16.9673   21.0646 C   0  0  0  0  0  0
  -28.2201  -25.1814   20.0343 C   0  0  0  0  0  0
  -28.8294  -22.8107   20.8985 C   0  0  1  0  0  0
  -29.3668  -24.2426   20.5555 C   0  0  1  0  0  0
  -30.1621  -19.4047   20.8931 N   0  0  0  0  0  0
  -28.2818  -20.2619   19.7424 N   0  0  0  0  0  0
  -26.7113  -18.8843   18.7328 N   0  0  0  0  0  0
  -29.8055  -21.7087   20.7317 N   0  0  0  0  0  0
  -30.0825  -15.6070   21.0054 N   0  0  0  0  0  0
  -30.3374  -24.0099   19.5545 O   0  0  0  0  0  0
  -31.4602  -12.4136   19.1364 H   0  0  0  0  0  0
  -30.3011  -11.3325   19.8561 H   0  0  0  0  0  0
  -29.7539  -11.7701   17.4412 H   0  0  0  0  0  0
  -29.6769  -13.4853   17.7583 H   0  0  0  0  0  0
  -27.8367  -11.3103   18.8162 H   0  0  0  0  0  0
  -27.3822  -12.6312   17.7734 H   0  0  0  0  0  0
  -27.6782  -14.2586   19.5250 H   0  0  0  0  0  0
  -28.6783  -12.0749   21.4190 H   0  0  0  0  0  0
  -28.4582  -13.7594   21.8027 H   0  0  0  0  0  0
  -25.2773   -9.5755   22.4721 H   0  0  0  0  0  0
  -24.0050   -7.4686   22.7455 H   0  0  0  0  0  0
  -21.0852   -8.8776   19.8946 H   0  0  0  0  0  0
  -22.3690  -10.9679   19.6140 H   0  0  0  0  0  0
  -21.2006   -7.6154   23.9746 H   0  0  0  0  0  0
  -21.1476   -6.0502   25.9081 H   0  0  0  0  0  0
  -22.0594   -2.7635   23.2812 H   0  0  0  0  0  0
  -22.4084  -11.9979   22.4864 H   0  0  0  0  0  0
  -21.1085  -13.1326   22.2489 H   0  0  0  0  0  0
  -24.6579  -15.8418   20.5336 H   0  0  0  0  0  0
  -26.2889  -15.6440   20.1357 H   0  0  0  0  0  0
  -26.7179  -32.5539   23.1192 H   0  0  0  0  0  0
  -25.0108  -33.9796   25.0511 H   0  0  0  0  0  0
  -22.7003  -31.3066   21.4061 H   0  0  0  0  0  0
  -23.3747  -35.9637   23.3306 H   0  0  0  0  0  0
  -24.3591  -36.8901   22.2051 H   0  0  0  0  0  0
  -23.7243  -37.6511   23.6641 H   0  0  0  0  0  0
  -26.0654  -31.5896   20.5947 H   0  0  0  0  0  0
  -26.8333  -30.8815   21.9858 H   0  0  0  0  0  0
  -28.1188  -29.0703   21.1573 H   0  0  0  0  0  0
  -25.9966  -25.9632   19.0149 H   0  0  0  0  0  0
  -23.9704  -27.2925   19.0601 H   0  0  0  0  0  0
  -23.7450  -30.5988   19.4062 H   0  0  0  0  0  0
  -22.7462  -29.2500   19.8658 H   0  0  0  0  0  0
  -25.1276  -36.1967   25.0838 H   0  0  0  0  0  0
  -20.9972  -28.3247   24.1438 H   0  0  0  0  0  0
  -20.5730  -26.2273   23.3615 H   0  0  0  0  0  0
  -21.6652  -26.7482   22.1190 H   0  0  0  0  0  0
  -19.6917  -25.6311   21.1250 H   0  0  0  0  0  0
  -19.6695  -27.3214   20.6770 H   0  0  0  0  0  0
  -17.4214  -26.6712   21.4008 H   0  0  0  0  0  0
  -18.0291  -26.0070   22.9008 H   0  0  0  0  0  0
  -19.7928  -30.7269   24.2292 H   0  0  0  0  0  0
  -17.5003  -31.6264   24.5168 H   0  0  0  0  0  0
  -15.5344  -30.2989   23.7641 H   0  0  0  0  0  0
  -15.8679  -28.0831   22.7058 H   0  0  0  0  0  0
  -24.5855  -30.7152   25.7817 H   0  0  0  0  0  0
  -24.8961  -32.2938   26.4942 H   0  0  0  0  0  0
  -25.8042  -30.8905   27.0252 H   0  0  0  0  0  0
  -26.2938  -29.6795   24.1174 H   0  0  0  0  0  0
  -27.4047  -29.7310   25.4659 H   0  0  0  0  0  0
  -27.8771  -30.4364   23.9390 H   0  0  0  0  0  0
  -27.2677  -33.3608   26.2134 H   0  0  0  0  0  0
  -28.3833  -32.6928   25.0319 H   0  0  0  0  0  0
  -28.0759  -31.8434   26.5384 H   0  0  0  0  0  0
  -28.2602  -38.0108   24.7510 H   0  0  0  0  0  0
  -28.1087  -36.2635   24.6284 H   0  0  0  0  0  0
  -27.2319  -37.1449   25.8884 H   0  0  0  0  0  0
  -20.9351  -29.8747   21.6932 H   0  0  0  0  0  0
  -26.0179  -38.2872   24.1389 H   0  0  0  0  0  0
  -28.2812  -16.8960   19.6012 H   0  0  0  0  0  0
  -27.6207  -23.6203   22.5431 H   0  0  0  0  0  0
  -29.0691  -22.7706   23.0600 H   0  0  0  0  0  0
  -27.6705  -21.8658   22.4791 H   0  0  0  0  0  0
  -31.0203  -17.1473   22.0814 H   0  0  0  0  0  0
  -31.5669  -17.0248   20.4419 H   0  0  0  0  0  0
  -27.3372  -24.9189   20.6227 H   0  0  0  0  0  0
  -27.9753  -24.9220   19.0026 H   0  0  0  0  0  0
  -28.0079  -22.6387   20.2021 H   0  0  0  0  0  0
  -29.8501  -24.6778   21.4328 H   0  0  0  0  0  0
  -26.3021  -17.9776   18.5572 H   0  0  0  0  0  0
  -26.0847  -19.6703   18.6174 H   0  0  0  0  0  0
  -30.5933  -21.7408   21.3704 H   0  0  0  0  0  0
  -29.1290  -15.5099   21.3127 H   0  0  0  0  0  0
  -30.4965  -23.0671   19.6334 H   0  0  0  0  0  0
  1 25  1  0  0  0
  1 30  2  0  0  0
  1 84  1  0  0  0
  2  3  1  0  0  0
  2 25  1  0  0  0
  2 86  1  0  0  0
  2 87  1  0  0  0
  3  4  1  0  0  0
  3 88  1  0  0  0
  3 89  1  0  0  0
  4  5  1  0  0  0
  4 90  1  0  0  0
  4 91  1  0  0  0
  5  6  1  0  0  0
  5 26  1  0  0  0
  5 92  1  0  0  0
  6 25  1  0  0  0
  6 93  1  0  0  0
  6 94  1  0  0  0
  7  8  2  0  0  0
  7 26  1  0  0  0
  7 29  1  0  0  0
  8  9  1  0  0  0
  8 22  1  0  0  0
  9 10  1  0  0  0
  9 27  2  0  0  0
 10 11  2  0  0  0
 10 15  1  0  0  0
 11 12  1  0  0  0
 11 95  1  0  0  0
 12 13  2  0  0  0
 12 96  1  0  0  0
 13 14  1  0  0  0
 13 31  1  0  0  0
 14 15  2  0  0  0
 14 97  1  0  0  0
 15 98  1  0  0  0
 16 17  2  0  0  0
 16 21  1  0  0  0
 16 31  1  0  0  0
 17 18  1  0  0  0
 17 99  1  0  0  0
 18 19  2  0  0  0
 18100  1  0  0  0
 19 20  1  0  0  0
 19 24  1  0  0  0
 20 21  2  0  0  0
 20101  1  0  0  0
 21 23  1  0  0  0
 22 28  1  0  0  0
 22 32  2  0  0  0
 26 27  1  0  0  0
 28102  1  0  0  0
 28103  1  0  0  0
 29104  1  0  0  0
 29105  1  0  0  0
 33 34  1  0  0  0
 33 66  1  0  0  0
 33 70  2  0  0  0
 34 36  1  0  0  0
 34 59  1  0  0  0
 34106  1  0  0  0
 35 44  2  0  0  0
 35 45  1  0  0  0
 35 68  1  0  0  0
 36 56  1  0  0  0
 36107  1  0  0  0
 37 39  1  0  0  0
 37 47  1  0  0  0
 37 66  1  0  0  0
 37108  1  0  0  0
 38 43  2  0  0  0
 38 46  1  0  0  0
 38 47  1  0  0  0
 39 64  1  0  0  0
 39 67  2  0  0  0
 40 52  1  0  0  0
 40 53  2  0  0  0
 40 58  1  0  0  0
 41109  1  0  0  0
 41110  1  0  0  0
 41111  1  0  0  0
 41 48  1  0  0  0
 42 43  1  0  0  0
 42 66  1  0  0  0
 42112  1  0  0  0
 42113  1  0  0  0
 43 44  1  0  0  0
 44114  1  0  0  0
 45 46  2  0  0  0
 45115  1  0  0  0
 46116  1  0  0  0
 47117  1  0  0  0
 47118  1  0  0  0
 48 56  1  0  0  0
 48 65  1  0  0  0
 48119  1  0  0  0
 49 50  1  0  0  0
 49 53  1  0  0  0
 49 64  1  0  0  0
 49120  1  0  0  0
 50 51  1  0  0  0
 50121  1  0  0  0
 50122  1  0  0  0
 51 52  1  0  0  0
 51123  1  0  0  0
 51124  1  0  0  0
 52125  1  0  0  0
 52126  1  0  0  0
 53 54  1  0  0  0
 54 55  2  0  0  0
 54127  1  0  0  0
 55 57  1  0  0  0
 55128  1  0  0  0
 56 69  2  0  0  0
 57 58  2  0  0  0
 57129  1  0  0  0
 58130  1  0  0  0
 59 60  1  0  0  0
 59 61  1  0  0  0
 59 62  1  0  0  0
 60131  1  0  0  0
 60132  1  0  0  0
 60133  1  0  0  0
 61134  1  0  0  0
 61135  1  0  0  0
 61136  1  0  0  0
 62137  1  0  0  0
 62138  1  0  0  0
 62139  1  0  0  0
 63 65  1  0  0  0
 63140  1  0  0  0
 63141  1  0  0  0
 63142  1  0  0  0
 64143  1  0  0  0
 65144  1  0  0  0
 68 77  1  0  0  0
 71 72  2  0  0  0
 71 73  1  0  0  0
 71145  1  0  0  0
 72 76  1  0  0  0
 72 80  1  0  0  0
 73 81  2  0  0  0
 73 82  1  0  0  0
 74 80  2  0  0  0
 74 81  1  0  0  0
 74 83  1  0  0  0
 75146  1  0  0  0
 75147  1  0  0  0
 75148  1  0  0  0
 75 78  1  0  0  0
 76 84  1  0  0  0
 76149  1  0  0  0
 76150  1  0  0  0
 77 79  1  0  0  0
 77151  1  0  0  0
 77152  1  0  0  0
 78 79  1  0  0  0
 78 83  1  0  0  0
 78153  1  0  0  0
 79 85  1  0  0  0
 79154  1  0  0  0
 82155  1  0  0  0
 82156  1  0  0  0
 83157  1  0  0  0
 84158  1  0  0  0
 85159  1  0  0  0
M  ISO  4   1 100  68 101  77 101  84 100
M  END
> <chiral flag>
0

> <version>
0

> <s_m_source_file>
/data/baiqing/PycharmProjects/Reinvent-master-3.2/result/LINK_invent/BTK/process_docking_weight1_custom_product_contain_oxygen_bond_distance_aromatic_linkinvent_7_9_3/rearranged_h_0194.sdf

> <i_m_source_file_index>
59

> <r_mmod_Potential_Energy-OPLS-2005>
-884.005065917969

> <r_mmod_Stretch_Energy-OPLS-2005>
47.2608757019043

> <r_mmod_Bend_Energy-OPLS-2005>
119.468887329102

> <r_mmod_Torsional_Energy-OPLS-2005>
234.488479614258

> <r_mmod_Improper_Torsional_Energy-OPLS-2005>
7.28889083862305

> <r_mmod_Van_der_Waal_Energy-OPLS-2005>
175.137329101562

> <r_mmod_Electrostatic_Energy-OPLS-2005>
-1221.35620117188

> <r_mmod_Solvation_Energy-OPLS-2005>
-269.460906982422

> <b_mmod_Minimization_Converged-OPLS-2005>
0

> <r_mmod_RMS_Derivative-OPLS-2005>
5.30013465881348

$$$$
59
                    3D
 Structure written by MMmdl.
158166  0  0  1  0            999 V2000
  -30.7021  -14.5071   20.5071 C   0  0  0  0  0  0
  -30.4170  -12.3146   19.4239 C   0  0  0  0  0  0
  -29.4894  -12.4988   18.2034 C   0  0  0  0  0  0
  -28.0112  -12.3719   18.6217 C   0  0  0  0  0  0
  -27.6580  -13.2199   19.8742 C   0  0  2  0  0  0
  -28.7060  -13.0350   20.9956 C   0  0  0  0  0  0
  -25.2552  -13.8204   20.5677 C   0  0  0  0  0  0
  -24.1830  -13.0458   20.9190 C   0  0  0  0  0  0
  -24.6408  -11.6928   20.8758 C   0  0  0  0  0  0
  -23.9092  -10.4311   21.0415 C   0  0  0  0  0  0
  -24.3634   -9.4230   21.9196 C   0  0  0  0  0  0
  -23.6300   -8.2275   22.0770 C   0  0  0  0  0  0
  -22.4285   -8.0306   21.3563 C   0  0  0  0  0  0
  -21.9934   -9.0283   20.4665 C   0  0  0  0  0  0
  -22.7266  -10.2159   20.3069 C   0  0  0  0  0  0
  -21.6860   -6.0740   22.5281 C   0  0  0  0  0  0
  -21.4002   -6.5636   23.8210 C   0  0  0  0  0  0
  -21.3658   -5.6790   24.9169 C   0  0  0  0  0  0
  -21.6052   -4.3054   24.7220 C   0  0  0  0  0  0
  -21.8818   -3.8149   23.4338 C   0  0  0  0  0  0
  -21.9191   -4.6965   22.3395 C   0  0  0  0  0  0
  -22.7843  -13.5254   21.1820 C   0  0  0  0  0  0
  -22.1666   -4.2149   21.0970 F   0  0  0  0  0  0
  -21.5641   -3.4538   25.7736 F   0  0  0  0  0  0
  -30.0313  -13.3247   20.4259 N   0  0  0  0  0  0
  -26.3012  -12.9403   20.3408 N   0  0  0  0  0  0
  -25.9341  -11.6545   20.5810 N   0  0  0  0  0  0
  -22.0458  -12.8283   22.0378 N   0  0  0  0  0  0
  -25.4199  -15.1925   20.4040 N   0  0  0  0  0  0
  -31.8476  -14.6494   20.0774 O   0  0  0  0  0  0
  -21.6653   -6.8898   21.4250 O   0  0  0  0  0  0
  -22.3547  -14.5550   20.6632 O   0  0  0  0  0  0
  -24.6157  -31.8669   23.2057 C   0  0  0  0  0  0
  -25.9042  -32.4825   23.8355 C   0  0  1  0  0  0
  -27.2234  -27.3906   20.1113 C   0  0  0  0  0  0
  -25.5886  -33.8625   24.2291 N   0  0  0  0  0  0
  -23.4056  -30.4885   21.5465 C   0  0  2  0  0  0
  -24.8527  -28.9453   20.1146 C   0  0  0  0  0  0
  -22.7403  -29.4678   22.4982 C   0  0  0  0  0  0
  -18.0272  -28.1339   22.8466 C   0  0  0  0  0  0
  -24.1479  -36.7326   23.2638 C   0  0  0  0  0  0
  -25.9379  -30.8201   21.3616 C   0  0  0  0  0  0
  -26.0153  -29.4474   20.7159 C   0  0  0  0  0  0
  -27.2062  -28.6787   20.7073 C   0  0  0  0  0  0
  -26.0478  -26.9138   19.4980 C   0  0  0  0  0  0
  -24.8667  -27.6821   19.4977 C   0  0  0  0  0  0
  -23.6149  -29.8135   20.1626 C   0  0  0  0  0  0
  -25.4103  -36.3118   24.0324 C   0  0  1  0  0  0
  -20.5852  -28.3661   23.1316 C   0  0  2  0  0  0
  -20.6792  -26.9401   22.5398 C   0  0  0  0  0  0
  -19.5792  -26.6375   21.5177 C   0  0  0  0  0  0
  -18.1958  -26.7886   22.1578 C   0  0  0  0  0  0
  -19.1510  -28.8828   23.2897 C   0  0  0  0  0  0
  -18.9412  -30.1422   23.8914 C   0  0  0  0  0  0
  -17.6413  -30.6563   24.0539 C   0  0  0  0  0  0
  -25.9025  -34.9488   23.5115 C   0  0  0  0  0  0
  -16.5312  -29.9036   23.6295 C   0  0  0  0  0  0
  -16.7259  -28.6455   23.0311 C   0  0  0  0  0  0
  -26.4457  -31.6618   25.0694 C   0  0  0  0  0  0
  -25.3714  -31.3734   26.1428 C   0  0  0  0  0  0
  -27.0282  -30.3061   24.6086 C   0  0  0  0  0  0
  -27.6021  -32.4341   25.7467 C   0  0  0  0  0  0
  -27.5578  -37.1826   24.8465 C   0  0  0  0  0  0
  -21.4134  -29.3041   22.3724 N   0  0  0  0  0  0
  -26.4298  -37.3799   23.9400 N   0  0  0  0  0  0
  -24.6722  -31.0732   22.0973 N   0  0  0  0  0  0
  -23.4166  -28.8227   23.3043 O   0  0  0  0  0  0
  -28.3676  -26.6139   20.0897 O   0  0  0  0  0  0
  -26.5593  -34.8946   22.4673 O   0  0  0  0  0  0
  -23.5337  -32.1425   23.7427 O   0  0  0  0  0  0
  -27.8881  -19.0610   22.7283 C   0  0  0  0  0  0
  -28.6575  -17.9318   22.3754 C   0  0  0  0  0  0
  -29.4961  -18.0869   21.2459 C   0  0  0  0  0  0
  -28.7809  -20.2768   21.0286 C   0  0  0  0  0  0
  -29.3305  -24.1030   18.8556 C   0  0  0  0  0  0
  -30.4479  -16.9791   20.7423 C   0  0  0  0  0  0
  -28.7137  -22.8075   20.9989 C   0  0  0  0  0  0
  -28.3398  -25.3749   20.8475 C   0  0  0  0  0  0
  -28.3718  -24.0204   20.0543 C   0  0  1  0  0  0
  -27.9630  -20.2269   22.0638 N   0  0  0  0  0  0
  -29.5327  -19.2729   20.5794 N   0  0  0  0  0  0
  -28.6032  -16.7688   23.1575 N   0  0  0  0  0  0
  -28.8592  -21.4868   20.3468 N   0  0  0  0  0  0
  -29.9908  -15.5816   20.8921 N   0  0  0  0  0  0
  -31.4622  -12.4005   19.1171 H   0  0  0  0  0  0
  -30.3151  -11.3103   19.8377 H   0  0  0  0  0  0
  -29.7216  -11.7576   17.4365 H   0  0  0  0  0  0
  -29.6614  -13.4749   17.7471 H   0  0  0  0  0  0
  -27.8170  -11.3184   18.8212 H   0  0  0  0  0  0
  -27.3593  -12.6478   17.7913 H   0  0  0  0  0  0
  -27.6954  -14.2655   19.5689 H   0  0  0  0  0  0
  -28.6846  -12.0134   21.3797 H   0  0  0  0  0  0
  -28.4796  -13.6799   21.8476 H   0  0  0  0  0  0
  -25.2776   -9.5700   22.4766 H   0  0  0  0  0  0
  -24.0007   -7.4672   22.7492 H   0  0  0  0  0  0
  -21.0869   -8.8812   19.8971 H   0  0  0  0  0  0
  -22.3740  -10.9696   19.6178 H   0  0  0  0  0  0
  -21.1987   -7.6140   23.9715 H   0  0  0  0  0  0
  -21.1479   -6.0513   25.9077 H   0  0  0  0  0  0
  -22.0598   -2.7612   23.2829 H   0  0  0  0  0  0
  -22.4052  -11.9977   22.4836 H   0  0  0  0  0  0
  -21.1056  -13.1309   22.2491 H   0  0  0  0  0  0
  -24.6447  -15.8386   20.5081 H   0  0  0  0  0  0
  -26.2765  -15.6458   20.1116 H   0  0  0  0  0  0
  -26.7111  -32.5524   23.1111 H   0  0  0  0  0  0
  -25.0058  -33.9787   25.0451 H   0  0  0  0  0  0
  -22.6944  -31.3048   21.4003 H   0  0  0  0  0  0
  -23.3735  -35.9668   23.3322 H   0  0  0  0  0  0
  -24.3579  -36.8929   22.2053 H   0  0  0  0  0  0
  -23.7245  -37.6542   23.6641 H   0  0  0  0  0  0
  -26.0432  -31.5809   20.5855 H   0  0  0  0  0  0
  -26.8311  -30.8880   21.9719 H   0  0  0  0  0  0
  -28.1041  -29.0600   21.1726 H   0  0  0  0  0  0
  -26.0464  -25.9483   19.0130 H   0  0  0  0  0  0
  -23.9764  -27.2965   19.0163 H   0  0  0  0  0  0
  -23.7143  -30.5806   19.3948 H   0  0  0  0  0  0
  -22.7415  -29.2256   19.8763 H   0  0  0  0  0  0
  -25.1291  -36.1984   25.0821 H   0  0  0  0  0  0
  -20.9916  -28.3217   24.1455 H   0  0  0  0  0  0
  -21.6671  -26.7502   22.1170 H   0  0  0  0  0  0
  -20.5772  -26.2228   23.3570 H   0  0  0  0  0  0
  -19.6970  -25.6270   21.1226 H   0  0  0  0  0  0
  -19.6718  -27.3201   20.6724 H   0  0  0  0  0  0
  -17.4254  -26.6635   21.3946 H   0  0  0  0  0  0
  -18.0374  -26.0004   22.8958 H   0  0  0  0  0  0
  -19.7887  -30.7249   24.2272 H   0  0  0  0  0  0
  -17.4936  -31.6265   24.5077 H   0  0  0  0  0  0
  -15.5302  -30.2911   23.7574 H   0  0  0  0  0  0
  -15.8676  -28.0772   22.6983 H   0  0  0  0  0  0
  -24.5879  -30.7095   25.7757 H   0  0  0  0  0  0
  -24.8897  -32.2890   26.4869 H   0  0  0  0  0  0
  -25.8048  -30.8901   27.0189 H   0  0  0  0  0  0
  -26.2827  -29.6841   24.1110 H   0  0  0  0  0  0
  -27.4014  -29.7290   25.4559 H   0  0  0  0  0  0
  -27.8681  -30.4380   23.9257 H   0  0  0  0  0  0
  -27.2627  -33.3628   26.2063 H   0  0  0  0  0  0
  -28.3818  -32.6927   25.0295 H   0  0  0  0  0  0
  -28.0690  -31.8452   26.5368 H   0  0  0  0  0  0
  -28.2608  -38.0110   24.7499 H   0  0  0  0  0  0
  -28.1058  -36.2646   24.6306 H   0  0  0  0  0  0
  -27.2300  -37.1505   25.8870 H   0  0  0  0  0  0
  -20.9293  -29.8665   21.6850 H   0  0  0  0  0  0
  -26.0186  -38.2882   24.1394 H   0  0  0  0  0  0
  -27.2239  -19.0406   23.5798 H   0  0  0  0  0  0
  -29.2759  -23.2068   18.2370 H   0  0  0  0  0  0
  -30.3623  -24.2376   19.1798 H   0  0  0  0  0  0
  -29.0666  -24.9380   18.2064 H   0  0  0  0  0  0
  -31.3913  -17.0949   21.2759 H   0  0  0  0  0  0
  -30.6663  -17.1616   19.6886 H   0  0  0  0  0  0
  -27.9601  -22.7444   21.7854 H   0  0  0  0  0  0
  -29.6524  -23.0104   21.5179 H   0  0  0  0  0  0
  -29.2236  -25.4022   21.4876 H   0  0  0  0  0  0
  -27.4923  -25.3612   21.5354 H   0  0  0  0  0  0
  -27.3706  -23.8549   19.6529 H   0  0  0  0  0  0
  -28.0510  -16.7976   24.0112 H   0  0  0  0  0  0
  -29.4686  -16.2462   23.2796 H   0  0  0  0  0  0
  -29.5193  -21.4631   19.5808 H   0  0  0  0  0  0
  -29.0640  -15.4646   21.2762 H   0  0  0  0  0  0
  1 25  1  0  0  0
  1 30  2  0  0  0
  1 84  1  0  0  0
  2  3  1  0  0  0
  2 25  1  0  0  0
  2 85  1  0  0  0
  2 86  1  0  0  0
  3  4  1  0  0  0
  3 87  1  0  0  0
  3 88  1  0  0  0
  4  5  1  0  0  0
  4 89  1  0  0  0
  4 90  1  0  0  0
  5  6  1  0  0  0
  5 26  1  0  0  0
  5 91  1  0  0  0
  6 25  1  0  0  0
  6 92  1  0  0  0
  6 93  1  0  0  0
  7  8  2  0  0  0
  7 26  1  0  0  0
  7 29  1  0  0  0
  8  9  1  0  0  0
  8 22  1  0  0  0
  9 10  1  0  0  0
  9 27  2  0  0  0
 10 11  2  0  0  0
 10 15  1  0  0  0
 11 12  1  0  0  0
 11 94  1  0  0  0
 12 13  2  0  0  0
 12 95  1  0  0  0
 13 14  1  0  0  0
 13 31  1  0  0  0
 14 15  2  0  0  0
 14 96  1  0  0  0
 15 97  1  0  0  0
 16 17  2  0  0  0
 16 21  1  0  0  0
 16 31  1  0  0  0
 17 18  1  0  0  0
 17 98  1  0  0  0
 18 19  2  0  0  0
 18 99  1  0  0  0
 19 20  1  0  0  0
 19 24  1  0  0  0
 20 21  2  0  0  0
 20100  1  0  0  0
 21 23  1  0  0  0
 22 28  1  0  0  0
 22 32  2  0  0  0
 26 27  1  0  0  0
 28101  1  0  0  0
 28102  1  0  0  0
 29103  1  0  0  0
 29104  1  0  0  0
 33 34  1  0  0  0
 33 66  1  0  0  0
 33 70  2  0  0  0
 34 36  1  0  0  0
 34 59  1  0  0  0
 34105  1  0  0  0
 35 44  2  0  0  0
 35 45  1  0  0  0
 35 68  1  0  0  0
 36 56  1  0  0  0
 36106  1  0  0  0
 37 39  1  0  0  0
 37 47  1  0  0  0
 37 66  1  0  0  0
 37107  1  0  0  0
 38 43  2  0  0  0
 38 46  1  0  0  0
 38 47  1  0  0  0
 39 64  1  0  0  0
 39 67  2  0  0  0
 40 52  1  0  0  0
 40 53  2  0  0  0
 40 58  1  0  0  0
 41108  1  0  0  0
 41109  1  0  0  0
 41110  1  0  0  0
 41 48  1  0  0  0
 42 43  1  0  0  0
 42 66  1  0  0  0
 42111  1  0  0  0
 42112  1  0  0  0
 43 44  1  0  0  0
 44113  1  0  0  0
 45 46  2  0  0  0
 45114  1  0  0  0
 46115  1  0  0  0
 47116  1  0  0  0
 47117  1  0  0  0
 48 56  1  0  0  0
 48 65  1  0  0  0
 48118  1  0  0  0
 49 50  1  0  0  0
 49 53  1  0  0  0
 49 64  1  0  0  0
 49119  1  0  0  0
 50 51  1  0  0  0
 50120  1  0  0  0
 50121  1  0  0  0
 51 52  1  0  0  0
 51122  1  0  0  0
 51123  1  0  0  0
 52124  1  0  0  0
 52125  1  0  0  0
 53 54  1  0  0  0
 54 55  2  0  0  0
 54126  1  0  0  0
 55 57  1  0  0  0
 55127  1  0  0  0
 56 69  2  0  0  0
 57 58  2  0  0  0
 57128  1  0  0  0
 58129  1  0  0  0
 59 60  1  0  0  0
 59 61  1  0  0  0
 59 62  1  0  0  0
 60130  1  0  0  0
 60131  1  0  0  0
 60132  1  0  0  0
 61133  1  0  0  0
 61134  1  0  0  0
 61135  1  0  0  0
 62136  1  0  0  0
 62137  1  0  0  0
 62138  1  0  0  0
 63 65  1  0  0  0
 63139  1  0  0  0
 63140  1  0  0  0
 63141  1  0  0  0
 64142  1  0  0  0
 65143  1  0  0  0
 68 78  1  0  0  0
 71 72  2  0  0  0
 71 80  1  0  0  0
 71144  1  0  0  0
 72 73  1  0  0  0
 72 82  1  0  0  0
 73 76  1  0  0  0
 73 81  2  0  0  0
 74 80  2  0  0  0
 74 81  1  0  0  0
 74 83  1  0  0  0
 75145  1  0  0  0
 75146  1  0  0  0
 75147  1  0  0  0
 75 79  1  0  0  0
 76 84  1  0  0  0
 76148  1  0  0  0
 76149  1  0  0  0
 77 79  1  0  0  0
 77 83  1  0  0  0
 77150  1  0  0  0
 77151  1  0  0  0
 78 79  1  0  0  0
 78152  1  0  0  0
 78153  1  0  0  0
 79154  1  0  0  0
 82155  1  0  0  0
 82156  1  0  0  0
 83157  1  0  0  0
 84158  1  0  0  0
M  ISO  4   1 100  68 101  78 101  84 100
M  END
> <chiral flag>
0

> <version>
0

> <s_m_source_file>
/data/baiqing/PycharmProjects/Reinvent-master-3.2/result/LINK_invent/BTK/process_docking_weight1_custom_product_contain_oxygen_bond_distance_aromatic_linkinvent_7_9_3/rearranged_h_0194.sdf

> <i_m_source_file_index>
60

> <r_mmod_Potential_Energy-OPLS-2005>
-610.252868652344

> <r_mmod_Stretch_Energy-OPLS-2005>
45.5836448669434

> <r_mmod_Bend_Energy-OPLS-2005>
111.041137695312

> <r_mmod_Torsional_Energy-OPLS-2005>
235.20100402832

> <r_mmod_Improper_Torsional_Energy-OPLS-2005>
10.9555187225342

> <r_mmod_Van_der_Waal_Energy-OPLS-2005>
157.435958862305

> <r_mmod_Electrostatic_Energy-OPLS-2005>
-955.103149414062

> <r_mmod_Solvation_Energy-OPLS-2005>
-235.097961425781

> <b_mmod_Minimization_Converged-OPLS-2005>
0

> <r_mmod_RMS_Derivative-OPLS-2005>
3.86441707611084

$$$$
60
                    3D
 Structure written by MMmdl.
159167  0  0  1  0            999 V2000
  -30.6067  -14.7574   20.4566 C   0  0  0  0  0  0
  -30.4440  -12.4697   19.4499 C   0  0  0  0  0  0
  -29.5083  -12.4888   18.2213 C   0  0  0  0  0  0
  -28.0390  -12.3071   18.6494 C   0  0  0  0  0  0
  -27.6407  -13.2235   19.8370 C   0  0  2  0  0  0
  -28.6915  -13.1707   20.9655 C   0  0  0  0  0  0
  -25.2517  -13.8180   20.5680 C   0  0  0  0  0  0
  -24.1816  -13.0431   20.9217 C   0  0  0  0  0  0
  -24.6404  -11.6910   20.8756 C   0  0  0  0  0  0
  -23.9082  -10.4289   21.0413 C   0  0  0  0  0  0
  -24.3629   -9.4187   21.9185 C   0  0  0  0  0  0
  -23.6288   -8.2238   22.0758 C   0  0  0  0  0  0
  -22.4268   -8.0289   21.3541 C   0  0  0  0  0  0
  -21.9906   -9.0266   20.4649 C   0  0  0  0  0  0
  -22.7256  -10.2138   20.3054 C   0  0  0  0  0  0
  -21.6843   -6.0738   22.5280 C   0  0  0  0  0  0
  -21.4017   -6.5637   23.8215 C   0  0  0  0  0  0
  -21.3660   -5.6782   24.9174 C   0  0  0  0  0  0
  -21.6044   -4.3049   24.7216 C   0  0  0  0  0  0
  -21.8819   -3.8147   23.4333 C   0  0  0  0  0  0
  -21.9190   -4.6964   22.3396 C   0  0  0  0  0  0
  -22.7838  -13.5227   21.1854 C   0  0  0  0  0  0
  -22.1655   -4.2150   21.0969 F   0  0  0  0  0  0
  -21.5623   -3.4537   25.7730 F   0  0  0  0  0  0
  -29.9848  -13.5325   20.3689 N   0  0  0  0  0  0
  -26.2937  -12.9377   20.3225 N   0  0  0  0  0  0
  -25.9322  -11.6533   20.5722 N   0  0  0  0  0  0
  -22.0470  -12.8243   22.0416 N   0  0  0  0  0  0
  -25.4181  -15.1906   20.4110 N   0  0  0  0  0  0
  -31.8130  -14.8582   20.2241 O   0  0  0  0  0  0
  -21.6628   -6.8882   21.4245 O   0  0  0  0  0  0
  -22.3530  -14.5528   20.6678 O   0  0  0  0  0  0
  -24.6360  -31.8544   23.1986 C   0  0  0  0  0  0
  -25.9178  -32.4760   23.8332 C   0  0  1  0  0  0
  -27.2161  -27.2348   20.1058 C   0  0  0  0  0  0
  -25.5954  -33.8558   24.2248 N   0  0  0  0  0  0
  -23.4331  -30.4796   21.5449 C   0  0  2  0  0  0
  -24.8765  -28.9275   20.1115 C   0  0  0  0  0  0
  -22.7534  -29.4594   22.4923 C   0  0  0  0  0  0
  -18.0297  -28.1370   22.8490 C   0  0  0  0  0  0
  -24.1487  -36.7283   23.2637 C   0  0  0  0  0  0
  -25.9860  -30.7548   21.3867 C   0  0  0  0  0  0
  -26.0538  -29.3774   20.7223 C   0  0  0  0  0  0
  -27.2240  -28.5430   20.7107 C   0  0  0  0  0  0
  -26.0023  -26.8674   19.4756 C   0  0  0  0  0  0
  -24.8560  -27.6801   19.4794 C   0  0  0  0  0  0
  -23.6516  -29.8191   20.1612 C   0  0  0  0  0  0
  -25.4121  -36.3080   24.0328 C   0  0  1  0  0  0
  -20.5903  -28.3699   23.1262 C   0  0  2  0  0  0
  -20.6783  -26.9415   22.5404 C   0  0  0  0  0  0
  -19.5747  -26.6375   21.5213 C   0  0  0  0  0  0
  -18.1927  -26.7909   22.1626 C   0  0  0  0  0  0
  -19.1548  -28.8855   23.2859 C   0  0  0  0  0  0
  -18.9463  -30.1452   23.8886 C   0  0  0  0  0  0
  -17.6458  -30.6572   24.0560 C   0  0  0  0  0  0
  -25.9071  -34.9451   23.5095 C   0  0  0  0  0  0
  -16.5356  -29.9067   23.6326 C   0  0  0  0  0  0
  -16.7282  -28.6475   23.0367 C   0  0  0  0  0  0
  -26.4500  -31.6590   25.0745 C   0  0  0  0  0  0
  -25.3695  -31.3777   26.1460 C   0  0  0  0  0  0
  -27.0359  -30.2994   24.6279 C   0  0  0  0  0  0
  -27.6046  -32.4340   25.7517 C   0  0  0  0  0  0
  -27.5585  -37.1802   24.8465 C   0  0  0  0  0  0
  -21.4235  -29.3044   22.3663 N   0  0  0  0  0  0
  -26.4293  -37.3781   23.9412 N   0  0  0  0  0  0
  -24.7046  -31.0493   22.0977 N   0  0  0  0  0  0
  -23.4218  -28.8136   23.3029 O   0  0  0  0  0  0
  -28.3057  -26.3128   20.1494 O   0  0  0  0  0  0
  -26.5640  -34.8923   22.4667 O   0  0  0  0  0  0
  -23.5503  -32.1383   23.7260 O   0  0  0  0  0  0
  -30.3355  -21.0520   18.9143 C   0  0  0  0  0  0
  -30.9386  -19.8318   18.5547 C   0  0  0  0  0  0
  -29.2906  -19.8587   20.7242 C   0  0  0  0  0  0
  -29.4674  -21.1271   20.0202 C   0  0  0  0  0  0
  -29.9828  -18.6366   20.3107 C   0  0  0  0  0  0
  -29.1466  -23.7353   20.1305 C   0  0  0  0  0  0
  -28.3859  -19.8101   21.9448 C   0  0  0  0  0  0
  -27.5132  -23.8398   17.3296 C   0  0  0  0  0  0
  -30.1185  -17.2761   21.1435 C   0  0  0  0  0  0
  -28.2253  -24.9669   18.1011 C   0  0  0  0  0  0
  -28.1204  -24.8874   19.6531 C   0  0  2  0  0  0
  -30.7749  -18.6665   19.2211 N   0  0  0  0  0  0
  -28.7408  -22.4064   20.2656 N   0  0  0  0  0  0
  -29.8062  -15.8735   20.6222 N   0  0  0  0  0  0
  -30.3150  -24.0608   20.3609 O   0  0  0  0  0  0
  -31.4770  -12.6200   19.1346 H   0  0  0  0  0  0
  -30.4175  -11.4997   19.9492 H   0  0  0  0  0  0
  -29.7946  -11.7013   17.5222 H   0  0  0  0  0  0
  -29.6193  -13.4315   17.6841 H   0  0  0  0  0  0
  -27.9154  -11.2640   18.9403 H   0  0  0  0  0  0
  -27.3719  -12.4653   17.8016 H   0  0  0  0  0  0
  -27.6291  -14.2385   19.4406 H   0  0  0  0  0  0
  -28.7376  -12.1746   21.4081 H   0  0  0  0  0  0
  -28.4223  -13.8533   21.7740 H   0  0  0  0  0  0
  -25.2777   -9.5658   22.4755 H   0  0  0  0  0  0
  -23.9990   -7.4620   22.7482 H   0  0  0  0  0  0
  -21.0826   -8.8800   19.8955 H   0  0  0  0  0  0
  -22.3719  -10.9680   19.6161 H   0  0  0  0  0  0
  -21.2023   -7.6149   23.9716 H   0  0  0  0  0  0
  -21.1473   -6.0513   25.9068 H   0  0  0  0  0  0
  -22.0598   -2.7613   23.2831 H   0  0  0  0  0  0
  -22.4093  -11.9932   22.4850 H   0  0  0  0  0  0
  -21.1083  -13.1269   22.2589 H   0  0  0  0  0  0
  -24.6424  -15.8352   20.5223 H   0  0  0  0  0  0
  -26.2515  -15.6367   20.0508 H   0  0  0  0  0  0
  -26.7260  -32.5384   23.1077 H   0  0  0  0  0  0
  -25.0118  -33.9664   25.0409 H   0  0  0  0  0  0
  -22.7306  -31.3033   21.4009 H   0  0  0  0  0  0
  -23.3755  -35.9608   23.3302 H   0  0  0  0  0  0
  -24.3579  -36.8907   22.2051 H   0  0  0  0  0  0
  -23.7223  -37.6480   23.6658 H   0  0  0  0  0  0
  -26.1358  -31.5157   20.6194 H   0  0  0  0  0  0
  -26.8595  -30.7959   22.0262 H   0  0  0  0  0  0
  -28.1245  -28.8795   21.2033 H   0  0  0  0  0  0
  -25.8857  -25.9243   18.9692 H   0  0  0  0  0  0
  -23.9553  -27.3292   18.9945 H   0  0  0  0  0  0
  -23.7830  -30.5959   19.4069 H   0  0  0  0  0  0
  -22.7679  -29.2583   19.8537 H   0  0  0  0  0  0
  -25.1293  -36.1930   25.0817 H   0  0  0  0  0  0
  -20.9970  -28.3266   24.1393 H   0  0  0  0  0  0
  -20.5675  -26.2309   23.3609 H   0  0  0  0  0  0
  -21.6646  -26.7430   22.1196 H   0  0  0  0  0  0
  -19.6902  -25.6283   21.1242 H   0  0  0  0  0  0
  -19.6666  -27.3184   20.6739 H   0  0  0  0  0  0
  -17.4197  -26.6668   21.4028 H   0  0  0  0  0  0
  -18.0322  -26.0041   22.9012 H   0  0  0  0  0  0
  -19.7946  -30.7263   24.2244 H   0  0  0  0  0  0
  -17.5022  -31.6251   24.5160 H   0  0  0  0  0  0
  -15.5352  -30.2968   23.7646 H   0  0  0  0  0  0
  -15.8683  -28.0780   22.7106 H   0  0  0  0  0  0
  -24.5842  -30.7162   25.7780 H   0  0  0  0  0  0
  -24.8927  -32.2977   26.4857 H   0  0  0  0  0  0
  -25.7984  -30.8953   27.0254 H   0  0  0  0  0  0
  -26.2981  -29.6742   24.1243 H   0  0  0  0  0  0
  -27.3949  -29.7257   25.4833 H   0  0  0  0  0  0
  -27.8891  -30.4252   23.9611 H   0  0  0  0  0  0
  -27.2629  -33.3616   26.2112 H   0  0  0  0  0  0
  -28.3834  -32.6941   25.0339 H   0  0  0  0  0  0
  -28.0743  -31.8469   26.5414 H   0  0  0  0  0  0
  -28.2598  -38.0100   24.7527 H   0  0  0  0  0  0
  -28.1074  -36.2637   24.6265 H   0  0  0  0  0  0
  -27.2309  -37.1437   25.8865 H   0  0  0  0  0  0
  -20.9433  -29.8790   21.6883 H   0  0  0  0  0  0
  -26.0174  -38.2857   24.1404 H   0  0  0  0  0  0
  -30.5270  -21.9228   18.3030 H   0  0  0  0  0  0
  -31.5896  -19.7917   17.6931 H   0  0  0  0  0  0
  -27.8511  -20.7455   22.1052 H   0  0  0  0  0  0
  -28.9716  -19.6075   22.8415 H   0  0  0  0  0  0
  -27.6426  -19.0201   21.8318 H   0  0  0  0  0  0
  -27.6968  -23.9359   16.2586 H   0  0  0  0  0  0
  -26.4331  -23.8746   17.4767 H   0  0  0  0  0  0
  -27.8608  -22.8522   17.6293 H   0  0  0  0  0  0
  -31.1445  -17.2535   21.5116 H   0  0  0  0  0  0
  -29.5231  -17.3835   22.0482 H   0  0  0  0  0  0
  -27.8398  -25.9173   17.7352 H   0  0  0  0  0  0
  -29.2787  -24.9749   17.8135 H   0  0  0  0  0  0
  -27.1370  -24.5327   19.9608 H   0  0  0  0  0  0
  -27.7395  -22.2960   20.3463 H   0  0  0  0  0  0
  -28.8217  -15.6660   20.6005 H   0  0  0  0  0  0
  1 25  1  0  0  0
  1 30  2  0  0  0
  1 84  1  0  0  0
  2  3  1  0  0  0
  2 25  1  0  0  0
  2 86  1  0  0  0
  2 87  1  0  0  0
  3  4  1  0  0  0
  3 88  1  0  0  0
  3 89  1  0  0  0
  4  5  1  0  0  0
  4 90  1  0  0  0
  4 91  1  0  0  0
  5  6  1  0  0  0
  5 26  1  0  0  0
  5 92  1  0  0  0
  6 25  1  0  0  0
  6 93  1  0  0  0
  6 94  1  0  0  0
  7  8  2  0  0  0
  7 26  1  0  0  0
  7 29  1  0  0  0
  8  9  1  0  0  0
  8 22  1  0  0  0
  9 10  1  0  0  0
  9 27  2  0  0  0
 10 11  2  0  0  0
 10 15  1  0  0  0
 11 12  1  0  0  0
 11 95  1  0  0  0
 12 13  2  0  0  0
 12 96  1  0  0  0
 13 14  1  0  0  0
 13 31  1  0  0  0
 14 15  2  0  0  0
 14 97  1  0  0  0
 15 98  1  0  0  0
 16 17  2  0  0  0
 16 21  1  0  0  0
 16 31  1  0  0  0
 17 18  1  0  0  0
 17 99  1  0  0  0
 18 19  2  0  0  0
 18100  1  0  0  0
 19 20  1  0  0  0
 19 24  1  0  0  0
 20 21  2  0  0  0
 20101  1  0  0  0
 21 23  1  0  0  0
 22 28  1  0  0  0
 22 32  2  0  0  0
 26 27  1  0  0  0
 28102  1  0  0  0
 28103  1  0  0  0
 29104  1  0  0  0
 29105  1  0  0  0
 33 34  1  0  0  0
 33 66  1  0  0  0
 33 70  2  0  0  0
 34 36  1  0  0  0
 34 59  1  0  0  0
 34106  1  0  0  0
 35 44  2  0  0  0
 35 45  1  0  0  0
 35 68  1  0  0  0
 36 56  1  0  0  0
 36107  1  0  0  0
 37 39  1  0  0  0
 37 47  1  0  0  0
 37 66  1  0  0  0
 37108  1  0  0  0
 38 43  2  0  0  0
 38 46  1  0  0  0
 38 47  1  0  0  0
 39 64  1  0  0  0
 39 67  2  0  0  0
 40 52  1  0  0  0
 40 53  2  0  0  0
 40 58  1  0  0  0
 41109  1  0  0  0
 41110  1  0  0  0
 41111  1  0  0  0
 41 48  1  0  0  0
 42 43  1  0  0  0
 42 66  1  0  0  0
 42112  1  0  0  0
 42113  1  0  0  0
 43 44  1  0  0  0
 44114  1  0  0  0
 45 46  2  0  0  0
 45115  1  0  0  0
 46116  1  0  0  0
 47117  1  0  0  0
 47118  1  0  0  0
 48 56  1  0  0  0
 48 65  1  0  0  0
 48119  1  0  0  0
 49 50  1  0  0  0
 49 53  1  0  0  0
 49 64  1  0  0  0
 49120  1  0  0  0
 50 51  1  0  0  0
 50121  1  0  0  0
 50122  1  0  0  0
 51 52  1  0  0  0
 51123  1  0  0  0
 51124  1  0  0  0
 52125  1  0  0  0
 52126  1  0  0  0
 53 54  1  0  0  0
 54 55  2  0  0  0
 54127  1  0  0  0
 55 57  1  0  0  0
 55128  1  0  0  0
 56 69  2  0  0  0
 57 58  2  0  0  0
 57129  1  0  0  0
 58130  1  0  0  0
 59 60  1  0  0  0
 59 61  1  0  0  0
 59 62  1  0  0  0
 60131  1  0  0  0
 60132  1  0  0  0
 60133  1  0  0  0
 61134  1  0  0  0
 61135  1  0  0  0
 61136  1  0  0  0
 62137  1  0  0  0
 62138  1  0  0  0
 62139  1  0  0  0
 63 65  1  0  0  0
 63140  1  0  0  0
 63141  1  0  0  0
 63142  1  0  0  0
 64143  1  0  0  0
 65144  1  0  0  0
 68 81  1  0  0  0
 71 72  2  0  0  0
 71 74  1  0  0  0
 71145  1  0  0  0
 72 82  1  0  0  0
 72146  1  0  0  0
 73 74  2  0  0  0
 73 75  1  0  0  0
 73 77  1  0  0  0
 74 83  1  0  0  0
 75 79  1  0  0  0
 75 82  2  0  0  0
 76 81  1  0  0  0
 76 83  1  0  0  0
 76 85  2  0  0  0
 77147  1  0  0  0
 77148  1  0  0  0
 77149  1  0  0  0
 78 80  1  0  0  0
 78150  1  0  0  0
 78151  1  0  0  0
 78152  1  0  0  0
 79 84  1  0  0  0
 79153  1  0  0  0
 79154  1  0  0  0
 80155  1  0  0  0
 80156  1  0  0  0
 80 81  1  0  0  0
 81157  1  0  0  0
 83158  1  0  0  0
 84159  1  0  0  0
M  ISO  4   1 100  68 101  81 101  84 100
M  END
> <chiral flag>
0

> <version>
0

> <s_m_source_file>
/data/baiqing/PycharmProjects/Reinvent-master-3.2/result/LINK_invent/BTK/process_docking_weight1_custom_product_contain_oxygen_bond_distance_aromatic_linkinvent_7_9_3/rearranged_h_0194.sdf

> <i_m_source_file_index>
61

> <r_mmod_Potential_Energy-OPLS-2005>
-66.0312118530273

> <r_mmod_Stretch_Energy-OPLS-2005>
136.512710571289

> <r_mmod_Bend_Energy-OPLS-2005>
176.290390014648

> <r_mmod_Torsional_Energy-OPLS-2005>
247.522552490234

> <r_mmod_Improper_Torsional_Energy-OPLS-2005>
6.580162525177

> <r_mmod_Van_der_Waal_Energy-OPLS-2005>
142.430084228516

> <r_mmod_Electrostatic_Energy-OPLS-2005>
-605.567138671875

> <r_mmod_Solvation_Energy-OPLS-2005>
-269.599639892578

> <b_mmod_Minimization_Converged-OPLS-2005>
0

> <r_mmod_RMS_Derivative-OPLS-2005>
2.39509582519531

$$$$
61
                    3D
 Structure written by MMmdl.
171179  0  0  1  0            999 V2000
  -30.7674  -14.4063   20.6252 C   0  0  0  0  0  0
  -30.4075  -12.2853   19.4113 C   0  0  0  0  0  0
  -29.4826  -12.4976   18.1965 C   0  0  0  0  0  0
  -28.0057  -12.3674   18.6144 C   0  0  0  0  0  0
  -27.6602  -13.2063   19.8736 C   0  0  2  0  0  0
  -28.7022  -12.9827   20.9949 C   0  0  0  0  0  0
  -25.2580  -13.8162   20.5677 C   0  0  0  0  0  0
  -24.1838  -13.0437   20.9188 C   0  0  0  0  0  0
  -24.6391  -11.6897   20.8749 C   0  0  0  0  0  0
  -23.9061  -10.4284   21.0411 C   0  0  0  0  0  0
  -24.3614   -9.4198   21.9192 C   0  0  0  0  0  0
  -23.6291   -8.2243   22.0762 C   0  0  0  0  0  0
  -22.4277   -8.0277   21.3545 C   0  0  0  0  0  0
  -21.9913   -9.0257   20.4648 C   0  0  0  0  0  0
  -22.7239  -10.2127   20.3059 C   0  0  0  0  0  0
  -21.6842   -6.0738   22.5276 C   0  0  0  0  0  0
  -21.4008   -6.5641   23.8213 C   0  0  0  0  0  0
  -21.3656   -5.6797   24.9178 C   0  0  0  0  0  0
  -21.6041   -4.3056   24.7231 C   0  0  0  0  0  0
  -21.8819   -3.8148   23.4349 C   0  0  0  0  0  0
  -21.9194   -4.6964   22.3400 C   0  0  0  0  0  0
  -22.7860  -13.5233   21.1845 C   0  0  0  0  0  0
  -22.1658   -4.2154   21.0976 F   0  0  0  0  0  0
  -21.5635   -3.4538   25.7743 F   0  0  0  0  0  0
  -30.0389  -13.2683   20.4459 N   0  0  0  0  0  0
  -26.3015  -12.9329   20.3368 N   0  0  0  0  0  0
  -25.9318  -11.6486   20.5780 N   0  0  0  0  0  0
  -22.0491  -12.8222   22.0385 N   0  0  0  0  0  0
  -25.4316  -15.1880   20.4053 N   0  0  0  0  0  0
  -31.8563  -14.5742   20.0518 O   0  0  0  0  0  0
  -21.6636   -6.8885   21.4237 O   0  0  0  0  0  0
  -22.3550  -14.5547   20.6699 O   0  0  0  0  0  0
  -24.6137  -31.8695   23.2072 C   0  0  0  0  0  0
  -25.9051  -32.4817   23.8368 C   0  0  1  0  0  0
  -27.2524  -27.4466   20.1120 C   0  0  0  0  0  0
  -25.5916  -33.8613   24.2305 N   0  0  0  0  0  0
  -23.3996  -30.4894   21.5478 C   0  0  2  0  0  0
  -24.8490  -28.9514   20.1170 C   0  0  0  0  0  0
  -22.7407  -29.4642   22.4992 C   0  0  0  0  0  0
  -18.0266  -28.1379   22.8493 C   0  0  0  0  0  0
  -24.1490  -36.7303   23.2635 C   0  0  0  0  0  0
  -25.9256  -30.8381   21.3581 C   0  0  0  0  0  0
  -26.0047  -29.4727   20.7087 C   0  0  0  0  0  0
  -27.2042  -28.7290   20.7003 C   0  0  0  0  0  0
  -26.0720  -26.9260   19.5300 C   0  0  0  0  0  0
  -24.8766  -27.6745   19.5271 C   0  0  0  0  0  0
  -23.6091  -29.8182   20.1629 C   0  0  0  0  0  0
  -25.4105  -36.3109   24.0336 C   0  0  1  0  0  0
  -20.5855  -28.3663   23.1330 C   0  0  2  0  0  0
  -20.6760  -26.9412   22.5407 C   0  0  0  0  0  0
  -19.5736  -26.6407   21.5210 C   0  0  0  0  0  0
  -18.1910  -26.7922   22.1620 C   0  0  0  0  0  0
  -19.1518  -28.8837   23.2895 C   0  0  0  0  0  0
  -18.9452  -30.1436   23.8919 C   0  0  0  0  0  0
  -17.6461  -30.6590   24.0577 C   0  0  0  0  0  0
  -25.9041  -34.9484   23.5117 C   0  0  0  0  0  0
  -16.5351  -29.9099   23.6330 C   0  0  0  0  0  0
  -16.7254  -28.6510   23.0356 C   0  0  0  0  0  0
  -26.4471  -31.6590   25.0699 C   0  0  0  0  0  0
  -25.3739  -31.3697   26.1458 C   0  0  0  0  0  0
  -27.0281  -30.3036   24.6037 C   0  0  0  0  0  0
  -27.6062  -32.4293   25.7468 C   0  0  0  0  0  0
  -27.5578  -37.1788   24.8458 C   0  0  0  0  0  0
  -21.4132  -29.3032   22.3749 N   0  0  0  0  0  0
  -26.4286  -37.3798   23.9420 N   0  0  0  0  0  0
  -24.6642  -31.0795   22.0971 N   0  0  0  0  0  0
  -23.4189  -28.8188   23.3030 O   0  0  0  0  0  0
  -28.4715  -26.7953   20.1143 O   0  0  0  0  0  0
  -26.5620  -34.8937   22.4684 O   0  0  0  0  0  0
  -23.5337  -32.1484   23.7464 O   0  0  0  0  0  0
  -31.8907  -19.1927   22.2640 C   0  0  0  0  0  0
  -29.9693  -17.6922   22.2560 C   0  0  0  0  0  0
  -30.5285  -18.9626   22.5457 C   0  0  0  0  0  0
  -32.6439  -18.1558   21.6880 C   0  0  0  0  0  0
  -30.7676  -16.6634   21.6889 C   0  0  0  0  0  0
  -34.0634  -18.2372   21.3431 C   0  0  0  0  0  0
  -36.2998  -21.0220   20.1129 C   0  0  0  0  0  0
  -28.9482  -22.2761   22.3541 C   0  0  0  0  0  0
  -28.4712  -24.6391   21.3321 C   0  0  0  0  0  0
  -28.9874  -20.7470   22.0795 C   0  0  0  0  0  0
  -35.9907  -19.5533   20.4202 C   0  0  0  0  0  0
  -28.5540  -25.3739   19.9722 C   0  0  0  0  0  0
  -28.3239  -23.0997   21.1920 C   0  0  2  0  0  0
  -32.0689  -16.9635   21.4326 N   0  3  0  0  0  0
  -34.8196  -17.1497   21.5460 N   0  0  0  0  0  0
  -29.7421  -19.9965   23.0851 N   0  0  0  0  0  0
  -30.2205  -15.3655   21.4018 N   0  0  0  0  0  0
  -34.5884  -19.3567   20.8156 N   0  3  0  0  0  0
  -26.9396  -22.8044   21.0929 O   0  0  0  0  0  0
  -31.4531  -12.3570   19.1040 H   0  0  0  0  0  0
  -30.2897  -11.2733   19.8019 H   0  0  0  0  0  0
  -29.7081  -11.7661   17.4190 H   0  0  0  0  0  0
  -29.6594  -13.4781   17.7527 H   0  0  0  0  0  0
  -27.8095  -11.3127   18.8074 H   0  0  0  0  0  0
  -27.3529  -12.6487   17.7861 H   0  0  0  0  0  0
  -27.7055  -14.2538   19.5762 H   0  0  0  0  0  0
  -28.6700  -11.9456   21.3342 H   0  0  0  0  0  0
  -28.4602  -13.5795   21.8750 H   0  0  0  0  0  0
  -25.2758   -9.5674   22.4767 H   0  0  0  0  0  0
  -23.9995   -7.4632   22.7486 H   0  0  0  0  0  0
  -21.0848   -8.8770   19.8955 H   0  0  0  0  0  0
  -22.3702  -10.9670   19.6169 H   0  0  0  0  0  0
  -21.1986   -7.6149   23.9715 H   0  0  0  0  0  0
  -21.1477   -6.0527   25.9082 H   0  0  0  0  0  0
  -22.0600   -2.7609   23.2847 H   0  0  0  0  0  0
  -22.4085  -11.9859   22.4746 H   0  0  0  0  0  0
  -21.1112  -13.1251   22.2593 H   0  0  0  0  0  0
  -24.6590  -15.8398   20.4972 H   0  0  0  0  0  0
  -26.2702  -15.6205   20.0373 H   0  0  0  0  0  0
  -26.7134  -32.5544   23.1152 H   0  0  0  0  0  0
  -25.0060  -33.9754   25.0446 H   0  0  0  0  0  0
  -22.6864  -31.3044   21.4055 H   0  0  0  0  0  0
  -23.3769  -35.9619   23.3289 H   0  0  0  0  0  0
  -24.3596  -36.8925   22.2050 H   0  0  0  0  0  0
  -23.7210  -37.6481   23.6667 H   0  0  0  0  0  0
  -26.0319  -31.6046   20.5881 H   0  0  0  0  0  0
  -26.8126  -30.8929   21.9753 H   0  0  0  0  0  0
  -28.0997  -29.1329   21.1531 H   0  0  0  0  0  0
  -26.0488  -25.9541   19.0640 H   0  0  0  0  0  0
  -23.9883  -27.2586   19.0716 H   0  0  0  0  0  0
  -23.7156  -30.5960   19.4048 H   0  0  0  0  0  0
  -22.7335  -29.2386   19.8653 H   0  0  0  0  0  0
  -25.1266  -36.1975   25.0825 H   0  0  0  0  0  0
  -20.9905  -28.3243   24.1473 H   0  0  0  0  0  0
  -20.5712  -26.2275   23.3592 H   0  0  0  0  0  0
  -21.6620  -26.7498   22.1179 H   0  0  0  0  0  0
  -19.6926  -25.6333   21.1216 H   0  0  0  0  0  0
  -19.6683  -27.3248   20.6775 H   0  0  0  0  0  0
  -17.4180  -26.6699   21.4023 H   0  0  0  0  0  0
  -18.0296  -26.0055   22.9008 H   0  0  0  0  0  0
  -19.7941  -30.7213   24.2343 H   0  0  0  0  0  0
  -17.5035  -31.6287   24.5159 H   0  0  0  0  0  0
  -15.5352  -30.3014   23.7647 H   0  0  0  0  0  0
  -15.8652  -28.0841   22.7073 H   0  0  0  0  0  0
  -24.5885  -30.7081   25.7785 H   0  0  0  0  0  0
  -24.8978  -32.2863   26.4958 H   0  0  0  0  0  0
  -25.8094  -30.8818   27.0191 H   0  0  0  0  0  0
  -26.2795  -29.6806   24.1138 H   0  0  0  0  0  0
  -27.4106  -29.7259   25.4458 H   0  0  0  0  0  0
  -27.8616  -30.4341   23.9132 H   0  0  0  0  0  0
  -27.2700  -33.3607   26.2035 H   0  0  0  0  0  0
  -28.3890  -32.6818   25.0301 H   0  0  0  0  0  0
  -28.0710  -31.8419   26.5387 H   0  0  0  0  0  0
  -28.2559  -38.0123   24.7562 H   0  0  0  0  0  0
  -28.1102  -36.2653   24.6215 H   0  0  0  0  0  0
  -27.2306  -37.1345   25.8861 H   0  0  0  0  0  0
  -20.9318  -29.8743   21.6946 H   0  0  0  0  0  0
  -26.0183  -38.2866   24.1475 H   0  0  0  0  0  0
  -32.3579  -20.1415   22.4810 H   0  0  0  0  0  0
  -28.9269  -17.5125   22.4727 H   0  0  0  0  0  0
  -37.3721  -21.1664   19.9796 H   0  0  0  0  0  0
  -35.9786  -21.6751   20.9249 H   0  0  0  0  0  0
  -35.8075  -21.3467   19.1961 H   0  0  0  0  0  0
  -29.9721  -22.6223   22.5063 H   0  0  0  0  0  0
  -28.4294  -22.4866   23.2913 H   0  0  0  0  0  0
  -27.6569  -25.0490   21.9326 H   0  0  0  0  0  0
  -29.3842  -24.8752   21.8827 H   0  0  0  0  0  0
  -29.4124  -20.5693   21.0889 H   0  0  0  0  0  0
  -27.9692  -20.3519   22.0475 H   0  0  0  0  0  0
  -36.6268  -19.2202   21.2404 H   0  0  0  0  0  0
  -36.2254  -18.9269   19.5589 H   0  0  0  0  0  0
  -27.8574  -24.9670   19.2441 H   0  0  0  0  0  0
  -29.5400  -25.1750   19.5475 H   0  0  0  0  0  0
  -28.8048  -22.7912   20.2609 H   0  0  0  0  0  0
  -32.6442  -16.2497   20.9663 H   0  0  0  0  0  0
  -34.4238  -16.3826   22.0654 H   0  0  0  0  0  0
  -35.7792  -17.0783   21.2542 H   0  0  0  0  0  0
  -30.2643  -20.6001   23.7137 H   0  0  0  0  0  0
  -29.3160  -15.1466   21.7811 H   0  0  0  0  0  0
  -33.9499  -20.1079   20.5967 H   0  0  0  0  0  0
  -26.8405  -21.8730   20.9210 H   0  0  0  0  0  0
  1 25  1  0  0  0
  1 30  2  0  0  0
  1 87  1  0  0  0
  2  3  1  0  0  0
  2 25  1  0  0  0
  2 90  1  0  0  0
  2 91  1  0  0  0
  3  4  1  0  0  0
  3 92  1  0  0  0
  3 93  1  0  0  0
  4  5  1  0  0  0
  4 94  1  0  0  0
  4 95  1  0  0  0
  5  6  1  0  0  0
  5 26  1  0  0  0
  5 96  1  0  0  0
  6 25  1  0  0  0
  6 97  1  0  0  0
  6 98  1  0  0  0
  7  8  2  0  0  0
  7 26  1  0  0  0
  7 29  1  0  0  0
  8  9  1  0  0  0
  8 22  1  0  0  0
  9 10  1  0  0  0
  9 27  2  0  0  0
 10 11  2  0  0  0
 10 15  1  0  0  0
 11 12  1  0  0  0
 11 99  1  0  0  0
 12 13  2  0  0  0
 12100  1  0  0  0
 13 14  1  0  0  0
 13 31  1  0  0  0
 14 15  2  0  0  0
 14101  1  0  0  0
 15102  1  0  0  0
 16 17  2  0  0  0
 16 21  1  0  0  0
 16 31  1  0  0  0
 17 18  1  0  0  0
 17103  1  0  0  0
 18 19  2  0  0  0
 18104  1  0  0  0
 19 20  1  0  0  0
 19 24  1  0  0  0
 20 21  2  0  0  0
 20105  1  0  0  0
 21 23  1  0  0  0
 22 28  1  0  0  0
 22 32  2  0  0  0
 26 27  1  0  0  0
 28106  1  0  0  0
 28107  1  0  0  0
 29108  1  0  0  0
 29109  1  0  0  0
 33 34  1  0  0  0
 33 66  1  0  0  0
 33 70  2  0  0  0
 34 36  1  0  0  0
 34 59  1  0  0  0
 34110  1  0  0  0
 35 44  2  0  0  0
 35 45  1  0  0  0
 35 68  1  0  0  0
 36 56  1  0  0  0
 36111  1  0  0  0
 37 39  1  0  0  0
 37 47  1  0  0  0
 37 66  1  0  0  0
 37112  1  0  0  0
 38 43  2  0  0  0
 38 46  1  0  0  0
 38 47  1  0  0  0
 39 64  1  0  0  0
 39 67  2  0  0  0
 40 52  1  0  0  0
 40 53  2  0  0  0
 40 58  1  0  0  0
 41113  1  0  0  0
 41114  1  0  0  0
 41115  1  0  0  0
 41 48  1  0  0  0
 42 43  1  0  0  0
 42 66  1  0  0  0
 42116  1  0  0  0
 42117  1  0  0  0
 43 44  1  0  0  0
 44118  1  0  0  0
 45 46  2  0  0  0
 45119  1  0  0  0
 46120  1  0  0  0
 47121  1  0  0  0
 47122  1  0  0  0
 48 56  1  0  0  0
 48 65  1  0  0  0
 48123  1  0  0  0
 49 50  1  0  0  0
 49 53  1  0  0  0
 49 64  1  0  0  0
 49124  1  0  0  0
 50 51  1  0  0  0
 50125  1  0  0  0
 50126  1  0  0  0
 51 52  1  0  0  0
 51127  1  0  0  0
 51128  1  0  0  0
 52129  1  0  0  0
 52130  1  0  0  0
 53 54  1  0  0  0
 54 55  2  0  0  0
 54131  1  0  0  0
 55 57  1  0  0  0
 55132  1  0  0  0
 56 69  2  0  0  0
 57 58  2  0  0  0
 57133  1  0  0  0
 58134  1  0  0  0
 59 60  1  0  0  0
 59 61  1  0  0  0
 59 62  1  0  0  0
 60135  1  0  0  0
 60136  1  0  0  0
 60137  1  0  0  0
 61138  1  0  0  0
 61139  1  0  0  0
 61140  1  0  0  0
 62141  1  0  0  0
 62142  1  0  0  0
 62143  1  0  0  0
 63 65  1  0  0  0
 63144  1  0  0  0
 63145  1  0  0  0
 63146  1  0  0  0
 64147  1  0  0  0
 65148  1  0  0  0
 68 82  1  0  0  0
 71 73  2  0  0  0
 71 74  1  0  0  0
 71149  1  0  0  0
 72 73  1  0  0  0
 72 75  2  0  0  0
 72150  1  0  0  0
 73 86  1  0  0  0
 74 76  1  0  0  0
 74 84  2  0  0  0
 75 84  1  0  0  0
 75 87  1  0  0  0
 76 85  1  0  0  0
 76 88  2  0  0  0
 77 81  1  0  0  0
 77151  1  0  0  0
 77152  1  0  0  0
 77153  1  0  0  0
 78 80  1  0  0  0
 78 83  1  0  0  0
 78154  1  0  0  0
 78155  1  0  0  0
 79 82  1  0  0  0
 79 83  1  0  0  0
 79156  1  0  0  0
 79157  1  0  0  0
 80 86  1  0  0  0
 80158  1  0  0  0
 80159  1  0  0  0
 81 88  1  0  0  0
 81160  1  0  0  0
 81161  1  0  0  0
 82162  1  0  0  0
 82163  1  0  0  0
 83 89  1  0  0  0
 83164  1  0  0  0
 84165  1  0  0  0
 85166  1  0  0  0
 85167  1  0  0  0
 86168  1  0  0  0
 87169  1  0  0  0
 88170  1  0  0  0
 89171  1  0  0  0
M  CHG  2  84   1  88   1
M  ISO  4   1 100  68 101  82 101  87 100
M  END
> <chiral flag>
0

> <version>
0

> <s_m_source_file>
/data/baiqing/PycharmProjects/Reinvent-master-3.2/result/LINK_invent/BTK/process_docking_weight1_custom_product_contain_oxygen_bond_distance_aromatic_linkinvent_7_9_3/rearranged_h_0194.sdf

> <i_m_source_file_index>
62

> <r_mmod_Potential_Energy-OPLS-2005>
-360.633911132812

> <r_mmod_Stretch_Energy-OPLS-2005>
40.1237182617188

> <r_mmod_Bend_Energy-OPLS-2005>
112.045616149902

> <r_mmod_Torsional_Energy-OPLS-2005>
220.571395874023

> <r_mmod_Improper_Torsional_Energy-OPLS-2005>
7.29617881774902

> <r_mmod_Van_der_Waal_Energy-OPLS-2005>
164.554077148438

> <r_mmod_Electrostatic_Energy-OPLS-2005>
56.7021255493164

> <r_mmod_Solvation_Energy-OPLS-2005>
-972.972106933594

> <b_mmod_Minimization_Converged-OPLS-2005>
0

> <r_mmod_RMS_Derivative-OPLS-2005>
2.82114553451538

$$$$
62
                    3D
 Structure written by MMmdl.
166174  0  0  1  0            999 V2000
  -30.5842  -14.7490   20.4297 C   0  0  0  0  0  0
  -30.4463  -12.4548   19.4477 C   0  0  0  0  0  0
  -29.5043  -12.4863   18.2246 C   0  0  0  0  0  0
  -28.0306  -12.3119   18.6428 C   0  0  0  0  0  0
  -27.6392  -13.2217   19.8342 C   0  0  2  0  0  0
  -28.6903  -13.1598   20.9626 C   0  0  0  0  0  0
  -25.2522  -13.8211   20.5678 C   0  0  0  0  0  0
  -24.1814  -13.0468   20.9205 C   0  0  0  0  0  0
  -24.6396  -11.6930   20.8775 C   0  0  0  0  0  0
  -23.9076  -10.4325   21.0453 C   0  0  0  0  0  0
  -24.3633   -9.4244   21.9226 C   0  0  0  0  0  0
  -23.6326   -8.2265   22.0753 C   0  0  0  0  0  0
  -22.4299   -8.0318   21.3544 C   0  0  0  0  0  0
  -21.9953   -9.0285   20.4630 C   0  0  0  0  0  0
  -22.7275  -10.2163   20.3073 C   0  0  0  0  0  0
  -21.6858   -6.0773   22.5293 C   0  0  0  0  0  0
  -21.4013   -6.5665   23.8227 C   0  0  0  0  0  0
  -21.3633   -5.6806   24.9174 C   0  0  0  0  0  0
  -21.6027   -4.3067   24.7218 C   0  0  0  0  0  0
  -21.8818   -3.8173   23.4339 C   0  0  0  0  0  0
  -21.9204   -4.7006   22.3405 C   0  0  0  0  0  0
  -22.7827  -13.5237   21.1834 C   0  0  0  0  0  0
  -22.1678   -4.2189   21.0985 F   0  0  0  0  0  0
  -21.5614   -3.4546   25.7727 F   0  0  0  0  0  0
  -29.9860  -13.5131   20.3700 N   0  0  0  0  0  0
  -26.2930  -12.9385   20.3208 N   0  0  0  0  0  0
  -25.9308  -11.6536   20.5735 N   0  0  0  0  0  0
  -22.0435  -12.8259   22.0387 N   0  0  0  0  0  0
  -25.4256  -15.1927   20.4039 N   0  0  0  0  0  0
  -31.7936  -14.8608   20.2108 O   0  0  0  0  0  0
  -21.6650   -6.8920   21.4257 O   0  0  0  0  0  0
  -22.3514  -14.5543   20.6669 O   0  0  0  0  0  0
  -24.6339  -31.8518   23.1963 C   0  0  0  0  0  0
  -25.9165  -32.4746   23.8296 C   0  0  1  0  0  0
  -27.2088  -27.2445   20.1095 C   0  0  0  0  0  0
  -25.5951  -33.8547   24.2218 N   0  0  0  0  0  0
  -23.4280  -30.4777   21.5420 C   0  0  2  0  0  0
  -24.8683  -28.9125   20.1134 C   0  0  0  0  0  0
  -22.7510  -29.4610   22.4922 C   0  0  0  0  0  0
  -18.0285  -28.1381   22.8465 C   0  0  0  0  0  0
  -24.1482  -36.7278   23.2638 C   0  0  0  0  0  0
  -25.9777  -30.7526   21.3781 C   0  0  0  0  0  0
  -26.0452  -29.3733   20.7198 C   0  0  0  0  0  0
  -27.2216  -28.5528   20.7059 C   0  0  0  0  0  0
  -26.0097  -26.8489   19.4852 C   0  0  0  0  0  0
  -24.8548  -27.6556   19.4885 C   0  0  0  0  0  0
  -23.6463  -29.8118   20.1582 C   0  0  0  0  0  0
  -25.4120  -36.3076   24.0331 C   0  0  1  0  0  0
  -20.5892  -28.3712   23.1253 C   0  0  2  0  0  0
  -20.6788  -26.9433   22.5396 C   0  0  0  0  0  0
  -19.5763  -26.6375   21.5198 C   0  0  0  0  0  0
  -18.1942  -26.7923   22.1603 C   0  0  0  0  0  0
  -19.1541  -28.8860   23.2856 C   0  0  0  0  0  0
  -18.9458  -30.1452   23.8898 C   0  0  0  0  0  0
  -17.6462  -30.6585   24.0554 C   0  0  0  0  0  0
  -25.9064  -34.9441   23.5080 C   0  0  0  0  0  0
  -16.5348  -29.9083   23.6324 C   0  0  0  0  0  0
  -16.7282  -28.6488   23.0363 C   0  0  0  0  0  0
  -26.4518  -31.6590   25.0702 C   0  0  0  0  0  0
  -25.3730  -31.3717   26.1421 C   0  0  0  0  0  0
  -27.0396  -30.3021   24.6205 C   0  0  0  0  0  0
  -27.6056  -32.4358   25.7477 C   0  0  0  0  0  0
  -27.5586  -37.1816   24.8480 C   0  0  0  0  0  0
  -21.4213  -29.3060   22.3652 N   0  0  0  0  0  0
  -26.4292  -37.3783   23.9403 N   0  0  0  0  0  0
  -24.7015  -31.0460   22.0942 N   0  0  0  0  0  0
  -23.4203  -28.8133   23.3012 O   0  0  0  0  0  0
  -28.2887  -26.3355   20.0750 O   0  0  0  0  0  0
  -26.5644  -34.8932   22.4649 O   0  0  0  0  0  0
  -23.5487  -32.1349   23.7259 O   0  0  0  0  0  0
  -30.3470  -19.5000   21.7640 C   0  0  0  0  0  0
  -29.5378  -19.6475   20.6446 C   0  0  0  0  0  0
  -29.9523  -17.2772   20.6662 C   0  0  0  0  0  0
  -31.8590  -20.1980   23.7427 C   0  0  0  0  0  0
  -31.9172  -22.1481   19.9676 C   0  0  0  0  0  0
  -30.4359  -22.1394   17.9374 C   0  0  0  0  0  0
  -28.9846  -24.9902   21.9410 C   0  0  0  0  0  0
  -30.6886  -20.5294   22.8032 C   0  0  0  0  0  0
  -28.2179  -23.5127   19.9092 C   0  0  0  0  0  0
  -30.5855  -22.6408   19.3899 C   0  0  0  0  0  0
  -29.3214  -22.3524   20.2575 C   0  0  2  0  0  0
  -28.1167  -24.9614   20.6817 C   0  0  2  0  0  0
  -29.2913  -18.3360   20.0843 N   0  0  0  0  0  0
  -28.9154  -20.8842   20.1350 N   0  0  0  0  0  0
  -29.7377  -15.8461   20.3843 N   0  0  0  0  0  0
  -30.9334  -17.8463   21.9937 S   0  0  0  0  0  0
  -30.4352  -11.4797   19.9359 H   0  0  0  0  0  0
  -31.4797  -12.6164   19.1267 H   0  0  0  0  0  0
  -29.7844  -11.7030   17.5168 H   0  0  0  0  0  0
  -29.6238  -13.4404   17.7057 H   0  0  0  0  0  0
  -27.8833  -11.2643   18.9093 H   0  0  0  0  0  0
  -27.3706  -12.5041   17.7975 H   0  0  0  0  0  0
  -27.6318  -14.2364   19.4337 H   0  0  0  0  0  0
  -28.7262  -12.1620   21.3975 H   0  0  0  0  0  0
  -28.4304  -13.8472   21.7705 H   0  0  0  0  0  0
  -25.2770   -9.5703   22.4794 H   0  0  0  0  0  0
  -24.0030   -7.4649   22.7465 H   0  0  0  0  0  0
  -21.0879   -8.8804   19.8940 H   0  0  0  0  0  0
  -22.3761  -10.9705   19.6154 H   0  0  0  0  0  0
  -21.2008   -7.6168   23.9752 H   0  0  0  0  0  0
  -21.1434   -6.0519   25.9071 H   0  0  0  0  0  0
  -22.0616   -2.7648   23.2826 H   0  0  0  0  0  0
  -22.4026  -11.9930   22.4850 H   0  0  0  0  0  0
  -21.1015  -13.1227   22.2471 H   0  0  0  0  0  0
  -24.6629  -15.8526   20.5082 H   0  0  0  0  0  0
  -26.2512  -15.6200   20.0045 H   0  0  0  0  0  0
  -26.7220  -32.5371   23.1008 H   0  0  0  0  0  0
  -25.0134  -33.9668   25.0403 H   0  0  0  0  0  0
  -22.7263  -31.3025   21.3982 H   0  0  0  0  0  0
  -23.3773  -35.9584   23.3290 H   0  0  0  0  0  0
  -24.3549  -36.8915   22.2052 H   0  0  0  0  0  0
  -23.7215  -37.6462   23.6672 H   0  0  0  0  0  0
  -26.1276  -31.5126   20.6091 H   0  0  0  0  0  0
  -26.8506  -30.7941   22.0199 H   0  0  0  0  0  0
  -28.1249  -28.9003   21.1867 H   0  0  0  0  0  0
  -25.9666  -25.8875   18.9932 H   0  0  0  0  0  0
  -23.9543  -27.2972   19.0079 H   0  0  0  0  0  0
  -23.7870  -30.5895   19.4074 H   0  0  0  0  0  0
  -22.7565  -29.2621   19.8469 H   0  0  0  0  0  0
  -25.1310  -36.1908   25.0832 H   0  0  0  0  0  0
  -20.9969  -28.3282   24.1374 H   0  0  0  0  0  0
  -20.5671  -26.2331   23.3601 H   0  0  0  0  0  0
  -21.6664  -26.7463   22.1195 H   0  0  0  0  0  0
  -19.6937  -25.6271   21.1253 H   0  0  0  0  0  0
  -19.6699  -27.3162   20.6696 H   0  0  0  0  0  0
  -17.4214  -26.6658   21.4003 H   0  0  0  0  0  0
  -18.0363  -26.0063   22.8992 H   0  0  0  0  0  0
  -19.7939  -30.7257   24.2284 H   0  0  0  0  0  0
  -17.5023  -31.6270   24.5146 H   0  0  0  0  0  0
  -15.5356  -30.2992   23.7657 H   0  0  0  0  0  0
  -15.8673  -28.0806   22.7116 H   0  0  0  0  0  0
  -24.5901  -30.7091   25.7710 H   0  0  0  0  0  0
  -24.8932  -32.2874   26.4878 H   0  0  0  0  0  0
  -25.8034  -30.8838   27.0177 H   0  0  0  0  0  0
  -26.2970  -29.6721   24.1296 H   0  0  0  0  0  0
  -27.4168  -29.7342   25.4717 H   0  0  0  0  0  0
  -27.8803  -30.4321   23.9396 H   0  0  0  0  0  0
  -27.2658  -33.3669   26.2021 H   0  0  0  0  0  0
  -28.3867  -32.6907   25.0307 H   0  0  0  0  0  0
  -28.0725  -31.8511   26.5412 H   0  0  0  0  0  0
  -28.2632  -38.0086   24.7512 H   0  0  0  0  0  0
  -28.1052  -36.2628   24.6327 H   0  0  0  0  0  0
  -27.2298  -37.1499   25.8879 H   0  0  0  0  0  0
  -20.9410  -29.8798   21.6878 H   0  0  0  0  0  0
  -26.0180  -38.2863   24.1365 H   0  0  0  0  0  0
  -32.1664  -21.0986   24.2809 H   0  0  0  0  0  0
  -32.7348  -19.8511   23.1933 H   0  0  0  0  0  0
  -31.5880  -19.4369   24.4769 H   0  0  0  0  0  0
  -32.7498  -22.5066   19.3649 H   0  0  0  0  0  0
  -31.9822  -21.0595   19.9763 H   0  0  0  0  0  0
  -32.0898  -22.5283   20.9732 H   0  0  0  0  0  0
  -31.2587  -22.4913   17.3158 H   0  0  0  0  0  0
  -29.5159  -22.4891   17.4735 H   0  0  0  0  0  0
  -30.4362  -21.0494   17.8770 H   0  0  0  0  0  0
  -28.7164  -25.8387   22.5690 H   0  0  0  0  0  0
  -28.8466  -24.0923   22.5435 H   0  0  0  0  0  0
  -30.0395  -25.0877   21.6889 H   0  0  0  0  0  0
  -29.7932  -20.7573   23.3840 H   0  0  0  0  0  0
  -30.9593  -21.4548   22.3289 H   0  0  0  0  0  0
  -27.2512  -23.0358   20.0792 H   0  0  0  0  0  0
  -28.2055  -23.7021   18.8351 H   0  0  0  0  0  0
  -30.6892  -23.7269   19.3459 H   0  0  0  0  0  0
  -29.5599  -22.5017   21.3044 H   0  0  0  0  0  0
  -27.0945  -24.9464   21.0636 H   0  0  0  0  0  0
  -28.2803  -20.7174   19.3629 H   0  0  0  0  0  0
  -28.7763  -15.5955   20.2341 H   0  0  0  0  0  0
  1 25  1  0  0  0
  1 30  2  0  0  0
  1 85  1  0  0  0
  2  3  1  0  0  0
  2 25  1  0  0  0
  2 87  1  0  0  0
  2 88  1  0  0  0
  3  4  1  0  0  0
  3 89  1  0  0  0
  3 90  1  0  0  0
  4  5  1  0  0  0
  4 91  1  0  0  0
  4 92  1  0  0  0
  5  6  1  0  0  0
  5 26  1  0  0  0
  5 93  1  0  0  0
  6 25  1  0  0  0
  6 94  1  0  0  0
  6 95  1  0  0  0
  7  8  2  0  0  0
  7 26  1  0  0  0
  7 29  1  0  0  0
  8  9  1  0  0  0
  8 22  1  0  0  0
  9 10  1  0  0  0
  9 27  2  0  0  0
 10 11  2  0  0  0
 10 15  1  0  0  0
 11 12  1  0  0  0
 11 96  1  0  0  0
 12 13  2  0  0  0
 12 97  1  0  0  0
 13 14  1  0  0  0
 13 31  1  0  0  0
 14 15  2  0  0  0
 14 98  1  0  0  0
 15 99  1  0  0  0
 16 17  2  0  0  0
 16 21  1  0  0  0
 16 31  1  0  0  0
 17 18  1  0  0  0
 17100  1  0  0  0
 18 19  2  0  0  0
 18101  1  0  0  0
 19 20  1  0  0  0
 19 24  1  0  0  0
 20 21  2  0  0  0
 20102  1  0  0  0
 21 23  1  0  0  0
 22 28  1  0  0  0
 22 32  2  0  0  0
 26 27  1  0  0  0
 28103  1  0  0  0
 28104  1  0  0  0
 29105  1  0  0  0
 29106  1  0  0  0
 33 34  1  0  0  0
 33 66  1  0  0  0
 33 70  2  0  0  0
 34 36  1  0  0  0
 34 59  1  0  0  0
 34107  1  0  0  0
 35 44  2  0  0  0
 35 45  1  0  0  0
 35 68  1  0  0  0
 36 56  1  0  0  0
 36108  1  0  0  0
 37 39  1  0  0  0
 37 47  1  0  0  0
 37 66  1  0  0  0
 37109  1  0  0  0
 38 43  2  0  0  0
 38 46  1  0  0  0
 38 47  1  0  0  0
 39 64  1  0  0  0
 39 67  2  0  0  0
 40 52  1  0  0  0
 40 53  2  0  0  0
 40 58  1  0  0  0
 41110  1  0  0  0
 41111  1  0  0  0
 41112  1  0  0  0
 41 48  1  0  0  0
 42 43  1  0  0  0
 42 66  1  0  0  0
 42113  1  0  0  0
 42114  1  0  0  0
 43 44  1  0  0  0
 44115  1  0  0  0
 45 46  2  0  0  0
 45116  1  0  0  0
 46117  1  0  0  0
 47118  1  0  0  0
 47119  1  0  0  0
 48 56  1  0  0  0
 48 65  1  0  0  0
 48120  1  0  0  0
 49 50  1  0  0  0
 49 53  1  0  0  0
 49 64  1  0  0  0
 49121  1  0  0  0
 50 51  1  0  0  0
 50122  1  0  0  0
 50123  1  0  0  0
 51 52  1  0  0  0
 51124  1  0  0  0
 51125  1  0  0  0
 52126  1  0  0  0
 52127  1  0  0  0
 53 54  1  0  0  0
 54 55  2  0  0  0
 54128  1  0  0  0
 55 57  1  0  0  0
 55129  1  0  0  0
 56 69  2  0  0  0
 57 58  2  0  0  0
 57130  1  0  0  0
 58131  1  0  0  0
 59 60  1  0  0  0
 59 61  1  0  0  0
 59 62  1  0  0  0
 60132  1  0  0  0
 60133  1  0  0  0
 60134  1  0  0  0
 61135  1  0  0  0
 61136  1  0  0  0
 61137  1  0  0  0
 62138  1  0  0  0
 62139  1  0  0  0
 62140  1  0  0  0
 63 65  1  0  0  0
 63141  1  0  0  0
 63142  1  0  0  0
 63143  1  0  0  0
 64144  1  0  0  0
 65145  1  0  0  0
 68 82  1  0  0  0
 71 72  2  0  0  0
 71 78  1  0  0  0
 71 86  1  0  0  0
 72 83  1  0  0  0
 72 84  1  0  0  0
 73 83  2  0  0  0
 73 85  1  0  0  0
 73 86  1  0  0  0
 74 78  1  0  0  0
 74146  1  0  0  0
 74147  1  0  0  0
 74148  1  0  0  0
 75149  1  0  0  0
 75150  1  0  0  0
 75151  1  0  0  0
 75 80  1  0  0  0
 76 80  1  0  0  0
 76152  1  0  0  0
 76153  1  0  0  0
 76154  1  0  0  0
 77155  1  0  0  0
 77156  1  0  0  0
 77157  1  0  0  0
 77 82  1  0  0  0
 78158  1  0  0  0
 78159  1  0  0  0
 79 82  1  0  0  0
 79160  1  0  0  0
 79161  1  0  0  0
 79 81  1  0  0  0
 80 81  1  0  0  0
 80162  1  0  0  0
 81 84  1  0  0  0
 81163  1  0  0  0
 82164  1  0  0  0
 84165  1  0  0  0
 85166  1  0  0  0
M  ISO  4   1 100  68 101  82 101  85 100
M  END
> <chiral flag>
0

> <version>
0

> <s_m_source_file>
/data/baiqing/PycharmProjects/Reinvent-master-3.2/result/LINK_invent/BTK/process_docking_weight1_custom_product_contain_oxygen_bond_distance_aromatic_linkinvent_7_9_3/rearranged_h_0194.sdf

> <i_m_source_file_index>
63

> <r_mmod_Potential_Energy-OPLS-2005>
144.270141601562

> <r_mmod_Stretch_Energy-OPLS-2005>
129.839996337891

> <r_mmod_Bend_Energy-OPLS-2005>
197.575561523438

> <r_mmod_Torsional_Energy-OPLS-2005>
284.4169921875

> <r_mmod_Improper_Torsional_Energy-OPLS-2005>
11.7646970748901

> <r_mmod_Van_der_Waal_Energy-OPLS-2005>
117.679809570312

> <r_mmod_Electrostatic_Energy-OPLS-2005>
-484.976257324219

> <r_mmod_Solvation_Energy-OPLS-2005>
-206.283264160156

> <b_mmod_Minimization_Converged-OPLS-2005>
0

> <r_mmod_RMS_Derivative-OPLS-2005>
5.2970609664917

$$$$
63
                    3D
 Structure written by MMmdl.
157165  0  0  1  0            999 V2000
  -30.7148  -14.4294   20.6173 C   0  0  0  0  0  0
  -30.4252  -12.2950   19.4113 C   0  0  0  0  0  0
  -29.4947  -12.5163   18.2018 C   0  0  0  0  0  0
  -28.0154  -12.3724   18.6128 C   0  0  0  0  0  0
  -27.6653  -13.2005   19.8777 C   0  0  2  0  0  0
  -28.7034  -12.9502   20.9949 C   0  0  0  0  0  0
  -25.2609  -13.8146   20.5681 C   0  0  0  0  0  0
  -24.1848  -13.0433   20.9177 C   0  0  0  0  0  0
  -24.6384  -11.6897   20.8724 C   0  0  0  0  0  0
  -23.9039  -10.4294   21.0392 C   0  0  0  0  0  0
  -24.3595   -9.4215   21.9174 C   0  0  0  0  0  0
  -23.6282   -8.2243   22.0750 C   0  0  0  0  0  0
  -22.4265   -8.0278   21.3545 C   0  0  0  0  0  0
  -21.9895   -9.0247   20.4644 C   0  0  0  0  0  0
  -22.7214  -10.2127   20.3042 C   0  0  0  0  0  0
  -21.6851   -6.0727   22.5279 C   0  0  0  0  0  0
  -21.4010   -6.5631   23.8212 C   0  0  0  0  0  0
  -21.3659   -5.6784   24.9176 C   0  0  0  0  0  0
  -21.6046   -4.3050   24.7228 C   0  0  0  0  0  0
  -21.8824   -3.8144   23.4348 C   0  0  0  0  0  0
  -21.9196   -4.6956   22.3401 C   0  0  0  0  0  0
  -22.7871  -13.5243   21.1840 C   0  0  0  0  0  0
  -22.1667   -4.2144   21.0980 F   0  0  0  0  0  0
  -21.5626   -3.4530   25.7737 F   0  0  0  0  0  0
  -30.0411  -13.2587   20.4536 N   0  0  0  0  0  0
  -26.3034  -12.9302   20.3355 N   0  0  0  0  0  0
  -25.9306  -11.6466   20.5729 N   0  0  0  0  0  0
  -22.0501  -12.8242   22.0383 N   0  0  0  0  0  0
  -25.4349  -15.1859   20.4089 N   0  0  0  0  0  0
  -31.8173  -14.6390   20.0991 O   0  0  0  0  0  0
  -21.6639   -6.8869   21.4239 O   0  0  0  0  0  0
  -22.3572  -14.5557   20.6693 O   0  0  0  0  0  0
  -24.6099  -31.8713   23.2129 C   0  0  0  0  0  0
  -25.9009  -32.4849   23.8420 C   0  0  1  0  0  0
  -27.2552  -27.4735   20.1010 C   0  0  0  0  0  0
  -25.5878  -33.8644   24.2355 N   0  0  0  0  0  0
  -23.3972  -30.4926   21.5517 C   0  0  2  0  0  0
  -24.8497  -28.9603   20.1188 C   0  0  0  0  0  0
  -22.7387  -29.4670   22.5011 C   0  0  0  0  0  0
  -18.0261  -28.1363   22.8488 C   0  0  0  0  0  0
  -24.1482  -36.7328   23.2641 C   0  0  0  0  0  0
  -25.9192  -30.8506   21.3593 C   0  0  0  0  0  0
  -26.0024  -29.4830   20.7179 C   0  0  0  0  0  0
  -27.2049  -28.7471   20.7164 C   0  0  0  0  0  0
  -26.0893  -26.9632   19.4949 C   0  0  0  0  0  0
  -24.8849  -27.6941   19.5073 C   0  0  0  0  0  0
  -23.6065  -29.8196   20.1673 C   0  0  0  0  0  0
  -25.4101  -36.3133   24.0344 C   0  0  1  0  0  0
  -20.5850  -28.3653   23.1323 C   0  0  2  0  0  0
  -20.6748  -26.9391   22.5420 C   0  0  0  0  0  0
  -19.5734  -26.6377   21.5207 C   0  0  0  0  0  0
  -18.1910  -26.7911   22.1614 C   0  0  0  0  0  0
  -19.1508  -28.8821   23.2903 C   0  0  0  0  0  0
  -18.9444  -30.1424   23.8919 C   0  0  0  0  0  0
  -17.6449  -30.6577   24.0560 C   0  0  0  0  0  0
  -25.9021  -34.9493   23.5147 C   0  0  0  0  0  0
  -16.5339  -29.9081   23.6316 C   0  0  0  0  0  0
  -16.7251  -28.6493   23.0345 C   0  0  0  0  0  0
  -26.4456  -31.6603   25.0723 C   0  0  0  0  0  0
  -25.3735  -31.3688   26.1480 C   0  0  0  0  0  0
  -27.0270  -30.3056   24.6050 C   0  0  0  0  0  0
  -27.6050  -32.4303   25.7481 C   0  0  0  0  0  0
  -27.5581  -37.1815   24.8465 C   0  0  0  0  0  0
  -21.4120  -29.3026   22.3740 N   0  0  0  0  0  0
  -26.4291  -37.3813   23.9412 N   0  0  0  0  0  0
  -24.6601  -31.0844   22.1012 N   0  0  0  0  0  0
  -23.4176  -28.8221   23.3049 O   0  0  0  0  0  0
  -28.3852  -26.6880   20.0414 O   0  0  0  0  0  0
  -26.5582  -34.8938   22.4708 O   0  0  0  0  0  0
  -23.5302  -32.1446   23.7548 O   0  0  0  0  0  0
  -29.1886  -17.6009   21.5167 C   0  0  0  0  0  0
  -29.4033  -18.9893   21.6104 C   0  0  0  0  0  0
  -30.3088  -16.7489   21.4050 C   0  0  0  0  0  0
  -30.7376  -19.4432   21.6117 C   0  0  0  0  0  0
  -29.7767  -24.3792   21.1552 C   0  0  0  0  0  0
  -30.1270  -21.8466   21.4234 C   0  0  0  0  0  0
  -29.4232  -26.9380   20.9857 C   0  0  0  0  0  0
  -30.4273  -25.7681   20.9668 C   0  0  2  0  0  0
  -30.7877  -23.2387   21.3865 C   0  0  2  0  0  0
  -31.5679  -17.2654   21.4278 N   0  0  0  0  0  0
  -31.7775  -18.5831   21.5329 N   0  0  0  0  0  0
  -30.0315  -15.3667   21.2945 N   0  0  0  0  0  0
  -31.0944  -20.7887   21.7007 N   0  0  0  0  0  0
  -31.1448  -25.8290   19.7442 O   0  0  0  0  0  0
  -31.4182  -23.4410   22.5464 F   0  0  0  0  0  0
  -31.4692  -12.3978   19.1096 H   0  0  0  0  0  0
  -30.3266  -11.2769   19.7903 H   0  0  0  0  0  0
  -29.7341  -11.8082   17.4071 H   0  0  0  0  0  0
  -29.6656  -13.5105   17.7855 H   0  0  0  0  0  0
  -27.8229  -11.3151   18.7975 H   0  0  0  0  0  0
  -27.3666  -12.6586   17.7839 H   0  0  0  0  0  0
  -27.7188  -14.2522   19.5962 H   0  0  0  0  0  0
  -28.6731  -11.9058   21.3084 H   0  0  0  0  0  0
  -28.4569  -13.5210   21.8913 H   0  0  0  0  0  0
  -25.2737   -9.5705   22.4746 H   0  0  0  0  0  0
  -24.0004   -7.4637   22.7463 H   0  0  0  0  0  0
  -21.0829   -8.8753   19.8947 H   0  0  0  0  0  0
  -22.3668  -10.9657   19.6142 H   0  0  0  0  0  0
  -21.2000   -7.6137   23.9708 H   0  0  0  0  0  0
  -21.1474   -6.0516   25.9077 H   0  0  0  0  0  0
  -22.0604   -2.7607   23.2844 H   0  0  0  0  0  0
  -22.4098  -11.9896   22.4779 H   0  0  0  0  0  0
  -21.1117  -13.1281   22.2577 H   0  0  0  0  0  0
  -24.6630  -15.8380   20.5009 H   0  0  0  0  0  0
  -26.2774  -15.6182   20.0519 H   0  0  0  0  0  0
  -26.7092  -32.5596   23.1206 H   0  0  0  0  0  0
  -25.0032  -33.9821   25.0501 H   0  0  0  0  0  0
  -22.6831  -31.3069   21.4123 H   0  0  0  0  0  0
  -23.3744  -35.9663   23.3323 H   0  0  0  0  0  0
  -24.3579  -36.8915   22.2052 H   0  0  0  0  0  0
  -23.7236  -37.6541   23.6634 H   0  0  0  0  0  0
  -26.0151  -31.6119   20.5838 H   0  0  0  0  0  0
  -26.8127  -30.9180   21.9678 H   0  0  0  0  0  0
  -28.0824  -29.1755   21.1785 H   0  0  0  0  0  0
  -26.1166  -25.9928   19.0187 H   0  0  0  0  0  0
  -24.0001  -27.2814   19.0424 H   0  0  0  0  0  0
  -23.7085  -30.5921   19.4042 H   0  0  0  0  0  0
  -22.7343  -29.2313   19.8764 H   0  0  0  0  0  0
  -25.1278  -36.2005   25.0836 H   0  0  0  0  0  0
  -20.9945  -28.3217   24.1441 H   0  0  0  0  0  0
  -20.5653  -26.2260   23.3606 H   0  0  0  0  0  0
  -21.6616  -26.7433   22.1217 H   0  0  0  0  0  0
  -19.6897  -25.6296   21.1222 H   0  0  0  0  0  0
  -19.6677  -27.3196   20.6746 H   0  0  0  0  0  0
  -17.4190  -26.6672   21.4000 H   0  0  0  0  0  0
  -18.0300  -26.0039   22.8995 H   0  0  0  0  0  0
  -19.7929  -30.7212   24.2314 H   0  0  0  0  0  0
  -17.5017  -31.6260   24.5158 H   0  0  0  0  0  0
  -15.5340  -30.2990   23.7628 H   0  0  0  0  0  0
  -15.8649  -28.0813   22.7053 H   0  0  0  0  0  0
  -24.5891  -30.7061   25.7803 H   0  0  0  0  0  0
  -24.8939  -32.2832   26.4977 H   0  0  0  0  0  0
  -25.8095  -30.8810   27.0207 H   0  0  0  0  0  0
  -26.2781  -29.6837   24.1129 H   0  0  0  0  0  0
  -27.4077  -29.7272   25.4480 H   0  0  0  0  0  0
  -27.8607  -30.4388   23.9149 H   0  0  0  0  0  0
  -27.2691  -33.3591   26.2103 H   0  0  0  0  0  0
  -28.3834  -32.6882   25.0286 H   0  0  0  0  0  0
  -28.0748  -31.8393   26.5351 H   0  0  0  0  0  0
  -28.2609  -38.0104   24.7509 H   0  0  0  0  0  0
  -28.1048  -36.2630   24.6277 H   0  0  0  0  0  0
  -27.2295  -37.1472   25.8867 H   0  0  0  0  0  0
  -20.9281  -29.8732   21.6950 H   0  0  0  0  0  0
  -26.0183  -38.2894   24.1403 H   0  0  0  0  0  0
  -28.1814  -17.2103   21.5132 H   0  0  0  0  0  0
  -28.5660  -19.6662   21.6839 H   0  0  0  0  0  0
  -29.1548  -24.1465   20.2899 H   0  0  0  0  0  0
  -29.0971  -24.4158   22.0078 H   0  0  0  0  0  0
  -29.6403  -21.6500   20.4664 H   0  0  0  0  0  0
  -29.3492  -21.8307   22.1882 H   0  0  0  0  0  0
  -29.9282  -27.8800   20.7649 H   0  0  0  0  0  0
  -28.9974  -27.0209   21.9875 H   0  0  0  0  0  0
  -31.1404  -25.9327   21.7767 H   0  0  0  0  0  0
  -31.5505  -23.2672   20.6065 H   0  0  0  0  0  0
  -29.1213  -15.0761   21.6109 H   0  0  0  0  0  0
  -32.0811  -21.0220   21.6989 H   0  0  0  0  0  0
  -30.4989  -25.9238   19.0492 H   0  0  0  0  0  0
  1 25  1  0  0  0
  1 30  2  0  0  0
  1 82  1  0  0  0
  2  3  1  0  0  0
  2 25  1  0  0  0
  2 86  1  0  0  0
  2 87  1  0  0  0
  3  4  1  0  0  0
  3 88  1  0  0  0
  3 89  1  0  0  0
  4  5  1  0  0  0
  4 90  1  0  0  0
  4 91  1  0  0  0
  5  6  1  0  0  0
  5 26  1  0  0  0
  5 92  1  0  0  0
  6 25  1  0  0  0
  6 93  1  0  0  0
  6 94  1  0  0  0
  7  8  2  0  0  0
  7 26  1  0  0  0
  7 29  1  0  0  0
  8  9  1  0  0  0
  8 22  1  0  0  0
  9 10  1  0  0  0
  9 27  2  0  0  0
 10 11  2  0  0  0
 10 15  1  0  0  0
 11 12  1  0  0  0
 11 95  1  0  0  0
 12 13  2  0  0  0
 12 96  1  0  0  0
 13 14  1  0  0  0
 13 31  1  0  0  0
 14 15  2  0  0  0
 14 97  1  0  0  0
 15 98  1  0  0  0
 16 17  2  0  0  0
 16 21  1  0  0  0
 16 31  1  0  0  0
 17 18  1  0  0  0
 17 99  1  0  0  0
 18 19  2  0  0  0
 18100  1  0  0  0
 19 20  1  0  0  0
 19 24  1  0  0  0
 20 21  2  0  0  0
 20101  1  0  0  0
 21 23  1  0  0  0
 22 28  1  0  0  0
 22 32  2  0  0  0
 26 27  1  0  0  0
 28102  1  0  0  0
 28103  1  0  0  0
 29104  1  0  0  0
 29105  1  0  0  0
 33 34  1  0  0  0
 33 66  1  0  0  0
 33 70  2  0  0  0
 34 36  1  0  0  0
 34 59  1  0  0  0
 34106  1  0  0  0
 35 44  2  0  0  0
 35 45  1  0  0  0
 35 68  1  0  0  0
 36 56  1  0  0  0
 36107  1  0  0  0
 37 39  1  0  0  0
 37 47  1  0  0  0
 37 66  1  0  0  0
 37108  1  0  0  0
 38 43  2  0  0  0
 38 46  1  0  0  0
 38 47  1  0  0  0
 39 64  1  0  0  0
 39 67  2  0  0  0
 40 52  1  0  0  0
 40 53  2  0  0  0
 40 58  1  0  0  0
 41109  1  0  0  0
 41110  1  0  0  0
 41111  1  0  0  0
 41 48  1  0  0  0
 42 43  1  0  0  0
 42 66  1  0  0  0
 42112  1  0  0  0
 42113  1  0  0  0
 43 44  1  0  0  0
 44114  1  0  0  0
 45 46  2  0  0  0
 45115  1  0  0  0
 46116  1  0  0  0
 47117  1  0  0  0
 47118  1  0  0  0
 48 56  1  0  0  0
 48 65  1  0  0  0
 48119  1  0  0  0
 49 50  1  0  0  0
 49 53  1  0  0  0
 49 64  1  0  0  0
 49120  1  0  0  0
 50 51  1  0  0  0
 50121  1  0  0  0
 50122  1  0  0  0
 51 52  1  0  0  0
 51123  1  0  0  0
 51124  1  0  0  0
 52125  1  0  0  0
 52126  1  0  0  0
 53 54  1  0  0  0
 54 55  2  0  0  0
 54127  1  0  0  0
 55 57  1  0  0  0
 55128  1  0  0  0
 56 69  2  0  0  0
 57 58  2  0  0  0
 57129  1  0  0  0
 58130  1  0  0  0
 59 60  1  0  0  0
 59 61  1  0  0  0
 59 62  1  0  0  0
 60131  1  0  0  0
 60132  1  0  0  0
 60133  1  0  0  0
 61134  1  0  0  0
 61135  1  0  0  0
 61136  1  0  0  0
 62137  1  0  0  0
 62138  1  0  0  0
 62139  1  0  0  0
 63 65  1  0  0  0
 63140  1  0  0  0
 63141  1  0  0  0
 63142  1  0  0  0
 64143  1  0  0  0
 65144  1  0  0  0
 68 77  1  0  0  0
 71 72  2  0  0  0
 71 73  1  0  0  0
 71145  1  0  0  0
 72 74  1  0  0  0
 72146  1  0  0  0
 73 80  2  0  0  0
 73 82  1  0  0  0
 74 81  2  0  0  0
 74 83  1  0  0  0
 75 78  1  0  0  0
 75 79  1  0  0  0
 75147  1  0  0  0
 75148  1  0  0  0
 76 79  1  0  0  0
 76 83  1  0  0  0
 76149  1  0  0  0
 76150  1  0  0  0
 77 78  1  0  0  0
 77151  1  0  0  0
 77152  1  0  0  0
 78 84  1  0  0  0
 78153  1  0  0  0
 79 85  1  0  0  0
 79154  1  0  0  0
 80 81  1  0  0  0
 82155  1  0  0  0
 83156  1  0  0  0
 84157  1  0  0  0
M  ISO  4   1 100  68 101  77 101  82 100
M  END
> <chiral flag>
0

> <version>
0

> <s_m_source_file>
/data/baiqing/PycharmProjects/Reinvent-master-3.2/result/LINK_invent/BTK/process_docking_weight1_custom_product_contain_oxygen_bond_distance_aromatic_linkinvent_7_9_3/rearranged_h_0194.sdf

> <i_m_source_file_index>
64

> <r_mmod_Potential_Energy-OPLS-2005>
-231.907028198242

> <r_mmod_Stretch_Energy-OPLS-2005>
33.8523979187012

> <r_mmod_Bend_Energy-OPLS-2005>
108.278717041016

> <r_mmod_Torsional_Energy-OPLS-2005>
206.600387573242

> <r_mmod_Improper_Torsional_Energy-OPLS-2005>
3.93228363990784

> <r_mmod_Van_der_Waal_Energy-OPLS-2005>
161.531860351562

> <r_mmod_Electrostatic_Energy-OPLS-2005>
-484.402893066406

> <r_mmod_Solvation_Energy-OPLS-2005>
-269.308990478516

> <b_mmod_Minimization_Converged-OPLS-2005>
0

> <r_mmod_RMS_Derivative-OPLS-2005>
1.22248709201813

$$$$
64
                    3D
 Structure written by MMmdl.
167175  0  0  1  0            999 V2000
  -30.6274  -14.7468   20.4706 C   0  0  0  0  0  0
  -30.4370  -12.4633   19.4552 C   0  0  0  0  0  0
  -29.5048  -12.4984   18.2236 C   0  0  0  0  0  0
  -28.0305  -12.3243   18.6445 C   0  0  0  0  0  0
  -27.6383  -13.2248   19.8450 C   0  0  2  0  0  0
  -28.6902  -13.1691   20.9731 C   0  0  0  0  0  0
  -25.2525  -13.8163   20.5717 C   0  0  0  0  0  0
  -24.1813  -13.0411   20.9222 C   0  0  0  0  0  0
  -24.6389  -11.6896   20.8752 C   0  0  0  0  0  0
  -23.9063  -10.4284   21.0431 C   0  0  0  0  0  0
  -24.3632   -9.4206   21.9202 C   0  0  0  0  0  0
  -23.6314   -8.2244   22.0751 C   0  0  0  0  0  0
  -22.4292   -8.0286   21.3541 C   0  0  0  0  0  0
  -21.9924   -9.0254   20.4646 C   0  0  0  0  0  0
  -22.7243  -10.2133   20.3072 C   0  0  0  0  0  0
  -21.6859   -6.0746   22.5289 C   0  0  0  0  0  0
  -21.4014   -6.5647   23.8223 C   0  0  0  0  0  0
  -21.3652   -5.6798   24.9180 C   0  0  0  0  0  0
  -21.6049   -4.3061   24.7223 C   0  0  0  0  0  0
  -21.8820   -3.8154   23.4342 C   0  0  0  0  0  0
  -21.9198   -4.6976   22.3402 C   0  0  0  0  0  0
  -22.7842  -13.5207   21.1881 C   0  0  0  0  0  0
  -22.1669   -4.2165   21.0983 F   0  0  0  0  0  0
  -21.5630   -3.4546   25.7734 F   0  0  0  0  0  0
  -29.9858  -13.5291   20.3778 N   0  0  0  0  0  0
  -26.2929  -12.9351   20.3294 N   0  0  0  0  0  0
  -25.9311  -11.6498   20.5773 N   0  0  0  0  0  0
  -22.0499  -12.8180   22.0435 N   0  0  0  0  0  0
  -25.4172  -15.1895   20.4147 N   0  0  0  0  0  0
  -31.8411  -14.8084   20.2241 O   0  0  0  0  0  0
  -21.6647   -6.8887   21.4245 O   0  0  0  0  0  0
  -22.3540  -14.5525   20.6755 O   0  0  0  0  0  0
  -24.6300  -31.8542   23.2011 C   0  0  0  0  0  0
  -25.9128  -32.4749   23.8341 C   0  0  1  0  0  0
  -27.2201  -27.2732   20.1178 C   0  0  0  0  0  0
  -25.5921  -33.8545   24.2244 N   0  0  0  0  0  0
  -23.4255  -30.4775   21.5449 C   0  0  2  0  0  0
  -24.8717  -28.9238   20.1157 C   0  0  0  0  0  0
  -22.7487  -29.4597   22.4944 C   0  0  0  0  0  0
  -18.0270  -28.1400   22.8436 C   0  0  0  0  0  0
  -24.1502  -36.7303   23.2634 C   0  0  0  0  0  0
  -25.9711  -30.7683   21.3822 C   0  0  0  0  0  0
  -26.0436  -29.3905   20.7251 C   0  0  0  0  0  0
  -27.2207  -28.5742   20.7222 C   0  0  0  0  0  0
  -26.0294  -26.8799   19.4668 C   0  0  0  0  0  0
  -24.8679  -27.6732   19.4798 C   0  0  0  0  0  0
  -23.6438  -29.8101   20.1626 C   0  0  0  0  0  0
  -25.4134  -36.3076   24.0300 C   0  0  1  0  0  0
  -20.5873  -28.3687   23.1275 C   0  0  2  0  0  0
  -20.6784  -26.9421   22.5408 C   0  0  0  0  0  0
  -19.5778  -26.6389   21.5195 C   0  0  0  0  0  0
  -18.1937  -26.7934   22.1589 C   0  0  0  0  0  0
  -19.1530  -28.8861   23.2830 C   0  0  0  0  0  0
  -18.9475  -30.1463   23.8841 C   0  0  0  0  0  0
  -17.6482  -30.6588   24.0558 C   0  0  0  0  0  0
  -25.9080  -34.9436   23.5097 C   0  0  0  0  0  0
  -16.5364  -29.9091   23.6350 C   0  0  0  0  0  0
  -16.7262  -28.6528   23.0316 C   0  0  0  0  0  0
  -26.4499  -31.6568   25.0730 C   0  0  0  0  0  0
  -25.3732  -31.3691   26.1461 C   0  0  0  0  0  0
  -27.0348  -30.2985   24.6227 C   0  0  0  0  0  0
  -27.6064  -32.4313   25.7491 C   0  0  0  0  0  0
  -27.5585  -37.1798   24.8450 C   0  0  0  0  0  0
  -21.4205  -29.3032   22.3674 N   0  0  0  0  0  0
  -26.4302  -37.3784   23.9391 N   0  0  0  0  0  0
  -24.6949  -31.0514   22.0989 N   0  0  0  0  0  0
  -23.4194  -28.8158   23.3050 O   0  0  0  0  0  0
  -28.3134  -26.3792   20.1314 O   0  0  0  0  0  0
  -26.5673  -34.8904   22.4679 O   0  0  0  0  0  0
  -23.5460  -32.1356   23.7332 O   0  0  0  0  0  0
  -30.8039  -20.0052   21.5483 C   0  0  0  0  0  0
  -31.4876  -18.8934   22.0808 C   0  0  0  0  0  0
  -29.7620  -19.8238   20.6214 C   0  0  0  0  0  0
  -29.4576  -18.4401   20.2669 C   0  0  0  0  0  0
  -30.1864  -17.3067   20.8258 C   0  0  0  0  0  0
  -28.7339  -21.9705   24.5972 C   0  0  0  0  0  0
  -26.5381  -22.3469   22.3121 C   0  0  0  0  0  0
  -28.9222  -22.5833   23.2039 C   0  0  0  0  0  0
  -28.0515  -24.9650   20.5671 C   0  0  0  0  0  0
  -28.0175  -21.9616   22.1121 C   0  0  2  0  0  0
  -28.4907  -22.1996   20.6353 C   0  0  1  0  0  0
  -29.0065  -23.6974   20.2200 C   0  0  2  0  0  0
  -31.1673  -17.6296   21.7089 N   0  3  0  0  0  0
  -28.4352  -18.2009   19.3430 N   0  0  0  0  0  0
  -29.1298  -20.9745   20.0030 N   0  0  0  0  0  0
  -29.8473  -15.8904   20.5600 N   0  0  0  0  0  0
  -30.2543  -23.8953   20.8606 O   0  0  0  0  0  0
  -31.4731  -12.6008   19.1413 H   0  0  0  0  0  0
  -30.3990  -11.4901   19.9469 H   0  0  0  0  0  0
  -29.7853  -11.7161   17.5172 H   0  0  0  0  0  0
  -29.6262  -13.4451   17.6949 H   0  0  0  0  0  0
  -27.8864  -11.2757   18.9079 H   0  0  0  0  0  0
  -27.3708  -12.5223   17.7986 H   0  0  0  0  0  0
  -27.6246  -14.2434   19.4562 H   0  0  0  0  0  0
  -28.7322  -12.1699   21.4125 H   0  0  0  0  0  0
  -28.4223  -13.8462   21.7874 H   0  0  0  0  0  0
  -25.2771   -9.5688   22.4784 H   0  0  0  0  0  0
  -24.0034   -7.4618   22.7440 H   0  0  0  0  0  0
  -21.0873   -8.8750   19.8944 H   0  0  0  0  0  0
  -22.3690  -10.9677   19.6192 H   0  0  0  0  0  0
  -21.2002   -7.6156   23.9729 H   0  0  0  0  0  0
  -21.1477   -6.0530   25.9086 H   0  0  0  0  0  0
  -22.0606   -2.7626   23.2840 H   0  0  0  0  0  0
  -22.4154  -11.9827   22.4778 H   0  0  0  0  0  0
  -21.1123  -13.1188   22.2674 H   0  0  0  0  0  0
  -24.6314  -15.8219   20.5200 H   0  0  0  0  0  0
  -26.2335  -15.6470   20.0296 H   0  0  0  0  0  0
  -26.7164  -32.5388   23.1053 H   0  0  0  0  0  0
  -25.0006  -33.9672   25.0344 H   0  0  0  0  0  0
  -22.7232  -31.3012   21.3969 H   0  0  0  0  0  0
  -23.3760  -35.9643   23.3308 H   0  0  0  0  0  0
  -24.3593  -36.8962   22.2054 H   0  0  0  0  0  0
  -23.7264  -37.6500   23.6680 H   0  0  0  0  0  0
  -26.1108  -31.5296   20.6136 H   0  0  0  0  0  0
  -26.8500  -30.8187   22.0141 H   0  0  0  0  0  0
  -28.1157  -28.9184   21.2198 H   0  0  0  0  0  0
  -25.9828  -25.9399   18.9364 H   0  0  0  0  0  0
  -23.9725  -27.3152   18.9885 H   0  0  0  0  0  0
  -23.7679  -30.5857   19.4077 H   0  0  0  0  0  0
  -22.7628  -29.2441   19.8555 H   0  0  0  0  0  0
  -25.1323  -36.1936   25.0790 H   0  0  0  0  0  0
  -20.9894  -28.3270   24.1427 H   0  0  0  0  0  0
  -20.5705  -26.2291   23.3600 H   0  0  0  0  0  0
  -21.6654  -26.7492   22.1206 H   0  0  0  0  0  0
  -19.6982  -25.6299   21.1236 H   0  0  0  0  0  0
  -19.6748  -27.3178   20.6712 H   0  0  0  0  0  0
  -17.4218  -26.6612   21.3990 H   0  0  0  0  0  0
  -18.0371  -26.0098   22.9018 H   0  0  0  0  0  0
  -19.7969  -30.7262   24.2187 H   0  0  0  0  0  0
  -17.5063  -31.6264   24.5176 H   0  0  0  0  0  0
  -15.5364  -30.2980   23.7742 H   0  0  0  0  0  0
  -15.8652  -28.0860   22.7033 H   0  0  0  0  0  0
  -24.5923  -30.7024   25.7783 H   0  0  0  0  0  0
  -24.8890  -32.2842   26.4885 H   0  0  0  0  0  0
  -25.8063  -30.8874   27.0237 H   0  0  0  0  0  0
  -26.2928  -29.6718   24.1274 H   0  0  0  0  0  0
  -27.4037  -29.7268   25.4747 H   0  0  0  0  0  0
  -27.8805  -30.4246   23.9467 H   0  0  0  0  0  0
  -27.2684  -33.3617   26.2065 H   0  0  0  0  0  0
  -28.3871  -32.6872   25.0315 H   0  0  0  0  0  0
  -28.0739  -31.8442   26.5414 H   0  0  0  0  0  0
  -28.2588  -38.0106   24.7535 H   0  0  0  0  0  0
  -28.1095  -36.2639   24.6251 H   0  0  0  0  0  0
  -27.2297  -37.1434   25.8849 H   0  0  0  0  0  0
  -20.9407  -29.8732   21.6848 H   0  0  0  0  0  0
  -26.0190  -38.2858   24.1422 H   0  0  0  0  0  0
  -31.1291  -20.9979   21.8183 H   0  0  0  0  0  0
  -32.3021  -18.9963   22.7896 H   0  0  0  0  0  0
  -27.7383  -22.1629   24.9974 H   0  0  0  0  0  0
  -29.4502  -22.3956   25.3017 H   0  0  0  0  0  0
  -28.8946  -20.8915   24.5794 H   0  0  0  0  0  0
  -26.1844  -22.0743   23.3069 H   0  0  0  0  0  0
  -25.8912  -21.8256   21.6038 H   0  0  0  0  0  0
  -26.3664  -23.4147   22.1912 H   0  0  0  0  0  0
  -29.9682  -22.4452   22.9454 H   0  0  0  0  0  0
  -28.7668  -23.6608   23.2678 H   0  0  0  0  0  0
  -27.9331  -25.0249   21.6476 H   0  0  0  0  0  0
  -27.0741  -24.6596   20.2048 H   0  0  0  0  0  0
  -28.0230  -20.8854   22.2827 H   0  0  0  0  0  0
  -27.5516  -22.1642   20.0793 H   0  0  0  0  0  0
  -29.1844  -23.7067   19.1440 H   0  0  0  0  0  0
  -31.7051  -16.8683   22.1358 H   0  0  0  0  0  0
  -28.7407  -17.7252   18.5009 H   0  0  0  0  0  0
  -27.9362  -19.0376   19.0730 H   0  0  0  0  0  0
  -28.6794  -20.7139   19.1360 H   0  0  0  0  0  0
  -28.8667  -15.7417   20.4035 H   0  0  0  0  0  0
  -30.0930  -23.8425   21.7962 H   0  0  0  0  0  0
  1 25  1  0  0  0
  1 30  2  0  0  0
  1 86  1  0  0  0
  2  3  1  0  0  0
  2 25  1  0  0  0
  2 88  1  0  0  0
  2 89  1  0  0  0
  3  4  1  0  0  0
  3 90  1  0  0  0
  3 91  1  0  0  0
  4  5  1  0  0  0
  4 92  1  0  0  0
  4 93  1  0  0  0
  5  6  1  0  0  0
  5 26  1  0  0  0
  5 94  1  0  0  0
  6 25  1  0  0  0
  6 95  1  0  0  0
  6 96  1  0  0  0
  7  8  2  0  0  0
  7 26  1  0  0  0
  7 29  1  0  0  0
  8  9  1  0  0  0
  8 22  1  0  0  0
  9 10  1  0  0  0
  9 27  2  0  0  0
 10 11  2  0  0  0
 10 15  1  0  0  0
 11 12  1  0  0  0
 11 97  1  0  0  0
 12 13  2  0  0  0
 12 98  1  0  0  0
 13 14  1  0  0  0
 13 31  1  0  0  0
 14 15  2  0  0  0
 14 99  1  0  0  0
 15100  1  0  0  0
 16 17  2  0  0  0
 16 21  1  0  0  0
 16 31  1  0  0  0
 17 18  1  0  0  0
 17101  1  0  0  0
 18 19  2  0  0  0
 18102  1  0  0  0
 19 20  1  0  0  0
 19 24  1  0  0  0
 20 21  2  0  0  0
 20103  1  0  0  0
 21 23  1  0  0  0
 22 28  1  0  0  0
 22 32  2  0  0  0
 26 27  1  0  0  0
 28104  1  0  0  0
 28105  1  0  0  0
 29106  1  0  0  0
 29107  1  0  0  0
 33 34  1  0  0  0
 33 66  1  0  0  0
 33 70  2  0  0  0
 34 36  1  0  0  0
 34 59  1  0  0  0
 34108  1  0  0  0
 35 44  2  0  0  0
 35 45  1  0  0  0
 35 68  1  0  0  0
 36 56  1  0  0  0
 36109  1  0  0  0
 37 39  1  0  0  0
 37 47  1  0  0  0
 37 66  1  0  0  0
 37110  1  0  0  0
 38 43  2  0  0  0
 38 46  1  0  0  0
 38 47  1  0  0  0
 39 64  1  0  0  0
 39 67  2  0  0  0
 40 52  1  0  0  0
 40 53  2  0  0  0
 40 58  1  0  0  0
 41111  1  0  0  0
 41112  1  0  0  0
 41113  1  0  0  0
 41 48  1  0  0  0
 42 43  1  0  0  0
 42 66  1  0  0  0
 42114  1  0  0  0
 42115  1  0  0  0
 43 44  1  0  0  0
 44116  1  0  0  0
 45 46  2  0  0  0
 45117  1  0  0  0
 46118  1  0  0  0
 47119  1  0  0  0
 47120  1  0  0  0
 48 56  1  0  0  0
 48 65  1  0  0  0
 48121  1  0  0  0
 49 50  1  0  0  0
 49 53  1  0  0  0
 49 64  1  0  0  0
 49122  1  0  0  0
 50 51  1  0  0  0
 50123  1  0  0  0
 50124  1  0  0  0
 51 52  1  0  0  0
 51125  1  0  0  0
 51126  1  0  0  0
 52127  1  0  0  0
 52128  1  0  0  0
 53 54  1  0  0  0
 54 55  2  0  0  0
 54129  1  0  0  0
 55 57  1  0  0  0
 55130  1  0  0  0
 56 69  2  0  0  0
 57 58  2  0  0  0
 57131  1  0  0  0
 58132  1  0  0  0
 59 60  1  0  0  0
 59 61  1  0  0  0
 59 62  1  0  0  0
 60133  1  0  0  0
 60134  1  0  0  0
 60135  1  0  0  0
 61136  1  0  0  0
 61137  1  0  0  0
 61138  1  0  0  0
 62139  1  0  0  0
 62140  1  0  0  0
 62141  1  0  0  0
 63 65  1  0  0  0
 63142  1  0  0  0
 63143  1  0  0  0
 63144  1  0  0  0
 64145  1  0  0  0
 65146  1  0  0  0
 68 79  1  0  0  0
 71 72  2  0  0  0
 71 73  1  0  0  0
 71147  1  0  0  0
 72 83  1  0  0  0
 72148  1  0  0  0
 73 74  2  0  0  0
 73 85  1  0  0  0
 74 75  1  0  0  0
 74 84  1  0  0  0
 75 83  2  0  0  0
 75 86  1  0  0  0
 76 78  1  0  0  0
 76149  1  0  0  0
 76150  1  0  0  0
 76151  1  0  0  0
 77152  1  0  0  0
 77153  1  0  0  0
 77154  1  0  0  0
 77 80  1  0  0  0
 78 80  1  0  0  0
 78155  1  0  0  0
 78156  1  0  0  0
 79 82  1  0  0  0
 79157  1  0  0  0
 79158  1  0  0  0
 80 81  1  0  0  0
 80159  1  0  0  0
 81 82  1  0  0  0
 81 85  1  0  0  0
 81160  1  0  0  0
 82 87  1  0  0  0
 82161  1  0  0  0
 83162  1  0  0  0
 84163  1  0  0  0
 84164  1  0  0  0
 85165  1  0  0  0
 86166  1  0  0  0
 87167  1  0  0  0
M  CHG  1  83   1
M  ISO  4   1 100  68 101  79 101  86 100
M  END
> <chiral flag>
0

> <version>
0

> <s_m_source_file>
/data/baiqing/PycharmProjects/Reinvent-master-3.2/result/LINK_invent/BTK/process_docking_weight1_custom_product_contain_oxygen_bond_distance_aromatic_linkinvent_7_9_3/rearranged_h_0194.sdf

> <i_m_source_file_index>
65

> <r_mmod_Potential_Energy-OPLS-2005>
131.810653686523

> <r_mmod_Stretch_Energy-OPLS-2005>
124.521026611328

> <r_mmod_Bend_Energy-OPLS-2005>
192.604339599609

> <r_mmod_Torsional_Energy-OPLS-2005>
311.968536376953

> <r_mmod_Improper_Torsional_Energy-OPLS-2005>
15.1583051681519

> <r_mmod_Van_der_Waal_Energy-OPLS-2005>
138.829116821289

> <r_mmod_Electrostatic_Energy-OPLS-2005>
-287.845031738281

> <r_mmod_Solvation_Energy-OPLS-2005>
-447.197326660156

> <b_mmod_Minimization_Converged-OPLS-2005>
0

> <r_mmod_RMS_Derivative-OPLS-2005>
3.19645047187805

$$$$
65
                    3D
 Structure written by MMmdl.
156163  0  0  1  0            999 V2000
  -30.5349  -14.9669   20.4152 C   0  0  0  0  0  0
  -30.4356  -12.6005   19.4980 C   0  0  0  0  0  0
  -29.5185  -12.5352   18.2551 C   0  0  0  0  0  0
  -28.0523  -12.3194   18.6720 C   0  0  0  0  0  0
  -27.6266  -13.2482   19.8391 C   0  0  2  0  0  0
  -28.6692  -13.2899   20.9765 C   0  0  0  0  0  0
  -25.2438  -13.8191   20.5719 C   0  0  0  0  0  0
  -24.1767  -13.0422   20.9233 C   0  0  0  0  0  0
  -24.6391  -11.6912   20.8760 C   0  0  0  0  0  0
  -23.9084  -10.4288   21.0422 C   0  0  0  0  0  0
  -24.3635   -9.4203   21.9200 C   0  0  0  0  0  0
  -23.6301   -8.2240   22.0767 C   0  0  0  0  0  0
  -22.4283   -8.0284   21.3552 C   0  0  0  0  0  0
  -21.9925   -9.0260   20.4656 C   0  0  0  0  0  0
  -22.7255  -10.2137   20.3071 C   0  0  0  0  0  0
  -21.6856   -6.0733   22.5277 C   0  0  0  0  0  0
  -21.4019   -6.5642   23.8212 C   0  0  0  0  0  0
  -21.3661   -5.6795   24.9177 C   0  0  0  0  0  0
  -21.6052   -4.3058   24.7227 C   0  0  0  0  0  0
  -21.8821   -3.8149   23.4347 C   0  0  0  0  0  0
  -21.9200   -4.6962   22.3403 C   0  0  0  0  0  0
  -22.7794  -13.5189   21.1894 C   0  0  0  0  0  0
  -22.1668   -4.2144   21.0980 F   0  0  0  0  0  0
  -21.5629   -3.4545   25.7742 F   0  0  0  0  0  0
  -29.9428  -13.7043   20.3726 N   0  0  0  0  0  0
  -26.2873  -12.9435   20.3251 N   0  0  0  0  0  0
  -25.9319  -11.6565   20.5732 N   0  0  0  0  0  0
  -22.0463  -12.8176   22.0457 N   0  0  0  0  0  0
  -25.4042  -15.1919   20.4148 N   0  0  0  0  0  0
  -31.7399  -15.0301   20.1505 O   0  0  0  0  0  0
  -21.6653   -6.8877   21.4239 O   0  0  0  0  0  0
  -22.3475  -14.5496   20.6747 O   0  0  0  0  0  0
  -24.6444  -31.8424   23.1870 C   0  0  0  0  0  0
  -25.9207  -32.4681   23.8264 C   0  0  1  0  0  0
  -27.2159  -27.1252   20.1503 C   0  0  0  0  0  0
  -25.5958  -33.8491   24.2190 N   0  0  0  0  0  0
  -23.4476  -30.4602   21.5331 C   0  0  2  0  0  0
  -24.8975  -28.8852   20.1101 C   0  0  0  0  0  0
  -22.7576  -29.4528   22.4868 C   0  0  0  0  0  0
  -18.0307  -28.1393   22.8476 C   0  0  0  0  0  0
  -24.1498  -36.7260   23.2638 C   0  0  0  0  0  0
  -26.0040  -30.7123   21.3863 C   0  0  0  0  0  0
  -26.0748  -29.3215   20.7315 C   0  0  0  0  0  0
  -27.2345  -28.4573   20.7345 C   0  0  0  0  0  0
  -26.0109  -26.7926   19.4926 C   0  0  0  0  0  0
  -24.8796  -27.6356   19.4750 C   0  0  0  0  0  0
  -23.6743  -29.7880   20.1532 C   0  0  0  0  0  0
  -25.4124  -36.3024   24.0316 C   0  0  1  0  0  0
  -20.5915  -28.3712   23.1250 C   0  0  2  0  0  0
  -20.6782  -26.9415   22.5406 C   0  0  0  0  0  0
  -19.5761  -26.6378   21.5210 C   0  0  0  0  0  0
  -18.1947  -26.7929   22.1625 C   0  0  0  0  0  0
  -19.1562  -28.8873   23.2846 C   0  0  0  0  0  0
  -18.9475  -30.1468   23.8871 C   0  0  0  0  0  0
  -17.6472  -30.6580   24.0556 C   0  0  0  0  0  0
  -25.9068  -34.9396   23.5055 C   0  0  0  0  0  0
  -16.5362  -29.9070   23.6339 C   0  0  0  0  0  0
  -16.7292  -28.6491   23.0350 C   0  0  0  0  0  0
  -26.4531  -31.6542   25.0701 C   0  0  0  0  0  0
  -25.3731  -31.3713   26.1406 C   0  0  0  0  0  0
  -27.0385  -30.2937   24.6265 C   0  0  0  0  0  0
  -27.6067  -32.4303   25.7491 C   0  0  0  0  0  0
  -27.5575  -37.1786   24.8464 C   0  0  0  0  0  0
  -21.4261  -29.3033   22.3625 N   0  0  0  0  0  0
  -26.4289  -37.3737   23.9404 N   0  0  0  0  0  0
  -24.7184  -31.0271   22.0905 N   0  0  0  0  0  0
  -23.4219  -28.8080   23.3020 O   0  0  0  0  0  0
  -28.2673  -26.1349   20.2142 O   0  0  0  0  0  0
  -26.5661  -34.8896   22.4639 O   0  0  0  0  0  0
  -23.5571  -32.1299   23.7096 O   0  0  0  0  0  0
  -28.5322  -21.6887   20.3856 C   0  0  0  0  0  0
  -27.7344  -19.8093   17.9235 C   0  0  0  0  0  0
  -27.3233  -17.5117   18.7843 C   0  0  0  0  0  0
  -29.0113  -23.2792   20.3166 C   0  0  0  0  0  0
  -30.0728  -17.7122   20.5086 C   0  0  0  0  0  0
  -27.9738  -24.6020   20.1009 C   0  0  0  0  0  0
  -28.3634  -18.6429   18.7189 C   0  0  0  0  0  0
  -28.9780  -18.9644   20.1314 C   0  0  2  0  0  0
  -29.3387  -20.5174   20.2366 N   0  0  0  0  0  0
  -29.7533  -16.1515   20.5507 N   0  0  0  0  0  0
  -27.3309  -21.5226   20.5980 O   0  0  0  0  0  0
  -31.4704  -12.7541   19.1884 H   0  0  0  0  0  0
  -30.4224  -11.6509   20.0345 H   0  0  0  0  0  0
  -29.8417  -11.7364   17.5861 H   0  0  0  0  0  0
  -29.6015  -13.4642   17.6884 H   0  0  0  0  0  0
  -27.9461  -11.2770   18.9744 H   0  0  0  0  0  0
  -27.3897  -12.4581   17.8157 H   0  0  0  0  0  0
  -27.5841  -14.2478   19.4087 H   0  0  0  0  0  0
  -28.7611  -12.3193   21.4658 H   0  0  0  0  0  0
  -28.3652  -13.9972   21.7504 H   0  0  0  0  0  0
  -25.2786   -9.5682   22.4770 H   0  0  0  0  0  0
  -24.0024   -7.4629   22.7479 H   0  0  0  0  0  0
  -21.0860   -8.8769   19.8951 H   0  0  0  0  0  0
  -22.3712  -10.9679   19.6179 H   0  0  0  0  0  0
  -21.2010   -7.6151   23.9709 H   0  0  0  0  0  0
  -21.1478   -6.0533   25.9075 H   0  0  0  0  0  0
  -22.0600   -2.7611   23.2849 H   0  0  0  0  0  0
  -22.4107  -11.9830   22.4817 H   0  0  0  0  0  0
  -21.1087  -13.1190   22.2697 H   0  0  0  0  0  0
  -24.6210  -15.8283   20.5157 H   0  0  0  0  0  0
  -26.2248  -15.6321   20.0246 H   0  0  0  0  0  0
  -26.7271  -32.5288   23.0990 H   0  0  0  0  0  0
  -25.0092  -33.9608   25.0330 H   0  0  0  0  0  0
  -22.7491  -31.2848   21.3776 H   0  0  0  0  0  0
  -23.3759  -35.9589   23.3280 H   0  0  0  0  0  0
  -24.3594  -36.8916   22.2056 H   0  0  0  0  0  0
  -23.7263  -37.6452   23.6696 H   0  0  0  0  0  0
  -26.1552  -31.4604   20.6075 H   0  0  0  0  0  0
  -26.8781  -30.7692   22.0240 H   0  0  0  0  0  0
  -28.1291  -28.7832   21.2458 H   0  0  0  0  0  0
  -25.9077  -25.8384   19.0008 H   0  0  0  0  0  0
  -23.9821  -27.2997   18.9753 H   0  0  0  0  0  0
  -23.8105  -30.5605   19.3955 H   0  0  0  0  0  0
  -22.7900  -29.2271   19.8449 H   0  0  0  0  0  0
  -25.1314  -36.1845   25.0811 H   0  0  0  0  0  0
  -21.0001  -28.3291   24.1377 H   0  0  0  0  0  0
  -20.5693  -26.2315   23.3617 H   0  0  0  0  0  0
  -21.6648  -26.7427   22.1201 H   0  0  0  0  0  0
  -19.6922  -25.6287   21.1250 H   0  0  0  0  0  0
  -19.6704  -27.3188   20.6739 H   0  0  0  0  0  0
  -17.4215  -26.6677   21.4029 H   0  0  0  0  0  0
  -18.0339  -26.0077   22.9029 H   0  0  0  0  0  0
  -19.7946  -30.7289   24.2234 H   0  0  0  0  0  0
  -17.5017  -31.6267   24.5151 H   0  0  0  0  0  0
  -15.5356  -30.2958   23.7674 H   0  0  0  0  0  0
  -15.8691  -28.0799   22.7076 H   0  0  0  0  0  0
  -24.5955  -30.7006   25.7745 H   0  0  0  0  0  0
  -24.8872  -32.2875   26.4760 H   0  0  0  0  0  0
  -25.8045  -30.8961   27.0224 H   0  0  0  0  0  0
  -26.2983  -29.6672   24.1278 H   0  0  0  0  0  0
  -27.4004  -29.7222   25.4821 H   0  0  0  0  0  0
  -27.8894  -30.4166   23.9560 H   0  0  0  0  0  0
  -27.2667  -33.3641   26.1984 H   0  0  0  0  0  0
  -28.3928  -32.6802   25.0349 H   0  0  0  0  0  0
  -28.0674  -31.8474   26.5479 H   0  0  0  0  0  0
  -28.2573  -38.0096   24.7508 H   0  0  0  0  0  0
  -28.1091  -36.2630   24.6294 H   0  0  0  0  0  0
  -27.2295  -37.1425   25.8865 H   0  0  0  0  0  0
  -20.9480  -29.8746   21.6803 H   0  0  0  0  0  0
  -26.0152  -38.2804   24.1404 H   0  0  0  0  0  0
  -27.4226  -19.4792   16.9317 H   0  0  0  0  0  0
  -28.4347  -20.6276   17.7599 H   0  0  0  0  0  0
  -26.8444  -20.2002   18.4173 H   0  0  0  0  0  0
  -26.8471  -17.3508   17.8164 H   0  0  0  0  0  0
  -26.5360  -17.7456   19.5013 H   0  0  0  0  0  0
  -27.7640  -16.5596   19.0595 H   0  0  0  0  0  0
  -29.7853  -23.3409   19.5530 H   0  0  0  0  0  0
  -29.5297  -23.4513   21.2590 H   0  0  0  0  0  0
  -30.4774  -17.9440   21.4939 H   0  0  0  0  0  0
  -30.9242  -17.8170   19.8350 H   0  0  0  0  0  0
  -27.1287  -24.4259   20.7667 H   0  0  0  0  0  0
  -27.5720  -24.4619   19.0976 H   0  0  0  0  0  0
  -29.1828  -18.2888   18.0938 H   0  0  0  0  0  0
  -28.1699  -18.8662   20.8584 H   0  0  0  0  0  0
  -30.3233  -20.7152   20.1034 H   0  0  0  0  0  0
  -28.7812  -15.9487   20.7263 H   0  0  0  0  0  0
  1 25  1  0  0  0
  1 30  2  0  0  0
  1 80  1  0  0  0
  2  3  1  0  0  0
  2 25  1  0  0  0
  2 82  1  0  0  0
  2 83  1  0  0  0
  3  4  1  0  0  0
  3 84  1  0  0  0
  3 85  1  0  0  0
  4  5  1  0  0  0
  4 86  1  0  0  0
  4 87  1  0  0  0
  5  6  1  0  0  0
  5 26  1  0  0  0
  5 88  1  0  0  0
  6 25  1  0  0  0
  6 89  1  0  0  0
  6 90  1  0  0  0
  7  8  2  0  0  0
  7 26  1  0  0  0
  7 29  1  0  0  0
  8  9  1  0  0  0
  8 22  1  0  0  0
  9 10  1  0  0  0
  9 27  2  0  0  0
 10 11  2  0  0  0
 10 15  1  0  0  0
 11 12  1  0  0  0
 11 91  1  0  0  0
 12 13  2  0  0  0
 12 92  1  0  0  0
 13 14  1  0  0  0
 13 31  1  0  0  0
 14 15  2  0  0  0
 14 93  1  0  0  0
 15 94  1  0  0  0
 16 17  2  0  0  0
 16 21  1  0  0  0
 16 31  1  0  0  0
 17 18  1  0  0  0
 17 95  1  0  0  0
 18 19  2  0  0  0
 18 96  1  0  0  0
 19 20  1  0  0  0
 19 24  1  0  0  0
 20 21  2  0  0  0
 20 97  1  0  0  0
 21 23  1  0  0  0
 22 28  1  0  0  0
 22 32  2  0  0  0
 26 27  1  0  0  0
 28 98  1  0  0  0
 28 99  1  0  0  0
 29100  1  0  0  0
 29101  1  0  0  0
 33 34  1  0  0  0
 33 66  1  0  0  0
 33 70  2  0  0  0
 34 36  1  0  0  0
 34 59  1  0  0  0
 34102  1  0  0  0
 35 44  2  0  0  0
 35 45  1  0  0  0
 35 68  1  0  0  0
 36 56  1  0  0  0
 36103  1  0  0  0
 37 39  1  0  0  0
 37 47  1  0  0  0
 37 66  1  0  0  0
 37104  1  0  0  0
 38 43  2  0  0  0
 38 46  1  0  0  0
 38 47  1  0  0  0
 39 64  1  0  0  0
 39 67  2  0  0  0
 40 52  1  0  0  0
 40 53  2  0  0  0
 40 58  1  0  0  0
 41105  1  0  0  0
 41106  1  0  0  0
 41107  1  0  0  0
 41 48  1  0  0  0
 42 43  1  0  0  0
 42 66  1  0  0  0
 42108  1  0  0  0
 42109  1  0  0  0
 43 44  1  0  0  0
 44110  1  0  0  0
 45 46  2  0  0  0
 45111  1  0  0  0
 46112  1  0  0  0
 47113  1  0  0  0
 47114  1  0  0  0
 48 56  1  0  0  0
 48 65  1  0  0  0
 48115  1  0  0  0
 49 50  1  0  0  0
 49 53  1  0  0  0
 49 64  1  0  0  0
 49116  1  0  0  0
 50 51  1  0  0  0
 50117  1  0  0  0
 50118  1  0  0  0
 51 52  1  0  0  0
 51119  1  0  0  0
 51120  1  0  0  0
 52121  1  0  0  0
 52122  1  0  0  0
 53 54  1  0  0  0
 54 55  2  0  0  0
 54123  1  0  0  0
 55 57  1  0  0  0
 55124  1  0  0  0
 56 69  2  0  0  0
 57 58  2  0  0  0
 57125  1  0  0  0
 58126  1  0  0  0
 59 60  1  0  0  0
 59 61  1  0  0  0
 59 62  1  0  0  0
 60127  1  0  0  0
 60128  1  0  0  0
 60129  1  0  0  0
 61130  1  0  0  0
 61131  1  0  0  0
 61132  1  0  0  0
 62133  1  0  0  0
 62134  1  0  0  0
 62135  1  0  0  0
 63 65  1  0  0  0
 63136  1  0  0  0
 63137  1  0  0  0
 63138  1  0  0  0
 64139  1  0  0  0
 65140  1  0  0  0
 68 76  1  0  0  0
 71 74  1  0  0  0
 71 79  1  0  0  0
 71 81  2  0  0  0
 72141  1  0  0  0
 72142  1  0  0  0
 72143  1  0  0  0
 72 77  1  0  0  0
 73 77  1  0  0  0
 73144  1  0  0  0
 73145  1  0  0  0
 73146  1  0  0  0
 74 76  1  0  0  0
 74147  1  0  0  0
 74148  1  0  0  0
 75 80  1  0  0  0
 75149  1  0  0  0
 75150  1  0  0  0
 75 78  1  0  0  0
 76151  1  0  0  0
 76152  1  0  0  0
 77 78  1  0  0  0
 77153  1  0  0  0
 78 79  1  0  0  0
 78154  1  0  0  0
 79155  1  0  0  0
 80156  1  0  0  0
M  ISO  4   1 100  68 101  76 101  80 100
M  END
> <chiral flag>
0

> <version>
0

> <s_m_source_file>
/data/baiqing/PycharmProjects/Reinvent-master-3.2/result/LINK_invent/BTK/process_docking_weight1_custom_product_contain_oxygen_bond_distance_aromatic_linkinvent_7_9_3/rearranged_h_0194.sdf

> <i_m_source_file_index>
66

> <r_mmod_Potential_Energy-OPLS-2005>
389.741119384766

> <r_mmod_Stretch_Energy-OPLS-2005>
286.049072265625

> <r_mmod_Bend_Energy-OPLS-2005>
264.776885986328

> <r_mmod_Torsional_Energy-OPLS-2005>
219.042205810547

> <r_mmod_Improper_Torsional_Energy-OPLS-2005>
4.49943542480469

> <r_mmod_Van_der_Waal_Energy-OPLS-2005>
117.158615112305

> <r_mmod_Electrostatic_Energy-OPLS-2005>
-469.896911621094

> <r_mmod_Solvation_Energy-OPLS-2005>
-236.16796875

> <b_mmod_Minimization_Converged-OPLS-2005>
0

> <r_mmod_RMS_Derivative-OPLS-2005>
2.21776437759399

$$$$
66
                    3D
 Structure written by MMmdl.
148156  0  0  1  0            999 V2000
  -30.5985  -14.7657   20.4588 C   0  0  0  0  0  0
  -30.4384  -12.4675   19.4857 C   0  0  0  0  0  0
  -29.5182  -12.5209   18.2455 C   0  0  0  0  0  0
  -28.0436  -12.3382   18.6543 C   0  0  0  0  0  0
  -27.6457  -13.2346   19.8574 C   0  0  2  0  0  0
  -28.6887  -13.1654   20.9961 C   0  0  0  0  0  0
  -25.2520  -13.8208   20.5692 C   0  0  0  0  0  0
  -24.1812  -13.0447   20.9198 C   0  0  0  0  0  0
  -24.6407  -11.6926   20.8740 C   0  0  0  0  0  0
  -23.9083  -10.4299   21.0403 C   0  0  0  0  0  0
  -24.3631   -9.4212   21.9179 C   0  0  0  0  0  0
  -23.6301   -8.2249   22.0753 C   0  0  0  0  0  0
  -22.4280   -8.0286   21.3546 C   0  0  0  0  0  0
  -21.9920   -9.0261   20.4649 C   0  0  0  0  0  0
  -22.7254  -10.2140   20.3053 C   0  0  0  0  0  0
  -21.6855   -6.0737   22.5280 C   0  0  0  0  0  0
  -21.4020   -6.5641   23.8215 C   0  0  0  0  0  0
  -21.3659   -5.6791   24.9178 C   0  0  0  0  0  0
  -21.6044   -4.3052   24.7226 C   0  0  0  0  0  0
  -21.8819   -3.8144   23.4347 C   0  0  0  0  0  0
  -21.9191   -4.6963   22.3404 C   0  0  0  0  0  0
  -22.7830  -13.5223   21.1861 C   0  0  0  0  0  0
  -22.1655   -4.2148   21.0981 F   0  0  0  0  0  0
  -21.5631   -3.4536   25.7739 F   0  0  0  0  0  0
  -29.9942  -13.5249   20.4269 N   0  0  0  0  0  0
  -26.2959  -12.9420   20.3301 N   0  0  0  0  0  0
  -25.9345  -11.6557   20.5761 N   0  0  0  0  0  0
  -22.0473  -12.8217   22.0423 N   0  0  0  0  0  0
  -25.4199  -15.1934   20.4116 N   0  0  0  0  0  0
  -31.7660  -14.8788   20.0709 O   0  0  0  0  0  0
  -21.6644   -6.8883   21.4244 O   0  0  0  0  0  0
  -22.3506  -14.5520   20.6698 O   0  0  0  0  0  0
  -24.6335  -31.8544   23.1980 C   0  0  0  0  0  0
  -25.9151  -32.4747   23.8330 C   0  0  1  0  0  0
  -27.2109  -27.2345   20.1325 C   0  0  0  0  0  0
  -25.5942  -33.8552   24.2250 N   0  0  0  0  0  0
  -23.4307  -30.4783   21.5425 C   0  0  2  0  0  0
  -24.8772  -28.9266   20.1069 C   0  0  0  0  0  0
  -22.7514  -29.4595   22.4904 C   0  0  0  0  0  0
  -18.0294  -28.1385   22.8480 C   0  0  0  0  0  0
  -24.1491  -36.7287   23.2638 C   0  0  0  0  0  0
  -25.9799  -30.7574   21.3838 C   0  0  0  0  0  0
  -26.0497  -29.3784   20.7252 C   0  0  0  0  0  0
  -27.2172  -28.5442   20.7310 C   0  0  0  0  0  0
  -26.0217  -26.8738   19.4569 C   0  0  0  0  0  0
  -24.8708  -27.6837   19.4602 C   0  0  0  0  0  0
  -23.6505  -29.8171   20.1570 C   0  0  0  0  0  0
  -25.4117  -36.3070   24.0324 C   0  0  1  0  0  0
  -20.5899  -28.3698   23.1263 C   0  0  2  0  0  0
  -20.6783  -26.9414   22.5406 C   0  0  0  0  0  0
  -19.5758  -26.6379   21.5210 C   0  0  0  0  0  0
  -18.1938  -26.7926   22.1622 C   0  0  0  0  0  0
  -19.1548  -28.8860   23.2866 C   0  0  0  0  0  0
  -18.9468  -30.1459   23.8887 C   0  0  0  0  0  0
  -17.6468  -30.6588   24.0561 C   0  0  0  0  0  0
  -25.9062  -34.9437   23.5088 C   0  0  0  0  0  0
  -16.5357  -29.9085   23.6329 C   0  0  0  0  0  0
  -16.7279  -28.6502   23.0351 C   0  0  0  0  0  0
  -26.4505  -31.6583   25.0733 C   0  0  0  0  0  0
  -25.3716  -31.3748   26.1448 C   0  0  0  0  0  0
  -27.0353  -30.2993   24.6240 C   0  0  0  0  0  0
  -27.6054  -32.4325   25.7514 C   0  0  0  0  0  0
  -27.5580  -37.1802   24.8463 C   0  0  0  0  0  0
  -21.4220  -29.3044   22.3653 N   0  0  0  0  0  0
  -26.4290  -37.3770   23.9407 N   0  0  0  0  0  0
  -24.7005  -31.0482   22.0975 N   0  0  0  0  0  0
  -23.4206  -28.8128   23.3007 O   0  0  0  0  0  0
  -28.2832  -26.3044   20.2271 O   0  0  0  0  0  0
  -26.5635  -34.8916   22.4660 O   0  0  0  0  0  0
  -23.5478  -32.1379   23.7260 O   0  0  0  0  0  0
  -29.5745  -19.5731   20.3141 C   0  0  0  0  0  0
  -29.9536  -17.2981   20.3860 C   0  0  0  0  0  0
  -28.8389  -22.1064   19.9419 C   0  0  0  0  0  0
  -28.0442  -24.8309   19.9505 C   0  0  0  0  0  0
  -28.8768  -23.5919   20.6227 C   0  0  1  0  0  0
  -29.3866  -18.3879   21.0020 N   0  0  0  0  0  0
  -30.2389  -19.4697   19.1496 N   0  0  0  0  0  0
  -29.1568  -20.8776   20.7862 N   0  0  0  0  0  0
  -29.8445  -15.8774   20.8160 N   0  0  0  0  0  0
  -28.3475  -23.3928   21.9251 O   0  0  0  0  0  0
  -30.7209  -17.8409   18.9084 S   0  0  0  0  0  0
  -31.4796  -12.5924   19.1841 H   0  0  0  0  0  0
  -30.3859  -11.4892   19.9653 H   0  0  0  0  0  0
  -29.8091  -11.7540   17.5272 H   0  0  0  0  0  0
  -29.6419  -13.4786   17.7374 H   0  0  0  0  0  0
  -27.9025  -11.2879   18.9135 H   0  0  0  0  0  0
  -27.3882  -12.5318   17.8045 H   0  0  0  0  0  0
  -27.6424  -14.2578   19.4808 H   0  0  0  0  0  0
  -28.7270  -12.1643   21.4292 H   0  0  0  0  0  0
  -28.4165  -13.8384   21.8112 H   0  0  0  0  0  0
  -25.2777   -9.5683   22.4754 H   0  0  0  0  0  0
  -24.0005   -7.4641   22.7475 H   0  0  0  0  0  0
  -21.0845   -8.8785   19.8962 H   0  0  0  0  0  0
  -22.3706  -10.9679   19.6156 H   0  0  0  0  0  0
  -21.2014   -7.6147   23.9719 H   0  0  0  0  0  0
  -21.1481   -6.0522   25.9081 H   0  0  0  0  0  0
  -22.0596   -2.7608   23.2851 H   0  0  0  0  0  0
  -22.4079  -11.9886   22.4823 H   0  0  0  0  0  0
  -21.1090  -13.1250   22.2624 H   0  0  0  0  0  0
  -24.6501  -15.8446   20.5235 H   0  0  0  0  0  0
  -26.2662  -15.6378   20.0793 H   0  0  0  0  0  0
  -26.7218  -32.5387   23.1069 H   0  0  0  0  0  0
  -25.0085  -33.9683   25.0391 H   0  0  0  0  0  0
  -22.7281  -31.3015   21.3980 H   0  0  0  0  0  0
  -23.3753  -35.9620   23.3294 H   0  0  0  0  0  0
  -24.3582  -36.8919   22.2054 H   0  0  0  0  0  0
  -23.7243  -37.6486   23.6668 H   0  0  0  0  0  0
  -26.1221  -31.5157   20.6125 H   0  0  0  0  0  0
  -26.8557  -30.8061   22.0184 H   0  0  0  0  0  0
  -28.1086  -28.8807   21.2421 H   0  0  0  0  0  0
  -25.9406  -25.9386   18.9247 H   0  0  0  0  0  0
  -23.9784  -27.3369   18.9570 H   0  0  0  0  0  0
  -23.7807  -30.5966   19.4055 H   0  0  0  0  0  0
  -22.7665  -29.2575   19.8465 H   0  0  0  0  0  0
  -25.1299  -36.1917   25.0816 H   0  0  0  0  0  0
  -20.9986  -28.3277   24.1386 H   0  0  0  0  0  0
  -20.5675  -26.2311   23.3613 H   0  0  0  0  0  0
  -21.6651  -26.7433   22.1204 H   0  0  0  0  0  0
  -19.6920  -25.6285   21.1252 H   0  0  0  0  0  0
  -19.6696  -27.3179   20.6732 H   0  0  0  0  0  0
  -17.4205  -26.6664   21.4028 H   0  0  0  0  0  0
  -18.0342  -26.0071   22.9021 H   0  0  0  0  0  0
  -19.7945  -30.7273   24.2254 H   0  0  0  0  0  0
  -17.5023  -31.6264   24.5166 H   0  0  0  0  0  0
  -15.5359  -30.2985   23.7657 H   0  0  0  0  0  0
  -15.8679  -28.0818   22.7072 H   0  0  0  0  0  0
  -24.5886  -30.7104   25.7777 H   0  0  0  0  0  0
  -24.8915  -32.2925   26.4855 H   0  0  0  0  0  0
  -25.8019  -30.8935   27.0237 H   0  0  0  0  0  0
  -26.2944  -29.6739   24.1245 H   0  0  0  0  0  0
  -27.4004  -29.7261   25.4771 H   0  0  0  0  0  0
  -27.8838  -30.4260   23.9510 H   0  0  0  0  0  0
  -27.2657  -33.3627   26.2079 H   0  0  0  0  0  0
  -28.3878  -32.6878   25.0356 H   0  0  0  0  0  0
  -28.0707  -31.8458   26.5446 H   0  0  0  0  0  0
  -28.2593  -38.0103   24.7510 H   0  0  0  0  0  0
  -28.1080  -36.2633   24.6287 H   0  0  0  0  0  0
  -27.2298  -37.1448   25.8865 H   0  0  0  0  0  0
  -20.9407  -29.8790   21.6878 H   0  0  0  0  0  0
  -26.0169  -38.2845   24.1407 H   0  0  0  0  0  0
  -29.4848  -22.1115   19.0627 H   0  0  0  0  0  0
  -27.8313  -21.9487   19.5548 H   0  0  0  0  0  0
  -27.0007  -24.5943   20.1572 H   0  0  0  0  0  0
  -28.1529  -24.7289   18.8703 H   0  0  0  0  0  0
  -29.9221  -23.8904   20.7171 H   0  0  0  0  0  0
  -28.7296  -20.9016   21.7076 H   0  0  0  0  0  0
  -28.9979  -15.6570   21.3145 H   0  0  0  0  0  0
  -28.4539  -24.2124   22.4000 H   0  0  0  0  0  0
  1 25  1  0  0  0
  1 30  2  0  0  0
  1 79  1  0  0  0
  2  3  1  0  0  0
  2 25  1  0  0  0
  2 82  1  0  0  0
  2 83  1  0  0  0
  3  4  1  0  0  0
  3 84  1  0  0  0
  3 85  1  0  0  0
  4  5  1  0  0  0
  4 86  1  0  0  0
  4 87  1  0  0  0
  5  6  1  0  0  0
  5 26  1  0  0  0
  5 88  1  0  0  0
  6 25  1  0  0  0
  6 89  1  0  0  0
  6 90  1  0  0  0
  7  8  2  0  0  0
  7 26  1  0  0  0
  7 29  1  0  0  0
  8  9  1  0  0  0
  8 22  1  0  0  0
  9 10  1  0  0  0
  9 27  2  0  0  0
 10 11  2  0  0  0
 10 15  1  0  0  0
 11 12  1  0  0  0
 11 91  1  0  0  0
 12 13  2  0  0  0
 12 92  1  0  0  0
 13 14  1  0  0  0
 13 31  1  0  0  0
 14 15  2  0  0  0
 14 93  1  0  0  0
 15 94  1  0  0  0
 16 17  2  0  0  0
 16 21  1  0  0  0
 16 31  1  0  0  0
 17 18  1  0  0  0
 17 95  1  0  0  0
 18 19  2  0  0  0
 18 96  1  0  0  0
 19 20  1  0  0  0
 19 24  1  0  0  0
 20 21  2  0  0  0
 20 97  1  0  0  0
 21 23  1  0  0  0
 22 28  1  0  0  0
 22 32  2  0  0  0
 26 27  1  0  0  0
 28 98  1  0  0  0
 28 99  1  0  0  0
 29100  1  0  0  0
 29101  1  0  0  0
 33 34  1  0  0  0
 33 66  1  0  0  0
 33 70  2  0  0  0
 34 36  1  0  0  0
 34 59  1  0  0  0
 34102  1  0  0  0
 35 44  2  0  0  0
 35 45  1  0  0  0
 35 68  1  0  0  0
 36 56  1  0  0  0
 36103  1  0  0  0
 37 39  1  0  0  0
 37 47  1  0  0  0
 37 66  1  0  0  0
 37104  1  0  0  0
 38 43  2  0  0  0
 38 46  1  0  0  0
 38 47  1  0  0  0
 39 64  1  0  0  0
 39 67  2  0  0  0
 40 52  1  0  0  0
 40 53  2  0  0  0
 40 58  1  0  0  0
 41105  1  0  0  0
 41106  1  0  0  0
 41107  1  0  0  0
 41 48  1  0  0  0
 42 43  1  0  0  0
 42 66  1  0  0  0
 42108  1  0  0  0
 42109  1  0  0  0
 43 44  1  0  0  0
 44110  1  0  0  0
 45 46  2  0  0  0
 45111  1  0  0  0
 46112  1  0  0  0
 47113  1  0  0  0
 47114  1  0  0  0
 48 56  1  0  0  0
 48 65  1  0  0  0
 48115  1  0  0  0
 49 50  1  0  0  0
 49 53  1  0  0  0
 49 64  1  0  0  0
 49116  1  0  0  0
 50 51  1  0  0  0
 50117  1  0  0  0
 50118  1  0  0  0
 51 52  1  0  0  0
 51119  1  0  0  0
 51120  1  0  0  0
 52121  1  0  0  0
 52122  1  0  0  0
 53 54  1  0  0  0
 54 55  2  0  0  0
 54123  1  0  0  0
 55 57  1  0  0  0
 55124  1  0  0  0
 56 69  2  0  0  0
 57 58  2  0  0  0
 57125  1  0  0  0
 58126  1  0  0  0
 59 60  1  0  0  0
 59 61  1  0  0  0
 59 62  1  0  0  0
 60127  1  0  0  0
 60128  1  0  0  0
 60129  1  0  0  0
 61130  1  0  0  0
 61131  1  0  0  0
 61132  1  0  0  0
 62133  1  0  0  0
 62134  1  0  0  0
 62135  1  0  0  0
 63 65  1  0  0  0
 63136  1  0  0  0
 63137  1  0  0  0
 63138  1  0  0  0
 64139  1  0  0  0
 65140  1  0  0  0
 68 74  1  0  0  0
 71 76  1  0  0  0
 71 77  2  0  0  0
 71 78  1  0  0  0
 72 76  2  0  0  0
 72 79  1  0  0  0
 72 81  1  0  0  0
 73 75  1  0  0  0
 73 78  1  0  0  0
 73141  1  0  0  0
 73142  1  0  0  0
 74 75  1  0  0  0
 74143  1  0  0  0
 74144  1  0  0  0
 75 80  1  0  0  0
 75145  1  0  0  0
 77 81  1  0  0  0
 78146  1  0  0  0
 79147  1  0  0  0
 80148  1  0  0  0
M  ISO  4   1 100  68 101  74 101  79 100
M  END
> <chiral flag>
0

> <version>
0

> <s_m_source_file>
/data/baiqing/PycharmProjects/Reinvent-master-3.2/result/LINK_invent/BTK/process_docking_weight1_custom_product_contain_oxygen_bond_distance_aromatic_linkinvent_7_9_3/rearranged_h_0194.sdf

> <i_m_source_file_index>
67

> <r_mmod_Potential_Energy-OPLS-2005>
25.1945285797119

> <r_mmod_Stretch_Energy-OPLS-2005>
131.057373046875

> <r_mmod_Bend_Energy-OPLS-2005>
181.102905273438

> <r_mmod_Torsional_Energy-OPLS-2005>
243.026565551758

> <r_mmod_Improper_Torsional_Energy-OPLS-2005>
4.74543333053589

> <r_mmod_Van_der_Waal_Energy-OPLS-2005>
122.649871826172

> <r_mmod_Electrostatic_Energy-OPLS-2005>
-517.172973632812

> <r_mmod_Solvation_Energy-OPLS-2005>
-240.456344604492

> <b_mmod_Minimization_Converged-OPLS-2005>
0

> <r_mmod_RMS_Derivative-OPLS-2005>
1.21355485916138

$$$$
67
                    3D
 Structure written by MMmdl.
158166  0  0  1  0            999 V2000
  -30.6753  -14.5554   20.5189 C   0  0  0  0  0  0
  -30.4272  -12.3494   19.4300 C   0  0  0  0  0  0
  -29.4973  -12.5076   18.2089 C   0  0  0  0  0  0
  -28.0150  -12.3722   18.6167 C   0  0  0  0  0  0
  -27.6549  -13.2187   19.8665 C   0  0  2  0  0  0
  -28.7030  -13.0424   20.9876 C   0  0  0  0  0  0
  -25.2559  -13.8184   20.5682 C   0  0  0  0  0  0
  -24.1818  -13.0444   20.9190 C   0  0  0  0  0  0
  -24.6384  -11.6920   20.8742 C   0  0  0  0  0  0
  -23.9048  -10.4307   21.0383 C   0  0  0  0  0  0
  -24.3604   -9.4226   21.9160 C   0  0  0  0  0  0
  -23.6292   -8.2254   22.0734 C   0  0  0  0  0  0
  -22.4285   -8.0283   21.3524 C   0  0  0  0  0  0
  -21.9906   -9.0261   20.4637 C   0  0  0  0  0  0
  -22.7222  -10.2146   20.3038 C   0  0  0  0  0  0
  -21.6866   -6.0729   22.5281 C   0  0  0  0  0  0
  -21.4016   -6.5630   23.8214 C   0  0  0  0  0  0
  -21.3660   -5.6782   24.9173 C   0  0  0  0  0  0
  -21.6059   -4.3052   24.7221 C   0  0  0  0  0  0
  -21.8819   -3.8138   23.4339 C   0  0  0  0  0  0
  -21.9190   -4.6954   22.3396 C   0  0  0  0  0  0
  -22.7841  -13.5237   21.1870 C   0  0  0  0  0  0
  -22.1651   -4.2126   21.0974 F   0  0  0  0  0  0
  -21.5642   -3.4540   25.7732 F   0  0  0  0  0  0
  -30.0227  -13.3616   20.4198 N   0  0  0  0  0  0
  -26.3002  -12.9372   20.3357 N   0  0  0  0  0  0
  -25.9324  -11.6526   20.5778 N   0  0  0  0  0  0
  -22.0478  -12.8233   22.0431 N   0  0  0  0  0  0
  -25.4279  -15.1906   20.4061 N   0  0  0  0  0  0
  -31.8303  -14.7078   20.1163 O   0  0  0  0  0  0
  -21.6644   -6.8884   21.4248 O   0  0  0  0  0  0
  -22.3517  -14.5535   20.6710 O   0  0  0  0  0  0
  -24.6197  -31.8628   23.2077 C   0  0  0  0  0  0
  -25.9063  -32.4814   23.8386 C   0  0  1  0  0  0
  -27.2263  -27.3777   20.1247 C   0  0  0  0  0  0
  -25.5907  -33.8613   24.2321 N   0  0  0  0  0  0
  -23.4108  -30.4890   21.5461 C   0  0  2  0  0  0
  -24.8592  -28.9476   20.1123 C   0  0  0  0  0  0
  -22.7419  -29.4659   22.4938 C   0  0  0  0  0  0
  -18.0284  -28.1395   22.8488 C   0  0  0  0  0  0
  -24.1479  -36.7309   23.2639 C   0  0  0  0  0  0
  -25.9433  -30.8168   21.3653 C   0  0  0  0  0  0
  -26.0221  -29.4451   20.7150 C   0  0  0  0  0  0
  -27.2118  -28.6708   20.7122 C   0  0  0  0  0  0
  -26.0499  -26.9146   19.4990 C   0  0  0  0  0  0
  -24.8717  -27.6852   19.4947 C   0  0  0  0  0  0
  -23.6248  -29.8227   20.1603 C   0  0  0  0  0  0
  -25.4100  -36.3115   24.0344 C   0  0  1  0  0  0
  -20.5879  -28.3699   23.1284 C   0  0  2  0  0  0
  -20.6781  -26.9424   22.5409 C   0  0  0  0  0  0
  -19.5764  -26.6392   21.5211 C   0  0  0  0  0  0
  -18.1936  -26.7949   22.1617 C   0  0  0  0  0  0
  -19.1532  -28.8864   23.2897 C   0  0  0  0  0  0
  -18.9463  -30.1465   23.8914 C   0  0  0  0  0  0
  -17.6465  -30.6608   24.0576 C   0  0  0  0  0  0
  -25.9024  -34.9477   23.5130 C   0  0  0  0  0  0
  -16.5354  -29.9112   23.6336 C   0  0  0  0  0  0
  -16.7271  -28.6531   23.0353 C   0  0  0  0  0  0
  -26.4483  -31.6608   25.0720 C   0  0  0  0  0  0
  -25.3734  -31.3724   26.1463 C   0  0  0  0  0  0
  -27.0339  -30.3061   24.6103 C   0  0  0  0  0  0
  -27.6068  -32.4317   25.7484 C   0  0  0  0  0  0
  -27.5581  -37.1807   24.8461 C   0  0  0  0  0  0
  -21.4141  -29.3060   22.3672 N   0  0  0  0  0  0
  -26.4291  -37.3797   23.9410 N   0  0  0  0  0  0
  -24.6765  -31.0701   22.0995 N   0  0  0  0  0  0
  -23.4160  -28.8183   23.2998 O   0  0  0  0  0  0
  -28.3573  -26.5735   20.1388 O   0  0  0  0  0  0
  -26.5567  -34.8928   22.4674 O   0  0  0  0  0  0
  -23.5379  -32.1395   23.7449 O   0  0  0  0  0  0
  -28.7679  -17.6078   19.1057 C   0  0  0  0  0  0
  -29.5851  -18.0473   20.1592 C   0  0  0  0  0  0
  -28.1484  -18.5965   18.3442 C   0  0  0  0  0  0
  -29.0987  -20.2458   19.5971 C   0  0  0  0  0  0
  -29.6517  -22.5767   21.8948 C   0  0  0  0  0  0
  -30.3700  -17.0321   21.0162 C   0  0  0  0  0  0
  -28.8462  -24.0617   19.9377 C   0  0  0  0  0  0
  -28.2154  -25.2525   20.7491 C   0  0  0  0  0  0
  -28.8574  -22.6082   20.5764 C   0  0  1  0  0  0
  -29.7316  -19.3861   20.4070 N   0  0  0  0  0  0
  -28.3261  -19.9034   18.5756 N   0  0  0  0  0  0
  -27.3282  -18.2697   17.2791 N   0  0  0  0  0  0
  -29.4081  -21.6087   19.6327 N   0  0  0  0  0  0
  -29.9367  -15.6114   20.9291 N   0  0  0  0  0  0
  -31.4693  -12.4578   19.1235 H   0  0  0  0  0  0
  -30.3468  -11.3468   19.8526 H   0  0  0  0  0  0
  -29.7475  -11.7609   17.4546 H   0  0  0  0  0  0
  -29.6623  -13.4799   17.7420 H   0  0  0  0  0  0
  -27.8199  -11.3189   18.8152 H   0  0  0  0  0  0
  -27.3669  -12.6434   17.7810 H   0  0  0  0  0  0
  -27.6856  -14.2609   19.5475 H   0  0  0  0  0  0
  -28.6982  -12.0168   21.3600 H   0  0  0  0  0  0
  -28.4661  -13.6700   21.8471 H   0  0  0  0  0  0
  -25.2745   -9.5709   22.4729 H   0  0  0  0  0  0
  -24.0020   -7.4642   22.7441 H   0  0  0  0  0  0
  -21.0836   -8.8764   19.8935 H   0  0  0  0  0  0
  -22.3672  -10.9672   19.6140 H   0  0  0  0  0  0
  -21.2006   -7.6135   23.9719 H   0  0  0  0  0  0
  -21.1490   -6.0499   25.9079 H   0  0  0  0  0  0
  -22.0598   -2.7598   23.2842 H   0  0  0  0  0  0
  -22.4081  -11.9893   22.4834 H   0  0  0  0  0  0
  -21.1079  -13.1250   22.2602 H   0  0  0  0  0  0
  -24.6630  -15.8474   20.5138 H   0  0  0  0  0  0
  -26.2740  -15.6310   20.0712 H   0  0  0  0  0  0
  -26.7124  -32.5522   23.1142 H   0  0  0  0  0  0
  -25.0134  -33.9757   25.0528 H   0  0  0  0  0  0
  -22.7056  -31.3108   21.4061 H   0  0  0  0  0  0
  -23.3746  -35.9635   23.3300 H   0  0  0  0  0  0
  -24.3588  -36.8914   22.2055 H   0  0  0  0  0  0
  -23.7219  -37.6510   23.6645 H   0  0  0  0  0  0
  -26.0494  -31.5757   20.5890 H   0  0  0  0  0  0
  -26.8345  -30.8802   21.9784 H   0  0  0  0  0  0
  -28.1088  -29.0467   21.1853 H   0  0  0  0  0  0
  -26.0409  -25.9470   19.0184 H   0  0  0  0  0  0
  -23.9816  -27.3006   19.0157 H   0  0  0  0  0  0
  -23.7411  -30.5992   19.4035 H   0  0  0  0  0  0
  -22.7452  -29.2495   19.8606 H   0  0  0  0  0  0
  -25.1281  -36.1984   25.0841 H   0  0  0  0  0  0
  -20.9998  -28.3289   24.1396 H   0  0  0  0  0  0
  -20.5695  -26.2301   23.3606 H   0  0  0  0  0  0
  -21.6650  -26.7472   22.1196 H   0  0  0  0  0  0
  -19.6918  -25.6295   21.1259 H   0  0  0  0  0  0
  -19.6719  -27.3185   20.6730 H   0  0  0  0  0  0
  -17.4207  -26.6695   21.4020 H   0  0  0  0  0  0
  -18.0341  -26.0096   22.9022 H   0  0  0  0  0  0
  -19.7936  -30.7280   24.2279 H   0  0  0  0  0  0
  -17.5027  -31.6290   24.5173 H   0  0  0  0  0  0
  -15.5358  -30.3029   23.7661 H   0  0  0  0  0  0
  -15.8665  -28.0868   22.7052 H   0  0  0  0  0  0
  -24.5895  -30.7090   25.7787 H   0  0  0  0  0  0
  -24.8938  -32.2887   26.4913 H   0  0  0  0  0  0
  -25.8068  -30.8878   27.0220 H   0  0  0  0  0  0
  -26.2902  -29.6798   24.1155 H   0  0  0  0  0  0
  -27.4133  -29.7326   25.4572 H   0  0  0  0  0  0
  -27.8721  -30.4418   23.9260 H   0  0  0  0  0  0
  -27.2706  -33.3611   26.2093 H   0  0  0  0  0  0
  -28.3863  -32.6869   25.0292 H   0  0  0  0  0  0
  -28.0744  -31.8404   26.5365 H   0  0  0  0  0  0
  -28.2594  -38.0111   24.7528 H   0  0  0  0  0  0
  -28.1082  -36.2642   24.6269 H   0  0  0  0  0  0
  -27.2298  -37.1440   25.8863 H   0  0  0  0  0  0
  -20.9277  -29.8786   21.6906 H   0  0  0  0  0  0
  -26.0182  -38.2870   24.1429 H   0  0  0  0  0  0
  -28.6532  -16.5588   18.8727 H   0  0  0  0  0  0
  -29.2019  -23.2167   22.6547 H   0  0  0  0  0  0
  -30.6799  -22.9093   21.7445 H   0  0  0  0  0  0
  -29.6964  -21.5705   22.3134 H   0  0  0  0  0  0
  -30.2975  -17.3382   22.0594 H   0  0  0  0  0  0
  -31.4239  -17.1255   20.7540 H   0  0  0  0  0  0
  -29.8736  -24.3380   19.6978 H   0  0  0  0  0  0
  -28.3233  -24.0148   18.9820 H   0  0  0  0  0  0
  -28.7079  -25.3151   21.7209 H   0  0  0  0  0  0
  -27.1724  -25.0226   20.9737 H   0  0  0  0  0  0
  -27.8272  -22.3137   20.7918 H   0  0  0  0  0  0
  -27.2413  -17.3177   16.9460 H   0  0  0  0  0  0
  -26.9835  -18.9894   16.6555 H   0  0  0  0  0  0
  -29.2790  -21.9783   18.7002 H   0  0  0  0  0  0
  -28.9757  -15.4315   21.1696 H   0  0  0  0  0  0
  1 25  1  0  0  0
  1 30  2  0  0  0
  1 84  1  0  0  0
  2  3  1  0  0  0
  2 25  1  0  0  0
  2 85  1  0  0  0
  2 86  1  0  0  0
  3  4  1  0  0  0
  3 87  1  0  0  0
  3 88  1  0  0  0
  4  5  1  0  0  0
  4 89  1  0  0  0
  4 90  1  0  0  0
  5  6  1  0  0  0
  5 26  1  0  0  0
  5 91  1  0  0  0
  6 25  1  0  0  0
  6 92  1  0  0  0
  6 93  1  0  0  0
  7  8  2  0  0  0
  7 26  1  0  0  0
  7 29  1  0  0  0
  8  9  1  0  0  0
  8 22  1  0  0  0
  9 10  1  0  0  0
  9 27  2  0  0  0
 10 11  2  0  0  0
 10 15  1  0  0  0
 11 12  1  0  0  0
 11 94  1  0  0  0
 12 13  2  0  0  0
 12 95  1  0  0  0
 13 14  1  0  0  0
 13 31  1  0  0  0
 14 15  2  0  0  0
 14 96  1  0  0  0
 15 97  1  0  0  0
 16 17  2  0  0  0
 16 21  1  0  0  0
 16 31  1  0  0  0
 17 18  1  0  0  0
 17 98  1  0  0  0
 18 19  2  0  0  0
 18 99  1  0  0  0
 19 20  1  0  0  0
 19 24  1  0  0  0
 20 21  2  0  0  0
 20100  1  0  0  0
 21 23  1  0  0  0
 22 28  1  0  0  0
 22 32  2  0  0  0
 26 27  1  0  0  0
 28101  1  0  0  0
 28102  1  0  0  0
 29103  1  0  0  0
 29104  1  0  0  0
 33 34  1  0  0  0
 33 66  1  0  0  0
 33 70  2  0  0  0
 34 36  1  0  0  0
 34 59  1  0  0  0
 34105  1  0  0  0
 35 44  2  0  0  0
 35 45  1  0  0  0
 35 68  1  0  0  0
 36 56  1  0  0  0
 36106  1  0  0  0
 37 39  1  0  0  0
 37 47  1  0  0  0
 37 66  1  0  0  0
 37107  1  0  0  0
 38 43  2  0  0  0
 38 46  1  0  0  0
 38 47  1  0  0  0
 39 64  1  0  0  0
 39 67  2  0  0  0
 40 52  1  0  0  0
 40 53  2  0  0  0
 40 58  1  0  0  0
 41108  1  0  0  0
 41109  1  0  0  0
 41110  1  0  0  0
 41 48  1  0  0  0
 42 43  1  0  0  0
 42 66  1  0  0  0
 42111  1  0  0  0
 42112  1  0  0  0
 43 44  1  0  0  0
 44113  1  0  0  0
 45 46  2  0  0  0
 45114  1  0  0  0
 46115  1  0  0  0
 47116  1  0  0  0
 47117  1  0  0  0
 48 56  1  0  0  0
 48 65  1  0  0  0
 48118  1  0  0  0
 49 50  1  0  0  0
 49 53  1  0  0  0
 49 64  1  0  0  0
 49119  1  0  0  0
 50 51  1  0  0  0
 50120  1  0  0  0
 50121  1  0  0  0
 51 52  1  0  0  0
 51122  1  0  0  0
 51123  1  0  0  0
 52124  1  0  0  0
 52125  1  0  0  0
 53 54  1  0  0  0
 54 55  2  0  0  0
 54126  1  0  0  0
 55 57  1  0  0  0
 55127  1  0  0  0
 56 69  2  0  0  0
 57 58  2  0  0  0
 57128  1  0  0  0
 58129  1  0  0  0
 59 60  1  0  0  0
 59 61  1  0  0  0
 59 62  1  0  0  0
 60130  1  0  0  0
 60131  1  0  0  0
 60132  1  0  0  0
 61133  1  0  0  0
 61134  1  0  0  0
 61135  1  0  0  0
 62136  1  0  0  0
 62137  1  0  0  0
 62138  1  0  0  0
 63 65  1  0  0  0
 63139  1  0  0  0
 63140  1  0  0  0
 63141  1  0  0  0
 64142  1  0  0  0
 65143  1  0  0  0
 68 78  1  0  0  0
 71 72  2  0  0  0
 71 73  1  0  0  0
 71144  1  0  0  0
 72 76  1  0  0  0
 72 80  1  0  0  0
 73 81  2  0  0  0
 73 82  1  0  0  0
 74 80  2  0  0  0
 74 81  1  0  0  0
 74 83  1  0  0  0
 75145  1  0  0  0
 75146  1  0  0  0
 75147  1  0  0  0
 75 79  1  0  0  0
 76 84  1  0  0  0
 76148  1  0  0  0
 76149  1  0  0  0
 77 78  1  0  0  0
 77 79  1  0  0  0
 77150  1  0  0  0
 77151  1  0  0  0
 78152  1  0  0  0
 78153  1  0  0  0
 79 83  1  0  0  0
 79154  1  0  0  0
 82155  1  0  0  0
 82156  1  0  0  0
 83157  1  0  0  0
 84158  1  0  0  0
M  ISO  4   1 100  68 101  78 101  84 100
M  END
> <chiral flag>
0

> <version>
0

> <s_m_source_file>
/data/baiqing/PycharmProjects/Reinvent-master-3.2/result/LINK_invent/BTK/process_docking_weight1_custom_product_contain_oxygen_bond_distance_aromatic_linkinvent_7_9_3/rearranged_h_0194.sdf

> <i_m_source_file_index>
68

> <r_mmod_Potential_Energy-OPLS-2005>
-780.842468261719

> <r_mmod_Stretch_Energy-OPLS-2005>
51.2286376953125

> <r_mmod_Bend_Energy-OPLS-2005>
123.684928894043

> <r_mmod_Torsional_Energy-OPLS-2005>
233.130722045898

> <r_mmod_Improper_Torsional_Energy-OPLS-2005>
10.5000429153442

> <r_mmod_Van_der_Waal_Energy-OPLS-2005>
147.372802734375

> <r_mmod_Electrostatic_Energy-OPLS-2005>
-1122.69750976562

> <r_mmod_Solvation_Energy-OPLS-2005>
-250.647659301758

> <b_mmod_Minimization_Converged-OPLS-2005>
0

> <r_mmod_RMS_Derivative-OPLS-2005>
2.98282098770142

$$$$
68
                    3D
 Structure written by MMmdl.
160168  0  0  1  0            999 V2000
  -30.6791  -14.5207   20.5890 C   0  0  0  0  0  0
  -30.4376  -12.3441   19.4358 C   0  0  0  0  0  0
  -29.5091  -12.5263   18.2156 C   0  0  0  0  0  0
  -28.0286  -12.3711   18.6188 C   0  0  0  0  0  0
  -27.6651  -13.2113   19.8731 C   0  0  2  0  0  0
  -28.7021  -12.9974   20.9987 C   0  0  0  0  0  0
  -25.2626  -13.8189   20.5667 C   0  0  0  0  0  0
  -24.1860  -13.0461   20.9146 C   0  0  0  0  0  0
  -24.6412  -11.6919   20.8704 C   0  0  0  0  0  0
  -23.9074  -10.4299   21.0382 C   0  0  0  0  0  0
  -24.3627   -9.4217   21.9161 C   0  0  0  0  0  0
  -23.6316   -8.2245   22.0734 C   0  0  0  0  0  0
  -22.4298   -8.0281   21.3525 C   0  0  0  0  0  0
  -21.9919   -9.0246   20.4625 C   0  0  0  0  0  0
  -22.7253  -10.2125   20.3031 C   0  0  0  0  0  0
  -21.6862   -6.0741   22.5281 C   0  0  0  0  0  0
  -21.4017   -6.5648   23.8222 C   0  0  0  0  0  0
  -21.3650   -5.6788   24.9178 C   0  0  0  0  0  0
  -21.6040   -4.3048   24.7210 C   0  0  0  0  0  0
  -21.8822   -3.8148   23.4324 C   0  0  0  0  0  0
  -21.9201   -4.6974   22.3389 C   0  0  0  0  0  0
  -22.7875  -13.5239   21.1817 C   0  0  0  0  0  0
  -22.1669   -4.2155   21.0951 F   0  0  0  0  0  0
  -21.5623   -3.4527   25.7726 F   0  0  0  0  0  0
  -30.0378  -13.3222   20.4633 N   0  0  0  0  0  0
  -26.3052  -12.9345   20.3339 N   0  0  0  0  0  0
  -25.9348  -11.6496   20.5728 N   0  0  0  0  0  0
  -22.0495  -12.8241   22.0366 N   0  0  0  0  0  0
  -25.4403  -15.1915   20.4171 N   0  0  0  0  0  0
  -31.7825  -14.7390   20.0794 O   0  0  0  0  0  0
  -21.6639   -6.8892   21.4247 O   0  0  0  0  0  0
  -22.3548  -14.5532   20.6643 O   0  0  0  0  0  0
  -24.6233  -31.8681   23.2051 C   0  0  0  0  0  0
  -25.9103  -32.4816   23.8374 C   0  0  1  0  0  0
  -27.2179  -27.3800   20.0953 C   0  0  0  0  0  0
  -25.5924  -33.8600   24.2298 N   0  0  0  0  0  0
  -23.4113  -30.4958   21.5502 C   0  0  2  0  0  0
  -24.8507  -28.9667   20.1105 C   0  0  0  0  0  0
  -22.7463  -29.4682   22.4960 C   0  0  0  0  0  0
  -18.0300  -28.1422   22.8478 C   0  0  0  0  0  0
  -24.1488  -36.7320   23.2629 C   0  0  0  0  0  0
  -25.9480  -30.8207   21.3610 C   0  0  0  0  0  0
  -26.0214  -29.4538   20.7046 C   0  0  0  0  0  0
  -27.2115  -28.6736   20.6850 C   0  0  0  0  0  0
  -26.0141  -26.9348   19.4899 C   0  0  0  0  0  0
  -24.8470  -27.7108   19.4937 C   0  0  0  0  0  0
  -23.6168  -29.8381   20.1629 C   0  0  0  0  0  0
  -25.4109  -36.3105   24.0329 C   0  0  1  0  0  0
  -20.5896  -28.3710   23.1301 C   0  0  2  0  0  0
  -20.6798  -26.9448   22.5397 C   0  0  0  0  0  0
  -19.5767  -26.6424   21.5210 C   0  0  0  0  0  0
  -18.1951  -26.7965   22.1627 C   0  0  0  0  0  0
  -19.1547  -28.8886   23.2887 C   0  0  0  0  0  0
  -18.9455  -30.1488   23.8898 C   0  0  0  0  0  0
  -17.6453  -30.6605   24.0585 C   0  0  0  0  0  0
  -25.9052  -34.9472   23.5113 C   0  0  0  0  0  0
  -16.5349  -29.9112   23.6318 C   0  0  0  0  0  0
  -16.7288  -28.6542   23.0319 C   0  0  0  0  0  0
  -26.4489  -31.6595   25.0714 C   0  0  0  0  0  0
  -25.3708  -31.3708   26.1426 C   0  0  0  0  0  0
  -27.0310  -30.3033   24.6098 C   0  0  0  0  0  0
  -27.6079  -32.4289   25.7475 C   0  0  0  0  0  0
  -27.5593  -37.1806   24.8462 C   0  0  0  0  0  0
  -21.4185  -29.3063   22.3696 N   0  0  0  0  0  0
  -26.4301  -37.3792   23.9412 N   0  0  0  0  0  0
  -24.6807  -31.0755   22.0967 N   0  0  0  0  0  0
  -23.4214  -28.8227   23.3025 O   0  0  0  0  0  0
  -28.3555  -26.5672   20.1322 O   0  0  0  0  0  0
  -26.5621  -34.8943   22.4682 O   0  0  0  0  0  0
  -23.5408  -32.1447   23.7413 O   0  0  0  0  0  0
  -30.5120  -17.9378   21.1916 C   0  0  0  0  0  0
  -28.6170  -18.5339   20.3041 C   0  0  0  0  0  0
  -29.7579  -16.8130   20.8900 C   0  0  0  0  0  0
  -32.0764  -20.7093   18.6763 C   0  0  0  0  0  0
  -31.1945  -21.8712   19.1644 C   0  0  0  0  0  0
  -29.2746  -24.0941   20.1265 C   0  0  0  0  0  0
  -30.0147  -20.4975   21.0312 C   0  0  0  0  0  0
  -28.1077  -25.1361   20.0098 C   0  0  0  0  0  0
  -29.8451  -21.4176   19.7663 C   0  0  1  0  0  0
  -28.7988  -22.6009   19.9032 C   0  0  2  0  0  0
  -28.5467  -17.2026   20.3248 N   0  0  0  0  0  0
  -29.7466  -19.0562   20.8132 N   0  0  0  0  0  0
  -30.0083  -15.4636   21.2880 N   0  0  0  0  0  0
  -28.0308  -22.5574   18.7076 O   0  0  0  0  0  0
  -31.4801  -12.4649   19.1351 H   0  0  0  0  0  0
  -30.3608  -11.3327   19.8354 H   0  0  0  0  0  0
  -29.7665  -11.8026   17.4410 H   0  0  0  0  0  0
  -29.6685  -13.5132   17.7788 H   0  0  0  0  0  0
  -27.8462  -11.3132   18.8139 H   0  0  0  0  0  0
  -27.3810  -12.6358   17.7818 H   0  0  0  0  0  0
  -27.7061  -14.2615   19.5788 H   0  0  0  0  0  0
  -28.6846  -11.9578   21.3323 H   0  0  0  0  0  0
  -28.4372  -13.5866   21.8775 H   0  0  0  0  0  0
  -25.2768   -9.5697   22.4733 H   0  0  0  0  0  0
  -24.0034   -7.4628   22.7443 H   0  0  0  0  0  0
  -21.0851   -8.8742   19.8940 H   0  0  0  0  0  0
  -22.3699  -10.9643   19.6122 H   0  0  0  0  0  0
  -21.2010   -7.6159   23.9732 H   0  0  0  0  0  0
  -21.1479   -6.0507   25.9082 H   0  0  0  0  0  0
  -22.0617   -2.7614   23.2811 H   0  0  0  0  0  0
  -22.4109  -11.9937   22.4824 H   0  0  0  0  0  0
  -21.1073  -13.1230   22.2463 H   0  0  0  0  0  0
  -24.6892  -15.8603   20.5477 H   0  0  0  0  0  0
  -26.3238  -15.6333   20.1843 H   0  0  0  0  0  0
  -26.7173  -32.5512   23.1135 H   0  0  0  0  0  0
  -25.0029  -33.9752   25.0413 H   0  0  0  0  0  0
  -22.7033  -31.3156   21.4145 H   0  0  0  0  0  0
  -23.3752  -35.9653   23.3271 H   0  0  0  0  0  0
  -24.3576  -36.8958   22.2046 H   0  0  0  0  0  0
  -23.7241  -37.6520   23.6652 H   0  0  0  0  0  0
  -26.0612  -31.5831   20.5887 H   0  0  0  0  0  0
  -26.8373  -30.8756   21.9770 H   0  0  0  0  0  0
  -28.1133  -29.0508   21.1448 H   0  0  0  0  0  0
  -25.9207  -25.9763   19.0049 H   0  0  0  0  0  0
  -23.9505  -27.3315   19.0202 H   0  0  0  0  0  0
  -23.7258  -30.6153   19.4060 H   0  0  0  0  0  0
  -22.7391  -29.2621   19.8650 H   0  0  0  0  0  0
  -25.1277  -36.1960   25.0823 H   0  0  0  0  0  0
  -20.9991  -28.3278   24.1423 H   0  0  0  0  0  0
  -20.5740  -26.2323   23.3583 H   0  0  0  0  0  0
  -21.6666  -26.7525   22.1165 H   0  0  0  0  0  0
  -19.6934  -25.6331   21.1244 H   0  0  0  0  0  0
  -19.6708  -27.3235   20.6733 H   0  0  0  0  0  0
  -17.4221  -26.6705   21.4031 H   0  0  0  0  0  0
  -18.0361  -26.0122   22.9038 H   0  0  0  0  0  0
  -19.7919  -30.7318   24.2270 H   0  0  0  0  0  0
  -17.4993  -31.6276   24.5206 H   0  0  0  0  0  0
  -15.5342  -30.3011   23.7642 H   0  0  0  0  0  0
  -15.8692  -28.0882   22.6981 H   0  0  0  0  0  0
  -24.5900  -30.7053   25.7715 H   0  0  0  0  0  0
  -24.8875  -32.2867   26.4839 H   0  0  0  0  0  0
  -25.8015  -30.8873   27.0203 H   0  0  0  0  0  0
  -26.2855  -29.6793   24.1154 H   0  0  0  0  0  0
  -27.4081  -29.7267   25.4554 H   0  0  0  0  0  0
  -27.8690  -30.4344   23.9245 H   0  0  0  0  0  0
  -27.2740  -33.3603   26.2059 H   0  0  0  0  0  0
  -28.3893  -32.6816   25.0289 H   0  0  0  0  0  0
  -28.0744  -31.8389   26.5378 H   0  0  0  0  0  0
  -28.2594  -38.0117   24.7535 H   0  0  0  0  0  0
  -28.1108  -36.2656   24.6246 H   0  0  0  0  0  0
  -27.2320  -37.1401   25.8865 H   0  0  0  0  0  0
  -20.9368  -29.8757   21.6875 H   0  0  0  0  0  0
  -26.0190  -38.2876   24.1396 H   0  0  0  0  0  0
  -31.4720  -18.0372   21.6816 H   0  0  0  0  0  0
  -27.7996  -19.1505   19.9539 H   0  0  0  0  0  0
  -32.9711  -21.0830   18.1750 H   0  0  0  0  0  0
  -31.5424  -20.0692   17.9734 H   0  0  0  0  0  0
  -32.4083  -20.0835   19.5038 H   0  0  0  0  0  0
  -31.0078  -22.5253   18.3109 H   0  0  0  0  0  0
  -31.7475  -22.4661   19.8913 H   0  0  0  0  0  0
  -29.7492  -24.1819   21.1062 H   0  0  0  0  0  0
  -30.0372  -24.3643   19.3970 H   0  0  0  0  0  0
  -29.3305  -20.8219   21.8145 H   0  0  0  0  0  0
  -31.0105  -20.6114   21.4609 H   0  0  0  0  0  0
  -27.3416  -24.8596   20.7373 H   0  0  0  0  0  0
  -27.6933  -24.9831   19.0160 H   0  0  0  0  0  0
  -29.4325  -20.7506   19.0087 H   0  0  0  0  0  0
  -28.1024  -22.3505   20.7053 H   0  0  0  0  0  0
  -29.2196  -15.0440   21.7544 H   0  0  0  0  0  0
  -28.6007  -22.7795   17.9780 H   0  0  0  0  0  0
  1 25  1  0  0  0
  1 30  2  0  0  0
  1 83  1  0  0  0
  2  3  1  0  0  0
  2 25  1  0  0  0
  2 85  1  0  0  0
  2 86  1  0  0  0
  3  4  1  0  0  0
  3 87  1  0  0  0
  3 88  1  0  0  0
  4  5  1  0  0  0
  4 89  1  0  0  0
  4 90  1  0  0  0
  5  6  1  0  0  0
  5 26  1  0  0  0
  5 91  1  0  0  0
  6 25  1  0  0  0
  6 92  1  0  0  0
  6 93  1  0  0  0
  7  8  2  0  0  0
  7 26  1  0  0  0
  7 29  1  0  0  0
  8  9  1  0  0  0
  8 22  1  0  0  0
  9 10  1  0  0  0
  9 27  2  0  0  0
 10 11  2  0  0  0
 10 15  1  0  0  0
 11 12  1  0  0  0
 11 94  1  0  0  0
 12 13  2  0  0  0
 12 95  1  0  0  0
 13 14  1  0  0  0
 13 31  1  0  0  0
 14 15  2  0  0  0
 14 96  1  0  0  0
 15 97  1  0  0  0
 16 17  2  0  0  0
 16 21  1  0  0  0
 16 31  1  0  0  0
 17 18  1  0  0  0
 17 98  1  0  0  0
 18 19  2  0  0  0
 18 99  1  0  0  0
 19 20  1  0  0  0
 19 24  1  0  0  0
 20 21  2  0  0  0
 20100  1  0  0  0
 21 23  1  0  0  0
 22 28  1  0  0  0
 22 32  2  0  0  0
 26 27  1  0  0  0
 28101  1  0  0  0
 28102  1  0  0  0
 29103  1  0  0  0
 29104  1  0  0  0
 33 34  1  0  0  0
 33 66  1  0  0  0
 33 70  2  0  0  0
 34 36  1  0  0  0
 34 59  1  0  0  0
 34105  1  0  0  0
 35 44  2  0  0  0
 35 45  1  0  0  0
 35 68  1  0  0  0
 36 56  1  0  0  0
 36106  1  0  0  0
 37 39  1  0  0  0
 37 47  1  0  0  0
 37 66  1  0  0  0
 37107  1  0  0  0
 38 43  2  0  0  0
 38 46  1  0  0  0
 38 47  1  0  0  0
 39 64  1  0  0  0
 39 67  2  0  0  0
 40 52  1  0  0  0
 40 53  2  0  0  0
 40 58  1  0  0  0
 41108  1  0  0  0
 41109  1  0  0  0
 41110  1  0  0  0
 41 48  1  0  0  0
 42 43  1  0  0  0
 42 66  1  0  0  0
 42111  1  0  0  0
 42112  1  0  0  0
 43 44  1  0  0  0
 44113  1  0  0  0
 45 46  2  0  0  0
 45114  1  0  0  0
 46115  1  0  0  0
 47116  1  0  0  0
 47117  1  0  0  0
 48 56  1  0  0  0
 48 65  1  0  0  0
 48118  1  0  0  0
 49 50  1  0  0  0
 49 53  1  0  0  0
 49 64  1  0  0  0
 49119  1  0  0  0
 50 51  1  0  0  0
 50120  1  0  0  0
 50121  1  0  0  0
 51 52  1  0  0  0
 51122  1  0  0  0
 51123  1  0  0  0
 52124  1  0  0  0
 52125  1  0  0  0
 53 54  1  0  0  0
 54 55  2  0  0  0
 54126  1  0  0  0
 55 57  1  0  0  0
 55127  1  0  0  0
 56 69  2  0  0  0
 57 58  2  0  0  0
 57128  1  0  0  0
 58129  1  0  0  0
 59 60  1  0  0  0
 59 61  1  0  0  0
 59 62  1  0  0  0
 60130  1  0  0  0
 60131  1  0  0  0
 60132  1  0  0  0
 61133  1  0  0  0
 61134  1  0  0  0
 61135  1  0  0  0
 62136  1  0  0  0
 62137  1  0  0  0
 62138  1  0  0  0
 63 65  1  0  0  0
 63139  1  0  0  0
 63140  1  0  0  0
 63141  1  0  0  0
 64142  1  0  0  0
 65143  1  0  0  0
 68 78  1  0  0  0
 71 73  2  0  0  0
 71 82  1  0  0  0
 71144  1  0  0  0
 72 81  2  0  0  0
 72 82  1  0  0  0
 72145  1  0  0  0
 73 81  1  0  0  0
 73 83  1  0  0  0
 74 75  1  0  0  0
 74146  1  0  0  0
 74147  1  0  0  0
 74148  1  0  0  0
 75149  1  0  0  0
 75150  1  0  0  0
 75 79  1  0  0  0
 76 78  1  0  0  0
 76 80  1  0  0  0
 76151  1  0  0  0
 76152  1  0  0  0
 77 79  1  0  0  0
 77 82  1  0  0  0
 77153  1  0  0  0
 77154  1  0  0  0
 78155  1  0  0  0
 78156  1  0  0  0
 79 80  1  0  0  0
 79157  1  0  0  0
 80 84  1  0  0  0
 80158  1  0  0  0
 83159  1  0  0  0
 84160  1  0  0  0
M  ISO  4   1 100  68 101  78 101  83 100
M  END
> <chiral flag>
0

> <version>
0

> <s_m_source_file>
/data/baiqing/PycharmProjects/Reinvent-master-3.2/result/LINK_invent/BTK/process_docking_weight1_custom_product_contain_oxygen_bond_distance_aromatic_linkinvent_7_9_3/rearranged_h_0194.sdf

> <i_m_source_file_index>
69

> <r_mmod_Potential_Energy-OPLS-2005>
38.1092643737793

> <r_mmod_Stretch_Energy-OPLS-2005>
54.5752334594727

> <r_mmod_Bend_Energy-OPLS-2005>
135.095520019531

> <r_mmod_Torsional_Energy-OPLS-2005>
281.259857177734

> <r_mmod_Improper_Torsional_Energy-OPLS-2005>
7.23401498794556

> <r_mmod_Van_der_Waal_Energy-OPLS-2005>
135.139907836914

> <r_mmod_Electrostatic_Energy-OPLS-2005>
-375.285308837891

> <r_mmod_Solvation_Energy-OPLS-2005>
-222.395248413086

> <b_mmod_Minimization_Converged-OPLS-2005>
0

> <r_mmod_RMS_Derivative-OPLS-2005>
3.21079754829407

$$$$
69
                    3D
 Structure written by MMmdl.
162170  0  0  1  0            999 V2000
  -30.6295  -14.5920   20.5397 C   0  0  0  0  0  0
  -30.4381  -12.3741   19.4395 C   0  0  0  0  0  0
  -29.4998  -12.5151   18.2192 C   0  0  0  0  0  0
  -28.0219  -12.3534   18.6312 C   0  0  0  0  0  0
  -27.6551  -13.2074   19.8719 C   0  0  2  0  0  0
  -28.7013  -13.0264   20.9950 C   0  0  0  0  0  0
  -25.2557  -13.8066   20.5759 C   0  0  0  0  0  0
  -24.1805  -13.0373   20.9162 C   0  0  0  0  0  0
  -24.6363  -11.6835   20.8735 C   0  0  0  0  0  0
  -23.9013  -10.4239   21.0408 C   0  0  0  0  0  0
  -24.3574   -9.4167   21.9187 C   0  0  0  0  0  0
  -23.6256   -8.2203   22.0761 C   0  0  0  0  0  0
  -22.4237   -8.0233   21.3550 C   0  0  0  0  0  0
  -21.9862   -9.0200   20.4646 C   0  0  0  0  0  0
  -22.7188  -10.2078   20.3058 C   0  0  0  0  0  0
  -21.6834   -6.0707   22.5276 C   0  0  0  0  0  0
  -21.4006   -6.5637   23.8203 C   0  0  0  0  0  0
  -21.3664   -5.6800   24.9187 C   0  0  0  0  0  0
  -21.6043   -4.3052   24.7235 C   0  0  0  0  0  0
  -21.8822   -3.8133   23.4356 C   0  0  0  0  0  0
  -21.9187   -4.6943   22.3414 C   0  0  0  0  0  0
  -22.7816  -13.5182   21.1824 C   0  0  0  0  0  0
  -22.1650   -4.2124   21.0991 F   0  0  0  0  0  0
  -21.5638   -3.4542   25.7752 F   0  0  0  0  0  0
  -30.0187  -13.3735   20.4383 N   0  0  0  0  0  0
  -26.2997  -12.9265   20.3381 N   0  0  0  0  0  0
  -25.9298  -11.6415   20.5751 N   0  0  0  0  0  0
  -22.0454  -12.8208   22.0392 N   0  0  0  0  0  0
  -25.4320  -15.1771   20.4372 N   0  0  0  0  0  0
  -31.7696  -14.7913   20.1120 O   0  0  0  0  0  0
  -21.6620   -6.8827   21.4220 O   0  0  0  0  0  0
  -22.3523  -14.5522   20.6682 O   0  0  0  0  0  0
  -24.6210  -31.8633   23.2071 C   0  0  0  0  0  0
  -25.9069  -32.4803   23.8380 C   0  0  1  0  0  0
  -27.2329  -27.3755   20.1084 C   0  0  0  0  0  0
  -25.5908  -33.8613   24.2314 N   0  0  0  0  0  0
  -23.4107  -30.4905   21.5464 C   0  0  2  0  0  0
  -24.8575  -28.9451   20.1168 C   0  0  0  0  0  0
  -22.7399  -29.4712   22.4988 C   0  0  0  0  0  0
  -18.0278  -28.1403   22.8463 C   0  0  0  0  0  0
  -24.1481  -36.7313   23.2637 C   0  0  0  0  0  0
  -25.9469  -30.8111   21.3671 C   0  0  0  0  0  0
  -26.0224  -29.4406   20.7154 C   0  0  0  0  0  0
  -27.2150  -28.6677   20.7017 C   0  0  0  0  0  0
  -26.0466  -26.9159   19.4923 C   0  0  0  0  0  0
  -24.8690  -27.6844   19.4993 C   0  0  0  0  0  0
  -23.6236  -29.8218   20.1625 C   0  0  0  0  0  0
  -25.4101  -36.3113   24.0332 C   0  0  1  0  0  0
  -20.5865  -28.3727   23.1349 C   0  0  2  0  0  0
  -20.6800  -26.9487   22.5457 C   0  0  0  0  0  0
  -19.5812  -26.6433   21.5237 C   0  0  0  0  0  0
  -18.1949  -26.7983   22.1546 C   0  0  0  0  0  0
  -19.1513  -28.8869   23.2899 C   0  0  0  0  0  0
  -18.9441  -30.1455   23.8942 C   0  0  0  0  0  0
  -17.6455  -30.6601   24.0572 C   0  0  0  0  0  0
  -25.9028  -34.9479   23.5119 C   0  0  0  0  0  0
  -16.5350  -29.9110   23.6308 C   0  0  0  0  0  0
  -16.7267  -28.6522   23.0336 C   0  0  0  0  0  0
  -26.4476  -31.6586   25.0730 C   0  0  0  0  0  0
  -25.3739  -31.3681   26.1475 C   0  0  0  0  0  0
  -27.0310  -30.3028   24.6130 C   0  0  0  0  0  0
  -27.6043  -32.4307   25.7497 C   0  0  0  0  0  0
  -27.5578  -37.1813   24.8466 C   0  0  0  0  0  0
  -21.4104  -29.3128   22.3759 N   0  0  0  0  0  0
  -26.4296  -37.3793   23.9405 N   0  0  0  0  0  0
  -24.6778  -31.0720   22.0972 N   0  0  0  0  0  0
  -23.4133  -28.8253   23.3064 O   0  0  0  0  0  0
  -28.3848  -26.5939   20.1075 O   0  0  0  0  0  0
  -26.5608  -34.8918   22.4690 O   0  0  0  0  0  0
  -23.5397  -32.1446   23.7422 O   0  0  0  0  0  0
  -26.9615  -17.3503   18.7507 C   0  0  0  0  0  0
  -28.8331  -17.7996   20.0630 C   0  0  0  0  0  0
  -26.5875  -18.7032   18.7988 C   0  0  0  0  0  0
  -28.5135  -19.2214   20.0137 C   0  0  0  0  0  0
  -24.4434  -19.5384   19.3662 C   0  0  0  0  0  0
  -29.9977  -17.0995   20.8225 C   0  0  0  0  0  0
  -29.5436  -24.3282   20.1611 C   0  0  0  0  0  0
  -29.0496  -21.6807   19.9950 C   0  0  0  0  0  0
  -28.2462  -25.1696   20.4270 C   0  0  0  0  0  0
  -29.6817  -22.8770   20.7839 C   0  0  1  0  0  0
  -28.0531  -16.9011   19.4032 N   0  0  0  0  0  0
  -27.3666  -19.6215   19.4036 N   0  0  0  0  0  0
  -25.3544  -19.1298   18.2987 N   0  0  0  0  0  0
  -29.2651  -20.3034   20.5550 N   0  0  0  0  0  0
  -29.8416  -15.6088   20.9702 N   0  0  0  0  0  0
  -31.0694  -22.5929   20.8242 O   0  0  0  0  0  0
  -31.4782  -12.5115   19.1317 H   0  0  0  0  0  0
  -30.3771  -11.3707   19.8610 H   0  0  0  0  0  0
  -29.7562  -11.7777   17.4550 H   0  0  0  0  0  0
  -29.6452  -13.4933   17.7592 H   0  0  0  0  0  0
  -27.8559  -11.2986   18.8515 H   0  0  0  0  0  0
  -27.3653  -12.5974   17.7952 H   0  0  0  0  0  0
  -27.6777  -14.2471   19.5477 H   0  0  0  0  0  0
  -28.7088  -11.9904   21.3395 H   0  0  0  0  0  0
  -28.4558  -13.6286   21.8708 H   0  0  0  0  0  0
  -25.2722   -9.5654   22.4768 H   0  0  0  0  0  0
  -23.9975   -7.4599   22.7499 H   0  0  0  0  0  0
  -21.0793   -8.8702   19.8956 H   0  0  0  0  0  0
  -22.3638  -10.9612   19.6177 H   0  0  0  0  0  0
  -21.1996   -7.6142   23.9696 H   0  0  0  0  0  0
  -21.1493   -6.0544   25.9088 H   0  0  0  0  0  0
  -22.0601   -2.7584   23.2881 H   0  0  0  0  0  0
  -22.4073  -11.9877   22.4786 H   0  0  0  0  0  0
  -21.1081  -13.1236   22.2643 H   0  0  0  0  0  0
  -24.6813  -15.8413   20.5962 H   0  0  0  0  0  0
  -26.3202  -15.6099   20.2092 H   0  0  0  0  0  0
  -26.7158  -32.5503   23.1146 H   0  0  0  0  0  0
  -25.0020  -33.9744   25.0437 H   0  0  0  0  0  0
  -22.7066  -31.3130   21.4008 H   0  0  0  0  0  0
  -23.3731  -35.9659   23.3320 H   0  0  0  0  0  0
  -24.3584  -36.8940   22.2056 H   0  0  0  0  0  0
  -23.7244  -37.6520   23.6645 H   0  0  0  0  0  0
  -26.0655  -31.5723   20.5933 H   0  0  0  0  0  0
  -26.8317  -30.8665   21.9903 H   0  0  0  0  0  0
  -28.1141  -29.0504   21.1666 H   0  0  0  0  0  0
  -26.0148  -25.9643   18.9841 H   0  0  0  0  0  0
  -23.9771  -27.3012   19.0229 H   0  0  0  0  0  0
  -23.7389  -30.5959   19.4031 H   0  0  0  0  0  0
  -22.7461  -29.2473   19.8643 H   0  0  0  0  0  0
  -25.1283  -36.1981   25.0829 H   0  0  0  0  0  0
  -21.0003  -28.3359   24.1456 H   0  0  0  0  0  0
  -20.5684  -26.2409   23.3665 H   0  0  0  0  0  0
  -21.6708  -26.7563   22.1292 H   0  0  0  0  0  0
  -19.6984  -25.6349   21.1217 H   0  0  0  0  0  0
  -19.6752  -27.3287   20.6815 H   0  0  0  0  0  0
  -17.4257  -26.6806   21.3906 H   0  0  0  0  0  0
  -18.0347  -26.0115   22.8896 H   0  0  0  0  0  0
  -19.7920  -30.7243   24.2316 H   0  0  0  0  0  0
  -17.5057  -31.6286   24.5215 H   0  0  0  0  0  0
  -15.5342  -30.3033   23.7627 H   0  0  0  0  0  0
  -15.8661  -28.0840   22.7049 H   0  0  0  0  0  0
  -24.5891  -30.7052   25.7805 H   0  0  0  0  0  0
  -24.8937  -32.2835   26.4945 H   0  0  0  0  0  0
  -25.8103  -30.8840   27.0222 H   0  0  0  0  0  0
  -26.2876  -29.6795   24.1150 H   0  0  0  0  0  0
  -27.4052  -29.7259   25.4595 H   0  0  0  0  0  0
  -27.8712  -30.4347   23.9310 H   0  0  0  0  0  0
  -27.2639  -33.3579   26.2098 H   0  0  0  0  0  0
  -28.3815  -32.6920   25.0306 H   0  0  0  0  0  0
  -28.0717  -31.8426   26.5401 H   0  0  0  0  0  0
  -28.2604  -38.0098   24.7496 H   0  0  0  0  0  0
  -28.1070  -36.2640   24.6307 H   0  0  0  0  0  0
  -27.2296  -37.1475   25.8868 H   0  0  0  0  0  0
  -20.9229  -29.8787   21.6960 H   0  0  0  0  0  0
  -26.0192  -38.2879   24.1392 H   0  0  0  0  0  0
  -26.3404  -16.6165   18.2587 H   0  0  0  0  0  0
  -23.7719  -20.3259   19.0228 H   0  0  0  0  0  0
  -24.9608  -19.9059   20.2550 H   0  0  0  0  0  0
  -23.8301  -18.6886   19.6719 H   0  0  0  0  0  0
  -30.0605  -17.5389   21.8193 H   0  0  0  0  0  0
  -30.9338  -17.3420   20.3205 H   0  0  0  0  0  0
  -30.3663  -24.9331   20.5486 H   0  0  0  0  0  0
  -29.7131  -24.2803   19.0834 H   0  0  0  0  0  0
  -29.4113  -21.6896   18.9663 H   0  0  0  0  0  0
  -27.9818  -21.9002   19.9346 H   0  0  0  0  0  0
  -27.9823  -25.1018   21.4840 H   0  0  0  0  0  0
  -27.4305  -24.6988   19.8812 H   0  0  0  0  0  0
  -29.3048  -22.8836   21.8074 H   0  0  0  0  0  0
  -24.9330  -18.4144   17.7114 H   0  0  0  0  0  0
  -30.1788  -20.0692   20.9197 H   0  0  0  0  0  0
  -28.9232  -15.3232   21.2746 H   0  0  0  0  0  0
  -31.1754  -21.7649   21.2818 H   0  0  0  0  0  0
  1 25  1  0  0  0
  1 30  2  0  0  0
  1 85  1  0  0  0
  2  3  1  0  0  0
  2 25  1  0  0  0
  2 87  1  0  0  0
  2 88  1  0  0  0
  3  4  1  0  0  0
  3 89  1  0  0  0
  3 90  1  0  0  0
  4  5  1  0  0  0
  4 91  1  0  0  0
  4 92  1  0  0  0
  5  6  1  0  0  0
  5 26  1  0  0  0
  5 93  1  0  0  0
  6 25  1  0  0  0
  6 94  1  0  0  0
  6 95  1  0  0  0
  7  8  2  0  0  0
  7 26  1  0  0  0
  7 29  1  0  0  0
  8  9  1  0  0  0
  8 22  1  0  0  0
  9 10  1  0  0  0
  9 27  2  0  0  0
 10 11  2  0  0  0
 10 15  1  0  0  0
 11 12  1  0  0  0
 11 96  1  0  0  0
 12 13  2  0  0  0
 12 97  1  0  0  0
 13 14  1  0  0  0
 13 31  1  0  0  0
 14 15  2  0  0  0
 14 98  1  0  0  0
 15 99  1  0  0  0
 16 17  2  0  0  0
 16 21  1  0  0  0
 16 31  1  0  0  0
 17 18  1  0  0  0
 17100  1  0  0  0
 18 19  2  0  0  0
 18101  1  0  0  0
 19 20  1  0  0  0
 19 24  1  0  0  0
 20 21  2  0  0  0
 20102  1  0  0  0
 21 23  1  0  0  0
 22 28  1  0  0  0
 22 32  2  0  0  0
 26 27  1  0  0  0
 28103  1  0  0  0
 28104  1  0  0  0
 29105  1  0  0  0
 29106  1  0  0  0
 33 34  1  0  0  0
 33 66  1  0  0  0
 33 70  2  0  0  0
 34 36  1  0  0  0
 34 59  1  0  0  0
 34107  1  0  0  0
 35 44  2  0  0  0
 35 45  1  0  0  0
 35 68  1  0  0  0
 36 56  1  0  0  0
 36108  1  0  0  0
 37 39  1  0  0  0
 37 47  1  0  0  0
 37 66  1  0  0  0
 37109  1  0  0  0
 38 43  2  0  0  0
 38 46  1  0  0  0
 38 47  1  0  0  0
 39 64  1  0  0  0
 39 67  2  0  0  0
 40 52  1  0  0  0
 40 53  2  0  0  0
 40 58  1  0  0  0
 41110  1  0  0  0
 41111  1  0  0  0
 41112  1  0  0  0
 41 48  1  0  0  0
 42 43  1  0  0  0
 42 66  1  0  0  0
 42113  1  0  0  0
 42114  1  0  0  0
 43 44  1  0  0  0
 44115  1  0  0  0
 45 46  2  0  0  0
 45116  1  0  0  0
 46117  1  0  0  0
 47118  1  0  0  0
 47119  1  0  0  0
 48 56  1  0  0  0
 48 65  1  0  0  0
 48120  1  0  0  0
 49 50  1  0  0  0
 49 53  1  0  0  0
 49 64  1  0  0  0
 49121  1  0  0  0
 50 51  1  0  0  0
 50122  1  0  0  0
 50123  1  0  0  0
 51 52  1  0  0  0
 51124  1  0  0  0
 51125  1  0  0  0
 52126  1  0  0  0
 52127  1  0  0  0
 53 54  1  0  0  0
 54 55  2  0  0  0
 54128  1  0  0  0
 55 57  1  0  0  0
 55129  1  0  0  0
 56 69  2  0  0  0
 57 58  2  0  0  0
 57130  1  0  0  0
 58131  1  0  0  0
 59 60  1  0  0  0
 59 61  1  0  0  0
 59 62  1  0  0  0
 60132  1  0  0  0
 60133  1  0  0  0
 60134  1  0  0  0
 61135  1  0  0  0
 61136  1  0  0  0
 61137  1  0  0  0
 62138  1  0  0  0
 62139  1  0  0  0
 62140  1  0  0  0
 63 65  1  0  0  0
 63141  1  0  0  0
 63142  1  0  0  0
 63143  1  0  0  0
 64144  1  0  0  0
 65145  1  0  0  0
 68 79  1  0  0  0
 71 73  2  0  0  0
 71 81  1  0  0  0
 71146  1  0  0  0
 72 74  1  0  0  0
 72 76  1  0  0  0
 72 81  2  0  0  0
 73 82  1  0  0  0
 73 83  1  0  0  0
 74 82  2  0  0  0
 74 84  1  0  0  0
 75 83  1  0  0  0
 75147  1  0  0  0
 75148  1  0  0  0
 75149  1  0  0  0
 76 85  1  0  0  0
 76150  1  0  0  0
 76151  1  0  0  0
 77 79  1  0  0  0
 77 80  1  0  0  0
 77152  1  0  0  0
 77153  1  0  0  0
 78 80  1  0  0  0
 78 84  1  0  0  0
 78154  1  0  0  0
 78155  1  0  0  0
 79156  1  0  0  0
 79157  1  0  0  0
 80 86  1  0  0  0
 80158  1  0  0  0
 83159  1  0  0  0
 84160  1  0  0  0
 85161  1  0  0  0
 86162  1  0  0  0
M  ISO  4   1 100  68 101  79 101  85 100
M  END
> <chiral flag>
0

> <version>
0

> <s_m_source_file>
/data/baiqing/PycharmProjects/Reinvent-master-3.2/result/LINK_invent/BTK/process_docking_weight1_custom_product_contain_oxygen_bond_distance_aromatic_linkinvent_7_9_3/rearranged_h_0194.sdf

> <i_m_source_file_index>
70

> <r_mmod_Potential_Energy-OPLS-2005>
-57.2730979919434

> <r_mmod_Stretch_Energy-OPLS-2005>
68.952522277832

> <r_mmod_Bend_Energy-OPLS-2005>
135.348922729492

> <r_mmod_Torsional_Energy-OPLS-2005>
240.580749511719

> <r_mmod_Improper_Torsional_Energy-OPLS-2005>
12.2898044586182

> <r_mmod_Van_der_Waal_Energy-OPLS-2005>
162.110412597656

> <r_mmod_Electrostatic_Energy-OPLS-2005>
-434.805938720703

> <r_mmod_Solvation_Energy-OPLS-2005>
-271.494659423828

> <b_mmod_Minimization_Converged-OPLS-2005>
0

> <r_mmod_RMS_Derivative-OPLS-2005>
4.24619960784912

$$$$
70
                    3D
 Structure written by MMmdl.
157165  0  0  1  0            999 V2000
  -30.6682  -14.5743   20.5204 C   0  0  0  0  0  0
  -30.4293  -12.3605   19.4365 C   0  0  0  0  0  0
  -29.5054  -12.5130   18.2115 C   0  0  0  0  0  0
  -28.0230  -12.3731   18.6147 C   0  0  0  0  0  0
  -27.6554  -13.2237   19.8622 C   0  0  2  0  0  0
  -28.7013  -13.0557   20.9875 C   0  0  0  0  0  0
  -25.2573  -13.8210   20.5679 C   0  0  0  0  0  0
  -24.1834  -13.0452   20.9134 C   0  0  0  0  0  0
  -24.6422  -11.6921   20.8697 C   0  0  0  0  0  0
  -23.9098  -10.4288   21.0369 C   0  0  0  0  0  0
  -24.3642   -9.4208   21.9166 C   0  0  0  0  0  0
  -23.6306   -8.2252   22.0761 C   0  0  0  0  0  0
  -22.4287   -8.0296   21.3556 C   0  0  0  0  0  0
  -21.9919   -9.0259   20.4662 C   0  0  0  0  0  0
  -22.7249  -10.2129   20.3037 C   0  0  0  0  0  0
  -21.6854   -6.0735   22.5273 C   0  0  0  0  0  0
  -21.4017   -6.5642   23.8203 C   0  0  0  0  0  0
  -21.3652   -5.6797   24.9172 C   0  0  0  0  0  0
  -21.6049   -4.3056   24.7215 C   0  0  0  0  0  0
  -21.8819   -3.8144   23.4337 C   0  0  0  0  0  0
  -21.9184   -4.6961   22.3392 C   0  0  0  0  0  0
  -22.7848  -13.5226   21.1804 C   0  0  0  0  0  0
  -22.1646   -4.2150   21.0965 F   0  0  0  0  0  0
  -21.5647   -3.4537   25.7724 F   0  0  0  0  0  0
  -30.0177  -13.3785   20.4187 N   0  0  0  0  0  0
  -26.3017  -12.9405   20.3300 N   0  0  0  0  0  0
  -25.9356  -11.6544   20.5720 N   0  0  0  0  0  0
  -22.0509  -12.8223   22.0386 N   0  0  0  0  0  0
  -25.4315  -15.1937   20.4169 N   0  0  0  0  0  0
  -31.8332  -14.7181   20.1465 O   0  0  0  0  0  0
  -21.6665   -6.8881   21.4236 O   0  0  0  0  0  0
  -22.3490  -14.5499   20.6611 O   0  0  0  0  0  0
  -24.6244  -31.8623   23.2045 C   0  0  0  0  0  0
  -25.9102  -32.4798   23.8360 C   0  0  1  0  0  0
  -27.2233  -27.3449   20.1179 C   0  0  0  0  0  0
  -25.5923  -33.8596   24.2294 N   0  0  0  0  0  0
  -23.4157  -30.4857   21.5481 C   0  0  2  0  0  0
  -24.8594  -28.9389   20.1172 C   0  0  0  0  0  0
  -22.7467  -29.4637   22.4965 C   0  0  0  0  0  0
  -18.0284  -28.1392   22.8493 C   0  0  0  0  0  0
  -24.1483  -36.7306   23.2640 C   0  0  0  0  0  0
  -25.9524  -30.8016   21.3696 C   0  0  0  0  0  0
  -26.0270  -29.4285   20.7163 C   0  0  0  0  0  0
  -27.2140  -28.6436   20.7050 C   0  0  0  0  0  0
  -26.0368  -26.8994   19.4946 C   0  0  0  0  0  0
  -24.8634  -27.6780   19.4997 C   0  0  0  0  0  0
  -23.6279  -29.8178   20.1646 C   0  0  0  0  0  0
  -25.4106  -36.3098   24.0336 C   0  0  1  0  0  0
  -20.5886  -28.3686   23.1307 C   0  0  2  0  0  0
  -20.6775  -26.9416   22.5424 C   0  0  0  0  0  0
  -19.5746  -26.6385   21.5232 C   0  0  0  0  0  0
  -18.1925  -26.7934   22.1635 C   0  0  0  0  0  0
  -19.1533  -28.8855   23.2896 C   0  0  0  0  0  0
  -18.9462  -30.1462   23.8897 C   0  0  0  0  0  0
  -17.6460  -30.6600   24.0567 C   0  0  0  0  0  0
  -25.9043  -34.9466   23.5116 C   0  0  0  0  0  0
  -16.5350  -29.9095   23.6331 C   0  0  0  0  0  0
  -16.7271  -28.6516   23.0344 C   0  0  0  0  0  0
  -26.4482  -31.6605   25.0730 C   0  0  0  0  0  0
  -25.3717  -31.3749   26.1469 C   0  0  0  0  0  0
  -27.0332  -30.3032   24.6178 C   0  0  0  0  0  0
  -27.6035  -32.4346   25.7508 C   0  0  0  0  0  0
  -27.5581  -37.1815   24.8468 C   0  0  0  0  0  0
  -21.4188  -29.3044   22.3714 N   0  0  0  0  0  0
  -26.4287  -37.3789   23.9418 N   0  0  0  0  0  0
  -24.6830  -31.0658   22.0983 N   0  0  0  0  0  0
  -23.4207  -28.8190   23.3041 O   0  0  0  0  0  0
  -28.3561  -26.5308   20.1227 O   0  0  0  0  0  0
  -26.5615  -34.8929   22.4683 O   0  0  0  0  0  0
  -23.5421  -32.1405   23.7394 O   0  0  0  0  0  0
  -29.3226  -18.0898   20.3395 C   0  0  0  0  0  0
  -27.4847  -18.4207   19.1785 C   0  0  0  0  0  0
  -28.6406  -20.1812   19.8320 C   0  0  0  0  0  0
  -30.8780  -22.3310   20.7880 C   0  0  0  0  0  0
  -30.3352  -17.0759   20.9302 C   0  0  0  0  0  0
  -29.2407  -24.1048   19.9261 C   0  0  0  0  0  0
  -28.1982  -25.1233   20.5285 C   0  0  0  0  0  0
  -29.3850  -22.6404   20.5515 C   0  0  1  0  0  0
  -28.2768  -17.5308   19.7331 N   0  0  0  0  0  0
  -29.5606  -19.4195   20.4445 N   0  0  0  0  0  0
  -27.5851  -19.7349   19.1737 N   0  0  0  0  0  0
  -26.4172  -17.9122   18.5145 N   0  0  0  0  0  0
  -28.7419  -21.5834   19.7324 N   0  0  0  0  0  0
  -29.9204  -15.6423   20.8840 N   0  0  0  0  0  0
  -31.4752  -12.4649   19.1395 H   0  0  0  0  0  0
  -30.3372  -11.3616   19.8639 H   0  0  0  0  0  0
  -29.7647  -11.7730   17.4542 H   0  0  0  0  0  0
  -29.6686  -13.4880   17.7502 H   0  0  0  0  0  0
  -27.8322  -11.3175   18.8092 H   0  0  0  0  0  0
  -27.3823  -12.6480   17.7748 H   0  0  0  0  0  0
  -27.6809  -14.2654   19.5414 H   0  0  0  0  0  0
  -28.6976  -12.0318   21.3632 H   0  0  0  0  0  0
  -28.4636  -13.6879   21.8444 H   0  0  0  0  0  0
  -25.2791   -9.5681   22.4744 H   0  0  0  0  0  0
  -24.0000   -7.4652   22.7489 H   0  0  0  0  0  0
  -21.0852   -8.8756   19.8985 H   0  0  0  0  0  0
  -22.3684  -10.9665   19.6146 H   0  0  0  0  0  0
  -21.2019   -7.6154   23.9693 H   0  0  0  0  0  0
  -21.1488   -6.0547   25.9075 H   0  0  0  0  0  0
  -22.0611   -2.7607   23.2837 H   0  0  0  0  0  0
  -22.4100  -11.9863   22.4754 H   0  0  0  0  0  0
  -21.1137  -13.1267   22.2609 H   0  0  0  0  0  0
  -24.6715  -15.8537   20.5388 H   0  0  0  0  0  0
  -26.2981  -15.6461   20.1499 H   0  0  0  0  0  0
  -26.7174  -32.5477   23.1116 H   0  0  0  0  0  0
  -25.0066  -33.9739   25.0438 H   0  0  0  0  0  0
  -22.7077  -31.3047   21.4068 H   0  0  0  0  0  0
  -23.3747  -35.9637   23.3306 H   0  0  0  0  0  0
  -24.3564  -36.8930   22.2054 H   0  0  0  0  0  0
  -23.7236  -37.6511   23.6649 H   0  0  0  0  0  0
  -26.0768  -31.5645   20.5995 H   0  0  0  0  0  0
  -26.8366  -30.8533   21.9933 H   0  0  0  0  0  0
  -28.1135  -29.0190   21.1722 H   0  0  0  0  0  0
  -26.0095  -25.9422   18.9937 H   0  0  0  0  0  0
  -23.9671  -27.3008   19.0269 H   0  0  0  0  0  0
  -23.7465  -30.5933   19.4079 H   0  0  0  0  0  0
  -22.7483  -29.2464   19.8634 H   0  0  0  0  0  0
  -25.1284  -36.1944   25.0827 H   0  0  0  0  0  0
  -20.9958  -28.3247   24.1436 H   0  0  0  0  0  0
  -20.5690  -26.2291   23.3618 H   0  0  0  0  0  0
  -21.6640  -26.7458   22.1203 H   0  0  0  0  0  0
  -19.6902  -25.6294   21.1263 H   0  0  0  0  0  0
  -19.6687  -27.3196   20.6764 H   0  0  0  0  0  0
  -17.4200  -26.6702   21.4035 H   0  0  0  0  0  0
  -18.0312  -26.0077   22.9026 H   0  0  0  0  0  0
  -19.7936  -30.7293   24.2256 H   0  0  0  0  0  0
  -17.5013  -31.6273   24.5176 H   0  0  0  0  0  0
  -15.5353  -30.2998   23.7655 H   0  0  0  0  0  0
  -15.8672  -28.0846   22.7037 H   0  0  0  0  0  0
  -24.5859  -30.7136   25.7805 H   0  0  0  0  0  0
  -24.8945  -32.2923   26.4917 H   0  0  0  0  0  0
  -25.8037  -30.8899   27.0232 H   0  0  0  0  0  0
  -26.2913  -29.6794   24.1179 H   0  0  0  0  0  0
  -27.4022  -29.7276   25.4682 H   0  0  0  0  0  0
  -27.8774  -30.4349   23.9406 H   0  0  0  0  0  0
  -27.2625  -33.3632   26.2096 H   0  0  0  0  0  0
  -28.3828  -32.6947   25.0332 H   0  0  0  0  0  0
  -28.0712  -31.8471   26.5420 H   0  0  0  0  0  0
  -28.2602  -38.0111   24.7512 H   0  0  0  0  0  0
  -28.1076  -36.2646   24.6280 H   0  0  0  0  0  0
  -27.2304  -37.1450   25.8874 H   0  0  0  0  0  0
  -20.9362  -29.8763   21.6927 H   0  0  0  0  0  0
  -26.0177  -38.2870   24.1410 H   0  0  0  0  0  0
  -31.3609  -23.1171   21.3699 H   0  0  0  0  0  0
  -31.4230  -22.2406   19.8465 H   0  0  0  0  0  0
  -31.0253  -21.4109   21.3537 H   0  0  0  0  0  0
  -30.5161  -17.3375   21.9725 H   0  0  0  0  0  0
  -31.2860  -17.2146   20.4135 H   0  0  0  0  0  0
  -30.2040  -24.6065   20.0179 H   0  0  0  0  0  0
  -29.0845  -24.0300   18.8490 H   0  0  0  0  0  0
  -28.2935  -25.1044   21.6138 H   0  0  0  0  0  0
  -27.2002  -24.7360   20.3320 H   0  0  0  0  0  0
  -28.8907  -22.6383   21.5241 H   0  0  0  0  0  0
  -26.4761  -16.9459   18.2293 H   0  0  0  0  0  0
  -25.9626  -18.5273   17.8544 H   0  0  0  0  0  0
  -27.9859  -21.9527   19.1679 H   0  0  0  0  0  0
  -28.9333  -15.4898   21.0140 H   0  0  0  0  0  0
  1 25  1  0  0  0
  1 30  2  0  0  0
  1 84  1  0  0  0
  2  3  1  0  0  0
  2 25  1  0  0  0
  2 85  1  0  0  0
  2 86  1  0  0  0
  3  4  1  0  0  0
  3 87  1  0  0  0
  3 88  1  0  0  0
  4  5  1  0  0  0
  4 89  1  0  0  0
  4 90  1  0  0  0
  5  6  1  0  0  0
  5 26  1  0  0  0
  5 91  1  0  0  0
  6 25  1  0  0  0
  6 92  1  0  0  0
  6 93  1  0  0  0
  7  8  2  0  0  0
  7 26  1  0  0  0
  7 29  1  0  0  0
  8  9  1  0  0  0
  8 22  1  0  0  0
  9 10  1  0  0  0
  9 27  2  0  0  0
 10 11  2  0  0  0
 10 15  1  0  0  0
 11 12  1  0  0  0
 11 94  1  0  0  0
 12 13  2  0  0  0
 12 95  1  0  0  0
 13 14  1  0  0  0
 13 31  1  0  0  0
 14 15  2  0  0  0
 14 96  1  0  0  0
 15 97  1  0  0  0
 16 17  2  0  0  0
 16 21  1  0  0  0
 16 31  1  0  0  0
 17 18  1  0  0  0
 17 98  1  0  0  0
 18 19  2  0  0  0
 18 99  1  0  0  0
 19 20  1  0  0  0
 19 24  1  0  0  0
 20 21  2  0  0  0
 20100  1  0  0  0
 21 23  1  0  0  0
 22 28  1  0  0  0
 22 32  2  0  0  0
 26 27  1  0  0  0
 28101  1  0  0  0
 28102  1  0  0  0
 29103  1  0  0  0
 29104  1  0  0  0
 33 34  1  0  0  0
 33 66  1  0  0  0
 33 70  2  0  0  0
 34 36  1  0  0  0
 34 59  1  0  0  0
 34105  1  0  0  0
 35 44  2  0  0  0
 35 45  1  0  0  0
 35 68  1  0  0  0
 36 56  1  0  0  0
 36106  1  0  0  0
 37 39  1  0  0  0
 37 47  1  0  0  0
 37 66  1  0  0  0
 37107  1  0  0  0
 38 43  2  0  0  0
 38 46  1  0  0  0
 38 47  1  0  0  0
 39 64  1  0  0  0
 39 67  2  0  0  0
 40 52  1  0  0  0
 40 53  2  0  0  0
 40 58  1  0  0  0
 41108  1  0  0  0
 41109  1  0  0  0
 41110  1  0  0  0
 41 48  1  0  0  0
 42 43  1  0  0  0
 42 66  1  0  0  0
 42111  1  0  0  0
 42112  1  0  0  0
 43 44  1  0  0  0
 44113  1  0  0  0
 45 46  2  0  0  0
 45114  1  0  0  0
 46115  1  0  0  0
 47116  1  0  0  0
 47117  1  0  0  0
 48 56  1  0  0  0
 48 65  1  0  0  0
 48118  1  0  0  0
 49 50  1  0  0  0
 49 53  1  0  0  0
 49 64  1  0  0  0
 49119  1  0  0  0
 50 51  1  0  0  0
 50120  1  0  0  0
 50121  1  0  0  0
 51 52  1  0  0  0
 51122  1  0  0  0
 51123  1  0  0  0
 52124  1  0  0  0
 52125  1  0  0  0
 53 54  1  0  0  0
 54 55  2  0  0  0
 54126  1  0  0  0
 55 57  1  0  0  0
 55127  1  0  0  0
 56 69  2  0  0  0
 57 58  2  0  0  0
 57128  1  0  0  0
 58129  1  0  0  0
 59 60  1  0  0  0
 59 61  1  0  0  0
 59 62  1  0  0  0
 60130  1  0  0  0
 60131  1  0  0  0
 60132  1  0  0  0
 61133  1  0  0  0
 61134  1  0  0  0
 61135  1  0  0  0
 62136  1  0  0  0
 62137  1  0  0  0
 62138  1  0  0  0
 63 65  1  0  0  0
 63139  1  0  0  0
 63140  1  0  0  0
 63141  1  0  0  0
 64142  1  0  0  0
 65143  1  0  0  0
 68 77  1  0  0  0
 71 75  1  0  0  0
 71 79  1  0  0  0
 71 80  2  0  0  0
 72 79  2  0  0  0
 72 81  1  0  0  0
 72 82  1  0  0  0
 73 80  1  0  0  0
 73 81  2  0  0  0
 73 83  1  0  0  0
 74144  1  0  0  0
 74145  1  0  0  0
 74146  1  0  0  0
 74 78  1  0  0  0
 75 84  1  0  0  0
 75147  1  0  0  0
 75148  1  0  0  0
 76 77  1  0  0  0
 76 78  1  0  0  0
 76149  1  0  0  0
 76150  1  0  0  0
 77151  1  0  0  0
 77152  1  0  0  0
 78 83  1  0  0  0
 78153  1  0  0  0
 82154  1  0  0  0
 82155  1  0  0  0
 83156  1  0  0  0
 84157  1  0  0  0
M  ISO  4   1 100  68 101  77 101  84 100
M  END
> <chiral flag>
0

> <version>
0

> <s_m_source_file>
/data/baiqing/PycharmProjects/Reinvent-master-3.2/result/LINK_invent/BTK/process_docking_weight1_custom_product_contain_oxygen_bond_distance_aromatic_linkinvent_7_9_3/rearranged_h_0194.sdf

> <i_m_source_file_index>
71

> <r_mmod_Potential_Energy-OPLS-2005>
-1056.76171875

> <r_mmod_Stretch_Energy-OPLS-2005>
60.9694061279297

> <r_mmod_Bend_Energy-OPLS-2005>
144.413528442383

> <r_mmod_Torsional_Energy-OPLS-2005>
223.941772460938

> <r_mmod_Improper_Torsional_Energy-OPLS-2005>
8.47619247436523

> <r_mmod_Van_der_Waal_Energy-OPLS-2005>
165.002227783203

> <r_mmod_Electrostatic_Energy-OPLS-2005>
-1461.5380859375

> <r_mmod_Solvation_Energy-OPLS-2005>
-231.269958496094

> <b_mmod_Minimization_Converged-OPLS-2005>
0

> <r_mmod_RMS_Derivative-OPLS-2005>
2.61006617546082

$$$$
71
                    3D
 Structure written by MMmdl.
174182  0  0  1  0            999 V2000
  -30.6866  -14.4794   20.5759 C   0  0  0  0  0  0
  -30.4306  -12.3102   19.4212 C   0  0  0  0  0  0
  -29.4979  -12.5047   18.2066 C   0  0  0  0  0  0
  -28.0185  -12.3646   18.6182 C   0  0  0  0  0  0
  -27.6635  -13.2024   19.8759 C   0  0  2  0  0  0
  -28.7048  -12.9711   20.9949 C   0  0  0  0  0  0
  -25.2606  -13.8149   20.5683 C   0  0  0  0  0  0
  -24.1854  -13.0437   20.9170 C   0  0  0  0  0  0
  -24.6394  -11.6900   20.8712 C   0  0  0  0  0  0
  -23.9053  -10.4287   21.0395 C   0  0  0  0  0  0
  -24.3605   -9.4210   21.9175 C   0  0  0  0  0  0
  -23.6286   -8.2239   22.0750 C   0  0  0  0  0  0
  -22.4267   -8.0271   21.3541 C   0  0  0  0  0  0
  -21.9900   -9.0247   20.4644 C   0  0  0  0  0  0
  -22.7222  -10.2129   20.3049 C   0  0  0  0  0  0
  -21.6853   -6.0731   22.5278 C   0  0  0  0  0  0
  -21.4007   -6.5636   23.8210 C   0  0  0  0  0  0
  -21.3659   -5.6786   24.9174 C   0  0  0  0  0  0
  -21.6042   -4.3049   24.7223 C   0  0  0  0  0  0
  -21.8824   -3.8142   23.4346 C   0  0  0  0  0  0
  -21.9193   -4.6958   22.3400 C   0  0  0  0  0  0
  -22.7876  -13.5243   21.1826 C   0  0  0  0  0  0
  -22.1666   -4.2145   21.0976 F   0  0  0  0  0  0
  -21.5628   -3.4525   25.7737 F   0  0  0  0  0  0
  -30.0384  -13.2871   20.4497 N   0  0  0  0  0  0
  -26.3028  -12.9306   20.3345 N   0  0  0  0  0  0
  -25.9319  -11.6470   20.5752 N   0  0  0  0  0  0
  -22.0507  -12.8239   22.0379 N   0  0  0  0  0  0
  -25.4342  -15.1875   20.4121 N   0  0  0  0  0  0
  -31.8107  -14.6679   20.0947 O   0  0  0  0  0  0
  -21.6641   -6.8868   21.4238 O   0  0  0  0  0  0
  -22.3567  -14.5551   20.6679 O   0  0  0  0  0  0
  -24.6146  -31.8684   23.2087 C   0  0  0  0  0  0
  -25.9039  -32.4821   23.8386 C   0  0  1  0  0  0
  -27.2331  -27.4394   20.0978 C   0  0  0  0  0  0
  -25.5900  -33.8612   24.2318 N   0  0  0  0  0  0
  -23.4012  -30.4923   21.5502 C   0  0  2  0  0  0
  -24.8457  -28.9540   20.1173 C   0  0  0  0  0  0
  -22.7413  -29.4674   22.5005 C   0  0  0  0  0  0
  -18.0267  -28.1383   22.8501 C   0  0  0  0  0  0
  -24.1484  -36.7302   23.2640 C   0  0  0  0  0  0
  -25.9276  -30.8375   21.3573 C   0  0  0  0  0  0
  -26.0064  -29.4711   20.7065 C   0  0  0  0  0  0
  -27.2050  -28.7233   20.6882 C   0  0  0  0  0  0
  -26.0559  -26.9326   19.5069 C   0  0  0  0  0  0
  -24.8648  -27.6841   19.5143 C   0  0  0  0  0  0
  -23.6069  -29.8203   20.1663 C   0  0  0  0  0  0
  -25.4103  -36.3106   24.0343 C   0  0  1  0  0  0
  -20.5862  -28.3665   23.1332 C   0  0  2  0  0  0
  -20.6759  -26.9407   22.5422 C   0  0  0  0  0  0
  -19.5736  -26.6399   21.5221 C   0  0  0  0  0  0
  -18.1915  -26.7933   22.1634 C   0  0  0  0  0  0
  -19.1517  -28.8841   23.2913 C   0  0  0  0  0  0
  -18.9449  -30.1451   23.8917 C   0  0  0  0  0  0
  -17.6452  -30.6590   24.0575 C   0  0  0  0  0  0
  -25.9042  -34.9471   23.5131 C   0  0  0  0  0  0
  -16.5343  -29.9098   23.6329 C   0  0  0  0  0  0
  -16.7259  -28.6515   23.0357 C   0  0  0  0  0  0
  -26.4469  -31.6599   25.0707 C   0  0  0  0  0  0
  -25.3764  -31.3754   26.1499 C   0  0  0  0  0  0
  -27.0244  -30.3022   24.6071 C   0  0  0  0  0  0
  -27.6089  -32.4287   25.7430 C   0  0  0  0  0  0
  -27.5579  -37.1798   24.8460 C   0  0  0  0  0  0
  -21.4142  -29.3029   22.3739 N   0  0  0  0  0  0
  -26.4281  -37.3796   23.9424 N   0  0  0  0  0  0
  -24.6665  -31.0793   22.0980 N   0  0  0  0  0  0
  -23.4192  -28.8232   23.3056 O   0  0  0  0  0  0
  -28.4039  -26.7127   20.0812 O   0  0  0  0  0  0
  -26.5604  -34.8931   22.4695 O   0  0  0  0  0  0
  -23.5342  -32.1428   23.7488 O   0  0  0  0  0  0
  -29.0351  -19.0010   21.7423 C   0  0  0  0  0  0
  -29.0179  -17.5906   21.7203 C   0  0  0  0  0  0
  -31.1307  -18.8940   20.5789 C   0  0  0  0  0  0
  -30.1246  -19.6884   21.1678 C   0  0  0  0  0  0
  -30.0767  -16.8689   21.1274 C   0  0  0  0  0  0
  -31.1087  -21.0629   23.7080 C   0  0  0  0  0  0
  -32.2635  -24.4574   17.0072 C   0  0  0  0  0  0
  -32.8309  -24.6676   19.4557 C   0  0  0  0  0  0
  -30.1368  -21.7305   22.7198 C   0  0  0  0  0  0
  -30.8474  -23.2232   18.7129 C   0  0  0  0  0  0
  -28.3433  -25.3827   20.6243 C   0  0  0  0  0  0
  -30.2797  -21.2219   21.2620 C   0  0  2  0  0  0
  -31.6934  -24.4896   18.4342 C   0  0  0  0  0  0
  -29.8662  -23.3353   19.9116 C   0  0  1  0  0  0
  -28.6545  -24.2753   19.5715 C   0  0  1  0  0  0
  -31.1066  -17.5400   20.5553 N   0  0  0  0  0  0
  -29.9604  -15.4464   21.1768 N   0  0  0  0  0  0
  -29.3984  -21.9780   20.3250 N   0  3  0  0  0  0
  -27.4923  -23.4844   19.3443 O   0  0  0  0  0  0
  -31.4735  -12.4181   19.1168 H   0  0  0  0  0  0
  -30.3419  -11.2964   19.8143 H   0  0  0  0  0  0
  -29.7388  -11.7785   17.4289 H   0  0  0  0  0  0
  -29.6648  -13.4890   17.7665 H   0  0  0  0  0  0
  -27.8281  -11.3084   18.8118 H   0  0  0  0  0  0
  -27.3684  -12.6399   17.7871 H   0  0  0  0  0  0
  -27.7108  -14.2510   19.5827 H   0  0  0  0  0  0
  -28.6826  -11.9294   21.3188 H   0  0  0  0  0  0
  -28.4583  -13.5512   21.8851 H   0  0  0  0  0  0
  -25.2762   -9.5684   22.4734 H   0  0  0  0  0  0
  -24.0002   -7.4628   22.7469 H   0  0  0  0  0  0
  -21.0826   -8.8754   19.8951 H   0  0  0  0  0  0
  -22.3680  -10.9655   19.6145 H   0  0  0  0  0  0
  -21.1998   -7.6147   23.9707 H   0  0  0  0  0  0
  -21.1473   -6.0520   25.9074 H   0  0  0  0  0  0
  -22.0604   -2.7602   23.2841 H   0  0  0  0  0  0
  -22.4112  -11.9900   22.4771 H   0  0  0  0  0  0
  -21.1124  -13.1273   22.2568 H   0  0  0  0  0  0
  -24.6667  -15.8408   20.5240 H   0  0  0  0  0  0
  -26.2848  -15.6267   20.0836 H   0  0  0  0  0  0
  -26.7115  -32.5536   23.1157 H   0  0  0  0  0  0
  -25.0050  -33.9773   25.0467 H   0  0  0  0  0  0
  -22.6892  -31.3089   21.4122 H   0  0  0  0  0  0
  -23.3773  -35.9603   23.3251 H   0  0  0  0  0  0
  -24.3598  -36.8972   22.2065 H   0  0  0  0  0  0
  -23.7186  -37.6471   23.6689 H   0  0  0  0  0  0
  -26.0358  -31.6025   20.5869 H   0  0  0  0  0  0
  -26.8178  -30.8925   21.9717 H   0  0  0  0  0  0
  -28.1042  -29.1233   21.1356 H   0  0  0  0  0  0
  -26.0557  -25.9640   19.0316 H   0  0  0  0  0  0
  -23.9710  -27.2813   19.0560 H   0  0  0  0  0  0
  -23.7127  -30.5925   19.4034 H   0  0  0  0  0  0
  -22.7307  -29.2381   19.8757 H   0  0  0  0  0  0
  -25.1273  -36.1964   25.0832 H   0  0  0  0  0  0
  -20.9947  -28.3220   24.1460 H   0  0  0  0  0  0
  -20.5681  -26.2273   23.3607 H   0  0  0  0  0  0
  -21.6633  -26.7468   22.1205 H   0  0  0  0  0  0
  -19.6904  -25.6320   21.1232 H   0  0  0  0  0  0
  -19.6676  -27.3231   20.6773 H   0  0  0  0  0  0
  -17.4194  -26.6697   21.4026 H   0  0  0  0  0  0
  -18.0306  -26.0067   22.9023 H   0  0  0  0  0  0
  -19.7930  -30.7257   24.2290 H   0  0  0  0  0  0
  -17.5019  -31.6268   24.5186 H   0  0  0  0  0  0
  -15.5347  -30.3014   23.7647 H   0  0  0  0  0  0
  -15.8664  -28.0846   22.7057 H   0  0  0  0  0  0
  -24.5776  -30.7300   25.7828 H   0  0  0  0  0  0
  -24.9167  -32.2956   26.5117 H   0  0  0  0  0  0
  -25.8100  -30.8727   27.0156 H   0  0  0  0  0  0
  -26.2727  -29.6787   24.1204 H   0  0  0  0  0  0
  -27.4083  -29.7262   25.4503 H   0  0  0  0  0  0
  -27.8564  -30.4305   23.9140 H   0  0  0  0  0  0
  -27.2780  -33.3655   26.1924 H   0  0  0  0  0  0
  -28.3930  -32.6714   25.0245 H   0  0  0  0  0  0
  -28.0704  -31.8436   26.5396 H   0  0  0  0  0  0
  -28.2595  -38.0102   24.7529 H   0  0  0  0  0  0
  -28.1078  -36.2633   24.6248 H   0  0  0  0  0  0
  -27.2312  -37.1403   25.8870 H   0  0  0  0  0  0
  -20.9309  -29.8731   21.6940 H   0  0  0  0  0  0
  -26.0168  -38.2874   24.1446 H   0  0  0  0  0  0
  -28.2300  -19.5399   22.2197 H   0  0  0  0  0  0
  -28.1845  -17.0741   22.1774 H   0  0  0  0  0  0
  -31.9997  -19.3531   20.1308 H   0  0  0  0  0  0
  -30.9745  -21.4657   24.7121 H   0  0  0  0  0  0
  -32.1479  -21.2359   23.4235 H   0  0  0  0  0  0
  -30.9565  -19.9850   23.7703 H   0  0  0  0  0  0
  -32.8174  -25.3693   16.7800 H   0  0  0  0  0  0
  -31.4696  -24.3709   16.2643 H   0  0  0  0  0  0
  -32.9409  -23.6144   16.8662 H   0  0  0  0  0  0
  -33.4056  -25.5711   19.2470 H   0  0  0  0  0  0
  -33.5257  -23.8269   19.4312 H   0  0  0  0  0  0
  -32.4583  -24.7586   20.4756 H   0  0  0  0  0  0
  -30.3022  -22.8073   22.7650 H   0  0  0  0  0  0
  -29.1170  -21.5743   23.0732 H   0  0  0  0  0  0
  -31.5319  -22.3861   18.8548 H   0  0  0  0  0  0
  -30.2701  -22.9701   17.8222 H   0  0  0  0  0  0
  -29.0785  -25.3581   21.4282 H   0  0  0  0  0  0
  -27.3917  -25.1883   21.1239 H   0  0  0  0  0  0
  -31.3060  -21.4312   20.9555 H   0  0  0  0  0  0
  -31.0517  -25.3699   18.4966 H   0  0  0  0  0  0
  -30.4177  -23.7693   20.7432 H   0  0  0  0  0  0
  -28.8588  -24.7862   18.6291 H   0  0  0  0  0  0
  -29.1090  -15.1049   21.5921 H   0  0  0  0  0  0
  -28.4768  -22.1133   20.7142 H   0  0  0  0  0  0
  -29.2534  -21.4528   19.4789 H   0  0  0  0  0  0
  -26.8517  -24.0297   18.8982 H   0  0  0  0  0  0
  1 25  1  0  0  0
  1 30  2  0  0  0
  1 87  1  0  0  0
  2  3  1  0  0  0
  2 25  1  0  0  0
  2 90  1  0  0  0
  2 91  1  0  0  0
  3  4  1  0  0  0
  3 92  1  0  0  0
  3 93  1  0  0  0
  4  5  1  0  0  0
  4 94  1  0  0  0
  4 95  1  0  0  0
  5  6  1  0  0  0
  5 26  1  0  0  0
  5 96  1  0  0  0
  6 25  1  0  0  0
  6 97  1  0  0  0
  6 98  1  0  0  0
  7  8  2  0  0  0
  7 26  1  0  0  0
  7 29  1  0  0  0
  8  9  1  0  0  0
  8 22  1  0  0  0
  9 10  1  0  0  0
  9 27  2  0  0  0
 10 11  2  0  0  0
 10 15  1  0  0  0
 11 12  1  0  0  0
 11 99  1  0  0  0
 12 13  2  0  0  0
 12100  1  0  0  0
 13 14  1  0  0  0
 13 31  1  0  0  0
 14 15  2  0  0  0
 14101  1  0  0  0
 15102  1  0  0  0
 16 17  2  0  0  0
 16 21  1  0  0  0
 16 31  1  0  0  0
 17 18  1  0  0  0
 17103  1  0  0  0
 18 19  2  0  0  0
 18104  1  0  0  0
 19 20  1  0  0  0
 19 24  1  0  0  0
 20 21  2  0  0  0
 20105  1  0  0  0
 21 23  1  0  0  0
 22 28  1  0  0  0
 22 32  2  0  0  0
 26 27  1  0  0  0
 28106  1  0  0  0
 28107  1  0  0  0
 29108  1  0  0  0
 29109  1  0  0  0
 33 34  1  0  0  0
 33 66  1  0  0  0
 33 70  2  0  0  0
 34 36  1  0  0  0
 34 59  1  0  0  0
 34110  1  0  0  0
 35 44  2  0  0  0
 35 45  1  0  0  0
 35 68  1  0  0  0
 36 56  1  0  0  0
 36111  1  0  0  0
 37 39  1  0  0  0
 37 47  1  0  0  0
 37 66  1  0  0  0
 37112  1  0  0  0
 38 43  2  0  0  0
 38 46  1  0  0  0
 38 47  1  0  0  0
 39 64  1  0  0  0
 39 67  2  0  0  0
 40 52  1  0  0  0
 40 53  2  0  0  0
 40 58  1  0  0  0
 41113  1  0  0  0
 41114  1  0  0  0
 41115  1  0  0  0
 41 48  1  0  0  0
 42 43  1  0  0  0
 42 66  1  0  0  0
 42116  1  0  0  0
 42117  1  0  0  0
 43 44  1  0  0  0
 44118  1  0  0  0
 45 46  2  0  0  0
 45119  1  0  0  0
 46120  1  0  0  0
 47121  1  0  0  0
 47122  1  0  0  0
 48 56  1  0  0  0
 48 65  1  0  0  0
 48123  1  0  0  0
 49 50  1  0  0  0
 49 53  1  0  0  0
 49 64  1  0  0  0
 49124  1  0  0  0
 50 51  1  0  0  0
 50125  1  0  0  0
 50126  1  0  0  0
 51 52  1  0  0  0
 51127  1  0  0  0
 51128  1  0  0  0
 52129  1  0  0  0
 52130  1  0  0  0
 53 54  1  0  0  0
 54 55  2  0  0  0
 54131  1  0  0  0
 55 57  1  0  0  0
 55132  1  0  0  0
 56 69  2  0  0  0
 57 58  2  0  0  0
 57133  1  0  0  0
 58134  1  0  0  0
 59 60  1  0  0  0
 59 61  1  0  0  0
 59 62  1  0  0  0
 60135  1  0  0  0
 60136  1  0  0  0
 60137  1  0  0  0
 61138  1  0  0  0
 61139  1  0  0  0
 61140  1  0  0  0
 62141  1  0  0  0
 62142  1  0  0  0
 62143  1  0  0  0
 63 65  1  0  0  0
 63144  1  0  0  0
 63145  1  0  0  0
 63146  1  0  0  0
 64147  1  0  0  0
 65148  1  0  0  0
 68 81  1  0  0  0
 71 72  2  0  0  0
 71 74  1  0  0  0
 71149  1  0  0  0
 72 75  1  0  0  0
 72150  1  0  0  0
 73 74  2  0  0  0
 73 86  1  0  0  0
 73151  1  0  0  0
 74 82  1  0  0  0
 75 86  2  0  0  0
 75 87  1  0  0  0
 76 79  1  0  0  0
 76152  1  0  0  0
 76153  1  0  0  0
 76154  1  0  0  0
 77155  1  0  0  0
 77156  1  0  0  0
 77157  1  0  0  0
 77 83  1  0  0  0
 78 83  1  0  0  0
 78158  1  0  0  0
 78159  1  0  0  0
 78160  1  0  0  0
 79161  1  0  0  0
 79162  1  0  0  0
 79 82  1  0  0  0
 80 83  1  0  0  0
 80163  1  0  0  0
 80164  1  0  0  0
 80 84  1  0  0  0
 81 85  1  0  0  0
 81165  1  0  0  0
 81166  1  0  0  0
 82 88  1  0  0  0
 82167  1  0  0  0
 83168  1  0  0  0
 84 85  1  0  0  0
 84 88  1  0  0  0
 84169  1  0  0  0
 85 89  1  0  0  0
 85170  1  0  0  0
 87171  1  0  0  0
 88172  1  0  0  0
 88173  1  0  0  0
 89174  1  0  0  0
M  CHG  1  88   1
M  ISO  4   1 100  68 101  81 101  87 100
M  END
> <chiral flag>
0

> <version>
0

> <s_m_source_file>
/data/baiqing/PycharmProjects/Reinvent-master-3.2/result/LINK_invent/BTK/process_docking_weight1_custom_product_contain_oxygen_bond_distance_aromatic_linkinvent_7_9_3/rearranged_h_0194.sdf

> <i_m_source_file_index>
72

> <r_mmod_Potential_Energy-OPLS-2005>
-298.48828125

> <r_mmod_Stretch_Energy-OPLS-2005>
42.6011047363281

> <r_mmod_Bend_Energy-OPLS-2005>
109.783866882324

> <r_mmod_Torsional_Energy-OPLS-2005>
264.687713623047

> <r_mmod_Improper_Torsional_Energy-OPLS-2005>
3.22651648521423

> <r_mmod_Van_der_Waal_Energy-OPLS-2005>
158.02668762207

> <r_mmod_Electrostatic_Energy-OPLS-2005>
-430.536834716797

> <r_mmod_Solvation_Energy-OPLS-2005>
-458.235748291016

> <b_mmod_Minimization_Converged-OPLS-2005>
0

> <r_mmod_RMS_Derivative-OPLS-2005>
1.6509063243866

$$$$
72
                    3D
 Structure written by MMmdl.
156164  0  0  1  0            999 V2000
  -30.6615  -14.5681   20.5248 C   0  0  0  0  0  0
  -30.4265  -12.3466   19.4564 C   0  0  0  0  0  0
  -29.5014  -12.4734   18.2250 C   0  0  0  0  0  0
  -28.0221  -12.3284   18.6390 C   0  0  0  0  0  0
  -27.6494  -13.2084   19.8628 C   0  0  2  0  0  0
  -28.6898  -13.0516   20.9943 C   0  0  0  0  0  0
  -25.2541  -13.8161   20.5714 C   0  0  0  0  0  0
  -24.1792  -13.0448   20.9220 C   0  0  0  0  0  0
  -24.6330  -11.6917   20.8739 C   0  0  0  0  0  0
  -23.9000  -10.4305   21.0405 C   0  0  0  0  0  0
  -24.3562   -9.4224   21.9186 C   0  0  0  0  0  0
  -23.6266   -8.2234   22.0745 C   0  0  0  0  0  0
  -22.4243   -8.0259   21.3544 C   0  0  0  0  0  0
  -21.9855   -9.0235   20.4651 C   0  0  0  0  0  0
  -22.7155  -10.2144   20.3070 C   0  0  0  0  0  0
  -21.6848   -6.0725   22.5276 C   0  0  0  0  0  0
  -21.4010   -6.5628   23.8207 C   0  0  0  0  0  0
  -21.3666   -5.6785   24.9166 C   0  0  0  0  0  0
  -21.6025   -4.3042   24.7217 C   0  0  0  0  0  0
  -21.8818   -3.8137   23.4336 C   0  0  0  0  0  0
  -21.9189   -4.6957   22.3395 C   0  0  0  0  0  0
  -22.7811  -13.5262   21.1862 C   0  0  0  0  0  0
  -22.1652   -4.2149   21.0974 F   0  0  0  0  0  0
  -21.5641   -3.4534   25.7739 F   0  0  0  0  0  0
  -30.0122  -13.3713   20.4322 N   0  0  0  0  0  0
  -26.2947  -12.9322   20.3313 N   0  0  0  0  0  0
  -25.9259  -11.6490   20.5746 N   0  0  0  0  0  0
  -22.0405  -12.8327   22.0424 N   0  0  0  0  0  0
  -25.4284  -15.1861   20.4141 N   0  0  0  0  0  0
  -31.8230  -14.6971   20.1332 O   0  0  0  0  0  0
  -21.6617   -6.8853   21.4229 O   0  0  0  0  0  0
  -22.3514  -14.5561   20.6667 O   0  0  0  0  0  0
  -24.6219  -31.8625   23.2042 C   0  0  0  0  0  0
  -25.9089  -32.4793   23.8346 C   0  0  1  0  0  0
  -27.2075  -27.3484   20.1017 C   0  0  0  0  0  0
  -25.5927  -33.8587   24.2271 N   0  0  0  0  0  0
  -23.4107  -30.4848   21.5482 C   0  0  2  0  0  0
  -24.8502  -28.9417   20.1089 C   0  0  0  0  0  0
  -22.7437  -29.4633   22.4995 C   0  0  0  0  0  0
  -18.0278  -28.1373   22.8485 C   0  0  0  0  0  0
  -24.1488  -36.7288   23.2635 C   0  0  0  0  0  0
  -25.9488  -30.7973   21.3713 C   0  0  0  0  0  0
  -26.0161  -29.4276   20.7120 C   0  0  0  0  0  0
  -27.1982  -28.6419   20.6953 C   0  0  0  0  0  0
  -26.0218  -26.8981   19.4819 C   0  0  0  0  0  0
  -24.8543  -27.6840   19.4835 C   0  0  0  0  0  0
  -23.6164  -29.8150   20.1646 C   0  0  0  0  0  0
  -25.4109  -36.3074   24.0325 C   0  0  1  0  0  0
  -20.5874  -28.3655   23.1317 C   0  0  2  0  0  0
  -20.6774  -26.9391   22.5414 C   0  0  0  0  0  0
  -19.5745  -26.6377   21.5217 C   0  0  0  0  0  0
  -18.1925  -26.7920   22.1625 C   0  0  0  0  0  0
  -19.1529  -28.8829   23.2901 C   0  0  0  0  0  0
  -18.9459  -30.1441   23.8911 C   0  0  0  0  0  0
  -17.6453  -30.6590   24.0558 C   0  0  0  0  0  0
  -25.9047  -34.9458   23.5097 C   0  0  0  0  0  0
  -16.5349  -29.9073   23.6337 C   0  0  0  0  0  0
  -16.7267  -28.6494   23.0363 C   0  0  0  0  0  0
  -26.4486  -31.6600   25.0712 C   0  0  0  0  0  0
  -25.3730  -31.3768   26.1456 C   0  0  0  0  0  0
  -27.0337  -30.3023   24.6172 C   0  0  0  0  0  0
  -27.6041  -32.4359   25.7473 C   0  0  0  0  0  0
  -27.5587  -37.1793   24.8460 C   0  0  0  0  0  0
  -21.4166  -29.3017   22.3717 N   0  0  0  0  0  0
  -26.4292  -37.3771   23.9416 N   0  0  0  0  0  0
  -24.6792  -31.0652   22.0980 N   0  0  0  0  0  0
  -23.4196  -28.8168   23.3049 O   0  0  0  0  0  0
  -28.3600  -26.5698   20.1422 O   0  0  0  0  0  0
  -26.5607  -34.8923   22.4662 O   0  0  0  0  0  0
  -23.5395  -32.1415   23.7401 O   0  0  0  0  0  0
  -31.4851  -17.5601   20.8053 C   0  0  0  0  0  0
  -30.7327  -19.7488   20.7838 C   0  0  0  0  0  0
  -30.1556  -17.0553   20.8556 C   0  0  0  0  0  0
  -29.3930  -19.3021   20.8410 C   0  0  0  0  0  0
  -28.7019  -21.4348   18.7718 C   0  0  0  0  0  0
  -27.8968  -24.1384   20.8986 C   0  0  0  0  0  0
  -28.6305  -22.7400   21.0369 C   0  0  0  0  0  0
  -28.3616  -25.1465   19.7901 C   0  0  0  0  0  0
  -28.1529  -21.4917   20.2067 C   0  0  2  0  0  0
  -31.7769  -18.8847   20.7712 N   0  0  0  0  0  0
  -29.1200  -17.9599   20.8909 N   0  0  0  0  0  0
  -29.8881  -15.6311   20.8911 N   0  0  0  0  0  0
  -28.2843  -20.1832   20.8990 N   0  0  0  0  0  0
  -31.4740  -12.4480   19.1639 H   0  0  0  0  0  0
  -30.3445  -11.3559   19.9047 H   0  0  0  0  0  0
  -29.7553  -11.7066   17.4917 H   0  0  0  0  0  0
  -29.6590  -13.4317   17.7287 H   0  0  0  0  0  0
  -27.8559  -11.2779   18.8825 H   0  0  0  0  0  0
  -27.3651  -12.5465   17.7968 H   0  0  0  0  0  0
  -27.6737  -14.2409   19.5143 H   0  0  0  0  0  0
  -28.6816  -12.0298   21.3769 H   0  0  0  0  0  0
  -28.4483  -13.6870   21.8477 H   0  0  0  0  0  0
  -25.2702   -9.5730   22.4763 H   0  0  0  0  0  0
  -24.0003   -7.4614   22.7447 H   0  0  0  0  0  0
  -21.0782   -8.8719   19.8960 H   0  0  0  0  0  0
  -22.3563  -10.9674   19.6186 H   0  0  0  0  0  0
  -21.1992   -7.6145   23.9715 H   0  0  0  0  0  0
  -21.1492   -6.0516   25.9080 H   0  0  0  0  0  0
  -22.0592   -2.7608   23.2827 H   0  0  0  0  0  0
  -22.4012  -12.0070   22.4952 H   0  0  0  0  0  0
  -21.1012  -13.1385   22.2539 H   0  0  0  0  0  0
  -24.6682  -15.8466   20.5360 H   0  0  0  0  0  0
  -26.2741  -15.6217   20.0682 H   0  0  0  0  0  0
  -26.7144  -32.5453   23.1072 H   0  0  0  0  0  0
  -25.0117  -33.9738   25.0444 H   0  0  0  0  0  0
  -22.6996  -31.3029   21.4092 H   0  0  0  0  0  0
  -23.3765  -35.9614   23.3292 H   0  0  0  0  0  0
  -24.3576  -36.8921   22.2057 H   0  0  0  0  0  0
  -23.7241  -37.6482   23.6664 H   0  0  0  0  0  0
  -26.0869  -31.5626   20.6056 H   0  0  0  0  0  0
  -26.8277  -30.8360   22.0057 H   0  0  0  0  0  0
  -28.0989  -29.0102   21.1665 H   0  0  0  0  0  0
  -25.9663  -25.9379   18.9937 H   0  0  0  0  0  0
  -23.9572  -27.3126   19.0085 H   0  0  0  0  0  0
  -23.7223  -30.5867   19.4010 H   0  0  0  0  0  0
  -22.7374  -29.2343   19.8768 H   0  0  0  0  0  0
  -25.1292  -36.1923   25.0818 H   0  0  0  0  0  0
  -20.9960  -28.3227   24.1440 H   0  0  0  0  0  0
  -20.5706  -26.2256   23.3590 H   0  0  0  0  0  0
  -21.6640  -26.7452   22.1190 H   0  0  0  0  0  0
  -19.6911  -25.6291   21.1239 H   0  0  0  0  0  0
  -19.6694  -27.3194   20.6753 H   0  0  0  0  0  0
  -17.4195  -26.6686   21.4023 H   0  0  0  0  0  0
  -18.0317  -26.0055   22.9014 H   0  0  0  0  0  0
  -19.7930  -30.7262   24.2287 H   0  0  0  0  0  0
  -17.5011  -31.6267   24.5161 H   0  0  0  0  0  0
  -15.5347  -30.2986   23.7664 H   0  0  0  0  0  0
  -15.8664  -28.0819   22.7083 H   0  0  0  0  0  0
  -24.5815  -30.7227   25.7777 H   0  0  0  0  0  0
  -24.9033  -32.2970   26.4942 H   0  0  0  0  0  0
  -25.8032  -30.8858   27.0192 H   0  0  0  0  0  0
  -26.2911  -29.6765   24.1205 H   0  0  0  0  0  0
  -27.4052  -29.7287   25.4672 H   0  0  0  0  0  0
  -27.8766  -30.4313   23.9381 H   0  0  0  0  0  0
  -27.2610  -33.3626   26.2088 H   0  0  0  0  0  0
  -28.3801  -32.7002   25.0277 H   0  0  0  0  0  0
  -28.0767  -31.8494   26.5357 H   0  0  0  0  0  0
  -28.2586  -38.0104   24.7516 H   0  0  0  0  0  0
  -28.1096  -36.2640   24.6257 H   0  0  0  0  0  0
  -27.2312  -37.1411   25.8862 H   0  0  0  0  0  0
  -20.9344  -29.8703   21.6897 H   0  0  0  0  0  0
  -26.0173  -38.2850   24.1419 H   0  0  0  0  0  0
  -32.3536  -16.9175   20.8072 H   0  0  0  0  0  0
  -30.9767  -20.8007   20.7895 H   0  0  0  0  0  0
  -28.4264  -22.3276   18.2109 H   0  0  0  0  0  0
  -28.2999  -20.5714   18.2345 H   0  0  0  0  0  0
  -29.7897  -21.3591   18.7452 H   0  0  0  0  0  0
  -28.0841  -24.6491   21.8447 H   0  0  0  0  0  0
  -26.8121  -24.0093   20.8674 H   0  0  0  0  0  0
  -28.4934  -22.4724   22.0862 H   0  0  0  0  0  0
  -29.7062  -22.8819   20.9221 H   0  0  0  0  0  0
  -27.8496  -24.9459   18.8475 H   0  0  0  0  0  0
  -29.4069  -24.9206   19.5768 H   0  0  0  0  0  0
  -27.0722  -21.6067   20.0957 H   0  0  0  0  0  0
  -28.9320  -15.3846   21.0871 H   0  0  0  0  0  0
  -27.4041  -19.7067   21.0576 H   0  0  0  0  0  0
  1 25  1  0  0  0
  1 30  2  0  0  0
  1 82  1  0  0  0
  2  3  1  0  0  0
  2 25  1  0  0  0
  2 84  1  0  0  0
  2 85  1  0  0  0
  3  4  1  0  0  0
  3 86  1  0  0  0
  3 87  1  0  0  0
  4  5  1  0  0  0
  4 88  1  0  0  0
  4 89  1  0  0  0
  5  6  1  0  0  0
  5 26  1  0  0  0
  5 90  1  0  0  0
  6 25  1  0  0  0
  6 91  1  0  0  0
  6 92  1  0  0  0
  7  8  2  0  0  0
  7 26  1  0  0  0
  7 29  1  0  0  0
  8  9  1  0  0  0
  8 22  1  0  0  0
  9 10  1  0  0  0
  9 27  2  0  0  0
 10 11  2  0  0  0
 10 15  1  0  0  0
 11 12  1  0  0  0
 11 93  1  0  0  0
 12 13  2  0  0  0
 12 94  1  0  0  0
 13 14  1  0  0  0
 13 31  1  0  0  0
 14 15  2  0  0  0
 14 95  1  0  0  0
 15 96  1  0  0  0
 16 17  2  0  0  0
 16 21  1  0  0  0
 16 31  1  0  0  0
 17 18  1  0  0  0
 17 97  1  0  0  0
 18 19  2  0  0  0
 18 98  1  0  0  0
 19 20  1  0  0  0
 19 24  1  0  0  0
 20 21  2  0  0  0
 20 99  1  0  0  0
 21 23  1  0  0  0
 22 28  1  0  0  0
 22 32  2  0  0  0
 26 27  1  0  0  0
 28100  1  0  0  0
 28101  1  0  0  0
 29102  1  0  0  0
 29103  1  0  0  0
 33 34  1  0  0  0
 33 66  1  0  0  0
 33 70  2  0  0  0
 34 36  1  0  0  0
 34 59  1  0  0  0
 34104  1  0  0  0
 35 44  2  0  0  0
 35 45  1  0  0  0
 35 68  1  0  0  0
 36 56  1  0  0  0
 36105  1  0  0  0
 37 39  1  0  0  0
 37 47  1  0  0  0
 37 66  1  0  0  0
 37106  1  0  0  0
 38 43  2  0  0  0
 38 46  1  0  0  0
 38 47  1  0  0  0
 39 64  1  0  0  0
 39 67  2  0  0  0
 40 52  1  0  0  0
 40 53  2  0  0  0
 40 58  1  0  0  0
 41107  1  0  0  0
 41108  1  0  0  0
 41109  1  0  0  0
 41 48  1  0  0  0
 42 43  1  0  0  0
 42 66  1  0  0  0
 42110  1  0  0  0
 42111  1  0  0  0
 43 44  1  0  0  0
 44112  1  0  0  0
 45 46  2  0  0  0
 45113  1  0  0  0
 46114  1  0  0  0
 47115  1  0  0  0
 47116  1  0  0  0
 48 56  1  0  0  0
 48 65  1  0  0  0
 48117  1  0  0  0
 49 50  1  0  0  0
 49 53  1  0  0  0
 49 64  1  0  0  0
 49118  1  0  0  0
 50 51  1  0  0  0
 50119  1  0  0  0
 50120  1  0  0  0
 51 52  1  0  0  0
 51121  1  0  0  0
 51122  1  0  0  0
 52123  1  0  0  0
 52124  1  0  0  0
 53 54  1  0  0  0
 54 55  2  0  0  0
 54125  1  0  0  0
 55 57  1  0  0  0
 55126  1  0  0  0
 56 69  2  0  0  0
 57 58  2  0  0  0
 57127  1  0  0  0
 58128  1  0  0  0
 59 60  1  0  0  0
 59 61  1  0  0  0
 59 62  1  0  0  0
 60129  1  0  0  0
 60130  1  0  0  0
 60131  1  0  0  0
 61132  1  0  0  0
 61133  1  0  0  0
 61134  1  0  0  0
 62135  1  0  0  0
 62136  1  0  0  0
 62137  1  0  0  0
 63 65  1  0  0  0
 63138  1  0  0  0
 63139  1  0  0  0
 63140  1  0  0  0
 64141  1  0  0  0
 65142  1  0  0  0
 68 78  1  0  0  0
 71 73  2  0  0  0
 71 80  1  0  0  0
 71143  1  0  0  0
 72 74  1  0  0  0
 72 80  2  0  0  0
 72144  1  0  0  0
 73 81  1  0  0  0
 73 82  1  0  0  0
 74 81  2  0  0  0
 74 83  1  0  0  0
 75145  1  0  0  0
 75146  1  0  0  0
 75147  1  0  0  0
 75 79  1  0  0  0
 76 77  1  0  0  0
 76 78  1  0  0  0
 76148  1  0  0  0
 76149  1  0  0  0
 77 79  1  0  0  0
 77150  1  0  0  0
 77151  1  0  0  0
 78152  1  0  0  0
 78153  1  0  0  0
 79 83  1  0  0  0
 79154  1  0  0  0
 82155  1  0  0  0
 83156  1  0  0  0
M  ISO  4   1 100  68 101  78 101  82 100
M  END
> <chiral flag>
0

> <version>
0

> <s_m_source_file>
/data/baiqing/PycharmProjects/Reinvent-master-3.2/result/LINK_invent/BTK/process_docking_weight1_custom_product_contain_oxygen_bond_distance_aromatic_linkinvent_7_9_3/rearranged_h_0194.sdf

> <i_m_source_file_index>
73

> <r_mmod_Potential_Energy-OPLS-2005>
12.9807901382446

> <r_mmod_Stretch_Energy-OPLS-2005>
60.8334579467773

> <r_mmod_Bend_Energy-OPLS-2005>
153.535720825195

> <r_mmod_Torsional_Energy-OPLS-2005>
215.077987670898

> <r_mmod_Improper_Torsional_Energy-OPLS-2005>
6.40945386886597

> <r_mmod_Van_der_Waal_Energy-OPLS-2005>
151.159927368164

> <r_mmod_Electrostatic_Energy-OPLS-2005>
-389.257965087891

> <r_mmod_Solvation_Energy-OPLS-2005>
-217.316192626953

> <b_mmod_Minimization_Converged-OPLS-2005>
0

> <r_mmod_RMS_Derivative-OPLS-2005>
4.62839078903198

$$$$
73
                    3D
 Structure written by MMmdl.
153161  0  0  1  0            999 V2000
  -30.6086  -14.7921   20.4484 C   0  0  0  0  0  0
  -30.4403  -12.4811   19.4911 C   0  0  0  0  0  0
  -29.5181  -12.4730   18.2524 C   0  0  0  0  0  0
  -28.0575  -12.2628   18.6859 C   0  0  0  0  0  0
  -27.6388  -13.2214   19.8321 C   0  0  2  0  0  0
  -28.6758  -13.2242   20.9752 C   0  0  0  0  0  0
  -25.2611  -13.8176   20.5737 C   0  0  0  0  0  0
  -24.1850  -13.0412   20.9226 C   0  0  0  0  0  0
  -24.6417  -11.6896   20.8710 C   0  0  0  0  0  0
  -23.9087  -10.4272   21.0386 C   0  0  0  0  0  0
  -24.3640   -9.4190   21.9157 C   0  0  0  0  0  0
  -23.6317   -8.2226   22.0723 C   0  0  0  0  0  0
  -22.4298   -8.0272   21.3519 C   0  0  0  0  0  0
  -21.9928   -9.0239   20.4636 C   0  0  0  0  0  0
  -22.7254  -10.2124   20.3048 C   0  0  0  0  0  0
  -21.6860   -6.0773   22.5285 C   0  0  0  0  0  0
  -21.3990   -6.5685   23.8209 C   0  0  0  0  0  0
  -21.3648   -5.6838   24.9181 C   0  0  0  0  0  0
  -21.6022   -4.3095   24.7227 C   0  0  0  0  0  0
  -21.8824   -3.8199   23.4352 C   0  0  0  0  0  0
  -21.9187   -4.7012   22.3411 C   0  0  0  0  0  0
  -22.7922  -13.5227   21.1925 C   0  0  0  0  0  0
  -22.1681   -4.2205   21.0986 F   0  0  0  0  0  0
  -21.5601   -3.4566   25.7730 F   0  0  0  0  0  0
  -29.9769  -13.5689   20.3847 N   0  0  0  0  0  0
  -26.2969  -12.9339   20.3238 N   0  0  0  0  0  0
  -25.9324  -11.6496   20.5697 N   0  0  0  0  0  0
  -22.0613  -12.8099   22.0472 N   0  0  0  0  0  0
  -25.4412  -15.1883   20.4254 N   0  0  0  0  0  0
  -31.8052  -14.8746   20.1664 O   0  0  0  0  0  0
  -21.6635   -6.8882   21.4244 O   0  0  0  0  0  0
  -22.3591  -14.5539   20.6872 O   0  0  0  0  0  0
  -24.6337  -31.8624   23.2026 C   0  0  0  0  0  0
  -25.9183  -32.4783   23.8344 C   0  0  1  0  0  0
  -27.1521  -27.2206   20.1387 C   0  0  0  0  0  0
  -25.6036  -33.8600   24.2289 N   0  0  0  0  0  0
  -23.4212  -30.4913   21.5504 C   0  0  2  0  0  0
  -24.8552  -28.9448   20.1031 C   0  0  0  0  0  0
  -22.7433  -29.4657   22.4924 C   0  0  0  0  0  0
  -18.0257  -28.1314   22.8408 C   0  0  0  0  0  0
  -24.1473  -36.7241   23.2643 C   0  0  0  0  0  0
  -25.9696  -30.7629   21.3850 C   0  0  0  0  0  0
  -26.0286  -29.3784   20.7344 C   0  0  0  0  0  0
  -27.1850  -28.5248   20.7525 C   0  0  0  0  0  0
  -25.9925  -26.9071   19.4119 C   0  0  0  0  0  0
  -24.8444  -27.7204   19.4235 C   0  0  0  0  0  0
  -23.6322  -29.8395   20.1610 C   0  0  0  0  0  0
  -25.4122  -36.3084   24.0322 C   0  0  1  0  0  0
  -20.5864  -28.3578   23.1140 C   0  0  2  0  0  0
  -20.6723  -26.9402   22.5036 C   0  0  0  0  0  0
  -19.5609  -26.6450   21.4900 C   0  0  0  0  0  0
  -18.1852  -26.7949   22.1377 C   0  0  0  0  0  0
  -19.1523  -28.8775   23.2825 C   0  0  0  0  0  0
  -18.9444  -30.1363   23.8893 C   0  0  0  0  0  0
  -17.6442  -30.6456   24.0605 C   0  0  0  0  0  0
  -25.9090  -34.9460   23.5080 C   0  0  0  0  0  0
  -16.5350  -29.8952   23.6335 C   0  0  0  0  0  0
  -16.7252  -28.6389   23.0338 C   0  0  0  0  0  0
  -26.4486  -31.6588   25.0726 C   0  0  0  0  0  0
  -25.3619  -31.3724   26.1359 C   0  0  0  0  0  0
  -27.0286  -30.2986   24.6190 C   0  0  0  0  0  0
  -27.5988  -32.4293   25.7629 C   0  0  0  0  0  0
  -27.5567  -37.1787   24.8491 C   0  0  0  0  0  0
  -21.4158  -29.2973   22.3563 N   0  0  0  0  0  0
  -26.4287  -37.3792   23.9422 N   0  0  0  0  0  0
  -24.6943  -31.0556   22.1041 N   0  0  0  0  0  0
  -23.4100  -28.8225   23.3077 O   0  0  0  0  0  0
  -28.1804  -26.2473   20.1555 O   0  0  0  0  0  0
  -26.5610  -34.8942   22.4619 O   0  0  0  0  0  0
  -23.5474  -32.1518   23.7295 O   0  0  0  0  0  0
  -27.0113  -20.2844   20.5004 C   0  0  0  0  0  0
  -26.8512  -18.8859   20.4722 C   0  0  0  0  0  0
  -28.3042  -20.8133   20.3943 C   0  0  0  0  0  0
  -29.1088  -18.5336   20.4595 C   0  0  0  0  0  0
  -26.5156  -23.5063   19.2149 C   0  0  0  0  0  0
  -30.2409  -17.4194   20.6380 C   0  0  0  0  0  0
  -27.9999  -24.9254   20.8984 C   0  0  0  0  0  0
  -27.5263  -23.4163   20.3839 C   0  0  2  0  0  0
  -27.8849  -18.0242   20.4517 N   0  0  0  0  0  0
  -29.3490  -19.8919   20.3948 N   0  0  0  0  0  0
  -28.5307  -22.2516   20.2947 N   0  0  0  0  0  0
  -29.8450  -15.9359   20.6340 N   0  0  0  0  0  0
  -31.4826  -12.6036   19.1903 H   0  0  0  0  0  0
  -30.3929  -11.5259   20.0164 H   0  0  0  0  0  0
  -29.8229  -11.6761   17.5746 H   0  0  0  0  0  0
  -29.6168  -13.4121   17.7020 H   0  0  0  0  0  0
  -27.9777  -11.2319   19.0392 H   0  0  0  0  0  0
  -27.3824  -12.3392   17.8351 H   0  0  0  0  0  0
  -27.6127  -14.2184   19.3908 H   0  0  0  0  0  0
  -28.7203  -12.2590   21.4803 H   0  0  0  0  0  0
  -28.3937  -13.9523   21.7362 H   0  0  0  0  0  0
  -25.2783   -9.5683   22.4730 H   0  0  0  0  0  0
  -24.0052   -7.4606   22.7418 H   0  0  0  0  0  0
  -21.0856   -8.8749   19.8927 H   0  0  0  0  0  0
  -22.3690  -10.9666   19.6175 H   0  0  0  0  0  0
  -21.1976   -7.6190   23.9743 H   0  0  0  0  0  0
  -21.1467   -6.0557   25.9081 H   0  0  0  0  0  0
  -22.0610   -2.7667   23.2826 H   0  0  0  0  0  0
  -22.4311  -11.9718   22.4714 H   0  0  0  0  0  0
  -21.1272  -13.1073   22.2816 H   0  0  0  0  0  0
  -24.6859  -15.8490   20.5630 H   0  0  0  0  0  0
  -26.3123  -15.6315   20.1565 H   0  0  0  0  0  0
  -26.7238  -32.5386   23.1061 H   0  0  0  0  0  0
  -25.0224  -33.9773   25.0467 H   0  0  0  0  0  0
  -22.7159  -31.3134   21.4144 H   0  0  0  0  0  0
  -23.3767  -35.9546   23.3346 H   0  0  0  0  0  0
  -24.3531  -36.8821   22.2045 H   0  0  0  0  0  0
  -23.7191  -37.6426   23.6647 H   0  0  0  0  0  0
  -26.0965  -31.5144   20.6077 H   0  0  0  0  0  0
  -26.8538  -30.8188   22.0071 H   0  0  0  0  0  0
  -28.0789  -28.8458   21.2688 H   0  0  0  0  0  0
  -25.9628  -26.0365   18.7822 H   0  0  0  0  0  0
  -23.9663  -27.4101   18.8726 H   0  0  0  0  0  0
  -23.7457  -30.6262   19.4140 H   0  0  0  0  0  0
  -22.7419  -29.2797   19.8642 H   0  0  0  0  0  0
  -25.1291  -36.1907   25.0807 H   0  0  0  0  0  0
  -21.0014  -28.3031   24.1241 H   0  0  0  0  0  0
  -20.5806  -26.2099   23.3078 H   0  0  0  0  0  0
  -21.6522  -26.7521   22.0637 H   0  0  0  0  0  0
  -19.6731  -25.6418   21.0748 H   0  0  0  0  0  0
  -19.6459  -27.3326   20.6467 H   0  0  0  0  0  0
  -17.4114  -26.6843   21.3745 H   0  0  0  0  0  0
  -18.0183  -25.9955   22.8633 H   0  0  0  0  0  0
  -19.7901  -30.7192   24.2238 H   0  0  0  0  0  0
  -17.4926  -31.6123   24.5206 H   0  0  0  0  0  0
  -15.5323  -30.2851   23.7613 H   0  0  0  0  0  0
  -15.8652  -28.0715   22.7060 H   0  0  0  0  0  0
  -24.5791  -30.7115   25.7615 H   0  0  0  0  0  0
  -24.8815  -32.2901   26.4762 H   0  0  0  0  0  0
  -25.7888  -30.8861   27.0143 H   0  0  0  0  0  0
  -26.2842  -29.6792   24.1185 H   0  0  0  0  0  0
  -27.3872  -29.7192   25.4702 H   0  0  0  0  0  0
  -27.8780  -30.4157   23.9459 H   0  0  0  0  0  0
  -27.2510  -33.3575   26.2190 H   0  0  0  0  0  0
  -28.3941  -32.6870   25.0613 H   0  0  0  0  0  0
  -28.0492  -31.8403   26.5646 H   0  0  0  0  0  0
  -28.2614  -38.0044   24.7517 H   0  0  0  0  0  0
  -28.1018  -36.2585   24.6355 H   0  0  0  0  0  0
  -27.2280  -37.1483   25.8891 H   0  0  0  0  0  0
  -20.9317  -29.8554   21.6672 H   0  0  0  0  0  0
  -26.0154  -38.2844   24.1495 H   0  0  0  0  0  0
  -26.1425  -20.9199   20.5857 H   0  0  0  0  0  0
  -25.8721  -18.4222   20.4886 H   0  0  0  0  0  0
  -25.6918  -24.1394   19.5620 H   0  0  0  0  0  0
  -26.0462  -22.5635   18.9098 H   0  0  0  0  0  0
  -26.9664  -23.9763   18.3356 H   0  0  0  0  0  0
  -30.6869  -17.6080   21.6175 H   0  0  0  0  0  0
  -31.0519  -17.5997   19.9283 H   0  0  0  0  0  0
  -28.9305  -24.7759   21.4470 H   0  0  0  0  0  0
  -27.3046  -25.1665   21.7060 H   0  0  0  0  0  0
  -26.9129  -23.0574   21.2177 H   0  0  0  0  0  0
  -29.5052  -22.5295   20.3061 H   0  0  0  0  0  0
  -28.8524  -15.8108   20.7593 H   0  0  0  0  0  0
  1 25  1  0  0  0
  1 30  2  0  0  0
  1 82  1  0  0  0
  2  3  1  0  0  0
  2 25  1  0  0  0
  2 83  1  0  0  0
  2 84  1  0  0  0
  3  4  1  0  0  0
  3 85  1  0  0  0
  3 86  1  0  0  0
  4  5  1  0  0  0
  4 87  1  0  0  0
  4 88  1  0  0  0
  5  6  1  0  0  0
  5 26  1  0  0  0
  5 89  1  0  0  0
  6 25  1  0  0  0
  6 90  1  0  0  0
  6 91  1  0  0  0
  7  8  2  0  0  0
  7 26  1  0  0  0
  7 29  1  0  0  0
  8  9  1  0  0  0
  8 22  1  0  0  0
  9 10  1  0  0  0
  9 27  2  0  0  0
 10 11  2  0  0  0
 10 15  1  0  0  0
 11 12  1  0  0  0
 11 92  1  0  0  0
 12 13  2  0  0  0
 12 93  1  0  0  0
 13 14  1  0  0  0
 13 31  1  0  0  0
 14 15  2  0  0  0
 14 94  1  0  0  0
 15 95  1  0  0  0
 16 17  2  0  0  0
 16 21  1  0  0  0
 16 31  1  0  0  0
 17 18  1  0  0  0
 17 96  1  0  0  0
 18 19  2  0  0  0
 18 97  1  0  0  0
 19 20  1  0  0  0
 19 24  1  0  0  0
 20 21  2  0  0  0
 20 98  1  0  0  0
 21 23  1  0  0  0
 22 28  1  0  0  0
 22 32  2  0  0  0
 26 27  1  0  0  0
 28 99  1  0  0  0
 28100  1  0  0  0
 29101  1  0  0  0
 29102  1  0  0  0
 33 34  1  0  0  0
 33 66  1  0  0  0
 33 70  2  0  0  0
 34 36  1  0  0  0
 34 59  1  0  0  0
 34103  1  0  0  0
 35 44  2  0  0  0
 35 45  1  0  0  0
 35 68  1  0  0  0
 36 56  1  0  0  0
 36104  1  0  0  0
 37 39  1  0  0  0
 37 47  1  0  0  0
 37 66  1  0  0  0
 37105  1  0  0  0
 38 43  2  0  0  0
 38 46  1  0  0  0
 38 47  1  0  0  0
 39 64  1  0  0  0
 39 67  2  0  0  0
 40 52  1  0  0  0
 40 53  2  0  0  0
 40 58  1  0  0  0
 41106  1  0  0  0
 41107  1  0  0  0
 41108  1  0  0  0
 41 48  1  0  0  0
 42 43  1  0  0  0
 42 66  1  0  0  0
 42109  1  0  0  0
 42110  1  0  0  0
 43 44  1  0  0  0
 44111  1  0  0  0
 45 46  2  0  0  0
 45112  1  0  0  0
 46113  1  0  0  0
 47114  1  0  0  0
 47115  1  0  0  0
 48 56  1  0  0  0
 48 65  1  0  0  0
 48116  1  0  0  0
 49 50  1  0  0  0
 49 53  1  0  0  0
 49 64  1  0  0  0
 49117  1  0  0  0
 50 51  1  0  0  0
 50118  1  0  0  0
 50119  1  0  0  0
 51 52  1  0  0  0
 51120  1  0  0  0
 51121  1  0  0  0
 52122  1  0  0  0
 52123  1  0  0  0
 53 54  1  0  0  0
 54 55  2  0  0  0
 54124  1  0  0  0
 55 57  1  0  0  0
 55125  1  0  0  0
 56 69  2  0  0  0
 57 58  2  0  0  0
 57126  1  0  0  0
 58127  1  0  0  0
 59 60  1  0  0  0
 59 61  1  0  0  0
 59 62  1  0  0  0
 60128  1  0  0  0
 60129  1  0  0  0
 60130  1  0  0  0
 61131  1  0  0  0
 61132  1  0  0  0
 61133  1  0  0  0
 62134  1  0  0  0
 62135  1  0  0  0
 62136  1  0  0  0
 63 65  1  0  0  0
 63137  1  0  0  0
 63138  1  0  0  0
 63139  1  0  0  0
 64140  1  0  0  0
 65141  1  0  0  0
 68 77  1  0  0  0
 71 72  2  0  0  0
 71 73  1  0  0  0
 71142  1  0  0  0
 72 79  1  0  0  0
 72143  1  0  0  0
 73 80  2  0  0  0
 73 81  1  0  0  0
 74 76  1  0  0  0
 74 79  2  0  0  0
 74 80  1  0  0  0
 75144  1  0  0  0
 75145  1  0  0  0
 75146  1  0  0  0
 75 78  1  0  0  0
 76 82  1  0  0  0
 76147  1  0  0  0
 76148  1  0  0  0
 77 78  1  0  0  0
 77149  1  0  0  0
 77150  1  0  0  0
 78 81  1  0  0  0
 78151  1  0  0  0
 81152  1  0  0  0
 82153  1  0  0  0
M  ISO  4   1 100  68 101  77 101  82 100
M  END
> <chiral flag>
0

> <version>
0

> <s_m_source_file>
/data/baiqing/PycharmProjects/Reinvent-master-3.2/result/LINK_invent/BTK/process_docking_weight1_custom_product_contain_oxygen_bond_distance_aromatic_linkinvent_7_9_3/rearranged_h_0194.sdf

> <i_m_source_file_index>
74

> <r_mmod_Potential_Energy-OPLS-2005>
-431.215118408203

> <r_mmod_Stretch_Energy-OPLS-2005>
145.28564453125

> <r_mmod_Bend_Energy-OPLS-2005>
224.828277587891

> <r_mmod_Torsional_Energy-OPLS-2005>
233.046035766602

> <r_mmod_Improper_Torsional_Energy-OPLS-2005>
4.37481832504272

> <r_mmod_Van_der_Waal_Energy-OPLS-2005>
140.707962036133

> <r_mmod_Electrostatic_Energy-OPLS-2005>
-1071.84375

> <r_mmod_Solvation_Energy-OPLS-2005>
-230.834533691406

> <b_mmod_Minimization_Converged-OPLS-2005>
0

> <r_mmod_RMS_Derivative-OPLS-2005>
9.18040180206299

$$$$
74
                    3D
 Structure written by MMmdl.
155163  0  0  1  0            999 V2000
  -30.7438  -14.3899   20.7162 C   0  0  0  0  0  0
  -30.4195  -12.3085   19.4103 C   0  0  0  0  0  0
  -29.4792  -12.5100   18.2031 C   0  0  0  0  0  0
  -28.0034  -12.3568   18.6187 C   0  0  0  0  0  0
  -27.6621  -13.1892   19.8793 C   0  0  2  0  0  0
  -28.6940  -12.9438   20.9971 C   0  0  0  0  0  0
  -25.2637  -13.8118   20.5700 C   0  0  0  0  0  0
  -24.1873  -13.0432   20.9182 C   0  0  0  0  0  0
  -24.6381  -11.6879   20.8763 C   0  0  0  0  0  0
  -23.9050  -10.4278   21.0433 C   0  0  0  0  0  0
  -24.3598   -9.4186   21.9197 C   0  0  0  0  0  0
  -23.6291   -8.2207   22.0743 C   0  0  0  0  0  0
  -22.4275   -8.0247   21.3527 C   0  0  0  0  0  0
  -21.9916   -9.0235   20.4636 C   0  0  0  0  0  0
  -22.7234  -10.2123   20.3077 C   0  0  0  0  0  0
  -21.6839   -6.0736   22.5279 C   0  0  0  0  0  0
  -21.3999   -6.5646   23.8218 C   0  0  0  0  0  0
  -21.3675   -5.6796   24.9177 C   0  0  0  0  0  0
  -21.6049   -4.3058   24.7220 C   0  0  0  0  0  0
  -21.8819   -3.8143   23.4345 C   0  0  0  0  0  0
  -21.9186   -4.6963   22.3394 C   0  0  0  0  0  0
  -22.7884  -13.5268   21.1801 C   0  0  0  0  0  0
  -22.1666   -4.2158   21.0974 F   0  0  0  0  0  0
  -21.5649   -3.4544   25.7734 F   0  0  0  0  0  0
  -30.0336  -13.2566   20.4655 N   0  0  0  0  0  0
  -26.3028  -12.9242   20.3396 N   0  0  0  0  0  0
  -25.9296  -11.6430   20.5812 N   0  0  0  0  0  0
  -22.0541  -12.8284   22.0370 N   0  0  0  0  0  0
  -25.4436  -15.1818   20.4097 N   0  0  0  0  0  0
  -31.7595  -14.6815   20.0742 O   0  0  0  0  0  0
  -21.6634   -6.8863   21.4231 O   0  0  0  0  0  0
  -22.3606  -14.5581   20.6651 O   0  0  0  0  0  0
  -24.6123  -31.8689   23.2132 C   0  0  0  0  0  0
  -25.9019  -32.4840   23.8403 C   0  0  1  0  0  0
  -27.2352  -27.4445   20.0768 C   0  0  0  0  0  0
  -25.5883  -33.8642   24.2322 N   0  0  0  0  0  0
  -23.3985  -30.4941   21.5528 C   0  0  2  0  0  0
  -24.8441  -28.9675   20.1115 C   0  0  0  0  0  0
  -22.7387  -29.4660   22.4995 C   0  0  0  0  0  0
  -18.0260  -28.1372   22.8493 C   0  0  0  0  0  0
  -24.1481  -36.7325   23.2642 C   0  0  0  0  0  0
  -25.9263  -30.8335   21.3689 C   0  0  0  0  0  0
  -26.0020  -29.4706   20.7144 C   0  0  0  0  0  0
  -27.1947  -28.7130   20.7018 C   0  0  0  0  0  0
  -26.0571  -26.9684   19.4493 C   0  0  0  0  0  0
  -24.8652  -27.7143   19.4809 C   0  0  0  0  0  0
  -23.6066  -29.8317   20.1650 C   0  0  0  0  0  0
  -25.4108  -36.3130   24.0341 C   0  0  1  0  0  0
  -20.5842  -28.3653   23.1328 C   0  0  2  0  0  0
  -20.6747  -26.9396   22.5417 C   0  0  0  0  0  0
  -19.5736  -26.6383   21.5204 C   0  0  0  0  0  0
  -18.1914  -26.7919   22.1619 C   0  0  0  0  0  0
  -19.1505  -28.8829   23.2907 C   0  0  0  0  0  0
  -18.9444  -30.1431   23.8928 C   0  0  0  0  0  0
  -17.6449  -30.6587   24.0564 C   0  0  0  0  0  0
  -25.9025  -34.9493   23.5120 C   0  0  0  0  0  0
  -16.5338  -29.9097   23.6322 C   0  0  0  0  0  0
  -16.7249  -28.6505   23.0356 C   0  0  0  0  0  0
  -26.4457  -31.6627   25.0731 C   0  0  0  0  0  0
  -25.3710  -31.3729   26.1465 C   0  0  0  0  0  0
  -27.0302  -30.3078   24.6109 C   0  0  0  0  0  0
  -27.6033  -32.4351   25.7487 C   0  0  0  0  0  0
  -27.5572  -37.1830   24.8470 C   0  0  0  0  0  0
  -21.4112  -29.3035   22.3747 N   0  0  0  0  0  0
  -26.4302  -37.3803   23.9388 N   0  0  0  0  0  0
  -24.6639  -31.0787   22.1041 N   0  0  0  0  0  0
  -23.4160  -28.8198   23.3029 O   0  0  0  0  0  0
  -28.4222  -26.7337   20.1014 O   0  0  0  0  0  0
  -26.5592  -34.8937   22.4679 O   0  0  0  0  0  0
  -23.5321  -32.1461   23.7517 O   0  0  0  0  0  0
  -27.2549  -20.2174   19.7049 C   0  0  0  0  0  0
  -28.4121  -20.9109   19.9351 C   0  0  0  0  0  0
  -29.1180  -18.7937   20.4311 C   0  0  0  0  0  0
  -30.0344  -17.7266   20.8764 C   0  0  0  0  0  0
  -29.3886  -16.4847   21.5098 C   0  0  0  0  0  0
  -30.3380  -15.3102   21.8866 C   0  0  0  0  0  0
  -29.7250  -23.0988   19.8087 C   0  0  0  0  0  0
  -28.4191  -25.3634   19.6683 C   0  0  0  0  0  0
  -29.5264  -24.5336   20.3615 C   0  0  1  0  0  0
  -29.4815  -20.0863   20.3100 N   0  0  0  0  0  0
  -31.2952  -17.8347   20.8197 N   0  0  0  0  0  0
  -28.4975  -22.3071   19.8190 N   0  0  0  0  0  0
  -29.2465  -24.4386   21.6635 F   0  0  0  0  0  0
  -27.4345  -18.5117   19.9938 S   0  0  0  0  0  0
  -31.4642  -12.4196   19.1141 H   0  0  0  0  0  0
  -30.3396  -11.2922   19.8001 H   0  0  0  0  0  0
  -29.7168  -11.7928   17.4173 H   0  0  0  0  0  0
  -29.6379  -13.4981   17.7729 H   0  0  0  0  0  0
  -27.8201  -11.2978   18.8116 H   0  0  0  0  0  0
  -27.3439  -12.6283   17.7949 H   0  0  0  0  0  0
  -27.7178  -14.2378   19.5936 H   0  0  0  0  0  0
  -28.6629  -11.8997   21.3116 H   0  0  0  0  0  0
  -28.4121  -13.5197   21.8755 H   0  0  0  0  0  0
  -25.2739   -9.5680   22.4790 H   0  0  0  0  0  0
  -23.9992   -7.4597   22.7462 H   0  0  0  0  0  0
  -21.0848   -8.8775   19.8947 H   0  0  0  0  0  0
  -22.3689  -10.9673   19.6205 H   0  0  0  0  0  0
  -21.1997   -7.6146   23.9751 H   0  0  0  0  0  0
  -21.1500   -6.0504   25.9100 H   0  0  0  0  0  0
  -22.0582   -2.7604   23.2833 H   0  0  0  0  0  0
  -22.4110  -11.9879   22.4662 H   0  0  0  0  0  0
  -21.1222  -13.1367   22.2704 H   0  0  0  0  0  0
  -24.6752  -15.8373   20.5019 H   0  0  0  0  0  0
  -26.2886  -15.6038   20.0476 H   0  0  0  0  0  0
  -26.7065  -32.5553   23.1141 H   0  0  0  0  0  0
  -25.0036  -33.9802   25.0473 H   0  0  0  0  0  0
  -22.6882  -31.3121   21.4165 H   0  0  0  0  0  0
  -23.3741  -35.9662   23.3361 H   0  0  0  0  0  0
  -24.3546  -36.8881   22.2039 H   0  0  0  0  0  0
  -23.7246  -37.6556   23.6617 H   0  0  0  0  0  0
  -26.0338  -31.6033   20.6040 H   0  0  0  0  0  0
  -26.8156  -30.8844   21.9842 H   0  0  0  0  0  0
  -28.0855  -29.1009   21.1777 H   0  0  0  0  0  0
  -26.0300  -26.0352   18.9087 H   0  0  0  0  0  0
  -23.9758  -27.3310   18.9998 H   0  0  0  0  0  0
  -23.7172  -30.6111   19.4103 H   0  0  0  0  0  0
  -22.7303  -29.2527   19.8661 H   0  0  0  0  0  0
  -25.1290  -36.2008   25.0844 H   0  0  0  0  0  0
  -20.9916  -28.3202   24.1450 H   0  0  0  0  0  0
  -20.5644  -26.2261   23.3595 H   0  0  0  0  0  0
  -21.6624  -26.7449   22.1215 H   0  0  0  0  0  0
  -19.6906  -25.6297   21.1230 H   0  0  0  0  0  0
  -19.6681  -27.3199   20.6740 H   0  0  0  0  0  0
  -17.4180  -26.6666   21.4026 H   0  0  0  0  0  0
  -18.0331  -26.0058   22.9018 H   0  0  0  0  0  0
  -19.7921  -30.7228   24.2329 H   0  0  0  0  0  0
  -17.5016  -31.6281   24.5143 H   0  0  0  0  0  0
  -15.5346  -30.3017   23.7632 H   0  0  0  0  0  0
  -15.8643  -28.0833   22.7070 H   0  0  0  0  0  0
  -24.5884  -30.7077   25.7783 H   0  0  0  0  0  0
  -24.8902  -32.2892   26.4910 H   0  0  0  0  0  0
  -25.8057  -30.8894   27.0219 H   0  0  0  0  0  0
  -26.2848  -29.6817   24.1193 H   0  0  0  0  0  0
  -27.4112  -29.7333   25.4561 H   0  0  0  0  0  0
  -27.8658  -30.4415   23.9232 H   0  0  0  0  0  0
  -27.2648  -33.3635   26.2094 H   0  0  0  0  0  0
  -28.3827  -32.6932   25.0305 H   0  0  0  0  0  0
  -28.0711  -31.8459   26.5381 H   0  0  0  0  0  0
  -28.2645  -38.0074   24.7460 H   0  0  0  0  0  0
  -28.1017  -36.2610   24.6383 H   0  0  0  0  0  0
  -27.2270  -37.1579   25.8869 H   0  0  0  0  0  0
  -20.9262  -29.8783   21.6998 H   0  0  0  0  0  0
  -26.0212  -38.2893   24.1368 H   0  0  0  0  0  0
  -26.2949  -20.6031   19.3920 H   0  0  0  0  0  0
  -28.6091  -16.1105   20.8459 H   0  0  0  0  0  0
  -28.8672  -16.8145   22.4123 H   0  0  0  0  0  0
  -29.8983  -14.7220   22.6868 H   0  0  0  0  0  0
  -31.2459  -15.6964   22.3492 H   0  0  0  0  0  0
  -30.5024  -22.5897   20.3814 H   0  0  0  0  0  0
  -30.0902  -23.1586   18.7839 H   0  0  0  0  0  0
  -27.4739  -24.8700   19.8867 H   0  0  0  0  0  0
  -28.5577  -25.3522   18.5872 H   0  0  0  0  0  0
  -30.4759  -25.0664   20.2856 H   0  0  0  0  0  0
  -31.5387  -18.7339   20.4145 H   0  0  0  0  0  0
  -27.6484  -22.7903   19.5506 H   0  0  0  0  0  0
  1 25  1  0  0  0
  1 30  2  0  0  0
  1 76  1  0  0  0
  2  3  1  0  0  0
  2 25  1  0  0  0
  2 85  1  0  0  0
  2 86  1  0  0  0
  3  4  1  0  0  0
  3 87  1  0  0  0
  3 88  1  0  0  0
  4  5  1  0  0  0
  4 89  1  0  0  0
  4 90  1  0  0  0
  5  6  1  0  0  0
  5 26  1  0  0  0
  5 91  1  0  0  0
  6 25  1  0  0  0
  6 92  1  0  0  0
  6 93  1  0  0  0
  7  8  2  0  0  0
  7 26  1  0  0  0
  7 29  1  0  0  0
  8  9  1  0  0  0
  8 22  1  0  0  0
  9 10  1  0  0  0
  9 27  2  0  0  0
 10 11  2  0  0  0
 10 15  1  0  0  0
 11 12  1  0  0  0
 11 94  1  0  0  0
 12 13  2  0  0  0
 12 95  1  0  0  0
 13 14  1  0  0  0
 13 31  1  0  0  0
 14 15  2  0  0  0
 14 96  1  0  0  0
 15 97  1  0  0  0
 16 17  2  0  0  0
 16 21  1  0  0  0
 16 31  1  0  0  0
 17 18  1  0  0  0
 17 98  1  0  0  0
 18 19  2  0  0  0
 18 99  1  0  0  0
 19 20  1  0  0  0
 19 24  1  0  0  0
 20 21  2  0  0  0
 20100  1  0  0  0
 21 23  1  0  0  0
 22 28  1  0  0  0
 22 32  2  0  0  0
 26 27  1  0  0  0
 28101  1  0  0  0
 28102  1  0  0  0
 29103  1  0  0  0
 29104  1  0  0  0
 33 34  1  0  0  0
 33 66  1  0  0  0
 33 70  2  0  0  0
 34 36  1  0  0  0
 34 59  1  0  0  0
 34105  1  0  0  0
 35 44  2  0  0  0
 35 45  1  0  0  0
 35 68  1  0  0  0
 36 56  1  0  0  0
 36106  1  0  0  0
 37 39  1  0  0  0
 37 47  1  0  0  0
 37 66  1  0  0  0
 37107  1  0  0  0
 38 43  2  0  0  0
 38 46  1  0  0  0
 38 47  1  0  0  0
 39 64  1  0  0  0
 39 67  2  0  0  0
 40 52  1  0  0  0
 40 53  2  0  0  0
 40 58  1  0  0  0
 41108  1  0  0  0
 41109  1  0  0  0
 41110  1  0  0  0
 41 48  1  0  0  0
 42 43  1  0  0  0
 42 66  1  0  0  0
 42111  1  0  0  0
 42112  1  0  0  0
 43 44  1  0  0  0
 44113  1  0  0  0
 45 46  2  0  0  0
 45114  1  0  0  0
 46115  1  0  0  0
 47116  1  0  0  0
 47117  1  0  0  0
 48 56  1  0  0  0
 48 65  1  0  0  0
 48118  1  0  0  0
 49 50  1  0  0  0
 49 53  1  0  0  0
 49 64  1  0  0  0
 49119  1  0  0  0
 50 51  1  0  0  0
 50120  1  0  0  0
 50121  1  0  0  0
 51 52  1  0  0  0
 51122  1  0  0  0
 51123  1  0  0  0
 52124  1  0  0  0
 52125  1  0  0  0
 53 54  1  0  0  0
 54 55  2  0  0  0
 54126  1  0  0  0
 55 57  1  0  0  0
 55127  1  0  0  0
 56 69  2  0  0  0
 57 58  2  0  0  0
 57128  1  0  0  0
 58129  1  0  0  0
 59 60  1  0  0  0
 59 61  1  0  0  0
 59 62  1  0  0  0
 60130  1  0  0  0
 60131  1  0  0  0
 60132  1  0  0  0
 61133  1  0  0  0
 61134  1  0  0  0
 61135  1  0  0  0
 62136  1  0  0  0
 62137  1  0  0  0
 62138  1  0  0  0
 63 65  1  0  0  0
 63139  1  0  0  0
 63140  1  0  0  0
 63141  1  0  0  0
 64142  1  0  0  0
 65143  1  0  0  0
 68 78  1  0  0  0
 71 72  2  0  0  0
 71 84  1  0  0  0
 71144  1  0  0  0
 72 80  1  0  0  0
 72 82  1  0  0  0
 73 74  1  0  0  0
 73 80  2  0  0  0
 73 84  1  0  0  0
 74 75  1  0  0  0
 74 81  2  0  0  0
 75 76  1  0  0  0
 75145  1  0  0  0
 75146  1  0  0  0
 76147  1  0  0  0
 76148  1  0  0  0
 77 79  1  0  0  0
 77 82  1  0  0  0
 77149  1  0  0  0
 77150  1  0  0  0
 78 79  1  0  0  0
 78151  1  0  0  0
 78152  1  0  0  0
 79 83  1  0  0  0
 79153  1  0  0  0
 81154  1  0  0  0
 82155  1  0  0  0
M  ISO  4   1 100  68 101  76 100  78 101
M  END
> <chiral flag>
0

> <version>
0

> <s_m_source_file>
/data/baiqing/PycharmProjects/Reinvent-master-3.2/result/LINK_invent/BTK/process_docking_weight1_custom_product_contain_oxygen_bond_distance_aromatic_linkinvent_7_9_3/rearranged_h_0194.sdf

> <i_m_source_file_index>
75

> <r_mmod_Potential_Energy-OPLS-2005>
-163.942596435547

> <r_mmod_Stretch_Energy-OPLS-2005>
35.3594360351562

> <r_mmod_Bend_Energy-OPLS-2005>
107.604820251465

> <r_mmod_Torsional_Energy-OPLS-2005>
175.312545776367

> <r_mmod_Improper_Torsional_Energy-OPLS-2005>
2.87198114395142

> <r_mmod_Van_der_Waal_Energy-OPLS-2005>
134.22883605957

> <r_mmod_Electrostatic_Energy-OPLS-2005>
-392.513641357422

> <r_mmod_Solvation_Energy-OPLS-2005>
-236.48176574707

> <b_mmod_Minimization_Converged-OPLS-2005>
0

> <r_mmod_RMS_Derivative-OPLS-2005>
3.99049305915833

$$$$
75
                    3D
 Structure written by MMmdl.
164172  0  0  1  0            999 V2000
  -29.7720  -13.7835   18.7474 C   0  0  0  0  0  0
  -30.7934  -12.3569   20.0736 C   0  0  0  0  0  0
  -29.6980  -11.3893   19.8254 C   0  0  0  0  0  0
  -28.4721  -12.0024   20.6554 C   0  0  0  0  0  0
  -27.8690  -13.6464   20.5441 C   0  0  2  0  0  0
  -29.1978  -14.2121   20.8714 C   0  0  0  0  0  0
  -25.3138  -15.0657   19.8784 C   0  0  0  0  0  0
  -24.0465  -14.4640   20.1027 C   0  0  0  0  0  0
  -24.7261  -13.3289   20.0920 C   0  0  0  0  0  0
  -24.5536  -10.7180   21.4882 C   0  0  0  0  0  0
  -24.1389  -10.0236   22.7167 C   0  0  0  0  0  0
  -23.3745   -8.7373   22.8561 C   0  0  0  0  0  0
  -22.6100   -8.1981   21.7542 C   0  0  0  0  0  0
  -22.8476   -8.8769   20.6001 C   0  0  0  0  0  0
  -24.1405   -9.4559   20.7165 C   0  0  0  0  0  0
  -21.7157   -6.1370   22.6182 C   0  0  0  0  0  0
  -21.3699   -6.5555   23.9133 C   0  0  0  0  0  0
  -21.3323   -5.6379   24.9685 C   0  0  0  0  0  0
  -21.5857   -4.2802   24.7258 C   0  0  0  0  0  0
  -21.8704   -3.8343   23.4207 C   0  0  0  0  0  0
  -21.9260   -4.7565   22.3593 C   0  0  0  0  0  0
  -22.5790  -14.7915   20.5985 C   0  0  0  0  0  0
  -22.1798   -4.3038   21.1054 F   0  0  0  0  0  0
  -21.5504   -3.4037   25.7559 F   0  0  0  0  0  0
  -30.1112  -13.5998   19.9670 N   0  0  0  0  0  0
  -26.5169  -14.2478   19.7463 N   0  0  0  0  0  0
  -25.5599  -13.6388   19.1077 N   0  0  0  0  0  0
  -21.7940  -14.2195   21.5651 N   0  0  0  0  0  0
  -25.5315  -16.3631   19.6705 N   0  0  0  0  0  0
  -30.7102  -14.5308   18.3747 O   0  0  0  0  0  0
  -21.7793   -7.0852   21.6366 O   0  0  0  0  0  0
  -21.9844  -15.5950   19.9775 O   0  0  0  0  0  0
  -24.7677  -31.6555   23.0848 C   0  0  0  0  0  0
  -25.9818  -32.3733   23.7681 C   0  0  1  0  0  0
  -26.4337  -25.2471   20.7848 C   0  0  0  0  0  0
  -25.5981  -33.7692   24.1325 N   0  0  0  0  0  0
  -23.6099  -30.2374   21.4582 C   0  0  2  0  0  0
  -24.9474  -28.2702   20.2008 C   0  0  0  0  0  0
  -22.7943  -29.3594   22.4461 C   0  0  0  0  0  0
  -18.0334  -28.1464   22.8410 C   0  0  0  0  0  0
  -24.1482  -36.6807   23.2688 C   0  0  0  0  0  0
  -26.1571  -29.8736   21.6073 C   0  0  0  0  0  0
  -26.0499  -28.2885   21.0465 C   0  0  0  0  0  0
  -26.7662  -26.8463   21.2588 C   0  0  0  0  0  0
  -25.5844  -25.7859   19.7012 C   0  0  0  0  0  0
  -24.8673  -27.0593   19.4705 C   0  0  0  0  0  0
  -23.9031  -29.4486   20.1282 C   0  0  0  0  0  0
  -25.4186  -36.2468   24.0195 C   0  0  1  0  0  0
  -20.5975  -28.3800   23.0995 C   0  0  2  0  0  0
  -20.6703  -26.9363   22.5455 C   0  0  0  0  0  0
  -19.5717  -26.6293   21.5238 C   0  0  0  0  0  0
  -18.1905  -26.7968   22.1595 C   0  0  0  0  0  0
  -19.1626  -28.8978   23.2663 C   0  0  0  0  0  0
  -18.9533  -30.1544   23.8742 C   0  0  0  0  0  0
  -17.6522  -30.6627   24.0527 C   0  0  0  0  0  0
  -25.9235  -34.8898   23.4685 C   0  0  0  0  0  0
  -16.5399  -29.9115   23.6372 C   0  0  0  0  0  0
  -16.7310  -28.6547   23.0367 C   0  0  0  0  0  0
  -26.4762  -31.6411   25.0801 C   0  0  0  0  0  0
  -25.3548  -31.4074   26.1200 C   0  0  0  0  0  0
  -27.0949  -30.2670   24.7682 C   0  0  0  0  0  0
  -27.5979  -32.4681   25.7535 C   0  0  0  0  0  0
  -27.5519  -37.1532   24.8465 C   0  0  0  0  0  0
  -21.4542  -29.2859   22.3182 N   0  0  0  0  0  0
  -26.4197  -37.3365   23.9425 N   0  0  0  0  0  0
  -24.8939  -30.6681   22.0909 N   0  0  0  0  0  0
  -23.3975  -28.7365   23.3234 O   0  0  0  0  0  0
  -26.7363  -23.3621   21.0950 O   0  0  0  0  0  0
  -26.6059  -34.8688   22.4434 O   0  0  0  0  0  0
  -23.6549  -32.0365   23.5054 O   0  0  0  0  0  0
  -22.9694  -12.0537   20.6743 C   0  0  0  0  0  0
  -24.1462  -11.3627   19.3173 C   0  0  0  0  0  0
  -26.0157  -11.4882   19.9125 C   0  0  0  0  0  0
  -25.2346  -13.8442   22.3169 C   0  0  0  0  0  0
  -21.8379   -9.7211   16.9521 C   0  0  0  0  0  0
  -21.3909  -12.0531   17.7358 C   0  0  0  0  0  0
  -27.2708  -18.2398   22.9327 C   0  0  0  0  0  0
  -27.2529  -11.8274   18.5052 C   0  0  0  0  0  0
  -26.0941  -20.9957   21.4980 C   0  0  0  0  0  0
  -22.2024  -10.7766   17.9810 C   0  0  0  0  0  0
  -26.1509  -18.2273   21.8963 C   0  0  2  0  0  0
  -23.7661  -12.9334   22.1465 N   0  0  0  0  0  0
  -26.1205  -12.4704   21.6268 N   0  0  0  0  0  0
  -23.6525  -10.9855   18.0366 N   0  0  0  0  0  0
  -25.4460  -16.0401   22.3135 N   0  0  0  0  0  0
  -28.5398  -13.0500   18.1447 N   0  0  0  0  0  0
  -31.6507  -12.2385   19.4147 H   0  0  0  0  0  0
  -31.1545  -12.3356   21.1075 H   0  0  0  0  0  0
  -30.0070  -10.4984   20.3846 H   0  0  0  0  0  0
  -29.6405  -10.9901   18.8109 H   0  0  0  0  0  0
  -28.9134  -12.0888   21.6526 H   0  0  0  0  0  0
  -27.9408  -11.1398   21.0550 H   0  0  0  0  0  0
  -27.6306  -14.1445   21.4908 H   0  0  0  0  0  0
  -29.5941  -14.0855   21.8851 H   0  0  0  0  0  0
  -29.2182  -15.2876   20.7390 H   0  0  0  0  0  0
  -24.3497  -10.5363   23.6435 H   0  0  0  0  0  0
  -23.2660   -8.3163   23.8455 H   0  0  0  0  0  0
  -22.5290   -8.3890   19.6901 H   0  0  0  0  0  0
  -24.6918   -9.2080   19.8164 H   0  0  0  0  0  0
  -21.1532   -7.5934   24.1064 H   0  0  0  0  0  0
  -21.1047   -5.9764   25.9676 H   0  0  0  0  0  0
  -22.0533   -2.7901   23.2289 H   0  0  0  0  0  0
  -22.3012  -13.5755   22.1901 H   0  0  0  0  0  0
  -20.8389  -14.4954   21.7348 H   0  0  0  0  0  0
  -24.8680  -16.9645   20.1321 H   0  0  0  0  0  0
  -26.4553  -16.7735   19.6277 H   0  0  0  0  0  0
  -26.7998  -32.4001   23.0469 H   0  0  0  0  0  0
  -24.9751  -33.8618   24.9211 H   0  0  0  0  0  0
  -23.0078  -31.1145   21.2072 H   0  0  0  0  0  0
  -23.3795  -35.9066   23.3188 H   0  0  0  0  0  0
  -24.3492  -36.8705   22.2129 H   0  0  0  0  0  0
  -23.7179  -37.5867   23.6980 H   0  0  0  0  0  0
  -26.5645  -30.4722   20.7927 H   0  0  0  0  0  0
  -26.9574  -29.9022   22.3242 H   0  0  0  0  0  0
  -27.5709  -26.8900   21.9787 H   0  0  0  0  0  0
  -25.2630  -25.0105   19.0213 H   0  0  0  0  0  0
  -24.1213  -27.0212   18.6906 H   0  0  0  0  0  0
  -24.2562  -30.1581   19.3828 H   0  0  0  0  0  0
  -22.9674  -29.0583   19.7273 H   0  0  0  0  0  0
  -25.1440  -36.1031   25.0665 H   0  0  0  0  0  0
  -21.0042  -28.3519   24.1124 H   0  0  0  0  0  0
  -20.5445  -26.2445   23.3799 H   0  0  0  0  0  0
  -21.6551  -26.7115   22.1345 H   0  0  0  0  0  0
  -19.6823  -25.6173   21.1346 H   0  0  0  0  0  0
  -19.6719  -27.3024   20.6722 H   0  0  0  0  0  0
  -17.4171  -26.6745   21.3988 H   0  0  0  0  0  0
  -18.0229  -26.0163   22.9030 H   0  0  0  0  0  0
  -19.8021  -30.7384   24.2045 H   0  0  0  0  0  0
  -17.5081  -31.6281   24.5161 H   0  0  0  0  0  0
  -15.5403  -30.2968   23.7780 H   0  0  0  0  0  0
  -15.8697  -28.0816   22.7158 H   0  0  0  0  0  0
  -24.5768  -30.7411   25.7445 H   0  0  0  0  0  0
  -24.8723  -32.3433   26.4056 H   0  0  0  0  0  0
  -25.7427  -30.9548   27.0335 H   0  0  0  0  0  0
  -26.3655  -29.5613   24.3701 H   0  0  0  0  0  0
  -27.4788  -29.7998   25.6762 H   0  0  0  0  0  0
  -27.9543  -30.3494   24.1021 H   0  0  0  0  0  0
  -27.2312  -33.4186   26.1433 H   0  0  0  0  0  0
  -28.4020  -32.6958   25.0518 H   0  0  0  0  0  0
  -28.0433  -31.9385   26.5967 H   0  0  0  0  0  0
  -28.2384  -37.9961   24.7562 H   0  0  0  0  0  0
  -28.1158  -36.2465   24.6209 H   0  0  0  0  0  0
  -27.2262  -37.1030   25.8872 H   0  0  0  0  0  0
  -21.0092  -29.8355   21.5955 H   0  0  0  0  0  0
  -25.9898  -38.2341   24.1494 H   0  0  0  0  0  0
  -21.8989  -11.8675   20.6605 H   0  0  0  0  0  0
  -20.7958   -9.4304   17.0702 H   0  0  0  0  0  0
  -22.4427   -8.8228   17.0356 H   0  0  0  0  0  0
  -21.9582  -10.1017   15.9436 H   0  0  0  0  0  0
  -20.3517  -11.8723   18.0203 H   0  0  0  0  0  0
  -21.3888  -12.3204   16.6794 H   0  0  0  0  0  0
  -21.7321  -12.9199   18.3038 H   0  0  0  0  0  0
  -28.0227  -18.9824   22.6711 H   0  0  0  0  0  0
  -27.7692  -17.2702   22.9353 H   0  0  0  0  0  0
  -26.9063  -18.4384   23.9440 H   0  0  0  0  0  0
  -26.6076  -11.9231   17.6190 H   0  0  0  0  0  0
  -27.6462  -10.8311   18.2627 H   0  0  0  0  0  0
  -25.2783  -20.9754   20.7790 H   0  0  0  0  0  0
  -25.6371  -21.2144   22.4697 H   0  0  0  0  0  0
  -21.8658  -10.3902   18.9351 H   0  0  0  0  0  0
  -26.6991  -18.0036   20.9899 H   0  0  0  0  0  0
  -24.2601  -10.4975   17.3768 H   0  0  0  0  0  0
  -24.6425  -16.2809   22.8919 H   0  0  0  0  0  0
  -28.4656  -13.3212   17.1755 H   0  0  0  0  0  0
  1 25  1  0  0  0
  1 30  2  0  0  0
  1 86  1  0  0  0
  2  3  1  0  0  0
  2 25  1  0  0  0
  2 87  1  0  0  0
  2 88  1  0  0  0
  3  4  1  0  0  0
  3 89  1  0  0  0
  3 90  1  0  0  0
  4  5  1  0  0  0
  4 91  1  0  0  0
  4 92  1  0  0  0
  5  6  1  0  0  0
  5 26  1  0  0  0
  5 93  1  0  0  0
  6 25  1  0  0  0
  6 94  1  0  0  0
  6 95  1  0  0  0
  7  8  2  0  0  0
  7 26  1  0  0  0
  7 29  1  0  0  0
  8  9  1  0  0  0
  8 22  1  0  0  0
  9 10  1  0  0  0
  9 27  2  0  0  0
 10 11  2  0  0  0
 10 15  1  0  0  0
 11 12  1  0  0  0
 11 96  1  0  0  0
 12 13  2  0  0  0
 12 97  1  0  0  0
 13 14  1  0  0  0
 13 31  1  0  0  0
 14 15  2  0  0  0
 14 98  1  0  0  0
 15 99  1  0  0  0
 16 17  2  0  0  0
 16 21  1  0  0  0
 16 31  1  0  0  0
 17 18  1  0  0  0
 17100  1  0  0  0
 18 19  2  0  0  0
 18101  1  0  0  0
 19 20  1  0  0  0
 19 24  1  0  0  0
 20 21  2  0  0  0
 20102  1  0  0  0
 21 23  1  0  0  0
 22 28  1  0  0  0
 22 32  2  0  0  0
 26 27  1  0  0  0
 28103  1  0  0  0
 28104  1  0  0  0
 29105  1  0  0  0
 29106  1  0  0  0
 33 34  1  0  0  0
 33 66  1  0  0  0
 33 70  2  0  0  0
 34 36  1  0  0  0
 34 59  1  0  0  0
 34107  1  0  0  0
 35 44  2  0  0  0
 35 45  1  0  0  0
 35 68  1  0  0  0
 36 56  1  0  0  0
 36108  1  0  0  0
 37 39  1  0  0  0
 37 47  1  0  0  0
 37 66  1  0  0  0
 37109  1  0  0  0
 38 43  2  0  0  0
 38 46  1  0  0  0
 38 47  1  0  0  0
 39 64  1  0  0  0
 39 67  2  0  0  0
 40 52  1  0  0  0
 40 53  2  0  0  0
 40 58  1  0  0  0
 41110  1  0  0  0
 41111  1  0  0  0
 41112  1  0  0  0
 41 48  1  0  0  0
 42 43  1  0  0  0
 42 66  1  0  0  0
 42113  1  0  0  0
 42114  1  0  0  0
 43 44  1  0  0  0
 44115  1  0  0  0
 45 46  2  0  0  0
 45116  1  0  0  0
 46117  1  0  0  0
 47118  1  0  0  0
 47119  1  0  0  0
 48 56  1  0  0  0
 48 65  1  0  0  0
 48120  1  0  0  0
 49 50  1  0  0  0
 49 53  1  0  0  0
 49 64  1  0  0  0
 49121  1  0  0  0
 50 51  1  0  0  0
 50122  1  0  0  0
 50123  1  0  0  0
 51 52  1  0  0  0
 51124  1  0  0  0
 51125  1  0  0  0
 52126  1  0  0  0
 52127  1  0  0  0
 53 54  1  0  0  0
 54 55  2  0  0  0
 54128  1  0  0  0
 55 57  1  0  0  0
 55129  1  0  0  0
 56 69  2  0  0  0
 57 58  2  0  0  0
 57130  1  0  0  0
 58131  1  0  0  0
 59 60  1  0  0  0
 59 61  1  0  0  0
 59 62  1  0  0  0
 60132  1  0  0  0
 60133  1  0  0  0
 60134  1  0  0  0
 61135  1  0  0  0
 61136  1  0  0  0
 61137  1  0  0  0
 62138  1  0  0  0
 62139  1  0  0  0
 62140  1  0  0  0
 63 65  1  0  0  0
 63141  1  0  0  0
 63142  1  0  0  0
 63143  1  0  0  0
 64144  1  0  0  0
 65145  1  0  0  0
 68 79  1  0  0  0
 71 72  2  0  0  0
 71 82  1  0  0  0
 71146  1  0  0  0
 72 73  1  0  0  0
 72 84  1  0  0  0
 73 78  1  0  0  0
 73 83  2  0  0  0
 74 82  2  0  0  0
 74 83  1  0  0  0
 74 85  1  0  0  0
 75147  1  0  0  0
 75148  1  0  0  0
 75149  1  0  0  0
 75 80  1  0  0  0
 76 80  1  0  0  0
 76150  1  0  0  0
 76151  1  0  0  0
 76152  1  0  0  0
 77153  1  0  0  0
 77154  1  0  0  0
 77155  1  0  0  0
 77 81  1  0  0  0
 78 86  1  0  0  0
 78156  1  0  0  0
 78157  1  0  0  0
 79 81  1  0  0  0
 79158  1  0  0  0
 79159  1  0  0  0
 80 84  1  0  0  0
 80160  1  0  0  0
 81 85  1  0  0  0
 81161  1  0  0  0
 84162  1  0  0  0
 85163  1  0  0  0
 86164  1  0  0  0
M  ISO  4   1 100  68 101  79 101  86 100
M  END
> <chiral flag>
0

> <version>
0

> <s_m_source_file>
/data/baiqing/PycharmProjects/Reinvent-master-3.2/result/LINK_invent/BTK/process_docking_weight1_custom_product_contain_oxygen_bond_distance_aromatic_linkinvent_7_9_3/rearranged_h_0194.sdf

> <i_m_source_file_index>
76

> <r_mmod_Potential_Energy-OPLS-2005>
28952.58984375

> <r_mmod_Stretch_Energy-OPLS-2005>
14155.6357421875

> <r_mmod_Bend_Energy-OPLS-2005>
2590.68920898438

> <r_mmod_Torsional_Energy-OPLS-2005>
979.072937011719

> <r_mmod_Improper_Torsional_Energy-OPLS-2005>
68.4375610351562

> <r_mmod_Van_der_Waal_Energy-OPLS-2005>
3929.81469726562

> <r_mmod_Electrostatic_Energy-OPLS-2005>
-896.318115234375

> <r_mmod_Solvation_Energy-OPLS-2005>
-262.042907714844

> <b_mmod_Minimization_Converged-OPLS-2005>
0

> <r_mmod_RMS_Derivative-OPLS-2005>
22.8221225738525

$$$$
76
                    3D
 Structure written by MMmdl.
165173  0  0  1  0            999 V2000
  -30.6413  -14.5509   20.5472 C   0  0  0  0  0  0
  -30.4376  -12.3456   19.4332 C   0  0  0  0  0  0
  -29.5038  -12.5113   18.2133 C   0  0  0  0  0  0
  -28.0241  -12.3616   18.6230 C   0  0  0  0  0  0
  -27.6606  -13.2062   19.8733 C   0  0  2  0  0  0
  -28.7029  -12.9969   20.9953 C   0  0  0  0  0  0
  -25.2609  -13.8162   20.5694 C   0  0  0  0  0  0
  -24.1849  -13.0441   20.9164 C   0  0  0  0  0  0
  -24.6394  -11.6905   20.8718 C   0  0  0  0  0  0
  -23.9057  -10.4293   21.0396 C   0  0  0  0  0  0
  -24.3611   -9.4211   21.9177 C   0  0  0  0  0  0
  -23.6288   -8.2248   22.0753 C   0  0  0  0  0  0
  -22.4267   -8.0285   21.3546 C   0  0  0  0  0  0
  -21.9897   -9.0259   20.4649 C   0  0  0  0  0  0
  -22.7226  -10.2138   20.3053 C   0  0  0  0  0  0
  -21.6855   -6.0734   22.5279 C   0  0  0  0  0  0
  -21.4016   -6.5640   23.8211 C   0  0  0  0  0  0
  -21.3657   -5.6792   24.9174 C   0  0  0  0  0  0
  -21.6042   -4.3055   24.7226 C   0  0  0  0  0  0
  -21.8820   -3.8146   23.4347 C   0  0  0  0  0  0
  -21.9193   -4.6960   22.3402 C   0  0  0  0  0  0
  -22.7875  -13.5252   21.1836 C   0  0  0  0  0  0
  -22.1662   -4.2145   21.0981 F   0  0  0  0  0  0
  -21.5625   -3.4540   25.7739 F   0  0  0  0  0  0
  -30.0295  -13.3328   20.4476 N   0  0  0  0  0  0
  -26.3026  -12.9318   20.3351 N   0  0  0  0  0  0
  -25.9321  -11.6481   20.5747 N   0  0  0  0  0  0
  -22.0510  -12.8247   22.0390 N   0  0  0  0  0  0
  -25.4367  -15.1884   20.4168 N   0  0  0  0  0  0
  -31.7837  -14.7432   20.1107 O   0  0  0  0  0  0
  -21.6640   -6.8876   21.4239 O   0  0  0  0  0  0
  -22.3568  -14.5565   20.6692 O   0  0  0  0  0  0
  -24.6181  -31.8645   23.2068 C   0  0  0  0  0  0
  -25.9057  -32.4804   23.8382 C   0  0  1  0  0  0
  -27.2353  -27.3923   20.1138 C   0  0  0  0  0  0
  -25.5899  -33.8604   24.2311 N   0  0  0  0  0  0
  -23.4100  -30.4858   21.5466 C   0  0  2  0  0  0
  -24.8609  -28.9420   20.1191 C   0  0  0  0  0  0
  -22.7433  -29.4637   22.4961 C   0  0  0  0  0  0
  -18.0278  -28.1381   22.8485 C   0  0  0  0  0  0
  -24.1484  -36.7307   23.2636 C   0  0  0  0  0  0
  -25.9428  -30.8157   21.3689 C   0  0  0  0  0  0
  -26.0219  -29.4438   20.7228 C   0  0  0  0  0  0
  -27.2147  -28.6753   20.7204 C   0  0  0  0  0  0
  -26.0612  -26.9146   19.5012 C   0  0  0  0  0  0
  -24.8763  -27.6767   19.5059 C   0  0  0  0  0  0
  -23.6248  -29.8151   20.1632 C   0  0  0  0  0  0
  -25.4104  -36.3100   24.0335 C   0  0  1  0  0  0
  -20.5871  -28.3672   23.1300 C   0  0  2  0  0  0
  -20.6767  -26.9402   22.5416 C   0  0  0  0  0  0
  -19.5748  -26.6384   21.5211 C   0  0  0  0  0  0
  -18.1926  -26.7926   22.1620 C   0  0  0  0  0  0
  -19.1529  -28.8843   23.2891 C   0  0  0  0  0  0
  -18.9458  -30.1445   23.8909 C   0  0  0  0  0  0
  -17.6458  -30.6583   24.0568 C   0  0  0  0  0  0
  -25.9034  -34.9466   23.5122 C   0  0  0  0  0  0
  -16.5350  -29.9087   23.6325 C   0  0  0  0  0  0
  -16.7267  -28.6504   23.0344 C   0  0  0  0  0  0
  -26.4476  -31.6592   25.0721 C   0  0  0  0  0  0
  -25.3738  -31.3715   26.1471 C   0  0  0  0  0  0
  -27.0303  -30.3024   24.6120 C   0  0  0  0  0  0
  -27.6050  -32.4316   25.7481 C   0  0  0  0  0  0
  -27.5580  -37.1801   24.8458 C   0  0  0  0  0  0
  -21.4155  -29.3032   22.3699 N   0  0  0  0  0  0
  -26.4286  -37.3788   23.9411 N   0  0  0  0  0  0
  -24.6749  -31.0712   22.0987 N   0  0  0  0  0  0
  -23.4182  -28.8184   23.3026 O   0  0  0  0  0  0
  -28.3691  -26.6009   20.0554 O   0  0  0  0  0  0
  -26.5603  -34.8923   22.4688 O   0  0  0  0  0  0
  -23.5363  -32.1413   23.7436 O   0  0  0  0  0  0
  -30.5295  -19.0458   20.8870 C   0  0  0  0  0  0
  -29.3002  -19.5892   20.4331 C   0  0  0  0  0  0
  -28.3084  -18.5983   20.1888 C   0  0  0  0  0  0
  -29.7504  -16.8820   20.7705 C   0  0  0  0  0  0
  -28.6000  -23.5896   22.4793 C   0  0  0  0  0  0
  -31.1120  -21.8207   19.1990 C   0  0  0  0  0  0
  -25.9525  -19.0421   20.9906 C   0  0  0  0  0  0
  -29.4757  -23.5228   20.0620 C   0  0  0  0  0  0
  -28.6386  -25.7713   21.2058 C   0  0  0  0  0  0
  -28.4867  -24.2048   21.0714 C   0  0  2  0  0  0
  -30.0447  -22.0618   20.2856 C   0  0  1  0  0  0
  -26.8705  -18.9260   19.7691 C   0  0  0  0  0  0
  -30.7507  -17.7157   21.0472 N   0  0  0  0  0  0
  -28.5421  -17.2783   20.3942 N   0  0  0  0  0  0
  -29.0369  -20.9841   20.2504 N   0  0  0  0  0  0
  -29.8498  -15.5306   21.0513 N   0  0  0  0  0  0
  -26.3973  -17.9505   18.9879 F   0  0  0  0  0  0
  -26.7832  -20.0590   19.0692 F   0  0  0  0  0  0
  -31.4796  -12.4673   19.1319 H   0  0  0  0  0  0
  -30.3617  -11.3361   19.8402 H   0  0  0  0  0  0
  -29.7537  -11.7772   17.4461 H   0  0  0  0  0  0
  -29.6612  -13.4914   17.7594 H   0  0  0  0  0  0
  -27.8423  -11.3052   18.8257 H   0  0  0  0  0  0
  -27.3737  -12.6261   17.7882 H   0  0  0  0  0  0
  -27.6972  -14.2517   19.5670 H   0  0  0  0  0  0
  -28.6959  -11.9578   21.3286 H   0  0  0  0  0  0
  -28.4512  -13.5821   21.8810 H   0  0  0  0  0  0
  -25.2760   -9.5689   22.4746 H   0  0  0  0  0  0
  -24.0000   -7.4640   22.7472 H   0  0  0  0  0  0
  -21.0827   -8.8777   19.8958 H   0  0  0  0  0  0
  -22.3684  -10.9676   19.6162 H   0  0  0  0  0  0
  -21.2013   -7.6148   23.9713 H   0  0  0  0  0  0
  -21.1474   -6.0524   25.9075 H   0  0  0  0  0  0
  -22.0601   -2.7606   23.2854 H   0  0  0  0  0  0
  -22.4121  -11.9908   22.4781 H   0  0  0  0  0  0
  -21.1130  -13.1281   22.2588 H   0  0  0  0  0  0
  -24.6664  -15.8384   20.5193 H   0  0  0  0  0  0
  -26.2954  -15.6364   20.1174 H   0  0  0  0  0  0
  -26.7127  -32.5511   23.1145 H   0  0  0  0  0  0
  -25.0049  -33.9761   25.0457 H   0  0  0  0  0  0
  -22.7003  -31.3032   21.4026 H   0  0  0  0  0  0
  -23.3741  -35.9645   23.3305 H   0  0  0  0  0  0
  -24.3579  -36.8918   22.2050 H   0  0  0  0  0  0
  -23.7242  -37.6515   23.6650 H   0  0  0  0  0  0
  -26.0607  -31.5765   20.5962 H   0  0  0  0  0  0
  -26.8284  -30.8729   21.9901 H   0  0  0  0  0  0
  -28.1134  -29.0601   21.1816 H   0  0  0  0  0  0
  -26.0655  -25.9451   19.0232 H   0  0  0  0  0  0
  -23.9851  -27.2848   19.0351 H   0  0  0  0  0  0
  -23.7398  -30.5886   19.4032 H   0  0  0  0  0  0
  -22.7479  -29.2385   19.8635 H   0  0  0  0  0  0
  -25.1279  -36.1961   25.0826 H   0  0  0  0  0  0
  -20.9964  -28.3250   24.1421 H   0  0  0  0  0  0
  -20.5661  -26.2282   23.3610 H   0  0  0  0  0  0
  -21.6640  -26.7436   22.1218 H   0  0  0  0  0  0
  -19.6911  -25.6298   21.1234 H   0  0  0  0  0  0
  -19.6692  -27.3200   20.6746 H   0  0  0  0  0  0
  -17.4196  -26.6669   21.4024 H   0  0  0  0  0  0
  -18.0330  -26.0068   22.9016 H   0  0  0  0  0  0
  -19.7933  -30.7256   24.2287 H   0  0  0  0  0  0
  -17.5015  -31.6263   24.5170 H   0  0  0  0  0  0
  -15.5351  -30.2996   23.7639 H   0  0  0  0  0  0
  -15.8664  -28.0829   22.7053 H   0  0  0  0  0  0
  -24.5906  -30.7063   25.7816 H   0  0  0  0  0  0
  -24.8940  -32.2880   26.4917 H   0  0  0  0  0  0
  -25.8092  -30.8888   27.0230 H   0  0  0  0  0  0
  -26.2852  -29.6788   24.1165 H   0  0  0  0  0  0
  -27.4046  -29.7260   25.4591 H   0  0  0  0  0  0
  -27.8704  -30.4325   23.9293 H   0  0  0  0  0  0
  -27.2665  -33.3603   26.2086 H   0  0  0  0  0  0
  -28.3844  -32.6895   25.0298 H   0  0  0  0  0  0
  -28.0736  -31.8425   26.5376 H   0  0  0  0  0  0
  -28.2592  -38.0104   24.7518 H   0  0  0  0  0  0
  -28.1083  -36.2639   24.6261 H   0  0  0  0  0  0
  -27.2306  -37.1424   25.8862 H   0  0  0  0  0  0
  -20.9322  -29.8751   21.6915 H   0  0  0  0  0  0
  -26.0173  -38.2861   24.1432 H   0  0  0  0  0  0
  -31.3591  -19.6843   21.1499 H   0  0  0  0  0  0
  -28.3865  -22.5209   22.4720 H   0  0  0  0  0  0
  -27.8895  -24.0464   23.1692 H   0  0  0  0  0  0
  -29.5988  -23.7294   22.8945 H   0  0  0  0  0  0
  -31.8781  -22.5965   19.2262 H   0  0  0  0  0  0
  -30.6705  -21.8386   18.2017 H   0  0  0  0  0  0
  -31.6371  -20.8743   19.3014 H   0  0  0  0  0  0
  -25.9466  -18.1152   21.5644 H   0  0  0  0  0  0
  -24.9271  -19.2587   20.6935 H   0  0  0  0  0  0
  -26.2870  -19.8404   21.6532 H   0  0  0  0  0  0
  -30.3448  -24.1808   20.0122 H   0  0  0  0  0  0
  -29.0358  -23.5885   19.0659 H   0  0  0  0  0  0
  -29.6588  -25.9944   21.5200 H   0  0  0  0  0  0
  -28.0143  -26.1106   22.0355 H   0  0  0  0  0  0
  -27.4735  -23.9987   20.7241 H   0  0  0  0  0  0
  -30.5382  -22.0331   21.2589 H   0  0  0  0  0  0
  -28.1188  -21.2461   19.8970 H   0  0  0  0  0  0
  -28.9766  -15.1495   21.3703 H   0  0  0  0  0  0
  1 25  1  0  0  0
  1 30  2  0  0  0
  1 86  1  0  0  0
  2  3  1  0  0  0
  2 25  1  0  0  0
  2 89  1  0  0  0
  2 90  1  0  0  0
  3  4  1  0  0  0
  3 91  1  0  0  0
  3 92  1  0  0  0
  4  5  1  0  0  0
  4 93  1  0  0  0
  4 94  1  0  0  0
  5  6  1  0  0  0
  5 26  1  0  0  0
  5 95  1  0  0  0
  6 25  1  0  0  0
  6 96  1  0  0  0
  6 97  1  0  0  0
  7  8  2  0  0  0
  7 26  1  0  0  0
  7 29  1  0  0  0
  8  9  1  0  0  0
  8 22  1  0  0  0
  9 10  1  0  0  0
  9 27  2  0  0  0
 10 11  2  0  0  0
 10 15  1  0  0  0
 11 12  1  0  0  0
 11 98  1  0  0  0
 12 13  2  0  0  0
 12 99  1  0  0  0
 13 14  1  0  0  0
 13 31  1  0  0  0
 14 15  2  0  0  0
 14100  1  0  0  0
 15101  1  0  0  0
 16 17  2  0  0  0
 16 21  1  0  0  0
 16 31  1  0  0  0
 17 18  1  0  0  0
 17102  1  0  0  0
 18 19  2  0  0  0
 18103  1  0  0  0
 19 20  1  0  0  0
 19 24  1  0  0  0
 20 21  2  0  0  0
 20104  1  0  0  0
 21 23  1  0  0  0
 22 28  1  0  0  0
 22 32  2  0  0  0
 26 27  1  0  0  0
 28105  1  0  0  0
 28106  1  0  0  0
 29107  1  0  0  0
 29108  1  0  0  0
 33 34  1  0  0  0
 33 66  1  0  0  0
 33 70  2  0  0  0
 34 36  1  0  0  0
 34 59  1  0  0  0
 34109  1  0  0  0
 35 44  2  0  0  0
 35 45  1  0  0  0
 35 68  1  0  0  0
 36 56  1  0  0  0
 36110  1  0  0  0
 37 39  1  0  0  0
 37 47  1  0  0  0
 37 66  1  0  0  0
 37111  1  0  0  0
 38 43  2  0  0  0
 38 46  1  0  0  0
 38 47  1  0  0  0
 39 64  1  0  0  0
 39 67  2  0  0  0
 40 52  1  0  0  0
 40 53  2  0  0  0
 40 58  1  0  0  0
 41112  1  0  0  0
 41113  1  0  0  0
 41114  1  0  0  0
 41 48  1  0  0  0
 42 43  1  0  0  0
 42 66  1  0  0  0
 42115  1  0  0  0
 42116  1  0  0  0
 43 44  1  0  0  0
 44117  1  0  0  0
 45 46  2  0  0  0
 45118  1  0  0  0
 46119  1  0  0  0
 47120  1  0  0  0
 47121  1  0  0  0
 48 56  1  0  0  0
 48 65  1  0  0  0
 48122  1  0  0  0
 49 50  1  0  0  0
 49 53  1  0  0  0
 49 64  1  0  0  0
 49123  1  0  0  0
 50 51  1  0  0  0
 50124  1  0  0  0
 50125  1  0  0  0
 51 52  1  0  0  0
 51126  1  0  0  0
 51127  1  0  0  0
 52128  1  0  0  0
 52129  1  0  0  0
 53 54  1  0  0  0
 54 55  2  0  0  0
 54130  1  0  0  0
 55 57  1  0  0  0
 55131  1  0  0  0
 56 69  2  0  0  0
 57 58  2  0  0  0
 57132  1  0  0  0
 58133  1  0  0  0
 59 60  1  0  0  0
 59 61  1  0  0  0
 59 62  1  0  0  0
 60134  1  0  0  0
 60135  1  0  0  0
 60136  1  0  0  0
 61137  1  0  0  0
 61138  1  0  0  0
 61139  1  0  0  0
 62140  1  0  0  0
 62141  1  0  0  0
 62142  1  0  0  0
 63 65  1  0  0  0
 63143  1  0  0  0
 63144  1  0  0  0
 63145  1  0  0  0
 64146  1  0  0  0
 65147  1  0  0  0
 68 79  1  0  0  0
 71 72  2  0  0  0
 71 83  1  0  0  0
 71148  1  0  0  0
 72 73  1  0  0  0
 72 85  1  0  0  0
 73 82  1  0  0  0
 73 84  2  0  0  0
 74 83  2  0  0  0
 74 84  1  0  0  0
 74 86  1  0  0  0
 75149  1  0  0  0
 75150  1  0  0  0
 75151  1  0  0  0
 75 80  1  0  0  0
 76152  1  0  0  0
 76153  1  0  0  0
 76154  1  0  0  0
 76 81  1  0  0  0
 77155  1  0  0  0
 77156  1  0  0  0
 77157  1  0  0  0
 77 82  1  0  0  0
 78 80  1  0  0  0
 78 81  1  0  0  0
 78158  1  0  0  0
 78159  1  0  0  0
 79 80  1  0  0  0
 79160  1  0  0  0
 79161  1  0  0  0
 80162  1  0  0  0
 81 85  1  0  0  0
 81163  1  0  0  0
 82 87  1  0  0  0
 82 88  1  0  0  0
 85164  1  0  0  0
 86165  1  0  0  0
M  ISO  4   1 100  68 101  79 101  86 100
M  END
> <chiral flag>
0

> <version>
0

> <s_m_source_file>
/data/baiqing/PycharmProjects/Reinvent-master-3.2/result/LINK_invent/BTK/process_docking_weight1_custom_product_contain_oxygen_bond_distance_aromatic_linkinvent_7_9_3/rearranged_h_0194.sdf

> <i_m_source_file_index>
77

> <r_mmod_Potential_Energy-OPLS-2005>
-314.622100830078

> <r_mmod_Stretch_Energy-OPLS-2005>
52.1268882751465

> <r_mmod_Bend_Energy-OPLS-2005>
149.870407104492

> <r_mmod_Torsional_Energy-OPLS-2005>
250.620269775391

> <r_mmod_Improper_Torsional_Energy-OPLS-2005>
6.17602825164795

> <r_mmod_Van_der_Waal_Energy-OPLS-2005>
148.587493896484

> <r_mmod_Electrostatic_Energy-OPLS-2005>
-733.983032226562

> <r_mmod_Solvation_Energy-OPLS-2005>
-209.947265625

> <b_mmod_Minimization_Converged-OPLS-2005>
0

> <r_mmod_RMS_Derivative-OPLS-2005>
0.610813677310944

$$$$
77
                    3D
 Structure written by MMmdl.
158166  0  0  1  0            999 V2000
  -30.7448  -14.3817   20.6199 C   0  0  0  0  0  0
  -30.4158  -12.2565   19.4256 C   0  0  0  0  0  0
  -29.5015  -12.5095   18.2099 C   0  0  0  0  0  0
  -28.0153  -12.3938   18.6100 C   0  0  0  0  0  0
  -27.6725  -13.2088   19.8857 C   0  0  2  0  0  0
  -28.7051  -12.9429   21.0060 C   0  0  0  0  0  0
  -25.2637  -13.8161   20.5683 C   0  0  0  0  0  0
  -24.1873  -13.0434   20.9161 C   0  0  0  0  0  0
  -24.6441  -11.6896   20.8721 C   0  0  0  0  0  0
  -23.9106  -10.4281   21.0429 C   0  0  0  0  0  0
  -24.3635   -9.4197   21.9215 C   0  0  0  0  0  0
  -23.6296   -8.2244   22.0784 C   0  0  0  0  0  0
  -22.4277   -8.0279   21.3565 C   0  0  0  0  0  0
  -21.9924   -9.0264   20.4676 C   0  0  0  0  0  0
  -22.7274  -10.2136   20.3099 C   0  0  0  0  0  0
  -21.6832   -6.0757   22.5279 C   0  0  0  0  0  0
  -21.4003   -6.5680   23.8219 C   0  0  0  0  0  0
  -21.3669   -5.6832   24.9186 C   0  0  0  0  0  0
  -21.6035   -4.3091   24.7234 C   0  0  0  0  0  0
  -21.8818   -3.8182   23.4351 C   0  0  0  0  0  0
  -21.9175   -4.6993   22.3410 C   0  0  0  0  0  0
  -22.7903  -13.5234   21.1859 C   0  0  0  0  0  0
  -22.1644   -4.2182   21.0987 F   0  0  0  0  0  0
  -21.5618   -3.4575   25.7746 F   0  0  0  0  0  0
  -30.0549  -13.2209   20.4740 N   0  0  0  0  0  0
  -26.3085  -12.9350   20.3373 N   0  0  0  0  0  0
  -25.9371  -11.6502   20.5730 N   0  0  0  0  0  0
  -22.0527  -12.8214   22.0392 N   0  0  0  0  0  0
  -25.4365  -15.1879   20.4110 N   0  0  0  0  0  0
  -31.8284  -14.5976   20.0663 O   0  0  0  0  0  0
  -21.6642   -6.8886   21.4234 O   0  0  0  0  0  0
  -22.3627  -14.5598   20.6771 O   0  0  0  0  0  0
  -24.6088  -31.8736   23.2186 C   0  0  0  0  0  0
  -25.8998  -32.4866   23.8453 C   0  0  1  0  0  0
  -27.2318  -27.4979   20.0678 C   0  0  0  0  0  0
  -25.5854  -33.8667   24.2384 N   0  0  0  0  0  0
  -23.3928  -30.5031   21.5593 C   0  0  2  0  0  0
  -24.8401  -28.9907   20.1077 C   0  0  0  0  0  0
  -22.7383  -29.4700   22.5035 C   0  0  0  0  0  0
  -18.0295  -28.1384   22.8516 C   0  0  0  0  0  0
  -24.1495  -36.7325   23.2630 C   0  0  0  0  0  0
  -25.9227  -30.8638   21.3642 C   0  0  0  0  0  0
  -26.0013  -29.5108   20.6929 C   0  0  0  0  0  0
  -27.2064  -28.7749   20.6615 C   0  0  0  0  0  0
  -26.0524  -26.9865   19.4744 C   0  0  0  0  0  0
  -24.8600  -27.7276   19.4947 C   0  0  0  0  0  0
  -23.5968  -29.8461   20.1711 C   0  0  0  0  0  0
  -25.4108  -36.3158   24.0356 C   0  0  1  0  0  0
  -20.5870  -28.3706   23.1372 C   0  0  2  0  0  0
  -20.6829  -26.9419   22.5527 C   0  0  0  0  0  0
  -19.5817  -26.6308   21.5329 C   0  0  0  0  0  0
  -18.1995  -26.7896   22.1705 C   0  0  0  0  0  0
  -19.1522  -28.8865   23.2926 C   0  0  0  0  0  0
  -18.9446  -30.1484   23.8903 C   0  0  0  0  0  0
  -17.6443  -30.6604   24.0547 C   0  0  0  0  0  0
  -25.9019  -34.9499   23.5167 C   0  0  0  0  0  0
  -16.5339  -29.9094   23.6302 C   0  0  0  0  0  0
  -16.7284  -28.6511   23.0333 C   0  0  0  0  0  0
  -26.4448  -31.6637   25.0757 C   0  0  0  0  0  0
  -25.3716  -31.3732   26.1511 C   0  0  0  0  0  0
  -27.0254  -30.3086   24.6097 C   0  0  0  0  0  0
  -27.6084  -32.4304   25.7477 C   0  0  0  0  0  0
  -27.5602  -37.1819   24.8468 C   0  0  0  0  0  0
  -21.4119  -29.3062   22.3778 N   0  0  0  0  0  0
  -26.4317  -37.3825   23.9409 N   0  0  0  0  0  0
  -24.6594  -31.0907   22.1053 N   0  0  0  0  0  0
  -23.4194  -28.8210   23.3025 O   0  0  0  0  0  0
  -28.3853  -26.7544   20.1084 O   0  0  0  0  0  0
  -26.5601  -34.8919   22.4741 O   0  0  0  0  0  0
  -23.5284  -32.1442   23.7606 O   0  0  0  0  0  0
  -30.1048  -18.5783   19.8780 C   0  0  0  0  0  0
  -29.0233  -18.8828   20.6717 C   0  0  0  0  0  0
  -29.9293  -16.6416   21.0513 C   0  0  0  0  0  0
  -26.6668  -22.5745   21.7887 C   0  0  0  0  0  0
  -28.1964  -20.1212   20.6287 C   0  0  0  0  0  0
  -29.3798  -24.7762   21.1688 C   0  0  0  0  0  0
  -29.0267  -23.5603   22.0536 C   0  0  0  0  0  0
  -28.1489  -25.4116   20.5149 C   0  0  0  0  0  0
  -28.1470  -22.4934   21.3522 C   0  0  1  0  0  0
  -30.6147  -17.3002   20.1086 N   0  0  0  0  0  0
  -30.1456  -15.2911   21.3960 N   0  0  0  0  0  0
  -28.6867  -21.1375   21.5797 N   0  3  0  0  0  0
  -28.6389  -17.5837   21.7726 S   0  0  0  0  0  0
  -31.4695  -12.3151   19.1445 H   0  0  0  0  0  0
  -30.2679  -11.2420   19.8001 H   0  0  0  0  0  0
  -29.7309  -11.7970   17.4158 H   0  0  0  0  0  0
  -29.6959  -13.5023   17.7998 H   0  0  0  0  0  0
  -27.7963  -11.3363   18.7705 H   0  0  0  0  0  0
  -27.3766  -12.7131   17.7830 H   0  0  0  0  0  0
  -27.7314  -14.2658   19.6185 H   0  0  0  0  0  0
  -28.6589  -11.8997   21.3203 H   0  0  0  0  0  0
  -28.4630  -13.5163   21.9025 H   0  0  0  0  0  0
  -25.2798   -9.5658   22.4785 H   0  0  0  0  0  0
  -24.0003   -7.4648   22.7520 H   0  0  0  0  0  0
  -21.0845   -8.8800   19.8997 H   0  0  0  0  0  0
  -22.3748  -10.9680   19.6211 H   0  0  0  0  0  0
  -21.2006   -7.6192   23.9730 H   0  0  0  0  0  0
  -21.1487   -6.0569   25.9089 H   0  0  0  0  0  0
  -22.0590   -2.7645   23.2842 H   0  0  0  0  0  0
  -22.4121  -11.9827   22.4704 H   0  0  0  0  0  0
  -21.1181  -13.1300   22.2699 H   0  0  0  0  0  0
  -24.6701  -15.8441   20.5183 H   0  0  0  0  0  0
  -26.2912  -15.6227   20.0866 H   0  0  0  0  0  0
  -26.7073  -32.5619   23.1227 H   0  0  0  0  0  0
  -25.0004  -33.9867   25.0525 H   0  0  0  0  0  0
  -22.6766  -31.3186   21.4292 H   0  0  0  0  0  0
  -23.3768  -35.9653   23.3325 H   0  0  0  0  0  0
  -24.3598  -36.8883   22.2037 H   0  0  0  0  0  0
  -23.7221  -37.6533   23.6606 H   0  0  0  0  0  0
  -26.0425  -31.6513   20.6182 H   0  0  0  0  0  0
  -26.8061  -30.8979   21.9903 H   0  0  0  0  0  0
  -28.1043  -29.1789   21.1066 H   0  0  0  0  0  0
  -26.0417  -26.0173   18.9986 H   0  0  0  0  0  0
  -23.9675  -27.3253   19.0372 H   0  0  0  0  0  0
  -23.6942  -30.6288   19.4169 H   0  0  0  0  0  0
  -22.7202  -29.2643   19.8788 H   0  0  0  0  0  0
  -25.1281  -36.2054   25.0854 H   0  0  0  0  0  0
  -20.9937  -28.3321   24.1503 H   0  0  0  0  0  0
  -20.5740  -26.2338   23.3743 H   0  0  0  0  0  0
  -21.6730  -26.7489   22.1370 H   0  0  0  0  0  0
  -19.6999  -25.6165   21.1467 H   0  0  0  0  0  0
  -19.6759  -27.3046   20.6784 H   0  0  0  0  0  0
  -17.4267  -26.6549   21.4116 H   0  0  0  0  0  0
  -18.0395  -26.0126   22.9181 H   0  0  0  0  0  0
  -19.7896  -30.7324   24.2285 H   0  0  0  0  0  0
  -17.4988  -31.6312   24.5101 H   0  0  0  0  0  0
  -15.5337  -30.3011   23.7613 H   0  0  0  0  0  0
  -15.8693  -28.0805   22.7062 H   0  0  0  0  0  0
  -24.5885  -30.7087   25.7846 H   0  0  0  0  0  0
  -24.8892  -32.2874   26.4983 H   0  0  0  0  0  0
  -25.8038  -30.8880   27.0268 H   0  0  0  0  0  0
  -26.2782  -29.6875   24.1132 H   0  0  0  0  0  0
  -27.4025  -29.7313   25.4549 H   0  0  0  0  0  0
  -27.8637  -30.4446   23.9253 H   0  0  0  0  0  0
  -27.2792  -33.3588   26.2163 H   0  0  0  0  0  0
  -28.3828  -32.6867   25.0234 H   0  0  0  0  0  0
  -28.0841  -31.8339   26.5275 H   0  0  0  0  0  0
  -28.2654  -38.0095   24.7529 H   0  0  0  0  0  0
  -28.1075  -36.2623   24.6295 H   0  0  0  0  0  0
  -27.2329  -37.1478   25.8880 H   0  0  0  0  0  0
  -20.9258  -29.8719   21.6950 H   0  0  0  0  0  0
  -26.0225  -38.2931   24.1356 H   0  0  0  0  0  0
  -30.5515  -19.1972   19.1089 H   0  0  0  0  0  0
  -26.0392  -21.8910   21.2173 H   0  0  0  0  0  0
  -26.2500  -23.5682   21.6418 H   0  0  0  0  0  0
  -26.5388  -22.3274   22.8432 H   0  0  0  0  0  0
  -27.1560  -19.8798   20.8534 H   0  0  0  0  0  0
  -28.2038  -20.5197   19.6122 H   0  0  0  0  0  0
  -30.0955  -24.4908   20.3972 H   0  0  0  0  0  0
  -29.8834  -25.5137   21.7957 H   0  0  0  0  0  0
  -28.5249  -23.9082   22.9589 H   0  0  0  0  0  0
  -29.9628  -23.1206   22.4018 H   0  0  0  0  0  0
  -27.3364  -25.4017   21.2438 H   0  0  0  0  0  0
  -27.8379  -24.8238   19.6488 H   0  0  0  0  0  0
  -28.1995  -22.6684   20.2769 H   0  0  0  0  0  0
  -29.4401  -14.9070   22.0034 H   0  0  0  0  0  0
  -29.6854  -21.1866   21.4680 H   0  0  0  0  0  0
  -28.4927  -20.8462   22.5248 H   0  0  0  0  0  0
  1 25  1  0  0  0
  1 30  2  0  0  0
  1 81  1  0  0  0
  2  3  1  0  0  0
  2 25  1  0  0  0
  2 84  1  0  0  0
  2 85  1  0  0  0
  3  4  1  0  0  0
  3 86  1  0  0  0
  3 87  1  0  0  0
  4  5  1  0  0  0
  4 88  1  0  0  0
  4 89  1  0  0  0
  5  6  1  0  0  0
  5 26  1  0  0  0
  5 90  1  0  0  0
  6 25  1  0  0  0
  6 91  1  0  0  0
  6 92  1  0  0  0
  7  8  2  0  0  0
  7 26  1  0  0  0
  7 29  1  0  0  0
  8  9  1  0  0  0
  8 22  1  0  0  0
  9 10  1  0  0  0
  9 27  2  0  0  0
 10 11  2  0  0  0
 10 15  1  0  0  0
 11 12  1  0  0  0
 11 93  1  0  0  0
 12 13  2  0  0  0
 12 94  1  0  0  0
 13 14  1  0  0  0
 13 31  1  0  0  0
 14 15  2  0  0  0
 14 95  1  0  0  0
 15 96  1  0  0  0
 16 17  2  0  0  0
 16 21  1  0  0  0
 16 31  1  0  0  0
 17 18  1  0  0  0
 17 97  1  0  0  0
 18 19  2  0  0  0
 18 98  1  0  0  0
 19 20  1  0  0  0
 19 24  1  0  0  0
 20 21  2  0  0  0
 20 99  1  0  0  0
 21 23  1  0  0  0
 22 28  1  0  0  0
 22 32  2  0  0  0
 26 27  1  0  0  0
 28100  1  0  0  0
 28101  1  0  0  0
 29102  1  0  0  0
 29103  1  0  0  0
 33 34  1  0  0  0
 33 66  1  0  0  0
 33 70  2  0  0  0
 34 36  1  0  0  0
 34 59  1  0  0  0
 34104  1  0  0  0
 35 44  2  0  0  0
 35 45  1  0  0  0
 35 68  1  0  0  0
 36 56  1  0  0  0
 36105  1  0  0  0
 37 39  1  0  0  0
 37 47  1  0  0  0
 37 66  1  0  0  0
 37106  1  0  0  0
 38 43  2  0  0  0
 38 46  1  0  0  0
 38 47  1  0  0  0
 39 64  1  0  0  0
 39 67  2  0  0  0
 40 52  1  0  0  0
 40 53  2  0  0  0
 40 58  1  0  0  0
 41107  1  0  0  0
 41108  1  0  0  0
 41109  1  0  0  0
 41 48  1  0  0  0
 42 43  1  0  0  0
 42 66  1  0  0  0
 42110  1  0  0  0
 42111  1  0  0  0
 43 44  1  0  0  0
 44112  1  0  0  0
 45 46  2  0  0  0
 45113  1  0  0  0
 46114  1  0  0  0
 47115  1  0  0  0
 47116  1  0  0  0
 48 56  1  0  0  0
 48 65  1  0  0  0
 48117  1  0  0  0
 49 50  1  0  0  0
 49 53  1  0  0  0
 49 64  1  0  0  0
 49118  1  0  0  0
 50 51  1  0  0  0
 50119  1  0  0  0
 50120  1  0  0  0
 51 52  1  0  0  0
 51121  1  0  0  0
 51122  1  0  0  0
 52123  1  0  0  0
 52124  1  0  0  0
 53 54  1  0  0  0
 54 55  2  0  0  0
 54125  1  0  0  0
 55 57  1  0  0  0
 55126  1  0  0  0
 56 69  2  0  0  0
 57 58  2  0  0  0
 57127  1  0  0  0
 58128  1  0  0  0
 59 60  1  0  0  0
 59 61  1  0  0  0
 59 62  1  0  0  0
 60129  1  0  0  0
 60130  1  0  0  0
 60131  1  0  0  0
 61132  1  0  0  0
 61133  1  0  0  0
 61134  1  0  0  0
 62135  1  0  0  0
 62136  1  0  0  0
 62137  1  0  0  0
 63 65  1  0  0  0
 63138  1  0  0  0
 63139  1  0  0  0
 63140  1  0  0  0
 64141  1  0  0  0
 65142  1  0  0  0
 68 78  1  0  0  0
 71 72  2  0  0  0
 71 80  1  0  0  0
 71143  1  0  0  0
 72 75  1  0  0  0
 72 83  1  0  0  0
 73 80  2  0  0  0
 73 81  1  0  0  0
 73 83  1  0  0  0
 74144  1  0  0  0
 74145  1  0  0  0
 74146  1  0  0  0
 74 79  1  0  0  0
 75 82  1  0  0  0
 75147  1  0  0  0
 75148  1  0  0  0
 76 77  1  0  0  0
 76 78  1  0  0  0
 76149  1  0  0  0
 76150  1  0  0  0
 77 79  1  0  0  0
 77151  1  0  0  0
 77152  1  0  0  0
 78153  1  0  0  0
 78154  1  0  0  0
 79 82  1  0  0  0
 79155  1  0  0  0
 81156  1  0  0  0
 82157  1  0  0  0
 82158  1  0  0  0
M  CHG  1  82   1
M  ISO  4   1 100  68 101  78 101  81 100
M  END
> <chiral flag>
0

> <version>
0

> <s_m_source_file>
/data/baiqing/PycharmProjects/Reinvent-master-3.2/result/LINK_invent/BTK/process_docking_weight1_custom_product_contain_oxygen_bond_distance_aromatic_linkinvent_7_9_3/rearranged_h_0194.sdf

> <i_m_source_file_index>
78

> <r_mmod_Potential_Energy-OPLS-2005>
-277.217803955078

> <r_mmod_Stretch_Energy-OPLS-2005>
30.6190948486328

> <r_mmod_Bend_Energy-OPLS-2005>
88.1134338378906

> <r_mmod_Torsional_Energy-OPLS-2005>
241.518630981445

> <r_mmod_Improper_Torsional_Energy-OPLS-2005>
4.54378318786621

> <r_mmod_Van_der_Waal_Energy-OPLS-2005>
141.06266784668

> <r_mmod_Electrostatic_Energy-OPLS-2005>
-296.704620361328

> <r_mmod_Solvation_Energy-OPLS-2005>
-495.928497314453

> <b_mmod_Minimization_Converged-OPLS-2005>
0

> <r_mmod_RMS_Derivative-OPLS-2005>
4.06474208831787

$$$$
78
                    3D
 Structure written by MMmdl.
154162  0  0  1  0            999 V2000
  -27.5747  -17.4864   20.5192 C   0  0  0  0  0  0
  -29.3823  -14.8936   19.5458 C   0  0  0  0  0  0
  -29.2890  -13.5170   18.6180 C   0  0  0  0  0  0
  -28.2413  -12.5199   19.0928 C   0  0  0  0  0  0
  -27.3243  -13.4321   19.8839 C   0  0  2  0  0  0
  -27.9026  -14.4182   20.9579 C   0  0  0  0  0  0
  -25.0490  -13.8088   20.5588 C   0  0  0  0  0  0
  -24.0485  -13.0022   20.9498 C   0  0  0  0  0  0
  -24.5650  -11.6697   20.8997 C   0  0  0  0  0  0
  -23.8690  -10.4033   21.0525 C   0  0  0  0  0  0
  -24.3416   -9.4035   21.9262 C   0  0  0  0  0  0
  -23.6181   -8.2047   22.0776 C   0  0  0  0  0  0
  -22.4177   -8.0074   21.3536 C   0  0  0  0  0  0
  -21.9737   -8.9985   20.4631 C   0  0  0  0  0  0
  -22.6968  -10.1884   20.3079 C   0  0  0  0  0  0
  -21.6791   -6.0625   22.5294 C   0  0  0  0  0  0
  -21.3968   -6.5575   23.8207 C   0  0  0  0  0  0
  -21.3648   -5.6760   24.9189 C   0  0  0  0  0  0
  -21.6052   -4.3019   24.7258 C   0  0  0  0  0  0
  -21.8831   -3.8080   23.4385 C   0  0  0  0  0  0
  -21.9176   -4.6873   22.3428 C   0  0  0  0  0  0
  -22.6632  -13.4742   21.2158 C   0  0  0  0  0  0
  -22.1659   -4.2065   21.1004 F   0  0  0  0  0  0
  -21.5636   -3.4523   25.7778 F   0  0  0  0  0  0
  -28.0658  -15.7965   20.2445 N   0  0  0  0  0  0
  -26.0995  -12.9576   20.3368 N   0  0  0  0  0  0
  -25.8545  -11.6587   20.5866 N   0  0  0  0  0  0
  -21.9469  -12.7798   22.0849 N   0  0  0  0  0  0
  -25.1308  -15.1853   20.3363 N   0  0  0  0  0  0
  -28.9294  -17.4741   20.5384 O   0  0  0  0  0  0
  -21.6557   -6.8703   21.4231 O   0  0  0  0  0  0
  -22.2404  -14.5075   20.6975 O   0  0  0  0  0  0
  -24.6239  -31.9034   23.2234 C   0  0  0  0  0  0
  -25.9146  -32.5053   23.8499 C   0  0  1  0  0  0
  -27.1317  -27.5358   20.0423 C   0  0  0  0  0  0
  -25.5884  -33.8782   24.2400 N   0  0  0  0  0  0
  -23.4602  -30.3852   21.6946 C   0  0  2  0  0  0
  -24.8505  -29.0963   19.9905 C   0  0  0  0  0  0
  -23.2410  -29.2628   22.7504 C   0  0  0  0  0  0
  -18.8865  -26.3437   23.2611 C   0  0  0  0  0  0
  -24.1466  -36.7455   23.2626 C   0  0  0  0  0  0
  -25.9323  -30.8933   21.3719 C   0  0  0  0  0  0
  -25.9977  -29.5748   20.6389 C   0  0  0  0  0  0
  -27.1648  -28.7957   20.6630 C   0  0  0  0  0  0
  -26.0754  -27.1578   19.2031 C   0  0  0  0  0  0
  -24.9103  -27.9375   19.1924 C   0  0  0  0  0  0
  -23.5602  -29.8356   20.2393 C   0  0  0  0  0  0
  -25.4063  -36.3199   24.0327 C   0  0  1  0  0  0
  -21.2884  -27.9581   23.9277 C   0  0  2  0  0  0
  -21.5915  -26.4826   23.8965 C   0  0  0  0  0  0
  -20.5468  -25.2798   23.8413 C   0  0  0  0  0  0
  -19.0519  -25.1804   23.7339 C   0  0  0  0  0  0
  -19.9815  -27.8454   23.4188 C   0  0  0  0  0  0
  -19.8631  -29.1476   22.3913 C   0  0  0  0  0  0
  -19.0506  -29.0195   21.0709 C   0  0  0  0  0  0
  -25.8999  -34.9585   23.5141 C   0  0  0  0  0  0
  -18.1405  -27.6659   20.6827 C   0  0  0  0  0  0
  -17.9214  -26.2852   21.7287 C   0  0  0  0  0  0
  -26.4599  -31.6788   25.0797 C   0  0  0  0  0  0
  -25.3872  -31.3584   26.1471 C   0  0  0  0  0  0
  -27.0742  -30.3372   24.6167 C   0  0  0  0  0  0
  -27.6097  -32.4645   25.7560 C   0  0  0  0  0  0
  -27.5574  -37.1849   24.8415 C   0  0  0  0  0  0
  -22.0540  -28.8645   23.0093 N   0  0  0  0  0  0
  -26.4253  -37.3865   23.9415 N   0  0  0  0  0  0
  -24.6785  -31.1249   22.1111 N   0  0  0  0  0  0
  -24.1254  -28.7343   23.3787 O   0  0  0  0  0  0
  -27.7929  -26.5212   20.6200 O   0  0  0  0  0  0
  -26.5577  -34.9006   22.4708 O   0  0  0  0  0  0
  -23.5439  -32.1543   23.7782 O   0  0  0  0  0  0
  -22.6245  -23.3961   21.0296 C   0  0  0  0  0  0
  -20.2322  -26.4823   21.4801 C   0  0  0  0  0  0
  -22.9000  -25.9476   21.0333 C   0  0  0  0  0  0
  -27.7946  -25.0827   22.4894 C   0  0  0  0  0  0
  -24.2816  -21.0786   21.0472 C   0  0  0  0  0  0
  -25.4702  -25.6181   21.6172 C   0  0  0  0  0  0
  -26.9657  -26.1779   21.8044 C   0  0  2  0  0  0
  -21.0215  -24.6021   21.3191 N   0  0  0  0  0  0
  -23.2840  -24.5862   20.8328 N   0  0  0  0  0  0
  -21.6530  -26.8042   21.1481 N   0  0  0  0  0  0
  -17.8513  -28.1911   22.8392 N   0  0  0  0  0  0
  -24.1865  -26.4523   21.4572 N   0  0  0  0  0  0
  -25.9835  -18.9962   20.6632 N   0  0  0  0  0  0
  -29.8293  -15.6188   18.8637 H   0  0  0  0  0  0
  -30.1919  -14.7795   20.2728 H   0  0  0  0  0  0
  -30.2656  -13.0411   18.5300 H   0  0  0  0  0  0
  -29.0262  -13.8192   17.6039 H   0  0  0  0  0  0
  -28.6806  -11.7647   19.7443 H   0  0  0  0  0  0
  -27.7340  -12.0160   18.2686 H   0  0  0  0  0  0
  -26.9786  -14.0545   19.0525 H   0  0  0  0  0  0
  -28.7367  -14.0031   21.5338 H   0  0  0  0  0  0
  -27.1948  -14.6084   21.7645 H   0  0  0  0  0  0
  -25.2517   -9.5635   22.4879 H   0  0  0  0  0  0
  -23.9901   -7.4455   22.7502 H   0  0  0  0  0  0
  -21.0681   -8.8451   19.8933 H   0  0  0  0  0  0
  -22.3380  -10.9437   19.6224 H   0  0  0  0  0  0
  -21.1948   -7.6088   23.9676 H   0  0  0  0  0  0
  -21.1466   -6.0504   25.9085 H   0  0  0  0  0  0
  -22.0623   -2.7542   23.2911 H   0  0  0  0  0  0
  -22.3184  -11.9472   22.5173 H   0  0  0  0  0  0
  -21.0121  -13.0825   22.3211 H   0  0  0  0  0  0
  -24.2451  -15.6714   20.2452 H   0  0  0  0  0  0
  -25.8226  -15.4917   19.6656 H   0  0  0  0  0  0
  -26.7260  -32.5757   23.1319 H   0  0  0  0  0  0
  -24.9820  -33.9907   25.0398 H   0  0  0  0  0  0
  -22.5968  -31.0529   21.7241 H   0  0  0  0  0  0
  -23.3678  -35.9830   23.3226 H   0  0  0  0  0  0
  -24.3609  -36.9140   22.2060 H   0  0  0  0  0  0
  -23.7270  -37.6663   23.6687 H   0  0  0  0  0  0
  -26.0640  -31.7075   20.6578 H   0  0  0  0  0  0
  -26.8113  -30.8954   22.0046 H   0  0  0  0  0  0
  -27.9895  -29.0645   21.3082 H   0  0  0  0  0  0
  -26.0587  -26.1772   18.7489 H   0  0  0  0  0  0
  -24.0340  -27.5877   18.6632 H   0  0  0  0  0  0
  -23.4863  -30.6582   19.5285 H   0  0  0  0  0  0
  -22.7158  -29.1763   20.0321 H   0  0  0  0  0  0
  -25.1229  -36.2045   25.0816 H   0  0  0  0  0  0
  -21.2566  -28.3655   24.9416 H   0  0  0  0  0  0
  -22.0143  -26.3807   24.8992 H   0  0  0  0  0  0
  -22.5256  -26.2417   23.4192 H   0  0  0  0  0  0
  -21.0368  -24.3324   23.6208 H   0  0  0  0  0  0
  -20.5625  -25.0567   24.9099 H   0  0  0  0  0  0
  -18.7381  -24.3744   23.0690 H   0  0  0  0  0  0
  -18.5396  -25.0681   24.6927 H   0  0  0  0  0  0
  -20.2575  -30.1449   22.5919 H   0  0  0  0  0  0
  -19.0166  -29.8627   20.3965 H   0  0  0  0  0  0
  -17.6060  -27.6790   19.7444 H   0  0  0  0  0  0
  -17.3381  -25.4264   21.4215 H   0  0  0  0  0  0
  -24.6001  -30.7149   25.7525 H   0  0  0  0  0  0
  -24.9157  -32.2606   26.5373 H   0  0  0  0  0  0
  -25.8218  -30.8272   26.9951 H   0  0  0  0  0  0
  -26.3549  -29.6962   24.1114 H   0  0  0  0  0  0
  -27.4584  -29.7669   25.4634 H   0  0  0  0  0  0
  -27.9171  -30.4960   23.9439 H   0  0  0  0  0  0
  -27.2805  -33.4234   26.1588 H   0  0  0  0  0  0
  -28.4117  -32.6768   25.0461 H   0  0  0  0  0  0
  -28.0510  -31.9125   26.5864 H   0  0  0  0  0  0
  -28.2476  -38.0257   24.7570 H   0  0  0  0  0  0
  -28.1181  -36.2793   24.6047 H   0  0  0  0  0  0
  -27.2342  -37.1277   25.8825 H   0  0  0  0  0  0
  -21.3956  -29.2859   22.3692 H   0  0  0  0  0  0
  -26.0144  -38.2924   24.1488 H   0  0  0  0  0  0
  -27.7594  -24.1527   21.9204 H   0  0  0  0  0  0
  -27.4195  -24.8694   23.4922 H   0  0  0  0  0  0
  -28.8439  -25.3664   22.5813 H   0  0  0  0  0  0
  -23.4143  -20.4308   20.9247 H   0  0  0  0  0  0
  -24.4613  -21.1277   22.1211 H   0  0  0  0  0  0
  -25.2641  -24.9950   22.4908 H   0  0  0  0  0  0
  -25.5742  -24.9245   20.7833 H   0  0  0  0  0  0
  -26.9354  -27.0105   22.5111 H   0  0  0  0  0  0
  -17.3070  -27.6549   23.4959 H   0  0  0  0  0  0
  -18.1573  -29.0878   23.1811 H   0  0  0  0  0  0
  -24.2008  -27.3896   21.8470 H   0  0  0  0  0  0
  -25.2587  -18.3280   20.4276 H   0  0  0  0  0  0
  1 25  1  0  0  0
  1 30  2  0  0  0
  1 83  1  0  0  0
  2  3  1  0  0  0
  2 25  1  0  0  0
  2 84  1  0  0  0
  2 85  1  0  0  0
  3  4  1  0  0  0
  3 86  1  0  0  0
  3 87  1  0  0  0
  4  5  1  0  0  0
  4 88  1  0  0  0
  4 89  1  0  0  0
  5  6  1  0  0  0
  5 26  1  0  0  0
  5 90  1  0  0  0
  6 25  1  0  0  0
  6 91  1  0  0  0
  6 92  1  0  0  0
  7  8  2  0  0  0
  7 26  1  0  0  0
  7 29  1  0  0  0
  8  9  1  0  0  0
  8 22  1  0  0  0
  9 10  1  0  0  0
  9 27  2  0  0  0
 10 11  2  0  0  0
 10 15  1  0  0  0
 11 12  1  0  0  0
 11 93  1  0  0  0
 12 13  2  0  0  0
 12 94  1  0  0  0
 13 14  1  0  0  0
 13 31  1  0  0  0
 14 15  2  0  0  0
 14 95  1  0  0  0
 15 96  1  0  0  0
 16 17  2  0  0  0
 16 21  1  0  0  0
 16 31  1  0  0  0
 17 18  1  0  0  0
 17 97  1  0  0  0
 18 19  2  0  0  0
 18 98  1  0  0  0
 19 20  1  0  0  0
 19 24  1  0  0  0
 20 21  2  0  0  0
 20 99  1  0  0  0
 21 23  1  0  0  0
 22 28  1  0  0  0
 22 32  2  0  0  0
 26 27  1  0  0  0
 28100  1  0  0  0
 28101  1  0  0  0
 29102  1  0  0  0
 29103  1  0  0  0
 33 34  1  0  0  0
 33 66  1  0  0  0
 33 70  2  0  0  0
 34 36  1  0  0  0
 34 59  1  0  0  0
 34104  1  0  0  0
 35 44  2  0  0  0
 35 45  1  0  0  0
 35 68  1  0  0  0
 36 56  1  0  0  0
 36105  1  0  0  0
 37 39  1  0  0  0
 37 47  1  0  0  0
 37 66  1  0  0  0
 37106  1  0  0  0
 38 43  2  0  0  0
 38 46  1  0  0  0
 38 47  1  0  0  0
 39 64  1  0  0  0
 39 67  2  0  0  0
 40 52  1  0  0  0
 40 53  2  0  0  0
 40 58  1  0  0  0
 41107  1  0  0  0
 41108  1  0  0  0
 41109  1  0  0  0
 41 48  1  0  0  0
 42 43  1  0  0  0
 42 66  1  0  0  0
 42110  1  0  0  0
 42111  1  0  0  0
 43 44  1  0  0  0
 44112  1  0  0  0
 45 46  2  0  0  0
 45113  1  0  0  0
 46114  1  0  0  0
 47115  1  0  0  0
 47116  1  0  0  0
 48 56  1  0  0  0
 48 65  1  0  0  0
 48117  1  0  0  0
 49 50  1  0  0  0
 49 53  1  0  0  0
 49 64  1  0  0  0
 49118  1  0  0  0
 50 51  1  0  0  0
 50119  1  0  0  0
 50120  1  0  0  0
 51 52  1  0  0  0
 51121  1  0  0  0
 51122  1  0  0  0
 52123  1  0  0  0
 52124  1  0  0  0
 53 54  1  0  0  0
 54 55  2  0  0  0
 54125  1  0  0  0
 55 57  1  0  0  0
 55126  1  0  0  0
 56 69  2  0  0  0
 57 58  2  0  0  0
 57127  1  0  0  0
 58128  1  0  0  0
 59 60  1  0  0  0
 59 61  1  0  0  0
 59 62  1  0  0  0
 60129  1  0  0  0
 60130  1  0  0  0
 60131  1  0  0  0
 61132  1  0  0  0
 61133  1  0  0  0
 61134  1  0  0  0
 62135  1  0  0  0
 62136  1  0  0  0
 62137  1  0  0  0
 63 65  1  0  0  0
 63138  1  0  0  0
 63139  1  0  0  0
 63140  1  0  0  0
 64141  1  0  0  0
 65142  1  0  0  0
 68 77  1  0  0  0
 71 75  1  0  0  0
 71 78  1  0  0  0
 71 79  2  0  0  0
 72 78  2  0  0  0
 72 80  1  0  0  0
 72 81  1  0  0  0
 73 79  1  0  0  0
 73 80  2  0  0  0
 73 82  1  0  0  0
 74143  1  0  0  0
 74144  1  0  0  0
 74145  1  0  0  0
 74 77  1  0  0  0
 75 83  1  0  0  0
 75146  1  0  0  0
 75147  1  0  0  0
 76 77  1  0  0  0
 76 82  1  0  0  0
 76148  1  0  0  0
 76149  1  0  0  0
 77150  1  0  0  0
 81151  1  0  0  0
 81152  1  0  0  0
 82153  1  0  0  0
 83154  1  0  0  0
M  ISO  4   1 100  68 101  77 101  83 100
M  END
> <chiral flag>
0

> <version>
0

> <s_m_source_file>
/data/baiqing/PycharmProjects/Reinvent-master-3.2/result/LINK_invent/BTK/process_docking_weight1_custom_product_contain_oxygen_bond_distance_aromatic_linkinvent_7_9_3/rearranged_h_0194.sdf

> <i_m_source_file_index>
79

> <r_mmod_Potential_Energy-OPLS-2005>
33908.04296875

> <r_mmod_Stretch_Energy-OPLS-2005>
16479.4140625

> <r_mmod_Bend_Energy-OPLS-2005>
2614.61840820312

> <r_mmod_Torsional_Energy-OPLS-2005>
448.495086669922

> <r_mmod_Improper_Torsional_Energy-OPLS-2005>
44.0884399414062

> <r_mmod_Van_der_Waal_Energy-OPLS-2005>
2942.08471679688

> <r_mmod_Electrostatic_Energy-OPLS-2005>
-1298.82104492188

> <r_mmod_Solvation_Energy-OPLS-2005>
-280.553253173828

> <b_mmod_Minimization_Converged-OPLS-2005>
0

> <r_mmod_RMS_Derivative-OPLS-2005>
9.39567279815674

$$$$
79
                    3D
 Structure written by MMmdl.
152160  0  0  1  0            999 V2000
  -30.7184  -14.5492   20.4614 C   0  0  0  0  0  0
  -30.4325  -12.3314   19.4465 C   0  0  0  0  0  0
  -29.5159  -12.4720   18.2139 C   0  0  0  0  0  0
  -28.0346  -12.3399   18.6197 C   0  0  0  0  0  0
  -27.6594  -13.2206   19.8465 C   0  0  2  0  0  0
  -28.7069  -13.0946   20.9782 C   0  0  0  0  0  0
  -25.2614  -13.8203   20.5664 C   0  0  0  0  0  0
  -24.1863  -13.0473   20.9168 C   0  0  0  0  0  0
  -24.6432  -11.6935   20.8695 C   0  0  0  0  0  0
  -23.9085  -10.4308   21.0396 C   0  0  0  0  0  0
  -24.3632   -9.4214   21.9180 C   0  0  0  0  0  0
  -23.6303   -8.2245   22.0757 C   0  0  0  0  0  0
  -22.4280   -8.0292   21.3544 C   0  0  0  0  0  0
  -21.9918   -9.0276   20.4646 C   0  0  0  0  0  0
  -22.7254  -10.2156   20.3047 C   0  0  0  0  0  0
  -21.6853   -6.0731   22.5282 C   0  0  0  0  0  0
  -21.4013   -6.5632   23.8214 C   0  0  0  0  0  0
  -21.3660   -5.6785   24.9176 C   0  0  0  0  0  0
  -21.6044   -4.3048   24.7229 C   0  0  0  0  0  0
  -21.8823   -3.8141   23.4346 C   0  0  0  0  0  0
  -21.9197   -4.6955   22.3400 C   0  0  0  0  0  0
  -22.7872  -13.5281   21.1795 C   0  0  0  0  0  0
  -22.1660   -4.2132   21.0979 F   0  0  0  0  0  0
  -21.5633   -3.4538   25.7743 F   0  0  0  0  0  0
  -30.0310  -13.3731   20.4055 N   0  0  0  0  0  0
  -26.3058  -12.9396   20.3240 N   0  0  0  0  0  0
  -25.9359  -11.6556   20.5661 N   0  0  0  0  0  0
  -22.0453  -12.8321   22.0345 N   0  0  0  0  0  0
  -25.4334  -15.1925   20.4076 N   0  0  0  0  0  0
  -31.9014  -14.6264   20.1321 O   0  0  0  0  0  0
  -21.6651   -6.8886   21.4243 O   0  0  0  0  0  0
  -22.3560  -14.5565   20.6592 O   0  0  0  0  0  0
  -24.6196  -31.8650   23.2027 C   0  0  0  0  0  0
  -25.9080  -32.4795   23.8368 C   0  0  1  0  0  0
  -27.2348  -27.3736   20.1126 C   0  0  0  0  0  0
  -25.5903  -33.8583   24.2288 N   0  0  0  0  0  0
  -23.4095  -30.4875   21.5447 C   0  0  2  0  0  0
  -24.8597  -28.9481   20.1102 C   0  0  0  0  0  0
  -22.7457  -29.4655   22.4949 C   0  0  0  0  0  0
  -18.0295  -28.1392   22.8515 C   0  0  0  0  0  0
  -24.1493  -36.7308   23.2640 C   0  0  0  0  0  0
  -25.9454  -30.8149   21.3637 C   0  0  0  0  0  0
  -26.0235  -29.4457   20.7087 C   0  0  0  0  0  0
  -27.2125  -28.6677   20.7022 C   0  0  0  0  0  0
  -26.0494  -26.9173   19.4900 C   0  0  0  0  0  0
  -24.8705  -27.6840   19.4980 C   0  0  0  0  0  0
  -23.6213  -29.8170   20.1617 C   0  0  0  0  0  0
  -25.4106  -36.3074   24.0330 C   0  0  1  0  0  0
  -20.5897  -28.3682   23.1300 C   0  0  2  0  0  0
  -20.6761  -26.9402   22.5417 C   0  0  0  0  0  0
  -19.5711  -26.6385   21.5232 C   0  0  0  0  0  0
  -18.1911  -26.7940   22.1657 C   0  0  0  0  0  0
  -19.1563  -28.8858   23.2913 C   0  0  0  0  0  0
  -18.9474  -30.1468   23.8907 C   0  0  0  0  0  0
  -17.6478  -30.6598   24.0590 C   0  0  0  0  0  0
  -25.9040  -34.9454   23.5096 C   0  0  0  0  0  0
  -16.5363  -29.9092   23.6356 C   0  0  0  0  0  0
  -16.7293  -28.6513   23.0375 C   0  0  0  0  0  0
  -26.4477  -31.6603   25.0732 C   0  0  0  0  0  0
  -25.3748  -31.3771   26.1497 C   0  0  0  0  0  0
  -27.0311  -30.3026   24.6158 C   0  0  0  0  0  0
  -27.6023  -32.4351   25.7516 C   0  0  0  0  0  0
  -27.5582  -37.1799   24.8461 C   0  0  0  0  0  0
  -21.4169  -29.3047   22.3707 N   0  0  0  0  0  0
  -26.4280  -37.3773   23.9430 N   0  0  0  0  0  0
  -24.6772  -31.0742   22.0935 N   0  0  0  0  0  0
  -23.4215  -28.8212   23.3017 O   0  0  0  0  0  0
  -28.3786  -26.5756   20.1705 O   0  0  0  0  0  0
  -26.5621  -34.8913   22.4677 O   0  0  0  0  0  0
  -23.5381  -32.1403   23.7395 O   0  0  0  0  0  0
  -28.9676  -19.7713   22.6060 C   0  0  0  0  0  0
  -29.4843  -20.4098   21.5072 C   0  0  0  0  0  0
  -29.8761  -18.1937   20.9438 C   0  0  0  0  0  0
  -30.4806  -17.0249   20.1836 C   0  0  0  0  0  0
  -29.2902  -22.7053   20.2701 C   0  0  0  0  0  0
  -28.2093  -25.1306   20.0208 C   0  0  0  0  0  0
  -29.3115  -24.2330   20.6844 C   0  0  1  0  0  0
  -29.9531  -19.4880   20.5486 N   0  0  0  0  0  0
  -29.5945  -21.8218   21.4098 N   0  0  0  0  0  0
  -29.9915  -15.6808   20.6074 N   0  0  0  0  0  0
  -29.1077  -24.2964   22.0939 O   0  0  0  0  0  0
  -29.0969  -18.0332   22.5133 S   0  0  0  0  0  0
  -31.4796  -12.4118   19.1482 H   0  0  0  0  0  0
  -30.3358  -11.3460   19.9015 H   0  0  0  0  0  0
  -29.7740  -11.7153   17.4719 H   0  0  0  0  0  0
  -29.6835  -13.4374   17.7355 H   0  0  0  0  0  0
  -27.8541  -11.2886   18.8467 H   0  0  0  0  0  0
  -27.3961  -12.5773   17.7679 H   0  0  0  0  0  0
  -27.6736  -14.2521   19.4957 H   0  0  0  0  0  0
  -28.6907  -12.0926   21.4056 H   0  0  0  0  0  0
  -28.4817  -13.7762   21.8001 H   0  0  0  0  0  0
  -25.2790   -9.5691   22.4729 H   0  0  0  0  0  0
  -24.0009   -7.4659   22.7502 H   0  0  0  0  0  0
  -21.0832   -8.8811   19.8975 H   0  0  0  0  0  0
  -22.3732  -10.9684   19.6129 H   0  0  0  0  0  0
  -21.1985   -7.6141   23.9698 H   0  0  0  0  0  0
  -21.1481   -6.0523   25.9076 H   0  0  0  0  0  0
  -22.0596   -2.7603   23.2851 H   0  0  0  0  0  0
  -22.4052  -12.0068   22.4894 H   0  0  0  0  0  0
  -21.1036  -13.1361   22.2394 H   0  0  0  0  0  0
  -24.6737  -15.8532   20.5245 H   0  0  0  0  0  0
  -26.2819  -15.6231   20.0647 H   0  0  0  0  0  0
  -26.7172  -32.5492   23.1160 H   0  0  0  0  0  0
  -25.0012  -33.9726   25.0390 H   0  0  0  0  0  0
  -22.6963  -31.3032   21.4014 H   0  0  0  0  0  0
  -23.3717  -35.9679   23.3288 H   0  0  0  0  0  0
  -24.3590  -36.8927   22.2055 H   0  0  0  0  0  0
  -23.7265  -37.6511   23.6673 H   0  0  0  0  0  0
  -26.0721  -31.5789   20.5944 H   0  0  0  0  0  0
  -26.8258  -30.8617   21.9921 H   0  0  0  0  0  0
  -28.1054  -29.0449   21.1797 H   0  0  0  0  0  0
  -26.0106  -25.9547   19.0006 H   0  0  0  0  0  0
  -23.9779  -27.2892   19.0347 H   0  0  0  0  0  0
  -23.7239  -30.5875   19.3972 H   0  0  0  0  0  0
  -22.7436  -29.2347   19.8744 H   0  0  0  0  0  0
  -25.1273  -36.1912   25.0816 H   0  0  0  0  0  0
  -21.0041  -28.3258   24.1399 H   0  0  0  0  0  0
  -20.5658  -26.2290   23.3617 H   0  0  0  0  0  0
  -21.6626  -26.7402   22.1214 H   0  0  0  0  0  0
  -19.6836  -25.6295   21.1252 H   0  0  0  0  0  0
  -19.6649  -27.3197   20.6769 H   0  0  0  0  0  0
  -17.4179  -26.6748   21.4058 H   0  0  0  0  0  0
  -18.0283  -26.0067   22.9037 H   0  0  0  0  0  0
  -19.7954  -30.7317   24.2239 H   0  0  0  0  0  0
  -17.5026  -31.6272   24.5194 H   0  0  0  0  0  0
  -15.5365  -30.3005   23.7646 H   0  0  0  0  0  0
  -15.8696  -28.0839   22.7068 H   0  0  0  0  0  0
  -24.5842  -30.7194   25.7880 H   0  0  0  0  0  0
  -24.9050  -32.2965   26.5004 H   0  0  0  0  0  0
  -25.8102  -30.8903   27.0231 H   0  0  0  0  0  0
  -26.2886  -29.6782   24.1177 H   0  0  0  0  0  0
  -27.3994  -29.7271   25.4658 H   0  0  0  0  0  0
  -27.8760  -30.4291   23.9383 H   0  0  0  0  0  0
  -27.2585  -33.3593   26.2179 H   0  0  0  0  0  0
  -28.3816  -32.7016   25.0370 H   0  0  0  0  0  0
  -28.0732  -31.8447   26.5376 H   0  0  0  0  0  0
  -28.2574  -38.0124   24.7520 H   0  0  0  0  0  0
  -28.1096  -36.2638   24.6253 H   0  0  0  0  0  0
  -27.2329  -37.1432   25.8876 H   0  0  0  0  0  0
  -20.9300  -29.8847   21.7008 H   0  0  0  0  0  0
  -26.0133  -38.2836   24.1438 H   0  0  0  0  0  0
  -28.5305  -20.2101   23.4938 H   0  0  0  0  0  0
  -31.5638  -17.0963   20.3001 H   0  0  0  0  0  0
  -30.2834  -17.1597   19.1175 H   0  0  0  0  0  0
  -30.0111  -22.5274   19.4687 H   0  0  0  0  0  0
  -28.3111  -22.4373   19.8718 H   0  0  0  0  0  0
  -27.2534  -24.8032   20.4345 H   0  0  0  0  0  0
  -28.1721  -24.9100   18.9524 H   0  0  0  0  0  0
  -30.2970  -24.6481   20.4586 H   0  0  0  0  0  0
  -29.3700  -22.3433   22.2584 H   0  0  0  0  0  0
  -29.0076  -15.5852   20.7946 H   0  0  0  0  0  0
  -29.2403  -25.2051   22.3492 H   0  0  0  0  0  0
  1 25  1  0  0  0
  1 30  2  0  0  0
  1 80  1  0  0  0
  2  3  1  0  0  0
  2 25  1  0  0  0
  2 83  1  0  0  0
  2 84  1  0  0  0
  3  4  1  0  0  0
  3 85  1  0  0  0
  3 86  1  0  0  0
  4  5  1  0  0  0
  4 87  1  0  0  0
  4 88  1  0  0  0
  5  6  1  0  0  0
  5 26  1  0  0  0
  5 89  1  0  0  0
  6 25  1  0  0  0
  6 90  1  0  0  0
  6 91  1  0  0  0
  7  8  2  0  0  0
  7 26  1  0  0  0
  7 29  1  0  0  0
  8  9  1  0  0  0
  8 22  1  0  0  0
  9 10  1  0  0  0
  9 27  2  0  0  0
 10 11  2  0  0  0
 10 15  1  0  0  0
 11 12  1  0  0  0
 11 92  1  0  0  0
 12 13  2  0  0  0
 12 93  1  0  0  0
 13 14  1  0  0  0
 13 31  1  0  0  0
 14 15  2  0  0  0
 14 94  1  0  0  0
 15 95  1  0  0  0
 16 17  2  0  0  0
 16 21  1  0  0  0
 16 31  1  0  0  0
 17 18  1  0  0  0
 17 96  1  0  0  0
 18 19  2  0  0  0
 18 97  1  0  0  0
 19 20  1  0  0  0
 19 24  1  0  0  0
 20 21  2  0  0  0
 20 98  1  0  0  0
 21 23  1  0  0  0
 22 28  1  0  0  0
 22 32  2  0  0  0
 26 27  1  0  0  0
 28 99  1  0  0  0
 28100  1  0  0  0
 29101  1  0  0  0
 29102  1  0  0  0
 33 34  1  0  0  0
 33 66  1  0  0  0
 33 70  2  0  0  0
 34 36  1  0  0  0
 34 59  1  0  0  0
 34103  1  0  0  0
 35 44  2  0  0  0
 35 45  1  0  0  0
 35 68  1  0  0  0
 36 56  1  0  0  0
 36104  1  0  0  0
 37 39  1  0  0  0
 37 47  1  0  0  0
 37 66  1  0  0  0
 37105  1  0  0  0
 38 43  2  0  0  0
 38 46  1  0  0  0
 38 47  1  0  0  0
 39 64  1  0  0  0
 39 67  2  0  0  0
 40 52  1  0  0  0
 40 53  2  0  0  0
 40 58  1  0  0  0
 41106  1  0  0  0
 41107  1  0  0  0
 41108  1  0  0  0
 41 48  1  0  0  0
 42 43  1  0  0  0
 42 66  1  0  0  0
 42109  1  0  0  0
 42110  1  0  0  0
 43 44  1  0  0  0
 44111  1  0  0  0
 45 46  2  0  0  0
 45112  1  0  0  0
 46113  1  0  0  0
 47114  1  0  0  0
 47115  1  0  0  0
 48 56  1  0  0  0
 48 65  1  0  0  0
 48116  1  0  0  0
 49 50  1  0  0  0
 49 53  1  0  0  0
 49 64  1  0  0  0
 49117  1  0  0  0
 50 51  1  0  0  0
 50118  1  0  0  0
 50119  1  0  0  0
 51 52  1  0  0  0
 51120  1  0  0  0
 51121  1  0  0  0
 52122  1  0  0  0
 52123  1  0  0  0
 53 54  1  0  0  0
 54 55  2  0  0  0
 54124  1  0  0  0
 55 57  1  0  0  0
 55125  1  0  0  0
 56 69  2  0  0  0
 57 58  2  0  0  0
 57126  1  0  0  0
 58127  1  0  0  0
 59 60  1  0  0  0
 59 61  1  0  0  0
 59 62  1  0  0  0
 60128  1  0  0  0
 60129  1  0  0  0
 60130  1  0  0  0
 61131  1  0  0  0
 61132  1  0  0  0
 61133  1  0  0  0
 62134  1  0  0  0
 62135  1  0  0  0
 62136  1  0  0  0
 63 65  1  0  0  0
 63137  1  0  0  0
 63138  1  0  0  0
 63139  1  0  0  0
 64140  1  0  0  0
 65141  1  0  0  0
 68 76  1  0  0  0
 71 72  2  0  0  0
 71 82  1  0  0  0
 71142  1  0  0  0
 72 78  1  0  0  0
 72 79  1  0  0  0
 73 74  1  0  0  0
 73 78  2  0  0  0
 73 82  1  0  0  0
 74 80  1  0  0  0
 74143  1  0  0  0
 74144  1  0  0  0
 75 77  1  0  0  0
 75 79  1  0  0  0
 75145  1  0  0  0
 75146  1  0  0  0
 76 77  1  0  0  0
 76147  1  0  0  0
 76148  1  0  0  0
 77 81  1  0  0  0
 77149  1  0  0  0
 79150  1  0  0  0
 80151  1  0  0  0
 81152  1  0  0  0
M  ISO  4   1 100  68 101  76 101  80 100
M  END
> <chiral flag>
0

> <version>
0

> <s_m_source_file>
/data/baiqing/PycharmProjects/Reinvent-master-3.2/result/LINK_invent/BTK/process_docking_weight1_custom_product_contain_oxygen_bond_distance_aromatic_linkinvent_7_9_3/rearranged_h_0194.sdf

> <i_m_source_file_index>
80

> <r_mmod_Potential_Energy-OPLS-2005>
-225.624710083008

> <r_mmod_Stretch_Energy-OPLS-2005>
50.8224296569824

> <r_mmod_Bend_Energy-OPLS-2005>
118.093208312988

> <r_mmod_Torsional_Energy-OPLS-2005>
253.173736572266

> <r_mmod_Improper_Torsional_Energy-OPLS-2005>
10.6936435699463

> <r_mmod_Van_der_Waal_Energy-OPLS-2005>
136.943908691406

> <r_mmod_Electrostatic_Energy-OPLS-2005>
-583.819519042969

> <r_mmod_Solvation_Energy-OPLS-2005>
-244.399124145508

> <b_mmod_Minimization_Converged-OPLS-2005>
0

> <r_mmod_RMS_Derivative-OPLS-2005>
4.13392353057861

$$$$
80
                    3D
 Structure written by MMmdl.
159167  0  0  1  0            999 V2000
  -30.6261  -14.5866   20.5707 C   0  0  0  0  0  0
  -30.4511  -12.3788   19.4301 C   0  0  0  0  0  0
  -29.5080  -12.5213   18.2137 C   0  0  0  0  0  0
  -28.0298  -12.3624   18.6265 C   0  0  0  0  0  0
  -27.6654  -13.2068   19.8755 C   0  0  2  0  0  0
  -28.7091  -12.9909   20.9943 C   0  0  0  0  0  0
  -25.2614  -13.8142   20.5674 C   0  0  0  0  0  0
  -24.1860  -13.0430   20.9169 C   0  0  0  0  0  0
  -24.6408  -11.6892   20.8726 C   0  0  0  0  0  0
  -23.9062  -10.4283   21.0401 C   0  0  0  0  0  0
  -24.3612   -9.4205   21.9182 C   0  0  0  0  0  0
  -23.6287   -8.2242   22.0755 C   0  0  0  0  0  0
  -22.4270   -8.0279   21.3542 C   0  0  0  0  0  0
  -21.9904   -9.0255   20.4650 C   0  0  0  0  0  0
  -22.7234  -10.2132   20.3057 C   0  0  0  0  0  0
  -21.6854   -6.0738   22.5277 C   0  0  0  0  0  0
  -21.4014   -6.5639   23.8212 C   0  0  0  0  0  0
  -21.3657   -5.6789   24.9170 C   0  0  0  0  0  0
  -21.6042   -4.3051   24.7218 C   0  0  0  0  0  0
  -21.8820   -3.8147   23.4339 C   0  0  0  0  0  0
  -21.9195   -4.6966   22.3397 C   0  0  0  0  0  0
  -22.7884  -13.5247   21.1828 C   0  0  0  0  0  0
  -22.1666   -4.2157   21.0974 F   0  0  0  0  0  0
  -21.5628   -3.4528   25.7727 F   0  0  0  0  0  0
  -30.0348  -13.3556   20.4547 N   0  0  0  0  0  0
  -26.3052  -12.9313   20.3354 N   0  0  0  0  0  0
  -25.9339  -11.6476   20.5752 N   0  0  0  0  0  0
  -22.0509  -12.8256   22.0384 N   0  0  0  0  0  0
  -25.4335  -15.1853   20.4088 N   0  0  0  0  0  0
  -31.7215  -14.8365   20.0522 O   0  0  0  0  0  0
  -21.6633   -6.8880   21.4239 O   0  0  0  0  0  0
  -22.3574  -14.5554   20.6673 O   0  0  0  0  0  0
  -24.6217  -31.8626   23.2042 C   0  0  0  0  0  0
  -25.9074  -32.4799   23.8365 C   0  0  1  0  0  0
  -27.2342  -27.3636   20.1094 C   0  0  0  0  0  0
  -25.5902  -33.8596   24.2295 N   0  0  0  0  0  0
  -23.4138  -30.4855   21.5463 C   0  0  2  0  0  0
  -24.8615  -28.9431   20.1143 C   0  0  0  0  0  0
  -22.7447  -29.4636   22.4953 C   0  0  0  0  0  0
  -18.0282  -28.1389   22.8496 C   0  0  0  0  0  0
  -24.1482  -36.7300   23.2639 C   0  0  0  0  0  0
  -25.9501  -30.8087   21.3661 C   0  0  0  0  0  0
  -26.0276  -29.4379   20.7110 C   0  0  0  0  0  0
  -27.2181  -28.6604   20.6963 C   0  0  0  0  0  0
  -26.0435  -26.9034   19.5014 C   0  0  0  0  0  0
  -24.8685  -27.6797   19.5022 C   0  0  0  0  0  0
  -23.6264  -29.8176   20.1625 C   0  0  0  0  0  0
  -25.4105  -36.3096   24.0338 C   0  0  1  0  0  0
  -20.5876  -28.3683   23.1302 C   0  0  2  0  0  0
  -20.6768  -26.9411   22.5418 C   0  0  0  0  0  0
  -19.5743  -26.6394   21.5216 C   0  0  0  0  0  0
  -18.1924  -26.7935   22.1633 C   0  0  0  0  0  0
  -19.1532  -28.8852   23.2897 C   0  0  0  0  0  0
  -18.9460  -30.1459   23.8910 C   0  0  0  0  0  0
  -17.6461  -30.6594   24.0574 C   0  0  0  0  0  0
  -25.9044  -34.9464   23.5120 C   0  0  0  0  0  0
  -16.5350  -29.9099   23.6334 C   0  0  0  0  0  0
  -16.7272  -28.6513   23.0360 C   0  0  0  0  0  0
  -26.4477  -31.6598   25.0718 C   0  0  0  0  0  0
  -25.3722  -31.3728   26.1455 C   0  0  0  0  0  0
  -27.0309  -30.3030   24.6131 C   0  0  0  0  0  0
  -27.6049  -32.4321   25.7482 C   0  0  0  0  0  0
  -27.5581  -37.1803   24.8466 C   0  0  0  0  0  0
  -21.4164  -29.3041   22.3697 N   0  0  0  0  0  0
  -26.4285  -37.3787   23.9417 N   0  0  0  0  0  0
  -24.6807  -31.0674   22.0969 N   0  0  0  0  0  0
  -23.4184  -28.8172   23.3016 O   0  0  0  0  0  0
  -28.3806  -26.5682   20.1320 O   0  0  0  0  0  0
  -26.5615  -34.8924   22.4689 O   0  0  0  0  0  0
  -23.5387  -32.1406   23.7394 O   0  0  0  0  0  0
  -28.2290  -19.3606   21.0343 C   0  0  0  0  0  0
  -28.1873  -17.0354   21.6880 C   0  0  0  0  0  0
  -27.5700  -18.2923   21.6460 C   0  0  0  0  0  0
  -29.5022  -19.1493   20.4850 C   0  0  0  0  0  0
  -29.4621  -16.8376   21.1204 C   0  0  0  0  0  0
  -30.7369  -19.9128   18.4228 C   0  0  0  0  0  0
  -29.5090  -21.7477   19.6607 C   0  0  0  0  0  0
  -29.4181  -22.7446   20.8706 C   0  0  0  0  0  0
  -28.2026  -25.1140   20.2307 C   0  0  0  0  0  0
  -30.2596  -20.3433   19.8243 C   0  0  1  0  0  0
  -29.5050  -24.3128   20.6103 C   0  0  1  0  0  0
  -30.1090  -17.9060   20.5417 N   0  0  0  0  0  0
  -29.9175  -15.4756   21.3150 N   0  0  0  0  0  0
  -29.9229  -24.8551   21.8537 O   0  0  0  0  0  0
  -26.3467  -18.4721   22.1992 F   0  0  0  0  0  0
  -31.4880  -12.5253   19.1222 H   0  0  0  0  0  0
  -30.4034  -11.3676   19.8367 H   0  0  0  0  0  0
  -29.7633  -11.7811   17.4536 H   0  0  0  0  0  0
  -29.6536  -13.4977   17.7483 H   0  0  0  0  0  0
  -27.8561  -11.3059   18.8347 H   0  0  0  0  0  0
  -27.3755  -12.6183   17.7927 H   0  0  0  0  0  0
  -27.7050  -14.2541   19.5741 H   0  0  0  0  0  0
  -28.7151  -11.9451   21.3060 H   0  0  0  0  0  0
  -28.4383  -13.5476   21.8919 H   0  0  0  0  0  0
  -25.2761   -9.5684   22.4748 H   0  0  0  0  0  0
  -23.9999   -7.4640   22.7476 H   0  0  0  0  0  0
  -21.0836   -8.8778   19.8959 H   0  0  0  0  0  0
  -22.3699  -10.9670   19.6161 H   0  0  0  0  0  0
  -21.2003   -7.6146   23.9718 H   0  0  0  0  0  0
  -21.1479   -6.0513   25.9075 H   0  0  0  0  0  0
  -22.0603   -2.7611   23.2828 H   0  0  0  0  0  0
  -22.4111  -11.9923   22.4792 H   0  0  0  0  0  0
  -21.1131  -13.1312   22.2570 H   0  0  0  0  0  0
  -24.6682  -15.8394   20.5280 H   0  0  0  0  0  0
  -26.2843  -15.6253   20.0835 H   0  0  0  0  0  0
  -26.7145  -32.5488   23.1123 H   0  0  0  0  0  0
  -25.0039  -33.9744   25.0433 H   0  0  0  0  0  0
  -22.7067  -31.3052   21.4029 H   0  0  0  0  0  0
  -23.3746  -35.9631   23.3304 H   0  0  0  0  0  0
  -24.3578  -36.8914   22.2055 H   0  0  0  0  0  0
  -23.7225  -37.6502   23.6653 H   0  0  0  0  0  0
  -26.0712  -31.5721   20.5965 H   0  0  0  0  0  0
  -26.8349  -30.8627   21.9888 H   0  0  0  0  0  0
  -28.1168  -29.0392   21.1634 H   0  0  0  0  0  0
  -26.0038  -25.9379   19.0195 H   0  0  0  0  0  0
  -23.9726  -27.2960   19.0337 H   0  0  0  0  0  0
  -23.7401  -30.5914   19.4023 H   0  0  0  0  0  0
  -22.7488  -29.2412   19.8636 H   0  0  0  0  0  0
  -25.1280  -36.1960   25.0829 H   0  0  0  0  0  0
  -20.9982  -28.3253   24.1417 H   0  0  0  0  0  0
  -20.5672  -26.2284   23.3609 H   0  0  0  0  0  0
  -21.6636  -26.7446   22.1209 H   0  0  0  0  0  0
  -19.6897  -25.6308   21.1244 H   0  0  0  0  0  0
  -19.6683  -27.3207   20.6747 H   0  0  0  0  0  0
  -17.4193  -26.6693   21.4035 H   0  0  0  0  0  0
  -18.0326  -26.0075   22.9028 H   0  0  0  0  0  0
  -19.7933  -30.7279   24.2275 H   0  0  0  0  0  0
  -17.5017  -31.6274   24.5180 H   0  0  0  0  0  0
  -15.5354  -30.3013   23.7642 H   0  0  0  0  0  0
  -15.8670  -28.0841   22.7069 H   0  0  0  0  0  0
  -24.5890  -30.7081   25.7791 H   0  0  0  0  0  0
  -24.8918  -32.2890   26.4894 H   0  0  0  0  0  0
  -25.8059  -30.8900   27.0221 H   0  0  0  0  0  0
  -26.2864  -29.6793   24.1166 H   0  0  0  0  0  0
  -27.4040  -29.7269   25.4610 H   0  0  0  0  0  0
  -27.8717  -30.4333   23.9313 H   0  0  0  0  0  0
  -27.2674  -33.3619   26.2070 H   0  0  0  0  0  0
  -28.3852  -32.6886   25.0305 H   0  0  0  0  0  0
  -28.0723  -31.8435   26.5388 H   0  0  0  0  0  0
  -28.2600  -38.0102   24.7530 H   0  0  0  0  0  0
  -28.1078  -36.2638   24.6268 H   0  0  0  0  0  0
  -27.2308  -37.1425   25.8871 H   0  0  0  0  0  0
  -20.9328  -29.8764   21.6919 H   0  0  0  0  0  0
  -26.0175  -38.2862   24.1430 H   0  0  0  0  0  0
  -27.7493  -20.3267   21.0092 H   0  0  0  0  0  0
  -27.6547  -16.2293   22.1718 H   0  0  0  0  0  0
  -31.3668  -19.0246   18.4690 H   0  0  0  0  0  0
  -31.3287  -20.6908   17.9403 H   0  0  0  0  0  0
  -29.8915  -19.6856   17.7722 H   0  0  0  0  0  0
  -30.0580  -22.3025   18.9002 H   0  0  0  0  0  0
  -28.5231  -21.6029   19.2187 H   0  0  0  0  0  0
  -30.2533  -22.4760   21.5190 H   0  0  0  0  0  0
  -28.5290  -22.5230   21.4616 H   0  0  0  0  0  0
  -27.4225  -24.8968   20.9630 H   0  0  0  0  0  0
  -27.8460  -24.7368   19.2712 H   0  0  0  0  0  0
  -31.1522  -20.5130   20.4283 H   0  0  0  0  0  0
  -30.2822  -24.5208   19.8735 H   0  0  0  0  0  0
  -29.2592  -14.9578   21.8726 H   0  0  0  0  0  0
  -30.8222  -24.5802   22.0054 H   0  0  0  0  0  0
  1 25  1  0  0  0
  1 30  2  0  0  0
  1 83  1  0  0  0
  2  3  1  0  0  0
  2 25  1  0  0  0
  2 86  1  0  0  0
  2 87  1  0  0  0
  3  4  1  0  0  0
  3 88  1  0  0  0
  3 89  1  0  0  0
  4  5  1  0  0  0
  4 90  1  0  0  0
  4 91  1  0  0  0
  5  6  1  0  0  0
  5 26  1  0  0  0
  5 92  1  0  0  0
  6 25  1  0  0  0
  6 93  1  0  0  0
  6 94  1  0  0  0
  7  8  2  0  0  0
  7 26  1  0  0  0
  7 29  1  0  0  0
  8  9  1  0  0  0
  8 22  1  0  0  0
  9 10  1  0  0  0
  9 27  2  0  0  0
 10 11  2  0  0  0
 10 15  1  0  0  0
 11 12  1  0  0  0
 11 95  1  0  0  0
 12 13  2  0  0  0
 12 96  1  0  0  0
 13 14  1  0  0  0
 13 31  1  0  0  0
 14 15  2  0  0  0
 14 97  1  0  0  0
 15 98  1  0  0  0
 16 17  2  0  0  0
 16 21  1  0  0  0
 16 31  1  0  0  0
 17 18  1  0  0  0
 17 99  1  0  0  0
 18 19  2  0  0  0
 18100  1  0  0  0
 19 20  1  0  0  0
 19 24  1  0  0  0
 20 21  2  0  0  0
 20101  1  0  0  0
 21 23  1  0  0  0
 22 28  1  0  0  0
 22 32  2  0  0  0
 26 27  1  0  0  0
 28102  1  0  0  0
 28103  1  0  0  0
 29104  1  0  0  0
 29105  1  0  0  0
 33 34  1  0  0  0
 33 66  1  0  0  0
 33 70  2  0  0  0
 34 36  1  0  0  0
 34 59  1  0  0  0
 34106  1  0  0  0
 35 44  2  0  0  0
 35 45  1  0  0  0
 35 68  1  0  0  0
 36 56  1  0  0  0
 36107  1  0  0  0
 37 39  1  0  0  0
 37 47  1  0  0  0
 37 66  1  0  0  0
 37108  1  0  0  0
 38 43  2  0  0  0
 38 46  1  0  0  0
 38 47  1  0  0  0
 39 64  1  0  0  0
 39 67  2  0  0  0
 40 52  1  0  0  0
 40 53  2  0  0  0
 40 58  1  0  0  0
 41109  1  0  0  0
 41110  1  0  0  0
 41111  1  0  0  0
 41 48  1  0  0  0
 42 43  1  0  0  0
 42 66  1  0  0  0
 42112  1  0  0  0
 42113  1  0  0  0
 43 44  1  0  0  0
 44114  1  0  0  0
 45 46  2  0  0  0
 45115  1  0  0  0
 46116  1  0  0  0
 47117  1  0  0  0
 47118  1  0  0  0
 48 56  1  0  0  0
 48 65  1  0  0  0
 48119  1  0  0  0
 49 50  1  0  0  0
 49 53  1  0  0  0
 49 64  1  0  0  0
 49120  1  0  0  0
 50 51  1  0  0  0
 50121  1  0  0  0
 50122  1  0  0  0
 51 52  1  0  0  0
 51123  1  0  0  0
 51124  1  0  0  0
 52125  1  0  0  0
 52126  1  0  0  0
 53 54  1  0  0  0
 54 55  2  0  0  0
 54127  1  0  0  0
 55 57  1  0  0  0
 55128  1  0  0  0
 56 69  2  0  0  0
 57 58  2  0  0  0
 57129  1  0  0  0
 58130  1  0  0  0
 59 60  1  0  0  0
 59 61  1  0  0  0
 59 62  1  0  0  0
 60131  1  0  0  0
 60132  1  0  0  0
 60133  1  0  0  0
 61134  1  0  0  0
 61135  1  0  0  0
 61136  1  0  0  0
 62137  1  0  0  0
 62138  1  0  0  0
 62139  1  0  0  0
 63 65  1  0  0  0
 63140  1  0  0  0
 63141  1  0  0  0
 63142  1  0  0  0
 64143  1  0  0  0
 65144  1  0  0  0
 68 79  1  0  0  0
 71 73  2  0  0  0
 71 74  1  0  0  0
 71145  1  0  0  0
 72 73  1  0  0  0
 72 75  2  0  0  0
 72146  1  0  0  0
 73 85  1  0  0  0
 74 80  1  0  0  0
 74 82  2  0  0  0
 75 82  1  0  0  0
 75 83  1  0  0  0
 76147  1  0  0  0
 76148  1  0  0  0
 76149  1  0  0  0
 76 80  1  0  0  0
 77 78  1  0  0  0
 77 80  1  0  0  0
 77150  1  0  0  0
 77151  1  0  0  0
 78 81  1  0  0  0
 78152  1  0  0  0
 78153  1  0  0  0
 79 81  1  0  0  0
 79154  1  0  0  0
 79155  1  0  0  0
 80156  1  0  0  0
 81 84  1  0  0  0
 81157  1  0  0  0
 83158  1  0  0  0
 84159  1  0  0  0
M  ISO  4   1 100  68 101  79 101  83 100
M  END
> <chiral flag>
0

> <version>
0

> <s_m_source_file>
/data/baiqing/PycharmProjects/Reinvent-master-3.2/result/LINK_invent/BTK/process_docking_weight1_custom_product_contain_oxygen_bond_distance_aromatic_linkinvent_7_9_3/rearranged_h_0194.sdf

> <i_m_source_file_index>
81

> <r_mmod_Potential_Energy-OPLS-2005>
-146.795654296875

> <r_mmod_Stretch_Energy-OPLS-2005>
69.7262878417969

> <r_mmod_Bend_Energy-OPLS-2005>
153.021118164062

> <r_mmod_Torsional_Energy-OPLS-2005>
239.786529541016

> <r_mmod_Improper_Torsional_Energy-OPLS-2005>
4.67088508605957

> <r_mmod_Van_der_Waal_Energy-OPLS-2005>
144.679260253906

> <r_mmod_Electrostatic_Energy-OPLS-2005>
-545.230163574219

> <r_mmod_Solvation_Energy-OPLS-2005>
-244.675384521484

> <b_mmod_Minimization_Converged-OPLS-2005>
0

> <r_mmod_RMS_Derivative-OPLS-2005>
1.16256058216095

$$$$
81
                    3D
 Structure written by MMmdl.
154162  0  0  1  0            999 V2000
  -30.6748  -14.6875   20.4578 C   0  0  0  0  0  0
  -30.4209  -12.4120   19.4832 C   0  0  0  0  0  0
  -29.5140  -12.4811   18.2392 C   0  0  0  0  0  0
  -28.0396  -12.3177   18.6488 C   0  0  0  0  0  0
  -27.6430  -13.2294   19.8427 C   0  0  2  0  0  0
  -28.6844  -13.1835   20.9835 C   0  0  0  0  0  0
  -25.2548  -13.8200   20.5680 C   0  0  0  0  0  0
  -24.1828  -13.0453   20.9211 C   0  0  0  0  0  0
  -24.6397  -11.6930   20.8745 C   0  0  0  0  0  0
  -23.9063  -10.4309   21.0374 C   0  0  0  0  0  0
  -24.3616   -9.4221   21.9169 C   0  0  0  0  0  0
  -23.6293   -8.2259   22.0735 C   0  0  0  0  0  0
  -22.4288   -8.0275   21.3533 C   0  0  0  0  0  0
  -21.9909   -9.0240   20.4640 C   0  0  0  0  0  0
  -22.7225  -10.2125   20.3035 C   0  0  0  0  0  0
  -21.6862   -6.0729   22.5268 C   0  0  0  0  0  0
  -21.4033   -6.5625   23.8208 C   0  0  0  0  0  0
  -21.3688   -5.6780   24.9168 C   0  0  0  0  0  0
  -21.6056   -4.3047   24.7221 C   0  0  0  0  0  0
  -21.8815   -3.8140   23.4337 C   0  0  0  0  0  0
  -21.9201   -4.6957   22.3398 C   0  0  0  0  0  0
  -22.7857  -13.5237   21.1870 C   0  0  0  0  0  0
  -22.1665   -4.2142   21.0978 F   0  0  0  0  0  0
  -21.5638   -3.4531   25.7743 F   0  0  0  0  0  0
  -29.9937  -13.4949   20.3995 N   0  0  0  0  0  0
  -26.2946  -12.9408   20.3218 N   0  0  0  0  0  0
  -25.9322  -11.6550   20.5716 N   0  0  0  0  0  0
  -22.0492  -12.8237   22.0424 N   0  0  0  0  0  0
  -25.4223  -15.1918   20.4060 N   0  0  0  0  0  0
  -31.8637  -14.7347   20.1368 O   0  0  0  0  0  0
  -21.6659   -6.8861   21.4229 O   0  0  0  0  0  0
  -22.3537  -14.5530   20.6681 O   0  0  0  0  0  0
  -24.6267  -31.8598   23.1986 C   0  0  0  0  0  0
  -25.9081  -32.4797   23.8353 C   0  0  1  0  0  0
  -27.2285  -27.2908   20.1185 C   0  0  0  0  0  0
  -25.5845  -33.8595   24.2258 N   0  0  0  0  0  0
  -23.4235  -30.4798   21.5427 C   0  0  2  0  0  0
  -24.8732  -28.9219   20.1217 C   0  0  0  0  0  0
  -22.7477  -29.4626   22.4928 C   0  0  0  0  0  0
  -18.0290  -28.1392   22.8482 C   0  0  0  0  0  0
  -24.1475  -36.7332   23.2651 C   0  0  0  0  0  0
  -25.9696  -30.7764   21.3785 C   0  0  0  0  0  0
  -26.0432  -29.3978   20.7294 C   0  0  0  0  0  0
  -27.2274  -28.5937   20.7151 C   0  0  0  0  0  0
  -26.0433  -26.8855   19.4763 C   0  0  0  0  0  0
  -24.8756  -27.6703   19.4854 C   0  0  0  0  0  0
  -23.6410  -29.8048   20.1625 C   0  0  0  0  0  0
  -25.4101  -36.3117   24.0328 C   0  0  1  0  0  0
  -20.5896  -28.3692   23.1273 C   0  0  2  0  0  0
  -20.6748  -26.9405   22.5422 C   0  0  0  0  0  0
  -19.5723  -26.6378   21.5220 C   0  0  0  0  0  0
  -18.1910  -26.7936   22.1634 C   0  0  0  0  0  0
  -19.1542  -28.8851   23.2882 C   0  0  0  0  0  0
  -18.9481  -30.1454   23.8899 C   0  0  0  0  0  0
  -17.6473  -30.6581   24.0574 C   0  0  0  0  0  0
  -25.9038  -34.9477   23.5120 C   0  0  0  0  0  0
  -16.5360  -29.9089   23.6323 C   0  0  0  0  0  0
  -16.7276  -28.6506   23.0345 C   0  0  0  0  0  0
  -26.4414  -31.6647   25.0767 C   0  0  0  0  0  0
  -25.3610  -31.3885   26.1498 C   0  0  0  0  0  0
  -27.0234  -30.3035   24.6311 C   0  0  0  0  0  0
  -27.5975  -32.4382   25.7520 C   0  0  0  0  0  0
  -27.5586  -37.1818   24.8437 C   0  0  0  0  0  0
  -21.4194  -29.3041   22.3667 N   0  0  0  0  0  0
  -26.4281  -37.3811   23.9400 N   0  0  0  0  0  0
  -24.6925  -31.0567   22.0963 N   0  0  0  0  0  0
  -23.4207  -28.8156   23.3009 O   0  0  0  0  0  0
  -28.3554  -26.4531   20.0365 O   0  0  0  0  0  0
  -26.5661  -34.8929   22.4720 O   0  0  0  0  0  0
  -23.5404  -32.1401   23.7264 O   0  0  0  0  0  0
  -28.6157  -18.9116   19.9250 C   0  0  0  0  0  0
  -29.8307  -18.5914   20.5016 C   0  0  0  0  0  0
  -29.2106  -21.1125   20.4338 C   0  0  0  0  0  0
  -26.9025  -23.2390   19.7880 C   0  0  0  0  0  0
  -29.7878  -25.2644   21.4635 C   0  0  0  0  0  0
  -30.6238  -17.2414   20.6227 C   0  0  0  0  0  0
  -28.3550  -23.7062   19.9689 C   0  0  1  0  0  0
  -28.4313  -25.1395   20.7474 C   0  0  2  0  0  0
  -28.2979  -20.3000   19.8783 N   0  0  0  0  0  0
  -29.1404  -22.5472   20.5418 N   0  0  0  0  0  0
  -29.9847  -15.8648   20.6718 N   0  0  0  0  0  0
  -30.5726  -20.1242   21.0477 S   0  0  0  0  0  0
  -31.4674  -12.5009   19.1874 H   0  0  0  0  0  0
  -30.3287  -11.4392   19.9712 H   0  0  0  0  0  0
  -29.7939  -11.6999   17.5299 H   0  0  0  0  0  0
  -29.6621  -13.4335   17.7275 H   0  0  0  0  0  0
  -27.8963  -11.2704   18.9206 H   0  0  0  0  0  0
  -27.3877  -12.4993   17.7933 H   0  0  0  0  0  0
  -27.6352  -14.2463   19.4509 H   0  0  0  0  0  0
  -28.7030  -12.2043   21.4616 H   0  0  0  0  0  0
  -28.4258  -13.9054   21.7589 H   0  0  0  0  0  0
  -25.2762   -9.5742   22.4750 H   0  0  0  0  0  0
  -24.0029   -7.4670   22.7449 H   0  0  0  0  0  0
  -21.0851   -8.8729   19.8946 H   0  0  0  0  0  0
  -22.3648  -10.9650   19.6157 H   0  0  0  0  0  0
  -21.2006   -7.6138   23.9709 H   0  0  0  0  0  0
  -21.1534   -6.0516   25.9079 H   0  0  0  0  0  0
  -22.0567   -2.7597   23.2842 H   0  0  0  0  0  0
  -22.4090  -11.9932   22.4885 H   0  0  0  0  0  0
  -21.1070  -13.1236   22.2537 H   0  0  0  0  0  0
  -24.6542  -15.8436   20.5214 H   0  0  0  0  0  0
  -26.2623  -15.6296   20.0516 H   0  0  0  0  0  0
  -26.7163  -32.5457   23.1124 H   0  0  0  0  0  0
  -24.9800  -33.9736   25.0259 H   0  0  0  0  0  0
  -22.7199  -31.3009   21.3906 H   0  0  0  0  0  0
  -23.3725  -35.9681   23.3311 H   0  0  0  0  0  0
  -24.3555  -36.8977   22.2069 H   0  0  0  0  0  0
  -23.7230  -37.6519   23.6690 H   0  0  0  0  0  0
  -26.1102  -31.5345   20.6078 H   0  0  0  0  0  0
  -26.8475  -30.8280   22.0122 H   0  0  0  0  0  0
  -28.1337  -28.9636   21.1725 H   0  0  0  0  0  0
  -26.0229  -25.9657   18.9196 H   0  0  0  0  0  0
  -23.9884  -27.3108   18.9835 H   0  0  0  0  0  0
  -23.7573  -30.5733   19.3973 H   0  0  0  0  0  0
  -22.7613  -29.2291   19.8636 H   0  0  0  0  0  0
  -25.1295  -36.1982   25.0821 H   0  0  0  0  0  0
  -21.0021  -28.3263   24.1380 H   0  0  0  0  0  0
  -20.5607  -26.2309   23.3635 H   0  0  0  0  0  0
  -21.6621  -26.7367   22.1255 H   0  0  0  0  0  0
  -19.6867  -25.6288   21.1240 H   0  0  0  0  0  0
  -19.6669  -27.3185   20.6752 H   0  0  0  0  0  0
  -17.4192  -26.6709   21.4027 H   0  0  0  0  0  0
  -18.0286  -26.0076   22.9024 H   0  0  0  0  0  0
  -19.7960  -30.7272   24.2273 H   0  0  0  0  0  0
  -17.5029  -31.6259   24.5195 H   0  0  0  0  0  0
  -15.5364  -30.3005   23.7626 H   0  0  0  0  0  0
  -15.8677  -28.0830   22.7052 H   0  0  0  0  0  0
  -24.5657  -30.7397   25.7812 H   0  0  0  0  0  0
  -24.8943  -32.3120   26.4955 H   0  0  0  0  0  0
  -25.7867  -30.8977   27.0267 H   0  0  0  0  0  0
  -26.2862  -29.6828   24.1222 H   0  0  0  0  0  0
  -27.3714  -29.7286   25.4899 H   0  0  0  0  0  0
  -27.8816  -30.4259   23.9712 H   0  0  0  0  0  0
  -27.2551  -33.3600   26.2238 H   0  0  0  0  0  0
  -28.3696  -32.7116   25.0322 H   0  0  0  0  0  0
  -28.0755  -31.8457   26.5335 H   0  0  0  0  0  0
  -28.2618  -38.0112   24.7486 H   0  0  0  0  0  0
  -28.1094  -36.2649   24.6258 H   0  0  0  0  0  0
  -27.2322  -37.1438   25.8849 H   0  0  0  0  0  0
  -20.9372  -29.8803   21.6909 H   0  0  0  0  0  0
  -26.0180  -38.2895   24.1401 H   0  0  0  0  0  0
  -27.9162  -18.2152   19.4798 H   0  0  0  0  0  0
  -26.2457  -24.0184   19.4267 H   0  0  0  0  0  0
  -26.4815  -22.8698   20.7246 H   0  0  0  0  0  0
  -26.8439  -22.4286   19.0615 H   0  0  0  0  0  0
  -29.8819  -26.2304   21.9611 H   0  0  0  0  0  0
  -30.6156  -25.1754   20.7564 H   0  0  0  0  0  0
  -29.9140  -24.4987   22.2297 H   0  0  0  0  0  0
  -31.2486  -17.3076   21.5145 H   0  0  0  0  0  0
  -31.3407  -17.2312   19.7973 H   0  0  0  0  0  0
  -28.7781  -23.8726   18.9764 H   0  0  0  0  0  0
  -27.6673  -25.1419   21.5257 H   0  0  0  0  0  0
  -29.9004  -22.8922   21.1196 H   0  0  0  0  0  0
  -29.0073  -15.8026   20.9143 H   0  0  0  0  0  0
  1 25  1  0  0  0
  1 30  2  0  0  0
  1 81  1  0  0  0
  2  3  1  0  0  0
  2 25  1  0  0  0
  2 83  1  0  0  0
  2 84  1  0  0  0
  3  4  1  0  0  0
  3 85  1  0  0  0
  3 86  1  0  0  0
  4  5  1  0  0  0
  4 87  1  0  0  0
  4 88  1  0  0  0
  5  6  1  0  0  0
  5 26  1  0  0  0
  5 89  1  0  0  0
  6 25  1  0  0  0
  6 90  1  0  0  0
  6 91  1  0  0  0
  7  8  2  0  0  0
  7 26  1  0  0  0
  7 29  1  0  0  0
  8  9  1  0  0  0
  8 22  1  0  0  0
  9 10  1  0  0  0
  9 27  2  0  0  0
 10 11  2  0  0  0
 10 15  1  0  0  0
 11 12  1  0  0  0
 11 92  1  0  0  0
 12 13  2  0  0  0
 12 93  1  0  0  0
 13 14  1  0  0  0
 13 31  1  0  0  0
 14 15  2  0  0  0
 14 94  1  0  0  0
 15 95  1  0  0  0
 16 17  2  0  0  0
 16 21  1  0  0  0
 16 31  1  0  0  0
 17 18  1  0  0  0
 17 96  1  0  0  0
 18 19  2  0  0  0
 18 97  1  0  0  0
 19 20  1  0  0  0
 19 24  1  0  0  0
 20 21  2  0  0  0
 20 98  1  0  0  0
 21 23  1  0  0  0
 22 28  1  0  0  0
 22 32  2  0  0  0
 26 27  1  0  0  0
 28 99  1  0  0  0
 28100  1  0  0  0
 29101  1  0  0  0
 29102  1  0  0  0
 33 34  1  0  0  0
 33 66  1  0  0  0
 33 70  2  0  0  0
 34 36  1  0  0  0
 34 59  1  0  0  0
 34103  1  0  0  0
 35 44  2  0  0  0
 35 45  1  0  0  0
 35 68  1  0  0  0
 36 56  1  0  0  0
 36104  1  0  0  0
 37 39  1  0  0  0
 37 47  1  0  0  0
 37 66  1  0  0  0
 37105  1  0  0  0
 38 43  2  0  0  0
 38 46  1  0  0  0
 38 47  1  0  0  0
 39 64  1  0  0  0
 39 67  2  0  0  0
 40 52  1  0  0  0
 40 53  2  0  0  0
 40 58  1  0  0  0
 41106  1  0  0  0
 41107  1  0  0  0
 41108  1  0  0  0
 41 48  1  0  0  0
 42 43  1  0  0  0
 42 66  1  0  0  0
 42109  1  0  0  0
 42110  1  0  0  0
 43 44  1  0  0  0
 44111  1  0  0  0
 45 46  2  0  0  0
 45112  1  0  0  0
 46113  1  0  0  0
 47114  1  0  0  0
 47115  1  0  0  0
 48 56  1  0  0  0
 48 65  1  0  0  0
 48116  1  0  0  0
 49 50  1  0  0  0
 49 53  1  0  0  0
 49 64  1  0  0  0
 49117  1  0  0  0
 50 51  1  0  0  0
 50118  1  0  0  0
 50119  1  0  0  0
 51 52  1  0  0  0
 51120  1  0  0  0
 51121  1  0  0  0
 52122  1  0  0  0
 52123  1  0  0  0
 53 54  1  0  0  0
 54 55  2  0  0  0
 54124  1  0  0  0
 55 57  1  0  0  0
 55125  1  0  0  0
 56 69  2  0  0  0
 57 58  2  0  0  0
 57126  1  0  0  0
 58127  1  0  0  0
 59 60  1  0  0  0
 59 61  1  0  0  0
 59 62  1  0  0  0
 60128  1  0  0  0
 60129  1  0  0  0
 60130  1  0  0  0
 61131  1  0  0  0
 61132  1  0  0  0
 61133  1  0  0  0
 62134  1  0  0  0
 62135  1  0  0  0
 62136  1  0  0  0
 63 65  1  0  0  0
 63137  1  0  0  0
 63138  1  0  0  0
 63139  1  0  0  0
 64140  1  0  0  0
 65141  1  0  0  0
 68 78  1  0  0  0
 71 72  2  0  0  0
 71 79  1  0  0  0
 71142  1  0  0  0
 72 76  1  0  0  0
 72 82  1  0  0  0
 73 79  2  0  0  0
 73 80  1  0  0  0
 73 82  1  0  0  0
 74143  1  0  0  0
 74144  1  0  0  0
 74145  1  0  0  0
 74 77  1  0  0  0
 75146  1  0  0  0
 75147  1  0  0  0
 75148  1  0  0  0
 75 78  1  0  0  0
 76 81  1  0  0  0
 76149  1  0  0  0
 76150  1  0  0  0
 77 78  1  0  0  0
 77 80  1  0  0  0
 77151  1  0  0  0
 78152  1  0  0  0
 80153  1  0  0  0
 81154  1  0  0  0
M  ISO  4   1 100  68 101  78 101  81 100
M  END
> <chiral flag>
0

> <version>
0

> <s_m_source_file>
/data/baiqing/PycharmProjects/Reinvent-master-3.2/result/LINK_invent/BTK/process_docking_weight1_custom_product_contain_oxygen_bond_distance_aromatic_linkinvent_7_9_3/rearranged_h_0194.sdf

> <i_m_source_file_index>
82

> <r_mmod_Potential_Energy-OPLS-2005>
-5.64286708831787

> <r_mmod_Stretch_Energy-OPLS-2005>
98.3167495727539

> <r_mmod_Bend_Energy-OPLS-2005>
169.127960205078

> <r_mmod_Torsional_Energy-OPLS-2005>
229.695281982422

> <r_mmod_Improper_Torsional_Energy-OPLS-2005>
5.0884370803833

> <r_mmod_Van_der_Waal_Energy-OPLS-2005>
117.724319458008

> <r_mmod_Electrostatic_Energy-OPLS-2005>
-467.215545654297

> <r_mmod_Solvation_Energy-OPLS-2005>
-222.599670410156

> <b_mmod_Minimization_Converged-OPLS-2005>
0

> <r_mmod_RMS_Derivative-OPLS-2005>
3.98875284194946

$$$$
82
                    3D
 Structure written by MMmdl.
167175  0  0  1  0            999 V2000
  -30.6910  -14.4837   20.5498 C   0  0  0  0  0  0
  -30.4200  -12.3119   19.4194 C   0  0  0  0  0  0
  -29.4952  -12.5273   18.2017 C   0  0  0  0  0  0
  -28.0137  -12.3921   18.6074 C   0  0  0  0  0  0
  -27.6628  -13.2194   19.8739 C   0  0  2  0  0  0
  -28.7018  -12.9919   20.9949 C   0  0  0  0  0  0
  -25.2571  -13.8211   20.5671 C   0  0  0  0  0  0
  -24.1815  -13.0461   20.9188 C   0  0  0  0  0  0
  -24.6372  -11.6947   20.8722 C   0  0  0  0  0  0
  -23.9062  -10.4311   21.0384 C   0  0  0  0  0  0
  -24.3626   -9.4233   21.9166 C   0  0  0  0  0  0
  -23.6301   -8.2254   22.0731 C   0  0  0  0  0  0
  -22.4273   -8.0288   21.3529 C   0  0  0  0  0  0
  -21.9896   -9.0268   20.4645 C   0  0  0  0  0  0
  -22.7217  -10.2158   20.3049 C   0  0  0  0  0  0
  -21.6866   -6.0743   22.5262 C   0  0  0  0  0  0
  -21.4031   -6.5637   23.8201 C   0  0  0  0  0  0
  -21.3663   -5.6783   24.9151 C   0  0  0  0  0  0
  -21.6051   -4.3042   24.7211 C   0  0  0  0  0  0
  -21.8816   -3.8150   23.4317 C   0  0  0  0  0  0
  -21.9194   -4.6970   22.3381 C   0  0  0  0  0  0
  -22.7825  -13.5289   21.1836 C   0  0  0  0  0  0
  -22.1651   -4.2150   21.0962 F   0  0  0  0  0  0
  -21.5626   -3.4524   25.7720 F   0  0  0  0  0  0
  -30.0396  -13.2912   20.4489 N   0  0  0  0  0  0
  -26.3025  -12.9406   20.3357 N   0  0  0  0  0  0
  -25.9321  -11.6557   20.5754 N   0  0  0  0  0  0
  -22.0467  -12.8303   22.0410 N   0  0  0  0  0  0
  -25.4339  -15.1912   20.4077 N   0  0  0  0  0  0
  -31.7976  -14.6932   20.0430 O   0  0  0  0  0  0
  -21.6627   -6.8888   21.4219 O   0  0  0  0  0  0
  -22.3504  -14.5557   20.6631 O   0  0  0  0  0  0
  -24.6218  -31.8634   23.2115 C   0  0  0  0  0  0
  -25.9095  -32.4808   23.8411 C   0  0  1  0  0  0
  -27.2243  -27.3783   20.0762 C   0  0  0  0  0  0
  -25.5909  -33.8608   24.2317 N   0  0  0  0  0  0
  -23.4133  -30.4881   21.5570 C   0  0  2  0  0  0
  -24.8514  -28.9573   20.1197 C   0  0  0  0  0  0
  -22.7490  -29.4618   22.5050 C   0  0  0  0  0  0
  -18.0268  -28.1397   22.8505 C   0  0  0  0  0  0
  -24.1463  -36.7296   23.2631 C   0  0  0  0  0  0
  -25.9514  -30.8102   21.3763 C   0  0  0  0  0  0
  -26.0231  -29.4452   20.7129 C   0  0  0  0  0  0
  -27.2123  -28.6665   20.6826 C   0  0  0  0  0  0
  -26.0180  -26.9305   19.4810 C   0  0  0  0  0  0
  -24.8463  -27.7023   19.4995 C   0  0  0  0  0  0
  -23.6229  -29.8321   20.1714 C   0  0  0  0  0  0
  -25.4089  -36.3111   24.0334 C   0  0  1  0  0  0
  -20.5873  -28.3687   23.1340 C   0  0  2  0  0  0
  -20.6772  -26.9426   22.5429 C   0  0  0  0  0  0
  -19.5733  -26.6412   21.5236 C   0  0  0  0  0  0
  -18.1913  -26.7956   22.1642 C   0  0  0  0  0  0
  -19.1519  -28.8867   23.2910 C   0  0  0  0  0  0
  -18.9435  -30.1476   23.8925 C   0  0  0  0  0  0
  -17.6433  -30.6617   24.0574 C   0  0  0  0  0  0
  -25.9028  -34.9471   23.5129 C   0  0  0  0  0  0
  -16.5322  -29.9112   23.6350 C   0  0  0  0  0  0
  -16.7253  -28.6517   23.0389 C   0  0  0  0  0  0
  -26.4471  -31.6621   25.0773 C   0  0  0  0  0  0
  -25.3730  -31.3754   26.1524 C   0  0  0  0  0  0
  -27.0288  -30.3046   24.6207 C   0  0  0  0  0  0
  -27.6053  -32.4351   25.7518 C   0  0  0  0  0  0
  -27.5566  -37.1797   24.8472 C   0  0  0  0  0  0
  -21.4211  -29.3012   22.3769 N   0  0  0  0  0  0
  -26.4287  -37.3803   23.9410 N   0  0  0  0  0  0
  -24.6798  -31.0698   22.1049 N   0  0  0  0  0  0
  -23.4237  -28.8186   23.3139 O   0  0  0  0  0  0
  -28.3738  -26.5842   20.0738 O   0  0  0  0  0  0
  -26.5613  -34.8948   22.4706 O   0  0  0  0  0  0
  -23.5391  -32.1363   23.7473 O   0  0  0  0  0  0
  -29.4646  -19.0526   19.7960 C   0  0  0  0  0  0
  -28.7315  -18.7881   20.9318 C   0  0  0  0  0  0
  -29.8367  -16.7992   20.8024 C   0  0  0  0  0  0
  -33.0903  -22.3026   20.1280 C   0  0  0  0  0  0
  -33.0534  -20.0176   19.0537 C   0  0  0  0  0  0
  -29.3338  -20.2599   18.8767 C   0  0  0  0  0  0
  -31.3375  -21.7857   18.2895 C   0  0  0  0  0  0
  -29.1040  -22.8254   19.1089 C   0  0  0  0  0  0
  -28.2289  -25.2149   19.5905 C   0  0  0  0  0  0
  -32.7512  -21.5059   18.8573 C   0  0  0  0  0  0
  -30.0976  -21.5996   19.2242 C   0  0  1  0  0  0
  -29.4531  -24.2500   19.6925 C   0  0  2  0  0  0
  -28.9603  -17.5306   21.4902 N   0  0  0  0  0  0
  -27.7821  -19.6132   21.5288 N   0  0  0  0  0  0
  -30.0132  -15.4433   21.1922 N   0  0  0  0  0  0
  -30.4642  -24.8731   18.9245 O   0  0  0  0  0  0
  -30.5053  -17.6716   19.4135 S   0  0  0  0  0  0
  -31.4651  -12.4033   19.1230 H   0  0  0  0  0  0
  -30.3127  -11.2998   19.8089 H   0  0  0  0  0  0
  -29.7306  -11.8111   17.4143 H   0  0  0  0  0  0
  -29.6721  -13.5196   17.7774 H   0  0  0  0  0  0
  -27.8047  -11.3352   18.7803 H   0  0  0  0  0  0
  -27.3745  -12.6993   17.7788 H   0  0  0  0  0  0
  -27.7062  -14.2706   19.5855 H   0  0  0  0  0  0
  -28.6711  -11.9579   21.3358 H   0  0  0  0  0  0
  -28.4535  -13.5936   21.8707 H   0  0  0  0  0  0
  -25.2778   -9.5692   22.4731 H   0  0  0  0  0  0
  -24.0018   -7.4634   22.7426 H   0  0  0  0  0  0
  -21.0838   -8.8802   19.8949 H   0  0  0  0  0  0
  -22.3688  -10.9697   19.6153 H   0  0  0  0  0  0
  -21.2030   -7.6143   23.9711 H   0  0  0  0  0  0
  -21.1487   -6.0501   25.9062 H   0  0  0  0  0  0
  -22.0597   -2.7607   23.2810 H   0  0  0  0  0  0
  -22.4066  -12.0040   22.4950 H   0  0  0  0  0  0
  -21.1054  -13.1297   22.2529 H   0  0  0  0  0  0
  -24.6801  -15.8625   20.5161 H   0  0  0  0  0  0
  -26.3077  -15.6245   20.1352 H   0  0  0  0  0  0
  -26.7186  -32.5497   23.1192 H   0  0  0  0  0  0
  -25.0099  -33.9763   25.0483 H   0  0  0  0  0  0
  -22.7002  -31.3054   21.4268 H   0  0  0  0  0  0
  -23.3743  -35.9617   23.3324 H   0  0  0  0  0  0
  -24.3550  -36.8868   22.2040 H   0  0  0  0  0  0
  -23.7199  -37.6499   23.6629 H   0  0  0  0  0  0
  -26.0842  -31.5803   20.6158 H   0  0  0  0  0  0
  -26.8314  -30.8472   22.0083 H   0  0  0  0  0  0
  -28.1227  -29.0455   21.1281 H   0  0  0  0  0  0
  -25.9341  -25.9785   18.9802 H   0  0  0  0  0  0
  -23.9482  -27.3288   19.0301 H   0  0  0  0  0  0
  -23.7504  -30.6113   19.4187 H   0  0  0  0  0  0
  -22.7422  -29.2659   19.8669 H   0  0  0  0  0  0
  -25.1269  -36.1967   25.0829 H   0  0  0  0  0  0
  -20.9895  -28.3212   24.1490 H   0  0  0  0  0  0
  -20.5729  -26.2273   23.3600 H   0  0  0  0  0  0
  -21.6635  -26.7528   22.1164 H   0  0  0  0  0  0
  -19.6893  -25.6333   21.1250 H   0  0  0  0  0  0
  -19.6655  -27.3249   20.6784 H   0  0  0  0  0  0
  -17.4181  -26.6717   21.4043 H   0  0  0  0  0  0
  -18.0300  -26.0100   22.9035 H   0  0  0  0  0  0
  -19.7896  -30.7291   24.2307 H   0  0  0  0  0  0
  -17.4979  -31.6298   24.5174 H   0  0  0  0  0  0
  -15.5326  -30.3016   23.7665 H   0  0  0  0  0  0
  -15.8649  -28.0834   22.7125 H   0  0  0  0  0  0
  -24.5930  -30.7058   25.7872 H   0  0  0  0  0  0
  -24.8907  -32.2917   26.4938 H   0  0  0  0  0  0
  -25.8081  -30.8963   27.0312 H   0  0  0  0  0  0
  -26.2837  -29.6850   24.1213 H   0  0  0  0  0  0
  -27.3944  -29.7253   25.4696 H   0  0  0  0  0  0
  -27.8743  -30.4317   23.9451 H   0  0  0  0  0  0
  -27.2688  -33.3671   26.2082 H   0  0  0  0  0  0
  -28.3866  -32.6879   25.0337 H   0  0  0  0  0  0
  -28.0744  -31.8511   26.5440 H   0  0  0  0  0  0
  -28.2613  -38.0070   24.7547 H   0  0  0  0  0  0
  -28.1048  -36.2621   24.6292 H   0  0  0  0  0  0
  -27.2322  -37.1451   25.8889 H   0  0  0  0  0  0
  -20.9425  -29.8669   21.6904 H   0  0  0  0  0  0
  -26.0169  -38.2878   24.1453 H   0  0  0  0  0  0
  -34.1443  -22.1798   20.3830 H   0  0  0  0  0  0
  -32.5158  -21.9619   20.9895 H   0  0  0  0  0  0
  -32.9059  -23.3698   19.9981 H   0  0  0  0  0  0
  -34.1280  -19.8368   19.1074 H   0  0  0  0  0  0
  -32.6631  -19.4123   18.2333 H   0  0  0  0  0  0
  -32.6225  -19.6571   19.9858 H   0  0  0  0  0  0
  -28.2683  -20.4768   18.8212 H   0  0  0  0  0  0
  -29.5410  -19.9454   17.8535 H   0  0  0  0  0  0
  -31.2137  -21.2041   17.3739 H   0  0  0  0  0  0
  -31.3555  -22.8056   17.9148 H   0  0  0  0  0  0
  -28.1842  -22.5272   19.6111 H   0  0  0  0  0  0
  -28.8209  -22.9346   18.0609 H   0  0  0  0  0  0
  -27.4218  -24.7398   20.1519 H   0  0  0  0  0  0
  -27.9215  -25.2459   18.5445 H   0  0  0  0  0  0
  -33.4460  -21.8505   18.0874 H   0  0  0  0  0  0
  -30.4064  -21.5556   20.2677 H   0  0  0  0  0  0
  -29.7796  -24.1511   20.7305 H   0  0  0  0  0  0
  -27.4184  -20.4344   21.0620 H   0  0  0  0  0  0
  -27.2293  -19.2658   22.3042 H   0  0  0  0  0  0
  -29.2756  -15.0967   21.7808 H   0  0  0  0  0  0
  -30.5685  -25.7523   19.2795 H   0  0  0  0  0  0
  1 25  1  0  0  0
  1 30  2  0  0  0
  1 85  1  0  0  0
  2  3  1  0  0  0
  2 25  1  0  0  0
  2 88  1  0  0  0
  2 89  1  0  0  0
  3  4  1  0  0  0
  3 90  1  0  0  0
  3 91  1  0  0  0
  4  5  1  0  0  0
  4 92  1  0  0  0
  4 93  1  0  0  0
  5  6  1  0  0  0
  5 26  1  0  0  0
  5 94  1  0  0  0
  6 25  1  0  0  0
  6 95  1  0  0  0
  6 96  1  0  0  0
  7  8  2  0  0  0
  7 26  1  0  0  0
  7 29  1  0  0  0
  8  9  1  0  0  0
  8 22  1  0  0  0
  9 10  1  0  0  0
  9 27  2  0  0  0
 10 11  2  0  0  0
 10 15  1  0  0  0
 11 12  1  0  0  0
 11 97  1  0  0  0
 12 13  2  0  0  0
 12 98  1  0  0  0
 13 14  1  0  0  0
 13 31  1  0  0  0
 14 15  2  0  0  0
 14 99  1  0  0  0
 15100  1  0  0  0
 16 17  2  0  0  0
 16 21  1  0  0  0
 16 31  1  0  0  0
 17 18  1  0  0  0
 17101  1  0  0  0
 18 19  2  0  0  0
 18102  1  0  0  0
 19 20  1  0  0  0
 19 24  1  0  0  0
 20 21  2  0  0  0
 20103  1  0  0  0
 21 23  1  0  0  0
 22 28  1  0  0  0
 22 32  2  0  0  0
 26 27  1  0  0  0
 28104  1  0  0  0
 28105  1  0  0  0
 29106  1  0  0  0
 29107  1  0  0  0
 33 34  1  0  0  0
 33 66  1  0  0  0
 33 70  2  0  0  0
 34 36  1  0  0  0
 34 59  1  0  0  0
 34108  1  0  0  0
 35 44  2  0  0  0
 35 45  1  0  0  0
 35 68  1  0  0  0
 36 56  1  0  0  0
 36109  1  0  0  0
 37 39  1  0  0  0
 37 47  1  0  0  0
 37 66  1  0  0  0
 37110  1  0  0  0
 38 43  2  0  0  0
 38 46  1  0  0  0
 38 47  1  0  0  0
 39 64  1  0  0  0
 39 67  2  0  0  0
 40 52  1  0  0  0
 40 53  2  0  0  0
 40 58  1  0  0  0
 41111  1  0  0  0
 41112  1  0  0  0
 41113  1  0  0  0
 41 48  1  0  0  0
 42 43  1  0  0  0
 42 66  1  0  0  0
 42114  1  0  0  0
 42115  1  0  0  0
 43 44  1  0  0  0
 44116  1  0  0  0
 45 46  2  0  0  0
 45117  1  0  0  0
 46118  1  0  0  0
 47119  1  0  0  0
 47120  1  0  0  0
 48 56  1  0  0  0
 48 65  1  0  0  0
 48121  1  0  0  0
 49 50  1  0  0  0
 49 53  1  0  0  0
 49 64  1  0  0  0
 49122  1  0  0  0
 50 51  1  0  0  0
 50123  1  0  0  0
 50124  1  0  0  0
 51 52  1  0  0  0
 51125  1  0  0  0
 51126  1  0  0  0
 52127  1  0  0  0
 52128  1  0  0  0
 53 54  1  0  0  0
 54 55  2  0  0  0
 54129  1  0  0  0
 55 57  1  0  0  0
 55130  1  0  0  0
 56 69  2  0  0  0
 57 58  2  0  0  0
 57131  1  0  0  0
 58132  1  0  0  0
 59 60  1  0  0  0
 59 61  1  0  0  0
 59 62  1  0  0  0
 60133  1  0  0  0
 60134  1  0  0  0
 60135  1  0  0  0
 61136  1  0  0  0
 61137  1  0  0  0
 61138  1  0  0  0
 62139  1  0  0  0
 62140  1  0  0  0
 62141  1  0  0  0
 63 65  1  0  0  0
 63142  1  0  0  0
 63143  1  0  0  0
 63144  1  0  0  0
 64145  1  0  0  0
 65146  1  0  0  0
 68 79  1  0  0  0
 71 72  2  0  0  0
 71 76  1  0  0  0
 71 87  1  0  0  0
 72 83  1  0  0  0
 72 84  1  0  0  0
 73 83  2  0  0  0
 73 85  1  0  0  0
 73 87  1  0  0  0
 74147  1  0  0  0
 74148  1  0  0  0
 74149  1  0  0  0
 74 80  1  0  0  0
 75 80  1  0  0  0
 75150  1  0  0  0
 75151  1  0  0  0
 75152  1  0  0  0
 76153  1  0  0  0
 76154  1  0  0  0
 76 81  1  0  0  0
 77 80  1  0  0  0
 77 81  1  0  0  0
 77155  1  0  0  0
 77156  1  0  0  0
 78 81  1  0  0  0
 78 82  1  0  0  0
 78157  1  0  0  0
 78158  1  0  0  0
 79 82  1  0  0  0
 79159  1  0  0  0
 79160  1  0  0  0
 80161  1  0  0  0
 81162  1  0  0  0
 82 86  1  0  0  0
 82163  1  0  0  0
 84164  1  0  0  0
 84165  1  0  0  0
 85166  1  0  0  0
 86167  1  0  0  0
M  ISO  4   1 100  68 101  79 101  85 100
M  END
> <chiral flag>
0

> <version>
0

> <s_m_source_file>
/data/baiqing/PycharmProjects/Reinvent-master-3.2/result/LINK_invent/BTK/process_docking_weight1_custom_product_contain_oxygen_bond_distance_aromatic_linkinvent_7_9_3/rearranged_h_0194.sdf

> <i_m_source_file_index>
83

> <r_mmod_Potential_Energy-OPLS-2005>
-126.237236022949

> <r_mmod_Stretch_Energy-OPLS-2005>
52.5991630554199

> <r_mmod_Bend_Energy-OPLS-2005>
142.147430419922

> <r_mmod_Torsional_Energy-OPLS-2005>
239.192306518555

> <r_mmod_Improper_Torsional_Energy-OPLS-2005>
5.54519414901733

> <r_mmod_Van_der_Waal_Energy-OPLS-2005>
127.580001831055

> <r_mmod_Electrostatic_Energy-OPLS-2005>
-490.52197265625

> <r_mmod_Solvation_Energy-OPLS-2005>
-221.700866699219

> <b_mmod_Minimization_Converged-OPLS-2005>
0

> <r_mmod_RMS_Derivative-OPLS-2005>
4.94286584854126

$$$$
83
                    3D
 Structure written by MMmdl.
157165  0  0  1  0            999 V2000
  -30.6899  -14.5220   20.5037 C   0  0  0  0  0  0
  -30.4249  -12.3274   19.4353 C   0  0  0  0  0  0
  -29.5027  -12.5097   18.2120 C   0  0  0  0  0  0
  -28.0235  -12.3652   18.6211 C   0  0  0  0  0  0
  -27.6586  -13.2147   19.8690 C   0  0  2  0  0  0
  -28.7040  -13.0317   20.9943 C   0  0  0  0  0  0
  -25.2561  -13.8166   20.5676 C   0  0  0  0  0  0
  -24.1811  -13.0434   20.9158 C   0  0  0  0  0  0
  -24.6369  -11.6904   20.8692 C   0  0  0  0  0  0
  -23.9032  -10.4298   21.0376 C   0  0  0  0  0  0
  -24.3585   -9.4218   21.9166 C   0  0  0  0  0  0
  -23.6265   -8.2245   22.0751 C   0  0  0  0  0  0
  -22.4237   -8.0274   21.3559 C   0  0  0  0  0  0
  -21.9865   -9.0248   20.4667 C   0  0  0  0  0  0
  -22.7184  -10.2131   20.3054 C   0  0  0  0  0  0
  -21.6850   -6.0713   22.5276 C   0  0  0  0  0  0
  -21.4012   -6.5626   23.8206 C   0  0  0  0  0  0
  -21.3664   -5.6781   24.9178 C   0  0  0  0  0  0
  -21.6046   -4.3042   24.7220 C   0  0  0  0  0  0
  -21.8824   -3.8130   23.4342 C   0  0  0  0  0  0
  -21.9197   -4.6947   22.3401 C   0  0  0  0  0  0
  -22.7838  -13.5249   21.1824 C   0  0  0  0  0  0
  -22.1659   -4.2136   21.0978 F   0  0  0  0  0  0
  -21.5638   -3.4529   25.7731 F   0  0  0  0  0  0
  -30.0336  -13.3312   20.4382 N   0  0  0  0  0  0
  -26.3005  -12.9353   20.3322 N   0  0  0  0  0  0
  -25.9301  -11.6501   20.5697 N   0  0  0  0  0  0
  -22.0458  -12.8273   22.0391 N   0  0  0  0  0  0
  -25.4285  -15.1895   20.4111 N   0  0  0  0  0  0
  -31.8494  -14.6598   20.1020 O   0  0  0  0  0  0
  -21.6629   -6.8849   21.4234 O   0  0  0  0  0  0
  -22.3537  -14.5565   20.6685 O   0  0  0  0  0  0
  -24.6172  -31.8641   23.2055 C   0  0  0  0  0  0
  -25.9057  -32.4790   23.8371 C   0  0  1  0  0  0
  -27.2512  -27.4131   20.1199 C   0  0  0  0  0  0
  -25.5898  -33.8593   24.2300 N   0  0  0  0  0  0
  -23.4086  -30.4857   21.5411 C   0  0  2  0  0  0
  -24.8623  -28.9372   20.1208 C   0  0  0  0  0  0
  -22.7422  -29.4663   22.4937 C   0  0  0  0  0  0
  -18.0289  -28.1392   22.8480 C   0  0  0  0  0  0
  -24.1489  -36.7318   23.2647 C   0  0  0  0  0  0
  -25.9374  -30.8229   21.3635 C   0  0  0  0  0  0
  -26.0188  -29.4513   20.7200 C   0  0  0  0  0  0
  -27.2161  -28.6967   20.7178 C   0  0  0  0  0  0
  -26.0789  -26.9131   19.5168 C   0  0  0  0  0  0
  -24.8868  -27.6660   19.5174 C   0  0  0  0  0  0
  -23.6247  -29.8080   20.1603 C   0  0  0  0  0  0
  -25.4103  -36.3088   24.0333 C   0  0  1  0  0  0
  -20.5879  -28.3696   23.1289 C   0  0  2  0  0  0
  -20.6772  -26.9425   22.5412 C   0  0  0  0  0  0
  -19.5753  -26.6399   21.5206 C   0  0  0  0  0  0
  -18.1931  -26.7936   22.1616 C   0  0  0  0  0  0
  -19.1536  -28.8855   23.2886 C   0  0  0  0  0  0
  -18.9470  -30.1455   23.8904 C   0  0  0  0  0  0
  -17.6467  -30.6591   24.0573 C   0  0  0  0  0  0
  -25.9024  -34.9451   23.5106 C   0  0  0  0  0  0
  -16.5361  -29.9093   23.6324 C   0  0  0  0  0  0
  -16.7277  -28.6519   23.0333 C   0  0  0  0  0  0
  -26.4495  -31.6593   25.0725 C   0  0  0  0  0  0
  -25.3803  -31.3741   26.1523 C   0  0  0  0  0  0
  -27.0305  -30.3014   24.6136 C   0  0  0  0  0  0
  -27.6076  -32.4326   25.7466 C   0  0  0  0  0  0
  -27.5572  -37.1812   24.8459 C   0  0  0  0  0  0
  -21.4151  -29.3059   22.3682 N   0  0  0  0  0  0
  -26.4282  -37.3773   23.9404 N   0  0  0  0  0  0
  -24.6714  -31.0740   22.0944 N   0  0  0  0  0  0
  -23.4178  -28.8217   23.3012 O   0  0  0  0  0  0
  -28.4156  -26.6725   20.0753 O   0  0  0  0  0  0
  -26.5583  -34.8909   22.4670 O   0  0  0  0  0  0
  -23.5357  -32.1396   23.7433 O   0  0  0  0  0  0
  -30.1947  -19.2499   18.8223 C   0  0  0  0  0  0
  -30.3275  -16.9498   18.8239 C   0  0  0  0  0  0
  -29.8819  -19.2381   20.2019 C   0  0  0  0  0  0
  -30.0377  -16.8916   20.2186 C   0  0  0  0  0  0
  -29.6690  -20.4856   20.9941 C   0  0  0  0  0  0
  -30.6830  -23.3841   21.9629 C   0  0  0  0  0  0
  -29.0024  -24.2234   20.1911 C   0  0  0  0  0  0
  -28.4736  -25.5007   20.9170 C   0  0  0  0  0  0
  -29.4237  -23.0429   21.1358 C   0  0  1  0  0  0
  -30.4038  -18.1068   18.1268 N   0  0  0  0  0  0
  -29.7920  -18.0545   20.8964 N   0  0  0  0  0  0
  -29.5534  -20.3390   22.3219 N   0  0  0  0  0  0
  -29.9512  -15.6030   20.8467 N   0  0  0  0  0  0
  -29.5987  -21.7319   20.4379 N   0  3  0  0  0  0
  -31.4702  -12.4218   19.1310 H   0  0  0  0  0  0
  -30.3232  -11.3223   19.8483 H   0  0  0  0  0  0
  -29.7545  -11.7839   17.4370 H   0  0  0  0  0  0
  -29.6645  -13.4941   17.7683 H   0  0  0  0  0  0
  -27.8352  -11.3095   18.8210 H   0  0  0  0  0  0
  -27.3777  -12.6413   17.7867 H   0  0  0  0  0  0
  -27.6937  -14.2578   19.5527 H   0  0  0  0  0  0
  -28.6876  -12.0069   21.3678 H   0  0  0  0  0  0
  -28.4698  -13.6649   21.8516 H   0  0  0  0  0  0
  -25.2723   -9.5730   22.4732 H   0  0  0  0  0  0
  -24.0006   -7.4638   22.7444 H   0  0  0  0  0  0
  -21.0809   -8.8748   19.8972 H   0  0  0  0  0  0
  -22.3612  -10.9661   19.6168 H   0  0  0  0  0  0
  -21.1996   -7.6129   23.9701 H   0  0  0  0  0  0
  -21.1484   -6.0510   25.9079 H   0  0  0  0  0  0
  -22.0601   -2.7588   23.2846 H   0  0  0  0  0  0
  -22.4018  -11.9952   22.4858 H   0  0  0  0  0  0
  -21.1090  -13.1374   22.2545 H   0  0  0  0  0  0
  -24.6664  -15.8468   20.5301 H   0  0  0  0  0  0
  -26.2817  -15.6299   20.0942 H   0  0  0  0  0  0
  -26.7135  -32.5495   23.1140 H   0  0  0  0  0  0
  -25.0062  -33.9746   25.0454 H   0  0  0  0  0  0
  -22.6991  -31.3026   21.3910 H   0  0  0  0  0  0
  -23.3706  -35.9697   23.3328 H   0  0  0  0  0  0
  -24.3583  -36.8918   22.2058 H   0  0  0  0  0  0
  -23.7296  -37.6553   23.6644 H   0  0  0  0  0  0
  -26.0536  -31.5834   20.5904 H   0  0  0  0  0  0
  -26.8220  -30.8795   21.9855 H   0  0  0  0  0  0
  -28.1082  -29.0896   21.1844 H   0  0  0  0  0  0
  -26.0937  -25.9421   19.0418 H   0  0  0  0  0  0
  -23.9991  -27.2609   19.0528 H   0  0  0  0  0  0
  -23.7406  -30.5744   19.3929 H   0  0  0  0  0  0
  -22.7500  -29.2279   19.8620 H   0  0  0  0  0  0
  -25.1287  -36.1928   25.0825 H   0  0  0  0  0  0
  -20.9990  -28.3280   24.1401 H   0  0  0  0  0  0
  -20.5665  -26.2318   23.3617 H   0  0  0  0  0  0
  -21.6645  -26.7456   22.1223 H   0  0  0  0  0  0
  -19.6917  -25.6311   21.1237 H   0  0  0  0  0  0
  -19.6680  -27.3214   20.6738 H   0  0  0  0  0  0
  -17.4208  -26.6692   21.4011 H   0  0  0  0  0  0
  -18.0329  -26.0079   22.9014 H   0  0  0  0  0  0
  -19.7949  -30.7267   24.2268 H   0  0  0  0  0  0
  -17.5034  -31.6259   24.5199 H   0  0  0  0  0  0
  -15.5362  -30.3004   23.7629 H   0  0  0  0  0  0
  -15.8684  -28.0840   22.7018 H   0  0  0  0  0  0
  -24.5862  -30.7209   25.7897 H   0  0  0  0  0  0
  -24.9153  -32.2931   26.5098 H   0  0  0  0  0  0
  -25.8197  -30.8801   27.0202 H   0  0  0  0  0  0
  -26.2824  -29.6761   24.1249 H   0  0  0  0  0  0
  -27.4098  -29.7284   25.4609 H   0  0  0  0  0  0
  -27.8668  -30.4288   23.9261 H   0  0  0  0  0  0
  -27.2682  -33.3613   26.2064 H   0  0  0  0  0  0
  -28.3863  -32.6912   25.0282 H   0  0  0  0  0  0
  -28.0771  -31.8452   26.5369 H   0  0  0  0  0  0
  -28.2606  -38.0087   24.7442 H   0  0  0  0  0  0
  -28.1032  -36.2607   24.6320 H   0  0  0  0  0  0
  -27.2290  -37.1543   25.8866 H   0  0  0  0  0  0
  -20.9310  -29.8785   21.6902 H   0  0  0  0  0  0
  -26.0152  -38.2851   24.1364 H   0  0  0  0  0  0
  -30.2746  -20.1728   18.2677 H   0  0  0  0  0  0
  -30.4778  -16.0534   18.2395 H   0  0  0  0  0  0
  -30.4151  -23.7185   22.9654 H   0  0  0  0  0  0
  -31.2717  -24.1782   21.5024 H   0  0  0  0  0  0
  -31.3482  -22.5267   22.0796 H   0  0  0  0  0  0
  -29.8662  -24.5081   19.5874 H   0  0  0  0  0  0
  -28.2473  -23.8828   19.4822 H   0  0  0  0  0  0
  -29.1447  -25.7508   21.7397 H   0  0  0  0  0  0
  -27.5065  -25.2842   21.3769 H   0  0  0  0  0  0
  -28.5999  -22.8769   21.8309 H   0  0  0  0  0  0
  -29.5976  -19.3861   22.6606 H   0  0  0  0  0  0
  -29.4398  -21.0880   22.9812 H   0  0  0  0  0  0
  -29.1159  -15.4260   21.3823 H   0  0  0  0  0  0
  -29.7657  -21.7961   19.4434 H   0  0  0  0  0  0
  1 25  1  0  0  0
  1 30  2  0  0  0
  1 83  1  0  0  0
  2  3  1  0  0  0
  2 25  1  0  0  0
  2 85  1  0  0  0
  2 86  1  0  0  0
  3  4  1  0  0  0
  3 87  1  0  0  0
  3 88  1  0  0  0
  4  5  1  0  0  0
  4 89  1  0  0  0
  4 90  1  0  0  0
  5  6  1  0  0  0
  5 26  1  0  0  0
  5 91  1  0  0  0
  6 25  1  0  0  0
  6 92  1  0  0  0
  6 93  1  0  0  0
  7  8  2  0  0  0
  7 26  1  0  0  0
  7 29  1  0  0  0
  8  9  1  0  0  0
  8 22  1  0  0  0
  9 10  1  0  0  0
  9 27  2  0  0  0
 10 11  2  0  0  0
 10 15  1  0  0  0
 11 12  1  0  0  0
 11 94  1  0  0  0
 12 13  2  0  0  0
 12 95  1  0  0  0
 13 14  1  0  0  0
 13 31  1  0  0  0
 14 15  2  0  0  0
 14 96  1  0  0  0
 15 97  1  0  0  0
 16 17  2  0  0  0
 16 21  1  0  0  0
 16 31  1  0  0  0
 17 18  1  0  0  0
 17 98  1  0  0  0
 18 19  2  0  0  0
 18 99  1  0  0  0
 19 20  1  0  0  0
 19 24  1  0  0  0
 20 21  2  0  0  0
 20100  1  0  0  0
 21 23  1  0  0  0
 22 28  1  0  0  0
 22 32  2  0  0  0
 26 27  1  0  0  0
 28101  1  0  0  0
 28102  1  0  0  0
 29103  1  0  0  0
 29104  1  0  0  0
 33 34  1  0  0  0
 33 66  1  0  0  0
 33 70  2  0  0  0
 34 36  1  0  0  0
 34 59  1  0  0  0
 34105  1  0  0  0
 35 44  2  0  0  0
 35 45  1  0  0  0
 35 68  1  0  0  0
 36 56  1  0  0  0
 36106  1  0  0  0
 37 39  1  0  0  0
 37 47  1  0  0  0
 37 66  1  0  0  0
 37107  1  0  0  0
 38 43  2  0  0  0
 38 46  1  0  0  0
 38 47  1  0  0  0
 39 64  1  0  0  0
 39 67  2  0  0  0
 40 52  1  0  0  0
 40 53  2  0  0  0
 40 58  1  0  0  0
 41108  1  0  0  0
 41109  1  0  0  0
 41110  1  0  0  0
 41 48  1  0  0  0
 42 43  1  0  0  0
 42 66  1  0  0  0
 42111  1  0  0  0
 42112  1  0  0  0
 43 44  1  0  0  0
 44113  1  0  0  0
 45 46  2  0  0  0
 45114  1  0  0  0
 46115  1  0  0  0
 47116  1  0  0  0
 47117  1  0  0  0
 48 56  1  0  0  0
 48 65  1  0  0  0
 48118  1  0  0  0
 49 50  1  0  0  0
 49 53  1  0  0  0
 49 64  1  0  0  0
 49119  1  0  0  0
 50 51  1  0  0  0
 50120  1  0  0  0
 50121  1  0  0  0
 51 52  1  0  0  0
 51122  1  0  0  0
 51123  1  0  0  0
 52124  1  0  0  0
 52125  1  0  0  0
 53 54  1  0  0  0
 54 55  2  0  0  0
 54126  1  0  0  0
 55 57  1  0  0  0
 55127  1  0  0  0
 56 69  2  0  0  0
 57 58  2  0  0  0
 57128  1  0  0  0
 58129  1  0  0  0
 59 60  1  0  0  0
 59 61  1  0  0  0
 59 62  1  0  0  0
 60130  1  0  0  0
 60131  1  0  0  0
 60132  1  0  0  0
 61133  1  0  0  0
 61134  1  0  0  0
 61135  1  0  0  0
 62136  1  0  0  0
 62137  1  0  0  0
 62138  1  0  0  0
 63 65  1  0  0  0
 63139  1  0  0  0
 63140  1  0  0  0
 63141  1  0  0  0
 64142  1  0  0  0
 65143  1  0  0  0
 68 78  1  0  0  0
 71 73  2  0  0  0
 71 80  1  0  0  0
 71144  1  0  0  0
 72 74  1  0  0  0
 72 80  2  0  0  0
 72145  1  0  0  0
 73 75  1  0  0  0
 73 81  1  0  0  0
 74 81  2  0  0  0
 74 83  1  0  0  0
 75 82  1  0  0  0
 75 84  2  0  0  0
 76146  1  0  0  0
 76147  1  0  0  0
 76148  1  0  0  0
 76 79  1  0  0  0
 77 78  1  0  0  0
 77 79  1  0  0  0
 77149  1  0  0  0
 77150  1  0  0  0
 78151  1  0  0  0
 78152  1  0  0  0
 79 84  1  0  0  0
 79153  1  0  0  0
 82154  1  0  0  0
 82155  1  0  0  0
 83156  1  0  0  0
 84157  1  0  0  0
M  CHG  1  84   1
M  ISO  4   1 100  68 101  78 101  83 100
M  END
> <chiral flag>
0

> <version>
0

> <s_m_source_file>
/data/baiqing/PycharmProjects/Reinvent-master-3.2/result/LINK_invent/BTK/process_docking_weight1_custom_product_contain_oxygen_bond_distance_aromatic_linkinvent_7_9_3/rearranged_h_0194.sdf

> <i_m_source_file_index>
84

> <r_mmod_Potential_Energy-OPLS-2005>
-110.503044128418

> <r_mmod_Stretch_Energy-OPLS-2005>
50.0888938903809

> <r_mmod_Bend_Energy-OPLS-2005>
104.365287780762

> <r_mmod_Torsional_Energy-OPLS-2005>
271.112274169922

> <r_mmod_Improper_Torsional_Energy-OPLS-2005>
5.47991418838501

> <r_mmod_Van_der_Waal_Energy-OPLS-2005>
160.884460449219

> <r_mmod_Electrostatic_Energy-OPLS-2005>
-252.658233642578

> <r_mmod_Solvation_Energy-OPLS-2005>
-468.586242675781

> <b_mmod_Minimization_Converged-OPLS-2005>
0

> <r_mmod_RMS_Derivative-OPLS-2005>
3.23324584960938

$$$$
84
                    3D
 Structure written by MMmdl.
155163  0  0  1  0            999 V2000
  -30.6900  -14.4944   20.5116 C   0  0  0  0  0  0
  -30.4244  -12.3063   19.4238 C   0  0  0  0  0  0
  -29.4987  -12.5072   18.2032 C   0  0  0  0  0  0
  -28.0159  -12.3852   18.6107 C   0  0  0  0  0  0
  -27.6636  -13.2159   19.8747 C   0  0  2  0  0  0
  -28.7106  -13.0050   20.9952 C   0  0  0  0  0  0
  -25.2605  -13.8203   20.5693 C   0  0  0  0  0  0
  -24.1863  -13.0459   20.9192 C   0  0  0  0  0  0
  -24.6427  -11.6924   20.8750 C   0  0  0  0  0  0
  -23.9091  -10.4298   21.0373 C   0  0  0  0  0  0
  -24.3634   -9.4221   21.9146 C   0  0  0  0  0  0
  -23.6314   -8.2260   22.0740 C   0  0  0  0  0  0
  -22.4302   -8.0290   21.3545 C   0  0  0  0  0  0
  -21.9931   -9.0263   20.4639 C   0  0  0  0  0  0
  -22.7266  -10.2141   20.3023 C   0  0  0  0  0  0
  -21.6855   -6.0740   22.5272 C   0  0  0  0  0  0
  -21.4011   -6.5636   23.8212 C   0  0  0  0  0  0
  -21.3677   -5.6783   24.9170 C   0  0  0  0  0  0
  -21.6042   -4.3050   24.7217 C   0  0  0  0  0  0
  -21.8822   -3.8142   23.4339 C   0  0  0  0  0  0
  -21.9196   -4.6963   22.3392 C   0  0  0  0  0  0
  -22.7868  -13.5239   21.1838 C   0  0  0  0  0  0
  -22.1649   -4.2148   21.0968 F   0  0  0  0  0  0
  -21.5644   -3.4530   25.7728 F   0  0  0  0  0  0
  -30.0400  -13.2994   20.4401 N   0  0  0  0  0  0
  -26.3054  -12.9372   20.3378 N   0  0  0  0  0  0
  -25.9355  -11.6529   20.5775 N   0  0  0  0  0  0
  -22.0522  -12.8232   22.0404 N   0  0  0  0  0  0
  -25.4337  -15.1922   20.4055 N   0  0  0  0  0  0
  -31.8494  -14.6438   20.1131 O   0  0  0  0  0  0
  -21.6657   -6.8899   21.4242 O   0  0  0  0  0  0
  -22.3527  -14.5517   20.6655 O   0  0  0  0  0  0
  -24.6136  -31.8672   23.2051 C   0  0  0  0  0  0
  -25.9014  -32.4832   23.8350 C   0  0  1  0  0  0
  -27.2085  -27.4129   20.1128 C   0  0  0  0  0  0
  -25.5848  -33.8634   24.2248 N   0  0  0  0  0  0
  -23.4018  -30.4897   21.5498 C   0  0  2  0  0  0
  -24.8434  -28.9552   20.1126 C   0  0  0  0  0  0
  -22.7413  -29.4656   22.5019 C   0  0  0  0  0  0
  -18.0248  -28.1387   22.8483 C   0  0  0  0  0  0
  -24.1470  -36.7347   23.2636 C   0  0  0  0  0  0
  -25.9306  -30.8329   21.3537 C   0  0  0  0  0  0
  -26.0079  -29.4653   20.7027 C   0  0  0  0  0  0
  -27.2009  -28.7048   20.6921 C   0  0  0  0  0  0
  -26.0315  -26.9234   19.5107 C   0  0  0  0  0  0
  -24.8512  -27.6854   19.5106 C   0  0  0  0  0  0
  -23.6057  -29.8208   20.1647 C   0  0  0  0  0  0
  -25.4100  -36.3132   24.0319 C   0  0  1  0  0  0
  -20.5837  -28.3668   23.1339 C   0  0  2  0  0  0
  -20.6751  -26.9411   22.5437 C   0  0  0  0  0  0
  -19.5723  -26.6390   21.5240 C   0  0  0  0  0  0
  -18.1905  -26.7925   22.1645 C   0  0  0  0  0  0
  -19.1498  -28.8844   23.2893 C   0  0  0  0  0  0
  -18.9447  -30.1461   23.8902 C   0  0  0  0  0  0
  -17.6458  -30.6604   24.0578 C   0  0  0  0  0  0
  -25.9045  -34.9504   23.5098 C   0  0  0  0  0  0
  -16.5343  -29.9128   23.6324 C   0  0  0  0  0  0
  -16.7245  -28.6546   23.0321 C   0  0  0  0  0  0
  -26.4401  -31.6630   25.0718 C   0  0  0  0  0  0
  -25.3634  -31.3819   26.1463 C   0  0  0  0  0  0
  -27.0214  -30.3049   24.6136 C   0  0  0  0  0  0
  -27.5942  -32.4375   25.7511 C   0  0  0  0  0  0
  -27.5585  -37.1817   24.8442 C   0  0  0  0  0  0
  -21.4137  -29.3025   22.3751 N   0  0  0  0  0  0
  -26.4272  -37.3839   23.9427 N   0  0  0  0  0  0
  -24.6688  -31.0757   22.0963 N   0  0  0  0  0  0
  -23.4182  -28.8207   23.3076 O   0  0  0  0  0  0
  -28.3301  -26.6150   20.1492 O   0  0  0  0  0  0
  -26.5659  -34.8965   22.4696 O   0  0  0  0  0  0
  -23.5326  -32.1439   23.7439 O   0  0  0  0  0  0
  -29.6299  -17.8264   17.9020 C   0  0  0  0  0  0
  -29.8780  -16.6929   18.6879 C   0  0  0  0  0  0
  -29.2973  -19.0256   18.5424 C   0  0  0  0  0  0
  -29.7891  -16.7667   20.0980 C   0  0  0  0  0  0
  -29.2465  -19.0647   19.9481 C   0  0  0  0  0  0
  -28.5224  -24.1023   20.0101 C   0  0  0  0  0  0
  -28.7939  -21.5234   19.8916 C   0  0  0  0  0  0
  -28.1453  -25.3580   20.8446 C   0  0  0  0  0  0
  -28.5333  -22.7534   20.7989 C   0  0  1  0  0  0
  -29.4787  -17.9551   20.6980 N   0  0  0  0  0  0
  -29.9262  -15.5557   20.8538 N   0  0  0  0  0  0
  -28.9463  -20.2597   20.6306 N   0  0  0  0  0  0
  -29.5847  -22.7677   21.7505 O   0  0  0  0  0  0
  -31.4674  -12.4059   19.1201 H   0  0  0  0  0  0
  -30.3261  -11.2938   19.8205 H   0  0  0  0  0  0
  -29.7379  -11.7845   17.4217 H   0  0  0  0  0  0
  -29.6751  -13.4915   17.7680 H   0  0  0  0  0  0
  -27.8047  -11.3307   18.7858 H   0  0  0  0  0  0
  -27.3748  -12.6847   17.7807 H   0  0  0  0  0  0
  -27.7033  -14.2648   19.5808 H   0  0  0  0  0  0
  -28.6861  -11.9712   21.3420 H   0  0  0  0  0  0
  -28.4854  -13.6192   21.8680 H   0  0  0  0  0  0
  -25.2774   -9.5706   22.4733 H   0  0  0  0  0  0
  -24.0027   -7.4651   22.7453 H   0  0  0  0  0  0
  -21.0870   -8.8786   19.8949 H   0  0  0  0  0  0
  -22.3711  -10.9677   19.6138 H   0  0  0  0  0  0
  -21.1983   -7.6136   23.9719 H   0  0  0  0  0  0
  -21.1500   -6.0504   25.9082 H   0  0  0  0  0  0
  -22.0587   -2.7606   23.2829 H   0  0  0  0  0  0
  -22.4106  -11.9893   22.4814 H   0  0  0  0  0  0
  -21.1115  -13.1226   22.2573 H   0  0  0  0  0  0
  -24.6768  -15.8574   20.5264 H   0  0  0  0  0  0
  -26.2861  -15.6259   20.0767 H   0  0  0  0  0  0
  -26.7104  -32.5520   23.1133 H   0  0  0  0  0  0
  -24.9869  -33.9776   25.0295 H   0  0  0  0  0  0
  -22.6908  -31.3075   21.4125 H   0  0  0  0  0  0
  -23.3753  -35.9661   23.3250 H   0  0  0  0  0  0
  -24.3575  -36.9025   22.2066 H   0  0  0  0  0  0
  -23.7191  -37.6520   23.6697 H   0  0  0  0  0  0
  -26.0286  -31.5960   20.5795 H   0  0  0  0  0  0
  -26.8241  -30.8960   21.9633 H   0  0  0  0  0  0
  -28.1002  -29.0879   21.1549 H   0  0  0  0  0  0
  -26.0227  -25.9385   19.0651 H   0  0  0  0  0  0
  -23.9534  -27.2836   19.0607 H   0  0  0  0  0  0
  -23.7059  -30.5936   19.4022 H   0  0  0  0  0  0
  -22.7300  -29.2374   19.8747 H   0  0  0  0  0  0
  -25.1270  -36.1988   25.0810 H   0  0  0  0  0  0
  -20.9897  -28.3233   24.1474 H   0  0  0  0  0  0
  -20.5692  -26.2286   23.3631 H   0  0  0  0  0  0
  -21.6625  -26.7501   22.1213 H   0  0  0  0  0  0
  -19.6912  -25.6312   21.1255 H   0  0  0  0  0  0
  -19.6653  -27.3215   20.6782 H   0  0  0  0  0  0
  -17.4188  -26.6651   21.4048 H   0  0  0  0  0  0
  -18.0300  -26.0079   22.9039 H   0  0  0  0  0  0
  -19.7950  -30.7258   24.2256 H   0  0  0  0  0  0
  -17.5048  -31.6281   24.5208 H   0  0  0  0  0  0
  -15.5353  -30.3062   23.7665 H   0  0  0  0  0  0
  -15.8628  -28.0927   22.6990 H   0  0  0  0  0  0
  -24.5729  -30.7249   25.7810 H   0  0  0  0  0  0
  -24.8926  -32.3036   26.4908 H   0  0  0  0  0  0
  -25.7936  -30.8970   27.0230 H   0  0  0  0  0  0
  -26.2791  -29.6894   24.1051 H   0  0  0  0  0  0
  -27.3780  -29.7221   25.4635 H   0  0  0  0  0  0
  -27.8695  -30.4324   23.9410 H   0  0  0  0  0  0
  -27.2478  -33.3630   26.2128 H   0  0  0  0  0  0
  -28.3740  -32.7026   25.0360 H   0  0  0  0  0  0
  -28.0615  -31.8501   26.5421 H   0  0  0  0  0  0
  -28.2559  -38.0162   24.7597 H   0  0  0  0  0  0
  -28.1117  -36.2714   24.6109 H   0  0  0  0  0  0
  -27.2333  -37.1277   25.8844 H   0  0  0  0  0  0
  -20.9321  -29.8723   21.6935 H   0  0  0  0  0  0
  -26.0152  -38.2900   24.1500 H   0  0  0  0  0  0
  -29.6818  -17.7777   16.8218 H   0  0  0  0  0  0
  -30.1138  -15.7704   18.1808 H   0  0  0  0  0  0
  -29.0931  -19.8920   17.9301 H   0  0  0  0  0  0
  -29.4949  -24.2583   19.5438 H   0  0  0  0  0  0
  -27.8112  -24.0186   19.1876 H   0  0  0  0  0  0
  -29.6909  -21.6984   19.2957 H   0  0  0  0  0  0
  -27.9647  -21.4228   19.1898 H   0  0  0  0  0  0
  -28.7711  -25.4029   21.7348 H   0  0  0  0  0  0
  -27.1277  -25.2348   21.2223 H   0  0  0  0  0  0
  -27.5788  -22.6273   21.3185 H   0  0  0  0  0  0
  -29.1349  -15.3387   21.4344 H   0  0  0  0  0  0
  -29.1892  -20.3448   21.6125 H   0  0  0  0  0  0
  -29.4231  -23.4783   22.3638 H   0  0  0  0  0  0
  1 25  1  0  0  0
  1 30  2  0  0  0
  1 81  1  0  0  0
  2  3  1  0  0  0
  2 25  1  0  0  0
  2 84  1  0  0  0
  2 85  1  0  0  0
  3  4  1  0  0  0
  3 86  1  0  0  0
  3 87  1  0  0  0
  4  5  1  0  0  0
  4 88  1  0  0  0
  4 89  1  0  0  0
  5  6  1  0  0  0
  5 26  1  0  0  0
  5 90  1  0  0  0
  6 25  1  0  0  0
  6 91  1  0  0  0
  6 92  1  0  0  0
  7  8  2  0  0  0
  7 26  1  0  0  0
  7 29  1  0  0  0
  8  9  1  0  0  0
  8 22  1  0  0  0
  9 10  1  0  0  0
  9 27  2  0  0  0
 10 11  2  0  0  0
 10 15  1  0  0  0
 11 12  1  0  0  0
 11 93  1  0  0  0
 12 13  2  0  0  0
 12 94  1  0  0  0
 13 14  1  0  0  0
 13 31  1  0  0  0
 14 15  2  0  0  0
 14 95  1  0  0  0
 15 96  1  0  0  0
 16 17  2  0  0  0
 16 21  1  0  0  0
 16 31  1  0  0  0
 17 18  1  0  0  0
 17 97  1  0  0  0
 18 19  2  0  0  0
 18 98  1  0  0  0
 19 20  1  0  0  0
 19 24  1  0  0  0
 20 21  2  0  0  0
 20 99  1  0  0  0
 21 23  1  0  0  0
 22 28  1  0  0  0
 22 32  2  0  0  0
 26 27  1  0  0  0
 28100  1  0  0  0
 28101  1  0  0  0
 29102  1  0  0  0
 29103  1  0  0  0
 33 34  1  0  0  0
 33 66  1  0  0  0
 33 70  2  0  0  0
 34 36  1  0  0  0
 34 59  1  0  0  0
 34104  1  0  0  0
 35 44  2  0  0  0
 35 45  1  0  0  0
 35 68  1  0  0  0
 36 56  1  0  0  0
 36105  1  0  0  0
 37 39  1  0  0  0
 37 47  1  0  0  0
 37 66  1  0  0  0
 37106  1  0  0  0
 38 43  2  0  0  0
 38 46  1  0  0  0
 38 47  1  0  0  0
 39 64  1  0  0  0
 39 67  2  0  0  0
 40 52  1  0  0  0
 40 53  2  0  0  0
 40 58  1  0  0  0
 41107  1  0  0  0
 41108  1  0  0  0
 41109  1  0  0  0
 41 48  1  0  0  0
 42 43  1  0  0  0
 42 66  1  0  0  0
 42110  1  0  0  0
 42111  1  0  0  0
 43 44  1  0  0  0
 44112  1  0  0  0
 45 46  2  0  0  0
 45113  1  0  0  0
 46114  1  0  0  0
 47115  1  0  0  0
 47116  1  0  0  0
 48 56  1  0  0  0
 48 65  1  0  0  0
 48117  1  0  0  0
 49 50  1  0  0  0
 49 53  1  0  0  0
 49 64  1  0  0  0
 49118  1  0  0  0
 50 51  1  0  0  0
 50119  1  0  0  0
 50120  1  0  0  0
 51 52  1  0  0  0
 51121  1  0  0  0
 51122  1  0  0  0
 52123  1  0  0  0
 52124  1  0  0  0
 53 54  1  0  0  0
 54 55  2  0  0  0
 54125  1  0  0  0
 55 57  1  0  0  0
 55126  1  0  0  0
 56 69  2  0  0  0
 57 58  2  0  0  0
 57127  1  0  0  0
 58128  1  0  0  0
 59 60  1  0  0  0
 59 61  1  0  0  0
 59 62  1  0  0  0
 60129  1  0  0  0
 60130  1  0  0  0
 60131  1  0  0  0
 61132  1  0  0  0
 61133  1  0  0  0
 61134  1  0  0  0
 62135  1  0  0  0
 62136  1  0  0  0
 62137  1  0  0  0
 63 65  1  0  0  0
 63138  1  0  0  0
 63139  1  0  0  0
 63140  1  0  0  0
 64141  1  0  0  0
 65142  1  0  0  0
 68 78  1  0  0  0
 71 72  2  0  0  0
 71 73  1  0  0  0
 71143  1  0  0  0
 72 74  1  0  0  0
 72144  1  0  0  0
 73 75  2  0  0  0
 73145  1  0  0  0
 74 80  2  0  0  0
 74 81  1  0  0  0
 75 80  1  0  0  0
 75 82  1  0  0  0
 76 78  1  0  0  0
 76 79  1  0  0  0
 76146  1  0  0  0
 76147  1  0  0  0
 77 79  1  0  0  0
 77 82  1  0  0  0
 77148  1  0  0  0
 77149  1  0  0  0
 78150  1  0  0  0
 78151  1  0  0  0
 79 83  1  0  0  0
 79152  1  0  0  0
 81153  1  0  0  0
 82154  1  0  0  0
 83155  1  0  0  0
M  ISO  4   1 100  68 101  78 101  81 100
M  END
> <chiral flag>
0

> <version>
0

> <s_m_source_file>
/data/baiqing/PycharmProjects/Reinvent-master-3.2/result/LINK_invent/BTK/process_docking_weight1_custom_product_contain_oxygen_bond_distance_aromatic_linkinvent_7_9_3/rearranged_h_0194.sdf

> <i_m_source_file_index>
85

> <r_mmod_Potential_Energy-OPLS-2005>
-272.661346435547

> <r_mmod_Stretch_Energy-OPLS-2005>
41.2264938354492

> <r_mmod_Bend_Energy-OPLS-2005>
100.214324951172

> <r_mmod_Torsional_Energy-OPLS-2005>
281.6298828125

> <r_mmod_Improper_Torsional_Energy-OPLS-2005>
8.03507137298584

> <r_mmod_Van_der_Waal_Energy-OPLS-2005>
157.418533325195

> <r_mmod_Electrostatic_Energy-OPLS-2005>
-633.471313476562

> <r_mmod_Solvation_Energy-OPLS-2005>
-247.215301513672

> <b_mmod_Minimization_Converged-OPLS-2005>
0

> <r_mmod_RMS_Derivative-OPLS-2005>
3.92035269737244

$$$$
85
                    3D
 Structure written by MMmdl.
154162  0  0  1  0            999 V2000
  -30.6180  -14.7860   20.4368 C   0  0  0  0  0  0
  -30.4232  -12.4740   19.4964 C   0  0  0  0  0  0
  -29.5093  -12.5056   18.2521 C   0  0  0  0  0  0
  -28.0440  -12.2964   18.6715 C   0  0  0  0  0  0
  -27.6351  -13.2317   19.8391 C   0  0  2  0  0  0
  -28.6735  -13.2258   20.9818 C   0  0  0  0  0  0
  -25.2558  -13.8210   20.5734 C   0  0  0  0  0  0
  -24.1838  -13.0484   20.9194 C   0  0  0  0  0  0
  -24.6399  -11.6949   20.8781 C   0  0  0  0  0  0
  -23.9064  -10.4315   21.0426 C   0  0  0  0  0  0
  -24.3598   -9.4216   21.9198 C   0  0  0  0  0  0
  -23.6271   -8.2262   22.0741 C   0  0  0  0  0  0
  -22.4244   -8.0292   21.3557 C   0  0  0  0  0  0
  -21.9904   -9.0268   20.4656 C   0  0  0  0  0  0
  -22.7238  -10.2146   20.3076 C   0  0  0  0  0  0
  -21.6840   -6.0752   22.5312 C   0  0  0  0  0  0
  -21.4029   -6.5668   23.8244 C   0  0  0  0  0  0
  -21.3666   -5.6822   24.9199 C   0  0  0  0  0  0
  -21.6012   -4.3085   24.7258 C   0  0  0  0  0  0
  -21.8819   -3.8170   23.4393 C   0  0  0  0  0  0
  -21.9198   -4.6983   22.3436 C   0  0  0  0  0  0
  -22.7865  -13.5272   21.1863 C   0  0  0  0  0  0
  -22.1660   -4.2184   21.1010 F   0  0  0  0  0  0
  -21.5574   -3.4549   25.7762 F   0  0  0  0  0  0
  -29.9800  -13.5612   20.4008 N   0  0  0  0  0  0
  -26.2938  -12.9418   20.3265 N   0  0  0  0  0  0
  -25.9325  -11.6561   20.5767 N   0  0  0  0  0  0
  -22.0492  -12.8265   22.0404 N   0  0  0  0  0  0
  -25.4382  -15.1913   20.4191 N   0  0  0  0  0  0
  -31.8076  -14.8578   20.1237 O   0  0  0  0  0  0
  -21.6614   -6.8886   21.4256 O   0  0  0  0  0  0
  -22.3577  -14.5582   20.6691 O   0  0  0  0  0  0
  -24.6361  -31.8511   23.1937 C   0  0  0  0  0  0
  -25.9177  -32.4725   23.8262 C   0  0  1  0  0  0
  -27.1920  -27.2128   20.1111 C   0  0  0  0  0  0
  -25.5959  -33.8509   24.2186 N   0  0  0  0  0  0
  -23.4329  -30.4739   21.5397 C   0  0  2  0  0  0
  -24.8702  -28.9084   20.1106 C   0  0  0  0  0  0
  -22.7479  -29.4589   22.4884 C   0  0  0  0  0  0
  -18.0257  -28.1423   22.8459 C   0  0  0  0  0  0
  -24.1498  -36.7278   23.2637 C   0  0  0  0  0  0
  -25.9845  -30.7425   21.3841 C   0  0  0  0  0  0
  -26.0480  -29.3615   20.7209 C   0  0  0  0  0  0
  -27.2168  -28.5257   20.7028 C   0  0  0  0  0  0
  -25.9912  -26.8289   19.4873 C   0  0  0  0  0  0
  -24.8466  -27.6515   19.4856 C   0  0  0  0  0  0
  -23.6516  -29.8120   20.1545 C   0  0  0  0  0  0
  -25.4134  -36.3042   24.0301 C   0  0  1  0  0  0
  -20.5852  -28.3744   23.1249 C   0  0  2  0  0  0
  -20.6759  -26.9474   22.5397 C   0  0  0  0  0  0
  -19.5764  -26.6433   21.5197 C   0  0  0  0  0  0
  -18.1938  -26.7958   22.1599 C   0  0  0  0  0  0
  -19.1518  -28.8884   23.2853 C   0  0  0  0  0  0
  -18.9457  -30.1482   23.8896 C   0  0  0  0  0  0
  -17.6453  -30.6617   24.0579 C   0  0  0  0  0  0
  -25.9088  -34.9410   23.5052 C   0  0  0  0  0  0
  -16.5350  -29.9129   23.6307 C   0  0  0  0  0  0
  -16.7240  -28.6518   23.0370 C   0  0  0  0  0  0
  -26.4530  -31.6559   25.0660 C   0  0  0  0  0  0
  -25.3731  -31.3721   26.1367 C   0  0  0  0  0  0
  -27.0389  -30.2952   24.6188 C   0  0  0  0  0  0
  -27.6074  -32.4323   25.7456 C   0  0  0  0  0  0
  -27.5576  -37.1798   24.8458 C   0  0  0  0  0  0
  -21.4168  -29.3096   22.3642 N   0  0  0  0  0  0
  -26.4290  -37.3769   23.9394 N   0  0  0  0  0  0
  -24.7041  -31.0413   22.0953 N   0  0  0  0  0  0
  -23.4140  -28.8123   23.3002 O   0  0  0  0  0  0
  -28.2797  -26.3049   20.0675 O   0  0  0  0  0  0
  -26.5684  -34.8925   22.4626 O   0  0  0  0  0  0
  -23.5501  -32.1357   23.7219 O   0  0  0  0  0  0
  -29.2653  -18.6130   20.5221 C   0  0  0  0  0  0
  -27.2116  -19.2724   21.0309 C   0  0  0  0  0  0
  -28.6405  -20.8493   20.3816 C   0  0  0  0  0  0
  -28.4772  -23.7260   18.2162 C   0  0  0  0  0  0
  -30.3017  -17.4054   20.3869 C   0  0  0  0  0  0
  -28.1573  -24.8716   20.5680 C   0  0  0  0  0  0
  -28.1380  -23.4624   19.7016 C   0  0  2  0  0  0
  -28.0541  -18.2570   20.9328 N   0  0  0  0  0  0
  -29.6219  -19.9113   20.2448 N   0  0  0  0  0  0
  -27.4046  -20.5642   20.7738 N   0  0  0  0  0  0
  -25.9590  -18.9100   21.4261 N   0  0  0  0  0  0
  -28.9561  -22.2497   20.1850 N   0  0  0  0  0  0
  -29.8747  -15.9479   20.6122 N   0  0  0  0  0  0
  -31.4665  -12.5833   19.1974 H   0  0  0  0  0  0
  -30.3544  -11.5081   20.0026 H   0  0  0  0  0  0
  -29.8102  -11.7396   17.5347 H   0  0  0  0  0  0
  -29.6087  -13.4642   17.7409 H   0  0  0  0  0  0
  -27.9334  -11.2542   18.9752 H   0  0  0  0  0  0
  -27.3795  -12.4311   17.8154 H   0  0  0  0  0  0
  -27.6171  -14.2392   19.4200 H   0  0  0  0  0  0
  -28.7035  -12.2577   21.4876 H   0  0  0  0  0  0
  -28.3892  -13.9581   21.7391 H   0  0  0  0  0  0
  -25.2734   -9.5699   22.4788 H   0  0  0  0  0  0
  -24.0008   -7.4652   22.7462 H   0  0  0  0  0  0
  -21.0838   -8.8797   19.8953 H   0  0  0  0  0  0
  -22.3696  -10.9684   19.6201 H   0  0  0  0  0  0
  -21.2027   -7.6181   23.9774 H   0  0  0  0  0  0
  -21.1463   -6.0537   25.9108 H   0  0  0  0  0  0
  -22.0574   -2.7639   23.2892 H   0  0  0  0  0  0
  -22.4088  -11.9877   22.4747 H   0  0  0  0  0  0
  -21.1154  -13.1362   22.2641 H   0  0  0  0  0  0
  -24.6807  -15.8601   20.4878 H   0  0  0  0  0  0
  -26.3117  -15.6144   20.1286 H   0  0  0  0  0  0
  -26.7216  -32.5321   23.0973 H   0  0  0  0  0  0
  -25.0091  -33.9636   25.0315 H   0  0  0  0  0  0
  -22.7335  -31.2995   21.3903 H   0  0  0  0  0  0
  -23.3765  -35.9612   23.3312 H   0  0  0  0  0  0
  -24.3582  -36.8901   22.2052 H   0  0  0  0  0  0
  -23.7272  -37.6467   23.6685 H   0  0  0  0  0  0
  -26.1378  -31.5056   20.6216 H   0  0  0  0  0  0
  -26.8624  -30.7824   22.0186 H   0  0  0  0  0  0
  -28.1284  -28.8627   21.1765 H   0  0  0  0  0  0
  -25.9342  -25.8709   18.9871 H   0  0  0  0  0  0
  -23.9434  -27.3051   19.0015 H   0  0  0  0  0  0
  -23.7961  -30.5947   19.4098 H   0  0  0  0  0  0
  -22.7655  -29.2593   19.8359 H   0  0  0  0  0  0
  -25.1325  -36.1866   25.0796 H   0  0  0  0  0  0
  -20.9911  -28.3378   24.1395 H   0  0  0  0  0  0
  -20.5683  -26.2359   23.3585 H   0  0  0  0  0  0
  -21.6616  -26.7536   22.1159 H   0  0  0  0  0  0
  -19.6967  -25.6342   21.1252 H   0  0  0  0  0  0
  -19.6742  -27.3225   20.6726 H   0  0  0  0  0  0
  -17.4205  -26.6663   21.4023 H   0  0  0  0  0  0
  -18.0403  -26.0102   22.9010 H   0  0  0  0  0  0
  -19.7934  -30.7234   24.2298 H   0  0  0  0  0  0
  -17.5029  -31.6300   24.5175 H   0  0  0  0  0  0
  -15.5364  -30.3036   23.7623 H   0  0  0  0  0  0
  -15.8636  -28.0812   22.7107 H   0  0  0  0  0  0
  -24.5926  -30.7068   25.7660 H   0  0  0  0  0  0
  -24.8917  -32.2897   26.4742 H   0  0  0  0  0  0
  -25.8026  -30.8898   27.0153 H   0  0  0  0  0  0
  -26.2950  -29.6684   24.1257 H   0  0  0  0  0  0
  -27.4078  -29.7231   25.4701 H   0  0  0  0  0  0
  -27.8837  -30.4178   23.9425 H   0  0  0  0  0  0
  -27.2655  -33.3631   26.2009 H   0  0  0  0  0  0
  -28.3920  -32.6890   25.0319 H   0  0  0  0  0  0
  -28.0733  -31.8468   26.5395 H   0  0  0  0  0  0
  -28.2599  -38.0099   24.7512 H   0  0  0  0  0  0
  -28.1079  -36.2612   24.6290 H   0  0  0  0  0  0
  -27.2289  -37.1456   25.8868 H   0  0  0  0  0  0
  -20.9330  -29.8810   21.6852 H   0  0  0  0  0  0
  -26.0153  -38.2826   24.1423 H   0  0  0  0  0  0
  -28.3549  -22.8198   17.6209 H   0  0  0  0  0  0
  -29.5092  -24.0638   18.0866 H   0  0  0  0  0  0
  -27.8287  -24.4841   17.7662 H   0  0  0  0  0  0
  -30.7226  -17.4650   19.3806 H   0  0  0  0  0  0
  -31.1323  -17.6270   21.0626 H   0  0  0  0  0  0
  -29.0130  -24.7809   21.2329 H   0  0  0  0  0  0
  -27.3060  -24.8436   21.2489 H   0  0  0  0  0  0
  -27.0979  -23.1267   19.7078 H   0  0  0  0  0  0
  -25.3551  -19.6380   21.7856 H   0  0  0  0  0  0
  -25.8635  -18.0121   21.8822 H   0  0  0  0  0  0
  -29.9381  -22.3544   19.9683 H   0  0  0  0  0  0
  -28.8987  -15.8543   20.8492 H   0  0  0  0  0  0
  1 25  1  0  0  0
  1 30  2  0  0  0
  1 83  1  0  0  0
  2  3  1  0  0  0
  2 25  1  0  0  0
  2 84  1  0  0  0
  2 85  1  0  0  0
  3  4  1  0  0  0
  3 86  1  0  0  0
  3 87  1  0  0  0
  4  5  1  0  0  0
  4 88  1  0  0  0
  4 89  1  0  0  0
  5  6  1  0  0  0
  5 26  1  0  0  0
  5 90  1  0  0  0
  6 25  1  0  0  0
  6 91  1  0  0  0
  6 92  1  0  0  0
  7  8  2  0  0  0
  7 26  1  0  0  0
  7 29  1  0  0  0
  8  9  1  0  0  0
  8 22  1  0  0  0
  9 10  1  0  0  0
  9 27  2  0  0  0
 10 11  2  0  0  0
 10 15  1  0  0  0
 11 12  1  0  0  0
 11 93  1  0  0  0
 12 13  2  0  0  0
 12 94  1  0  0  0
 13 14  1  0  0  0
 13 31  1  0  0  0
 14 15  2  0  0  0
 14 95  1  0  0  0
 15 96  1  0  0  0
 16 17  2  0  0  0
 16 21  1  0  0  0
 16 31  1  0  0  0
 17 18  1  0  0  0
 17 97  1  0  0  0
 18 19  2  0  0  0
 18 98  1  0  0  0
 19 20  1  0  0  0
 19 24  1  0  0  0
 20 21  2  0  0  0
 20 99  1  0  0  0
 21 23  1  0  0  0
 22 28  1  0  0  0
 22 32  2  0  0  0
 26 27  1  0  0  0
 28100  1  0  0  0
 28101  1  0  0  0
 29102  1  0  0  0
 29103  1  0  0  0
 33 34  1  0  0  0
 33 66  1  0  0  0
 33 70  2  0  0  0
 34 36  1  0  0  0
 34 59  1  0  0  0
 34104  1  0  0  0
 35 44  2  0  0  0
 35 45  1  0  0  0
 35 68  1  0  0  0
 36 56  1  0  0  0
 36105  1  0  0  0
 37 39  1  0  0  0
 37 47  1  0  0  0
 37 66  1  0  0  0
 37106  1  0  0  0
 38 43  2  0  0  0
 38 46  1  0  0  0
 38 47  1  0  0  0
 39 64  1  0  0  0
 39 67  2  0  0  0
 40 52  1  0  0  0
 40 53  2  0  0  0
 40 58  1  0  0  0
 41107  1  0  0  0
 41108  1  0  0  0
 41109  1  0  0  0
 41 48  1  0  0  0
 42 43  1  0  0  0
 42 66  1  0  0  0
 42110  1  0  0  0
 42111  1  0  0  0
 43 44  1  0  0  0
 44112  1  0  0  0
 45 46  2  0  0  0
 45113  1  0  0  0
 46114  1  0  0  0
 47115  1  0  0  0
 47116  1  0  0  0
 48 56  1  0  0  0
 48 65  1  0  0  0
 48117  1  0  0  0
 49 50  1  0  0  0
 49 53  1  0  0  0
 49 64  1  0  0  0
 49118  1  0  0  0
 50 51  1  0  0  0
 50119  1  0  0  0
 50120  1  0  0  0
 51 52  1  0  0  0
 51121  1  0  0  0
 51122  1  0  0  0
 52123  1  0  0  0
 52124  1  0  0  0
 53 54  1  0  0  0
 54 55  2  0  0  0
 54125  1  0  0  0
 55 57  1  0  0  0
 55126  1  0  0  0
 56 69  2  0  0  0
 57 58  2  0  0  0
 57127  1  0  0  0
 58128  1  0  0  0
 59 60  1  0  0  0
 59 61  1  0  0  0
 59 62  1  0  0  0
 60129  1  0  0  0
 60130  1  0  0  0
 60131  1  0  0  0
 61132  1  0  0  0
 61133  1  0  0  0
 61134  1  0  0  0
 62135  1  0  0  0
 62136  1  0  0  0
 62137  1  0  0  0
 63 65  1  0  0  0
 63138  1  0  0  0
 63139  1  0  0  0
 63140  1  0  0  0
 64141  1  0  0  0
 65142  1  0  0  0
 68 76  1  0  0  0
 71 75  1  0  0  0
 71 78  1  0  0  0
 71 79  2  0  0  0
 72 78  2  0  0  0
 72 80  1  0  0  0
 72 81  1  0  0  0
 73 79  1  0  0  0
 73 80  2  0  0  0
 73 82  1  0  0  0
 74143  1  0  0  0
 74144  1  0  0  0
 74145  1  0  0  0
 74 77  1  0  0  0
 75 83  1  0  0  0
 75146  1  0  0  0
 75147  1  0  0  0
 76 77  1  0  0  0
 76148  1  0  0  0
 76149  1  0  0  0
 77 82  1  0  0  0
 77150  1  0  0  0
 81151  1  0  0  0
 81152  1  0  0  0
 82153  1  0  0  0
 83154  1  0  0  0
M  ISO  4   1 100  68 101  76 101  83 100
M  END
> <chiral flag>
0

> <version>
0

> <s_m_source_file>
/data/baiqing/PycharmProjects/Reinvent-master-3.2/result/LINK_invent/BTK/process_docking_weight1_custom_product_contain_oxygen_bond_distance_aromatic_linkinvent_7_9_3/rearranged_h_0194.sdf

> <i_m_source_file_index>
86

> <r_mmod_Potential_Energy-OPLS-2005>
-887.424560546875

> <r_mmod_Stretch_Energy-OPLS-2005>
139.992568969727

> <r_mmod_Bend_Energy-OPLS-2005>
198.147796630859

> <r_mmod_Torsional_Energy-OPLS-2005>
234.474914550781

> <r_mmod_Improper_Torsional_Energy-OPLS-2005>
9.71615505218506

> <r_mmod_Van_der_Waal_Energy-OPLS-2005>
143.857513427734

> <r_mmod_Electrostatic_Energy-OPLS-2005>
-1484.69543457031

> <r_mmod_Solvation_Energy-OPLS-2005>
-239.072204589844

> <b_mmod_Minimization_Converged-OPLS-2005>
0

> <r_mmod_RMS_Derivative-OPLS-2005>
6.60506629943848

$$$$
86
                    3D
 Structure written by MMmdl.
147155  0  0  1  0            999 V2000
  -30.6610  -14.6728   20.4607 C   0  0  0  0  0  0
  -30.4208  -12.4052   19.4782 C   0  0  0  0  0  0
  -29.5092  -12.4908   18.2354 C   0  0  0  0  0  0
  -28.0336  -12.3145   18.6432 C   0  0  0  0  0  0
  -27.6377  -13.2184   19.8396 C   0  0  2  0  0  0
  -28.6785  -13.1624   20.9789 C   0  0  0  0  0  0
  -25.2532  -13.8170   20.5693 C   0  0  0  0  0  0
  -24.1802  -13.0433   20.9176 C   0  0  0  0  0  0
  -24.6380  -11.6904   20.8730 C   0  0  0  0  0  0
  -23.9061  -10.4288   21.0407 C   0  0  0  0  0  0
  -24.3617   -9.4204   21.9180 C   0  0  0  0  0  0
  -23.6294   -8.2238   22.0752 C   0  0  0  0  0  0
  -22.4273   -8.0276   21.3544 C   0  0  0  0  0  0
  -21.9911   -9.0250   20.4644 C   0  0  0  0  0  0
  -22.7239  -10.2131   20.3054 C   0  0  0  0  0  0
  -21.6851   -6.0732   22.5280 C   0  0  0  0  0  0
  -21.4015   -6.5636   23.8216 C   0  0  0  0  0  0
  -21.3664   -5.6789   24.9179 C   0  0  0  0  0  0
  -21.6048   -4.3053   24.7231 C   0  0  0  0  0  0
  -21.8821   -3.8144   23.4350 C   0  0  0  0  0  0
  -21.9193   -4.6959   22.3403 C   0  0  0  0  0  0
  -22.7830  -13.5214   21.1866 C   0  0  0  0  0  0
  -22.1659   -4.2140   21.0981 F   0  0  0  0  0  0
  -21.5633   -3.4539   25.7744 F   0  0  0  0  0  0
  -29.9932  -13.4723   20.4092 N   0  0  0  0  0  0
  -26.2921  -12.9343   20.3231 N   0  0  0  0  0  0
  -25.9300  -11.6501   20.5721 N   0  0  0  0  0  0
  -22.0486  -12.8197   22.0421 N   0  0  0  0  0  0
  -25.4312  -15.1895   20.4213 N   0  0  0  0  0  0
  -31.8603  -14.7147   20.1679 O   0  0  0  0  0  0
  -21.6637   -6.8875   21.4243 O   0  0  0  0  0  0
  -22.3505  -14.5518   20.6717 O   0  0  0  0  0  0
  -24.6248  -31.8596   23.2010 C   0  0  0  0  0  0
  -25.9100  -32.4777   23.8340 C   0  0  1  0  0  0
  -27.2262  -27.3302   20.1251 C   0  0  0  0  0  0
  -25.5935  -33.8581   24.2283 N   0  0  0  0  0  0
  -23.4179  -30.4795   21.5444 C   0  0  2  0  0  0
  -24.8654  -28.9285   20.1152 C   0  0  0  0  0  0
  -22.7462  -29.4615   22.4958 C   0  0  0  0  0  0
  -18.0285  -28.1364   22.8481 C   0  0  0  0  0  0
  -24.1497  -36.7289   23.2634 C   0  0  0  0  0  0
  -25.9559  -30.7945   21.3678 C   0  0  0  0  0  0
  -26.0325  -29.4201   20.7145 C   0  0  0  0  0  0
  -27.2200  -28.6336   20.7048 C   0  0  0  0  0  0
  -26.0415  -26.8786   19.5102 C   0  0  0  0  0  0
  -24.8709  -27.6632   19.5027 C   0  0  0  0  0  0
  -23.6311  -29.8063   20.1621 C   0  0  0  0  0  0
  -25.4124  -36.3086   24.0328 C   0  0  1  0  0  0
  -20.5878  -28.3669   23.1289 C   0  0  2  0  0  0
  -20.6770  -26.9394   22.5409 C   0  0  0  0  0  0
  -19.5752  -26.6367   21.5203 C   0  0  0  0  0  0
  -18.1932  -26.7909   22.1614 C   0  0  0  0  0  0
  -19.1534  -28.8836   23.2876 C   0  0  0  0  0  0
  -18.9456  -30.1443   23.8881 C   0  0  0  0  0  0
  -17.6457  -30.6567   24.0557 C   0  0  0  0  0  0
  -25.9055  -34.9453   23.5105 C   0  0  0  0  0  0
  -16.5349  -29.9062   23.6329 C   0  0  0  0  0  0
  -16.7272  -28.6480   23.0346 C   0  0  0  0  0  0
  -26.4492  -31.6577   25.0701 C   0  0  0  0  0  0
  -25.3738  -31.3698   26.1435 C   0  0  0  0  0  0
  -27.0327  -30.3008   24.6129 C   0  0  0  0  0  0
  -27.6070  -32.4287   25.7468 C   0  0  0  0  0  0
  -27.5590  -37.1798   24.8462 C   0  0  0  0  0  0
  -21.4178  -29.3028   22.3694 N   0  0  0  0  0  0
  -26.4301  -37.3783   23.9406 N   0  0  0  0  0  0
  -24.6848  -31.0616   22.0950 N   0  0  0  0  0  0
  -23.4188  -28.8163   23.3042 O   0  0  0  0  0  0
  -28.3487  -26.5000   20.1207 O   0  0  0  0  0  0
  -26.5616  -34.8919   22.4665 O   0  0  0  0  0  0
  -23.5419  -32.1389   23.7348 O   0  0  0  0  0  0
  -29.9385  -16.0464   20.6279 C   0  0  0  0  0  0
  -29.4783  -18.5245   20.6141 C   0  0  0  0  0  0
  -29.0021  -22.5409   20.6691 C   0  0  0  0  0  0
  -28.5331  -23.8428   19.8995 C   0  0  0  0  0  0
  -28.6544  -21.0918   20.1409 C   0  0  0  0  0  0
  -28.2314  -25.1626   20.7442 C   0  0  0  0  0  0
  -28.6469  -16.3769   20.3977 N   0  0  0  0  0  0
  -28.3900  -17.7731   20.3776 N   0  0  0  0  0  0
  -29.5125  -19.9537   20.6132 N   0  0  0  0  0  0
  -29.6929  -22.6440   21.6873 O   0  0  0  0  0  0
  -30.9257  -17.5225   20.9021 S   0  0  0  0  0  0
  -31.4676  -12.4968   19.1834 H   0  0  0  0  0  0
  -30.3319  -11.4286   19.9563 H   0  0  0  0  0  0
  -29.7899  -11.7289   17.5073 H   0  0  0  0  0  0
  -29.6459  -13.4544   17.7408 H   0  0  0  0  0  0
  -27.8897  -11.2664   18.9085 H   0  0  0  0  0  0
  -27.3803  -12.5071   17.7915 H   0  0  0  0  0  0
  -27.6229  -14.2285   19.4369 H   0  0  0  0  0  0
  -28.6911  -12.1745   21.4419 H   0  0  0  0  0  0
  -28.4213  -13.8677   21.7706 H   0  0  0  0  0  0
  -25.2771   -9.5671   22.4740 H   0  0  0  0  0  0
  -24.0007   -7.4627   22.7469 H   0  0  0  0  0  0
  -21.0844   -8.8777   19.8938 H   0  0  0  0  0  0
  -22.3714  -10.9671   19.6152 H   0  0  0  0  0  0
  -21.2006   -7.6144   23.9714 H   0  0  0  0  0  0
  -21.1483   -6.0523   25.9080 H   0  0  0  0  0  0
  -22.0595   -2.7606   23.2861 H   0  0  0  0  0  0
  -22.4127  -11.9865   22.4805 H   0  0  0  0  0  0
  -21.1099  -13.1199   22.2632 H   0  0  0  0  0  0
  -24.6852  -15.8583   20.5736 H   0  0  0  0  0  0
  -26.3220  -15.6303   20.2115 H   0  0  0  0  0  0
  -26.7168  -32.5452   23.1091 H   0  0  0  0  0  0
  -25.0137  -33.9737   25.0466 H   0  0  0  0  0  0
  -22.7106  -31.2985   21.3989 H   0  0  0  0  0  0
  -23.3772  -35.9608   23.3281 H   0  0  0  0  0  0
  -24.3589  -36.8921   22.2049 H   0  0  0  0  0  0
  -23.7233  -37.6480   23.6665 H   0  0  0  0  0  0
  -26.0846  -31.5553   20.5964 H   0  0  0  0  0  0
  -26.8377  -30.8459   21.9949 H   0  0  0  0  0  0
  -28.1210  -29.0091   21.1696 H   0  0  0  0  0  0
  -26.0231  -25.9067   19.0375 H   0  0  0  0  0  0
  -23.9779  -27.2808   19.0283 H   0  0  0  0  0  0
  -23.7430  -30.5768   19.3984 H   0  0  0  0  0  0
  -22.7534  -29.2279   19.8681 H   0  0  0  0  0  0
  -25.1304  -36.1941   25.0821 H   0  0  0  0  0  0
  -20.9975  -28.3231   24.1407 H   0  0  0  0  0  0
  -20.5657  -26.2274   23.3601 H   0  0  0  0  0  0
  -21.6644  -26.7410   22.1215 H   0  0  0  0  0  0
  -19.6916  -25.6279   21.1227 H   0  0  0  0  0  0
  -19.6689  -27.3176   20.6732 H   0  0  0  0  0  0
  -17.4203  -26.6654   21.4014 H   0  0  0  0  0  0
  -18.0333  -26.0043   22.9003 H   0  0  0  0  0  0
  -19.7933  -30.7269   24.2231 H   0  0  0  0  0  0
  -17.5007  -31.6246   24.5159 H   0  0  0  0  0  0
  -15.5348  -30.2957   23.7656 H   0  0  0  0  0  0
  -15.8674  -28.0798   22.7062 H   0  0  0  0  0  0
  -24.5922  -30.7040   25.7755 H   0  0  0  0  0  0
  -24.8922  -32.2857   26.4870 H   0  0  0  0  0  0
  -25.8076  -30.8866   27.0200 H   0  0  0  0  0  0
  -26.2883  -29.6756   24.1186 H   0  0  0  0  0  0
  -27.4077  -29.7261   25.4606 H   0  0  0  0  0  0
  -27.8729  -30.4305   23.9304 H   0  0  0  0  0  0
  -27.2719  -33.3605   26.2035 H   0  0  0  0  0  0
  -28.3892  -32.6803   25.0292 H   0  0  0  0  0  0
  -28.0723  -31.8404   26.5388 H   0  0  0  0  0  0
  -28.2598  -38.0106   24.7538 H   0  0  0  0  0  0
  -28.1098  -36.2638   24.6263 H   0  0  0  0  0  0
  -27.2308  -37.1417   25.8864 H   0  0  0  0  0  0
  -20.9354  -29.8748   21.6902 H   0  0  0  0  0  0
  -26.0182  -38.2859   24.1407 H   0  0  0  0  0  0
  -27.6667  -23.5954   19.2870 H   0  0  0  0  0  0
  -29.3363  -24.0699   19.1995 H   0  0  0  0  0  0
  -28.6818  -21.1188   19.0512 H   0  0  0  0  0  0
  -27.6199  -20.8807   20.4131 H   0  0  0  0  0  0
  -28.9205  -25.1898   21.5885 H   0  0  0  0  0  0
  -27.2473  -25.0521   21.2029 H   0  0  0  0  0  0
  -30.4126  -20.3066   20.9253 H   0  0  0  0  0  0
  1 25  1  0  0  0
  1 30  2  0  0  0
  1 71  1  0  0  0
  2  3  1  0  0  0
  2 25  1  0  0  0
  2 82  1  0  0  0
  2 83  1  0  0  0
  3  4  1  0  0  0
  3 84  1  0  0  0
  3 85  1  0  0  0
  4  5  1  0  0  0
  4 86  1  0  0  0
  4 87  1  0  0  0
  5  6  1  0  0  0
  5 26  1  0  0  0
  5 88  1  0  0  0
  6 25  1  0  0  0
  6 89  1  0  0  0
  6 90  1  0  0  0
  7  8  2  0  0  0
  7 26  1  0  0  0
  7 29  1  0  0  0
  8  9  1  0  0  0
  8 22  1  0  0  0
  9 10  1  0  0  0
  9 27  2  0  0  0
 10 11  2  0  0  0
 10 15  1  0  0  0
 11 12  1  0  0  0
 11 91  1  0  0  0
 12 13  2  0  0  0
 12 92  1  0  0  0
 13 14  1  0  0  0
 13 31  1  0  0  0
 14 15  2  0  0  0
 14 93  1  0  0  0
 15 94  1  0  0  0
 16 17  2  0  0  0
 16 21  1  0  0  0
 16 31  1  0  0  0
 17 18  1  0  0  0
 17 95  1  0  0  0
 18 19  2  0  0  0
 18 96  1  0  0  0
 19 20  1  0  0  0
 19 24  1  0  0  0
 20 21  2  0  0  0
 20 97  1  0  0  0
 21 23  1  0  0  0
 22 28  1  0  0  0
 22 32  2  0  0  0
 26 27  1  0  0  0
 28 98  1  0  0  0
 28 99  1  0  0  0
 29100  1  0  0  0
 29101  1  0  0  0
 33 34  1  0  0  0
 33 66  1  0  0  0
 33 70  2  0  0  0
 34 36  1  0  0  0
 34 59  1  0  0  0
 34102  1  0  0  0
 35 44  2  0  0  0
 35 45  1  0  0  0
 35 68  1  0  0  0
 36 56  1  0  0  0
 36103  1  0  0  0
 37 39  1  0  0  0
 37 47  1  0  0  0
 37 66  1  0  0  0
 37104  1  0  0  0
 38 43  2  0  0  0
 38 46  1  0  0  0
 38 47  1  0  0  0
 39 64  1  0  0  0
 39 67  2  0  0  0
 40 52  1  0  0  0
 40 53  2  0  0  0
 40 58  1  0  0  0
 41105  1  0  0  0
 41106  1  0  0  0
 41107  1  0  0  0
 41 48  1  0  0  0
 42 43  1  0  0  0
 42 66  1  0  0  0
 42108  1  0  0  0
 42109  1  0  0  0
 43 44  1  0  0  0
 44110  1  0  0  0
 45 46  2  0  0  0
 45111  1  0  0  0
 46112  1  0  0  0
 47113  1  0  0  0
 47114  1  0  0  0
 48 56  1  0  0  0
 48 65  1  0  0  0
 48115  1  0  0  0
 49 50  1  0  0  0
 49 53  1  0  0  0
 49 64  1  0  0  0
 49116  1  0  0  0
 50 51  1  0  0  0
 50117  1  0  0  0
 50118  1  0  0  0
 51 52  1  0  0  0
 51119  1  0  0  0
 51120  1  0  0  0
 52121  1  0  0  0
 52122  1  0  0  0
 53 54  1  0  0  0
 54 55  2  0  0  0
 54123  1  0  0  0
 55 57  1  0  0  0
 55124  1  0  0  0
 56 69  2  0  0  0
 57 58  2  0  0  0
 57125  1  0  0  0
 58126  1  0  0  0
 59 60  1  0  0  0
 59 61  1  0  0  0
 59 62  1  0  0  0
 60127  1  0  0  0
 60128  1  0  0  0
 60129  1  0  0  0
 61130  1  0  0  0
 61131  1  0  0  0
 61132  1  0  0  0
 62133  1  0  0  0
 62134  1  0  0  0
 62135  1  0  0  0
 63 65  1  0  0  0
 63136  1  0  0  0
 63137  1  0  0  0
 63138  1  0  0  0
 64139  1  0  0  0
 65140  1  0  0  0
 68 76  1  0  0  0
 71 77  2  0  0  0
 71 81  1  0  0  0
 72 78  2  0  0  0
 72 79  1  0  0  0
 72 81  1  0  0  0
 73 74  1  0  0  0
 73 75  1  0  0  0
 73 80  2  0  0  0
 74 76  1  0  0  0
 74141  1  0  0  0
 74142  1  0  0  0
 75 79  1  0  0  0
 75143  1  0  0  0
 75144  1  0  0  0
 76145  1  0  0  0
 76146  1  0  0  0
 77 78  1  0  0  0
 79147  1  0  0  0
M  ISO  4   1 100  68 101  71 100  76 101
M  END
> <chiral flag>
0

> <version>
0

> <s_m_source_file>
/data/baiqing/PycharmProjects/Reinvent-master-3.2/result/LINK_invent/BTK/process_docking_weight1_custom_product_contain_oxygen_bond_distance_aromatic_linkinvent_7_9_3/rearranged_h_0194.sdf

> <i_m_source_file_index>
87

> <r_mmod_Potential_Energy-OPLS-2005>
27.4749927520752

> <r_mmod_Stretch_Energy-OPLS-2005>
78.6383819580078

> <r_mmod_Bend_Energy-OPLS-2005>
137.691329956055

> <r_mmod_Torsional_Energy-OPLS-2005>
214.152633666992

> <r_mmod_Improper_Torsional_Energy-OPLS-2005>
5.9355297088623

> <r_mmod_Van_der_Waal_Energy-OPLS-2005>
114.80590057373

> <r_mmod_Electrostatic_Energy-OPLS-2005>
-356.828643798828

> <r_mmod_Solvation_Energy-OPLS-2005>
-222.083694458008

> <b_mmod_Minimization_Converged-OPLS-2005>
0

> <r_mmod_RMS_Derivative-OPLS-2005>
1.16427993774414

$$$$
87
                    3D
 Structure written by MMmdl.
158166  0  0  1  0            999 V2000
  -30.7070  -14.5060   20.5658 C   0  0  0  0  0  0
  -30.4237  -12.3287   19.4324 C   0  0  0  0  0  0
  -29.4969  -12.5029   18.2120 C   0  0  0  0  0  0
  -28.0197  -12.3580   18.6250 C   0  0  0  0  0  0
  -27.6596  -13.2128   19.8697 C   0  0  2  0  0  0
  -28.7023  -13.0266   20.9957 C   0  0  0  0  0  0
  -25.2585  -13.8172   20.5672 C   0  0  0  0  0  0
  -24.1840  -13.0445   20.9178 C   0  0  0  0  0  0
  -24.6396  -11.6912   20.8730 C   0  0  0  0  0  0
  -23.9058  -10.4298   21.0399 C   0  0  0  0  0  0
  -24.3612   -9.4215   21.9176 C   0  0  0  0  0  0
  -23.6290   -8.2250   22.0751 C   0  0  0  0  0  0
  -22.4274   -8.0282   21.3541 C   0  0  0  0  0  0
  -21.9905   -9.0254   20.4646 C   0  0  0  0  0  0
  -22.7230  -10.2136   20.3051 C   0  0  0  0  0  0
  -21.6853   -6.0734   22.5275 C   0  0  0  0  0  0
  -21.4017   -6.5638   23.8209 C   0  0  0  0  0  0
  -21.3662   -5.6791   24.9172 C   0  0  0  0  0  0
  -21.6046   -4.3054   24.7223 C   0  0  0  0  0  0
  -21.8823   -3.8144   23.4344 C   0  0  0  0  0  0
  -21.9195   -4.6962   22.3400 C   0  0  0  0  0  0
  -22.7863  -13.5241   21.1845 C   0  0  0  0  0  0
  -22.1662   -4.2148   21.0977 F   0  0  0  0  0  0
  -21.5628   -3.4538   25.7736 F   0  0  0  0  0  0
  -30.0295  -13.3305   20.4373 N   0  0  0  0  0  0
  -26.3020  -12.9350   20.3341 N   0  0  0  0  0  0
  -25.9326  -11.6504   20.5756 N   0  0  0  0  0  0
  -22.0505  -12.8235   22.0404 N   0  0  0  0  0  0
  -25.4312  -15.1887   20.4065 N   0  0  0  0  0  0
  -31.8399  -14.6678   20.1070 O   0  0  0  0  0  0
  -21.6640   -6.8876   21.4237 O   0  0  0  0  0  0
  -22.3543  -14.5545   20.6693 O   0  0  0  0  0  0
  -24.6195  -31.8668   23.2106 C   0  0  0  0  0  0
  -25.9073  -32.4818   23.8403 C   0  0  1  0  0  0
  -27.2204  -27.3863   20.0954 C   0  0  0  0  0  0
  -25.5918  -33.8618   24.2328 N   0  0  0  0  0  0
  -23.4087  -30.4948   21.5524 C   0  0  2  0  0  0
  -24.8521  -28.9659   20.1101 C   0  0  0  0  0  0
  -22.7436  -29.4664   22.4969 C   0  0  0  0  0  0
  -18.0280  -28.1379   22.8491 C   0  0  0  0  0  0
  -24.1489  -36.7312   23.2637 C   0  0  0  0  0  0
  -25.9456  -30.8161   21.3744 C   0  0  0  0  0  0
  -26.0187  -29.4508   20.7146 C   0  0  0  0  0  0
  -27.2050  -28.6694   20.7058 C   0  0  0  0  0  0
  -26.0322  -26.9506   19.4561 C   0  0  0  0  0  0
  -24.8568  -27.7169   19.4763 C   0  0  0  0  0  0
  -23.6178  -29.8374   20.1644 C   0  0  0  0  0  0
  -25.4111  -36.3110   24.0335 C   0  0  1  0  0  0
  -20.5875  -28.3677   23.1300 C   0  0  2  0  0  0
  -20.6772  -26.9409   22.5409 C   0  0  0  0  0  0
  -19.5747  -26.6386   21.5210 C   0  0  0  0  0  0
  -18.1927  -26.7925   22.1625 C   0  0  0  0  0  0
  -19.1530  -28.8844   23.2894 C   0  0  0  0  0  0
  -18.9456  -30.1448   23.8907 C   0  0  0  0  0  0
  -17.6457  -30.6584   24.0566 C   0  0  0  0  0  0
  -25.9042  -34.9475   23.5127 C   0  0  0  0  0  0
  -16.5349  -29.9084   23.6327 C   0  0  0  0  0  0
  -16.7269  -28.6501   23.0350 C   0  0  0  0  0  0
  -26.4479  -31.6605   25.0744 C   0  0  0  0  0  0
  -25.3731  -31.3724   26.1483 C   0  0  0  0  0  0
  -27.0310  -30.3039   24.6151 C   0  0  0  0  0  0
  -27.6053  -32.4328   25.7503 C   0  0  0  0  0  0
  -27.5582  -37.1813   24.8464 C   0  0  0  0  0  0
  -21.4159  -29.3045   22.3703 N   0  0  0  0  0  0
  -26.4297  -37.3794   23.9406 N   0  0  0  0  0  0
  -24.6765  -31.0736   22.1032 N   0  0  0  0  0  0
  -23.4191  -28.8191   23.3012 O   0  0  0  0  0  0
  -28.3522  -26.5728   20.1506 O   0  0  0  0  0  0
  -26.5600  -34.8926   22.4686 O   0  0  0  0  0  0
  -23.5376  -32.1442   23.7471 O   0  0  0  0  0  0
  -29.5404  -17.7805   18.9285 C   0  0  0  0  0  0
  -29.9829  -18.0219   20.2587 C   0  0  0  0  0  0
  -29.0972  -18.9106   18.2191 C   0  0  0  0  0  0
  -29.5628  -20.2816   19.9631 C   0  0  0  0  0  0
  -30.5246  -16.9332   21.2169 C   0  0  0  0  0  0
  -28.8554  -22.6934   19.8702 C   0  0  0  0  0  0
  -28.1228  -25.1520   19.9250 C   0  0  0  0  0  0
  -29.1788  -24.1162   20.4281 C   0  0  1  0  0  0
  -29.9887  -19.2936   20.7498 N   0  0  0  0  0  0
  -29.1086  -20.1442   18.7262 N   0  0  0  0  0  0
  -29.5662  -16.5357   18.2833 N   0  0  0  0  0  0
  -28.6403  -18.7902   16.9146 N   0  0  0  0  0  0
  -29.6270  -21.5795   20.4541 N   0  0  0  0  0  0
  -30.0250  -15.5441   21.0858 N   0  0  0  0  0  0
  -29.0874  -24.0217   21.8410 O   0  0  0  0  0  0
  -31.4678  -12.4259   19.1298 H   0  0  0  0  0  0
  -30.3280  -11.3244   19.8477 H   0  0  0  0  0  0
  -29.7435  -11.7699   17.4431 H   0  0  0  0  0  0
  -29.6582  -13.4842   17.7626 H   0  0  0  0  0  0
  -27.8376  -11.3033   18.8342 H   0  0  0  0  0  0
  -27.3683  -12.6170   17.7898 H   0  0  0  0  0  0
  -27.6954  -14.2558   19.5535 H   0  0  0  0  0  0
  -28.6858  -12.0002   21.3651 H   0  0  0  0  0  0
  -28.4614  -13.6529   21.8559 H   0  0  0  0  0  0
  -25.2758   -9.5697   22.4747 H   0  0  0  0  0  0
  -24.0006   -7.4643   22.7469 H   0  0  0  0  0  0
  -21.0835   -8.8767   19.8951 H   0  0  0  0  0  0
  -22.3680  -10.9672   19.6159 H   0  0  0  0  0  0
  -21.2008   -7.6146   23.9712 H   0  0  0  0  0  0
  -21.1480   -6.0520   25.9075 H   0  0  0  0  0  0
  -22.0599   -2.7607   23.2842 H   0  0  0  0  0  0
  -22.4122  -11.9897   22.4790 H   0  0  0  0  0  0
  -21.1122  -13.1260   22.2607 H   0  0  0  0  0  0
  -24.6644  -15.8457   20.5007 H   0  0  0  0  0  0
  -26.2774  -15.6161   20.0493 H   0  0  0  0  0  0
  -26.7140  -32.5507   23.1157 H   0  0  0  0  0  0
  -25.0077  -33.9782   25.0479 H   0  0  0  0  0  0
  -22.6996  -31.3140   21.4171 H   0  0  0  0  0  0
  -23.3749  -35.9647   23.3309 H   0  0  0  0  0  0
  -24.3582  -36.8917   22.2049 H   0  0  0  0  0  0
  -23.7244  -37.6522   23.6643 H   0  0  0  0  0  0
  -26.0699  -31.5831   20.6088 H   0  0  0  0  0  0
  -26.8293  -30.8620   21.9991 H   0  0  0  0  0  0
  -28.0985  -29.0347   21.1928 H   0  0  0  0  0  0
  -25.9740  -26.0077   18.9336 H   0  0  0  0  0  0
  -23.9642  -27.3429   18.9939 H   0  0  0  0  0  0
  -23.7296  -30.6171   19.4101 H   0  0  0  0  0  0
  -22.7392  -29.2632   19.8646 H   0  0  0  0  0  0
  -25.1288  -36.1978   25.0829 H   0  0  0  0  0  0
  -20.9972  -28.3245   24.1419 H   0  0  0  0  0  0
  -20.5680  -26.2285   23.3600 H   0  0  0  0  0  0
  -21.6641  -26.7449   22.1198 H   0  0  0  0  0  0
  -19.6910  -25.6300   21.1233 H   0  0  0  0  0  0
  -19.6684  -27.3202   20.6745 H   0  0  0  0  0  0
  -17.4197  -26.6674   21.4028 H   0  0  0  0  0  0
  -18.0332  -26.0063   22.9019 H   0  0  0  0  0  0
  -19.7932  -30.7260   24.2283 H   0  0  0  0  0  0
  -17.5013  -31.6266   24.5163 H   0  0  0  0  0  0
  -15.5350  -30.2989   23.7645 H   0  0  0  0  0  0
  -15.8669  -28.0823   22.7060 H   0  0  0  0  0  0
  -24.5902  -30.7075   25.7817 H   0  0  0  0  0  0
  -24.8923  -32.2883   26.4928 H   0  0  0  0  0  0
  -25.8070  -30.8892   27.0245 H   0  0  0  0  0  0
  -26.2868  -29.6809   24.1177 H   0  0  0  0  0  0
  -27.4032  -29.7273   25.4629 H   0  0  0  0  0  0
  -27.8728  -30.4345   23.9347 H   0  0  0  0  0  0
  -27.2673  -33.3618   26.2106 H   0  0  0  0  0  0
  -28.3844  -32.6907   25.0317 H   0  0  0  0  0  0
  -28.0742  -31.8438   26.5395 H   0  0  0  0  0  0
  -28.2608  -38.0103   24.7507 H   0  0  0  0  0  0
  -28.1071  -36.2636   24.6295 H   0  0  0  0  0  0
  -27.2299  -37.1470   25.8867 H   0  0  0  0  0  0
  -20.9319  -29.8780   21.6937 H   0  0  0  0  0  0
  -26.0188  -38.2875   24.1400 H   0  0  0  0  0  0
  -30.2957  -17.2456   22.2356 H   0  0  0  0  0  0
  -31.6131  -16.9554   21.1518 H   0  0  0  0  0  0
  -29.0048  -22.7063   18.7895 H   0  0  0  0  0  0
  -27.7979  -22.4715   20.0234 H   0  0  0  0  0  0
  -27.1717  -24.8469   20.3660 H   0  0  0  0  0  0
  -28.0233  -25.0214   18.8460 H   0  0  0  0  0  0
  -30.1840  -24.4222   20.1330 H   0  0  0  0  0  0
  -30.3056  -15.8970   18.5545 H   0  0  0  0  0  0
  -29.4148  -16.5343   17.2818 H   0  0  0  0  0  0
  -28.8940  -17.9433   16.4307 H   0  0  0  0  0  0
  -28.6651  -19.6196   16.3390 H   0  0  0  0  0  0
  -29.8887  -21.6831   21.4277 H   0  0  0  0  0  0
  -29.0708  -15.3810   21.3642 H   0  0  0  0  0  0
  -29.2125  -24.9014   22.1855 H   0  0  0  0  0  0
  1 25  1  0  0  0
  1 30  2  0  0  0
  1 84  1  0  0  0
  2  3  1  0  0  0
  2 25  1  0  0  0
  2 86  1  0  0  0
  2 87  1  0  0  0
  3  4  1  0  0  0
  3 88  1  0  0  0
  3 89  1  0  0  0
  4  5  1  0  0  0
  4 90  1  0  0  0
  4 91  1  0  0  0
  5  6  1  0  0  0
  5 26  1  0  0  0
  5 92  1  0  0  0
  6 25  1  0  0  0
  6 93  1  0  0  0
  6 94  1  0  0  0
  7  8  2  0  0  0
  7 26  1  0  0  0
  7 29  1  0  0  0
  8  9  1  0  0  0
  8 22  1  0  0  0
  9 10  1  0  0  0
  9 27  2  0  0  0
 10 11  2  0  0  0
 10 15  1  0  0  0
 11 12  1  0  0  0
 11 95  1  0  0  0
 12 13  2  0  0  0
 12 96  1  0  0  0
 13 14  1  0  0  0
 13 31  1  0  0  0
 14 15  2  0  0  0
 14 97  1  0  0  0
 15 98  1  0  0  0
 16 17  2  0  0  0
 16 21  1  0  0  0
 16 31  1  0  0  0
 17 18  1  0  0  0
 17 99  1  0  0  0
 18 19  2  0  0  0
 18100  1  0  0  0
 19 20  1  0  0  0
 19 24  1  0  0  0
 20 21  2  0  0  0
 20101  1  0  0  0
 21 23  1  0  0  0
 22 28  1  0  0  0
 22 32  2  0  0  0
 26 27  1  0  0  0
 28102  1  0  0  0
 28103  1  0  0  0
 29104  1  0  0  0
 29105  1  0  0  0
 33 34  1  0  0  0
 33 66  1  0  0  0
 33 70  2  0  0  0
 34 36  1  0  0  0
 34 59  1  0  0  0
 34106  1  0  0  0
 35 44  2  0  0  0
 35 45  1  0  0  0
 35 68  1  0  0  0
 36 56  1  0  0  0
 36107  1  0  0  0
 37 39  1  0  0  0
 37 47  1  0  0  0
 37 66  1  0  0  0
 37108  1  0  0  0
 38 43  2  0  0  0
 38 46  1  0  0  0
 38 47  1  0  0  0
 39 64  1  0  0  0
 39 67  2  0  0  0
 40 52  1  0  0  0
 40 53  2  0  0  0
 40 58  1  0  0  0
 41109  1  0  0  0
 41110  1  0  0  0
 41111  1  0  0  0
 41 48  1  0  0  0
 42 43  1  0  0  0
 42 66  1  0  0  0
 42112  1  0  0  0
 42113  1  0  0  0
 43 44  1  0  0  0
 44114  1  0  0  0
 45 46  2  0  0  0
 45115  1  0  0  0
 46116  1  0  0  0
 47117  1  0  0  0
 47118  1  0  0  0
 48 56  1  0  0  0
 48 65  1  0  0  0
 48119  1  0  0  0
 49 50  1  0  0  0
 49 53  1  0  0  0
 49 64  1  0  0  0
 49120  1  0  0  0
 50 51  1  0  0  0
 50121  1  0  0  0
 50122  1  0  0  0
 51 52  1  0  0  0
 51123  1  0  0  0
 51124  1  0  0  0
 52125  1  0  0  0
 52126  1  0  0  0
 53 54  1  0  0  0
 54 55  2  0  0  0
 54127  1  0  0  0
 55 57  1  0  0  0
 55128  1  0  0  0
 56 69  2  0  0  0
 57 58  2  0  0  0
 57129  1  0  0  0
 58130  1  0  0  0
 59 60  1  0  0  0
 59 61  1  0  0  0
 59 62  1  0  0  0
 60131  1  0  0  0
 60132  1  0  0  0
 60133  1  0  0  0
 61134  1  0  0  0
 61135  1  0  0  0
 61136  1  0  0  0
 62137  1  0  0  0
 62138  1  0  0  0
 62139  1  0  0  0
 63 65  1  0  0  0
 63140  1  0  0  0
 63141  1  0  0  0
 63142  1  0  0  0
 64143  1  0  0  0
 65144  1  0  0  0
 68 77  1  0  0  0
 71 72  2  0  0  0
 71 73  1  0  0  0
 71 81  1  0  0  0
 72 75  1  0  0  0
 72 79  1  0  0  0
 73 80  2  0  0  0
 73 82  1  0  0  0
 74 79  2  0  0  0
 74 80  1  0  0  0
 74 83  1  0  0  0
 75 84  1  0  0  0
 75145  1  0  0  0
 75146  1  0  0  0
 76 78  1  0  0  0
 76 83  1  0  0  0
 76147  1  0  0  0
 76148  1  0  0  0
 77 78  1  0  0  0
 77149  1  0  0  0
 77150  1  0  0  0
 78 85  1  0  0  0
 78151  1  0  0  0
 81152  1  0  0  0
 81153  1  0  0  0
 82154  1  0  0  0
 82155  1  0  0  0
 83156  1  0  0  0
 84157  1  0  0  0
 85158  1  0  0  0
M  ISO  4   1 100  68 101  77 101  84 100
M  END
> <chiral flag>
0

> <version>
0

> <s_m_source_file>
/data/baiqing/PycharmProjects/Reinvent-master-3.2/result/LINK_invent/BTK/process_docking_weight1_custom_product_contain_oxygen_bond_distance_aromatic_linkinvent_7_9_3/rearranged_h_0194.sdf

> <i_m_source_file_index>
88

> <r_mmod_Potential_Energy-OPLS-2005>
-844.486145019531

> <r_mmod_Stretch_Energy-OPLS-2005>
46.2450904846191

> <r_mmod_Bend_Energy-OPLS-2005>
118.325218200684

> <r_mmod_Torsional_Energy-OPLS-2005>
223.353942871094

> <r_mmod_Improper_Torsional_Energy-OPLS-2005>
12.4879026412964

> <r_mmod_Van_der_Waal_Energy-OPLS-2005>
177.042449951172

> <r_mmod_Electrostatic_Energy-OPLS-2005>
-1186.00793457031

> <r_mmod_Solvation_Energy-OPLS-2005>
-258.299438476562

> <b_mmod_Minimization_Converged-OPLS-2005>
0

> <r_mmod_RMS_Derivative-OPLS-2005>
0.516482889652252

$$$$
88
                    3D
 Structure written by MMmdl.
159167  0  0  1  0            999 V2000
  -30.6149  -14.7176   20.4629 C   0  0  0  0  0  0
  -30.4312  -12.4336   19.4669 C   0  0  0  0  0  0
  -29.5058  -12.5021   18.2313 C   0  0  0  0  0  0
  -28.0316  -12.3284   18.6461 C   0  0  0  0  0  0
  -27.6437  -13.2240   19.8526 C   0  0  2  0  0  0
  -28.6897  -13.1418   20.9868 C   0  0  0  0  0  0
  -25.2541  -13.8180   20.5709 C   0  0  0  0  0  0
  -24.1816  -13.0429   20.9204 C   0  0  0  0  0  0
  -24.6389  -11.6906   20.8741 C   0  0  0  0  0  0
  -23.9062  -10.4286   21.0402 C   0  0  0  0  0  0
  -24.3615   -9.4205   21.9185 C   0  0  0  0  0  0
  -23.6288   -8.2242   22.0763 C   0  0  0  0  0  0
  -22.4275   -8.0272   21.3547 C   0  0  0  0  0  0
  -21.9904   -9.0243   20.4651 C   0  0  0  0  0  0
  -22.7233  -10.2124   20.3053 C   0  0  0  0  0  0
  -21.6852   -6.0727   22.5276 C   0  0  0  0  0  0
  -21.4018   -6.5639   23.8205 C   0  0  0  0  0  0
  -21.3659   -5.6798   24.9173 C   0  0  0  0  0  0
  -21.6038   -4.3057   24.7231 C   0  0  0  0  0  0
  -21.8818   -3.8144   23.4354 C   0  0  0  0  0  0
  -21.9196   -4.6955   22.3407 C   0  0  0  0  0  0
  -22.7845  -13.5225   21.1845 C   0  0  0  0  0  0
  -22.1666   -4.2137   21.0984 F   0  0  0  0  0  0
  -21.5620   -3.4545   25.7747 F   0  0  0  0  0  0
  -29.9940  -13.4902   20.4079 N   0  0  0  0  0  0
  -26.2950  -12.9367   20.3294 N   0  0  0  0  0  0
  -25.9317  -11.6514   20.5751 N   0  0  0  0  0  0
  -22.0497  -12.8209   22.0405 N   0  0  0  0  0  0
  -25.4233  -15.1900   20.4139 N   0  0  0  0  0  0
  -31.8038  -14.8120   20.1407 O   0  0  0  0  0  0
  -21.6642   -6.8868   21.4237 O   0  0  0  0  0  0
  -22.3533  -14.5525   20.6684 O   0  0  0  0  0  0
  -24.6290  -31.8570   23.1991 C   0  0  0  0  0  0
  -25.9126  -32.4759   23.8329 C   0  0  1  0  0  0
  -27.2214  -27.2939   20.1235 C   0  0  0  0  0  0
  -25.5923  -33.8555   24.2257 N   0  0  0  0  0  0
  -23.4244  -30.4793   21.5436 C   0  0  2  0  0  0
  -24.8708  -28.9293   20.1098 C   0  0  0  0  0  0
  -22.7499  -29.4602   22.4932 C   0  0  0  0  0  0
  -18.0289  -28.1383   22.8481 C   0  0  0  0  0  0
  -24.1489  -36.7292   23.2642 C   0  0  0  0  0  0
  -25.9669  -30.7810   21.3725 C   0  0  0  0  0  0
  -26.0419  -29.4059   20.7143 C   0  0  0  0  0  0
  -27.2233  -28.6009   20.7082 C   0  0  0  0  0  0
  -26.0340  -26.8804   19.4831 C   0  0  0  0  0  0
  -24.8696  -27.6727   19.4843 C   0  0  0  0  0  0
  -23.6393  -29.8122   20.1594 C   0  0  0  0  0  0
  -25.4111  -36.3072   24.0333 C   0  0  1  0  0  0
  -20.5895  -28.3681   23.1273 C   0  0  2  0  0  0
  -20.6780  -26.9402   22.5406 C   0  0  0  0  0  0
  -19.5747  -26.6378   21.5218 C   0  0  0  0  0  0
  -18.1927  -26.7922   22.1628 C   0  0  0  0  0  0
  -19.1548  -28.8852   23.2863 C   0  0  0  0  0  0
  -18.9470  -30.1452   23.8885 C   0  0  0  0  0  0
  -17.6471  -30.6584   24.0558 C   0  0  0  0  0  0
  -25.9052  -34.9442   23.5098 C   0  0  0  0  0  0
  -16.5358  -29.9081   23.6332 C   0  0  0  0  0  0
  -16.7283  -28.6499   23.0349 C   0  0  0  0  0  0
  -26.4499  -31.6577   25.0713 C   0  0  0  0  0  0
  -25.3712  -31.3723   26.1429 C   0  0  0  0  0  0
  -27.0343  -30.2996   24.6176 C   0  0  0  0  0  0
  -27.6052  -32.4319   25.7490 C   0  0  0  0  0  0
  -27.5584  -37.1797   24.8465 C   0  0  0  0  0  0
  -21.4214  -29.3033   22.3671 N   0  0  0  0  0  0
  -26.4293  -37.3771   23.9415 N   0  0  0  0  0  0
  -24.6925  -31.0559   22.0953 N   0  0  0  0  0  0
  -23.4207  -28.8144   23.3028 O   0  0  0  0  0  0
  -28.3152  -26.4068   20.1600 O   0  0  0  0  0  0
  -26.5631  -34.8924   22.4671 O   0  0  0  0  0  0
  -23.5443  -32.1384   23.7312 O   0  0  0  0  0  0
  -31.3481  -19.2263   20.3332 C   0  0  0  0  0  0
  -30.1147  -19.8894   20.3796 C   0  0  0  0  0  0
  -30.0722  -17.2812   20.5612 C   0  0  0  0  0  0
  -32.6529  -19.8937   20.1726 C   0  0  0  0  0  0
  -33.8839  -19.0109   20.3622 C   0  0  0  0  0  0
  -28.2033  -21.9365   21.9430 C   0  0  0  0  0  0
  -28.0264  -25.2985   22.2264 C   0  0  0  0  0  0
  -29.1157  -23.8354   20.3547 C   0  0  0  0  0  0
  -28.7697  -22.2499   20.5526 C   0  0  1  0  0  0
  -28.0806  -25.0317   20.7079 C   0  0  2  0  0  0
  -31.2944  -17.8074   20.4439 N   0  0  0  0  0  0
  -29.9284  -21.3351   20.2592 N   0  0  0  0  0  0
  -29.8155  -15.8284   20.6767 N   0  0  0  0  0  0
  -32.8347  -21.0884   19.9092 O   0  0  0  0  0  0
  -28.8556  -18.6255   20.5685 S   0  0  0  0  0  0
  -31.4735  -12.5501   19.1648 H   0  0  0  0  0  0
  -30.3663  -11.4538   19.9418 H   0  0  0  0  0  0
  -29.7838  -11.7352   17.5070 H   0  0  0  0  0  0
  -29.6340  -13.4613   17.7268 H   0  0  0  0  0  0
  -27.8808  -11.2786   18.9007 H   0  0  0  0  0  0
  -27.3744  -12.5293   17.7998 H   0  0  0  0  0  0
  -27.6412  -14.2474   19.4771 H   0  0  0  0  0  0
  -28.7210  -12.1380   21.4133 H   0  0  0  0  0  0
  -28.4277  -13.8108   21.8086 H   0  0  0  0  0  0
  -25.2758   -9.5682   22.4759 H   0  0  0  0  0  0
  -23.9988   -7.4639   22.7491 H   0  0  0  0  0  0
  -21.0835   -8.8754   19.8964 H   0  0  0  0  0  0
  -22.3681  -10.9655   19.6158 H   0  0  0  0  0  0
  -21.2016   -7.6148   23.9702 H   0  0  0  0  0  0
  -21.1481   -6.0536   25.9073 H   0  0  0  0  0  0
  -22.0600   -2.7604   23.2865 H   0  0  0  0  0  0
  -22.4132  -11.9866   22.4768 H   0  0  0  0  0  0
  -21.1115  -13.1225   22.2620 H   0  0  0  0  0  0
  -24.6508  -15.8376   20.5245 H   0  0  0  0  0  0
  -26.2577  -15.6331   20.0529 H   0  0  0  0  0  0
  -26.7191  -32.5433   23.1072 H   0  0  0  0  0  0
  -25.0055  -33.9668   25.0389 H   0  0  0  0  0  0
  -22.7204  -31.3012   21.3971 H   0  0  0  0  0  0
  -23.3758  -35.9621   23.3294 H   0  0  0  0  0  0
  -24.3585  -36.8922   22.2059 H   0  0  0  0  0  0
  -23.7228  -37.6484   23.6672 H   0  0  0  0  0  0
  -26.0988  -31.5456   20.6050 H   0  0  0  0  0  0
  -26.8466  -30.8291   22.0030 H   0  0  0  0  0  0
  -28.1211  -28.9589   21.1922 H   0  0  0  0  0  0
  -25.9972  -25.9235   18.9829 H   0  0  0  0  0  0
  -23.9740  -27.3053   19.0007 H   0  0  0  0  0  0
  -23.7594  -30.5885   19.4028 H   0  0  0  0  0  0
  -22.7586  -29.2416   19.8578 H   0  0  0  0  0  0
  -25.1284  -36.1931   25.0827 H   0  0  0  0  0  0
  -20.9975  -28.3264   24.1399 H   0  0  0  0  0  0
  -20.5703  -26.2293   23.3611 H   0  0  0  0  0  0
  -21.6640  -26.7440   22.1181 H   0  0  0  0  0  0
  -19.6912  -25.6290   21.1247 H   0  0  0  0  0  0
  -19.6688  -27.3193   20.6747 H   0  0  0  0  0  0
  -17.4197  -26.6682   21.4028 H   0  0  0  0  0  0
  -18.0300  -26.0071   22.9025 H   0  0  0  0  0  0
  -19.7953  -30.7257   24.2267 H   0  0  0  0  0  0
  -17.5031  -31.6275   24.5143 H   0  0  0  0  0  0
  -15.5356  -30.2973   23.7674 H   0  0  0  0  0  0
  -15.8681  -28.0820   22.7064 H   0  0  0  0  0  0
  -24.5905  -30.7047   25.7762 H   0  0  0  0  0  0
  -24.8873  -32.2883   26.4827 H   0  0  0  0  0  0
  -25.8018  -30.8932   27.0228 H   0  0  0  0  0  0
  -26.2908  -29.6737   24.1226 H   0  0  0  0  0  0
  -27.4052  -29.7266   25.4683 H   0  0  0  0  0  0
  -27.8774  -30.4277   23.9387 H   0  0  0  0  0  0
  -27.2663  -33.3641   26.2027 H   0  0  0  0  0  0
  -28.3884  -32.6840   25.0327 H   0  0  0  0  0  0
  -28.0693  -31.8464   26.5441 H   0  0  0  0  0  0
  -28.2585  -38.0116   24.7530 H   0  0  0  0  0  0
  -28.1097  -36.2639   24.6264 H   0  0  0  0  0  0
  -27.2307  -37.1404   25.8872 H   0  0  0  0  0  0
  -20.9411  -29.8751   21.6867 H   0  0  0  0  0  0
  -26.0183  -38.2851   24.1423 H   0  0  0  0  0  0
  -33.9494  -18.2706   19.5649 H   0  0  0  0  0  0
  -33.8231  -18.4904   21.3173 H   0  0  0  0  0  0
  -34.7915  -19.6152   20.3551 H   0  0  0  0  0  0
  -27.2711  -22.4735   22.1161 H   0  0  0  0  0  0
  -28.9076  -22.2017   22.7321 H   0  0  0  0  0  0
  -27.9581  -20.8821   22.0569 H   0  0  0  0  0  0
  -27.9518  -24.3979   22.8278 H   0  0  0  0  0  0
  -27.1673  -25.9174   22.4846 H   0  0  0  0  0  0
  -28.9186  -25.8298   22.5590 H   0  0  0  0  0  0
  -29.3763  -23.9674   19.3039 H   0  0  0  0  0  0
  -30.0380  -24.0509   20.8953 H   0  0  0  0  0  0
  -27.9883  -22.0055   19.8315 H   0  0  0  0  0  0
  -27.1038  -24.6687   20.3900 H   0  0  0  0  0  0
  -30.7960  -21.8289   20.0441 H   0  0  0  0  0  0
  -28.8568  -15.5955   20.8791 H   0  0  0  0  0  0
  1 25  1  0  0  0
  1 30  2  0  0  0
  1 83  1  0  0  0
  2  3  1  0  0  0
  2 25  1  0  0  0
  2 86  1  0  0  0
  2 87  1  0  0  0
  3  4  1  0  0  0
  3 88  1  0  0  0
  3 89  1  0  0  0
  4  5  1  0  0  0
  4 90  1  0  0  0
  4 91  1  0  0  0
  5  6  1  0  0  0
  5 26  1  0  0  0
  5 92  1  0  0  0
  6 25  1  0  0  0
  6 93  1  0  0  0
  6 94  1  0  0  0
  7  8  2  0  0  0
  7 26  1  0  0  0
  7 29  1  0  0  0
  8  9  1  0  0  0
  8 22  1  0  0  0
  9 10  1  0  0  0
  9 27  2  0  0  0
 10 11  2  0  0  0
 10 15  1  0  0  0
 11 12  1  0  0  0
 11 95  1  0  0  0
 12 13  2  0  0  0
 12 96  1  0  0  0
 13 14  1  0  0  0
 13 31  1  0  0  0
 14 15  2  0  0  0
 14 97  1  0  0  0
 15 98  1  0  0  0
 16 17  2  0  0  0
 16 21  1  0  0  0
 16 31  1  0  0  0
 17 18  1  0  0  0
 17 99  1  0  0  0
 18 19  2  0  0  0
 18100  1  0  0  0
 19 20  1  0  0  0
 19 24  1  0  0  0
 20 21  2  0  0  0
 20101  1  0  0  0
 21 23  1  0  0  0
 22 28  1  0  0  0
 22 32  2  0  0  0
 26 27  1  0  0  0
 28102  1  0  0  0
 28103  1  0  0  0
 29104  1  0  0  0
 29105  1  0  0  0
 33 34  1  0  0  0
 33 66  1  0  0  0
 33 70  2  0  0  0
 34 36  1  0  0  0
 34 59  1  0  0  0
 34106  1  0  0  0
 35 44  2  0  0  0
 35 45  1  0  0  0
 35 68  1  0  0  0
 36 56  1  0  0  0
 36107  1  0  0  0
 37 39  1  0  0  0
 37 47  1  0  0  0
 37 66  1  0  0  0
 37108  1  0  0  0
 38 43  2  0  0  0
 38 46  1  0  0  0
 38 47  1  0  0  0
 39 64  1  0  0  0
 39 67  2  0  0  0
 40 52  1  0  0  0
 40 53  2  0  0  0
 40 58  1  0  0  0
 41109  1  0  0  0
 41110  1  0  0  0
 41111  1  0  0  0
 41 48  1  0  0  0
 42 43  1  0  0  0
 42 66  1  0  0  0
 42112  1  0  0  0
 42113  1  0  0  0
 43 44  1  0  0  0
 44114  1  0  0  0
 45 46  2  0  0  0
 45115  1  0  0  0
 46116  1  0  0  0
 47117  1  0  0  0
 47118  1  0  0  0
 48 56  1  0  0  0
 48 65  1  0  0  0
 48119  1  0  0  0
 49 50  1  0  0  0
 49 53  1  0  0  0
 49 64  1  0  0  0
 49120  1  0  0  0
 50 51  1  0  0  0
 50121  1  0  0  0
 50122  1  0  0  0
 51 52  1  0  0  0
 51123  1  0  0  0
 51124  1  0  0  0
 52125  1  0  0  0
 52126  1  0  0  0
 53 54  1  0  0  0
 54 55  2  0  0  0
 54127  1  0  0  0
 55 57  1  0  0  0
 55128  1  0  0  0
 56 69  2  0  0  0
 57 58  2  0  0  0
 57129  1  0  0  0
 58130  1  0  0  0
 59 60  1  0  0  0
 59 61  1  0  0  0
 59 62  1  0  0  0
 60131  1  0  0  0
 60132  1  0  0  0
 60133  1  0  0  0
 61134  1  0  0  0
 61135  1  0  0  0
 61136  1  0  0  0
 62137  1  0  0  0
 62138  1  0  0  0
 62139  1  0  0  0
 63 65  1  0  0  0
 63140  1  0  0  0
 63141  1  0  0  0
 63142  1  0  0  0
 64143  1  0  0  0
 65144  1  0  0  0
 68 80  1  0  0  0
 71 72  2  0  0  0
 71 74  1  0  0  0
 71 81  1  0  0  0
 72 82  1  0  0  0
 72 85  1  0  0  0
 73 81  2  0  0  0
 73 83  1  0  0  0
 73 85  1  0  0  0
 74 75  1  0  0  0
 74 84  2  0  0  0
 75145  1  0  0  0
 75146  1  0  0  0
 75147  1  0  0  0
 76148  1  0  0  0
 76149  1  0  0  0
 76150  1  0  0  0
 76 79  1  0  0  0
 77151  1  0  0  0
 77152  1  0  0  0
 77153  1  0  0  0
 77 80  1  0  0  0
 78 79  1  0  0  0
 78 80  1  0  0  0
 78154  1  0  0  0
 78155  1  0  0  0
 79 82  1  0  0  0
 79156  1  0  0  0
 80157  1  0  0  0
 82158  1  0  0  0
 83159  1  0  0  0
M  ISO  4   1 100  68 101  80 101  83 100
M  END
> <chiral flag>
0

> <version>
0

> <s_m_source_file>
/data/baiqing/PycharmProjects/Reinvent-master-3.2/result/LINK_invent/BTK/process_docking_weight1_custom_product_contain_oxygen_bond_distance_aromatic_linkinvent_7_9_3/rearranged_h_0194.sdf

> <i_m_source_file_index>
89

> <r_mmod_Potential_Energy-OPLS-2005>
200.069519042969

> <r_mmod_Stretch_Energy-OPLS-2005>
112.549140930176

> <r_mmod_Bend_Energy-OPLS-2005>
181.572891235352

> <r_mmod_Torsional_Energy-OPLS-2005>
214.888031005859

> <r_mmod_Improper_Torsional_Energy-OPLS-2005>
5.012770652771

> <r_mmod_Van_der_Waal_Energy-OPLS-2005>
124.446594238281

> <r_mmod_Electrostatic_Energy-OPLS-2005>
-283.047576904297

> <r_mmod_Solvation_Energy-OPLS-2005>
-226.145797729492

> <b_mmod_Minimization_Converged-OPLS-2005>
0

> <r_mmod_RMS_Derivative-OPLS-2005>
1.72845506668091

$$$$
89
                    3D
 Structure written by MMmdl.
151159  0  0  1  0            999 V2000
  -30.6054  -14.6630   20.5160 C   0  0  0  0  0  0
  -30.4394  -12.4091   19.4646 C   0  0  0  0  0  0
  -29.5162  -12.5270   18.2308 C   0  0  0  0  0  0
  -28.0347  -12.3683   18.6302 C   0  0  0  0  0  0
  -27.6551  -13.2231   19.8687 C   0  0  2  0  0  0
  -28.6947  -13.0674   21.0017 C   0  0  0  0  0  0
  -25.2558  -13.8179   20.5680 C   0  0  0  0  0  0
  -24.1830  -13.0436   20.9173 C   0  0  0  0  0  0
  -24.6402  -11.6905   20.8701 C   0  0  0  0  0  0
  -23.9076  -10.4289   21.0373 C   0  0  0  0  0  0
  -24.3628   -9.4213   21.9160 C   0  0  0  0  0  0
  -23.6308   -8.2245   22.0739 C   0  0  0  0  0  0
  -22.4287   -8.0285   21.3531 C   0  0  0  0  0  0
  -21.9917   -9.0255   20.4637 C   0  0  0  0  0  0
  -22.7236  -10.2135   20.3037 C   0  0  0  0  0  0
  -21.6865   -6.0737   22.5273 C   0  0  0  0  0  0
  -21.4023   -6.5639   23.8206 C   0  0  0  0  0  0
  -21.3663   -5.6789   24.9173 C   0  0  0  0  0  0
  -21.6044   -4.3049   24.7213 C   0  0  0  0  0  0
  -21.8820   -3.8141   23.4337 C   0  0  0  0  0  0
  -21.9198   -4.6962   22.3399 C   0  0  0  0  0  0
  -22.7853  -13.5227   21.1843 C   0  0  0  0  0  0
  -22.1664   -4.2146   21.0969 F   0  0  0  0  0  0
  -21.5633   -3.4535   25.7731 F   0  0  0  0  0  0
  -30.0125  -13.4247   20.4512 N   0  0  0  0  0  0
  -26.2993  -12.9371   20.3308 N   0  0  0  0  0  0
  -25.9332  -11.6515   20.5712 N   0  0  0  0  0  0
  -22.0495  -12.8231   22.0406 N   0  0  0  0  0  0
  -25.4273  -15.1907   20.4141 N   0  0  0  0  0  0
  -31.7410  -14.8447   20.0634 O   0  0  0  0  0  0
  -21.6646   -6.8888   21.4238 O   0  0  0  0  0  0
  -22.3539  -14.5531   20.6685 O   0  0  0  0  0  0
  -24.6273  -31.8600   23.1994 C   0  0  0  0  0  0
  -25.9108  -32.4785   23.8335 C   0  0  1  0  0  0
  -27.2254  -27.3050   20.1234 C   0  0  0  0  0  0
  -25.5901  -33.8580   24.2269 N   0  0  0  0  0  0
  -23.4223  -30.4833   21.5438 C   0  0  2  0  0  0
  -24.8685  -28.9349   20.1116 C   0  0  0  0  0  0
  -22.7485  -29.4632   22.4938 C   0  0  0  0  0  0
  -18.0292  -28.1386   22.8496 C   0  0  0  0  0  0
  -24.1487  -36.7310   23.2637 C   0  0  0  0  0  0
  -25.9629  -30.7902   21.3676 C   0  0  0  0  0  0
  -26.0392  -29.4146   20.7127 C   0  0  0  0  0  0
  -27.2209  -28.6127   20.7062 C   0  0  0  0  0  0
  -26.0313  -26.8841   19.4944 C   0  0  0  0  0  0
  -24.8679  -27.6761   19.4925 C   0  0  0  0  0  0
  -23.6359  -29.8149   20.1599 C   0  0  0  0  0  0
  -25.4100  -36.3086   24.0339 C   0  0  1  0  0  0
  -20.5893  -28.3692   23.1295 C   0  0  2  0  0  0
  -20.6783  -26.9412   22.5424 C   0  0  0  0  0  0
  -19.5748  -26.6383   21.5237 C   0  0  0  0  0  0
  -18.1934  -26.7928   22.1646 C   0  0  0  0  0  0
  -19.1545  -28.8856   23.2890 C   0  0  0  0  0  0
  -18.9460  -30.1461   23.8899 C   0  0  0  0  0  0
  -17.6457  -30.6584   24.0569 C   0  0  0  0  0  0
  -25.9040  -34.9458   23.5106 C   0  0  0  0  0  0
  -16.5352  -29.9086   23.6319 C   0  0  0  0  0  0
  -16.7281  -28.6506   23.0339 C   0  0  0  0  0  0
  -26.4465  -31.6589   25.0715 C   0  0  0  0  0  0
  -25.3683  -31.3753   26.1439 C   0  0  0  0  0  0
  -27.0283  -30.3003   24.6164 C   0  0  0  0  0  0
  -27.6020  -32.4315   25.7496 C   0  0  0  0  0  0
  -27.5582  -37.1803   24.8450 C   0  0  0  0  0  0
  -21.4193  -29.3049   22.3688 N   0  0  0  0  0  0
  -26.4279  -37.3782   23.9413 N   0  0  0  0  0  0
  -24.6907  -31.0607   22.0948 N   0  0  0  0  0  0
  -23.4205  -28.8169   23.3019 O   0  0  0  0  0  0
  -28.3390  -26.4451   20.1862 O   0  0  0  0  0  0
  -26.5628  -34.8933   22.4685 O   0  0  0  0  0  0
  -23.5429  -32.1403   23.7312 O   0  0  0  0  0  0
  -29.6007  -17.9122   22.0551 C   0  0  0  0  0  0
  -29.6837  -19.9823   20.9114 C   0  0  0  0  0  0
  -29.8790  -17.1374   20.8949 C   0  0  0  0  0  0
  -29.9288  -19.2084   19.7211 C   0  0  0  0  0  0
  -29.8296  -21.5285   21.0690 C   0  0  0  0  0  0
  -29.2748  -23.9743   20.5308 C   0  0  0  0  0  0
  -28.1217  -24.9746   20.0629 C   0  0  0  0  0  0
  -29.5222  -19.2776   22.0721 N   0  0  0  0  0  0
  -30.0249  -17.8337   19.7226 N   0  0  0  0  0  0
  -30.1188  -19.7711   18.4617 N   0  0  0  0  0  0
  -29.8451  -15.6783   21.0380 N   0  0  0  0  0  0
  -29.0777  -22.4688   20.4048 N   0  0  0  0  0  0
  -30.6616  -21.9231   21.8936 O   0  0  0  0  0  0
  -31.4825  -12.5339   19.1704 H   0  0  0  0  0  0
  -30.3712  -11.4092   19.8953 H   0  0  0  0  0  0
  -29.7886  -11.7763   17.4871 H   0  0  0  0  0  0
  -29.6640  -13.4979   17.7544 H   0  0  0  0  0  0
  -27.8594  -11.3136   18.8389 H   0  0  0  0  0  0
  -27.3910  -12.6240   17.7874 H   0  0  0  0  0  0
  -27.6765  -14.2629   19.5406 H   0  0  0  0  0  0
  -28.7053  -12.0401   21.3703 H   0  0  0  0  0  0
  -28.4262  -13.6836   21.8609 H   0  0  0  0  0  0
  -25.2770   -9.5707   22.4734 H   0  0  0  0  0  0
  -24.0022   -7.4645   22.7466 H   0  0  0  0  0  0
  -21.0844   -8.8770   19.8964 H   0  0  0  0  0  0
  -22.3676  -10.9674   19.6153 H   0  0  0  0  0  0
  -21.2015   -7.6144   23.9715 H   0  0  0  0  0  0
  -21.1489   -6.0512   25.9078 H   0  0  0  0  0  0
  -22.0597   -2.7601   23.2824 H   0  0  0  0  0  0
  -22.4120  -11.9918   22.4830 H   0  0  0  0  0  0
  -21.1106  -13.1254   22.2587 H   0  0  0  0  0  0
  -24.6581  -15.8436   20.5224 H   0  0  0  0  0  0
  -26.2755  -15.6295   20.0776 H   0  0  0  0  0  0
  -26.7192  -32.5462   23.1093 H   0  0  0  0  0  0
  -24.9981  -33.9709   25.0371 H   0  0  0  0  0  0
  -22.7163  -31.3032   21.3989 H   0  0  0  0  0  0
  -23.3749  -35.9642   23.3270 H   0  0  0  0  0  0
  -24.3585  -36.8954   22.2056 H   0  0  0  0  0  0
  -23.7245  -37.6512   23.6669 H   0  0  0  0  0  0
  -26.0881  -31.5513   20.5958 H   0  0  0  0  0  0
  -26.8460  -30.8465   21.9920 H   0  0  0  0  0  0
  -28.1181  -28.9768   21.1866 H   0  0  0  0  0  0
  -25.9686  -25.9216   19.0087 H   0  0  0  0  0  0
  -23.9715  -27.3028   19.0163 H   0  0  0  0  0  0
  -23.7511  -30.5898   19.4010 H   0  0  0  0  0  0
  -22.7554  -29.2431   19.8620 H   0  0  0  0  0  0
  -25.1281  -36.1930   25.0835 H   0  0  0  0  0  0
  -21.0002  -28.3275   24.1407 H   0  0  0  0  0  0
  -20.5714  -26.2298   23.3628 H   0  0  0  0  0  0
  -21.6649  -26.7450   22.1196 H   0  0  0  0  0  0
  -19.6901  -25.6301   21.1255 H   0  0  0  0  0  0
  -19.6670  -27.3208   20.6781 H   0  0  0  0  0  0
  -17.4204  -26.6688   21.4046 H   0  0  0  0  0  0
  -18.0303  -26.0073   22.9045 H   0  0  0  0  0  0
  -19.7939  -30.7284   24.2259 H   0  0  0  0  0  0
  -17.5010  -31.6260   24.5177 H   0  0  0  0  0  0
  -15.5351  -30.2980   23.7640 H   0  0  0  0  0  0
  -15.8688  -28.0837   22.7016 H   0  0  0  0  0  0
  -24.5851  -30.7104   25.7783 H   0  0  0  0  0  0
  -24.8877  -32.2930   26.4842 H   0  0  0  0  0  0
  -25.7994  -30.8953   27.0231 H   0  0  0  0  0  0
  -26.2861  -29.6795   24.1139 H   0  0  0  0  0  0
  -27.3912  -29.7217   25.4667 H   0  0  0  0  0  0
  -27.8752  -30.4274   23.9418 H   0  0  0  0  0  0
  -27.2622  -33.3609   26.2075 H   0  0  0  0  0  0
  -28.3831  -32.6889   25.0335 H   0  0  0  0  0  0
  -28.0676  -31.8439   26.5417 H   0  0  0  0  0  0
  -28.2569  -38.0135   24.7529 H   0  0  0  0  0  0
  -28.1110  -36.2663   24.6212 H   0  0  0  0  0  0
  -27.2308  -37.1376   25.8857 H   0  0  0  0  0  0
  -20.9369  -29.8766   21.6896 H   0  0  0  0  0  0
  -26.0161  -38.2858   24.1427 H   0  0  0  0  0  0
  -29.4426  -17.4231   23.0056 H   0  0  0  0  0  0
  -29.4944  -24.2040   21.5743 H   0  0  0  0  0  0
  -30.1832  -24.2245   19.9808 H   0  0  0  0  0  0
  -27.2282  -24.7137   20.6310 H   0  0  0  0  0  0
  -27.8993  -24.7551   19.0186 H   0  0  0  0  0  0
  -30.2388  -20.7694   18.3340 H   0  0  0  0  0  0
  -30.4280  -19.1971   17.6850 H   0  0  0  0  0  0
  -29.0663  -15.3413   21.5823 H   0  0  0  0  0  0
  -28.3667  -22.1336   19.7682 H   0  0  0  0  0  0
  1 25  1  0  0  0
  1 30  2  0  0  0
  1 81  1  0  0  0
  2  3  1  0  0  0
  2 25  1  0  0  0
  2 84  1  0  0  0
  2 85  1  0  0  0
  3  4  1  0  0  0
  3 86  1  0  0  0
  3 87  1  0  0  0
  4  5  1  0  0  0
  4 88  1  0  0  0
  4 89  1  0  0  0
  5  6  1  0  0  0
  5 26  1  0  0  0
  5 90  1  0  0  0
  6 25  1  0  0  0
  6 91  1  0  0  0
  6 92  1  0  0  0
  7  8  2  0  0  0
  7 26  1  0  0  0
  7 29  1  0  0  0
  8  9  1  0  0  0
  8 22  1  0  0  0
  9 10  1  0  0  0
  9 27  2  0  0  0
 10 11  2  0  0  0
 10 15  1  0  0  0
 11 12  1  0  0  0
 11 93  1  0  0  0
 12 13  2  0  0  0
 12 94  1  0  0  0
 13 14  1  0  0  0
 13 31  1  0  0  0
 14 15  2  0  0  0
 14 95  1  0  0  0
 15 96  1  0  0  0
 16 17  2  0  0  0
 16 21  1  0  0  0
 16 31  1  0  0  0
 17 18  1  0  0  0
 17 97  1  0  0  0
 18 19  2  0  0  0
 18 98  1  0  0  0
 19 20  1  0  0  0
 19 24  1  0  0  0
 20 21  2  0  0  0
 20 99  1  0  0  0
 21 23  1  0  0  0
 22 28  1  0  0  0
 22 32  2  0  0  0
 26 27  1  0  0  0
 28100  1  0  0  0
 28101  1  0  0  0
 29102  1  0  0  0
 29103  1  0  0  0
 33 34  1  0  0  0
 33 66  1  0  0  0
 33 70  2  0  0  0
 34 36  1  0  0  0
 34 59  1  0  0  0
 34104  1  0  0  0
 35 44  2  0  0  0
 35 45  1  0  0  0
 35 68  1  0  0  0
 36 56  1  0  0  0
 36105  1  0  0  0
 37 39  1  0  0  0
 37 47  1  0  0  0
 37 66  1  0  0  0
 37106  1  0  0  0
 38 43  2  0  0  0
 38 46  1  0  0  0
 38 47  1  0  0  0
 39 64  1  0  0  0
 39 67  2  0  0  0
 40 52  1  0  0  0
 40 53  2  0  0  0
 40 58  1  0  0  0
 41107  1  0  0  0
 41108  1  0  0  0
 41109  1  0  0  0
 41 48  1  0  0  0
 42 43  1  0  0  0
 42 66  1  0  0  0
 42110  1  0  0  0
 42111  1  0  0  0
 43 44  1  0  0  0
 44112  1  0  0  0
 45 46  2  0  0  0
 45113  1  0  0  0
 46114  1  0  0  0
 47115  1  0  0  0
 47116  1  0  0  0
 48 56  1  0  0  0
 48 65  1  0  0  0
 48117  1  0  0  0
 49 50  1  0  0  0
 49 53  1  0  0  0
 49 64  1  0  0  0
 49118  1  0  0  0
 50 51  1  0  0  0
 50119  1  0  0  0
 50120  1  0  0  0
 51 52  1  0  0  0
 51121  1  0  0  0
 51122  1  0  0  0
 52123  1  0  0  0
 52124  1  0  0  0
 53 54  1  0  0  0
 54 55  2  0  0  0
 54125  1  0  0  0
 55 57  1  0  0  0
 55126  1  0  0  0
 56 69  2  0  0  0
 57 58  2  0  0  0
 57127  1  0  0  0
 58128  1  0  0  0
 59 60  1  0  0  0
 59 61  1  0  0  0
 59 62  1  0  0  0
 60129  1  0  0  0
 60130  1  0  0  0
 60131  1  0  0  0
 61132  1  0  0  0
 61133  1  0  0  0
 61134  1  0  0  0
 62135  1  0  0  0
 62136  1  0  0  0
 62137  1  0  0  0
 63 65  1  0  0  0
 63138  1  0  0  0
 63139  1  0  0  0
 63140  1  0  0  0
 64141  1  0  0  0
 65142  1  0  0  0
 68 77  1  0  0  0
 71 73  2  0  0  0
 71 78  1  0  0  0
 71143  1  0  0  0
 72 74  1  0  0  0
 72 75  1  0  0  0
 72 78  2  0  0  0
 73 79  1  0  0  0
 73 81  1  0  0  0
 74 79  2  0  0  0
 74 80  1  0  0  0
 75 82  1  0  0  0
 75 83  2  0  0  0
 76 77  1  0  0  0
 76 82  1  0  0  0
 76144  1  0  0  0
 76145  1  0  0  0
 77146  1  0  0  0
 77147  1  0  0  0
 80148  1  0  0  0
 80149  1  0  0  0
 81150  1  0  0  0
 82151  1  0  0  0
M  ISO  4   1 100  68 101  77 101  81 100
M  END
> <chiral flag>
0

> <version>
0

> <s_m_source_file>
/data/baiqing/PycharmProjects/Reinvent-master-3.2/result/LINK_invent/BTK/process_docking_weight1_custom_product_contain_oxygen_bond_distance_aromatic_linkinvent_7_9_3/rearranged_h_0194.sdf

> <i_m_source_file_index>
90

> <r_mmod_Potential_Energy-OPLS-2005>
150.417022705078

> <r_mmod_Stretch_Energy-OPLS-2005>
94.8797225952148

> <r_mmod_Bend_Energy-OPLS-2005>
162.841537475586

> <r_mmod_Torsional_Energy-OPLS-2005>
241.343994140625

> <r_mmod_Improper_Torsional_Energy-OPLS-2005>
5.21650218963623

> <r_mmod_Van_der_Waal_Energy-OPLS-2005>
146.668594360352

> <r_mmod_Electrostatic_Energy-OPLS-2005>
-281.240600585938

> <r_mmod_Solvation_Energy-OPLS-2005>
-274.537170410156

> <b_mmod_Minimization_Converged-OPLS-2005>
0

> <r_mmod_RMS_Derivative-OPLS-2005>
1.95669806003571

$$$$
90
                    3D
 Structure written by MMmdl.
165173  0  0  1  0            999 V2000
  -30.5578  -14.7527   20.5027 C   0  0  0  0  0  0
  -30.4448  -12.4619   19.4799 C   0  0  0  0  0  0
  -29.5157  -12.5165   18.2433 C   0  0  0  0  0  0
  -28.0370  -12.3371   18.6411 C   0  0  0  0  0  0
  -27.6397  -13.2241   19.8478 C   0  0  2  0  0  0
  -28.6785  -13.1294   20.9842 C   0  0  0  0  0  0
  -25.2497  -13.8173   20.5617 C   0  0  0  0  0  0
  -24.1805  -13.0424   20.9178 C   0  0  0  0  0  0
  -24.6404  -11.6901   20.8743 C   0  0  0  0  0  0
  -23.9108  -10.4272   21.0413 C   0  0  0  0  0  0
  -24.3638   -9.4181   21.9209 C   0  0  0  0  0  0
  -23.6292   -8.2227   22.0772 C   0  0  0  0  0  0
  -22.4292   -8.0275   21.3536 C   0  0  0  0  0  0
  -21.9945   -9.0254   20.4644 C   0  0  0  0  0  0
  -22.7286  -10.2120   20.3064 C   0  0  0  0  0  0
  -21.6843   -6.0737   22.5272 C   0  0  0  0  0  0
  -21.3999   -6.5641   23.8200 C   0  0  0  0  0  0
  -21.3653   -5.6788   24.9160 C   0  0  0  0  0  0
  -21.6034   -4.3052   24.7221 C   0  0  0  0  0  0
  -21.8829   -3.8157   23.4344 C   0  0  0  0  0  0
  -21.9194   -4.6962   22.3393 C   0  0  0  0  0  0
  -22.7831  -13.5180   21.1857 C   0  0  0  0  0  0
  -22.1662   -4.2159   21.0963 F   0  0  0  0  0  0
  -21.5640   -3.4539   25.7735 F   0  0  0  0  0  0
  -29.9877  -13.4997   20.4327 N   0  0  0  0  0  0
  -26.2909  -12.9370   20.3225 N   0  0  0  0  0  0
  -25.9320  -11.6523   20.5756 N   0  0  0  0  0  0
  -22.0510  -12.8171   22.0417 N   0  0  0  0  0  0
  -25.4152  -15.1901   20.4000 N   0  0  0  0  0  0
  -31.7263  -14.9007   20.1266 O   0  0  0  0  0  0
  -21.6636   -6.8890   21.4242 O   0  0  0  0  0  0
  -22.3502  -14.5472   20.6685 O   0  0  0  0  0  0
  -24.6339  -31.8515   23.1993 C   0  0  0  0  0  0
  -25.9182  -32.4719   23.8317 C   0  0  1  0  0  0
  -27.1971  -27.2352   20.1838 C   0  0  0  0  0  0
  -25.5971  -33.8525   24.2245 N   0  0  0  0  0  0
  -23.4270  -30.4772   21.5415 C   0  0  2  0  0  0
  -24.8694  -28.9100   20.1250 C   0  0  0  0  0  0
  -22.7475  -29.4626   22.4914 C   0  0  0  0  0  0
  -18.0243  -28.1428   22.8514 C   0  0  0  0  0  0
  -24.1446  -36.7230   23.2677 C   0  0  0  0  0  0
  -25.9728  -30.7579   21.3813 C   0  0  0  0  0  0
  -26.0397  -29.3749   20.7397 C   0  0  0  0  0  0
  -27.2112  -28.5538   20.7495 C   0  0  0  0  0  0
  -26.0121  -26.8278   19.5416 C   0  0  0  0  0  0
  -24.8619  -27.6449   19.5126 C   0  0  0  0  0  0
  -23.6454  -29.8068   20.1584 C   0  0  0  0  0  0
  -25.4089  -36.3026   24.0344 C   0  0  1  0  0  0
  -20.5862  -28.3734   23.1242 C   0  0  2  0  0  0
  -20.6736  -26.9440   22.5401 C   0  0  0  0  0  0
  -19.5674  -26.6345   21.5248 C   0  0  0  0  0  0
  -18.1840  -26.7958   22.1652 C   0  0  0  0  0  0
  -19.1527  -28.8899   23.2842 C   0  0  0  0  0  0
  -18.9492  -30.1498   23.8841 C   0  0  0  0  0  0
  -17.6515  -30.6658   24.0563 C   0  0  0  0  0  0
  -25.9058  -34.9414   23.5082 C   0  0  0  0  0  0
  -16.5382  -29.9163   23.6404 C   0  0  0  0  0  0
  -16.7244  -28.6575   23.0426 C   0  0  0  0  0  0
  -26.4531  -31.6619   25.0763 C   0  0  0  0  0  0
  -25.3756  -31.3725   26.1482 C   0  0  0  0  0  0
  -27.0501  -30.3072   24.6300 C   0  0  0  0  0  0
  -27.6001  -32.4458   25.7570 C   0  0  0  0  0  0
  -27.5520  -37.1740   24.8499 C   0  0  0  0  0  0
  -21.4194  -29.3063   22.3643 N   0  0  0  0  0  0
  -26.4227  -37.3750   23.9462 N   0  0  0  0  0  0
  -24.6966  -31.0491   22.0949 N   0  0  0  0  0  0
  -23.4155  -28.8149   23.3028 O   0  0  0  0  0  0
  -28.3195  -26.3988   20.0784 O   0  0  0  0  0  0
  -26.5609  -34.8920   22.4646 O   0  0  0  0  0  0
  -23.5504  -32.1381   23.7288 O   0  0  0  0  0  0
  -27.7562  -18.4808   19.7960 C   0  0  0  0  0  0
  -29.0115  -18.7424   20.3838 C   0  0  0  0  0  0
  -26.8758  -19.5624   19.6496 C   0  0  0  0  0  0
  -28.3539  -21.0553   20.5580 C   0  0  0  0  0  0
  -24.4750  -22.9394   21.3124 C   0  0  0  0  0  0
  -25.1185  -22.8913   23.7317 C   0  0  0  0  0  0
  -30.0952  -17.5650   20.4529 C   0  0  0  0  0  0
  -29.6989  -16.0538   20.9141 C   0  0  0  0  0  0
  -26.7896  -23.8008   22.0535 C   0  0  0  0  0  0
  -28.5664  -25.1148   20.8242 C   0  0  0  0  0  0
  -25.6509  -22.7716   22.2885 C   0  0  0  0  0  0
  -27.7555  -23.6924   20.8212 C   0  0  1  0  0  0
  -29.2851  -20.0663   20.7607 N   0  0  0  0  0  0
  -27.1667  -20.8221   20.0163 N   0  0  0  0  0  0
  -25.6295  -19.3501   19.0732 N   0  0  0  0  0  0
  -28.6213  -22.4248   20.9057 N   0  0  0  0  0  0
  -27.4015  -17.2487   19.3447 F   0  0  0  0  0  0
  -31.4794  -12.6168   19.1719 H   0  0  0  0  0  0
  -30.4149  -11.4762   19.9490 H   0  0  0  0  0  0
  -29.7983  -11.7525   17.5191 H   0  0  0  0  0  0
  -29.6418  -13.4802   17.7461 H   0  0  0  0  0  0
  -27.8738  -11.2852   18.8829 H   0  0  0  0  0  0
  -27.3894  -12.5532   17.7893 H   0  0  0  0  0  0
  -27.6347  -14.2458   19.4732 H   0  0  0  0  0  0
  -28.7074  -12.1130   21.3795 H   0  0  0  0  0  0
  -28.3985  -13.7740   21.8185 H   0  0  0  0  0  0
  -25.2773   -9.5625   22.4805 H   0  0  0  0  0  0
  -23.9962   -7.4614   22.7493 H   0  0  0  0  0  0
  -21.0889   -8.8791   19.8937 H   0  0  0  0  0  0
  -22.3771  -10.9666   19.6178 H   0  0  0  0  0  0
  -21.1975   -7.6146   23.9714 H   0  0  0  0  0  0
  -21.1464   -6.0510   25.9051 H   0  0  0  0  0  0
  -22.0618   -2.7630   23.2852 H   0  0  0  0  0  0
  -22.4147  -11.9828   22.4778 H   0  0  0  0  0  0
  -21.1144  -13.1220   22.2697 H   0  0  0  0  0  0
  -24.6332  -15.8303   20.4785 H   0  0  0  0  0  0
  -26.2548  -15.6381   20.0474 H   0  0  0  0  0  0
  -26.7250  -32.5359   23.1045 H   0  0  0  0  0  0
  -25.0149  -33.9627   25.0410 H   0  0  0  0  0  0
  -22.7321  -31.3040   21.3911 H   0  0  0  0  0  0
  -23.3740  -35.9522   23.3344 H   0  0  0  0  0  0
  -24.3519  -36.8881   22.2091 H   0  0  0  0  0  0
  -23.7151  -37.6402   23.6745 H   0  0  0  0  0  0
  -26.1215  -31.5101   20.6081 H   0  0  0  0  0  0
  -26.8484  -30.8010   22.0171 H   0  0  0  0  0  0
  -28.1197  -28.9140   21.2078 H   0  0  0  0  0  0
  -25.9841  -25.8622   19.0563 H   0  0  0  0  0  0
  -23.9709  -27.2843   19.0147 H   0  0  0  0  0  0
  -23.7796  -30.5826   19.4041 H   0  0  0  0  0  0
  -22.7595  -29.2486   19.8494 H   0  0  0  0  0  0
  -25.1246  -36.1834   25.0824 H   0  0  0  0  0  0
  -20.9916  -28.3329   24.1385 H   0  0  0  0  0  0
  -20.5701  -26.2342   23.3623 H   0  0  0  0  0  0
  -21.6577  -26.7458   22.1138 H   0  0  0  0  0  0
  -19.6816  -25.6215   21.1361 H   0  0  0  0  0  0
  -19.6623  -27.3088   20.6721 H   0  0  0  0  0  0
  -17.4094  -26.6758   21.4047 H   0  0  0  0  0  0
  -18.0185  -26.0097   22.9042 H   0  0  0  0  0  0
  -19.7991  -30.7291   24.2187 H   0  0  0  0  0  0
  -17.5113  -31.6365   24.5125 H   0  0  0  0  0  0
  -15.5398  -30.3079   23.7813 H   0  0  0  0  0  0
  -15.8599  -28.0901   22.7233 H   0  0  0  0  0  0
  -24.5853  -30.7169   25.7783 H   0  0  0  0  0  0
  -24.9034  -32.2890   26.5047 H   0  0  0  0  0  0
  -25.8043  -30.8770   27.0201 H   0  0  0  0  0  0
  -26.3124  -29.6692   24.1393 H   0  0  0  0  0  0
  -27.4319  -29.7452   25.4845 H   0  0  0  0  0  0
  -27.8920  -30.4441   23.9497 H   0  0  0  0  0  0
  -27.2490  -33.3746   26.2085 H   0  0  0  0  0  0
  -28.3816  -32.7062   25.0425 H   0  0  0  0  0  0
  -28.0669  -31.8677   26.5562 H   0  0  0  0  0  0
  -28.2502  -38.0061   24.7588 H   0  0  0  0  0  0
  -28.1014  -36.2588   24.6265 H   0  0  0  0  0  0
  -27.2233  -37.1325   25.8892 H   0  0  0  0  0  0
  -20.9400  -29.8847   21.6895 H   0  0  0  0  0  0
  -26.0096  -38.2790   24.1555 H   0  0  0  0  0  0
  -23.7169  -22.1728   21.4769 H   0  0  0  0  0  0
  -24.7995  -22.8651   20.2744 H   0  0  0  0  0  0
  -23.9831  -23.9049   21.4460 H   0  0  0  0  0  0
  -24.3764  -22.1228   23.9506 H   0  0  0  0  0  0
  -24.6394  -23.8572   23.9041 H   0  0  0  0  0  0
  -25.9175  -22.7865   24.4679 H   0  0  0  0  0  0
  -30.9017  -17.9134   21.0954 H   0  0  0  0  0  0
  -30.5423  -17.4993   19.4591 H   0  0  0  0  0  0
  -28.7077  -15.8564   20.5248 H   0  0  0  0  0  0
  -29.5773  -16.0521   21.9952 H   0  0  0  0  0  0
  -27.4162  -23.7973   22.9471 H   0  0  0  0  0  0
  -26.3295  -24.7901   22.0447 H   0  0  0  0  0  0
  -29.5790  -24.8676   20.5029 H   0  0  0  0  0  0
  -28.7235  -25.4154   21.8613 H   0  0  0  0  0  0
  -26.0507  -21.7637   22.1886 H   0  0  0  0  0  0
  -27.1793  -23.6369   19.8964 H   0  0  0  0  0  0
  -25.3838  -18.3751   18.9577 H   0  0  0  0  0  0
  -24.8692  -19.9249   19.4058 H   0  0  0  0  0  0
  -29.5232  -22.5523   21.3474 H   0  0  0  0  0  0
  1 25  1  0  0  0
  1 30  2  0  0  0
  1 78  1  0  0  0
  2  3  1  0  0  0
  2 25  1  0  0  0
  2 88  1  0  0  0
  2 89  1  0  0  0
  3  4  1  0  0  0
  3 90  1  0  0  0
  3 91  1  0  0  0
  4  5  1  0  0  0
  4 92  1  0  0  0
  4 93  1  0  0  0
  5  6  1  0  0  0
  5 26  1  0  0  0
  5 94  1  0  0  0
  6 25  1  0  0  0
  6 95  1  0  0  0
  6 96  1  0  0  0
  7  8  2  0  0  0
  7 26  1  0  0  0
  7 29  1  0  0  0
  8  9  1  0  0  0
  8 22  1  0  0  0
  9 10  1  0  0  0
  9 27  2  0  0  0
 10 11  2  0  0  0
 10 15  1  0  0  0
 11 12  1  0  0  0
 11 97  1  0  0  0
 12 13  2  0  0  0
 12 98  1  0  0  0
 13 14  1  0  0  0
 13 31  1  0  0  0
 14 15  2  0  0  0
 14 99  1  0  0  0
 15100  1  0  0  0
 16 17  2  0  0  0
 16 21  1  0  0  0
 16 31  1  0  0  0
 17 18  1  0  0  0
 17101  1  0  0  0
 18 19  2  0  0  0
 18102  1  0  0  0
 19 20  1  0  0  0
 19 24  1  0  0  0
 20 21  2  0  0  0
 20103  1  0  0  0
 21 23  1  0  0  0
 22 28  1  0  0  0
 22 32  2  0  0  0
 26 27  1  0  0  0
 28104  1  0  0  0
 28105  1  0  0  0
 29106  1  0  0  0
 29107  1  0  0  0
 33 34  1  0  0  0
 33 66  1  0  0  0
 33 70  2  0  0  0
 34 36  1  0  0  0
 34 59  1  0  0  0
 34108  1  0  0  0
 35 44  2  0  0  0
 35 45  1  0  0  0
 35 68  1  0  0  0
 36 56  1  0  0  0
 36109  1  0  0  0
 37 39  1  0  0  0
 37 47  1  0  0  0
 37 66  1  0  0  0
 37110  1  0  0  0
 38 43  2  0  0  0
 38 46  1  0  0  0
 38 47  1  0  0  0
 39 64  1  0  0  0
 39 67  2  0  0  0
 40 52  1  0  0  0
 40 53  2  0  0  0
 40 58  1  0  0  0
 41111  1  0  0  0
 41112  1  0  0  0
 41113  1  0  0  0
 41 48  1  0  0  0
 42 43  1  0  0  0
 42 66  1  0  0  0
 42114  1  0  0  0
 42115  1  0  0  0
 43 44  1  0  0  0
 44116  1  0  0  0
 45 46  2  0  0  0
 45117  1  0  0  0
 46118  1  0  0  0
 47119  1  0  0  0
 47120  1  0  0  0
 48 56  1  0  0  0
 48 65  1  0  0  0
 48121  1  0  0  0
 49 50  1  0  0  0
 49 53  1  0  0  0
 49 64  1  0  0  0
 49122  1  0  0  0
 50 51  1  0  0  0
 50123  1  0  0  0
 50124  1  0  0  0
 51 52  1  0  0  0
 51125  1  0  0  0
 51126  1  0  0  0
 52127  1  0  0  0
 52128  1  0  0  0
 53 54  1  0  0  0
 54 55  2  0  0  0
 54129  1  0  0  0
 55 57  1  0  0  0
 55130  1  0  0  0
 56 69  2  0  0  0
 57 58  2  0  0  0
 57131  1  0  0  0
 58132  1  0  0  0
 59 60  1  0  0  0
 59 61  1  0  0  0
 59 62  1  0  0  0
 60133  1  0  0  0
 60134  1  0  0  0
 60135  1  0  0  0
 61136  1  0  0  0
 61137  1  0  0  0
 61138  1  0  0  0
 62139  1  0  0  0
 62140  1  0  0  0
 62141  1  0  0  0
 63 65  1  0  0  0
 63142  1  0  0  0
 63143  1  0  0  0
 63144  1  0  0  0
 64145  1  0  0  0
 65146  1  0  0  0
 68 80  1  0  0  0
 71 72  2  0  0  0
 71 73  1  0  0  0
 71 87  1  0  0  0
 72 77  1  0  0  0
 72 83  1  0  0  0
 73 84  2  0  0  0
 73 85  1  0  0  0
 74 83  2  0  0  0
 74 84  1  0  0  0
 74 86  1  0  0  0
 75147  1  0  0  0
 75148  1  0  0  0
 75149  1  0  0  0
 75 81  1  0  0  0
 76 81  1  0  0  0
 76150  1  0  0  0
 76151  1  0  0  0
 76152  1  0  0  0
 77 78  1  0  0  0
 77153  1  0  0  0
 77154  1  0  0  0
 78155  1  0  0  0
 78156  1  0  0  0
 79 81  1  0  0  0
 79157  1  0  0  0
 79158  1  0  0  0
 79 82  1  0  0  0
 80 82  1  0  0  0
 80159  1  0  0  0
 80160  1  0  0  0
 81161  1  0  0  0
 82 86  1  0  0  0
 82162  1  0  0  0
 85163  1  0  0  0
 85164  1  0  0  0
 86165  1  0  0  0
M  ISO  4   1 100  68 101  78 100  80 101
M  END
> <chiral flag>
0

> <version>
0

> <s_m_source_file>
/data/baiqing/PycharmProjects/Reinvent-master-3.2/result/LINK_invent/BTK/process_docking_weight1_custom_product_contain_oxygen_bond_distance_aromatic_linkinvent_7_9_3/rearranged_h_0194.sdf

> <i_m_source_file_index>
91

> <r_mmod_Potential_Energy-OPLS-2005>
-325.185699462891

> <r_mmod_Stretch_Energy-OPLS-2005>
135.012878417969

> <r_mmod_Bend_Energy-OPLS-2005>
227.32080078125

> <r_mmod_Torsional_Energy-OPLS-2005>
213.636444091797

> <r_mmod_Improper_Torsional_Energy-OPLS-2005>
8.45897579193115

> <r_mmod_Van_der_Waal_Energy-OPLS-2005>
127.439247131348

> <r_mmod_Electrostatic_Energy-OPLS-2005>
-907.470825195312

> <r_mmod_Solvation_Energy-OPLS-2005>
-215.978988647461

> <b_mmod_Minimization_Converged-OPLS-2005>
0

> <r_mmod_RMS_Derivative-OPLS-2005>
4.8365797996521

$$$$
91
                    3D
 Structure written by MMmdl.
162170  0  0  1  0            999 V2000
  -30.6695  -14.5351   20.4960 C   0  0  0  0  0  0
  -30.4281  -12.3220   19.4490 C   0  0  0  0  0  0
  -29.5063  -12.4952   18.2225 C   0  0  0  0  0  0
  -28.0272  -12.3485   18.6313 C   0  0  0  0  0  0
  -27.6603  -13.2073   19.8712 C   0  0  2  0  0  0
  -28.7028  -13.0355   21.0018 C   0  0  0  0  0  0
  -25.2589  -13.8157   20.5673 C   0  0  0  0  0  0
  -24.1843  -13.0438   20.9175 C   0  0  0  0  0  0
  -24.6403  -11.6908   20.8742 C   0  0  0  0  0  0
  -23.9063  -10.4296   21.0414 C   0  0  0  0  0  0
  -24.3615   -9.4214   21.9189 C   0  0  0  0  0  0
  -23.6302   -8.2246   22.0759 C   0  0  0  0  0  0
  -22.4278   -8.0284   21.3551 C   0  0  0  0  0  0
  -21.9917   -9.0255   20.4649 C   0  0  0  0  0  0
  -22.7237  -10.2137   20.3068 C   0  0  0  0  0  0
  -21.6853   -6.0744   22.5282 C   0  0  0  0  0  0
  -21.4006   -6.5645   23.8213 C   0  0  0  0  0  0
  -21.3657   -5.6793   24.9173 C   0  0  0  0  0  0
  -21.6047   -4.3057   24.7225 C   0  0  0  0  0  0
  -21.8817   -3.8153   23.4345 C   0  0  0  0  0  0
  -21.9198   -4.6972   22.3404 C   0  0  0  0  0  0
  -22.7865  -13.5239   21.1839 C   0  0  0  0  0  0
  -22.1663   -4.2159   21.0980 F   0  0  0  0  0  0
  -21.5634   -3.4539   25.7737 F   0  0  0  0  0  0
  -30.0322  -13.3312   20.4458 N   0  0  0  0  0  0
  -26.3022  -12.9325   20.3347 N   0  0  0  0  0  0
  -25.9326  -11.6486   20.5768 N   0  0  0  0  0  0
  -22.0499  -12.8239   22.0392 N   0  0  0  0  0  0
  -25.4299  -15.1885   20.4069 N   0  0  0  0  0  0
  -31.8233  -14.6938   20.0912 O   0  0  0  0  0  0
  -21.6639   -6.8886   21.4247 O   0  0  0  0  0  0
  -22.3557  -14.5549   20.6686 O   0  0  0  0  0  0
  -24.6183  -31.8661   23.2095 C   0  0  0  0  0  0
  -25.9066  -32.4811   23.8397 C   0  0  1  0  0  0
  -27.2319  -27.4100   20.1056 C   0  0  0  0  0  0
  -25.5912  -33.8611   24.2321 N   0  0  0  0  0  0
  -23.4069  -30.4893   21.5513 C   0  0  2  0  0  0
  -24.8547  -28.9552   20.1120 C   0  0  0  0  0  0
  -22.7429  -29.4655   22.5005 C   0  0  0  0  0  0
  -18.0277  -28.1383   22.8499 C   0  0  0  0  0  0
  -24.1487  -36.7306   23.2640 C   0  0  0  0  0  0
  -25.9385  -30.8249   21.3668 C   0  0  0  0  0  0
  -26.0166  -29.4586   20.7115 C   0  0  0  0  0  0
  -27.2106  -28.6945   20.7026 C   0  0  0  0  0  0
  -26.0562  -26.9366   19.4824 C   0  0  0  0  0  0
  -24.8716  -27.6958   19.4903 C   0  0  0  0  0  0
  -23.6152  -29.8213   20.1660 C   0  0  0  0  0  0
  -25.4109  -36.3103   24.0336 C   0  0  1  0  0  0
  -20.5866  -28.3671   23.1324 C   0  0  2  0  0  0
  -20.6769  -26.9407   22.5425 C   0  0  0  0  0  0
  -19.5745  -26.6391   21.5224 C   0  0  0  0  0  0
  -18.1922  -26.7934   22.1627 C   0  0  0  0  0  0
  -19.1525  -28.8847   23.2906 C   0  0  0  0  0  0
  -18.9448  -30.1453   23.8913 C   0  0  0  0  0  0
  -17.6448  -30.6589   24.0567 C   0  0  0  0  0  0
  -25.9039  -34.9469   23.5124 C   0  0  0  0  0  0
  -16.5341  -29.9085   23.6330 C   0  0  0  0  0  0
  -16.7264  -28.6504   23.0351 C   0  0  0  0  0  0
  -26.4492  -31.6593   25.0729 C   0  0  0  0  0  0
  -25.3762  -31.3689   26.1476 C   0  0  0  0  0  0
  -27.0325  -30.3031   24.6115 C   0  0  0  0  0  0
  -27.6071  -32.4318   25.7483 C   0  0  0  0  0  0
  -27.5580  -37.1804   24.8463 C   0  0  0  0  0  0
  -21.4155  -29.3030   22.3729 N   0  0  0  0  0  0
  -26.4292  -37.3790   23.9407 N   0  0  0  0  0  0
  -24.6726  -31.0741   22.1006 N   0  0  0  0  0  0
  -23.4187  -28.8206   23.3063 O   0  0  0  0  0  0
  -28.3713  -26.6243   20.1183 O   0  0  0  0  0  0
  -26.5599  -34.8919   22.4682 O   0  0  0  0  0  0
  -23.5370  -32.1433   23.7468 O   0  0  0  0  0  0
  -30.2938  -18.1707   20.6778 C   0  0  0  0  0  0
  -31.2209  -18.3824   21.6805 C   0  0  0  0  0  0
  -30.2365  -20.4792   20.8020 C   0  0  0  0  0  0
  -28.0624  -21.6193   23.0837 C   0  0  0  0  0  0
  -30.6932  -24.7553   20.8873 C   0  0  0  0  0  0
  -29.9351  -16.8689   19.9645 C   0  0  0  0  0  0
  -28.9143  -22.7733   22.5352 C   0  0  0  0  0  0
  -28.2073  -25.3359   20.7651 C   0  0  0  0  0  0
  -29.3033  -24.2662   20.4379 C   0  0  2  0  0  0
  -28.9834  -22.8201   20.9882 C   0  0  1  0  0  0
  -29.7168  -19.3838   20.2256 N   0  0  0  0  0  0
  -32.0151  -17.4545   22.3481 N   0  0  0  0  0  0
  -29.9342  -21.8130   20.4807 N   0  0  0  0  0  0
  -29.8717  -15.5991   20.7304 N   0  0  0  0  0  0
  -31.4142  -20.0837   22.0471 S   0  0  0  0  0  0
  -31.4741  -12.4151   19.1529 H   0  0  0  0  0  0
  -30.3267  -11.3195   19.8681 H   0  0  0  0  0  0
  -29.7566  -11.7595   17.4569 H   0  0  0  0  0  0
  -29.6697  -13.4751   17.7693 H   0  0  0  0  0  0
  -27.8469  -11.2936   18.8444 H   0  0  0  0  0  0
  -27.3787  -12.6030   17.7926 H   0  0  0  0  0  0
  -27.6891  -14.2470   19.5449 H   0  0  0  0  0  0
  -28.6829  -12.0146   21.3879 H   0  0  0  0  0  0
  -28.4679  -13.6802   21.8504 H   0  0  0  0  0  0
  -25.2764   -9.5679   22.4751 H   0  0  0  0  0  0
  -24.0015   -7.4628   22.7466 H   0  0  0  0  0  0
  -21.0858   -8.8765   19.8942 H   0  0  0  0  0  0
  -22.3703  -10.9674   19.6171 H   0  0  0  0  0  0
  -21.1977   -7.6146   23.9719 H   0  0  0  0  0  0
  -21.1483   -6.0519   25.9073 H   0  0  0  0  0  0
  -22.0604   -2.7618   23.2840 H   0  0  0  0  0  0
  -22.4115  -11.9915   22.4801 H   0  0  0  0  0  0
  -21.1110  -13.1255   22.2575 H   0  0  0  0  0  0
  -24.6574  -15.8382   20.5032 H   0  0  0  0  0  0
  -26.2782  -15.6303   20.0759 H   0  0  0  0  0  0
  -26.7138  -32.5516   23.1162 H   0  0  0  0  0  0
  -25.0075  -33.9777   25.0474 H   0  0  0  0  0  0
  -22.6967  -31.3070   21.4120 H   0  0  0  0  0  0
  -23.3750  -35.9638   23.3311 H   0  0  0  0  0  0
  -24.3578  -36.8916   22.2052 H   0  0  0  0  0  0
  -23.7239  -37.6511   23.6656 H   0  0  0  0  0  0
  -26.0534  -31.5929   20.6004 H   0  0  0  0  0  0
  -26.8251  -30.8768   21.9873 H   0  0  0  0  0  0
  -28.1069  -29.0761   21.1720 H   0  0  0  0  0  0
  -26.0520  -25.9772   18.9850 H   0  0  0  0  0  0
  -23.9823  -27.3078   19.0131 H   0  0  0  0  0  0
  -23.7168  -30.5957   19.4052 H   0  0  0  0  0  0
  -22.7395  -29.2385   19.8745 H   0  0  0  0  0  0
  -25.1291  -36.1970   25.0833 H   0  0  0  0  0  0
  -20.9952  -28.3238   24.1444 H   0  0  0  0  0  0
  -20.5687  -26.2277   23.3610 H   0  0  0  0  0  0
  -21.6638  -26.7463   22.1204 H   0  0  0  0  0  0
  -19.6905  -25.6306   21.1243 H   0  0  0  0  0  0
  -19.6684  -27.3213   20.6763 H   0  0  0  0  0  0
  -17.4196  -26.6701   21.4020 H   0  0  0  0  0  0
  -18.0305  -26.0071   22.9015 H   0  0  0  0  0  0
  -19.7920  -30.7272   24.2286 H   0  0  0  0  0  0
  -17.4996  -31.6269   24.5164 H   0  0  0  0  0  0
  -15.5339  -30.2985   23.7648 H   0  0  0  0  0  0
  -15.8669  -28.0828   22.7049 H   0  0  0  0  0  0
  -24.5911  -30.7074   25.7795 H   0  0  0  0  0  0
  -24.8985  -32.2836   26.4992 H   0  0  0  0  0  0
  -25.8114  -30.8792   27.0195 H   0  0  0  0  0  0
  -26.2862  -29.6777   24.1197 H   0  0  0  0  0  0
  -27.4114  -29.7290   25.4583 H   0  0  0  0  0  0
  -27.8697  -30.4342   23.9254 H   0  0  0  0  0  0
  -27.2694  -33.3597   26.2109 H   0  0  0  0  0  0
  -28.3848  -32.6914   25.0289 H   0  0  0  0  0  0
  -28.0783  -31.8420   26.5354 H   0  0  0  0  0  0
  -28.2608  -38.0094   24.7512 H   0  0  0  0  0  0
  -28.1069  -36.2626   24.6293 H   0  0  0  0  0  0
  -27.2295  -37.1460   25.8866 H   0  0  0  0  0  0
  -20.9329  -29.8723   21.6919 H   0  0  0  0  0  0
  -26.0184  -38.2871   24.1405 H   0  0  0  0  0  0
  -28.0222  -21.6595   24.1726 H   0  0  0  0  0  0
  -28.4555  -20.6416   22.8096 H   0  0  0  0  0  0
  -27.0384  -21.6794   22.7150 H   0  0  0  0  0  0
  -30.8909  -25.7637   20.5247 H   0  0  0  0  0  0
  -31.4873  -24.1157   20.5033 H   0  0  0  0  0  0
  -30.7797  -24.7820   21.9733 H   0  0  0  0  0  0
  -30.6202  -16.7453   19.1242 H   0  0  0  0  0  0
  -28.9583  -16.9807   19.4931 H   0  0  0  0  0  0
  -29.9172  -22.7383   22.9636 H   0  0  0  0  0  0
  -28.4722  -23.6889   22.9235 H   0  0  0  0  0  0
  -28.1915  -25.5370   21.8357 H   0  0  0  0  0  0
  -27.2388  -24.8928   20.5351 H   0  0  0  0  0  0
  -29.3221  -24.1931   19.3499 H   0  0  0  0  0  0
  -27.9998  -22.5483   20.6008 H   0  0  0  0  0  0
  -32.1260  -16.5117   21.9851 H   0  0  0  0  0  0
  -32.7908  -17.7350   22.9418 H   0  0  0  0  0  0
  -30.8078  -22.2884   20.2844 H   0  0  0  0  0  0
  -28.9732  -15.3843   21.1331 H   0  0  0  0  0  0
  1 25  1  0  0  0
  1 30  2  0  0  0
  1 84  1  0  0  0
  2  3  1  0  0  0
  2 25  1  0  0  0
  2 86  1  0  0  0
  2 87  1  0  0  0
  3  4  1  0  0  0
  3 88  1  0  0  0
  3 89  1  0  0  0
  4  5  1  0  0  0
  4 90  1  0  0  0
  4 91  1  0  0  0
  5  6  1  0  0  0
  5 26  1  0  0  0
  5 92  1  0  0  0
  6 25  1  0  0  0
  6 93  1  0  0  0
  6 94  1  0  0  0
  7  8  2  0  0  0
  7 26  1  0  0  0
  7 29  1  0  0  0
  8  9  1  0  0  0
  8 22  1  0  0  0
  9 10  1  0  0  0
  9 27  2  0  0  0
 10 11  2  0  0  0
 10 15  1  0  0  0
 11 12  1  0  0  0
 11 95  1  0  0  0
 12 13  2  0  0  0
 12 96  1  0  0  0
 13 14  1  0  0  0
 13 31  1  0  0  0
 14 15  2  0  0  0
 14 97  1  0  0  0
 15 98  1  0  0  0
 16 17  2  0  0  0
 16 21  1  0  0  0
 16 31  1  0  0  0
 17 18  1  0  0  0
 17 99  1  0  0  0
 18 19  2  0  0  0
 18100  1  0  0  0
 19 20  1  0  0  0
 19 24  1  0  0  0
 20 21  2  0  0  0
 20101  1  0  0  0
 21 23  1  0  0  0
 22 28  1  0  0  0
 22 32  2  0  0  0
 26 27  1  0  0  0
 28102  1  0  0  0
 28103  1  0  0  0
 29104  1  0  0  0
 29105  1  0  0  0
 33 34  1  0  0  0
 33 66  1  0  0  0
 33 70  2  0  0  0
 34 36  1  0  0  0
 34 59  1  0  0  0
 34106  1  0  0  0
 35 44  2  0  0  0
 35 45  1  0  0  0
 35 68  1  0  0  0
 36 56  1  0  0  0
 36107  1  0  0  0
 37 39  1  0  0  0
 37 47  1  0  0  0
 37 66  1  0  0  0
 37108  1  0  0  0
 38 43  2  0  0  0
 38 46  1  0  0  0
 38 47  1  0  0  0
 39 64  1  0  0  0
 39 67  2  0  0  0
 40 52  1  0  0  0
 40 53  2  0  0  0
 40 58  1  0  0  0
 41109  1  0  0  0
 41110  1  0  0  0
 41111  1  0  0  0
 41 48  1  0  0  0
 42 43  1  0  0  0
 42 66  1  0  0  0
 42112  1  0  0  0
 42113  1  0  0  0
 43 44  1  0  0  0
 44114  1  0  0  0
 45 46  2  0  0  0
 45115  1  0  0  0
 46116  1  0  0  0
 47117  1  0  0  0
 47118  1  0  0  0
 48 56  1  0  0  0
 48 65  1  0  0  0
 48119  1  0  0  0
 49 50  1  0  0  0
 49 53  1  0  0  0
 49 64  1  0  0  0
 49120  1  0  0  0
 50 51  1  0  0  0
 50121  1  0  0  0
 50122  1  0  0  0
 51 52  1  0  0  0
 51123  1  0  0  0
 51124  1  0  0  0
 52125  1  0  0  0
 52126  1  0  0  0
 53 54  1  0  0  0
 54 55  2  0  0  0
 54127  1  0  0  0
 55 57  1  0  0  0
 55128  1  0  0  0
 56 69  2  0  0  0
 57 58  2  0  0  0
 57129  1  0  0  0
 58130  1  0  0  0
 59 60  1  0  0  0
 59 61  1  0  0  0
 59 62  1  0  0  0
 60131  1  0  0  0
 60132  1  0  0  0
 60133  1  0  0  0
 61134  1  0  0  0
 61135  1  0  0  0
 61136  1  0  0  0
 62137  1  0  0  0
 62138  1  0  0  0
 62139  1  0  0  0
 63 65  1  0  0  0
 63140  1  0  0  0
 63141  1  0  0  0
 63142  1  0  0  0
 64143  1  0  0  0
 65144  1  0  0  0
 68 78  1  0  0  0
 71 72  2  0  0  0
 71 76  1  0  0  0
 71 81  1  0  0  0
 72 82  1  0  0  0
 72 85  1  0  0  0
 73 81  2  0  0  0
 73 83  1  0  0  0
 73 85  1  0  0  0
 74 77  1  0  0  0
 74145  1  0  0  0
 74146  1  0  0  0
 74147  1  0  0  0
 75148  1  0  0  0
 75149  1  0  0  0
 75150  1  0  0  0
 75 79  1  0  0  0
 76 84  1  0  0  0
 76151  1  0  0  0
 76152  1  0  0  0
 77153  1  0  0  0
 77154  1  0  0  0
 77 80  1  0  0  0
 78 79  1  0  0  0
 78155  1  0  0  0
 78156  1  0  0  0
 79 80  1  0  0  0
 79157  1  0  0  0
 80 83  1  0  0  0
 80158  1  0  0  0
 82159  1  0  0  0
 82160  1  0  0  0
 83161  1  0  0  0
 84162  1  0  0  0
M  ISO  4   1 100  68 101  78 101  84 100
M  END
> <chiral flag>
0

> <version>
0

> <s_m_source_file>
/data/baiqing/PycharmProjects/Reinvent-master-3.2/result/LINK_invent/BTK/process_docking_weight1_custom_product_contain_oxygen_bond_distance_aromatic_linkinvent_7_9_3/rearranged_h_0194.sdf

> <i_m_source_file_index>
92

> <r_mmod_Potential_Energy-OPLS-2005>
-59.6379776000977

> <r_mmod_Stretch_Energy-OPLS-2005>
45.225643157959

> <r_mmod_Bend_Energy-OPLS-2005>
108.786315917969

> <r_mmod_Torsional_Energy-OPLS-2005>
281.582824707031

> <r_mmod_Improper_Torsional_Energy-OPLS-2005>
14.6010246276855

> <r_mmod_Van_der_Waal_Energy-OPLS-2005>
121.467109680176

> <r_mmod_Electrostatic_Energy-OPLS-2005>
-428.763427734375

> <r_mmod_Solvation_Energy-OPLS-2005>
-223.992568969727

> <b_mmod_Minimization_Converged-OPLS-2005>
0

> <r_mmod_RMS_Derivative-OPLS-2005>
1.47132396697998

$$$$
92
                    3D
 Structure written by MMmdl.
151159  0  0  1  0            999 V2000
  -30.6258  -14.7635   20.4563 C   0  0  0  0  0  0
  -30.4288  -12.4700   19.4713 C   0  0  0  0  0  0
  -29.5122  -12.5200   18.2311 C   0  0  0  0  0  0
  -28.0351  -12.3468   18.6376 C   0  0  0  0  0  0
  -27.6381  -13.2412   19.8432 C   0  0  2  0  0  0
  -28.6853  -13.1934   20.9775 C   0  0  0  0  0  0
  -25.2489  -13.8216   20.5667 C   0  0  0  0  0  0
  -24.1813  -13.0431   20.9208 C   0  0  0  0  0  0
  -24.6424  -11.6913   20.8736 C   0  0  0  0  0  0
  -23.9110  -10.4278   21.0382 C   0  0  0  0  0  0
  -24.3649   -9.4193   21.9166 C   0  0  0  0  0  0
  -23.6309   -8.2240   22.0749 C   0  0  0  0  0  0
  -22.4293   -8.0282   21.3544 C   0  0  0  0  0  0
  -21.9932   -9.0254   20.4640 C   0  0  0  0  0  0
  -22.7276  -10.2124   20.3035 C   0  0  0  0  0  0
  -21.6857   -6.0732   22.5270 C   0  0  0  0  0  0
  -21.4017   -6.5634   23.8206 C   0  0  0  0  0  0
  -21.3669   -5.6789   24.9171 C   0  0  0  0  0  0
  -21.6047   -4.3054   24.7216 C   0  0  0  0  0  0
  -21.8824   -3.8145   23.4338 C   0  0  0  0  0  0
  -21.9190   -4.6958   22.3393 C   0  0  0  0  0  0
  -22.7824  -13.5188   21.1850 C   0  0  0  0  0  0
  -22.1653   -4.2143   21.0970 F   0  0  0  0  0  0
  -21.5636   -3.4538   25.7732 F   0  0  0  0  0  0
  -29.9834  -13.5443   20.3885 N   0  0  0  0  0  0
  -26.2930  -12.9442   20.3242 N   0  0  0  0  0  0
  -25.9353  -11.6576   20.5727 N   0  0  0  0  0  0
  -22.0484  -12.8185   22.0426 N   0  0  0  0  0  0
  -25.4126  -15.1945   20.4048 N   0  0  0  0  0  0
  -31.8236  -14.8192   20.1659 O   0  0  0  0  0  0
  -21.6649   -6.8879   21.4240 O   0  0  0  0  0  0
  -22.3491  -14.5470   20.6672 O   0  0  0  0  0  0
  -24.6314  -31.8545   23.1969 C   0  0  0  0  0  0
  -25.9133  -32.4752   23.8325 C   0  0  1  0  0  0
  -27.2279  -27.2565   20.1410 C   0  0  0  0  0  0
  -25.5939  -33.8554   24.2261 N   0  0  0  0  0  0
  -23.4301  -30.4742   21.5390 C   0  0  2  0  0  0
  -24.8811  -28.9141   20.1151 C   0  0  0  0  0  0
  -22.7503  -29.4597   22.4906 C   0  0  0  0  0  0
  -18.0290  -28.1383   22.8479 C   0  0  0  0  0  0
  -24.1490  -36.7292   23.2636 C   0  0  0  0  0  0
  -25.9748  -30.7674   21.3749 C   0  0  0  0  0  0
  -26.0522  -29.3863   20.7225 C   0  0  0  0  0  0
  -27.2312  -28.5717   20.7190 C   0  0  0  0  0  0
  -26.0367  -26.8499   19.5054 C   0  0  0  0  0  0
  -24.8794  -27.6552   19.4921 C   0  0  0  0  0  0
  -23.6517  -29.8023   20.1575 C   0  0  0  0  0  0
  -25.4113  -36.3071   24.0325 C   0  0  1  0  0  0
  -20.5895  -28.3705   23.1265 C   0  0  2  0  0  0
  -20.6783  -26.9420   22.5407 C   0  0  0  0  0  0
  -19.5759  -26.6379   21.5211 C   0  0  0  0  0  0
  -18.1941  -26.7923   22.1619 C   0  0  0  0  0  0
  -19.1543  -28.8857   23.2868 C   0  0  0  0  0  0
  -18.9462  -30.1458   23.8885 C   0  0  0  0  0  0
  -17.6460  -30.6582   24.0556 C   0  0  0  0  0  0
  -25.9056  -34.9440   23.5097 C   0  0  0  0  0  0
  -16.5352  -29.9080   23.6327 C   0  0  0  0  0  0
  -16.7274  -28.6497   23.0348 C   0  0  0  0  0  0
  -26.4503  -31.6568   25.0710 C   0  0  0  0  0  0
  -25.3734  -31.3716   26.1438 C   0  0  0  0  0  0
  -27.0343  -30.2981   24.6186 C   0  0  0  0  0  0
  -27.6049  -32.4314   25.7498 C   0  0  0  0  0  0
  -27.5578  -37.1803   24.8457 C   0  0  0  0  0  0
  -21.4208  -29.3049   22.3645 N   0  0  0  0  0  0
  -26.4286  -37.3771   23.9408 N   0  0  0  0  0  0
  -24.6981  -31.0502   22.0943 N   0  0  0  0  0  0
  -23.4192  -28.8135   23.3011 O   0  0  0  0  0  0
  -28.3266  -26.3657   20.1423 O   0  0  0  0  0  0
  -26.5615  -34.8911   22.4659 O   0  0  0  0  0  0
  -23.5466  -32.1364   23.7267 O   0  0  0  0  0  0
  -30.2500  -17.3495   20.6838 C   0  0  0  0  0  0
  -29.8484  -19.7156   20.6246 C   0  0  0  0  0  0
  -30.1384  -22.5312   21.9724 C   0  0  0  0  0  0
  -28.7709  -23.6067   20.0569 C   0  0  0  0  0  0
  -28.1551  -24.9762   20.7058 C   0  0  0  0  0  0
  -28.9864  -22.2739   20.9812 C   0  0  1  0  0  0
  -29.3694  -18.4180   20.4746 N   0  0  0  0  0  0
  -31.5333  -17.6306   21.0191 N   0  0  0  0  0  0
  -31.1347  -19.9392   20.9589 N   0  0  0  0  0  0
  -31.9483  -18.8966   21.1517 N   0  0  0  0  0  0
  -29.8572  -15.9179   20.5979 N   0  0  0  0  0  0
  -29.0308  -20.8843   20.3265 N   0  0  0  0  0  0
  -31.4711  -12.5869   19.1714 H   0  0  0  0  0  0
  -30.3650  -11.4988   19.9648 H   0  0  0  0  0  0
  -29.8003  -11.7488   17.5158 H   0  0  0  0  0  0
  -29.6429  -13.4759   17.7199 H   0  0  0  0  0  0
  -27.8828  -11.2966   18.8885 H   0  0  0  0  0  0
  -27.3858  -12.5554   17.7864 H   0  0  0  0  0  0
  -27.6223  -14.2611   19.4595 H   0  0  0  0  0  0
  -28.7256  -12.2029   21.4316 H   0  0  0  0  0  0
  -28.4199  -13.8871   21.7773 H   0  0  0  0  0  0
  -25.2791   -9.5661   22.4746 H   0  0  0  0  0  0
  -24.0009   -7.4629   22.7475 H   0  0  0  0  0  0
  -21.0859   -8.8781   19.8946 H   0  0  0  0  0  0
  -22.3734  -10.9665   19.6146 H   0  0  0  0  0  0
  -21.2013   -7.6145   23.9706 H   0  0  0  0  0  0
  -21.1491   -6.0522   25.9075 H   0  0  0  0  0  0
  -22.0596   -2.7606   23.2841 H   0  0  0  0  0  0
  -22.4116  -11.9858   22.4824 H   0  0  0  0  0  0
  -21.1086  -13.1180   22.2602 H   0  0  0  0  0  0
  -24.6364  -15.8410   20.5015 H   0  0  0  0  0  0
  -26.2458  -15.6361   20.0382 H   0  0  0  0  0  0
  -26.7197  -32.5406   23.1064 H   0  0  0  0  0  0
  -25.0097  -33.9693   25.0412 H   0  0  0  0  0  0
  -22.7266  -31.2959   21.3877 H   0  0  0  0  0  0
  -23.3755  -35.9624   23.3285 H   0  0  0  0  0  0
  -24.3576  -36.8933   22.2055 H   0  0  0  0  0  0
  -23.7246  -37.6489   23.6669 H   0  0  0  0  0  0
  -26.1072  -31.5258   20.6028 H   0  0  0  0  0  0
  -26.8541  -30.8237   22.0047 H   0  0  0  0  0  0
  -28.1309  -28.9326   21.1982 H   0  0  0  0  0  0
  -25.9964  -25.8849   19.0201 H   0  0  0  0  0  0
  -23.9852  -27.2912   19.0052 H   0  0  0  0  0  0
  -23.7760  -30.5750   19.3977 H   0  0  0  0  0  0
  -22.7712  -29.2340   19.8531 H   0  0  0  0  0  0
  -25.1301  -36.1918   25.0821 H   0  0  0  0  0  0
  -20.9987  -28.3290   24.1385 H   0  0  0  0  0  0
  -20.5691  -26.2319   23.3616 H   0  0  0  0  0  0
  -21.6655  -26.7448   22.1195 H   0  0  0  0  0  0
  -19.6931  -25.6289   21.1251 H   0  0  0  0  0  0
  -19.6699  -27.3182   20.6735 H   0  0  0  0  0  0
  -17.4217  -26.6664   21.4020 H   0  0  0  0  0  0
  -18.0337  -26.0058   22.9011 H   0  0  0  0  0  0
  -19.7942  -30.7276   24.2251 H   0  0  0  0  0  0
  -17.5016  -31.6259   24.5166 H   0  0  0  0  0  0
  -15.5356  -30.2978   23.7656 H   0  0  0  0  0  0
  -15.8673  -28.0812   22.7070 H   0  0  0  0  0  0
  -24.5898  -30.7076   25.7771 H   0  0  0  0  0  0
  -24.8937  -32.2886   26.4870 H   0  0  0  0  0  0
  -25.8060  -30.8886   27.0207 H   0  0  0  0  0  0
  -26.2915  -29.6729   24.1215 H   0  0  0  0  0  0
  -27.4030  -29.7242   25.4699 H   0  0  0  0  0  0
  -27.8794  -30.4250   23.9414 H   0  0  0  0  0  0
  -27.2636  -33.3615   26.2053 H   0  0  0  0  0  0
  -28.3874  -32.6874   25.0344 H   0  0  0  0  0  0
  -28.0687  -31.8450   26.5439 H   0  0  0  0  0  0
  -28.2585  -38.0109   24.7510 H   0  0  0  0  0  0
  -28.1087  -36.2643   24.6277 H   0  0  0  0  0  0
  -27.2291  -37.1439   25.8856 H   0  0  0  0  0  0
  -20.9400  -29.8771   21.6843 H   0  0  0  0  0  0
  -26.0169  -38.2849   24.1401 H   0  0  0  0  0  0
  -30.0191  -23.4838   22.4883 H   0  0  0  0  0  0
  -31.1049  -22.5659   21.4677 H   0  0  0  0  0  0
  -30.1802  -21.7711   22.7537 H   0  0  0  0  0  0
  -29.7355  -23.8505   19.6099 H   0  0  0  0  0  0
  -28.1322  -23.3372   19.2158 H   0  0  0  0  0  0
  -28.5688  -25.0577   21.7091 H   0  0  0  0  0  0
  -27.0960  -24.7895   20.8805 H   0  0  0  0  0  0
  -28.0880  -22.2212   21.5978 H   0  0  0  0  0  0
  -28.8662  -15.7594   20.6482 H   0  0  0  0  0  0
  -28.1220  -20.5965   19.9786 H   0  0  0  0  0  0
  1 25  1  0  0  0
  1 30  2  0  0  0
  1 81  1  0  0  0
  2  3  1  0  0  0
  2 25  1  0  0  0
  2 83  1  0  0  0
  2 84  1  0  0  0
  3  4  1  0  0  0
  3 85  1  0  0  0
  3 86  1  0  0  0
  4  5  1  0  0  0
  4 87  1  0  0  0
  4 88  1  0  0  0
  5  6  1  0  0  0
  5 26  1  0  0  0
  5 89  1  0  0  0
  6 25  1  0  0  0
  6 90  1  0  0  0
  6 91  1  0  0  0
  7  8  2  0  0  0
  7 26  1  0  0  0
  7 29  1  0  0  0
  8  9  1  0  0  0
  8 22  1  0  0  0
  9 10  1  0  0  0
  9 27  2  0  0  0
 10 11  2  0  0  0
 10 15  1  0  0  0
 11 12  1  0  0  0
 11 92  1  0  0  0
 12 13  2  0  0  0
 12 93  1  0  0  0
 13 14  1  0  0  0
 13 31  1  0  0  0
 14 15  2  0  0  0
 14 94  1  0  0  0
 15 95  1  0  0  0
 16 17  2  0  0  0
 16 21  1  0  0  0
 16 31  1  0  0  0
 17 18  1  0  0  0
 17 96  1  0  0  0
 18 19  2  0  0  0
 18 97  1  0  0  0
 19 20  1  0  0  0
 19 24  1  0  0  0
 20 21  2  0  0  0
 20 98  1  0  0  0
 21 23  1  0  0  0
 22 28  1  0  0  0
 22 32  2  0  0  0
 26 27  1  0  0  0
 28 99  1  0  0  0
 28100  1  0  0  0
 29101  1  0  0  0
 29102  1  0  0  0
 33 34  1  0  0  0
 33 66  1  0  0  0
 33 70  2  0  0  0
 34 36  1  0  0  0
 34 59  1  0  0  0
 34103  1  0  0  0
 35 44  2  0  0  0
 35 45  1  0  0  0
 35 68  1  0  0  0
 36 56  1  0  0  0
 36104  1  0  0  0
 37 39  1  0  0  0
 37 47  1  0  0  0
 37 66  1  0  0  0
 37105  1  0  0  0
 38 43  2  0  0  0
 38 46  1  0  0  0
 38 47  1  0  0  0
 39 64  1  0  0  0
 39 67  2  0  0  0
 40 52  1  0  0  0
 40 53  2  0  0  0
 40 58  1  0  0  0
 41106  1  0  0  0
 41107  1  0  0  0
 41108  1  0  0  0
 41 48  1  0  0  0
 42 43  1  0  0  0
 42 66  1  0  0  0
 42109  1  0  0  0
 42110  1  0  0  0
 43 44  1  0  0  0
 44111  1  0  0  0
 45 46  2  0  0  0
 45112  1  0  0  0
 46113  1  0  0  0
 47114  1  0  0  0
 47115  1  0  0  0
 48 56  1  0  0  0
 48 65  1  0  0  0
 48116  1  0  0  0
 49 50  1  0  0  0
 49 53  1  0  0  0
 49 64  1  0  0  0
 49117  1  0  0  0
 50 51  1  0  0  0
 50118  1  0  0  0
 50119  1  0  0  0
 51 52  1  0  0  0
 51120  1  0  0  0
 51121  1  0  0  0
 52122  1  0  0  0
 52123  1  0  0  0
 53 54  1  0  0  0
 54 55  2  0  0  0
 54124  1  0  0  0
 55 57  1  0  0  0
 55125  1  0  0  0
 56 69  2  0  0  0
 57 58  2  0  0  0
 57126  1  0  0  0
 58127  1  0  0  0
 59 60  1  0  0  0
 59 61  1  0  0  0
 59 62  1  0  0  0
 60128  1  0  0  0
 60129  1  0  0  0
 60130  1  0  0  0
 61131  1  0  0  0
 61132  1  0  0  0
 61133  1  0  0  0
 62134  1  0  0  0
 62135  1  0  0  0
 62136  1  0  0  0
 63 65  1  0  0  0
 63137  1  0  0  0
 63138  1  0  0  0
 63139  1  0  0  0
 64140  1  0  0  0
 65141  1  0  0  0
 68 75  1  0  0  0
 71 77  2  0  0  0
 71 78  1  0  0  0
 71 81  1  0  0  0
 72 77  1  0  0  0
 72 79  2  0  0  0
 72 82  1  0  0  0
 73142  1  0  0  0
 73143  1  0  0  0
 73144  1  0  0  0
 73 76  1  0  0  0
 74 75  1  0  0  0
 74 76  1  0  0  0
 74145  1  0  0  0
 74146  1  0  0  0
 75147  1  0  0  0
 75148  1  0  0  0
 76 82  1  0  0  0
 76149  1  0  0  0
 78 80  2  0  0  0
 79 80  1  0  0  0
 81150  1  0  0  0
 82151  1  0  0  0
M  ISO  4   1 100  68 101  75 101  81 100
M  END
> <chiral flag>
0

> <version>
0

> <s_m_source_file>
/data/baiqing/PycharmProjects/Reinvent-master-3.2/result/LINK_invent/BTK/process_docking_weight1_custom_product_contain_oxygen_bond_distance_aromatic_linkinvent_7_9_3/rearranged_h_0194.sdf

> <i_m_source_file_index>
93

> <r_mmod_Potential_Energy-OPLS-2005>
116.008033752441

> <r_mmod_Stretch_Energy-OPLS-2005>
136.198883056641

> <r_mmod_Bend_Energy-OPLS-2005>
199.161651611328

> <r_mmod_Torsional_Energy-OPLS-2005>
230.704559326172

> <r_mmod_Improper_Torsional_Energy-OPLS-2005>
8.4933500289917

> <r_mmod_Van_der_Waal_Energy-OPLS-2005>
148.452056884766

> <r_mmod_Electrostatic_Energy-OPLS-2005>
-466.421051025391

> <r_mmod_Solvation_Energy-OPLS-2005>
-230.103591918945

> <b_mmod_Minimization_Converged-OPLS-2005>
0

> <r_mmod_RMS_Derivative-OPLS-2005>
2.10536074638367

$$$$
93
                    3D
 Structure written by MMmdl.
165173  0  0  1  0            999 V2000
  -30.6580  -14.5623   20.5561 C   0  0  0  0  0  0
  -30.4393  -12.3624   19.4336 C   0  0  0  0  0  0
  -29.5071  -12.5175   18.2113 C   0  0  0  0  0  0
  -28.0261  -12.3635   18.6189 C   0  0  0  0  0  0
  -27.6592  -13.2104   19.8670 C   0  0  2  0  0  0
  -28.7029  -13.0219   20.9912 C   0  0  0  0  0  0
  -25.2596  -13.8156   20.5666 C   0  0  0  0  0  0
  -24.1847  -13.0440   20.9168 C   0  0  0  0  0  0
  -24.6403  -11.6904   20.8725 C   0  0  0  0  0  0
  -23.9061  -10.4302   21.0396 C   0  0  0  0  0  0
  -24.3613   -9.4223   21.9179 C   0  0  0  0  0  0
  -23.6291   -8.2255   22.0749 C   0  0  0  0  0  0
  -22.4282   -8.0281   21.3533 C   0  0  0  0  0  0
  -21.9902   -9.0257   20.4646 C   0  0  0  0  0  0
  -22.7233  -10.2142   20.3054 C   0  0  0  0  0  0
  -21.6852   -6.0733   22.5273 C   0  0  0  0  0  0
  -21.4020   -6.5633   23.8209 C   0  0  0  0  0  0
  -21.3661   -5.6783   24.9163 C   0  0  0  0  0  0
  -21.6046   -4.3045   24.7210 C   0  0  0  0  0  0
  -21.8823   -3.8142   23.4326 C   0  0  0  0  0  0
  -21.9194   -4.6963   22.3388 C   0  0  0  0  0  0
  -22.7873  -13.5255   21.1802 C   0  0  0  0  0  0
  -22.1662   -4.2155   21.0964 F   0  0  0  0  0  0
  -21.5624   -3.4530   25.7715 F   0  0  0  0  0  0
  -30.0243  -13.3584   20.4342 N   0  0  0  0  0  0
  -26.3018  -12.9330   20.3319 N   0  0  0  0  0  0
  -25.9333  -11.6488   20.5742 N   0  0  0  0  0  0
  -22.0477  -12.8295   22.0363 N   0  0  0  0  0  0
  -25.4323  -15.1864   20.4053 N   0  0  0  0  0  0
  -31.8088  -14.7421   20.1466 O   0  0  0  0  0  0
  -21.6636   -6.8880   21.4240 O   0  0  0  0  0  0
  -22.3579  -14.5558   20.6613 O   0  0  0  0  0  0
  -24.6242  -31.8645   23.2080 C   0  0  0  0  0  0
  -25.9115  -32.4800   23.8371 C   0  0  1  0  0  0
  -27.2226  -27.3638   20.0961 C   0  0  0  0  0  0
  -25.5947  -33.8597   24.2300 N   0  0  0  0  0  0
  -23.4142  -30.4887   21.5533 C   0  0  2  0  0  0
  -24.8554  -28.9583   20.1130 C   0  0  0  0  0  0
  -22.7448  -29.4639   22.4992 C   0  0  0  0  0  0
  -18.0264  -28.1369   22.8484 C   0  0  0  0  0  0
  -24.1496  -36.7303   23.2632 C   0  0  0  0  0  0
  -25.9517  -30.8079   21.3742 C   0  0  0  0  0  0
  -26.0245  -29.4414   20.7115 C   0  0  0  0  0  0
  -27.2108  -28.6555   20.6941 C   0  0  0  0  0  0
  -26.0252  -26.9293   19.4736 C   0  0  0  0  0  0
  -24.8555  -27.7049   19.4881 C   0  0  0  0  0  0
  -23.6216  -29.8291   20.1670 C   0  0  0  0  0  0
  -25.4119  -36.3088   24.0320 C   0  0  1  0  0  0
  -20.5867  -28.3662   23.1306 C   0  0  2  0  0  0
  -20.6763  -26.9397   22.5413 C   0  0  0  0  0  0
  -19.5736  -26.6372   21.5219 C   0  0  0  0  0  0
  -18.1912  -26.7911   22.1622 C   0  0  0  0  0  0
  -19.1519  -28.8830   23.2885 C   0  0  0  0  0  0
  -18.9443  -30.1441   23.8886 C   0  0  0  0  0  0
  -17.6451  -30.6576   24.0556 C   0  0  0  0  0  0
  -25.9054  -34.9458   23.5099 C   0  0  0  0  0  0
  -16.5336  -29.9071   23.6343 C   0  0  0  0  0  0
  -16.7260  -28.6488   23.0358 C   0  0  0  0  0  0
  -26.4513  -31.6581   25.0720 C   0  0  0  0  0  0
  -25.3752  -31.3708   26.1450 C   0  0  0  0  0  0
  -27.0346  -30.2994   24.6158 C   0  0  0  0  0  0
  -27.6071  -32.4309   25.7503 C   0  0  0  0  0  0
  -27.5584  -37.1807   24.8457 C   0  0  0  0  0  0
  -21.4165  -29.3029   22.3713 N   0  0  0  0  0  0
  -26.4297  -37.3781   23.9400 N   0  0  0  0  0  0
  -24.6820  -31.0690   22.1019 N   0  0  0  0  0  0
  -23.4184  -28.8175   23.3054 O   0  0  0  0  0  0
  -28.3599  -26.5461   20.1426 O   0  0  0  0  0  0
  -26.5609  -34.8922   22.4658 O   0  0  0  0  0  0
  -23.5416  -32.1423   23.7431 O   0  0  0  0  0  0
  -30.5703  -17.1424   22.6818 C   0  0  0  0  0  0
  -30.4316  -19.2580   20.9588 C   0  0  0  0  0  0
  -30.2292  -16.9251   21.3258 C   0  0  0  0  0  0
  -30.7990  -19.4096   22.3247 C   0  0  0  0  0  0
  -30.4384  -19.9829   18.4936 C   0  0  0  0  0  0
  -28.3846  -22.5939   18.2481 C   0  0  0  0  0  0
  -27.4070  -24.5875   21.3002 C   0  0  0  0  0  0
  -29.5135  -24.2558   19.9221 C   0  0  0  0  0  0
  -30.4676  -20.4678   19.9659 C   0  0  1  0  0  0
  -29.4853  -22.7816   19.3169 C   0  0  1  0  0  0
  -28.1844  -25.0867   20.0683 C   0  0  2  0  0  0
  -30.8397  -18.3711   23.1837 N   0  0  0  0  0  0
  -30.1274  -18.0021   20.4810 N   0  0  0  0  0  0
  -31.1224  -20.6358   22.8928 N   0  0  0  0  0  0
  -29.8682  -15.5834   20.9722 N   0  0  0  0  0  0
  -29.5084  -21.6043   20.2692 N   0  3  0  0  0  0
  -31.4831  -12.4842   19.1350 H   0  0  0  0  0  0
  -30.3647  -11.3574   19.8501 H   0  0  0  0  0  0
  -29.7655  -11.7832   17.4477 H   0  0  0  0  0  0
  -29.6578  -13.4993   17.7588 H   0  0  0  0  0  0
  -27.8486  -11.3073   18.8207 H   0  0  0  0  0  0
  -27.3788  -12.6275   17.7810 H   0  0  0  0  0  0
  -27.6921  -14.2537   19.5515 H   0  0  0  0  0  0
  -28.7015  -11.9906   21.3460 H   0  0  0  0  0  0
  -28.4556  -13.6320   21.8618 H   0  0  0  0  0  0
  -25.2763   -9.5690   22.4753 H   0  0  0  0  0  0
  -23.9993   -7.4648   22.7473 H   0  0  0  0  0  0
  -21.0834   -8.8790   19.8966 H   0  0  0  0  0  0
  -22.3696  -10.9675   19.6161 H   0  0  0  0  0  0
  -21.2027   -7.6143   23.9711 H   0  0  0  0  0  0
  -21.1474   -6.0507   25.9069 H   0  0  0  0  0  0
  -22.0605   -2.7613   23.2813 H   0  0  0  0  0  0
  -22.4063  -11.9993   22.4838 H   0  0  0  0  0  0
  -21.1083  -13.1361   22.2484 H   0  0  0  0  0  0
  -24.6621  -15.8400   20.4986 H   0  0  0  0  0  0
  -26.2709  -15.6192   20.0397 H   0  0  0  0  0  0
  -26.7181  -32.5474   23.1117 H   0  0  0  0  0  0
  -25.0108  -33.9746   25.0454 H   0  0  0  0  0  0
  -22.7071  -31.3094   21.4167 H   0  0  0  0  0  0
  -23.3762  -35.9634   23.3290 H   0  0  0  0  0  0
  -24.3589  -36.8932   22.2050 H   0  0  0  0  0  0
  -23.7260  -37.6503   23.6662 H   0  0  0  0  0  0
  -26.0815  -31.5784   20.6135 H   0  0  0  0  0  0
  -26.8330  -30.8485   22.0029 H   0  0  0  0  0  0
  -28.1088  -29.0238   21.1699 H   0  0  0  0  0  0
  -25.9407  -25.9791   18.9734 H   0  0  0  0  0  0
  -23.9584  -27.3285   19.0167 H   0  0  0  0  0  0
  -23.7276  -30.6060   19.4083 H   0  0  0  0  0  0
  -22.7439  -29.2504   19.8739 H   0  0  0  0  0  0
  -25.1306  -36.1936   25.0813 H   0  0  0  0  0  0
  -20.9942  -28.3223   24.1435 H   0  0  0  0  0  0
  -20.5686  -26.2270   23.3601 H   0  0  0  0  0  0
  -21.6631  -26.7455   22.1197 H   0  0  0  0  0  0
  -19.6912  -25.6287   21.1241 H   0  0  0  0  0  0
  -19.6674  -27.3185   20.6752 H   0  0  0  0  0  0
  -17.4198  -26.6666   21.4010 H   0  0  0  0  0  0
  -18.0296  -26.0040   22.8999 H   0  0  0  0  0  0
  -19.7921  -30.7250   24.2251 H   0  0  0  0  0  0
  -17.5007  -31.6261   24.5138 H   0  0  0  0  0  0
  -15.5338  -30.2970   23.7671 H   0  0  0  0  0  0
  -15.8655  -28.0807   22.7095 H   0  0  0  0  0  0
  -24.5934  -30.7056   25.7772 H   0  0  0  0  0  0
  -24.8942  -32.2870   26.4876 H   0  0  0  0  0  0
  -25.8079  -30.8880   27.0219 H   0  0  0  0  0  0
  -26.2900  -29.6747   24.1205 H   0  0  0  0  0  0
  -27.4065  -29.7252   25.4654 H   0  0  0  0  0  0
  -27.8768  -30.4274   23.9354 H   0  0  0  0  0  0
  -27.2678  -33.3614   26.2069 H   0  0  0  0  0  0
  -28.3893  -32.6860   25.0340 H   0  0  0  0  0  0
  -28.0725  -31.8440   26.5433 H   0  0  0  0  0  0
  -28.2591  -38.0114   24.7520 H   0  0  0  0  0  0
  -28.1090  -36.2646   24.6265 H   0  0  0  0  0  0
  -27.2292  -37.1429   25.8854 H   0  0  0  0  0  0
  -20.9344  -29.8767   21.6933 H   0  0  0  0  0  0
  -26.0178  -38.2853   24.1407 H   0  0  0  0  0  0
  -30.6084  -16.3219   23.3840 H   0  0  0  0  0  0
  -31.2156  -19.2376   18.3283 H   0  0  0  0  0  0
  -30.6349  -20.7768   17.7750 H   0  0  0  0  0  0
  -29.4840  -19.5200   18.2398 H   0  0  0  0  0  0
  -28.4374  -23.3786   17.4920 H   0  0  0  0  0  0
  -27.3871  -22.6168   18.6876 H   0  0  0  0  0  0
  -28.4689  -21.6464   17.7194 H   0  0  0  0  0  0
  -27.1992  -23.5200   21.2247 H   0  0  0  0  0  0
  -26.4463  -25.0869   21.4248 H   0  0  0  0  0  0
  -27.9783  -24.7520   22.2140 H   0  0  0  0  0  0
  -30.1209  -24.8347   19.2253 H   0  0  0  0  0  0
  -30.0838  -24.2801   20.8511 H   0  0  0  0  0  0
  -31.4602  -20.9004   20.1063 H   0  0  0  0  0  0
  -30.4386  -22.7310   18.7916 H   0  0  0  0  0  0
  -27.6218  -24.8783   19.1650 H   0  0  0  0  0  0
  -31.7481  -21.2306   22.3627 H   0  0  0  0  0  0
  -31.4439  -20.5702   23.8514 H   0  0  0  0  0  0
  -28.9396  -15.3044   21.2440 H   0  0  0  0  0  0
  -29.7436  -21.9345   21.1937 H   0  0  0  0  0  0
  -28.5800  -21.2195   20.3306 H   0  0  0  0  0  0
  1 25  1  0  0  0
  1 30  2  0  0  0
  1 85  1  0  0  0
  2  3  1  0  0  0
  2 25  1  0  0  0
  2 87  1  0  0  0
  2 88  1  0  0  0
  3  4  1  0  0  0
  3 89  1  0  0  0
  3 90  1  0  0  0
  4  5  1  0  0  0
  4 91  1  0  0  0
  4 92  1  0  0  0
  5  6  1  0  0  0
  5 26  1  0  0  0
  5 93  1  0  0  0
  6 25  1  0  0  0
  6 94  1  0  0  0
  6 95  1  0  0  0
  7  8  2  0  0  0
  7 26  1  0  0  0
  7 29  1  0  0  0
  8  9  1  0  0  0
  8 22  1  0  0  0
  9 10  1  0  0  0
  9 27  2  0  0  0
 10 11  2  0  0  0
 10 15  1  0  0  0
 11 12  1  0  0  0
 11 96  1  0  0  0
 12 13  2  0  0  0
 12 97  1  0  0  0
 13 14  1  0  0  0
 13 31  1  0  0  0
 14 15  2  0  0  0
 14 98  1  0  0  0
 15 99  1  0  0  0
 16 17  2  0  0  0
 16 21  1  0  0  0
 16 31  1  0  0  0
 17 18  1  0  0  0
 17100  1  0  0  0
 18 19  2  0  0  0
 18101  1  0  0  0
 19 20  1  0  0  0
 19 24  1  0  0  0
 20 21  2  0  0  0
 20102  1  0  0  0
 21 23  1  0  0  0
 22 28  1  0  0  0
 22 32  2  0  0  0
 26 27  1  0  0  0
 28103  1  0  0  0
 28104  1  0  0  0
 29105  1  0  0  0
 29106  1  0  0  0
 33 34  1  0  0  0
 33 66  1  0  0  0
 33 70  2  0  0  0
 34 36  1  0  0  0
 34 59  1  0  0  0
 34107  1  0  0  0
 35 44  2  0  0  0
 35 45  1  0  0  0
 35 68  1  0  0  0
 36 56  1  0  0  0
 36108  1  0  0  0
 37 39  1  0  0  0
 37 47  1  0  0  0
 37 66  1  0  0  0
 37109  1  0  0  0
 38 43  2  0  0  0
 38 46  1  0  0  0
 38 47  1  0  0  0
 39 64  1  0  0  0
 39 67  2  0  0  0
 40 52  1  0  0  0
 40 53  2  0  0  0
 40 58  1  0  0  0
 41110  1  0  0  0
 41111  1  0  0  0
 41112  1  0  0  0
 41 48  1  0  0  0
 42 43  1  0  0  0
 42 66  1  0  0  0
 42113  1  0  0  0
 42114  1  0  0  0
 43 44  1  0  0  0
 44115  1  0  0  0
 45 46  2  0  0  0
 45116  1  0  0  0
 46117  1  0  0  0
 47118  1  0  0  0
 47119  1  0  0  0
 48 56  1  0  0  0
 48 65  1  0  0  0
 48120  1  0  0  0
 49 50  1  0  0  0
 49 53  1  0  0  0
 49 64  1  0  0  0
 49121  1  0  0  0
 50 51  1  0  0  0
 50122  1  0  0  0
 50123  1  0  0  0
 51 52  1  0  0  0
 51124  1  0  0  0
 51125  1  0  0  0
 52126  1  0  0  0
 52127  1  0  0  0
 53 54  1  0  0  0
 54 55  2  0  0  0
 54128  1  0  0  0
 55 57  1  0  0  0
 55129  1  0  0  0
 56 69  2  0  0  0
 57 58  2  0  0  0
 57130  1  0  0  0
 58131  1  0  0  0
 59 60  1  0  0  0
 59 61  1  0  0  0
 59 62  1  0  0  0
 60132  1  0  0  0
 60133  1  0  0  0
 60134  1  0  0  0
 61135  1  0  0  0
 61136  1  0  0  0
 61137  1  0  0  0
 62138  1  0  0  0
 62139  1  0  0  0
 62140  1  0  0  0
 63 65  1  0  0  0
 63141  1  0  0  0
 63142  1  0  0  0
 63143  1  0  0  0
 64144  1  0  0  0
 65145  1  0  0  0
 68 81  1  0  0  0
 71 73  2  0  0  0
 71 82  1  0  0  0
 71146  1  0  0  0
 72 74  1  0  0  0
 72 79  1  0  0  0
 72 83  2  0  0  0
 73 83  1  0  0  0
 73 85  1  0  0  0
 74 82  2  0  0  0
 74 84  1  0  0  0
 75147  1  0  0  0
 75148  1  0  0  0
 75149  1  0  0  0
 75 79  1  0  0  0
 76150  1  0  0  0
 76151  1  0  0  0
 76152  1  0  0  0
 76 80  1  0  0  0
 77153  1  0  0  0
 77154  1  0  0  0
 77155  1  0  0  0
 77 81  1  0  0  0
 78 80  1  0  0  0
 78 81  1  0  0  0
 78156  1  0  0  0
 78157  1  0  0  0
 79 86  1  0  0  0
 79158  1  0  0  0
 80 86  1  0  0  0
 80159  1  0  0  0
 81160  1  0  0  0
 84161  1  0  0  0
 84162  1  0  0  0
 85163  1  0  0  0
 86164  1  0  0  0
 86165  1  0  0  0
M  CHG  1  86   1
M  ISO  4   1 100  68 101  81 101  85 100
M  END
> <chiral flag>
0

> <version>
0

> <s_m_source_file>
/data/baiqing/PycharmProjects/Reinvent-master-3.2/result/LINK_invent/BTK/process_docking_weight1_custom_product_contain_oxygen_bond_distance_aromatic_linkinvent_7_9_3/rearranged_h_0194.sdf

> <i_m_source_file_index>
94

> <r_mmod_Potential_Energy-OPLS-2005>
-154.334671020508

> <r_mmod_Stretch_Energy-OPLS-2005>
67.7279815673828

> <r_mmod_Bend_Energy-OPLS-2005>
135.685653686523

> <r_mmod_Torsional_Energy-OPLS-2005>
274.665893554688

> <r_mmod_Improper_Torsional_Energy-OPLS-2005>
10.5846729278564

> <r_mmod_Van_der_Waal_Energy-OPLS-2005>
162.61442565918

> <r_mmod_Electrostatic_Energy-OPLS-2005>
-358.599060058594

> <r_mmod_Solvation_Energy-OPLS-2005>
-476.458435058594

> <b_mmod_Minimization_Converged-OPLS-2005>
0

> <r_mmod_RMS_Derivative-OPLS-2005>
2.60257744789124

$$$$
