0
                    3D
 Structure written by MMmdl.
152161  0  0  1  0            999 V2000
  -30.7293  -14.5210   20.5792 C   0  0  0  0  0  0
  -30.4073  -12.3447   19.4401 C   0  0  0  0  0  0
  -29.4961  -12.5086   18.2105 C   0  0  0  0  0  0
  -28.0160  -12.3690   18.6159 C   0  0  0  0  0  0
  -27.6478  -13.2256   19.8581 C   0  0  2  0  0  0
  -28.6881  -13.0703   20.9889 C   0  0  0  0  0  0
  -25.2508  -13.8197   20.5649 C   0  0  0  0  0  0
  -24.1800  -13.0448   20.9165 C   0  0  0  0  0  0
  -24.6393  -11.6914   20.8730 C   0  0  0  0  0  0
  -23.9085  -10.4284   21.0388 C   0  0  0  0  0  0
  -24.3634   -9.4190   21.9155 C   0  0  0  0  0  0
  -23.6295   -8.2237   22.0740 C   0  0  0  0  0  0
  -22.4270   -8.0289   21.3549 C   0  0  0  0  0  0
  -21.9905   -9.0259   20.4652 C   0  0  0  0  0  0
  -22.7250  -10.2123   20.3045 C   0  0  0  0  0  0
  -21.6852   -6.0744   22.5284 C   0  0  0  0  0  0
  -21.4023   -6.5640   23.8223 C   0  0  0  0  0  0
  -21.3653   -5.6786   24.9180 C   0  0  0  0  0  0
  -21.6035   -4.3055   24.7224 C   0  0  0  0  0  0
  -21.8825   -3.8148   23.4351 C   0  0  0  0  0  0
  -21.9189   -4.6968   22.3402 C   0  0  0  0  0  0
  -22.7823  -13.5207   21.1846 C   0  0  0  0  0  0
  -22.1658   -4.2158   21.0977 F   0  0  0  0  0  0
  -21.5624   -3.4544   25.7731 F   0  0  0  0  0  0
  -30.0093  -13.3729   20.4222 N   0  0  0  0  0  0
  -26.2947  -12.9409   20.3272 N   0  0  0  0  0  0
  -25.9319  -11.6549   20.5709 N   0  0  0  0  0  0
  -22.0482  -12.8203   22.0418 N   0  0  0  0  0  0
  -25.4185  -15.1932   20.4074 N   0  0  0  0  0  0
  -31.8892  -14.5805   20.1606 O   0  0  0  0  0  0
  -21.6648   -6.8880   21.4247 O   0  0  0  0  0  0
  -22.3474  -14.5477   20.6654 O   0  0  0  0  0  0
  -24.6161  -31.8684   23.2088 C   0  0  0  0  0  0
  -25.9047  -32.4823   23.8376 C   0  0  1  0  0  0
  -27.2129  -27.4104   20.1106 C   0  0  0  0  0  0
  -25.5894  -33.8613   24.2311 N   0  0  0  0  0  0
  -23.4044  -30.4937   21.5508 C   0  0  2  0  0  0
  -24.8522  -28.9673   20.1033 C   0  0  0  0  0  0
  -22.7416  -29.4646   22.4962 C   0  0  0  0  0  0
  -18.0285  -28.1373   22.8490 C   0  0  0  0  0  0
  -24.1493  -36.7306   23.2628 C   0  0  0  0  0  0
  -25.9364  -30.8312   21.3660 C   0  0  0  0  0  0
  -26.0158  -29.4674   20.7045 C   0  0  0  0  0  0
  -27.2058  -28.6978   20.7043 C   0  0  0  0  0  0
  -26.0412  -26.9401   19.4849 C   0  0  0  0  0  0
  -24.8625  -27.7073   19.4815 C   0  0  0  0  0  0
  -23.6118  -29.8322   20.1625 C   0  0  0  0  0  0
  -25.4112  -36.3101   24.0330 C   0  0  1  0  0  0
  -20.5869  -28.3651   23.1327 C   0  0  2  0  0  0
  -20.6767  -26.9387   22.5424 C   0  0  0  0  0  0
  -19.5738  -26.6375   21.5219 C   0  0  0  0  0  0
  -18.1919  -26.7919   22.1634 C   0  0  0  0  0  0
  -19.1536  -28.8829   23.2910 C   0  0  0  0  0  0
  -18.9452  -30.1440   23.8920 C   0  0  0  0  0  0
  -17.6445  -30.6564   24.0566 C   0  0  0  0  0  0
  -25.9039  -34.9465   23.5121 C   0  0  0  0  0  0
  -16.5342  -29.9060   23.6321 C   0  0  0  0  0  0
  -16.7265  -28.6481   23.0335 C   0  0  0  0  0  0
  -26.4443  -31.6599   25.0717 C   0  0  0  0  0  0
  -25.3693  -31.3791   26.1460 C   0  0  0  0  0  0
  -27.0218  -30.2993   24.6131 C   0  0  0  0  0  0
  -27.6036  -32.4294   25.7469 C   0  0  0  0  0  0
  -27.5590  -37.1816   24.8445 C   0  0  0  0  0  0
  -21.4127  -29.3017   22.3725 N   0  0  0  0  0  0
  -26.4294  -37.3783   23.9398 N   0  0  0  0  0  0
  -24.6700  -31.0782   22.0999 N   0  0  0  0  0  0
  -23.4209  -28.8182   23.2994 O   0  0  0  0  0  0
  -28.2826  -26.5427   20.2028 O   0  0  0  0  0  0
  -26.5598  -34.8931   22.4687 O   0  0  0  0  0  0
  -23.5345  -32.1442   23.7467 O   0  0  0  0  0  0
  -30.7170  -19.2131   20.5839 C   0  0  0  0  0  0
  -28.6718  -18.4342   21.6002 C   0  0  0  0  0  0
  -30.1812  -20.5148   20.4727 C   0  0  0  0  0  0
  -28.1567  -19.7588   21.5105 C   0  0  0  0  0  0
  -29.9800  -18.1426   21.1460 C   0  0  0  0  0  0
  -28.8902  -20.8500   20.9553 C   0  0  0  0  0  0
  -28.2767  -24.1999   20.9865 C   0  0  0  0  0  0
  -28.0253  -23.1200   21.9126 C   0  0  0  0  0  0
  -28.0781  -25.5354   21.1360 C   0  0  0  0  0  0
  -30.6847  -16.8077   21.3430 C   0  0  0  0  0  0
  -28.8004  -23.2238   19.9514 C   0  0  0  0  0  0
  -28.3656  -22.1927   20.9243 N   0  0  0  0  0  0
  -30.0755  -15.6350   21.0182 N   0  0  0  0  0  0
  -27.7658  -23.1134   23.0987 O   0  0  0  0  0  0
  -31.8532  -16.8648   21.7528 O   0  0  0  0  0  0
  -31.4540  -12.4218   19.1419 H   0  0  0  0  0  0
  -30.3009  -11.3478   19.8713 H   0  0  0  0  0  0
  -29.7483  -11.7666   17.4523 H   0  0  0  0  0  0
  -29.6689  -13.4843   17.7548 H   0  0  0  0  0  0
  -27.8295  -11.3157   18.8207 H   0  0  0  0  0  0
  -27.3726  -12.6304   17.7747 H   0  0  0  0  0  0
  -27.6693  -14.2666   19.5322 H   0  0  0  0  0  0
  -28.6730  -12.0523   21.3788 H   0  0  0  0  0  0
  -28.4455  -13.7167   21.8329 H   0  0  0  0  0  0
  -25.2807   -9.5658   22.4709 H   0  0  0  0  0  0
  -24.0031   -7.4618   22.7447 H   0  0  0  0  0  0
  -21.0839   -8.8776   19.8949 H   0  0  0  0  0  0
  -22.3728  -10.9659   19.6146 H   0  0  0  0  0  0
  -21.2035   -7.6159   23.9731 H   0  0  0  0  0  0
  -21.1456   -6.0522   25.9082 H   0  0  0  0  0  0
  -22.0607   -2.7614   23.2860 H   0  0  0  0  0  0
  -22.4099  -11.9916   22.4891 H   0  0  0  0  0  0
  -21.1082  -13.1205   22.2563 H   0  0  0  0  0  0
  -24.6469  -15.8436   20.5066 H   0  0  0  0  0  0
  -26.2609  -15.6386   20.0683 H   0  0  0  0  0  0
  -26.7121  -32.5532   23.1156 H   0  0  0  0  0  0
  -25.0028  -33.9773   25.0439 H   0  0  0  0  0  0
  -22.6911  -31.3091   21.4184 H   0  0  0  0  0  0
  -23.3725  -35.9673   23.3328 H   0  0  0  0  0  0
  -24.3583  -36.8858   22.2032 H   0  0  0  0  0  0
  -23.7298  -37.6549   23.6609 H   0  0  0  0  0  0
  -26.0558  -31.6040   20.6048 H   0  0  0  0  0  0
  -26.8200  -30.8750   21.9902 H   0  0  0  0  0  0
  -28.0948  -29.0653   21.1962 H   0  0  0  0  0  0
  -26.0326  -25.9594   19.0321 H   0  0  0  0  0  0
  -23.9664  -27.3170   19.0182 H   0  0  0  0  0  0
  -23.7083  -30.6125   19.4060 H   0  0  0  0  0  0
  -22.7344  -29.2494   19.8722 H   0  0  0  0  0  0
  -25.1281  -36.1961   25.0820 H   0  0  0  0  0  0
  -20.9981  -28.3231   24.1439 H   0  0  0  0  0  0
  -20.5642  -26.2252   23.3612 H   0  0  0  0  0  0
  -21.6641  -26.7408   22.1241 H   0  0  0  0  0  0
  -19.6891  -25.6285   21.1238 H   0  0  0  0  0  0
  -19.6678  -27.3203   20.6770 H   0  0  0  0  0  0
  -17.4189  -26.6649   21.4030 H   0  0  0  0  0  0
  -18.0319  -26.0057   22.9024 H   0  0  0  0  0  0
  -19.7926  -30.7253   24.2273 H   0  0  0  0  0  0
  -17.4996  -31.6236   24.5161 H   0  0  0  0  0  0
  -15.5351  -30.2970   23.7601 H   0  0  0  0  0  0
  -15.8674  -28.0808   22.7029 H   0  0  0  0  0  0
  -24.5823  -30.7178   25.7813 H   0  0  0  0  0  0
  -24.8961  -32.3003   26.4858 H   0  0  0  0  0  0
  -25.7983  -30.8974   27.0254 H   0  0  0  0  0  0
  -26.2775  -29.6843   24.1049 H   0  0  0  0  0  0
  -27.3776  -29.7135   25.4624 H   0  0  0  0  0  0
  -27.8719  -30.4230   23.9416 H   0  0  0  0  0  0
  -27.2646  -33.3571   26.2085 H   0  0  0  0  0  0
  -28.3818  -32.6872   25.0277 H   0  0  0  0  0  0
  -28.0731  -31.8400   26.5359 H   0  0  0  0  0  0
  -28.2620  -38.0096   24.7472 H   0  0  0  0  0  0
  -28.1081  -36.2641   24.6285 H   0  0  0  0  0  0
  -27.2310  -37.1475   25.8843 H   0  0  0  0  0  0
  -20.9277  -29.8763   21.6975 H   0  0  0  0  0  0
  -26.0182  -38.2864   24.1385 H   0  0  0  0  0  0
  -31.7333  -19.0429   20.2504 H   0  0  0  0  0  0
  -28.0715  -17.6617   22.0654 H   0  0  0  0  0  0
  -30.8213  -21.2749   20.0460 H   0  0  0  0  0  0
  -27.1598  -19.9313   21.9051 H   0  0  0  0  0  0
  -27.6708  -25.9284   22.0590 H   0  0  0  0  0  0
  -29.8767  -23.2546   19.7754 H   0  0  0  0  0  0
  -28.2585  -23.1555   19.0060 H   0  0  0  0  0  0
  -29.0700  -15.6234   20.9971 H   0  0  0  0  0  0
  1 25  1  0  0  0
  1 30  2  0  0  0
  1 83  1  0  0  0
  2  3  1  0  0  0
  2 25  1  0  0  0
  2 86  1  0  0  0
  2 87  1  0  0  0
  3  4  1  0  0  0
  3 88  1  0  0  0
  3 89  1  0  0  0
  4  5  1  0  0  0
  4 90  1  0  0  0
  4 91  1  0  0  0
  5  6  1  0  0  0
  5 26  1  0  0  0
  5 92  1  0  0  0
  6 25  1  0  0  0
  6 93  1  0  0  0
  6 94  1  0  0  0
  7  8  2  0  0  0
  7 26  1  0  0  0
  7 29  1  0  0  0
  8  9  1  0  0  0
  8 22  1  0  0  0
  9 10  1  0  0  0
  9 27  2  0  0  0
 10 11  2  0  0  0
 10 15  1  0  0  0
 11 12  1  0  0  0
 11 95  1  0  0  0
 12 13  2  0  0  0
 12 96  1  0  0  0
 13 14  1  0  0  0
 13 31  1  0  0  0
 14 15  2  0  0  0
 14 97  1  0  0  0
 15 98  1  0  0  0
 16 17  2  0  0  0
 16 21  1  0  0  0
 16 31  1  0  0  0
 17 18  1  0  0  0
 17 99  1  0  0  0
 18 19  2  0  0  0
 18100  1  0  0  0
 19 20  1  0  0  0
 19 24  1  0  0  0
 20 21  2  0  0  0
 20101  1  0  0  0
 21 23  1  0  0  0
 22 28  1  0  0  0
 22 32  2  0  0  0
 26 27  1  0  0  0
 28102  1  0  0  0
 28103  1  0  0  0
 29104  1  0  0  0
 29105  1  0  0  0
 33 34  1  0  0  0
 33 66  1  0  0  0
 33 70  2  0  0  0
 34 36  1  0  0  0
 34 59  1  0  0  0
 34106  1  0  0  0
 35 44  2  0  0  0
 35 45  1  0  0  0
 35 68  1  0  0  0
 36 56  1  0  0  0
 36107  1  0  0  0
 37 39  1  0  0  0
 37 47  1  0  0  0
 37 66  1  0  0  0
 37108  1  0  0  0
 38 43  2  0  0  0
 38 46  1  0  0  0
 38 47  1  0  0  0
 39 64  1  0  0  0
 39 67  2  0  0  0
 40 52  1  0  0  0
 40 53  2  0  0  0
 40 58  1  0  0  0
 41109  1  0  0  0
 41110  1  0  0  0
 41111  1  0  0  0
 41 48  1  0  0  0
 42 43  1  0  0  0
 42 66  1  0  0  0
 42112  1  0  0  0
 42113  1  0  0  0
 43 44  1  0  0  0
 44114  1  0  0  0
 45 46  2  0  0  0
 45115  1  0  0  0
 46116  1  0  0  0
 47117  1  0  0  0
 47118  1  0  0  0
 48 56  1  0  0  0
 48 65  1  0  0  0
 48119  1  0  0  0
 49 50  1  0  0  0
 49 53  1  0  0  0
 49 64  1  0  0  0
 49120  1  0  0  0
 50 51  1  0  0  0
 50121  1  0  0  0
 50122  1  0  0  0
 51 52  1  0  0  0
 51123  1  0  0  0
 51124  1  0  0  0
 52125  1  0  0  0
 52126  1  0  0  0
 53 54  1  0  0  0
 54 55  2  0  0  0
 54127  1  0  0  0
 55 57  1  0  0  0
 55128  1  0  0  0
 56 69  2  0  0  0
 57 58  2  0  0  0
 57129  1  0  0  0
 58130  1  0  0  0
 59 60  1  0  0  0
 59 61  1  0  0  0
 59 62  1  0  0  0
 60131  1  0  0  0
 60132  1  0  0  0
 60133  1  0  0  0
 61134  1  0  0  0
 61135  1  0  0  0
 61136  1  0  0  0
 62137  1  0  0  0
 62138  1  0  0  0
 62139  1  0  0  0
 63 65  1  0  0  0
 63140  1  0  0  0
 63141  1  0  0  0
 63142  1  0  0  0
 64143  1  0  0  0
 65144  1  0  0  0
 68 79  1  0  0  0
 71 73  2  0  0  0
 71 75  1  0  0  0
 71145  1  0  0  0
 72 74  1  0  0  0
 72 75  2  0  0  0
 72146  1  0  0  0
 73 76  1  0  0  0
 73147  1  0  0  0
 74 76  2  0  0  0
 74148  1  0  0  0
 75 80  1  0  0  0
 76 82  1  0  0  0
 77 78  1  0  0  0
 77 79  2  0  0  0
 77 81  1  0  0  0
 78 82  1  0  0  0
 78 84  2  0  0  0
 79149  1  0  0  0
 80 83  1  0  0  0
 80 85  2  0  0  0
 81 82  1  0  0  0
 81150  1  0  0  0
 81151  1  0  0  0
 83152  1  0  0  0
M  ISO  4   1 100  68 101  79 101  83 100
M  END
> <chiral flag>
0

> <version>
0

> <s_m_source_file>
/data/baiqing/PycharmProjects/Reinvent-master-3.2/result/LINK_invent/BTK/process_docking_weight1_custom_product_contain_oxygen_bond_distance_aromatic_linkinvent_7_9_3/rearranged_h_0080.sdf

> <i_m_source_file_index>
1

> <r_mmod_Potential_Energy-OPLS-2005>
24.8535251617432

> <r_mmod_Stretch_Energy-OPLS-2005>
46.4953651428223

> <r_mmod_Bend_Energy-OPLS-2005>
178.622421264648

> <r_mmod_Torsional_Energy-OPLS-2005>
273.555725097656

> <r_mmod_Improper_Torsional_Energy-OPLS-2005>
9.22615814208984

> <r_mmod_Van_der_Waal_Energy-OPLS-2005>
151.069976806641

> <r_mmod_Electrostatic_Energy-OPLS-2005>
-429.060485839844

> <r_mmod_Solvation_Energy-OPLS-2005>
-234.706481933594

> <b_mmod_Minimization_Converged-OPLS-2005>
0

> <r_mmod_RMS_Derivative-OPLS-2005>
3.90416979789734

$$$$
1
                    3D
 Structure written by MMmdl.
157165  0  0  1  0            999 V2000
  -30.6821  -14.5249   20.6013 C   0  0  0  0  0  0
  -30.4388  -12.3460   19.4523 C   0  0  0  0  0  0
  -29.5209  -12.5318   18.2218 C   0  0  0  0  0  0
  -28.0342  -12.3945   18.6100 C   0  0  0  0  0  0
  -27.6664  -13.2129   19.8784 C   0  0  2  0  0  0
  -28.7020  -13.0042   21.0068 C   0  0  0  0  0  0
  -25.2612  -13.8181   20.5658 C   0  0  0  0  0  0
  -24.1859  -13.0444   20.9141 C   0  0  0  0  0  0
  -24.6424  -11.6920   20.8686 C   0  0  0  0  0  0
  -23.9107  -10.4302   21.0378 C   0  0  0  0  0  0
  -24.3640   -9.4211   21.9162 C   0  0  0  0  0  0
  -23.6306   -8.2253   22.0761 C   0  0  0  0  0  0
  -22.4278   -8.0306   21.3565 C   0  0  0  0  0  0
  -21.9918   -9.0281   20.4672 C   0  0  0  0  0  0
  -22.7257  -10.2153   20.3052 C   0  0  0  0  0  0
  -21.6874   -6.0740   22.5281 C   0  0  0  0  0  0
  -21.4013   -6.5636   23.8197 C   0  0  0  0  0  0
  -21.3648   -5.6781   24.9153 C   0  0  0  0  0  0
  -21.6047   -4.3052   24.7213 C   0  0  0  0  0  0
  -21.8824   -3.8152   23.4330 C   0  0  0  0  0  0
  -21.9186   -4.6969   22.3385 C   0  0  0  0  0  0
  -22.7873  -13.5263   21.1757 C   0  0  0  0  0  0
  -22.1663   -4.2152   21.0970 F   0  0  0  0  0  0
  -21.5619   -3.4533   25.7716 F   0  0  0  0  0  0
  -30.0378  -13.3273   20.4778 N   0  0  0  0  0  0
  -26.3053  -12.9359   20.3331 N   0  0  0  0  0  0
  -25.9351  -11.6524   20.5716 N   0  0  0  0  0  0
  -22.0476  -12.8316   22.0325 N   0  0  0  0  0  0
  -25.4350  -15.1892   20.4172 N   0  0  0  0  0  0
  -31.7789  -14.7425   20.0752 O   0  0  0  0  0  0
  -21.6653   -6.8891   21.4253 O   0  0  0  0  0  0
  -22.3570  -14.5540   20.6551 O   0  0  0  0  0  0
  -24.6207  -31.8634   23.2021 C   0  0  0  0  0  0
  -25.9077  -32.4804   23.8369 C   0  0  1  0  0  0
  -27.2237  -27.3534   20.1367 C   0  0  0  0  0  0
  -25.5908  -33.8600   24.2320 N   0  0  0  0  0  0
  -23.4114  -30.4869   21.5398 C   0  0  2  0  0  0
  -24.8546  -28.9376   20.1056 C   0  0  0  0  0  0
  -22.7433  -29.4670   22.4917 C   0  0  0  0  0  0
  -18.0283  -28.1350   22.8521 C   0  0  0  0  0  0
  -24.1477  -36.7285   23.2648 C   0  0  0  0  0  0
  -25.9437  -30.8051   21.3618 C   0  0  0  0  0  0
  -26.0154  -29.4304   20.7164 C   0  0  0  0  0  0
  -27.1953  -28.6431   20.7337 C   0  0  0  0  0  0
  -26.0484  -26.8989   19.4941 C   0  0  0  0  0  0
  -24.8732  -27.6759   19.4830 C   0  0  0  0  0  0
  -23.6202  -29.8136   20.1535 C   0  0  0  0  0  0
  -25.4106  -36.3099   24.0351 C   0  0  1  0  0  0
  -20.5880  -28.3661   23.1260 C   0  0  2  0  0  0
  -20.6745  -26.9382   22.5396 C   0  0  0  0  0  0
  -19.5721  -26.6361   21.5193 C   0  0  0  0  0  0
  -18.1899  -26.7903   22.1622 C   0  0  0  0  0  0
  -19.1537  -28.8815   23.2895 C   0  0  0  0  0  0
  -18.9474  -30.1418   23.8924 C   0  0  0  0  0  0
  -17.6479  -30.6558   24.0567 C   0  0  0  0  0  0
  -25.9057  -34.9464   23.5133 C   0  0  0  0  0  0
  -16.5367  -29.9071   23.6317 C   0  0  0  0  0  0
  -16.7276  -28.6461   23.0386 C   0  0  0  0  0  0
  -26.4495  -31.6595   25.0717 C   0  0  0  0  0  0
  -25.3767  -31.3683   26.1461 C   0  0  0  0  0  0
  -27.0365  -30.3066   24.6089 C   0  0  0  0  0  0
  -27.6082  -32.4312   25.7461 C   0  0  0  0  0  0
  -27.5565  -37.1817   24.8482 C   0  0  0  0  0  0
  -21.4136  -29.3062   22.3668 N   0  0  0  0  0  0
  -26.4288  -37.3791   23.9418 N   0  0  0  0  0  0
  -24.6777  -31.0690   22.0936 N   0  0  0  0  0  0
  -23.4183  -28.8222   23.2985 O   0  0  0  0  0  0
  -28.3773  -26.5790   20.2332 O   0  0  0  0  0  0
  -26.5619  -34.8931   22.4706 O   0  0  0  0  0  0
  -23.5369  -32.1406   23.7357 O   0  0  0  0  0  0
  -28.6625  -17.9832   18.7991 C   0  0  0  0  0  0
  -28.7629  -19.2003   19.4939 C   0  0  0  0  0  0
  -29.1202  -16.7914   19.3773 C   0  0  0  0  0  0
  -29.7455  -18.0218   21.3906 C   0  0  0  0  0  0
  -29.3153  -19.2568   20.7911 C   0  0  0  0  0  0
  -29.6596  -16.7800   20.6822 C   0  0  0  0  0  0
  -29.5043  -20.6190   21.4569 C   0  0  0  0  0  0
  -28.9292  -22.9512   21.1300 C   0  0  0  0  0  0
  -27.9541  -24.0567   20.6204 C   0  0  0  0  0  0
  -30.0713  -23.6108   23.3580 C   0  0  0  0  0  0
  -30.1747  -23.5413   21.8179 C   0  0  0  0  0  0
  -28.4650  -25.2192   19.6975 C   0  0  0  0  0  0
  -28.6736  -21.6731   21.0014 N   0  0  0  0  0  0
  -30.0130  -15.5076   21.2602 N   0  0  0  0  0  0
  -30.3625  -20.6840   22.3371 O   0  0  0  0  0  0
  -26.7408  -23.9646   20.8419 O   0  0  0  0  0  0
  -31.4879  -12.4470   19.1650 H   0  0  0  0  0  0
  -30.3481  -11.3363   19.8531 H   0  0  0  0  0  0
  -29.7717  -11.8065   17.4455 H   0  0  0  0  0  0
  -29.6984  -13.5134   17.7771 H   0  0  0  0  0  0
  -27.8230  -11.3385   18.7753 H   0  0  0  0  0  0
  -27.4045  -12.7000   17.7710 H   0  0  0  0  0  0
  -27.7024  -14.2618   19.5930 H   0  0  0  0  0  0
  -28.6899  -11.9671   21.3441 H   0  0  0  0  0  0
  -28.4421  -13.5999   21.8825 H   0  0  0  0  0  0
  -25.2794   -9.5675   22.4725 H   0  0  0  0  0  0
  -24.0008   -7.4653   22.7487 H   0  0  0  0  0  0
  -21.0834   -8.8820   19.9003 H   0  0  0  0  0  0
  -22.3732  -10.9682   19.6150 H   0  0  0  0  0  0
  -21.2034   -7.6151   23.9714 H   0  0  0  0  0  0
  -21.1450   -6.0503   25.9047 H   0  0  0  0  0  0
  -22.0620   -2.7632   23.2825 H   0  0  0  0  0  0
  -22.4089  -12.0059   22.4860 H   0  0  0  0  0  0
  -21.1087  -13.1383   22.2422 H   0  0  0  0  0  0
  -24.6741  -15.8489   20.5402 H   0  0  0  0  0  0
  -26.3016  -15.6355   20.1434 H   0  0  0  0  0  0
  -26.7158  -32.5517   23.1134 H   0  0  0  0  0  0
  -25.0132  -33.9791   25.0498 H   0  0  0  0  0  0
  -22.7106  -31.3090   21.3956 H   0  0  0  0  0  0
  -23.3734  -35.9626   23.3344 H   0  0  0  0  0  0
  -24.3558  -36.8853   22.2054 H   0  0  0  0  0  0
  -23.7236  -37.6502   23.6638 H   0  0  0  0  0  0
  -26.0646  -31.5565   20.5801 H   0  0  0  0  0  0
  -26.8309  -30.8680   21.9785 H   0  0  0  0  0  0
  -28.0806  -29.0103   21.2335 H   0  0  0  0  0  0
  -26.0094  -25.9315   19.0155 H   0  0  0  0  0  0
  -23.9859  -27.2923   18.9943 H   0  0  0  0  0  0
  -23.7368  -30.5842   19.3896 H   0  0  0  0  0  0
  -22.7424  -29.2366   19.8580 H   0  0  0  0  0  0
  -25.1282  -36.1958   25.0845 H   0  0  0  0  0  0
  -21.0054  -28.3225   24.1343 H   0  0  0  0  0  0
  -20.5499  -26.2341   23.3637 H   0  0  0  0  0  0
  -21.6633  -26.7304   22.1291 H   0  0  0  0  0  0
  -19.6865  -25.6262   21.1224 H   0  0  0  0  0  0
  -19.6612  -27.3174   20.6706 H   0  0  0  0  0  0
  -17.4186  -26.6689   21.3996 H   0  0  0  0  0  0
  -18.0266  -26.0012   22.8963 H   0  0  0  0  0  0
  -19.7958  -30.7201   24.2317 H   0  0  0  0  0  0
  -17.5044  -31.6248   24.5156 H   0  0  0  0  0  0
  -15.5368  -30.2993   23.7586 H   0  0  0  0  0  0
  -15.8682  -28.0747   22.7139 H   0  0  0  0  0  0
  -24.5921  -30.7072   25.7754 H   0  0  0  0  0  0
  -24.8993  -32.2846   26.4952 H   0  0  0  0  0  0
  -25.8115  -30.8795   27.0182 H   0  0  0  0  0  0
  -26.2916  -29.6795   24.1185 H   0  0  0  0  0  0
  -27.4220  -29.7328   25.4506 H   0  0  0  0  0  0
  -27.8696  -30.4421   23.9197 H   0  0  0  0  0  0
  -27.2731  -33.3588   26.2081 H   0  0  0  0  0  0
  -28.3857  -32.6893   25.0273 H   0  0  0  0  0  0
  -28.0811  -31.8429   26.5327 H   0  0  0  0  0  0
  -28.2643  -38.0053   24.7495 H   0  0  0  0  0  0
  -28.1005  -36.2605   24.6344 H   0  0  0  0  0  0
  -27.2311  -37.1500   25.8896 H   0  0  0  0  0  0
  -20.9266  -29.8889   21.6989 H   0  0  0  0  0  0
  -26.0163  -38.2870   24.1374 H   0  0  0  0  0  0
  -28.2335  -17.9654   17.8089 H   0  0  0  0  0  0
  -28.4177  -20.0986   19.0046 H   0  0  0  0  0  0
  -29.0340  -15.8813   18.7997 H   0  0  0  0  0  0
  -30.1636  -18.0280   22.3888 H   0  0  0  0  0  0
  -30.0175  -22.6318   23.8342 H   0  0  0  0  0  0
  -29.1920  -24.1749   23.6705 H   0  0  0  0  0  0
  -30.9411  -24.1176   23.7780 H   0  0  0  0  0  0
  -30.3436  -24.5602   21.4709 H   0  0  0  0  0  0
  -31.0657  -22.9946   21.5130 H   0  0  0  0  0  0
  -29.5106  -25.0236   19.4698 H   0  0  0  0  0  0
  -27.9545  -25.1563   18.7371 H   0  0  0  0  0  0
  -29.3287  -15.1491   21.9095 H   0  0  0  0  0  0
  1 25  1  0  0  0
  1 30  2  0  0  0
  1 84  1  0  0  0
  2  3  1  0  0  0
  2 25  1  0  0  0
  2 87  1  0  0  0
  2 88  1  0  0  0
  3  4  1  0  0  0
  3 89  1  0  0  0
  3 90  1  0  0  0
  4  5  1  0  0  0
  4 91  1  0  0  0
  4 92  1  0  0  0
  5  6  1  0  0  0
  5 26  1  0  0  0
  5 93  1  0  0  0
  6 25  1  0  0  0
  6 94  1  0  0  0
  6 95  1  0  0  0
  7  8  2  0  0  0
  7 26  1  0  0  0
  7 29  1  0  0  0
  8  9  1  0  0  0
  8 22  1  0  0  0
  9 10  1  0  0  0
  9 27  2  0  0  0
 10 11  2  0  0  0
 10 15  1  0  0  0
 11 12  1  0  0  0
 11 96  1  0  0  0
 12 13  2  0  0  0
 12 97  1  0  0  0
 13 14  1  0  0  0
 13 31  1  0  0  0
 14 15  2  0  0  0
 14 98  1  0  0  0
 15 99  1  0  0  0
 16 17  2  0  0  0
 16 21  1  0  0  0
 16 31  1  0  0  0
 17 18  1  0  0  0
 17100  1  0  0  0
 18 19  2  0  0  0
 18101  1  0  0  0
 19 20  1  0  0  0
 19 24  1  0  0  0
 20 21  2  0  0  0
 20102  1  0  0  0
 21 23  1  0  0  0
 22 28  1  0  0  0
 22 32  2  0  0  0
 26 27  1  0  0  0
 28103  1  0  0  0
 28104  1  0  0  0
 29105  1  0  0  0
 29106  1  0  0  0
 33 34  1  0  0  0
 33 66  1  0  0  0
 33 70  2  0  0  0
 34 36  1  0  0  0
 34 59  1  0  0  0
 34107  1  0  0  0
 35 44  2  0  0  0
 35 45  1  0  0  0
 35 68  1  0  0  0
 36 56  1  0  0  0
 36108  1  0  0  0
 37 39  1  0  0  0
 37 47  1  0  0  0
 37 66  1  0  0  0
 37109  1  0  0  0
 38 43  2  0  0  0
 38 46  1  0  0  0
 38 47  1  0  0  0
 39 64  1  0  0  0
 39 67  2  0  0  0
 40 52  1  0  0  0
 40 53  2  0  0  0
 40 58  1  0  0  0
 41110  1  0  0  0
 41111  1  0  0  0
 41112  1  0  0  0
 41 48  1  0  0  0
 42 43  1  0  0  0
 42 66  1  0  0  0
 42113  1  0  0  0
 42114  1  0  0  0
 43 44  1  0  0  0
 44115  1  0  0  0
 45 46  2  0  0  0
 45116  1  0  0  0
 46117  1  0  0  0
 47118  1  0  0  0
 47119  1  0  0  0
 48 56  1  0  0  0
 48 65  1  0  0  0
 48120  1  0  0  0
 49 50  1  0  0  0
 49 53  1  0  0  0
 49 64  1  0  0  0
 49121  1  0  0  0
 50 51  1  0  0  0
 50122  1  0  0  0
 50123  1  0  0  0
 51 52  1  0  0  0
 51124  1  0  0  0
 51125  1  0  0  0
 52126  1  0  0  0
 52127  1  0  0  0
 53 54  1  0  0  0
 54 55  2  0  0  0
 54128  1  0  0  0
 55 57  1  0  0  0
 55129  1  0  0  0
 56 69  2  0  0  0
 57 58  2  0  0  0
 57130  1  0  0  0
 58131  1  0  0  0
 59 60  1  0  0  0
 59 61  1  0  0  0
 59 62  1  0  0  0
 60132  1  0  0  0
 60133  1  0  0  0
 60134  1  0  0  0
 61135  1  0  0  0
 61136  1  0  0  0
 61137  1  0  0  0
 62138  1  0  0  0
 62139  1  0  0  0
 62140  1  0  0  0
 63 65  1  0  0  0
 63141  1  0  0  0
 63142  1  0  0  0
 63143  1  0  0  0
 64144  1  0  0  0
 65145  1  0  0  0
 68 82  1  0  0  0
 71 72  2  0  0  0
 71 73  1  0  0  0
 71146  1  0  0  0
 72 75  1  0  0  0
 72147  1  0  0  0
 73 76  2  0  0  0
 73148  1  0  0  0
 74 75  2  0  0  0
 74 76  1  0  0  0
 74149  1  0  0  0
 75 77  1  0  0  0
 76 84  1  0  0  0
 77 83  1  0  0  0
 77 85  2  0  0  0
 78 79  1  0  0  0
 78 81  1  0  0  0
 78 83  2  0  0  0
 79 82  1  0  0  0
 79 86  2  0  0  0
 80 81  1  0  0  0
 80150  1  0  0  0
 80151  1  0  0  0
 80152  1  0  0  0
 81153  1  0  0  0
 81154  1  0  0  0
 82155  1  0  0  0
 82156  1  0  0  0
 84157  1  0  0  0
M  ISO  4   1 100  68 101  82 101  84 100
M  END
> <chiral flag>
0

> <version>
0

> <s_m_source_file>
/data/baiqing/PycharmProjects/Reinvent-master-3.2/result/LINK_invent/BTK/process_docking_weight1_custom_product_contain_oxygen_bond_distance_aromatic_linkinvent_7_9_3/rearranged_h_0080.sdf

> <i_m_source_file_index>
2

> <r_mmod_Potential_Energy-OPLS-2005>
99.568473815918

> <r_mmod_Stretch_Energy-OPLS-2005>
68.0855865478516

> <r_mmod_Bend_Energy-OPLS-2005>
142.246795654297

> <r_mmod_Torsional_Energy-OPLS-2005>
266.959136962891

> <r_mmod_Improper_Torsional_Energy-OPLS-2005>
6.68777894973755

> <r_mmod_Van_der_Waal_Energy-OPLS-2005>
154.994735717773

> <r_mmod_Electrostatic_Energy-OPLS-2005>
-339.515075683594

> <r_mmod_Solvation_Energy-OPLS-2005>
-226.849166870117

> <b_mmod_Minimization_Converged-OPLS-2005>
0

> <r_mmod_RMS_Derivative-OPLS-2005>
4.94491338729858

$$$$
2
                    3D
 Structure written by MMmdl.
171180  0  0  1  0            999 V2000
  -30.6979  -14.5759   20.4973 C   0  0  0  0  0  0
  -30.4125  -12.3485   19.4587 C   0  0  0  0  0  0
  -29.4996  -12.5002   18.2236 C   0  0  0  0  0  0
  -28.0202  -12.3611   18.6295 C   0  0  0  0  0  0
  -27.6503  -13.2288   19.8631 C   0  0  2  0  0  0
  -28.6952  -13.0951   20.9969 C   0  0  0  0  0  0
  -25.2531  -13.8213   20.5713 C   0  0  0  0  0  0
  -24.1800  -13.0466   20.9209 C   0  0  0  0  0  0
  -24.6387  -11.6937   20.8740 C   0  0  0  0  0  0
  -23.9050  -10.4312   21.0399 C   0  0  0  0  0  0
  -24.3610   -9.4220   21.9171 C   0  0  0  0  0  0
  -23.6290   -8.2255   22.0732 C   0  0  0  0  0  0
  -22.4264   -8.0286   21.3541 C   0  0  0  0  0  0
  -21.9897   -9.0252   20.4640 C   0  0  0  0  0  0
  -22.7228  -10.2138   20.3049 C   0  0  0  0  0  0
  -21.6853   -6.0722   22.5263 C   0  0  0  0  0  0
  -21.4022   -6.5621   23.8197 C   0  0  0  0  0  0
  -21.3672   -5.6777   24.9164 C   0  0  0  0  0  0
  -21.6044   -4.3036   24.7223 C   0  0  0  0  0  0
  -21.8824   -3.8132   23.4338 C   0  0  0  0  0  0
  -21.9198   -4.6947   22.3395 C   0  0  0  0  0  0
  -22.7831  -13.5240   21.1886 C   0  0  0  0  0  0
  -22.1661   -4.2139   21.0970 F   0  0  0  0  0  0
  -21.5636   -3.4515   25.7733 F   0  0  0  0  0  0
  -30.0201  -13.3877   20.4320 N   0  0  0  0  0  0
  -26.2965  -12.9410   20.3334 N   0  0  0  0  0  0
  -25.9320  -11.6557   20.5760 N   0  0  0  0  0  0
  -22.0483  -12.8223   22.0439 N   0  0  0  0  0  0
  -25.4264  -15.1930   20.4136 N   0  0  0  0  0  0
  -31.8584  -14.6497   20.0864 O   0  0  0  0  0  0
  -21.6649   -6.8866   21.4221 O   0  0  0  0  0  0
  -22.3509  -14.5553   20.6746 O   0  0  0  0  0  0
  -24.6225  -31.8616   23.2045 C   0  0  0  0  0  0
  -25.9093  -32.4779   23.8366 C   0  0  1  0  0  0
  -27.2205  -27.3365   20.1238 C   0  0  0  0  0  0
  -25.5921  -33.8575   24.2294 N   0  0  0  0  0  0
  -23.4142  -30.4865   21.5448 C   0  0  2  0  0  0
  -24.8602  -28.9445   20.1102 C   0  0  0  0  0  0
  -22.7454  -29.4626   22.4927 C   0  0  0  0  0  0
  -18.0286  -28.1390   22.8472 C   0  0  0  0  0  0
  -24.1497  -36.7301   23.2638 C   0  0  0  0  0  0
  -25.9534  -30.7978   21.3741 C   0  0  0  0  0  0
  -26.0260  -29.4262   20.7190 C   0  0  0  0  0  0
  -27.2060  -28.6308   20.7232 C   0  0  0  0  0  0
  -26.0320  -26.9027   19.4906 C   0  0  0  0  0  0
  -24.8632  -27.6860   19.4913 C   0  0  0  0  0  0
  -23.6289  -29.8241   20.1581 C   0  0  0  0  0  0
  -25.4113  -36.3074   24.0332 C   0  0  1  0  0  0
  -20.5878  -28.3690   23.1275 C   0  0  2  0  0  0
  -20.6774  -26.9412   22.5411 C   0  0  0  0  0  0
  -19.5752  -26.6376   21.5210 C   0  0  0  0  0  0
  -18.1929  -26.7929   22.1614 C   0  0  0  0  0  0
  -19.1539  -28.8859   23.2866 C   0  0  0  0  0  0
  -18.9461  -30.1465   23.8892 C   0  0  0  0  0  0
  -17.6463  -30.6581   24.0567 C   0  0  0  0  0  0
  -25.9046  -34.9449   23.5109 C   0  0  0  0  0  0
  -16.5353  -29.9087   23.6325 C   0  0  0  0  0  0
  -16.7275  -28.6500   23.0342 C   0  0  0  0  0  0
  -26.4493  -31.6573   25.0721 C   0  0  0  0  0  0
  -25.3755  -31.3720   26.1474 C   0  0  0  0  0  0
  -27.0316  -30.2990   24.6168 C   0  0  0  0  0  0
  -27.6066  -32.4297   25.7478 C   0  0  0  0  0  0
  -27.5580  -37.1797   24.8449 C   0  0  0  0  0  0
  -21.4173  -29.3044   22.3674 N   0  0  0  0  0  0
  -26.4289  -37.3768   23.9401 N   0  0  0  0  0  0
  -24.6815  -31.0653   22.0979 N   0  0  0  0  0  0
  -23.4193  -28.8160   23.2985 O   0  0  0  0  0  0
  -28.3525  -26.5162   20.1900 O   0  0  0  0  0  0
  -26.5606  -34.8906   22.4672 O   0  0  0  0  0  0
  -23.5400  -32.1410   23.7392 O   0  0  0  0  0  0
  -28.6863  -17.7295   22.5173 C   0  0  0  0  0  0
  -29.5677  -19.4511   21.0353 C   0  0  0  0  0  0
  -29.4866  -18.0681   21.4094 C   0  0  0  0  0  0
  -28.0842  -20.0842   22.8727 C   0  0  0  0  0  0
  -27.9887  -18.7133   23.2474 C   0  0  0  0  0  0
  -28.8747  -20.4747   21.7538 C   0  0  0  0  0  0
  -25.4974  -16.9900   25.4757 C   0  0  0  0  0  0
  -24.1623  -16.8552   25.4443 C   0  0  0  0  0  0
  -28.2456  -25.1275   20.0024 C   0  0  0  0  0  0
  -30.3448  -16.9948   20.7467 C   0  0  0  0  0  0
  -28.7401  -24.1617   20.8339 C   0  0  0  0  0  0
  -28.5685  -22.7068   20.5510 C   0  0  0  0  0  0
  -26.2932  -16.9433   26.7687 C   0  0  0  0  0  0
  -26.3308  -17.2153   24.2233 C   0  0  0  0  0  0
  -27.2462  -18.1462   26.8539 C   0  0  0  0  0  0
  -28.1113  -18.2685   25.5899 C   0  0  0  0  0  0
  -27.3685  -21.1501   23.7005 C   0  0  0  0  0  0
  -27.2719  -18.3273   24.3948 N   0  0  0  0  0  0
  -29.0846  -21.8925   21.5111 N   0  0  0  0  0  0
  -29.9883  -15.6789   20.8822 N   0  0  0  0  0  0
  -31.3198  -17.3799   20.0915 O   0  0  0  0  0  0
  -28.0232  -22.2505   19.5436 O   0  0  0  0  0  0
  -29.3922  -24.5360   21.9453 O   0  0  0  0  0  0
  -31.4595  -12.4159   19.1610 H   0  0  0  0  0  0
  -30.2951  -11.3577   19.9004 H   0  0  0  0  0  0
  -29.7517  -11.7503   17.4733 H   0  0  0  0  0  0
  -29.6664  -13.4685   17.7498 H   0  0  0  0  0  0
  -27.8402  -11.3079   18.8489 H   0  0  0  0  0  0
  -27.3722  -12.6086   17.7863 H   0  0  0  0  0  0
  -27.6661  -14.2644   19.5228 H   0  0  0  0  0  0
  -28.6803  -12.0867   21.4128 H   0  0  0  0  0  0
  -28.4546  -13.7650   21.8240 H   0  0  0  0  0  0
  -25.2757   -9.5702   22.4733 H   0  0  0  0  0  0
  -23.9999   -7.4645   22.7449 H   0  0  0  0  0  0
  -21.0813   -8.8766   19.8967 H   0  0  0  0  0  0
  -22.3665  -10.9658   19.6147 H   0  0  0  0  0  0
  -21.2006   -7.6130   23.9688 H   0  0  0  0  0  0
  -21.1496   -6.0517   25.9063 H   0  0  0  0  0  0
  -22.0600   -2.7595   23.2845 H   0  0  0  0  0  0
  -22.4091  -11.9865   22.4802 H   0  0  0  0  0  0
  -21.1115  -13.1257   22.2681 H   0  0  0  0  0  0
  -24.6573  -15.8484   20.4999 H   0  0  0  0  0  0
  -26.2699  -15.6193   20.0530 H   0  0  0  0  0  0
  -26.7158  -32.5448   23.1113 H   0  0  0  0  0  0
  -25.0076  -33.9727   25.0444 H   0  0  0  0  0  0
  -22.7061  -31.3059   21.4044 H   0  0  0  0  0  0
  -23.3743  -35.9647   23.3291 H   0  0  0  0  0  0
  -24.3609  -36.8928   22.2055 H   0  0  0  0  0  0
  -23.7274  -37.6513   23.6667 H   0  0  0  0  0  0
  -26.0867  -31.5616   20.6067 H   0  0  0  0  0  0
  -26.8336  -30.8440   22.0038 H   0  0  0  0  0  0
  -28.0981  -28.9900   21.2171 H   0  0  0  0  0  0
  -25.9658  -25.9416   19.0060 H   0  0  0  0  0  0
  -23.9681  -27.3070   19.0173 H   0  0  0  0  0  0
  -23.7495  -30.6028   19.4039 H   0  0  0  0  0  0
  -22.7488  -29.2557   19.8522 H   0  0  0  0  0  0
  -25.1293  -36.1928   25.0826 H   0  0  0  0  0  0
  -20.9975  -28.3276   24.1390 H   0  0  0  0  0  0
  -20.5661  -26.2306   23.3610 H   0  0  0  0  0  0
  -21.6646  -26.7431   22.1216 H   0  0  0  0  0  0
  -19.6910  -25.6284   21.1242 H   0  0  0  0  0  0
  -19.6686  -27.3177   20.6730 H   0  0  0  0  0  0
  -17.4196  -26.6673   21.4017 H   0  0  0  0  0  0
  -18.0324  -26.0078   22.9014 H   0  0  0  0  0  0
  -19.7944  -30.7278   24.2242 H   0  0  0  0  0  0
  -17.5020  -31.6258   24.5176 H   0  0  0  0  0  0
  -15.5357  -30.2990   23.7647 H   0  0  0  0  0  0
  -15.8670  -28.0821   22.7057 H   0  0  0  0  0  0
  -24.5887  -30.7113   25.7811 H   0  0  0  0  0  0
  -24.9013  -32.2901   26.4956 H   0  0  0  0  0  0
  -25.8109  -30.8847   27.0210 H   0  0  0  0  0  0
  -26.2873  -29.6742   24.1221 H   0  0  0  0  0  0
  -27.4028  -29.7247   25.4665 H   0  0  0  0  0  0
  -27.8743  -30.4252   23.9368 H   0  0  0  0  0  0
  -27.2682  -33.3581   26.2089 H   0  0  0  0  0  0
  -28.3860  -32.6882   25.0297 H   0  0  0  0  0  0
  -28.0755  -31.8406   26.5369 H   0  0  0  0  0  0
  -28.2581  -38.0108   24.7506 H   0  0  0  0  0  0
  -28.1097  -36.2643   24.6255 H   0  0  0  0  0  0
  -27.2309  -37.1424   25.8855 H   0  0  0  0  0  0
  -20.9344  -29.8807   21.6927 H   0  0  0  0  0  0
  -26.0165  -38.2837   24.1418 H   0  0  0  0  0  0
  -28.6576  -16.7043   22.8552 H   0  0  0  0  0  0
  -30.2234  -19.7350   20.2240 H   0  0  0  0  0  0
  -23.5919  -16.7020   26.3496 H   0  0  0  0  0  0
  -23.6156  -16.8939   24.5135 H   0  0  0  0  0  0
  -27.7329  -24.8705   19.0867 H   0  0  0  0  0  0
  -26.8638  -16.0143   26.7872 H   0  0  0  0  0  0
  -25.6278  -16.9219   27.6325 H   0  0  0  0  0  0
  -25.6835  -17.3882   23.3615 H   0  0  0  0  0  0
  -26.8734  -16.2891   24.0310 H   0  0  0  0  0  0
  -27.8840  -18.0593   27.7347 H   0  0  0  0  0  0
  -26.6650  -19.0599   26.9822 H   0  0  0  0  0  0
  -28.7904  -17.4161   25.5173 H   0  0  0  0  0  0
  -28.7344  -19.1627   25.6565 H   0  0  0  0  0  0
  -26.4933  -20.7564   24.2161 H   0  0  0  0  0  0
  -27.0115  -21.9697   23.0799 H   0  0  0  0  0  0
  -28.0468  -21.5581   24.4488 H   0  0  0  0  0  0
  -29.4538  -22.4246   22.2896 H   0  0  0  0  0  0
  -29.0910  -15.5056   21.2991 H   0  0  0  0  0  0
  -29.4147  -25.4848   21.9387 H   0  0  0  0  0  0
  1 25  1  0  0  0
  1 30  2  0  0  0
  1 90  1  0  0  0
  2  3  1  0  0  0
  2 25  1  0  0  0
  2 94  1  0  0  0
  2 95  1  0  0  0
  3  4  1  0  0  0
  3 96  1  0  0  0
  3 97  1  0  0  0
  4  5  1  0  0  0
  4 98  1  0  0  0
  4 99  1  0  0  0
  5  6  1  0  0  0
  5 26  1  0  0  0
  5100  1  0  0  0
  6 25  1  0  0  0
  6101  1  0  0  0
  6102  1  0  0  0
  7  8  2  0  0  0
  7 26  1  0  0  0
  7 29  1  0  0  0
  8  9  1  0  0  0
  8 22  1  0  0  0
  9 10  1  0  0  0
  9 27  2  0  0  0
 10 11  2  0  0  0
 10 15  1  0  0  0
 11 12  1  0  0  0
 11103  1  0  0  0
 12 13  2  0  0  0
 12104  1  0  0  0
 13 14  1  0  0  0
 13 31  1  0  0  0
 14 15  2  0  0  0
 14105  1  0  0  0
 15106  1  0  0  0
 16 17  2  0  0  0
 16 21  1  0  0  0
 16 31  1  0  0  0
 17 18  1  0  0  0
 17107  1  0  0  0
 18 19  2  0  0  0
 18108  1  0  0  0
 19 20  1  0  0  0
 19 24  1  0  0  0
 20 21  2  0  0  0
 20109  1  0  0  0
 21 23  1  0  0  0
 22 28  1  0  0  0
 22 32  2  0  0  0
 26 27  1  0  0  0
 28110  1  0  0  0
 28111  1  0  0  0
 29112  1  0  0  0
 29113  1  0  0  0
 33 34  1  0  0  0
 33 66  1  0  0  0
 33 70  2  0  0  0
 34 36  1  0  0  0
 34 59  1  0  0  0
 34114  1  0  0  0
 35 44  2  0  0  0
 35 45  1  0  0  0
 35 68  1  0  0  0
 36 56  1  0  0  0
 36115  1  0  0  0
 37 39  1  0  0  0
 37 47  1  0  0  0
 37 66  1  0  0  0
 37116  1  0  0  0
 38 43  2  0  0  0
 38 46  1  0  0  0
 38 47  1  0  0  0
 39 64  1  0  0  0
 39 67  2  0  0  0
 40 52  1  0  0  0
 40 53  2  0  0  0
 40 58  1  0  0  0
 41117  1  0  0  0
 41118  1  0  0  0
 41119  1  0  0  0
 41 48  1  0  0  0
 42 43  1  0  0  0
 42 66  1  0  0  0
 42120  1  0  0  0
 42121  1  0  0  0
 43 44  1  0  0  0
 44122  1  0  0  0
 45 46  2  0  0  0
 45123  1  0  0  0
 46124  1  0  0  0
 47125  1  0  0  0
 47126  1  0  0  0
 48 56  1  0  0  0
 48 65  1  0  0  0
 48127  1  0  0  0
 49 50  1  0  0  0
 49 53  1  0  0  0
 49 64  1  0  0  0
 49128  1  0  0  0
 50 51  1  0  0  0
 50129  1  0  0  0
 50130  1  0  0  0
 51 52  1  0  0  0
 51131  1  0  0  0
 51132  1  0  0  0
 52133  1  0  0  0
 52134  1  0  0  0
 53 54  1  0  0  0
 54 55  2  0  0  0
 54135  1  0  0  0
 55 57  1  0  0  0
 55136  1  0  0  0
 56 69  2  0  0  0
 57 58  2  0  0  0
 57137  1  0  0  0
 58138  1  0  0  0
 59 60  1  0  0  0
 59 61  1  0  0  0
 59 62  1  0  0  0
 60139  1  0  0  0
 60140  1  0  0  0
 60141  1  0  0  0
 61142  1  0  0  0
 61143  1  0  0  0
 61144  1  0  0  0
 62145  1  0  0  0
 62146  1  0  0  0
 62147  1  0  0  0
 63 65  1  0  0  0
 63148  1  0  0  0
 63149  1  0  0  0
 63150  1  0  0  0
 64151  1  0  0  0
 65152  1  0  0  0
 68 79  1  0  0  0
 71 73  2  0  0  0
 71 75  1  0  0  0
 71153  1  0  0  0
 72 73  1  0  0  0
 72 76  2  0  0  0
 72154  1  0  0  0
 73 80  1  0  0  0
 74 75  2  0  0  0
 74 76  1  0  0  0
 74 87  1  0  0  0
 75 88  1  0  0  0
 76 89  1  0  0  0
 77 78  2  0  0  0
 77 83  1  0  0  0
 77 84  1  0  0  0
 78155  1  0  0  0
 78156  1  0  0  0
 79 81  2  0  0  0
 79157  1  0  0  0
 80 90  1  0  0  0
 80 91  2  0  0  0
 81 82  1  0  0  0
 81 93  1  0  0  0
 82 89  1  0  0  0
 82 92  2  0  0  0
 83 85  1  0  0  0
 83158  1  0  0  0
 83159  1  0  0  0
 84 88  1  0  0  0
 84160  1  0  0  0
 84161  1  0  0  0
 85 86  1  0  0  0
 85162  1  0  0  0
 85163  1  0  0  0
 86 88  1  0  0  0
 86164  1  0  0  0
 86165  1  0  0  0
 87166  1  0  0  0
 87167  1  0  0  0
 87168  1  0  0  0
 89169  1  0  0  0
 90170  1  0  0  0
 93171  1  0  0  0
M  ISO  4   1 100  68 101  79 101  90 100
M  END
> <chiral flag>
0

> <version>
0

> <s_m_source_file>
/data/baiqing/PycharmProjects/Reinvent-master-3.2/result/LINK_invent/BTK/process_docking_weight1_custom_product_contain_oxygen_bond_distance_aromatic_linkinvent_7_9_3/rearranged_h_0080.sdf

> <i_m_source_file_index>
3

> <r_mmod_Potential_Energy-OPLS-2005>
-151.609481811523

> <r_mmod_Stretch_Energy-OPLS-2005>
66.0031356811523

> <r_mmod_Bend_Energy-OPLS-2005>
120.780326843262

> <r_mmod_Torsional_Energy-OPLS-2005>
274.195770263672

> <r_mmod_Improper_Torsional_Energy-OPLS-2005>
10.0512084960938

> <r_mmod_Van_der_Waal_Energy-OPLS-2005>
168.747833251953

> <r_mmod_Electrostatic_Energy-OPLS-2005>
-585.070129394531

> <r_mmod_Solvation_Energy-OPLS-2005>
-244.030853271484

> <b_mmod_Minimization_Converged-OPLS-2005>
0

> <r_mmod_RMS_Derivative-OPLS-2005>
2.54043793678284

$$$$
3
                    3D
 Structure written by MMmdl.
159168  0  0  1  0            999 V2000
  -30.1642  -16.2980   20.2769 C   0  0  0  0  0  0
  -30.3411  -13.5833   19.5385 C   0  0  0  0  0  0
  -29.5567  -12.8503   18.3919 C   0  0  0  0  0  0
  -28.2031  -12.3437   18.8818 C   0  0  0  0  0  0
  -27.5753  -13.3967   19.8073 C   0  0  2  0  0  0
  -28.5291  -14.0474   20.8660 C   0  0  0  0  0  0
  -25.2220  -13.8434   20.5924 C   0  0  0  0  0  0
  -24.1693  -13.0480   20.9351 C   0  0  0  0  0  0
  -24.6507  -11.7020   20.8753 C   0  0  0  0  0  0
  -23.9223  -10.4325   21.0340 C   0  0  0  0  0  0
  -24.3714   -9.4216   21.9134 C   0  0  0  0  0  0
  -23.6348   -8.2266   22.0732 C   0  0  0  0  0  0
  -22.4327   -8.0315   21.3529 C   0  0  0  0  0  0
  -21.9997   -9.0291   20.4616 C   0  0  0  0  0  0
  -22.7368  -10.2151   20.2998 C   0  0  0  0  0  0
  -21.6884   -6.0751   22.5271 C   0  0  0  0  0  0
  -21.4024   -6.5639   23.8211 C   0  0  0  0  0  0
  -21.3653   -5.6784   24.9160 C   0  0  0  0  0  0
  -21.6043   -4.3054   24.7204 C   0  0  0  0  0  0
  -21.8821   -3.8144   23.4328 C   0  0  0  0  0  0
  -21.9221   -4.6971   22.3387 C   0  0  0  0  0  0
  -22.7671  -13.5127   21.1939 C   0  0  0  0  0  0
  -22.1677   -4.2155   21.0965 F   0  0  0  0  0  0
  -21.5613   -3.4541   25.7719 F   0  0  0  0  0  0
  -29.6107  -14.8517   20.1713 N   0  0  0  0  0  0
  -26.2792  -12.9948   20.3401 N   0  0  0  0  0  0
  -25.9488  -11.6919   20.5682 N   0  0  0  0  0  0
  -22.0348  -12.8101   22.0486 N   0  0  0  0  0  0
  -25.3724  -15.2184   20.4330 N   0  0  0  0  0  0
  -31.3716  -15.9191   20.2535 O   0  0  0  0  0  0
  -21.6682   -6.8905   21.4236 O   0  0  0  0  0  0
  -22.3326  -14.5409   20.6750 O   0  0  0  0  0  0
  -24.7219  -31.7489   23.1163 C   0  0  0  0  0  0
  -25.9602  -32.4217   23.7839 C   0  0  1  0  0  0
  -27.2380  -26.2741   20.2488 C   0  0  0  0  0  0
  -25.6013  -33.8078   24.1682 N   0  0  0  0  0  0
  -23.5667  -30.3331   21.4805 C   0  0  2  0  0  0
  -25.0289  -28.5861   20.1286 C   0  0  0  0  0  0
  -22.7922  -29.4060   22.4598 C   0  0  0  0  0  0
  -18.0356  -28.1449   22.8442 C   0  0  0  0  0  0
  -24.1498  -36.7050   23.2666 C   0  0  0  0  0  0
  -26.1623  -30.3397   21.4486 C   0  0  0  0  0  0
  -26.2225  -28.8571   20.8056 C   0  0  0  0  0  0
  -27.2875  -27.7435   20.8250 C   0  0  0  0  0  0
  -26.0134  -26.3301   19.4988 C   0  0  0  0  0  0
  -24.9898  -27.3535   19.4478 C   0  0  0  0  0  0
  -23.8427  -29.5901   20.1351 C   0  0  0  0  0  0
  -25.4170  -36.2753   24.0238 C   0  0  1  0  0  0
  -20.6016  -28.3828   23.1082 C   0  0  2  0  0  0
  -20.6812  -26.9458   22.5418 C   0  0  0  0  0  0
  -19.5788  -26.6356   21.5237 C   0  0  0  0  0  0
  -18.1971  -26.7967   22.1622 C   0  0  0  0  0  0
  -19.1634  -28.8968   23.2726 C   0  0  0  0  0  0
  -18.9536  -30.1547   23.8781 C   0  0  0  0  0  0
  -17.6532  -30.6638   24.0542 C   0  0  0  0  0  0
  -25.9171  -34.9159   23.4821 C   0  0  0  0  0  0
  -16.5415  -29.9115   23.6374 C   0  0  0  0  0  0
  -16.7337  -28.6534   23.0388 C   0  0  0  0  0  0
  -26.4644  -31.6446   25.0652 C   0  0  0  0  0  0
  -25.3582  -31.3886   26.1164 C   0  0  0  0  0  0
  -27.0669  -30.2745   24.6891 C   0  0  0  0  0  0
  -27.5969  -32.4443   25.7502 C   0  0  0  0  0  0
  -27.5542  -37.1695   24.8478 C   0  0  0  0  0  0
  -21.4535  -29.2994   22.3334 N   0  0  0  0  0  0
  -26.4263  -37.3564   23.9396 N   0  0  0  0  0  0
  -24.8457  -30.8513   22.0657 N   0  0  0  0  0  0
  -23.4174  -28.7733   23.3132 O   0  0  0  0  0  0
  -28.1422  -24.8573   20.2847 O   0  0  0  0  0  0
  -26.5873  -34.8815   22.4492 O   0  0  0  0  0  0
  -23.6153  -32.0763   23.5856 O   0  0  0  0  0  0
  -33.4092  -19.1633   19.4057 C   0  0  0  0  0  0
  -32.1271  -18.5901   19.3266 C   0  0  0  0  0  0
  -33.7957  -19.8799   20.5549 C   0  0  0  0  0  0
  -31.6484  -19.3759   21.5815 C   0  0  0  0  0  0
  -31.2305  -18.6855   20.4145 C   0  0  0  0  0  0
  -32.9145  -20.0085   21.6597 C   0  0  0  0  0  0
  -34.2994  -22.0024   24.4248 C   0  0  0  0  0  0
  -32.9989  -22.2029   24.6245 C   0  0  0  0  0  0
  -34.4741  -21.1297   23.2818 C   0  0  0  0  0  0
  -28.2664  -21.4497   20.2073 C   0  0  0  0  0  0
  -28.9156  -19.6207   20.2366 C   0  0  0  0  0  0
  -27.9268  -23.1053   20.2081 C   0  0  0  0  0  0
  -29.8216  -18.1964   20.2914 C   0  0  0  0  0  0
  -32.1878  -21.4638   23.6058 C   0  0  0  0  0  0
  -32.3444  -23.0356   25.7079 C   0  0  0  0  0  0
  -33.2372  -20.8234   22.8029 N   0  0  0  0  0  0
  -35.5569  -20.7200   22.8504 O   0  0  0  0  0  0
  -31.2873  -13.8787   19.0859 H   0  0  0  0  0  0
  -30.6435  -12.8755   20.3116 H   0  0  0  0  0  0
  -30.1454  -12.0252   17.9925 H   0  0  0  0  0  0
  -29.4081  -13.5478   17.5672 H   0  0  0  0  0  0
  -28.3596  -11.4216   19.4417 H   0  0  0  0  0  0
  -27.5480  -12.0981   18.0449 H   0  0  0  0  0  0
  -27.3484  -14.2096   19.1147 H   0  0  0  0  0  0
  -28.9251  -13.3125   21.5678 H   0  0  0  0  0  0
  -27.9640  -14.7498   21.4785 H   0  0  0  0  0  0
  -25.2825   -9.5702   22.4761 H   0  0  0  0  0  0
  -24.0029   -7.4661   22.7485 H   0  0  0  0  0  0
  -21.0904   -8.8821   19.8941 H   0  0  0  0  0  0
  -22.3791  -10.9685   19.6115 H   0  0  0  0  0  0
  -21.2034   -7.6152   23.9722 H   0  0  0  0  0  0
  -21.1448   -6.0505   25.9069 H   0  0  0  0  0  0
  -22.0621   -2.7612   23.2833 H   0  0  0  0  0  0
  -22.4015  -11.9800   22.4914 H   0  0  0  0  0  0
  -21.0924  -13.1049   22.2620 H   0  0  0  0  0  0
  -24.6027  -15.8671   20.5487 H   0  0  0  0  0  0
  -26.2264  -15.6651   20.1229 H   0  0  0  0  0  0
  -26.7710  -32.4587   23.0554 H   0  0  0  0  0  0
  -24.9997  -33.9041   24.9727 H   0  0  0  0  0  0
  -22.9172  -31.1840   21.2582 H   0  0  0  0  0  0
  -23.3781  -35.9368   23.3286 H   0  0  0  0  0  0
  -24.3514  -36.8783   22.2085 H   0  0  0  0  0  0
  -23.7260  -37.6198   23.6815 H   0  0  0  0  0  0
  -26.4135  -31.0414   20.6514 H   0  0  0  0  0  0
  -26.9919  -30.4176   22.1372 H   0  0  0  0  0  0
  -28.1775  -27.9793   21.3923 H   0  0  0  0  0  0
  -25.7805  -25.4321   18.9461 H   0  0  0  0  0  0
  -24.1073  -27.1347   18.8615 H   0  0  0  0  0  0
  -24.0446  -30.3322   19.3620 H   0  0  0  0  0  0
  -22.9395  -29.0729   19.8058 H   0  0  0  0  0  0
  -25.1419  -36.1440   25.0731 H   0  0  0  0  0  0
  -21.0069  -28.3499   24.1221 H   0  0  0  0  0  0
  -20.5673  -26.2465   23.3715 H   0  0  0  0  0  0
  -21.6663  -26.7368   22.1235 H   0  0  0  0  0  0
  -19.6941  -25.6233   21.1349 H   0  0  0  0  0  0
  -19.6741  -27.3093   20.6703 H   0  0  0  0  0  0
  -17.4243  -26.6716   21.4020 H   0  0  0  0  0  0
  -18.0340  -26.0142   22.9039 H   0  0  0  0  0  0
  -19.8027  -30.7382   24.2092 H   0  0  0  0  0  0
  -17.5098  -31.6308   24.5153 H   0  0  0  0  0  0
  -15.5412  -30.2984   23.7768 H   0  0  0  0  0  0
  -15.8733  -28.0810   22.7182 H   0  0  0  0  0  0
  -24.5818  -30.7197   25.7414 H   0  0  0  0  0  0
  -24.8715  -32.3148   26.4230 H   0  0  0  0  0  0
  -25.7623  -30.9251   27.0167 H   0  0  0  0  0  0
  -26.3461  -29.6181   24.1996 H   0  0  0  0  0  0
  -27.4027  -29.7417   25.5789 H   0  0  0  0  0  0
  -27.9457  -30.3763   24.0522 H   0  0  0  0  0  0
  -27.2404  -33.3854   26.1703 H   0  0  0  0  0  0
  -28.3953  -32.6837   25.0470 H   0  0  0  0  0  0
  -28.0438  -31.8847   26.5722 H   0  0  0  0  0  0
  -28.2544  -37.9999   24.7481 H   0  0  0  0  0  0
  -28.1044  -36.2512   24.6378 H   0  0  0  0  0  0
  -27.2228  -37.1408   25.8870 H   0  0  0  0  0  0
  -20.9925  -29.8576   21.6275 H   0  0  0  0  0  0
  -26.0042  -38.2595   24.1396 H   0  0  0  0  0  0
  -34.0858  -19.0760   18.5654 H   0  0  0  0  0  0
  -31.8277  -18.0804   18.4225 H   0  0  0  0  0  0
  -34.7653  -20.3560   20.5487 H   0  0  0  0  0  0
  -30.9436  -19.4657   22.3958 H   0  0  0  0  0  0
  -35.0994  -22.4157   25.0211 H   0  0  0  0  0  0
  -27.2430  -21.1381   20.0491 H   0  0  0  0  0  0
  -29.7815  -20.2558   20.2232 H   0  0  0  0  0  0
  -26.8559  -23.1209   20.0603 H   0  0  0  0  0  0
  -31.5920  -22.1483   22.9999 H   0  0  0  0  0  0
  -31.5384  -20.7451   24.1092 H   0  0  0  0  0  0
  -33.0836  -23.4179   26.4144 H   0  0  0  0  0  0
  -31.6240  -22.4329   26.2650 H   0  0  0  0  0  0
  -31.8175  -23.8863   25.2747 H   0  0  0  0  0  0
  1 25  1  0  0  0
  1 30  2  0  0  0
  1 83  1  0  0  0
  2  3  1  0  0  0
  2 25  1  0  0  0
  2 88  1  0  0  0
  2 89  1  0  0  0
  3  4  1  0  0  0
  3 90  1  0  0  0
  3 91  1  0  0  0
  4  5  1  0  0  0
  4 92  1  0  0  0
  4 93  1  0  0  0
  5  6  1  0  0  0
  5 26  1  0  0  0
  5 94  1  0  0  0
  6 25  1  0  0  0
  6 95  1  0  0  0
  6 96  1  0  0  0
  7  8  2  0  0  0
  7 26  1  0  0  0
  7 29  1  0  0  0
  8  9  1  0  0  0
  8 22  1  0  0  0
  9 10  1  0  0  0
  9 27  2  0  0  0
 10 11  2  0  0  0
 10 15  1  0  0  0
 11 12  1  0  0  0
 11 97  1  0  0  0
 12 13  2  0  0  0
 12 98  1  0  0  0
 13 14  1  0  0  0
 13 31  1  0  0  0
 14 15  2  0  0  0
 14 99  1  0  0  0
 15100  1  0  0  0
 16 17  2  0  0  0
 16 21  1  0  0  0
 16 31  1  0  0  0
 17 18  1  0  0  0
 17101  1  0  0  0
 18 19  2  0  0  0
 18102  1  0  0  0
 19 20  1  0  0  0
 19 24  1  0  0  0
 20 21  2  0  0  0
 20103  1  0  0  0
 21 23  1  0  0  0
 22 28  1  0  0  0
 22 32  2  0  0  0
 26 27  1  0  0  0
 28104  1  0  0  0
 28105  1  0  0  0
 29106  1  0  0  0
 29107  1  0  0  0
 33 34  1  0  0  0
 33 66  1  0  0  0
 33 70  2  0  0  0
 34 36  1  0  0  0
 34 59  1  0  0  0
 34108  1  0  0  0
 35 44  2  0  0  0
 35 45  1  0  0  0
 35 68  1  0  0  0
 36 56  1  0  0  0
 36109  1  0  0  0
 37 39  1  0  0  0
 37 47  1  0  0  0
 37 66  1  0  0  0
 37110  1  0  0  0
 38 43  2  0  0  0
 38 46  1  0  0  0
 38 47  1  0  0  0
 39 64  1  0  0  0
 39 67  2  0  0  0
 40 52  1  0  0  0
 40 53  2  0  0  0
 40 58  1  0  0  0
 41111  1  0  0  0
 41112  1  0  0  0
 41113  1  0  0  0
 41 48  1  0  0  0
 42 43  1  0  0  0
 42 66  1  0  0  0
 42114  1  0  0  0
 42115  1  0  0  0
 43 44  1  0  0  0
 44116  1  0  0  0
 45 46  2  0  0  0
 45117  1  0  0  0
 46118  1  0  0  0
 47119  1  0  0  0
 47120  1  0  0  0
 48 56  1  0  0  0
 48 65  1  0  0  0
 48121  1  0  0  0
 49 50  1  0  0  0
 49 53  1  0  0  0
 49 64  1  0  0  0
 49122  1  0  0  0
 50 51  1  0  0  0
 50123  1  0  0  0
 50124  1  0  0  0
 51 52  1  0  0  0
 51125  1  0  0  0
 51126  1  0  0  0
 52127  1  0  0  0
 52128  1  0  0  0
 53 54  1  0  0  0
 54 55  2  0  0  0
 54129  1  0  0  0
 55 57  1  0  0  0
 55130  1  0  0  0
 56 69  2  0  0  0
 57 58  2  0  0  0
 57131  1  0  0  0
 58132  1  0  0  0
 59 60  1  0  0  0
 59 61  1  0  0  0
 59 62  1  0  0  0
 60133  1  0  0  0
 60134  1  0  0  0
 60135  1  0  0  0
 61136  1  0  0  0
 61137  1  0  0  0
 61138  1  0  0  0
 62139  1  0  0  0
 62140  1  0  0  0
 62141  1  0  0  0
 63 65  1  0  0  0
 63142  1  0  0  0
 63143  1  0  0  0
 63144  1  0  0  0
 64145  1  0  0  0
 65146  1  0  0  0
 68 82  1  0  0  0
 71 72  2  0  0  0
 71 73  1  0  0  0
 71147  1  0  0  0
 72 75  1  0  0  0
 72148  1  0  0  0
 73 76  2  0  0  0
 73149  1  0  0  0
 74 75  2  0  0  0
 74 76  1  0  0  0
 74150  1  0  0  0
 75 83  1  0  0  0
 76 86  1  0  0  0
 77 78  2  0  0  0
 77 79  1  0  0  0
 77151  1  0  0  0
 78 84  1  0  0  0
 78 85  1  0  0  0
 79 86  1  0  0  0
 79 87  2  0  0  0
 80 81  1  0  0  0
 80 82  2  0  0  0
 80152  1  0  0  0
 81 83  2  0  0  0
 81153  1  0  0  0
 82154  1  0  0  0
 84 86  1  0  0  0
 84155  1  0  0  0
 84156  1  0  0  0
 85157  1  0  0  0
 85158  1  0  0  0
 85159  1  0  0  0
M  ISO  4   1 100  68 101  82 101  83 100
M  END
> <chiral flag>
0

> <version>
0

> <s_m_source_file>
/data/baiqing/PycharmProjects/Reinvent-master-3.2/result/LINK_invent/BTK/process_docking_weight1_custom_product_contain_oxygen_bond_distance_aromatic_linkinvent_7_9_3/rearranged_h_0080.sdf

> <i_m_source_file_index>
4

> <r_mmod_Potential_Energy-OPLS-2005>
5812.2685546875

> <r_mmod_Stretch_Energy-OPLS-2005>
2170.98657226562

> <r_mmod_Bend_Energy-OPLS-2005>
1584.93359375

> <r_mmod_Torsional_Energy-OPLS-2005>
265.727478027344

> <r_mmod_Improper_Torsional_Energy-OPLS-2005>
4.9258279800415

> <r_mmod_Van_der_Waal_Energy-OPLS-2005>
167.56103515625

> <r_mmod_Electrostatic_Energy-OPLS-2005>
-244.180603027344

> <r_mmod_Solvation_Energy-OPLS-2005>
-205.942169189453

> <b_mmod_Minimization_Converged-OPLS-2005>
0

> <r_mmod_RMS_Derivative-OPLS-2005>
4.46436262130737

$$$$
4
                    3D
 Structure written by MMmdl.
158167  0  0  1  0            999 V2000
  -30.7412  -14.4802   20.5257 C   0  0  0  0  0  0
  -30.4106  -12.3093   19.4239 C   0  0  0  0  0  0
  -29.4960  -12.4983   18.1988 C   0  0  0  0  0  0
  -28.0161  -12.3626   18.6062 C   0  0  0  0  0  0
  -27.6539  -13.2123   19.8573 C   0  0  2  0  0  0
  -28.7000  -13.0469   20.9834 C   0  0  0  0  0  0
  -25.2598  -13.8184   20.5643 C   0  0  0  0  0  0
  -24.1859  -13.0476   20.9219 C   0  0  0  0  0  0
  -24.6410  -11.6938   20.8753 C   0  0  0  0  0  0
  -23.9079  -10.4338   21.0421 C   0  0  0  0  0  0
  -24.3653   -9.4256   21.9184 C   0  0  0  0  0  0
  -23.6347   -8.2271   22.0738 C   0  0  0  0  0  0
  -22.4327   -8.0296   21.3530 C   0  0  0  0  0  0
  -21.9963   -9.0263   20.4627 C   0  0  0  0  0  0
  -22.7283  -10.2148   20.3052 C   0  0  0  0  0  0
  -21.6838   -6.0779   22.5305 C   0  0  0  0  0  0
  -21.3973   -6.5667   23.8246 C   0  0  0  0  0  0
  -21.3658   -5.6816   24.9205 C   0  0  0  0  0  0
  -21.6063   -4.3075   24.7255 C   0  0  0  0  0  0
  -21.8804   -3.8176   23.4357 C   0  0  0  0  0  0
  -21.9185   -4.7007   22.3421 C   0  0  0  0  0  0
  -22.7897  -13.5274   21.1889 C   0  0  0  0  0  0
  -22.1664   -4.2196   21.0993 F   0  0  0  0  0  0
  -21.5658   -3.4540   25.7752 F   0  0  0  0  0  0
  -30.0196  -13.3321   20.4079 N   0  0  0  0  0  0
  -26.2997  -12.9354   20.3276 N   0  0  0  0  0  0
  -25.9321  -11.6533   20.5717 N   0  0  0  0  0  0
  -22.0457  -12.8283   22.0390 N   0  0  0  0  0  0
  -25.4364  -15.1897   20.4013 N   0  0  0  0  0  0
  -31.9236  -14.5503   20.1720 O   0  0  0  0  0  0
  -21.6656   -6.8908   21.4258 O   0  0  0  0  0  0
  -22.3614  -14.5608   20.6755 O   0  0  0  0  0  0
  -24.6214  -31.8669   23.2086 C   0  0  0  0  0  0
  -25.9097  -32.4812   23.8404 C   0  0  1  0  0  0
  -27.2235  -27.3896   20.0978 C   0  0  0  0  0  0
  -25.5960  -33.8616   24.2329 N   0  0  0  0  0  0
  -23.4105  -30.4963   21.5491 C   0  0  2  0  0  0
  -24.8520  -28.9595   20.1237 C   0  0  0  0  0  0
  -22.7440  -29.4692   22.4965 C   0  0  0  0  0  0
  -18.0281  -28.1372   22.8497 C   0  0  0  0  0  0
  -24.1481  -36.7310   23.2636 C   0  0  0  0  0  0
  -25.9468  -30.8223   21.3670 C   0  0  0  0  0  0
  -26.0232  -29.4530   20.7152 C   0  0  0  0  0  0
  -27.2158  -28.6782   20.6981 C   0  0  0  0  0  0
  -26.0067  -26.9171   19.5433 C   0  0  0  0  0  0
  -24.8404  -27.6902   19.5353 C   0  0  0  0  0  0
  -23.6203  -29.8312   20.1665 C   0  0  0  0  0  0
  -25.4112  -36.3109   24.0332 C   0  0  1  0  0  0
  -20.5876  -28.3691   23.1289 C   0  0  2  0  0  0
  -20.6790  -26.9444   22.5392 C   0  0  0  0  0  0
  -19.5747  -26.6385   21.5212 C   0  0  0  0  0  0
  -18.1921  -26.7939   22.1615 C   0  0  0  0  0  0
  -19.1544  -28.8855   23.2887 C   0  0  0  0  0  0
  -18.9456  -30.1470   23.8892 C   0  0  0  0  0  0
  -17.6452  -30.6595   24.0546 C   0  0  0  0  0  0
  -25.9056  -34.9471   23.5114 C   0  0  0  0  0  0
  -16.5352  -29.9084   23.6341 C   0  0  0  0  0  0
  -16.7250  -28.6497   23.0371 C   0  0  0  0  0  0
  -26.4495  -31.6594   25.0749 C   0  0  0  0  0  0
  -25.3727  -31.3728   26.1461 C   0  0  0  0  0  0
  -27.0310  -30.3011   24.6171 C   0  0  0  0  0  0
  -27.6065  -32.4293   25.7536 C   0  0  0  0  0  0
  -27.5577  -37.1817   24.8453 C   0  0  0  0  0  0
  -21.4168  -29.3061   22.3692 N   0  0  0  0  0  0
  -26.4282  -37.3808   23.9415 N   0  0  0  0  0  0
  -24.6784  -31.0777   22.0980 N   0  0  0  0  0  0
  -23.4209  -28.8231   23.3004 O   0  0  0  0  0  0
  -28.3617  -26.5835   20.0329 O   0  0  0  0  0  0
  -26.5587  -34.8922   22.4650 O   0  0  0  0  0  0
  -23.5404  -32.1428   23.7471 O   0  0  0  0  0  0
  -29.3544  -18.3928   19.4194 C   0  0  0  0  0  0
  -30.3568  -19.4147   21.3700 C   0  0  0  0  0  0
  -28.9593  -19.6781   18.9704 C   0  0  0  0  0  0
  -29.9732  -20.7007   20.9105 C   0  0  0  0  0  0
  -30.0693  -18.2397   20.6283 C   0  0  0  0  0  0
  -29.2585  -20.8700   19.6963 C   0  0  0  0  0  0
  -28.4841  -24.4176   18.7987 C   0  0  0  0  0  0
  -28.0878  -23.7085   17.6149 C   0  0  0  0  0  0
  -28.8521  -23.4003   19.7912 C   0  0  0  0  0  0
  -27.3026  -24.2008   16.6353 C   0  0  0  0  0  0
  -28.4101  -25.7767   18.9105 C   0  0  0  0  0  0
  -30.6568  -16.9269   21.0220 C   0  0  0  0  0  0
  -28.4072  -22.2604   17.7733 C   0  0  0  0  0  0
  -28.8765  -22.1709   19.1656 N   0  0  0  0  0  0
  -30.0456  -15.7244   20.8044 N   0  0  0  0  0  0
  -31.8799  -16.9920   21.5689 N   0  3  0  0  0  0
  -29.0992  -23.6068   20.9828 O   0  0  0  0  0  0
  -31.4594  -12.3789   19.1304 H   0  0  0  0  0  0
  -30.2875  -11.3058   19.8393 H   0  0  0  0  0  0
  -29.7474  -11.7740   17.4255 H   0  0  0  0  0  0
  -29.6683  -13.4825   17.7579 H   0  0  0  0  0  0
  -27.8226  -11.3046   18.8005 H   0  0  0  0  0  0
  -27.3711  -12.6357   17.7696 H   0  0  0  0  0  0
  -27.6795  -14.2527   19.5383 H   0  0  0  0  0  0
  -28.6790  -12.0239   21.3628 H   0  0  0  0  0  0
  -28.4762  -13.6879   21.8388 H   0  0  0  0  0  0
  -25.2776   -9.5769   22.4791 H   0  0  0  0  0  0
  -24.0083   -7.4649   22.7458 H   0  0  0  0  0  0
  -21.0900   -8.8793   19.8910 H   0  0  0  0  0  0
  -22.3748  -10.9709   19.6184 H   0  0  0  0  0  0
  -21.1902   -7.6166   23.9785 H   0  0  0  0  0  0
  -21.1498   -6.0511   25.9116 H   0  0  0  0  0  0
  -22.0571   -2.7643   23.2832 H   0  0  0  0  0  0
  -22.4006  -11.9902   22.4790 H   0  0  0  0  0  0
  -21.1032  -13.1299   22.2473 H   0  0  0  0  0  0
  -24.6746  -15.8520   20.4951 H   0  0  0  0  0  0
  -26.2750  -15.6024   20.0156 H   0  0  0  0  0  0
  -26.7196  -32.5514   23.1191 H   0  0  0  0  0  0
  -25.0141  -33.9766   25.0488 H   0  0  0  0  0  0
  -22.7025  -31.3148   21.4073 H   0  0  0  0  0  0
  -23.3757  -35.9625   23.3273 H   0  0  0  0  0  0
  -24.3592  -36.8948   22.2058 H   0  0  0  0  0  0
  -23.7194  -37.6491   23.6658 H   0  0  0  0  0  0
  -26.0675  -31.5891   20.6003 H   0  0  0  0  0  0
  -26.8329  -30.8716   21.9885 H   0  0  0  0  0  0
  -28.1248  -29.0640   21.1417 H   0  0  0  0  0  0
  -25.9379  -25.9331   19.1015 H   0  0  0  0  0  0
  -23.9379  -27.2943   19.0884 H   0  0  0  0  0  0
  -23.7371  -30.6005   19.4030 H   0  0  0  0  0  0
  -22.7434  -29.2518   19.8703 H   0  0  0  0  0  0
  -25.1284  -36.1954   25.0823 H   0  0  0  0  0  0
  -20.9973  -28.3241   24.1402 H   0  0  0  0  0  0
  -20.5711  -26.2308   23.3586 H   0  0  0  0  0  0
  -21.6641  -26.7495   22.1147 H   0  0  0  0  0  0
  -19.6910  -25.6281   21.1264 H   0  0  0  0  0  0
  -19.6679  -27.3175   20.6739 H   0  0  0  0  0  0
  -17.4211  -26.6718   21.3994 H   0  0  0  0  0  0
  -18.0297  -26.0054   22.8972 H   0  0  0  0  0  0
  -19.7944  -30.7289   24.2236 H   0  0  0  0  0  0
  -17.5018  -31.6295   24.5108 H   0  0  0  0  0  0
  -15.5341  -30.2983   23.7683 H   0  0  0  0  0  0
  -15.8659  -28.0810   22.7092 H   0  0  0  0  0  0
  -24.5888  -30.7107   25.7766 H   0  0  0  0  0  0
  -24.8935  -32.2893   26.4920 H   0  0  0  0  0  0
  -25.8030  -30.8867   27.0217 H   0  0  0  0  0  0
  -26.2882  -29.6792   24.1162 H   0  0  0  0  0  0
  -27.3955  -29.7243   25.4676 H   0  0  0  0  0  0
  -27.8775  -30.4280   23.9419 H   0  0  0  0  0  0
  -27.2700  -33.3600   26.2116 H   0  0  0  0  0  0
  -28.3917  -32.6830   25.0400 H   0  0  0  0  0  0
  -28.0685  -31.8396   26.5456 H   0  0  0  0  0  0
  -28.2574  -38.0135   24.7545 H   0  0  0  0  0  0
  -28.1096  -36.2672   24.6222 H   0  0  0  0  0  0
  -27.2312  -37.1376   25.8857 H   0  0  0  0  0  0
  -20.9330  -29.8794   21.6927 H   0  0  0  0  0  0
  -26.0160  -38.2878   24.1419 H   0  0  0  0  0  0
  -29.1461  -17.5316   18.7967 H   0  0  0  0  0  0
  -30.9255  -19.3504   22.2860 H   0  0  0  0  0  0
  -28.4380  -19.7232   18.0276 H   0  0  0  0  0  0
  -30.2805  -21.5531   21.4947 H   0  0  0  0  0  0
  -26.9676  -25.2277   16.6212 H   0  0  0  0  0  0
  -26.9297  -23.5639   15.8458 H   0  0  0  0  0  0
  -28.1595  -26.3723   18.0455 H   0  0  0  0  0  0
  -29.1612  -21.9339   17.0544 H   0  0  0  0  0  0
  -27.4963  -21.6774   17.6252 H   0  0  0  0  0  0
  -29.0469  -15.7694   20.8891 H   0  0  0  0  0  0
  -32.3060  -17.8948   21.7057 H   0  0  0  0  0  0
  -32.4426  -16.1620   21.6868 H   0  0  0  0  0  0
  1 25  1  0  0  0
  1 30  2  0  0  0
  1 85  1  0  0  0
  2  3  1  0  0  0
  2 25  1  0  0  0
  2 88  1  0  0  0
  2 89  1  0  0  0
  3  4  1  0  0  0
  3 90  1  0  0  0
  3 91  1  0  0  0
  4  5  1  0  0  0
  4 92  1  0  0  0
  4 93  1  0  0  0
  5  6  1  0  0  0
  5 26  1  0  0  0
  5 94  1  0  0  0
  6 25  1  0  0  0
  6 95  1  0  0  0
  6 96  1  0  0  0
  7  8  2  0  0  0
  7 26  1  0  0  0
  7 29  1  0  0  0
  8  9  1  0  0  0
  8 22  1  0  0  0
  9 10  1  0  0  0
  9 27  2  0  0  0
 10 11  2  0  0  0
 10 15  1  0  0  0
 11 12  1  0  0  0
 11 97  1  0  0  0
 12 13  2  0  0  0
 12 98  1  0  0  0
 13 14  1  0  0  0
 13 31  1  0  0  0
 14 15  2  0  0  0
 14 99  1  0  0  0
 15100  1  0  0  0
 16 17  2  0  0  0
 16 21  1  0  0  0
 16 31  1  0  0  0
 17 18  1  0  0  0
 17101  1  0  0  0
 18 19  2  0  0  0
 18102  1  0  0  0
 19 20  1  0  0  0
 19 24  1  0  0  0
 20 21  2  0  0  0
 20103  1  0  0  0
 21 23  1  0  0  0
 22 28  1  0  0  0
 22 32  2  0  0  0
 26 27  1  0  0  0
 28104  1  0  0  0
 28105  1  0  0  0
 29106  1  0  0  0
 29107  1  0  0  0
 33 34  1  0  0  0
 33 66  1  0  0  0
 33 70  2  0  0  0
 34 36  1  0  0  0
 34 59  1  0  0  0
 34108  1  0  0  0
 35 44  2  0  0  0
 35 45  1  0  0  0
 35 68  1  0  0  0
 36 56  1  0  0  0
 36109  1  0  0  0
 37 39  1  0  0  0
 37 47  1  0  0  0
 37 66  1  0  0  0
 37110  1  0  0  0
 38 43  2  0  0  0
 38 46  1  0  0  0
 38 47  1  0  0  0
 39 64  1  0  0  0
 39 67  2  0  0  0
 40 52  1  0  0  0
 40 53  2  0  0  0
 40 58  1  0  0  0
 41111  1  0  0  0
 41112  1  0  0  0
 41113  1  0  0  0
 41 48  1  0  0  0
 42 43  1  0  0  0
 42 66  1  0  0  0
 42114  1  0  0  0
 42115  1  0  0  0
 43 44  1  0  0  0
 44116  1  0  0  0
 45 46  2  0  0  0
 45117  1  0  0  0
 46118  1  0  0  0
 47119  1  0  0  0
 47120  1  0  0  0
 48 56  1  0  0  0
 48 65  1  0  0  0
 48121  1  0  0  0
 49 50  1  0  0  0
 49 53  1  0  0  0
 49 64  1  0  0  0
 49122  1  0  0  0
 50 51  1  0  0  0
 50123  1  0  0  0
 50124  1  0  0  0
 51 52  1  0  0  0
 51125  1  0  0  0
 51126  1  0  0  0
 52127  1  0  0  0
 52128  1  0  0  0
 53 54  1  0  0  0
 54 55  2  0  0  0
 54129  1  0  0  0
 55 57  1  0  0  0
 55130  1  0  0  0
 56 69  2  0  0  0
 57 58  2  0  0  0
 57131  1  0  0  0
 58132  1  0  0  0
 59 60  1  0  0  0
 59 61  1  0  0  0
 59 62  1  0  0  0
 60133  1  0  0  0
 60134  1  0  0  0
 60135  1  0  0  0
 61136  1  0  0  0
 61137  1  0  0  0
 61138  1  0  0  0
 62139  1  0  0  0
 62140  1  0  0  0
 62141  1  0  0  0
 63 65  1  0  0  0
 63142  1  0  0  0
 63143  1  0  0  0
 63144  1  0  0  0
 64145  1  0  0  0
 65146  1  0  0  0
 68 81  1  0  0  0
 71 73  2  0  0  0
 71 75  1  0  0  0
 71147  1  0  0  0
 72 74  1  0  0  0
 72 75  2  0  0  0
 72148  1  0  0  0
 73 76  1  0  0  0
 73149  1  0  0  0
 74 76  2  0  0  0
 74150  1  0  0  0
 75 82  1  0  0  0
 76 84  1  0  0  0
 77 78  1  0  0  0
 77 79  1  0  0  0
 77 81  2  0  0  0
 78 80  2  0  0  0
 78 83  1  0  0  0
 79 84  1  0  0  0
 79 87  2  0  0  0
 80151  1  0  0  0
 80152  1  0  0  0
 81153  1  0  0  0
 82 85  1  0  0  0
 82 86  2  0  0  0
 83 84  1  0  0  0
 83154  1  0  0  0
 83155  1  0  0  0
 85156  1  0  0  0
 86157  1  0  0  0
 86158  1  0  0  0
M  CHG  1  86   1
M  ISO  4   1 100  68 101  81 101  85 100
M  END
> <chiral flag>
0

> <version>
0

> <s_m_source_file>
/data/baiqing/PycharmProjects/Reinvent-master-3.2/result/LINK_invent/BTK/process_docking_weight1_custom_product_contain_oxygen_bond_distance_aromatic_linkinvent_7_9_3/rearranged_h_0080.sdf

> <i_m_source_file_index>
5

> <r_mmod_Potential_Energy-OPLS-2005>
-52.2127952575684

> <r_mmod_Stretch_Energy-OPLS-2005>
55.5374908447266

> <r_mmod_Bend_Energy-OPLS-2005>
176.680130004883

> <r_mmod_Torsional_Energy-OPLS-2005>
289.466186523438

> <r_mmod_Improper_Torsional_Energy-OPLS-2005>
8.27873420715332

> <r_mmod_Van_der_Waal_Energy-OPLS-2005>
177.436859130859

> <r_mmod_Electrostatic_Energy-OPLS-2005>
-344.517517089844

> <r_mmod_Solvation_Energy-OPLS-2005>
-439.6611328125

> <b_mmod_Minimization_Converged-OPLS-2005>
0

> <r_mmod_RMS_Derivative-OPLS-2005>
5.19637107849121

$$$$
5
                    3D
 Structure written by MMmdl.
155163  0  0  1  0            999 V2000
  -30.6544  -14.5211   20.5251 C   0  0  0  0  0  0
  -30.4316  -12.3223   19.4343 C   0  0  0  0  0  0
  -29.5043  -12.5013   18.2138 C   0  0  0  0  0  0
  -28.0287  -12.3412   18.6287 C   0  0  0  0  0  0
  -27.6611  -13.1984   19.8682 C   0  0  2  0  0  0
  -28.7000  -12.9969   20.9956 C   0  0  0  0  0  0
  -25.2583  -13.8110   20.5662 C   0  0  0  0  0  0
  -24.1821  -13.0409   20.9160 C   0  0  0  0  0  0
  -24.6369  -11.6875   20.8705 C   0  0  0  0  0  0
  -23.9014  -10.4284   21.0391 C   0  0  0  0  0  0
  -24.3578   -9.4204   21.9178 C   0  0  0  0  0  0
  -23.6268   -8.2234   22.0754 C   0  0  0  0  0  0
  -22.4251   -8.0257   21.3548 C   0  0  0  0  0  0
  -21.9863   -9.0224   20.4654 C   0  0  0  0  0  0
  -22.7184  -10.2109   20.3052 C   0  0  0  0  0  0
  -21.6844   -6.0712   22.5283 C   0  0  0  0  0  0
  -21.4014   -6.5619   23.8220 C   0  0  0  0  0  0
  -21.3670   -5.6766   24.9181 C   0  0  0  0  0  0
  -21.6049   -4.3029   24.7228 C   0  0  0  0  0  0
  -21.8822   -3.8129   23.4348 C   0  0  0  0  0  0
  -21.9193   -4.6944   22.3411 C   0  0  0  0  0  0
  -22.7867  -13.5245   21.1837 C   0  0  0  0  0  0
  -22.1668   -4.2135   21.0993 F   0  0  0  0  0  0
  -21.5626   -3.4528   25.7746 F   0  0  0  0  0  0
  -30.0291  -13.3125   20.4478 N   0  0  0  0  0  0
  -26.3005  -12.9275   20.3291 N   0  0  0  0  0  0
  -25.9290  -11.6444   20.5693 N   0  0  0  0  0  0
  -22.0477  -12.8273   22.0391 N   0  0  0  0  0  0
  -25.4283  -15.1833   20.4162 N   0  0  0  0  0  0
  -31.7872  -14.7133   20.0743 O   0  0  0  0  0  0
  -21.6624   -6.8855   21.4246 O   0  0  0  0  0  0
  -22.3589  -14.5577   20.6700 O   0  0  0  0  0  0
  -24.6113  -31.8684   23.2111 C   0  0  0  0  0  0
  -25.9010  -32.4832   23.8381 C   0  0  1  0  0  0
  -27.2376  -27.4368   20.0740 C   0  0  0  0  0  0
  -25.5868  -33.8625   24.2326 N   0  0  0  0  0  0
  -23.3975  -30.4891   21.5553 C   0  0  2  0  0  0
  -24.8444  -28.9590   20.1099 C   0  0  0  0  0  0
  -22.7386  -29.4628   22.5041 C   0  0  0  0  0  0
  -18.0246  -28.1360   22.8498 C   0  0  0  0  0  0
  -24.1490  -36.7307   23.2647 C   0  0  0  0  0  0
  -25.9260  -30.8367   21.3589 C   0  0  0  0  0  0
  -26.0062  -29.4724   20.6989 C   0  0  0  0  0  0
  -27.2022  -28.7164   20.6798 C   0  0  0  0  0  0
  -26.0515  -26.9334   19.4925 C   0  0  0  0  0  0
  -24.8625  -27.6894   19.5058 C   0  0  0  0  0  0
  -23.6021  -29.8213   20.1690 C   0  0  0  0  0  0
  -25.4114  -36.3119   24.0344 C   0  0  1  0  0  0
  -20.5838  -28.3618   23.1367 C   0  0  2  0  0  0
  -20.6743  -26.9360   22.5447 C   0  0  0  0  0  0
  -19.5731  -26.6369   21.5232 C   0  0  0  0  0  0
  -18.1899  -26.7909   22.1628 C   0  0  0  0  0  0
  -19.1499  -28.8811   23.2920 C   0  0  0  0  0  0
  -18.9429  -30.1429   23.8907 C   0  0  0  0  0  0
  -17.6434  -30.6575   24.0558 C   0  0  0  0  0  0
  -25.9028  -34.9482   23.5145 C   0  0  0  0  0  0
  -16.5322  -29.9074   23.6332 C   0  0  0  0  0  0
  -16.7237  -28.6493   23.0348 C   0  0  0  0  0  0
  -26.4456  -31.6607   25.0693 C   0  0  0  0  0  0
  -25.3741  -31.3694   26.1460 C   0  0  0  0  0  0
  -27.0295  -30.3065   24.6049 C   0  0  0  0  0  0
  -27.6046  -32.4322   25.7427 C   0  0  0  0  0  0
  -27.5577  -37.1807   24.8470 C   0  0  0  0  0  0
  -21.4115  -29.2992   22.3787 N   0  0  0  0  0  0
  -26.4304  -37.3794   23.9398 N   0  0  0  0  0  0
  -24.6639  -31.0770   22.1020 N   0  0  0  0  0  0
  -23.4186  -28.8179   23.3062 O   0  0  0  0  0  0
  -28.3974  -26.6884   20.1634 O   0  0  0  0  0  0
  -26.5605  -34.8930   22.4706 O   0  0  0  0  0  0
  -23.5310  -32.1429   23.7520 O   0  0  0  0  0  0
  -30.1033  -19.3118   20.7771 C   0  0  0  0  0  0
  -30.1430  -17.9934   21.3062 C   0  0  0  0  0  0
  -29.4510  -18.4056   18.6224 C   0  0  0  0  0  0
  -29.7730  -19.5348   19.4170 C   0  0  0  0  0  0
  -29.8896  -16.8653   20.4877 C   0  0  0  0  0  0
  -29.5142  -17.0949   19.1417 C   0  0  0  0  0  0
  -29.8180  -20.8761   18.7769 C   0  0  0  0  0  0
  -28.8290  -24.4998   19.6872 C   0  0  0  0  0  0
  -29.2750  -23.3456   18.7804 C   0  0  0  0  0  0
  -28.7266  -24.1870   21.1809 C   0  0  0  0  0  0
  -28.5653  -25.6645   19.1955 N   0  0  0  0  0  0
  -29.9146  -15.5364   21.0229 N   0  0  0  0  0  0
  -29.3461  -22.0092   19.3671 N   0  0  0  0  0  0
  -30.3655  -20.9191   17.5561 N   0  3  0  0  0  0
  -29.5862  -23.5471   17.5949 O   0  0  0  0  0  0
  -29.1834  -16.0534   18.3416 F   0  0  0  0  0  0
  -31.4773  -12.4275   19.1363 H   0  0  0  0  0  0
  -30.3384  -11.3136   19.8367 H   0  0  0  0  0  0
  -29.7564  -11.7761   17.4393 H   0  0  0  0  0  0
  -29.6577  -13.4854   17.7708 H   0  0  0  0  0  0
  -27.8659  -11.2871   18.8533 H   0  0  0  0  0  0
  -27.3719  -12.5803   17.7924 H   0  0  0  0  0  0
  -27.6999  -14.2409   19.5527 H   0  0  0  0  0  0
  -28.6836  -11.9614   21.3408 H   0  0  0  0  0  0
  -28.4532  -13.5995   21.8699 H   0  0  0  0  0  0
  -25.2720   -9.5683   22.4746 H   0  0  0  0  0  0
  -23.9976   -7.4623   22.7467 H   0  0  0  0  0  0
  -21.0789   -8.8746   19.8965 H   0  0  0  0  0  0
  -22.3638  -10.9644   19.6161 H   0  0  0  0  0  0
  -21.2010   -7.6126   23.9718 H   0  0  0  0  0  0
  -21.1491   -6.0501   25.9083 H   0  0  0  0  0  0
  -22.0595   -2.7588   23.2859 H   0  0  0  0  0  0
  -22.4061  -11.9949   22.4824 H   0  0  0  0  0  0
  -21.1119  -13.1381   22.2593 H   0  0  0  0  0  0
  -24.6525  -15.8258   20.5341 H   0  0  0  0  0  0
  -26.2681  -15.6329   20.0757 H   0  0  0  0  0  0
  -26.7062  -32.5560   23.1125 H   0  0  0  0  0  0
  -24.9981  -33.9792   25.0452 H   0  0  0  0  0  0
  -22.6834  -31.3043   21.4209 H   0  0  0  0  0  0
  -23.3750  -35.9641   23.3355 H   0  0  0  0  0  0
  -24.3572  -36.8871   22.2047 H   0  0  0  0  0  0
  -23.7253  -37.6530   23.6631 H   0  0  0  0  0  0
  -26.0315  -31.6086   20.5944 H   0  0  0  0  0  0
  -26.8153  -30.8934   21.9749 H   0  0  0  0  0  0
  -28.0959  -29.1070   21.1462 H   0  0  0  0  0  0
  -26.0288  -25.9518   19.0420 H   0  0  0  0  0  0
  -23.9632  -27.2841   19.0628 H   0  0  0  0  0  0
  -23.6971  -30.5982   19.4098 H   0  0  0  0  0  0
  -22.7279  -29.2338   19.8815 H   0  0  0  0  0  0
  -25.1299  -36.1989   25.0838 H   0  0  0  0  0  0
  -20.9900  -28.3158   24.1504 H   0  0  0  0  0  0
  -20.5662  -26.2195   23.3607 H   0  0  0  0  0  0
  -21.6615  -26.7424   22.1235 H   0  0  0  0  0  0
  -19.6894  -25.6293   21.1231 H   0  0  0  0  0  0
  -19.6697  -27.3207   20.6786 H   0  0  0  0  0  0
  -17.4183  -26.6663   21.4015 H   0  0  0  0  0  0
  -18.0282  -26.0042   22.9011 H   0  0  0  0  0  0
  -19.7906  -30.7242   24.2281 H   0  0  0  0  0  0
  -17.4989  -31.6265   24.5139 H   0  0  0  0  0  0
  -15.5322  -30.2977   23.7666 H   0  0  0  0  0  0
  -15.8629  -28.0825   22.7059 H   0  0  0  0  0  0
  -24.5879  -30.7090   25.7786 H   0  0  0  0  0  0
  -24.8971  -32.2849   26.4971 H   0  0  0  0  0  0
  -25.8097  -30.8795   27.0179 H   0  0  0  0  0  0
  -26.2829  -29.6794   24.1168 H   0  0  0  0  0  0
  -27.4164  -29.7321   25.4474 H   0  0  0  0  0  0
  -27.8607  -30.4403   23.9126 H   0  0  0  0  0  0
  -27.2684  -33.3606   26.2049 H   0  0  0  0  0  0
  -28.3804  -32.6912   25.0211 H   0  0  0  0  0  0
  -28.0775  -31.8425   26.5288 H   0  0  0  0  0  0
  -28.2645  -38.0060   24.7484 H   0  0  0  0  0  0
  -28.1027  -36.2591   24.6354 H   0  0  0  0  0  0
  -27.2277  -37.1529   25.8872 H   0  0  0  0  0  0
  -20.9267  -29.8682   21.6995 H   0  0  0  0  0  0
  -26.0205  -38.2878   24.1389 H   0  0  0  0  0  0
  -30.3538  -20.1414   21.4237 H   0  0  0  0  0  0
  -30.3883  -17.8509   22.3487 H   0  0  0  0  0  0
  -29.1571  -18.5309   17.5900 H   0  0  0  0  0  0
  -29.5671  -23.5784   21.5142 H   0  0  0  0  0  0
  -27.7969  -23.6553   21.3840 H   0  0  0  0  0  0
  -28.7334  -25.0831   21.7980 H   0  0  0  0  0  0
  -29.0802  -15.2588   21.5143 H   0  0  0  0  0  0
  -29.0213  -21.8426   20.3047 H   0  0  0  0  0  0
  -30.7455  -20.0893   17.1291 H   0  0  0  0  0  0
  -30.4047  -21.8074   17.0689 H   0  0  0  0  0  0
  1 25  1  0  0  0
  1 30  2  0  0  0
  1 82  1  0  0  0
  2  3  1  0  0  0
  2 25  1  0  0  0
  2 87  1  0  0  0
  2 88  1  0  0  0
  3  4  1  0  0  0
  3 89  1  0  0  0
  3 90  1  0  0  0
  4  5  1  0  0  0
  4 91  1  0  0  0
  4 92  1  0  0  0
  5  6  1  0  0  0
  5 26  1  0  0  0
  5 93  1  0  0  0
  6 25  1  0  0  0
  6 94  1  0  0  0
  6 95  1  0  0  0
  7  8  2  0  0  0
  7 26  1  0  0  0
  7 29  1  0  0  0
  8  9  1  0  0  0
  8 22  1  0  0  0
  9 10  1  0  0  0
  9 27  2  0  0  0
 10 11  2  0  0  0
 10 15  1  0  0  0
 11 12  1  0  0  0
 11 96  1  0  0  0
 12 13  2  0  0  0
 12 97  1  0  0  0
 13 14  1  0  0  0
 13 31  1  0  0  0
 14 15  2  0  0  0
 14 98  1  0  0  0
 15 99  1  0  0  0
 16 17  2  0  0  0
 16 21  1  0  0  0
 16 31  1  0  0  0
 17 18  1  0  0  0
 17100  1  0  0  0
 18 19  2  0  0  0
 18101  1  0  0  0
 19 20  1  0  0  0
 19 24  1  0  0  0
 20 21  2  0  0  0
 20102  1  0  0  0
 21 23  1  0  0  0
 22 28  1  0  0  0
 22 32  2  0  0  0
 26 27  1  0  0  0
 28103  1  0  0  0
 28104  1  0  0  0
 29105  1  0  0  0
 29106  1  0  0  0
 33 34  1  0  0  0
 33 66  1  0  0  0
 33 70  2  0  0  0
 34 36  1  0  0  0
 34 59  1  0  0  0
 34107  1  0  0  0
 35 44  2  0  0  0
 35 45  1  0  0  0
 35 68  1  0  0  0
 36 56  1  0  0  0
 36108  1  0  0  0
 37 39  1  0  0  0
 37 47  1  0  0  0
 37 66  1  0  0  0
 37109  1  0  0  0
 38 43  2  0  0  0
 38 46  1  0  0  0
 38 47  1  0  0  0
 39 64  1  0  0  0
 39 67  2  0  0  0
 40 52  1  0  0  0
 40 53  2  0  0  0
 40 58  1  0  0  0
 41110  1  0  0  0
 41111  1  0  0  0
 41112  1  0  0  0
 41 48  1  0  0  0
 42 43  1  0  0  0
 42 66  1  0  0  0
 42113  1  0  0  0
 42114  1  0  0  0
 43 44  1  0  0  0
 44115  1  0  0  0
 45 46  2  0  0  0
 45116  1  0  0  0
 46117  1  0  0  0
 47118  1  0  0  0
 47119  1  0  0  0
 48 56  1  0  0  0
 48 65  1  0  0  0
 48120  1  0  0  0
 49 50  1  0  0  0
 49 53  1  0  0  0
 49 64  1  0  0  0
 49121  1  0  0  0
 50 51  1  0  0  0
 50122  1  0  0  0
 50123  1  0  0  0
 51 52  1  0  0  0
 51124  1  0  0  0
 51125  1  0  0  0
 52126  1  0  0  0
 52127  1  0  0  0
 53 54  1  0  0  0
 54 55  2  0  0  0
 54128  1  0  0  0
 55 57  1  0  0  0
 55129  1  0  0  0
 56 69  2  0  0  0
 57 58  2  0  0  0
 57130  1  0  0  0
 58131  1  0  0  0
 59 60  1  0  0  0
 59 61  1  0  0  0
 59 62  1  0  0  0
 60132  1  0  0  0
 60133  1  0  0  0
 60134  1  0  0  0
 61135  1  0  0  0
 61136  1  0  0  0
 61137  1  0  0  0
 62138  1  0  0  0
 62139  1  0  0  0
 62140  1  0  0  0
 63 65  1  0  0  0
 63141  1  0  0  0
 63142  1  0  0  0
 63143  1  0  0  0
 64144  1  0  0  0
 65145  1  0  0  0
 68 81  1  0  0  0
 71 72  2  0  0  0
 71 74  1  0  0  0
 71146  1  0  0  0
 72 75  1  0  0  0
 72147  1  0  0  0
 73 74  2  0  0  0
 73 76  1  0  0  0
 73148  1  0  0  0
 74 77  1  0  0  0
 75 76  2  0  0  0
 75 82  1  0  0  0
 76 86  1  0  0  0
 77 83  1  0  0  0
 77 84  2  0  0  0
 78 79  1  0  0  0
 78 80  1  0  0  0
 78 81  2  0  0  0
 79 83  1  0  0  0
 79 85  2  0  0  0
 80149  1  0  0  0
 80150  1  0  0  0
 80151  1  0  0  0
 82152  1  0  0  0
 83153  1  0  0  0
 84154  1  0  0  0
 84155  1  0  0  0
M  CHG  1  84   1
M  ISO  4   1 100  68 101  81 101  82 100
M  END
> <chiral flag>
0

> <version>
0

> <s_m_source_file>
/data/baiqing/PycharmProjects/Reinvent-master-3.2/result/LINK_invent/BTK/process_docking_weight1_custom_product_contain_oxygen_bond_distance_aromatic_linkinvent_7_9_3/rearranged_h_0080.sdf

> <i_m_source_file_index>
6

> <r_mmod_Potential_Energy-OPLS-2005>
-379.527954101562

> <r_mmod_Stretch_Energy-OPLS-2005>
46.9045448303223

> <r_mmod_Bend_Energy-OPLS-2005>
114.297859191895

> <r_mmod_Torsional_Energy-OPLS-2005>
245.905517578125

> <r_mmod_Improper_Torsional_Energy-OPLS-2005>
5.38304567337036

> <r_mmod_Van_der_Waal_Energy-OPLS-2005>
171.626266479492

> <r_mmod_Electrostatic_Energy-OPLS-2005>
-488.747009277344

> <r_mmod_Solvation_Energy-OPLS-2005>
-493.474182128906

> <b_mmod_Minimization_Converged-OPLS-2005>
0

> <r_mmod_RMS_Derivative-OPLS-2005>
2.97947859764099

$$$$
6
                    3D
 Structure written by MMmdl.
157166  0  0  1  0            999 V2000
  -30.6149  -14.7495   20.5447 C   0  0  0  0  0  0
  -30.4299  -12.4771   19.4777 C   0  0  0  0  0  0
  -29.5112  -12.5404   18.2371 C   0  0  0  0  0  0
  -28.0379  -12.3427   18.6419 C   0  0  0  0  0  0
  -27.6401  -13.2293   19.8496 C   0  0  2  0  0  0
  -28.6734  -13.1282   20.9866 C   0  0  0  0  0  0
  -25.2501  -13.8190   20.5670 C   0  0  0  0  0  0
  -24.1792  -13.0440   20.9189 C   0  0  0  0  0  0
  -24.6380  -11.6914   20.8724 C   0  0  0  0  0  0
  -23.9058  -10.4298   21.0398 C   0  0  0  0  0  0
  -24.3619   -9.4214   21.9171 C   0  0  0  0  0  0
  -23.6298   -8.2251   22.0743 C   0  0  0  0  0  0
  -22.4273   -8.0290   21.3542 C   0  0  0  0  0  0
  -21.9907   -9.0258   20.4640 C   0  0  0  0  0  0
  -22.7232  -10.2136   20.3047 C   0  0  0  0  0  0
  -21.6857   -6.0744   22.5287 C   0  0  0  0  0  0
  -21.4013   -6.5641   23.8222 C   0  0  0  0  0  0
  -21.3659   -5.6788   24.9179 C   0  0  0  0  0  0
  -21.6047   -4.3054   24.7225 C   0  0  0  0  0  0
  -21.8815   -3.8153   23.4346 C   0  0  0  0  0  0
  -21.9195   -4.6973   22.3402 C   0  0  0  0  0  0
  -22.7816  -13.5226   21.1875 C   0  0  0  0  0  0
  -22.1661   -4.2155   21.0977 F   0  0  0  0  0  0
  -21.5630   -3.4537   25.7740 F   0  0  0  0  0  0
  -29.9839  -13.5190   20.4386 N   0  0  0  0  0  0
  -26.2911  -12.9387   20.3224 N   0  0  0  0  0  0
  -25.9303  -11.6532   20.5705 N   0  0  0  0  0  0
  -22.0475  -12.8211   22.0434 N   0  0  0  0  0  0
  -25.4210  -15.1917   20.4114 N   0  0  0  0  0  0
  -31.7324  -14.8943   20.0366 O   0  0  0  0  0  0
  -21.6643   -6.8885   21.4244 O   0  0  0  0  0  0
  -22.3499  -14.5534   20.6732 O   0  0  0  0  0  0
  -24.6335  -31.8545   23.1966 C   0  0  0  0  0  0
  -25.9156  -32.4748   23.8321 C   0  0  1  0  0  0
  -27.2212  -27.2501   20.1115 C   0  0  0  0  0  0
  -25.5948  -33.8556   24.2243 N   0  0  0  0  0  0
  -23.4316  -30.4782   21.5388 C   0  0  2  0  0  0
  -24.8809  -28.9270   20.1038 C   0  0  0  0  0  0
  -22.7514  -29.4619   22.4880 C   0  0  0  0  0  0
  -18.0297  -28.1411   22.8480 C   0  0  0  0  0  0
  -24.1495  -36.7269   23.2639 C   0  0  0  0  0  0
  -25.9809  -30.7604   21.3829 C   0  0  0  0  0  0
  -26.0541  -29.3841   20.7186 C   0  0  0  0  0  0
  -27.2260  -28.5556   20.7168 C   0  0  0  0  0  0
  -26.0186  -26.8630   19.4779 C   0  0  0  0  0  0
  -24.8692  -27.6750   19.4729 C   0  0  0  0  0  0
  -23.6520  -29.8145   20.1543 C   0  0  0  0  0  0
  -25.4127  -36.3063   24.0318 C   0  0  1  0  0  0
  -20.5904  -28.3736   23.1257 C   0  0  2  0  0  0
  -20.6782  -26.9445   22.5433 C   0  0  0  0  0  0
  -19.5774  -26.6400   21.5222 C   0  0  0  0  0  0
  -18.1937  -26.7962   22.1601 C   0  0  0  0  0  0
  -19.1551  -28.8887   23.2869 C   0  0  0  0  0  0
  -18.9474  -30.1477   23.8915 C   0  0  0  0  0  0
  -17.6473  -30.6607   24.0579 C   0  0  0  0  0  0
  -25.9068  -34.9437   23.5079 C   0  0  0  0  0  0
  -16.5363  -29.9114   23.6334 C   0  0  0  0  0  0
  -16.7283  -28.6526   23.0362 C   0  0  0  0  0  0
  -26.4505  -31.6581   25.0724 C   0  0  0  0  0  0
  -25.3701  -31.3757   26.1423 C   0  0  0  0  0  0
  -27.0331  -30.2972   24.6257 C   0  0  0  0  0  0
  -27.6070  -32.4319   25.7477 C   0  0  0  0  0  0
  -27.5586  -37.1789   24.8458 C   0  0  0  0  0  0
  -21.4219  -29.3064   22.3618 N   0  0  0  0  0  0
  -26.4296  -37.3767   23.9403 N   0  0  0  0  0  0
  -24.7008  -31.0488   22.0958 N   0  0  0  0  0  0
  -23.4195  -28.8170   23.3002 O   0  0  0  0  0  0
  -28.2749  -26.3025   20.2044 O   0  0  0  0  0  0
  -26.5650  -34.8915   22.4653 O   0  0  0  0  0  0
  -23.5478  -32.1381   23.7245 O   0  0  0  0  0  0
  -29.2943  -19.6869   21.3342 C   0  0  0  0  0  0
  -29.5899  -19.0787   19.0586 C   0  0  0  0  0  0
  -29.5155  -18.3104   21.6957 C   0  0  0  0  0  0
  -29.8163  -17.7041   19.4213 C   0  0  0  0  0  0
  -29.3181  -20.1453   19.9871 C   0  0  0  0  0  0
  -29.7958  -17.2446   20.7679 C   0  0  0  0  0  0
  -28.6484  -23.9075   19.1650 C   0  0  0  0  0  0
  -28.7525  -23.2286   17.8907 C   0  0  0  0  0  0
  -28.8477  -22.7938   20.1692 C   0  0  0  0  0  0
  -28.5795  -23.7607   16.6641 C   0  0  0  0  0  0
  -28.4094  -25.2920   19.2188 C   0  0  0  0  0  0
  -29.0696  -21.7793   18.0771 C   0  0  0  0  0  0
  -29.9003  -15.6010   22.6655 C   0  0  0  0  0  0
  -29.0783  -21.5626   19.5222 N   0  0  0  0  0  0
  -29.9904  -15.8132   21.2101 N   0  0  0  0  0  0
  -28.8104  -22.9245   21.3972 O   0  0  0  0  0  0
  -31.4714  -12.6070   19.1795 H   0  0  0  0  0  0
  -30.3801  -11.4901   19.9406 H   0  0  0  0  0  0
  -29.8061  -11.7867   17.5061 H   0  0  0  0  0  0
  -29.6289  -13.5081   17.7454 H   0  0  0  0  0  0
  -27.9022  -11.2902   18.8946 H   0  0  0  0  0  0
  -27.3794  -12.5371   17.7943 H   0  0  0  0  0  0
  -27.6459  -14.2595   19.4919 H   0  0  0  0  0  0
  -28.7132  -12.1118   21.3805 H   0  0  0  0  0  0
  -28.3510  -13.7528   21.8158 H   0  0  0  0  0  0
  -25.2764   -9.5699   22.4740 H   0  0  0  0  0  0
  -24.0019   -7.4642   22.7458 H   0  0  0  0  0  0
  -21.0842   -8.8771   19.8949 H   0  0  0  0  0  0
  -22.3683  -10.9674   19.6161 H   0  0  0  0  0  0
  -21.1994   -7.6147   23.9726 H   0  0  0  0  0  0
  -21.1483   -6.0515   25.9081 H   0  0  0  0  0  0
  -22.0587   -2.7615   23.2845 H   0  0  0  0  0  0
  -22.4117  -11.9882   22.4821 H   0  0  0  0  0  0
  -21.1088  -13.1214   22.2649 H   0  0  0  0  0  0
  -24.6562  -15.8472   20.5304 H   0  0  0  0  0  0
  -26.2809  -15.6342   20.1119 H   0  0  0  0  0  0
  -26.7226  -32.5390   23.1065 H   0  0  0  0  0  0
  -25.0085  -33.9694   25.0380 H   0  0  0  0  0  0
  -22.7291  -31.3015   21.3915 H   0  0  0  0  0  0
  -23.3767  -35.9591   23.3305 H   0  0  0  0  0  0
  -24.3564  -36.8895   22.2049 H   0  0  0  0  0  0
  -23.7241  -37.6462   23.6673 H   0  0  0  0  0  0
  -26.1267  -31.5227   20.6162 H   0  0  0  0  0  0
  -26.8546  -30.8029   22.0219 H   0  0  0  0  0  0
  -28.1205  -28.8930   21.2212 H   0  0  0  0  0  0
  -25.9346  -25.8909   19.0145 H   0  0  0  0  0  0
  -23.9682  -27.3150   18.9943 H   0  0  0  0  0  0
  -23.7793  -30.5923   19.4003 H   0  0  0  0  0  0
  -22.7702  -29.2503   19.8455 H   0  0  0  0  0  0
  -25.1312  -36.1905   25.0811 H   0  0  0  0  0  0
  -21.0000  -28.3356   24.1379 H   0  0  0  0  0  0
  -20.5659  -26.2365   23.3654 H   0  0  0  0  0  0
  -21.6653  -26.7450   22.1263 H   0  0  0  0  0  0
  -19.6939  -25.6305   21.1265 H   0  0  0  0  0  0
  -19.6737  -27.3203   20.6745 H   0  0  0  0  0  0
  -17.4231  -26.6763   21.3974 H   0  0  0  0  0  0
  -18.0295  -26.0092   22.8973 H   0  0  0  0  0  0
  -19.7945  -30.7280   24.2311 H   0  0  0  0  0  0
  -17.5028  -31.6280   24.5193 H   0  0  0  0  0  0
  -15.5366  -30.3028   23.7639 H   0  0  0  0  0  0
  -15.8681  -28.0839   22.7091 H   0  0  0  0  0  0
  -24.6039  -30.6882   25.7811 H   0  0  0  0  0  0
  -24.8678  -32.2902   26.4594 H   0  0  0  0  0  0
  -25.8027  -30.9213   27.0343 H   0  0  0  0  0  0
  -26.2917  -29.6725   24.1253 H   0  0  0  0  0  0
  -27.3928  -29.7241   25.4810 H   0  0  0  0  0  0
  -27.8843  -30.4189   23.9552 H   0  0  0  0  0  0
  -27.2711  -33.3656   26.2004 H   0  0  0  0  0  0
  -28.3898  -32.6814   25.0301 H   0  0  0  0  0  0
  -28.0720  -31.8470   26.5424 H   0  0  0  0  0  0
  -28.2622  -38.0069   24.7481 H   0  0  0  0  0  0
  -28.1068  -36.2596   24.6315 H   0  0  0  0  0  0
  -27.2305  -37.1485   25.8865 H   0  0  0  0  0  0
  -20.9410  -29.8757   21.6789 H   0  0  0  0  0  0
  -26.0173  -38.2838   24.1422 H   0  0  0  0  0  0
  -29.0938  -20.3944   22.1268 H   0  0  0  0  0  0
  -29.6322  -19.2900   18.0002 H   0  0  0  0  0  0
  -29.4570  -18.0984   22.7519 H   0  0  0  0  0  0
  -30.0019  -16.9956   18.6271 H   0  0  0  0  0  0
  -28.3352  -24.7955   16.4832 H   0  0  0  0  0  0
  -28.6794  -23.1392   15.7853 H   0  0  0  0  0  0
  -28.3207  -25.8061   18.2762 H   0  0  0  0  0  0
  -30.0468  -21.5591   17.6461 H   0  0  0  0  0  0
  -28.3104  -21.1635   17.5930 H   0  0  0  0  0  0
  -28.9046  -15.8639   23.0256 H   0  0  0  0  0  0
  -30.6316  -16.2209   23.1851 H   0  0  0  0  0  0
  -30.0973  -14.5767   22.9889 H   0  0  0  0  0  0
  1 25  1  0  0  0
  1 30  2  0  0  0
  1 85  1  0  0  0
  2  3  1  0  0  0
  2 25  1  0  0  0
  2 87  1  0  0  0
  2 88  1  0  0  0
  3  4  1  0  0  0
  3 89  1  0  0  0
  3 90  1  0  0  0
  4  5  1  0  0  0
  4 91  1  0  0  0
  4 92  1  0  0  0
  5  6  1  0  0  0
  5 26  1  0  0  0
  5 93  1  0  0  0
  6 25  1  0  0  0
  6 94  1  0  0  0
  6 95  1  0  0  0
  7  8  2  0  0  0
  7 26  1  0  0  0
  7 29  1  0  0  0
  8  9  1  0  0  0
  8 22  1  0  0  0
  9 10  1  0  0  0
  9 27  2  0  0  0
 10 11  2  0  0  0
 10 15  1  0  0  0
 11 12  1  0  0  0
 11 96  1  0  0  0
 12 13  2  0  0  0
 12 97  1  0  0  0
 13 14  1  0  0  0
 13 31  1  0  0  0
 14 15  2  0  0  0
 14 98  1  0  0  0
 15 99  1  0  0  0
 16 17  2  0  0  0
 16 21  1  0  0  0
 16 31  1  0  0  0
 17 18  1  0  0  0
 17100  1  0  0  0
 18 19  2  0  0  0
 18101  1  0  0  0
 19 20  1  0  0  0
 19 24  1  0  0  0
 20 21  2  0  0  0
 20102  1  0  0  0
 21 23  1  0  0  0
 22 28  1  0  0  0
 22 32  2  0  0  0
 26 27  1  0  0  0
 28103  1  0  0  0
 28104  1  0  0  0
 29105  1  0  0  0
 29106  1  0  0  0
 33 34  1  0  0  0
 33 66  1  0  0  0
 33 70  2  0  0  0
 34 36  1  0  0  0
 34 59  1  0  0  0
 34107  1  0  0  0
 35 44  2  0  0  0
 35 45  1  0  0  0
 35 68  1  0  0  0
 36 56  1  0  0  0
 36108  1  0  0  0
 37 39  1  0  0  0
 37 47  1  0  0  0
 37 66  1  0  0  0
 37109  1  0  0  0
 38 43  2  0  0  0
 38 46  1  0  0  0
 38 47  1  0  0  0
 39 64  1  0  0  0
 39 67  2  0  0  0
 40 52  1  0  0  0
 40 53  2  0  0  0
 40 58  1  0  0  0
 41110  1  0  0  0
 41111  1  0  0  0
 41112  1  0  0  0
 41 48  1  0  0  0
 42 43  1  0  0  0
 42 66  1  0  0  0
 42113  1  0  0  0
 42114  1  0  0  0
 43 44  1  0  0  0
 44115  1  0  0  0
 45 46  2  0  0  0
 45116  1  0  0  0
 46117  1  0  0  0
 47118  1  0  0  0
 47119  1  0  0  0
 48 56  1  0  0  0
 48 65  1  0  0  0
 48120  1  0  0  0
 49 50  1  0  0  0
 49 53  1  0  0  0
 49 64  1  0  0  0
 49121  1  0  0  0
 50 51  1  0  0  0
 50122  1  0  0  0
 50123  1  0  0  0
 51 52  1  0  0  0
 51124  1  0  0  0
 51125  1  0  0  0
 52126  1  0  0  0
 52127  1  0  0  0
 53 54  1  0  0  0
 54 55  2  0  0  0
 54128  1  0  0  0
 55 57  1  0  0  0
 55129  1  0  0  0
 56 69  2  0  0  0
 57 58  2  0  0  0
 57130  1  0  0  0
 58131  1  0  0  0
 59 60  1  0  0  0
 59 61  1  0  0  0
 59 62  1  0  0  0
 60132  1  0  0  0
 60133  1  0  0  0
 60134  1  0  0  0
 61135  1  0  0  0
 61136  1  0  0  0
 61137  1  0  0  0
 62138  1  0  0  0
 62139  1  0  0  0
 62140  1  0  0  0
 63 65  1  0  0  0
 63141  1  0  0  0
 63142  1  0  0  0
 63143  1  0  0  0
 64144  1  0  0  0
 65145  1  0  0  0
 68 81  1  0  0  0
 71 73  2  0  0  0
 71 75  1  0  0  0
 71146  1  0  0  0
 72 74  1  0  0  0
 72 75  2  0  0  0
 72147  1  0  0  0
 73 76  1  0  0  0
 73148  1  0  0  0
 74 76  2  0  0  0
 74149  1  0  0  0
 75 84  1  0  0  0
 76 85  1  0  0  0
 77 78  1  0  0  0
 77 79  1  0  0  0
 77 81  2  0  0  0
 78 80  2  0  0  0
 78 82  1  0  0  0
 79 84  1  0  0  0
 79 86  2  0  0  0
 80150  1  0  0  0
 80151  1  0  0  0
 81152  1  0  0  0
 82 84  1  0  0  0
 82153  1  0  0  0
 82154  1  0  0  0
 83 85  1  0  0  0
 83155  1  0  0  0
 83156  1  0  0  0
 83157  1  0  0  0
M  ISO  4   1 100  68 101  81 101  85 100
M  END
> <chiral flag>
0

> <version>
0

> <s_m_source_file>
/data/baiqing/PycharmProjects/Reinvent-master-3.2/result/LINK_invent/BTK/process_docking_weight1_custom_product_contain_oxygen_bond_distance_aromatic_linkinvent_7_9_3/rearranged_h_0080.sdf

> <i_m_source_file_index>
7

> <r_mmod_Potential_Energy-OPLS-2005>
540.200317382812

> <r_mmod_Stretch_Energy-OPLS-2005>
142.81982421875

> <r_mmod_Bend_Energy-OPLS-2005>
273.100830078125

> <r_mmod_Torsional_Energy-OPLS-2005>
309.138122558594

> <r_mmod_Improper_Torsional_Energy-OPLS-2005>
3.11979627609253

> <r_mmod_Van_der_Waal_Energy-OPLS-2005>
157.832275390625

> <r_mmod_Electrostatic_Energy-OPLS-2005>
-233.877426147461

> <r_mmod_Solvation_Energy-OPLS-2005>
-204.976364135742

> <b_mmod_Minimization_Converged-OPLS-2005>
0

> <r_mmod_RMS_Derivative-OPLS-2005>
1.48940145969391

$$$$
7
                    3D
 Structure written by MMmdl.
154163  0  0  1  0            999 V2000
  -30.4381  -15.1173   20.3266 C   0  0  0  0  0  0
  -30.4393  -12.6817   19.5110 C   0  0  0  0  0  0
  -29.5271  -12.4831   18.2760 C   0  0  0  0  0  0
  -28.0666  -12.2330   18.7055 C   0  0  0  0  0  0
  -27.6139  -13.1795   19.8442 C   0  0  2  0  0  0
  -28.6595  -13.3484   20.9645 C   0  0  0  0  0  0
  -25.2484  -13.7913   20.5942 C   0  0  0  0  0  0
  -24.1736  -13.0276   20.9367 C   0  0  0  0  0  0
  -24.6291  -11.6754   20.8908 C   0  0  0  0  0  0
  -23.8964  -10.4200   21.0525 C   0  0  0  0  0  0
  -24.3537   -9.4107   21.9254 C   0  0  0  0  0  0
  -23.6214   -8.2149   22.0758 C   0  0  0  0  0  0
  -22.4189   -8.0228   21.3545 C   0  0  0  0  0  0
  -21.9847   -9.0203   20.4646 C   0  0  0  0  0  0
  -22.7180  -10.2073   20.3110 C   0  0  0  0  0  0
  -21.6793   -6.0718   22.5295 C   0  0  0  0  0  0
  -21.3970   -6.5626   23.8240 C   0  0  0  0  0  0
  -21.3651   -5.6786   24.9209 C   0  0  0  0  0  0
  -21.6044   -4.3053   24.7252 C   0  0  0  0  0  0
  -21.8811   -3.8136   23.4375 C   0  0  0  0  0  0
  -21.9181   -4.6951   22.3428 C   0  0  0  0  0  0
  -22.7772  -13.5154   21.1932 C   0  0  0  0  0  0
  -22.1655   -4.2147   21.1006 F   0  0  0  0  0  0
  -21.5647   -3.4524   25.7766 F   0  0  0  0  0  0
  -29.8850  -13.8205   20.3063 N   0  0  0  0  0  0
  -26.2824  -12.9026   20.3439 N   0  0  0  0  0  0
  -25.9198  -11.6259   20.5926 N   0  0  0  0  0  0
  -22.0302  -12.8250   22.0467 N   0  0  0  0  0  0
  -25.4148  -15.1642   20.4404 N   0  0  0  0  0  0
  -31.6743  -15.1450   20.2400 O   0  0  0  0  0  0
  -21.6556   -6.8838   21.4241 O   0  0  0  0  0  0
  -22.3553  -14.5497   20.6748 O   0  0  0  0  0  0
  -24.6530  -31.8230   23.1710 C   0  0  0  0  0  0
  -25.9265  -32.4574   23.8046 C   0  0  1  0  0  0
  -27.2063  -27.0085   20.1819 C   0  0  0  0  0  0
  -25.5957  -33.8380   24.1927 N   0  0  0  0  0  0
  -23.4521  -30.4253   21.5348 C   0  0  2  0  0  0
  -24.8987  -28.8222   20.1142 C   0  0  0  0  0  0
  -22.7601  -29.4337   22.4981 C   0  0  0  0  0  0
  -18.0261  -28.1390   22.8451 C   0  0  0  0  0  0
  -24.1490  -36.7164   23.2648 C   0  0  0  0  0  0
  -26.0100  -30.6466   21.3888 C   0  0  0  0  0  0
  -26.0788  -29.2491   20.7321 C   0  0  0  0  0  0
  -27.2335  -28.3676   20.7259 C   0  0  0  0  0  0
  -26.0020  -26.6916   19.5162 C   0  0  0  0  0  0
  -24.8810  -27.5622   19.4857 C   0  0  0  0  0  0
  -23.6736  -29.7341   20.1600 C   0  0  0  0  0  0
  -25.4168  -36.2959   24.0244 C   0  0  1  0  0  0
  -20.5851  -28.3603   23.1314 C   0  0  2  0  0  0
  -20.6690  -26.9299   22.5436 C   0  0  0  0  0  0
  -19.5708  -26.6339   21.5176 C   0  0  0  0  0  0
  -18.1917  -26.7909   22.1647 C   0  0  0  0  0  0
  -19.1543  -28.8865   23.2833 C   0  0  0  0  0  0
  -18.9509  -30.1495   23.8814 C   0  0  0  0  0  0
  -17.6515  -30.6633   24.0546 C   0  0  0  0  0  0
  -25.9163  -34.9356   23.4934 C   0  0  0  0  0  0
  -16.5381  -29.9122   23.6373 C   0  0  0  0  0  0
  -16.7242  -28.6552   23.0332 C   0  0  0  0  0  0
  -26.4568  -31.6612   25.0607 C   0  0  0  0  0  0
  -25.3792  -31.3761   26.1338 C   0  0  0  0  0  0
  -27.0498  -30.3009   24.6369 C   0  0  0  0  0  0
  -27.6054  -32.4506   25.7360 C   0  0  0  0  0  0
  -27.5560  -37.1754   24.8478 C   0  0  0  0  0  0
  -21.4309  -29.2905   22.3745 N   0  0  0  0  0  0
  -26.4278  -37.3717   23.9414 N   0  0  0  0  0  0
  -24.7253  -30.9930   22.0833 N   0  0  0  0  0  0
  -23.4166  -28.7975   23.3239 O   0  0  0  0  0  0
  -28.3240  -26.0698   20.2485 O   0  0  0  0  0  0
  -26.5808  -34.8935   22.4551 O   0  0  0  0  0  0
  -23.5691  -32.1081   23.7016 O   0  0  0  0  0  0
  -31.0917  -19.5385   21.7070 C   0  0  0  0  0  0
  -30.2697  -20.6255   21.3014 C   0  0  0  0  0  0
  -30.8674  -18.1940   21.3398 C   0  0  0  0  0  0
  -28.9152  -19.0337   20.1722 C   0  0  0  0  0  0
  -29.0895  -20.4971   20.5267 C   0  0  0  0  0  0
  -29.7814  -17.8357   20.5245 C   0  0  0  0  0  0
  -26.6876  -23.0813   20.7272 C   0  0  0  0  0  0
  -27.9568  -23.2992   20.3506 C   0  0  0  0  0  0
  -26.8044  -21.6668   20.5158 C   0  0  0  0  0  0
  -25.6115  -23.7755   21.1422 C   0  0  0  0  0  0
  -28.5739  -24.5792   20.1507 C   0  0  0  0  0  0
  -28.6758  -16.2403   19.0115 C   0  0  0  0  0  0
  -28.1830  -21.7666   20.3359 N   0  0  0  0  0  0
  -29.6340  -16.3323   20.1123 N   0  0  0  0  0  0
  -25.9660  -20.7808   20.5689 O   0  0  0  0  0  0
  -31.4650  -12.8748   19.1878 H   0  0  0  0  0  0
  -30.4808  -11.7753   20.1170 H   0  0  0  0  0  0
  -29.8937  -11.6414   17.6838 H   0  0  0  0  0  0
  -29.5836  -13.3564   17.6270 H   0  0  0  0  0  0
  -27.9882  -11.2001   19.0377 H   0  0  0  0  0  0
  -27.3973  -12.3271   17.8486 H   0  0  0  0  0  0
  -27.5093  -14.1202   19.3393 H   0  0  0  0  0  0
  -28.8264  -12.4214   21.5169 H   0  0  0  0  0  0
  -28.3209  -14.0855   21.6974 H   0  0  0  0  0  0
  -25.2645   -9.5580   22.4881 H   0  0  0  0  0  0
  -23.9925   -7.4494   22.7447 H   0  0  0  0  0  0
  -21.0806   -8.8730   19.8922 H   0  0  0  0  0  0
  -22.3644  -10.9658   19.6255 H   0  0  0  0  0  0
  -21.1923   -7.6121   23.9759 H   0  0  0  0  0  0
  -21.1483   -6.0501   25.9123 H   0  0  0  0  0  0
  -22.0594   -2.7589   23.2876 H   0  0  0  0  0  0
  -22.3760  -11.9922   22.5037 H   0  0  0  0  0  0
  -21.0886  -13.1348   22.2528 H   0  0  0  0  0  0
  -24.6385  -15.8070   20.5653 H   0  0  0  0  0  0
  -26.2769  -15.6137   20.1597 H   0  0  0  0  0  0
  -26.7309  -32.5028   23.0727 H   0  0  0  0  0  0
  -24.9938  -33.9350   24.9951 H   0  0  0  0  0  0
  -22.7556  -31.2486   21.3769 H   0  0  0  0  0  0
  -23.3779  -35.9456   23.3317 H   0  0  0  0  0  0
  -24.3544  -36.8808   22.2062 H   0  0  0  0  0  0
  -23.7215  -37.6334   23.6710 H   0  0  0  0  0  0
  -26.1817  -31.3832   20.5991 H   0  0  0  0  0  0
  -26.8582  -30.6752   22.0574 H   0  0  0  0  0  0
  -28.1530  -28.7078   21.1795 H   0  0  0  0  0  0
  -25.8990  -25.7139   19.0603 H   0  0  0  0  0  0
  -23.9714  -27.2185   19.0070 H   0  0  0  0  0  0
  -23.8132  -30.4906   19.3866 H   0  0  0  0  0  0
  -22.7764  -29.1821   19.8672 H   0  0  0  0  0  0
  -25.1393  -36.1671   25.0707 H   0  0  0  0  0  0
  -20.9811  -28.3067   24.1486 H   0  0  0  0  0  0
  -20.5539  -26.2170   23.3609 H   0  0  0  0  0  0
  -21.6571  -26.7317   22.1255 H   0  0  0  0  0  0
  -19.6795  -25.6216   21.1306 H   0  0  0  0  0  0
  -19.6661  -27.3109   20.6681 H   0  0  0  0  0  0
  -17.4108  -26.6594   21.4145 H   0  0  0  0  0  0
  -18.0392  -26.0093   22.9125 H   0  0  0  0  0  0
  -19.8012  -30.7323   24.2106 H   0  0  0  0  0  0
  -17.5109  -31.6314   24.5152 H   0  0  0  0  0  0
  -15.5413  -30.3032   23.7728 H   0  0  0  0  0  0
  -15.8629  -28.0900   22.6987 H   0  0  0  0  0  0
  -24.6065  -30.7006   25.7621 H   0  0  0  0  0  0
  -24.8931  -32.2951   26.4670 H   0  0  0  0  0  0
  -25.8237  -30.9031   27.0137 H   0  0  0  0  0  0
  -26.3271  -29.6814   24.1128 H   0  0  0  0  0  0
  -27.3697  -29.7277   25.5062 H   0  0  0  0  0  0
  -27.9307  -30.4126   24.0061 H   0  0  0  0  0  0
  -27.2610  -33.3878   26.1715 H   0  0  0  0  0  0
  -28.3987  -32.6954   25.0303 H   0  0  0  0  0  0
  -28.0624  -31.8863   26.5470 H   0  0  0  0  0  0
  -28.2599  -38.0047   24.7560 H   0  0  0  0  0  0
  -28.1071  -36.2587   24.6337 H   0  0  0  0  0  0
  -27.2262  -37.1414   25.8878 H   0  0  0  0  0  0
  -20.9614  -29.8580   21.6847 H   0  0  0  0  0  0
  -26.0122  -38.2723   24.1591 H   0  0  0  0  0  0
  -31.9335  -19.7365   22.3509 H   0  0  0  0  0  0
  -30.5459  -21.6008   21.6752 H   0  0  0  0  0  0
  -31.5561  -17.4389   21.6915 H   0  0  0  0  0  0
  -28.0243  -18.8266   19.5930 H   0  0  0  0  0  0
  -24.6963  -23.2664   21.4003 H   0  0  0  0  0  0
  -25.6456  -24.8462   21.2948 H   0  0  0  0  0  0
  -29.6150  -24.4843   19.8691 H   0  0  0  0  0  0
  -27.6661  -16.1937   19.4099 H   0  0  0  0  0  0
  -28.8676  -15.4130   18.3268 H   0  0  0  0  0  0
  -28.7182  -17.1191   18.3748 H   0  0  0  0  0  0
  1 25  1  0  0  0
  1 30  2  0  0  0
  1 84  1  0  0  0
  2  3  1  0  0  0
  2 25  1  0  0  0
  2 86  1  0  0  0
  2 87  1  0  0  0
  3  4  1  0  0  0
  3 88  1  0  0  0
  3 89  1  0  0  0
  4  5  1  0  0  0
  4 90  1  0  0  0
  4 91  1  0  0  0
  5  6  1  0  0  0
  5 26  1  0  0  0
  5 92  1  0  0  0
  6 25  1  0  0  0
  6 93  1  0  0  0
  6 94  1  0  0  0
  7  8  2  0  0  0
  7 26  1  0  0  0
  7 29  1  0  0  0
  8  9  1  0  0  0
  8 22  1  0  0  0
  9 10  1  0  0  0
  9 27  2  0  0  0
 10 11  2  0  0  0
 10 15  1  0  0  0
 11 12  1  0  0  0
 11 95  1  0  0  0
 12 13  2  0  0  0
 12 96  1  0  0  0
 13 14  1  0  0  0
 13 31  1  0  0  0
 14 15  2  0  0  0
 14 97  1  0  0  0
 15 98  1  0  0  0
 16 17  2  0  0  0
 16 21  1  0  0  0
 16 31  1  0  0  0
 17 18  1  0  0  0
 17 99  1  0  0  0
 18 19  2  0  0  0
 18100  1  0  0  0
 19 20  1  0  0  0
 19 24  1  0  0  0
 20 21  2  0  0  0
 20101  1  0  0  0
 21 23  1  0  0  0
 22 28  1  0  0  0
 22 32  2  0  0  0
 26 27  1  0  0  0
 28102  1  0  0  0
 28103  1  0  0  0
 29104  1  0  0  0
 29105  1  0  0  0
 33 34  1  0  0  0
 33 66  1  0  0  0
 33 70  2  0  0  0
 34 36  1  0  0  0
 34 59  1  0  0  0
 34106  1  0  0  0
 35 44  2  0  0  0
 35 45  1  0  0  0
 35 68  1  0  0  0
 36 56  1  0  0  0
 36107  1  0  0  0
 37 39  1  0  0  0
 37 47  1  0  0  0
 37 66  1  0  0  0
 37108  1  0  0  0
 38 43  2  0  0  0
 38 46  1  0  0  0
 38 47  1  0  0  0
 39 64  1  0  0  0
 39 67  2  0  0  0
 40 52  1  0  0  0
 40 53  2  0  0  0
 40 58  1  0  0  0
 41109  1  0  0  0
 41110  1  0  0  0
 41111  1  0  0  0
 41 48  1  0  0  0
 42 43  1  0  0  0
 42 66  1  0  0  0
 42112  1  0  0  0
 42113  1  0  0  0
 43 44  1  0  0  0
 44114  1  0  0  0
 45 46  2  0  0  0
 45115  1  0  0  0
 46116  1  0  0  0
 47117  1  0  0  0
 47118  1  0  0  0
 48 56  1  0  0  0
 48 65  1  0  0  0
 48119  1  0  0  0
 49 50  1  0  0  0
 49 53  1  0  0  0
 49 64  1  0  0  0
 49120  1  0  0  0
 50 51  1  0  0  0
 50121  1  0  0  0
 50122  1  0  0  0
 51 52  1  0  0  0
 51123  1  0  0  0
 51124  1  0  0  0
 52125  1  0  0  0
 52126  1  0  0  0
 53 54  1  0  0  0
 54 55  2  0  0  0
 54127  1  0  0  0
 55 57  1  0  0  0
 55128  1  0  0  0
 56 69  2  0  0  0
 57 58  2  0  0  0
 57129  1  0  0  0
 58130  1  0  0  0
 59 60  1  0  0  0
 59 61  1  0  0  0
 59 62  1  0  0  0
 60131  1  0  0  0
 60132  1  0  0  0
 60133  1  0  0  0
 61134  1  0  0  0
 61135  1  0  0  0
 61136  1  0  0  0
 62137  1  0  0  0
 62138  1  0  0  0
 62139  1  0  0  0
 63 65  1  0  0  0
 63140  1  0  0  0
 63141  1  0  0  0
 63142  1  0  0  0
 64143  1  0  0  0
 65144  1  0  0  0
 68 81  1  0  0  0
 71 72  2  0  0  0
 71 73  1  0  0  0
 71145  1  0  0  0
 72 75  1  0  0  0
 72146  1  0  0  0
 73 76  2  0  0  0
 73147  1  0  0  0
 74 75  2  0  0  0
 74 76  1  0  0  0
 74148  1  0  0  0
 75 83  1  0  0  0
 76 84  1  0  0  0
 77 78  1  0  0  0
 77 79  1  0  0  0
 77 80  2  0  0  0
 78 81  2  0  0  0
 78 83  1  0  0  0
 79 83  1  0  0  0
 79 85  2  0  0  0
 80149  1  0  0  0
 80150  1  0  0  0
 81151  1  0  0  0
 82 84  1  0  0  0
 82152  1  0  0  0
 82153  1  0  0  0
 82154  1  0  0  0
M  ISO  4   1 100  68 101  81 101  84 100
M  END
> <chiral flag>
0

> <version>
0

> <s_m_source_file>
/data/baiqing/PycharmProjects/Reinvent-master-3.2/result/LINK_invent/BTK/process_docking_weight1_custom_product_contain_oxygen_bond_distance_aromatic_linkinvent_7_9_3/rearranged_h_0080.sdf

> <i_m_source_file_index>
8

> <r_mmod_Potential_Energy-OPLS-2005>
1079.19177246094

> <r_mmod_Stretch_Energy-OPLS-2005>
372.133148193359

> <r_mmod_Bend_Energy-OPLS-2005>
421.143310546875

> <r_mmod_Torsional_Energy-OPLS-2005>
302.250061035156

> <r_mmod_Improper_Torsional_Energy-OPLS-2005>
10.7563123703003

> <r_mmod_Van_der_Waal_Energy-OPLS-2005>
133.768051147461

> <r_mmod_Electrostatic_Energy-OPLS-2005>
-286.889801025391

> <r_mmod_Solvation_Energy-OPLS-2005>
-195.940948486328

> <b_mmod_Minimization_Converged-OPLS-2005>
0

> <r_mmod_RMS_Derivative-OPLS-2005>
10.3374462127686

$$$$
8
                    3D
 Structure written by MMmdl.
154163  0  0  1  0            999 V2000
  -30.5739  -14.7968   20.5105 C   0  0  0  0  0  0
  -30.4528  -12.5014   19.4815 C   0  0  0  0  0  0
  -29.5228  -12.5464   18.2435 C   0  0  0  0  0  0
  -28.0442  -12.3563   18.6419 C   0  0  0  0  0  0
  -27.6502  -13.2246   19.8646 C   0  0  2  0  0  0
  -28.6928  -13.0787   20.9898 C   0  0  0  0  0  0
  -25.2537  -13.8173   20.5684 C   0  0  0  0  0  0
  -24.1812  -13.0428   20.9173 C   0  0  0  0  0  0
  -24.6398  -11.6903   20.8723 C   0  0  0  0  0  0
  -23.9070  -10.4286   21.0399 C   0  0  0  0  0  0
  -24.3620   -9.4205   21.9179 C   0  0  0  0  0  0
  -23.6293   -8.2242   22.0754 C   0  0  0  0  0  0
  -22.4275   -8.0280   21.3545 C   0  0  0  0  0  0
  -21.9910   -9.0253   20.4646 C   0  0  0  0  0  0
  -22.7241  -10.2129   20.3051 C   0  0  0  0  0  0
  -21.6854   -6.0734   22.5278 C   0  0  0  0  0  0
  -21.4014   -6.5640   23.8212 C   0  0  0  0  0  0
  -21.3658   -5.6794   24.9173 C   0  0  0  0  0  0
  -21.6044   -4.3056   24.7228 C   0  0  0  0  0  0
  -21.8821   -3.8148   23.4350 C   0  0  0  0  0  0
  -21.9193   -4.6963   22.3405 C   0  0  0  0  0  0
  -22.7838  -13.5217   21.1849 C   0  0  0  0  0  0
  -22.1662   -4.2146   21.0982 F   0  0  0  0  0  0
  -21.5630   -3.4542   25.7742 F   0  0  0  0  0  0
  -29.9910  -13.5309   20.4524 N   0  0  0  0  0  0
  -26.2972  -12.9365   20.3309 N   0  0  0  0  0  0
  -25.9326  -11.6508   20.5724 N   0  0  0  0  0  0
  -22.0489  -12.8209   22.0413 N   0  0  0  0  0  0
  -25.4238  -15.1899   20.4130 N   0  0  0  0  0  0
  -31.7013  -14.9539   20.0250 O   0  0  0  0  0  0
  -21.6640   -6.8878   21.4242 O   0  0  0  0  0  0
  -22.3517  -14.5526   20.6707 O   0  0  0  0  0  0
  -24.6344  -31.8517   23.1944 C   0  0  0  0  0  0
  -25.9161  -32.4731   23.8305 C   0  0  1  0  0  0
  -27.2297  -27.2428   20.1395 C   0  0  0  0  0  0
  -25.5950  -33.8533   24.2235 N   0  0  0  0  0  0
  -23.4339  -30.4716   21.5377 C   0  0  2  0  0  0
  -24.8860  -28.9139   20.1077 C   0  0  0  0  0  0
  -22.7524  -29.4577   22.4892 C   0  0  0  0  0  0
  -18.0296  -28.1391   22.8480 C   0  0  0  0  0  0
  -24.1486  -36.7258   23.2636 C   0  0  0  0  0  0
  -25.9805  -30.7623   21.3751 C   0  0  0  0  0  0
  -26.0584  -29.3840   20.7142 C   0  0  0  0  0  0
  -27.2370  -28.5661   20.7098 C   0  0  0  0  0  0
  -26.0375  -26.8451   19.5024 C   0  0  0  0  0  0
  -24.8821  -27.6545   19.4860 C   0  0  0  0  0  0
  -23.6551  -29.8017   20.1552 C   0  0  0  0  0  0
  -25.4113  -36.3050   24.0325 C   0  0  1  0  0  0
  -20.5903  -28.3701   23.1258 C   0  0  2  0  0  0
  -20.6780  -26.9415   22.5407 C   0  0  0  0  0  0
  -19.5757  -26.6385   21.5210 C   0  0  0  0  0  0
  -18.1938  -26.7935   22.1620 C   0  0  0  0  0  0
  -19.1552  -28.8865   23.2863 C   0  0  0  0  0  0
  -18.9471  -30.1466   23.8880 C   0  0  0  0  0  0
  -17.6468  -30.6589   24.0560 C   0  0  0  0  0  0
  -25.9061  -34.9424   23.5082 C   0  0  0  0  0  0
  -16.5359  -29.9083   23.6337 C   0  0  0  0  0  0
  -16.7283  -28.6502   23.0355 C   0  0  0  0  0  0
  -26.4519  -31.6559   25.0701 C   0  0  0  0  0  0
  -25.3727  -31.3734   26.1410 C   0  0  0  0  0  0
  -27.0360  -30.2963   24.6208 C   0  0  0  0  0  0
  -27.6075  -32.4292   25.7480 C   0  0  0  0  0  0
  -27.5581  -37.1776   24.8458 C   0  0  0  0  0  0
  -21.4227  -29.3034   22.3636 N   0  0  0  0  0  0
  -26.4278  -37.3763   23.9424 N   0  0  0  0  0  0
  -24.7020  -31.0463   22.0926 N   0  0  0  0  0  0
  -23.4203  -28.8127   23.3014 O   0  0  0  0  0  0
  -28.2685  -26.2687   20.2044 O   0  0  0  0  0  0
  -26.5633  -34.8909   22.4650 O   0  0  0  0  0  0
  -23.5489  -32.1346   23.7229 O   0  0  0  0  0  0
  -30.2507  -18.2106   19.5831 C   0  0  0  0  0  0
  -29.9873  -19.6602   19.5463 C   0  0  0  0  0  0
  -29.8157  -17.5303   20.7098 C   0  0  0  0  0  0
  -29.3406  -20.2142   20.6442 C   0  0  0  0  0  0
  -28.4896  -23.8872   21.3025 C   0  0  0  0  0  0
  -28.9173  -22.7877   20.3506 C   0  0  0  0  0  0
  -29.7998  -16.0538   21.1939 C   0  0  0  0  0  0
  -28.2349  -25.2817   21.2438 C   0  0  0  0  0  0
  -28.3224  -23.1851   22.6316 C   0  0  0  0  0  0
  -28.4614  -21.6986   22.3678 C   0  0  0  0  0  0
  -27.8902  -26.0058   22.5554 C   0  0  0  0  0  0
  -29.1544  -15.8418   22.2633 N   0  0  0  0  0  0
  -28.9558  -21.5396   21.0046 N   0  0  0  0  0  0
  -29.2121  -22.9378   19.1620 O   0  0  0  0  0  0
  -29.0561  -18.8010   21.7220 S   0  0  0  0  0  0
  -31.4878  -12.6585   19.1748 H   0  0  0  0  0  0
  -30.4381  -11.5103   19.9375 H   0  0  0  0  0  0
  -29.8179  -11.7833   17.5220 H   0  0  0  0  0  0
  -29.6414  -13.5062   17.7384 H   0  0  0  0  0  0
  -27.8963  -11.3015   18.8769 H   0  0  0  0  0  0
  -27.3921  -12.5749   17.7951 H   0  0  0  0  0  0
  -27.6645  -14.2621   19.5305 H   0  0  0  0  0  0
  -28.7567  -12.0358   21.3039 H   0  0  0  0  0  0
  -28.3736  -13.5980   21.8870 H   0  0  0  0  0  0
  -25.2767   -9.5681   22.4748 H   0  0  0  0  0  0
  -24.0002   -7.4637   22.7477 H   0  0  0  0  0  0
  -21.0839   -8.8775   19.8954 H   0  0  0  0  0  0
  -22.3703  -10.9667   19.6156 H   0  0  0  0  0  0
  -21.2006   -7.6148   23.9711 H   0  0  0  0  0  0
  -21.1478   -6.0527   25.9074 H   0  0  0  0  0  0
  -22.0603   -2.7611   23.2854 H   0  0  0  0  0  0
  -22.4105  -11.9859   22.4782 H   0  0  0  0  0  0
  -21.1113  -13.1238   22.2639 H   0  0  0  0  0  0
  -24.6651  -15.8503   20.5434 H   0  0  0  0  0  0
  -26.2948  -15.6331   20.1492 H   0  0  0  0  0  0
  -26.7227  -32.5382   23.1045 H   0  0  0  0  0  0
  -25.0116  -33.9664   25.0395 H   0  0  0  0  0  0
  -22.7315  -31.2941   21.3886 H   0  0  0  0  0  0
  -23.3757  -35.9582   23.3291 H   0  0  0  0  0  0
  -24.3576  -36.8884   22.2051 H   0  0  0  0  0  0
  -23.7225  -37.6451   23.6661 H   0  0  0  0  0  0
  -26.1204  -31.5246   20.6073 H   0  0  0  0  0  0
  -26.8560  -30.8113   22.0110 H   0  0  0  0  0  0
  -28.1326  -28.9215   21.1993 H   0  0  0  0  0  0
  -25.9898  -25.8654   19.0483 H   0  0  0  0  0  0
  -23.9842  -27.2876   19.0080 H   0  0  0  0  0  0
  -23.7815  -30.5770   19.3987 H   0  0  0  0  0  0
  -22.7741  -29.2354   19.8486 H   0  0  0  0  0  0
  -25.1294  -36.1887   25.0817 H   0  0  0  0  0  0
  -21.0001  -28.3291   24.1376 H   0  0  0  0  0  0
  -20.5669  -26.2316   23.3616 H   0  0  0  0  0  0
  -21.6650  -26.7432   22.1208 H   0  0  0  0  0  0
  -19.6912  -25.6292   21.1248 H   0  0  0  0  0  0
  -19.6698  -27.3188   20.6734 H   0  0  0  0  0  0
  -17.4209  -26.6682   21.4021 H   0  0  0  0  0  0
  -18.0337  -26.0081   22.9021 H   0  0  0  0  0  0
  -19.7945  -30.7291   24.2238 H   0  0  0  0  0  0
  -17.5020  -31.6267   24.5165 H   0  0  0  0  0  0
  -15.5357  -30.2976   23.7673 H   0  0  0  0  0  0
  -15.8683  -28.0816   22.7077 H   0  0  0  0  0  0
  -24.5929  -30.7051   25.7742 H   0  0  0  0  0  0
  -24.8888  -32.2909   26.4768 H   0  0  0  0  0  0
  -25.8032  -30.8967   27.0224 H   0  0  0  0  0  0
  -26.2954  -29.6706   24.1213 H   0  0  0  0  0  0
  -27.4004  -29.7235   25.4745 H   0  0  0  0  0  0
  -27.8848  -30.4215   23.9480 H   0  0  0  0  0  0
  -27.2696  -33.3603   26.2042 H   0  0  0  0  0  0
  -28.3901  -32.6824   25.0314 H   0  0  0  0  0  0
  -28.0722  -31.8415   26.5406 H   0  0  0  0  0  0
  -28.2570  -38.0103   24.7555 H   0  0  0  0  0  0
  -28.1107  -36.2637   24.6221 H   0  0  0  0  0  0
  -27.2309  -37.1353   25.8862 H   0  0  0  0  0  0
  -20.9424  -29.8739   21.6818 H   0  0  0  0  0  0
  -26.0147  -38.2823   24.1472 H   0  0  0  0  0  0
  -30.7502  -17.7225   18.7582 H   0  0  0  0  0  0
  -30.3041  -20.2476   18.6958 H   0  0  0  0  0  0
  -27.3579  -23.4066   23.0908 H   0  0  0  0  0  0
  -29.1141  -23.5016   23.3122 H   0  0  0  0  0  0
  -27.4913  -21.2068   22.4619 H   0  0  0  0  0  0
  -29.1387  -21.2534   23.0985 H   0  0  0  0  0  0
  -26.8090  -26.0628   22.6871 H   0  0  0  0  0  0
  -28.2962  -27.0155   22.5669 H   0  0  0  0  0  0
  -28.3141  -25.5491   23.4469 H   0  0  0  0  0  0
  -28.7356  -16.6954   22.6107 H   0  0  0  0  0  0
  1 25  1  0  0  0
  1 30  2  0  0  0
  1 77  1  0  0  0
  2  3  1  0  0  0
  2 25  1  0  0  0
  2 86  1  0  0  0
  2 87  1  0  0  0
  3  4  1  0  0  0
  3 88  1  0  0  0
  3 89  1  0  0  0
  4  5  1  0  0  0
  4 90  1  0  0  0
  4 91  1  0  0  0
  5  6  1  0  0  0
  5 26  1  0  0  0
  5 92  1  0  0  0
  6 25  1  0  0  0
  6 93  1  0  0  0
  6 94  1  0  0  0
  7  8  2  0  0  0
  7 26  1  0  0  0
  7 29  1  0  0  0
  8  9  1  0  0  0
  8 22  1  0  0  0
  9 10  1  0  0  0
  9 27  2  0  0  0
 10 11  2  0  0  0
 10 15  1  0  0  0
 11 12  1  0  0  0
 11 95  1  0  0  0
 12 13  2  0  0  0
 12 96  1  0  0  0
 13 14  1  0  0  0
 13 31  1  0  0  0
 14 15  2  0  0  0
 14 97  1  0  0  0
 15 98  1  0  0  0
 16 17  2  0  0  0
 16 21  1  0  0  0
 16 31  1  0  0  0
 17 18  1  0  0  0
 17 99  1  0  0  0
 18 19  2  0  0  0
 18100  1  0  0  0
 19 20  1  0  0  0
 19 24  1  0  0  0
 20 21  2  0  0  0
 20101  1  0  0  0
 21 23  1  0  0  0
 22 28  1  0  0  0
 22 32  2  0  0  0
 26 27  1  0  0  0
 28102  1  0  0  0
 28103  1  0  0  0
 29104  1  0  0  0
 29105  1  0  0  0
 33 34  1  0  0  0
 33 66  1  0  0  0
 33 70  2  0  0  0
 34 36  1  0  0  0
 34 59  1  0  0  0
 34106  1  0  0  0
 35 44  2  0  0  0
 35 45  1  0  0  0
 35 68  1  0  0  0
 36 56  1  0  0  0
 36107  1  0  0  0
 37 39  1  0  0  0
 37 47  1  0  0  0
 37 66  1  0  0  0
 37108  1  0  0  0
 38 43  2  0  0  0
 38 46  1  0  0  0
 38 47  1  0  0  0
 39 64  1  0  0  0
 39 67  2  0  0  0
 40 52  1  0  0  0
 40 53  2  0  0  0
 40 58  1  0  0  0
 41109  1  0  0  0
 41110  1  0  0  0
 41111  1  0  0  0
 41 48  1  0  0  0
 42 43  1  0  0  0
 42 66  1  0  0  0
 42112  1  0  0  0
 42113  1  0  0  0
 43 44  1  0  0  0
 44114  1  0  0  0
 45 46  2  0  0  0
 45115  1  0  0  0
 46116  1  0  0  0
 47117  1  0  0  0
 47118  1  0  0  0
 48 56  1  0  0  0
 48 65  1  0  0  0
 48119  1  0  0  0
 49 50  1  0  0  0
 49 53  1  0  0  0
 49 64  1  0  0  0
 49120  1  0  0  0
 50 51  1  0  0  0
 50121  1  0  0  0
 50122  1  0  0  0
 51 52  1  0  0  0
 51123  1  0  0  0
 51124  1  0  0  0
 52125  1  0  0  0
 52126  1  0  0  0
 53 54  1  0  0  0
 54 55  2  0  0  0
 54127  1  0  0  0
 55 57  1  0  0  0
 55128  1  0  0  0
 56 69  2  0  0  0
 57 58  2  0  0  0
 57129  1  0  0  0
 58130  1  0  0  0
 59 60  1  0  0  0
 59 61  1  0  0  0
 59 62  1  0  0  0
 60131  1  0  0  0
 60132  1  0  0  0
 60133  1  0  0  0
 61134  1  0  0  0
 61135  1  0  0  0
 61136  1  0  0  0
 62137  1  0  0  0
 62138  1  0  0  0
 62139  1  0  0  0
 63 65  1  0  0  0
 63140  1  0  0  0
 63141  1  0  0  0
 63142  1  0  0  0
 64143  1  0  0  0
 65144  1  0  0  0
 68 78  1  0  0  0
 71 72  1  0  0  0
 71 73  2  0  0  0
 71145  1  0  0  0
 72 74  2  0  0  0
 72146  1  0  0  0
 73 77  1  0  0  0
 73 85  1  0  0  0
 74 83  1  0  0  0
 74 85  1  0  0  0
 75 76  1  0  0  0
 75 78  2  0  0  0
 75 79  1  0  0  0
 76 83  1  0  0  0
 76 84  2  0  0  0
 77 82  2  0  0  0
 78 81  1  0  0  0
 79 80  1  0  0  0
 79147  1  0  0  0
 79148  1  0  0  0
 80 83  1  0  0  0
 80149  1  0  0  0
 80150  1  0  0  0
 81151  1  0  0  0
 81152  1  0  0  0
 81153  1  0  0  0
 82154  1  0  0  0
M  ISO  4   1 100  68 101  77 100  78 101
M  END
> <chiral flag>
0

> <version>
0

> <s_m_source_file>
/data/baiqing/PycharmProjects/Reinvent-master-3.2/result/LINK_invent/BTK/process_docking_weight1_custom_product_contain_oxygen_bond_distance_aromatic_linkinvent_7_9_3/rearranged_h_0080.sdf

> <i_m_source_file_index>
9

> <r_mmod_Potential_Energy-OPLS-2005>
522.598876953125

> <r_mmod_Stretch_Energy-OPLS-2005>
161.179718017578

> <r_mmod_Bend_Energy-OPLS-2005>
287.386810302734

> <r_mmod_Torsional_Energy-OPLS-2005>
236.2548828125

> <r_mmod_Improper_Torsional_Energy-OPLS-2005>
2.3448543548584

> <r_mmod_Van_der_Waal_Energy-OPLS-2005>
139.081787109375

> <r_mmod_Electrostatic_Energy-OPLS-2005>
-206.592727661133

> <r_mmod_Solvation_Energy-OPLS-2005>
-203.614654541016

> <b_mmod_Minimization_Converged-OPLS-2005>
0

> <r_mmod_RMS_Derivative-OPLS-2005>
0.715721964836121

$$$$
9
                    3D
 Structure written by MMmdl.
149157  0  0  1  0            999 V2000
  -30.6170  -14.7891   20.4584 C   0  0  0  0  0  0
  -30.4250  -12.4826   19.4881 C   0  0  0  0  0  0
  -29.5057  -12.5140   18.2477 C   0  0  0  0  0  0
  -28.0364  -12.3231   18.6656 C   0  0  0  0  0  0
  -27.6356  -13.2395   19.8518 C   0  0  2  0  0  0
  -28.6797  -13.2078   20.9904 C   0  0  0  0  0  0
  -25.2478  -13.8220   20.5720 C   0  0  0  0  0  0
  -24.1785  -13.0443   20.9232 C   0  0  0  0  0  0
  -24.6388  -11.6925   20.8765 C   0  0  0  0  0  0
  -23.9065  -10.4292   21.0402 C   0  0  0  0  0  0
  -24.3618   -9.4207   21.9176 C   0  0  0  0  0  0
  -23.6292   -8.2236   22.0748 C   0  0  0  0  0  0
  -22.4271   -8.0265   21.3538 C   0  0  0  0  0  0
  -21.9913   -9.0237   20.4634 C   0  0  0  0  0  0
  -22.7238  -10.2118   20.3046 C   0  0  0  0  0  0
  -21.6858   -6.0725   22.5272 C   0  0  0  0  0  0
  -21.4015   -6.5633   23.8202 C   0  0  0  0  0  0
  -21.3661   -5.6792   24.9171 C   0  0  0  0  0  0
  -21.6046   -4.3050   24.7228 C   0  0  0  0  0  0
  -21.8822   -3.8136   23.4351 C   0  0  0  0  0  0
  -21.9197   -4.6951   22.3405 C   0  0  0  0  0  0
  -22.7797  -13.5198   21.1878 C   0  0  0  0  0  0
  -22.1667   -4.2128   21.0981 F   0  0  0  0  0  0
  -21.5631   -3.4530   25.7744 F   0  0  0  0  0  0
  -29.9768  -13.5647   20.4031 N   0  0  0  0  0  0
  -26.2906  -12.9430   20.3312 N   0  0  0  0  0  0
  -25.9318  -11.6565   20.5790 N   0  0  0  0  0  0
  -22.0467  -12.8168   22.0432 N   0  0  0  0  0  0
  -25.4160  -15.1938   20.4099 N   0  0  0  0  0  0
  -31.8097  -14.8247   20.1448 O   0  0  0  0  0  0
  -21.6642   -6.8854   21.4226 O   0  0  0  0  0  0
  -22.3463  -14.5493   20.6709 O   0  0  0  0  0  0
  -24.6325  -31.8507   23.1938 C   0  0  0  0  0  0
  -25.9133  -32.4731   23.8305 C   0  0  1  0  0  0
  -27.2269  -27.2312   20.1543 C   0  0  0  0  0  0
  -25.5915  -33.8532   24.2234 N   0  0  0  0  0  0
  -23.4325  -30.4683   21.5353 C   0  0  2  0  0  0
  -24.8827  -28.9064   20.1091 C   0  0  0  0  0  0
  -22.7522  -29.4559   22.4899 C   0  0  0  0  0  0
  -18.0309  -28.1360   22.8488 C   0  0  0  0  0  0
  -24.1485  -36.7291   23.2649 C   0  0  0  0  0  0
  -25.9774  -30.7574   21.3749 C   0  0  0  0  0  0
  -26.0508  -29.3745   20.7229 C   0  0  0  0  0  0
  -27.2200  -28.5474   20.7365 C   0  0  0  0  0  0
  -26.0324  -26.8309   19.5147 C   0  0  0  0  0  0
  -24.8808  -27.6447   19.4939 C   0  0  0  0  0  0
  -23.6529  -29.7940   20.1536 C   0  0  0  0  0  0
  -25.4120  -36.3062   24.0319 C   0  0  1  0  0  0
  -20.5906  -28.3693   23.1290 C   0  0  2  0  0  0
  -20.6771  -26.9413   22.5432 C   0  0  0  0  0  0
  -19.5766  -26.6383   21.5205 C   0  0  0  0  0  0
  -18.1943  -26.7912   22.1606 C   0  0  0  0  0  0
  -19.1563  -28.8843   23.2878 C   0  0  0  0  0  0
  -18.9468  -30.1444   23.8889 C   0  0  0  0  0  0
  -17.6453  -30.6561   24.0559 C   0  0  0  0  0  0
  -25.9048  -34.9422   23.5091 C   0  0  0  0  0  0
  -16.5355  -29.9045   23.6332 C   0  0  0  0  0  0
  -16.7291  -28.6463   23.0357 C   0  0  0  0  0  0
  -26.4489  -31.6579   25.0723 C   0  0  0  0  0  0
  -25.3717  -31.3731   26.1454 C   0  0  0  0  0  0
  -27.0350  -30.2993   24.6233 C   0  0  0  0  0  0
  -27.6033  -32.4329   25.7521 C   0  0  0  0  0  0
  -27.5559  -37.1832   24.8487 C   0  0  0  0  0  0
  -21.4214  -29.3042   22.3667 N   0  0  0  0  0  0
  -26.4310  -37.3746   23.9373 N   0  0  0  0  0  0
  -24.7000  -31.0458   22.0913 N   0  0  0  0  0  0
  -23.4208  -28.8107   23.3021 O   0  0  0  0  0  0
  -28.3334  -26.3528   20.2760 O   0  0  0  0  0  0
  -26.5638  -34.8890   22.4659 O   0  0  0  0  0  0
  -23.5471  -32.1324   23.7244 O   0  0  0  0  0  0
  -31.9643  -19.1617   20.2368 C   0  0  0  0  0  0
  -31.0418  -20.2159   20.3680 C   0  0  0  0  0  0
  -31.5710  -17.8112   20.3362 C   0  0  0  0  0  0
  -29.2917  -18.5509   20.7000 C   0  0  0  0  0  0
  -29.6747  -19.9657   20.6009 C   0  0  0  0  0  0
  -30.2270  -17.4244   20.5649 C   0  0  0  0  0  0
  -28.4251  -23.6004   20.5109 C   0  0  0  0  0  0
  -28.7487  -21.2064   20.8521 C   0  0  0  0  0  0
  -28.4353  -24.9762   19.6597 C   0  0  0  0  0  0
  -28.9667  -22.4436   20.1415 N   0  0  0  0  0  0
  -29.8719  -15.9618   20.6669 N   0  0  0  0  0  0
  -27.8459  -21.0458   21.6740 O   0  0  0  0  0  0
  -31.4652  -12.6008   19.1796 H   0  0  0  0  0  0
  -30.3682  -11.5152   19.9903 H   0  0  0  0  0  0
  -29.7975  -11.7414   17.5362 H   0  0  0  0  0  0
  -29.6191  -13.4679   17.7298 H   0  0  0  0  0  0
  -27.9119  -11.2776   18.9522 H   0  0  0  0  0  0
  -27.3731  -12.4872   17.8149 H   0  0  0  0  0  0
  -27.6199  -14.2540   19.4546 H   0  0  0  0  0  0
  -28.7278  -12.2212   21.4538 H   0  0  0  0  0  0
  -28.4090  -13.9071   21.7833 H   0  0  0  0  0  0
  -25.2752   -9.5687   22.4771 H   0  0  0  0  0  0
  -24.0001   -7.4622   22.7472 H   0  0  0  0  0  0
  -21.0847   -8.8748   19.8936 H   0  0  0  0  0  0
  -22.3684  -10.9659   19.6160 H   0  0  0  0  0  0
  -21.2014   -7.6135   23.9697 H   0  0  0  0  0  0
  -21.1481   -6.0524   25.9072 H   0  0  0  0  0  0
  -22.0608   -2.7593   23.2861 H   0  0  0  0  0  0
  -22.4112  -11.9821   22.4802 H   0  0  0  0  0  0
  -21.1075  -13.1163   22.2641 H   0  0  0  0  0  0
  -24.6458  -15.8475   20.5025 H   0  0  0  0  0  0
  -26.2583  -15.6267   20.0516 H   0  0  0  0  0  0
  -26.7225  -32.5372   23.1063 H   0  0  0  0  0  0
  -25.0026  -33.9651   25.0361 H   0  0  0  0  0  0
  -22.7290  -31.2903   21.3832 H   0  0  0  0  0  0
  -23.3717  -35.9662   23.3365 H   0  0  0  0  0  0
  -24.3565  -36.8869   22.2059 H   0  0  0  0  0  0
  -23.7292  -37.6522   23.6649 H   0  0  0  0  0  0
  -26.1146  -31.5106   20.5981 H   0  0  0  0  0  0
  -26.8563  -30.8147   22.0060 H   0  0  0  0  0  0
  -28.1104  -28.8976   21.2418 H   0  0  0  0  0  0
  -25.9373  -25.8557   19.0667 H   0  0  0  0  0  0
  -23.9836  -27.2764   19.0156 H   0  0  0  0  0  0
  -23.7793  -30.5643   19.3926 H   0  0  0  0  0  0
  -22.7728  -29.2225   19.8524 H   0  0  0  0  0  0
  -25.1321  -36.1920   25.0824 H   0  0  0  0  0  0
  -20.9991  -28.3267   24.1412 H   0  0  0  0  0  0
  -20.5636  -26.2310   23.3633 H   0  0  0  0  0  0
  -21.6647  -26.7398   22.1281 H   0  0  0  0  0  0
  -19.6955  -25.6283   21.1243 H   0  0  0  0  0  0
  -19.6717  -27.3218   20.6757 H   0  0  0  0  0  0
  -17.4243  -26.6698   21.3972 H   0  0  0  0  0  0
  -18.0314  -26.0015   22.8952 H   0  0  0  0  0  0
  -19.7920  -30.7286   24.2248 H   0  0  0  0  0  0
  -17.4994  -31.6245   24.5135 H   0  0  0  0  0  0
  -15.5348  -30.2923   23.7656 H   0  0  0  0  0  0
  -15.8701  -28.0780   22.7053 H   0  0  0  0  0  0
  -24.5897  -30.7059   25.7795 H   0  0  0  0  0  0
  -24.8891  -32.2901   26.4859 H   0  0  0  0  0  0
  -25.8044  -30.8940   27.0252 H   0  0  0  0  0  0
  -26.2937  -29.6738   24.1237 H   0  0  0  0  0  0
  -27.4002  -29.7258   25.4768 H   0  0  0  0  0  0
  -27.8827  -30.4262   23.9491 H   0  0  0  0  0  0
  -27.2627  -33.3654   26.2037 H   0  0  0  0  0  0
  -28.3886  -32.6853   25.0383 H   0  0  0  0  0  0
  -28.0641  -31.8490   26.5503 H   0  0  0  0  0  0
  -28.2666  -38.0031   24.7378 H   0  0  0  0  0  0
  -28.0957  -36.2557   24.6521 H   0  0  0  0  0  0
  -27.2248  -37.1741   25.8884 H   0  0  0  0  0  0
  -20.9404  -29.8767   21.6856 H   0  0  0  0  0  0
  -26.0190  -38.2842   24.1267 H   0  0  0  0  0  0
  -33.0077  -19.3957   20.0688 H   0  0  0  0  0  0
  -31.4032  -21.2349   20.3121 H   0  0  0  0  0  0
  -32.3574  -17.0845   20.2380 H   0  0  0  0  0  0
  -28.2549  -18.3274   20.8997 H   0  0  0  0  0  0
  -27.8846  -23.6985   21.4589 H   0  0  0  0  0  0
  -27.7385  -24.8596   18.8343 H   0  0  0  0  0  0
  -29.4048  -24.9892   19.1639 H   0  0  0  0  0  0
  -28.9039  -15.7762   20.8758 H   0  0  0  0  0  0
  1 25  1  0  0  0
  1 30  2  0  0  0
  1 81  1  0  0  0
  2  3  1  0  0  0
  2 25  1  0  0  0
  2 83  1  0  0  0
  2 84  1  0  0  0
  3  4  1  0  0  0
  3 85  1  0  0  0
  3 86  1  0  0  0
  4  5  1  0  0  0
  4 87  1  0  0  0
  4 88  1  0  0  0
  5  6  1  0  0  0
  5 26  1  0  0  0
  5 89  1  0  0  0
  6 25  1  0  0  0
  6 90  1  0  0  0
  6 91  1  0  0  0
  7  8  2  0  0  0
  7 26  1  0  0  0
  7 29  1  0  0  0
  8  9  1  0  0  0
  8 22  1  0  0  0
  9 10  1  0  0  0
  9 27  2  0  0  0
 10 11  2  0  0  0
 10 15  1  0  0  0
 11 12  1  0  0  0
 11 92  1  0  0  0
 12 13  2  0  0  0
 12 93  1  0  0  0
 13 14  1  0  0  0
 13 31  1  0  0  0
 14 15  2  0  0  0
 14 94  1  0  0  0
 15 95  1  0  0  0
 16 17  2  0  0  0
 16 21  1  0  0  0
 16 31  1  0  0  0
 17 18  1  0  0  0
 17 96  1  0  0  0
 18 19  2  0  0  0
 18 97  1  0  0  0
 19 20  1  0  0  0
 19 24  1  0  0  0
 20 21  2  0  0  0
 20 98  1  0  0  0
 21 23  1  0  0  0
 22 28  1  0  0  0
 22 32  2  0  0  0
 26 27  1  0  0  0
 28 99  1  0  0  0
 28100  1  0  0  0
 29101  1  0  0  0
 29102  1  0  0  0
 33 34  1  0  0  0
 33 66  1  0  0  0
 33 70  2  0  0  0
 34 36  1  0  0  0
 34 59  1  0  0  0
 34103  1  0  0  0
 35 44  2  0  0  0
 35 45  1  0  0  0
 35 68  1  0  0  0
 36 56  1  0  0  0
 36104  1  0  0  0
 37 39  1  0  0  0
 37 47  1  0  0  0
 37 66  1  0  0  0
 37105  1  0  0  0
 38 43  2  0  0  0
 38 46  1  0  0  0
 38 47  1  0  0  0
 39 64  1  0  0  0
 39 67  2  0  0  0
 40 52  1  0  0  0
 40 53  2  0  0  0
 40 58  1  0  0  0
 41106  1  0  0  0
 41107  1  0  0  0
 41108  1  0  0  0
 41 48  1  0  0  0
 42 43  1  0  0  0
 42 66  1  0  0  0
 42109  1  0  0  0
 42110  1  0  0  0
 43 44  1  0  0  0
 44111  1  0  0  0
 45 46  2  0  0  0
 45112  1  0  0  0
 46113  1  0  0  0
 47114  1  0  0  0
 47115  1  0  0  0
 48 56  1  0  0  0
 48 65  1  0  0  0
 48116  1  0  0  0
 49 50  1  0  0  0
 49 53  1  0  0  0
 49 64  1  0  0  0
 49117  1  0  0  0
 50 51  1  0  0  0
 50118  1  0  0  0
 50119  1  0  0  0
 51 52  1  0  0  0
 51120  1  0  0  0
 51121  1  0  0  0
 52122  1  0  0  0
 52123  1  0  0  0
 53 54  1  0  0  0
 54 55  2  0  0  0
 54124  1  0  0  0
 55 57  1  0  0  0
 55125  1  0  0  0
 56 69  2  0  0  0
 57 58  2  0  0  0
 57126  1  0  0  0
 58127  1  0  0  0
 59 60  1  0  0  0
 59 61  1  0  0  0
 59 62  1  0  0  0
 60128  1  0  0  0
 60129  1  0  0  0
 60130  1  0  0  0
 61131  1  0  0  0
 61132  1  0  0  0
 61133  1  0  0  0
 62134  1  0  0  0
 62135  1  0  0  0
 62136  1  0  0  0
 63 65  1  0  0  0
 63137  1  0  0  0
 63138  1  0  0  0
 63139  1  0  0  0
 64140  1  0  0  0
 65141  1  0  0  0
 68 79  1  0  0  0
 71 72  2  0  0  0
 71 73  1  0  0  0
 71142  1  0  0  0
 72 75  1  0  0  0
 72143  1  0  0  0
 73 76  2  0  0  0
 73144  1  0  0  0
 74 75  2  0  0  0
 74 76  1  0  0  0
 74145  1  0  0  0
 75 78  1  0  0  0
 76 81  1  0  0  0
 77 79  1  0  0  0
 77 80  2  0  0  0
 77146  1  0  0  0
 78 80  1  0  0  0
 78 82  2  0  0  0
 79147  1  0  0  0
 79148  1  0  0  0
 81149  1  0  0  0
M  ISO  4   1 100  68 101  79 101  81 100
M  END
> <chiral flag>
0

> <version>
0

> <s_m_source_file>
/data/baiqing/PycharmProjects/Reinvent-master-3.2/result/LINK_invent/BTK/process_docking_weight1_custom_product_contain_oxygen_bond_distance_aromatic_linkinvent_7_9_3/rearranged_h_0080.sdf

> <i_m_source_file_index>
10

> <r_mmod_Potential_Energy-OPLS-2005>
197.424713134766

> <r_mmod_Stretch_Energy-OPLS-2005>
150.405853271484

> <r_mmod_Bend_Energy-OPLS-2005>
187.024124145508

> <r_mmod_Torsional_Energy-OPLS-2005>
208.832473754883

> <r_mmod_Improper_Torsional_Energy-OPLS-2005>
4.95082712173462

> <r_mmod_Van_der_Waal_Energy-OPLS-2005>
147.212203979492

> <r_mmod_Electrostatic_Energy-OPLS-2005>
-395.593200683594

> <r_mmod_Solvation_Energy-OPLS-2005>
-210.38883972168

> <b_mmod_Minimization_Converged-OPLS-2005>
0

> <r_mmod_RMS_Derivative-OPLS-2005>
3.2891891002655

$$$$
10
                    3D
 Structure written by MMmdl.
152161  0  0  1  0            999 V2000
  -30.6606  -14.6100   20.4888 C   0  0  0  0  0  0
  -30.4239  -12.3669   19.4602 C   0  0  0  0  0  0
  -29.5028  -12.4941   18.2273 C   0  0  0  0  0  0
  -28.0251  -12.3417   18.6377 C   0  0  0  0  0  0
  -27.6502  -13.2188   19.8628 C   0  0  2  0  0  0
  -28.6939  -13.0865   20.9947 C   0  0  0  0  0  0
  -25.2551  -13.8181   20.5715 C   0  0  0  0  0  0
  -24.1817  -13.0440   20.9193 C   0  0  0  0  0  0
  -24.6389  -11.6910   20.8744 C   0  0  0  0  0  0
  -23.9057  -10.4298   21.0405 C   0  0  0  0  0  0
  -24.3613   -9.4211   21.9182 C   0  0  0  0  0  0
  -23.6291   -8.2247   22.0752 C   0  0  0  0  0  0
  -22.4277   -8.0281   21.3541 C   0  0  0  0  0  0
  -21.9906   -9.0254   20.4644 C   0  0  0  0  0  0
  -22.7230  -10.2133   20.3054 C   0  0  0  0  0  0
  -21.6850   -6.0733   22.5282 C   0  0  0  0  0  0
  -21.4014   -6.5640   23.8213 C   0  0  0  0  0  0
  -21.3660   -5.6791   24.9179 C   0  0  0  0  0  0
  -21.6045   -4.3055   24.7225 C   0  0  0  0  0  0
  -21.8822   -3.8144   23.4348 C   0  0  0  0  0  0
  -21.9196   -4.6962   22.3404 C   0  0  0  0  0  0
  -22.7848  -13.5232   21.1866 C   0  0  0  0  0  0
  -22.1665   -4.2149   21.0978 F   0  0  0  0  0  0
  -21.5628   -3.4540   25.7737 F   0  0  0  0  0  0
  -30.0126  -13.4037   20.4287 N   0  0  0  0  0  0
  -26.2973  -12.9365   20.3330 N   0  0  0  0  0  0
  -25.9313  -11.6516   20.5760 N   0  0  0  0  0  0
  -22.0484  -12.8209   22.0407 N   0  0  0  0  0  0
  -25.4260  -15.1901   20.4148 N   0  0  0  0  0  0
  -31.8353  -14.6981   20.1180 O   0  0  0  0  0  0
  -21.6639   -6.8877   21.4243 O   0  0  0  0  0  0
  -22.3526  -14.5539   20.6715 O   0  0  0  0  0  0
  -24.6416  -31.8683   23.2099 C   0  0  0  0  0  0
  -25.9220  -32.4844   23.8441 C   0  0  1  0  0  0
  -27.2178  -27.3459   20.1141 C   0  0  0  0  0  0
  -25.5995  -33.8631   24.2348 N   0  0  0  0  0  0
  -23.4503  -30.4936   21.5652 C   0  0  2  0  0  0
  -24.8731  -28.9534   20.1113 C   0  0  0  0  0  0
  -22.7809  -29.4811   22.5196 C   0  0  0  0  0  0
  -17.9946  -28.1202   22.8707 C   0  0  0  0  0  0
  -24.1487  -36.7301   23.2634 C   0  0  0  0  0  0
  -25.9770  -30.8040   21.3757 C   0  0  0  0  0  0
  -26.0451  -29.4358   20.7115 C   0  0  0  0  0  0
  -27.2264  -28.6410   20.7068 C   0  0  0  0  0  0
  -26.0334  -26.9117   19.4841 C   0  0  0  0  0  0
  -24.8667  -27.6958   19.4854 C   0  0  0  0  0  0
  -23.6407  -29.8271   20.1765 C   0  0  0  0  0  0
  -25.4114  -36.3112   24.0333 C   0  0  1  0  0  0
  -20.4810  -28.4583   22.7795 C   0  0  2  0  0  0
  -20.6916  -26.9609   22.5318 C   0  0  0  0  0  0
  -19.5550  -26.4571   21.6179 C   0  0  0  0  0  0
  -18.1574  -26.7514   22.2047 C   0  0  0  0  0  0
  -19.1160  -28.8976   23.2505 C   0  0  0  0  0  0
  -18.9354  -30.1484   23.8755 C   0  0  0  0  0  0
  -17.6372  -30.6503   24.0793 C   0  0  0  0  0  0
  -25.9066  -34.9484   23.5129 C   0  0  0  0  0  0
  -16.5205  -29.8957   23.6743 C   0  0  0  0  0  0
  -16.6989  -28.6294   23.0880 C   0  0  0  0  0  0
  -26.4526  -31.6611   25.0797 C   0  0  0  0  0  0
  -25.3725  -31.3743   26.1488 C   0  0  0  0  0  0
  -27.0355  -30.3036   24.6237 C   0  0  0  0  0  0
  -27.6078  -32.4330   25.7588 C   0  0  0  0  0  0
  -27.5584  -37.1819   24.8469 C   0  0  0  0  0  0
  -21.4593  -29.4429   22.3932 N   0  0  0  0  0  0
  -26.4299  -37.3800   23.9409 N   0  0  0  0  0  0
  -24.7112  -31.0704   22.1076 N   0  0  0  0  0  0
  -23.4258  -28.7608   23.2834 O   0  0  0  0  0  0
  -28.2577  -26.4227   20.2189 O   0  0  0  0  0  0
  -26.5607  -34.8939   22.4677 O   0  0  0  0  0  0
  -23.5555  -32.1448   23.7395 O   0  0  0  0  0  0
  -27.1645  -18.6413   22.3625 C   0  0  0  0  0  0
  -28.0871  -17.6911   21.9088 C   0  0  0  0  0  0
  -27.3207  -20.0021   22.0481 C   0  0  0  0  0  0
  -29.2950  -19.5006   20.7888 C   0  0  0  0  0  0
  -29.1759  -18.0917   21.1085 C   0  0  0  0  0  0
  -28.3856  -20.5192   21.2610 C   0  0  0  0  0  0
  -28.1978  -23.9990   21.0372 C   0  0  0  0  0  0
  -28.9054  -23.0147   20.2186 C   0  0  0  0  0  0
  -27.9401  -25.3500   21.0653 C   0  0  0  0  0  0
  -30.2137  -17.0425   20.6810 C   0  0  0  0  0  0
  -27.6919  -22.8897   21.9448 C   0  0  0  0  0  0
  -28.4295  -21.9746   21.0585 N   0  0  0  0  0  0
  -29.8995  -15.7089   20.7958 N   0  0  0  0  0  0
  -29.5861  -23.1204   19.2186 O   0  0  0  0  0  0
  -31.2867  -17.4558   20.2276 O   0  0  0  0  0  0
  -31.4694  -12.4590   19.1595 H   0  0  0  0  0  0
  -30.3316  -11.3757   19.9073 H   0  0  0  0  0  0
  -29.7621  -11.7408   17.4819 H   0  0  0  0  0  0
  -29.6563  -13.4625   17.7487 H   0  0  0  0  0  0
  -27.8600  -11.2894   18.8724 H   0  0  0  0  0  0
  -27.3716  -12.5693   17.7951 H   0  0  0  0  0  0
  -27.6685  -14.2527   19.5173 H   0  0  0  0  0  0
  -28.6931  -12.0719   21.3950 H   0  0  0  0  0  0
  -28.4464  -13.7397   21.8316 H   0  0  0  0  0  0
  -25.2762   -9.5689   22.4751 H   0  0  0  0  0  0
  -24.0008   -7.4636   22.7463 H   0  0  0  0  0  0
  -21.0843   -8.8762   19.8945 H   0  0  0  0  0  0
  -22.3689  -10.9671   19.6159 H   0  0  0  0  0  0
  -21.2007   -7.6149   23.9717 H   0  0  0  0  0  0
  -21.1478   -6.0522   25.9077 H   0  0  0  0  0  0
  -22.0600   -2.7610   23.2844 H   0  0  0  0  0  0
  -22.4113  -11.9873   22.4801 H   0  0  0  0  0  0
  -21.1102  -13.1226   22.2625 H   0  0  0  0  0  0
  -24.6550  -15.8388   20.5257 H   0  0  0  0  0  0
  -26.2608  -15.6321   20.0541 H   0  0  0  0  0  0
  -26.7320  -32.5507   23.1228 H   0  0  0  0  0  0
  -25.0155  -33.9777   25.0503 H   0  0  0  0  0  0
  -22.7528  -31.3226   21.4196 H   0  0  0  0  0  0
  -23.3762  -35.9624   23.3309 H   0  0  0  0  0  0
  -24.3576  -36.8905   22.2048 H   0  0  0  0  0  0
  -23.7229  -37.6507   23.6638 H   0  0  0  0  0  0
  -26.1056  -31.5723   20.6122 H   0  0  0  0  0  0
  -26.8601  -30.8490   22.0022 H   0  0  0  0  0  0
  -28.1216  -28.9895   21.2012 H   0  0  0  0  0  0
  -25.9994  -25.9292   19.0350 H   0  0  0  0  0  0
  -23.9658  -27.3162   19.0212 H   0  0  0  0  0  0
  -23.7390  -30.6007   19.4148 H   0  0  0  0  0  0
  -22.7588  -29.2500   19.8914 H   0  0  0  0  0  0
  -25.1289  -36.1984   25.0829 H   0  0  0  0  0  0
  -20.1626  -28.6786   21.7597 H   0  0  0  0  0  0
  -20.6751  -26.4256   23.4818 H   0  0  0  0  0  0
  -21.6618  -26.7646   22.0745 H   0  0  0  0  0  0
  -19.6604  -25.3863   21.4420 H   0  0  0  0  0  0
  -19.6393  -26.9182   20.6323 H   0  0  0  0  0  0
  -17.4026  -26.6301   21.4256 H   0  0  0  0  0  0
  -17.9299  -26.0007   22.9630 H   0  0  0  0  0  0
  -19.7912  -30.7515   24.1486 H   0  0  0  0  0  0
  -17.4977  -31.6210   24.5361 H   0  0  0  0  0  0
  -15.5236  -30.2834   23.8282 H   0  0  0  0  0  0
  -15.8325  -28.0520   22.7943 H   0  0  0  0  0  0
  -24.5908  -30.7092   25.7792 H   0  0  0  0  0  0
  -24.8898  -32.2907   26.4901 H   0  0  0  0  0  0
  -25.8014  -30.8921   27.0282 H   0  0  0  0  0  0
  -26.2941  -29.6823   24.1202 H   0  0  0  0  0  0
  -27.3987  -29.7256   25.4747 H   0  0  0  0  0  0
  -27.8839  -30.4324   23.9514 H   0  0  0  0  0  0
  -27.2688  -33.3636   26.2161 H   0  0  0  0  0  0
  -28.3902  -32.6892   25.0425 H   0  0  0  0  0  0
  -28.0731  -31.8454   26.5514 H   0  0  0  0  0  0
  -28.2612  -38.0106   24.7517 H   0  0  0  0  0  0
  -28.1073  -36.2643   24.6299 H   0  0  0  0  0  0
  -27.2302  -37.1475   25.8872 H   0  0  0  0  0  0
  -21.0814  -30.1532   21.7808 H   0  0  0  0  0  0
  -26.0190  -38.2885   24.1398 H   0  0  0  0  0  0
  -26.3311  -18.3290   22.9776 H   0  0  0  0  0  0
  -27.9464  -16.6607   22.2021 H   0  0  0  0  0  0
  -26.5646  -20.6555   22.4529 H   0  0  0  0  0  0
  -30.1400  -19.8136   20.1906 H   0  0  0  0  0  0
  -27.3173  -25.7072   21.8762 H   0  0  0  0  0  0
  -26.6124  -22.7313   21.9230 H   0  0  0  0  0  0
  -28.0625  -22.8687   22.9708 H   0  0  0  0  0  0
  -28.9686  -15.5149   21.1189 H   0  0  0  0  0  0
  1 25  1  0  0  0
  1 30  2  0  0  0
  1 83  1  0  0  0
  2  3  1  0  0  0
  2 25  1  0  0  0
  2 86  1  0  0  0
  2 87  1  0  0  0
  3  4  1  0  0  0
  3 88  1  0  0  0
  3 89  1  0  0  0
  4  5  1  0  0  0
  4 90  1  0  0  0
  4 91  1  0  0  0
  5  6  1  0  0  0
  5 26  1  0  0  0
  5 92  1  0  0  0
  6 25  1  0  0  0
  6 93  1  0  0  0
  6 94  1  0  0  0
  7  8  2  0  0  0
  7 26  1  0  0  0
  7 29  1  0  0  0
  8  9  1  0  0  0
  8 22  1  0  0  0
  9 10  1  0  0  0
  9 27  2  0  0  0
 10 11  2  0  0  0
 10 15  1  0  0  0
 11 12  1  0  0  0
 11 95  1  0  0  0
 12 13  2  0  0  0
 12 96  1  0  0  0
 13 14  1  0  0  0
 13 31  1  0  0  0
 14 15  2  0  0  0
 14 97  1  0  0  0
 15 98  1  0  0  0
 16 17  2  0  0  0
 16 21  1  0  0  0
 16 31  1  0  0  0
 17 18  1  0  0  0
 17 99  1  0  0  0
 18 19  2  0  0  0
 18100  1  0  0  0
 19 20  1  0  0  0
 19 24  1  0  0  0
 20 21  2  0  0  0
 20101  1  0  0  0
 21 23  1  0  0  0
 22 28  1  0  0  0
 22 32  2  0  0  0
 26 27  1  0  0  0
 28102  1  0  0  0
 28103  1  0  0  0
 29104  1  0  0  0
 29105  1  0  0  0
 33 34  1  0  0  0
 33 66  1  0  0  0
 33 70  2  0  0  0
 34 36  1  0  0  0
 34 59  1  0  0  0
 34106  1  0  0  0
 35 44  2  0  0  0
 35 45  1  0  0  0
 35 68  1  0  0  0
 36 56  1  0  0  0
 36107  1  0  0  0
 37 39  1  0  0  0
 37 47  1  0  0  0
 37 66  1  0  0  0
 37108  1  0  0  0
 38 43  2  0  0  0
 38 46  1  0  0  0
 38 47  1  0  0  0
 39 64  1  0  0  0
 39 67  2  0  0  0
 40 52  1  0  0  0
 40 53  2  0  0  0
 40 58  1  0  0  0
 41109  1  0  0  0
 41110  1  0  0  0
 41111  1  0  0  0
 41 48  1  0  0  0
 42 43  1  0  0  0
 42 66  1  0  0  0
 42112  1  0  0  0
 42113  1  0  0  0
 43 44  1  0  0  0
 44114  1  0  0  0
 45 46  2  0  0  0
 45115  1  0  0  0
 46116  1  0  0  0
 47117  1  0  0  0
 47118  1  0  0  0
 48 56  1  0  0  0
 48 65  1  0  0  0
 48119  1  0  0  0
 49 50  1  0  0  0
 49 53  1  0  0  0
 49 64  1  0  0  0
 49120  1  0  0  0
 50 51  1  0  0  0
 50121  1  0  0  0
 50122  1  0  0  0
 51 52  1  0  0  0
 51123  1  0  0  0
 51124  1  0  0  0
 52125  1  0  0  0
 52126  1  0  0  0
 53 54  1  0  0  0
 54 55  2  0  0  0
 54127  1  0  0  0
 55 57  1  0  0  0
 55128  1  0  0  0
 56 69  2  0  0  0
 57 58  2  0  0  0
 57129  1  0  0  0
 58130  1  0  0  0
 59 60  1  0  0  0
 59 61  1  0  0  0
 59 62  1  0  0  0
 60131  1  0  0  0
 60132  1  0  0  0
 60133  1  0  0  0
 61134  1  0  0  0
 61135  1  0  0  0
 61136  1  0  0  0
 62137  1  0  0  0
 62138  1  0  0  0
 62139  1  0  0  0
 63 65  1  0  0  0
 63140  1  0  0  0
 63141  1  0  0  0
 63142  1  0  0  0
 64143  1  0  0  0
 65144  1  0  0  0
 68 79  1  0  0  0
 71 72  2  0  0  0
 71 73  1  0  0  0
 71145  1  0  0  0
 72 75  1  0  0  0
 72146  1  0  0  0
 73 76  2  0  0  0
 73147  1  0  0  0
 74 75  2  0  0  0
 74 76  1  0  0  0
 74148  1  0  0  0
 75 80  1  0  0  0
 76 82  1  0  0  0
 77 78  1  0  0  0
 77 79  2  0  0  0
 77 81  1  0  0  0
 78 82  1  0  0  0
 78 84  2  0  0  0
 79149  1  0  0  0
 80 83  1  0  0  0
 80 85  2  0  0  0
 81 82  1  0  0  0
 81150  1  0  0  0
 81151  1  0  0  0
 83152  1  0  0  0
M  ISO  4   1 100  68 101  79 101  83 100
M  END
> <chiral flag>
0

> <version>
0

> <s_m_source_file>
/data/baiqing/PycharmProjects/Reinvent-master-3.2/result/LINK_invent/BTK/process_docking_weight1_custom_product_contain_oxygen_bond_distance_aromatic_linkinvent_7_9_3/rearranged_h_0080.sdf

> <i_m_source_file_index>
11

> <r_mmod_Potential_Energy-OPLS-2005>
189.944732666016

> <r_mmod_Stretch_Energy-OPLS-2005>
67.1467590332031

> <r_mmod_Bend_Energy-OPLS-2005>
329.0849609375

> <r_mmod_Torsional_Energy-OPLS-2005>
239.714813232422

> <r_mmod_Improper_Torsional_Energy-OPLS-2005>
6.25810098648071

> <r_mmod_Van_der_Waal_Energy-OPLS-2005>
156.312866210938

> <r_mmod_Electrostatic_Energy-OPLS-2005>
-426.518463134766

> <r_mmod_Solvation_Energy-OPLS-2005>
-251.006057739258

> <b_mmod_Minimization_Converged-OPLS-2005>
0

> <r_mmod_RMS_Derivative-OPLS-2005>
2.41813516616821

$$$$
11
                    3D
 Structure written by MMmdl.
152161  0  0  1  0            999 V2000
  -30.4659  -14.9160   20.3816 C   0  0  0  0  0  0
  -30.4482  -12.5534   19.4480 C   0  0  0  0  0  0
  -29.5173  -12.5335   18.2100 C   0  0  0  0  0  0
  -28.0360  -12.3475   18.6151 C   0  0  0  0  0  0
  -27.6318  -13.2354   19.8240 C   0  0  2  0  0  0
  -28.6846  -13.1843   20.9487 C   0  0  0  0  0  0
  -25.2473  -13.8218   20.5583 C   0  0  0  0  0  0
  -24.1811  -13.0445   20.9231 C   0  0  0  0  0  0
  -24.6407  -11.6910   20.8731 C   0  0  0  0  0  0
  -23.9094  -10.4279   21.0418 C   0  0  0  0  0  0
  -24.3651   -9.4180   21.9197 C   0  0  0  0  0  0
  -23.6321   -8.2217   22.0719 C   0  0  0  0  0  0
  -22.4304   -8.0273   21.3493 C   0  0  0  0  0  0
  -21.9927   -9.0264   20.4608 C   0  0  0  0  0  0
  -22.7262  -10.2129   20.3068 C   0  0  0  0  0  0
  -21.6845   -6.0733   22.5281 C   0  0  0  0  0  0
  -21.4002   -6.5632   23.8228 C   0  0  0  0  0  0
  -21.3678   -5.6769   24.9189 C   0  0  0  0  0  0
  -21.6088   -4.3042   24.7206 C   0  0  0  0  0  0
  -21.8837   -3.8119   23.4326 C   0  0  0  0  0  0
  -21.9170   -4.6958   22.3384 C   0  0  0  0  0  0
  -22.7829  -13.5220   21.1898 C   0  0  0  0  0  0
  -22.1638   -4.2139   21.0975 F   0  0  0  0  0  0
  -21.5650   -3.4513   25.7726 F   0  0  0  0  0  0
  -29.9557  -13.6215   20.3607 N   0  0  0  0  0  0
  -26.2886  -12.9403   20.3097 N   0  0  0  0  0  0
  -25.9327  -11.6545   20.5663 N   0  0  0  0  0  0
  -22.0422  -12.8219   22.0438 N   0  0  0  0  0  0
  -25.4109  -15.1915   20.3826 N   0  0  0  0  0  0
  -31.6677  -15.0743   20.1297 O   0  0  0  0  0  0
  -21.6632   -6.8881   21.4223 O   0  0  0  0  0  0
  -22.3523  -14.5478   20.6672 O   0  0  0  0  0  0
  -24.6444  -31.8462   23.1870 C   0  0  0  0  0  0
  -25.9220  -32.4699   23.8292 C   0  0  1  0  0  0
  -27.2046  -27.1315   20.1562 C   0  0  0  0  0  0
  -25.5965  -33.8509   24.2166 N   0  0  0  0  0  0
  -23.4510  -30.4609   21.5349 C   0  0  2  0  0  0
  -24.9080  -28.8993   20.1071 C   0  0  0  0  0  0
  -22.7599  -29.4520   22.4882 C   0  0  0  0  0  0
  -18.0324  -28.1394   22.8508 C   0  0  0  0  0  0
  -24.1504  -36.7240   23.2640 C   0  0  0  0  0  0
  -26.0132  -30.7153   21.4006 C   0  0  0  0  0  0
  -26.0883  -29.3303   20.7363 C   0  0  0  0  0  0
  -27.2427  -28.4560   20.7546 C   0  0  0  0  0  0
  -26.0187  -26.8290   19.4585 C   0  0  0  0  0  0
  -24.8855  -27.6584   19.4616 C   0  0  0  0  0  0
  -23.6822  -29.7952   20.1538 C   0  0  0  0  0  0
  -25.4142  -36.3010   24.0303 C   0  0  1  0  0  0
  -20.5946  -28.3718   23.1247 C   0  0  2  0  0  0
  -20.6817  -26.9411   22.5440 C   0  0  0  0  0  0
  -19.5780  -26.6358   21.5265 C   0  0  0  0  0  0
  -18.1955  -26.7937   22.1655 C   0  0  0  0  0  0
  -19.1584  -28.8872   23.2861 C   0  0  0  0  0  0
  -18.9496  -30.1486   23.8852 C   0  0  0  0  0  0
  -17.6476  -30.6594   24.0549 C   0  0  0  0  0  0
  -25.9100  -34.9395   23.5029 C   0  0  0  0  0  0
  -16.5362  -29.9079   23.6346 C   0  0  0  0  0  0
  -16.7289  -28.6506   23.0350 C   0  0  0  0  0  0
  -26.4518  -31.6560   25.0741 C   0  0  0  0  0  0
  -25.3643  -31.3851   26.1394 C   0  0  0  0  0  0
  -27.0357  -30.2916   24.6396 C   0  0  0  0  0  0
  -27.6053  -32.4320   25.7530 C   0  0  0  0  0  0
  -27.5581  -37.1783   24.8460 C   0  0  0  0  0  0
  -21.4287  -29.3018   22.3604 N   0  0  0  0  0  0
  -26.4298  -37.3735   23.9389 N   0  0  0  0  0  0
  -24.7223  -31.0301   22.0941 N   0  0  0  0  0  0
  -23.4238  -28.8106   23.3043 O   0  0  0  0  0  0
  -28.1510  -26.0432   20.2516 O   0  0  0  0  0  0
  -26.5693  -34.8889   22.4625 O   0  0  0  0  0  0
  -23.5561  -32.1370   23.7074 O   0  0  0  0  0  0
  -28.0188  -19.6424   20.4001 C   0  0  0  0  0  0
  -30.3079  -19.9370   20.5695 C   0  0  0  0  0  0
  -28.2195  -18.2025   20.3286 C   0  0  0  0  0  0
  -30.5300  -18.4909   20.4811 C   0  0  0  0  0  0
  -29.0395  -20.6447   20.5959 C   0  0  0  0  0  0
  -29.4786  -17.5212   20.4152 C   0  0  0  0  0  0
  -27.0526  -22.6900   21.6768 C   0  0  0  0  0  0
  -27.9229  -23.3728   20.9215 C   0  0  0  0  0  0
  -25.7719  -22.7983   22.0719 C   0  0  0  0  0  0
  -27.6052  -24.7481   20.6735 C   0  0  0  0  0  0
  -28.1984  -21.9146   22.2380 C   0  0  0  0  0  0
  -28.8420  -22.1579   20.9232 N   0  0  0  0  0  0
  -29.5373  -15.9868   20.4577 N   0  0  0  0  0  0
  -31.4790  -12.7340   19.1366 H   0  0  0  0  0  0
  -30.4347  -11.5763   19.9346 H   0  0  0  0  0  0
  -29.8147  -11.7410   17.5212 H   0  0  0  0  0  0
  -29.6317  -13.4651   17.6535 H   0  0  0  0  0  0
  -27.8793  -11.2956   18.8468 H   0  0  0  0  0  0
  -27.3873  -12.5517   17.7587 H   0  0  0  0  0  0
  -27.6027  -14.2560   19.4427 H   0  0  0  0  0  0
  -28.7646  -12.1690   21.3418 H   0  0  0  0  0  0
  -28.4039  -13.8121   21.7941 H   0  0  0  0  0  0
  -25.2830   -9.5637   22.4720 H   0  0  0  0  0  0
  -24.0021   -7.4634   22.7454 H   0  0  0  0  0  0
  -21.0832   -8.8833   19.8956 H   0  0  0  0  0  0
  -22.3783  -10.9671   19.6156 H   0  0  0  0  0  0
  -21.1981   -7.6133   23.9723 H   0  0  0  0  0  0
  -21.1508   -6.0483   25.9095 H   0  0  0  0  0  0
  -22.0584   -2.7569   23.2830 H   0  0  0  0  0  0
  -22.3975  -11.9950   22.4999 H   0  0  0  0  0  0
  -21.1046  -13.1257   22.2580 H   0  0  0  0  0  0
  -24.6113  -15.8128   20.4493 H   0  0  0  0  0  0
  -26.1705  -15.5845   19.8452 H   0  0  0  0  0  0
  -26.7308  -32.5308   23.1057 H   0  0  0  0  0  0
  -24.9987  -33.9650   25.0217 H   0  0  0  0  0  0
  -22.7556  -31.2865   21.3778 H   0  0  0  0  0  0
  -23.3764  -35.9576   23.3313 H   0  0  0  0  0  0
  -24.3583  -36.8867   22.2054 H   0  0  0  0  0  0
  -23.7279  -37.6447   23.6684 H   0  0  0  0  0  0
  -26.1830  -31.4746   20.6391 H   0  0  0  0  0  0
  -26.8769  -30.7591   22.0513 H   0  0  0  0  0  0
  -28.1346  -28.7558   21.2916 H   0  0  0  0  0  0
  -25.9311  -25.8670   18.9763 H   0  0  0  0  0  0
  -23.9864  -27.3100   18.9765 H   0  0  0  0  0  0
  -23.8173  -30.5696   19.3987 H   0  0  0  0  0  0
  -22.8007  -29.2302   19.8409 H   0  0  0  0  0  0
  -25.1348  -36.1839   25.0804 H   0  0  0  0  0  0
  -21.0042  -28.3313   24.1366 H   0  0  0  0  0  0
  -20.5783  -26.2301   23.3668 H   0  0  0  0  0  0
  -21.6669  -26.7457   22.1189 H   0  0  0  0  0  0
  -19.6933  -25.6266   21.1315 H   0  0  0  0  0  0
  -19.6707  -27.3152   20.6798 H   0  0  0  0  0  0
  -17.4236  -26.6696   21.4042 H   0  0  0  0  0  0
  -18.0301  -26.0093   22.9063 H   0  0  0  0  0  0
  -19.7953  -30.7355   24.2160 H   0  0  0  0  0  0
  -17.5006  -31.6279   24.5151 H   0  0  0  0  0  0
  -15.5358  -30.2942   23.7701 H   0  0  0  0  0  0
  -15.8699  -28.0809   22.7056 H   0  0  0  0  0  0
  -24.5708  -30.7385   25.7649 H   0  0  0  0  0  0
  -24.8983  -32.3094   26.4814 H   0  0  0  0  0  0
  -25.7799  -30.8924   27.0183 H   0  0  0  0  0  0
  -26.2994  -29.6652   24.1352 H   0  0  0  0  0  0
  -27.3836  -29.7244   25.5040 H   0  0  0  0  0  0
  -27.8970  -30.4080   23.9815 H   0  0  0  0  0  0
  -27.2625  -33.3591   26.2142 H   0  0  0  0  0  0
  -28.3846  -32.6934   25.0357 H   0  0  0  0  0  0
  -28.0738  -31.8426   26.5421 H   0  0  0  0  0  0
  -28.2603  -38.0065   24.7469 H   0  0  0  0  0  0
  -28.1050  -36.2602   24.6314 H   0  0  0  0  0  0
  -27.2289  -37.1460   25.8853 H   0  0  0  0  0  0
  -20.9516  -29.8632   21.6702 H   0  0  0  0  0  0
  -26.0150  -38.2810   24.1356 H   0  0  0  0  0  0
  -26.9885  -19.9759   20.3757 H   0  0  0  0  0  0
  -31.1952  -20.5407   20.6728 H   0  0  0  0  0  0
  -27.3299  -17.5987   20.2137 H   0  0  0  0  0  0
  -31.5454  -18.1220   20.4899 H   0  0  0  0  0  0
  -25.1074  -23.5196   21.6126 H   0  0  0  0  0  0
  -25.3653  -22.1665   22.8512 H   0  0  0  0  0  0
  -26.6045  -24.9790   21.0047 H   0  0  0  0  0  0
  -27.9950  -20.8952   22.5812 H   0  0  0  0  0  0
  -28.7369  -22.4193   23.0455 H   0  0  0  0  0  0
  -28.6151  -15.5875   20.5373 H   0  0  0  0  0  0
  1 25  1  0  0  0
  1 30  2  0  0  0
  1 83  1  0  0  0
  2  3  1  0  0  0
  2 25  1  0  0  0
  2 84  1  0  0  0
  2 85  1  0  0  0
  3  4  1  0  0  0
  3 86  1  0  0  0
  3 87  1  0  0  0
  4  5  1  0  0  0
  4 88  1  0  0  0
  4 89  1  0  0  0
  5  6  1  0  0  0
  5 26  1  0  0  0
  5 90  1  0  0  0
  6 25  1  0  0  0
  6 91  1  0  0  0
  6 92  1  0  0  0
  7  8  2  0  0  0
  7 26  1  0  0  0
  7 29  1  0  0  0
  8  9  1  0  0  0
  8 22  1  0  0  0
  9 10  1  0  0  0
  9 27  2  0  0  0
 10 11  2  0  0  0
 10 15  1  0  0  0
 11 12  1  0  0  0
 11 93  1  0  0  0
 12 13  2  0  0  0
 12 94  1  0  0  0
 13 14  1  0  0  0
 13 31  1  0  0  0
 14 15  2  0  0  0
 14 95  1  0  0  0
 15 96  1  0  0  0
 16 17  2  0  0  0
 16 21  1  0  0  0
 16 31  1  0  0  0
 17 18  1  0  0  0
 17 97  1  0  0  0
 18 19  2  0  0  0
 18 98  1  0  0  0
 19 20  1  0  0  0
 19 24  1  0  0  0
 20 21  2  0  0  0
 20 99  1  0  0  0
 21 23  1  0  0  0
 22 28  1  0  0  0
 22 32  2  0  0  0
 26 27  1  0  0  0
 28100  1  0  0  0
 28101  1  0  0  0
 29102  1  0  0  0
 29103  1  0  0  0
 33 34  1  0  0  0
 33 66  1  0  0  0
 33 70  2  0  0  0
 34 36  1  0  0  0
 34 59  1  0  0  0
 34104  1  0  0  0
 35 44  2  0  0  0
 35 45  1  0  0  0
 35 68  1  0  0  0
 36 56  1  0  0  0
 36105  1  0  0  0
 37 39  1  0  0  0
 37 47  1  0  0  0
 37 66  1  0  0  0
 37106  1  0  0  0
 38 43  2  0  0  0
 38 46  1  0  0  0
 38 47  1  0  0  0
 39 64  1  0  0  0
 39 67  2  0  0  0
 40 52  1  0  0  0
 40 53  2  0  0  0
 40 58  1  0  0  0
 41107  1  0  0  0
 41108  1  0  0  0
 41109  1  0  0  0
 41 48  1  0  0  0
 42 43  1  0  0  0
 42 66  1  0  0  0
 42110  1  0  0  0
 42111  1  0  0  0
 43 44  1  0  0  0
 44112  1  0  0  0
 45 46  2  0  0  0
 45113  1  0  0  0
 46114  1  0  0  0
 47115  1  0  0  0
 47116  1  0  0  0
 48 56  1  0  0  0
 48 65  1  0  0  0
 48117  1  0  0  0
 49 50  1  0  0  0
 49 53  1  0  0  0
 49 64  1  0  0  0
 49118  1  0  0  0
 50 51  1  0  0  0
 50119  1  0  0  0
 50120  1  0  0  0
 51 52  1  0  0  0
 51121  1  0  0  0
 51122  1  0  0  0
 52123  1  0  0  0
 52124  1  0  0  0
 53 54  1  0  0  0
 54 55  2  0  0  0
 54125  1  0  0  0
 55 57  1  0  0  0
 55126  1  0  0  0
 56 69  2  0  0  0
 57 58  2  0  0  0
 57127  1  0  0  0
 58128  1  0  0  0
 59 60  1  0  0  0
 59 61  1  0  0  0
 59 62  1  0  0  0
 60129  1  0  0  0
 60130  1  0  0  0
 60131  1  0  0  0
 61132  1  0  0  0
 61133  1  0  0  0
 61134  1  0  0  0
 62135  1  0  0  0
 62136  1  0  0  0
 62137  1  0  0  0
 63 65  1  0  0  0
 63138  1  0  0  0
 63139  1  0  0  0
 63140  1  0  0  0
 64141  1  0  0  0
 65142  1  0  0  0
 68 80  1  0  0  0
 71 73  2  0  0  0
 71 75  1  0  0  0
 71143  1  0  0  0
 72 74  1  0  0  0
 72 75  2  0  0  0
 72144  1  0  0  0
 73 76  1  0  0  0
 73145  1  0  0  0
 74 76  2  0  0  0
 74146  1  0  0  0
 75 82  1  0  0  0
 76 83  1  0  0  0
 77 78  1  0  0  0
 77 79  2  0  0  0
 77 81  1  0  0  0
 78 80  2  0  0  0
 78 82  1  0  0  0
 79147  1  0  0  0
 79148  1  0  0  0
 80149  1  0  0  0
 81 82  1  0  0  0
 81150  1  0  0  0
 81151  1  0  0  0
 83152  1  0  0  0
M  ISO  4   1 100  68 101  80 101  83 100
M  END
> <chiral flag>
0

> <version>
0

> <s_m_source_file>
/data/baiqing/PycharmProjects/Reinvent-master-3.2/result/LINK_invent/BTK/process_docking_weight1_custom_product_contain_oxygen_bond_distance_aromatic_linkinvent_7_9_3/rearranged_h_0080.sdf

> <i_m_source_file_index>
12

> <r_mmod_Potential_Energy-OPLS-2005>
758.512878417969

> <r_mmod_Stretch_Energy-OPLS-2005>
249.925857543945

> <r_mmod_Bend_Energy-OPLS-2005>
390.305572509766

> <r_mmod_Torsional_Energy-OPLS-2005>
329.087341308594

> <r_mmod_Improper_Torsional_Energy-OPLS-2005>
17.091272354126

> <r_mmod_Van_der_Waal_Energy-OPLS-2005>
157.630065917969

> <r_mmod_Electrostatic_Energy-OPLS-2005>
-381.480194091797

> <r_mmod_Solvation_Energy-OPLS-2005>
-210.990295410156

> <b_mmod_Minimization_Converged-OPLS-2005>
0

> <r_mmod_RMS_Derivative-OPLS-2005>
7.8273663520813

$$$$
12
                    3D
 Structure written by MMmdl.
153162  0  0  1  0            999 V2000
  -30.6195  -14.7437   20.5594 C   0  0  0  0  0  0
  -30.4408  -12.4777   19.4717 C   0  0  0  0  0  0
  -29.5139  -12.5324   18.2360 C   0  0  0  0  0  0
  -28.0401  -12.3423   18.6431 C   0  0  0  0  0  0
  -27.6465  -13.2264   19.8533 C   0  0  2  0  0  0
  -28.6836  -13.1139   20.9863 C   0  0  0  0  0  0
  -25.2537  -13.8187   20.5684 C   0  0  0  0  0  0
  -24.1816  -13.0439   20.9184 C   0  0  0  0  0  0
  -24.6396  -11.6914   20.8722 C   0  0  0  0  0  0
  -23.9069  -10.4293   21.0398 C   0  0  0  0  0  0
  -24.3620   -9.4210   21.9178 C   0  0  0  0  0  0
  -23.6295   -8.2245   22.0751 C   0  0  0  0  0  0
  -22.4275   -8.0281   21.3543 C   0  0  0  0  0  0
  -21.9910   -9.0255   20.4645 C   0  0  0  0  0  0
  -22.7239  -10.2134   20.3052 C   0  0  0  0  0  0
  -21.6854   -6.0735   22.5279 C   0  0  0  0  0  0
  -21.4015   -6.5639   23.8212 C   0  0  0  0  0  0
  -21.3660   -5.6793   24.9174 C   0  0  0  0  0  0
  -21.6044   -4.3056   24.7224 C   0  0  0  0  0  0
  -21.8820   -3.8146   23.4346 C   0  0  0  0  0  0
  -21.9193   -4.6963   22.3404 C   0  0  0  0  0  0
  -22.7838  -13.5225   21.1860 C   0  0  0  0  0  0
  -22.1661   -4.2149   21.0982 F   0  0  0  0  0  0
  -21.5628   -3.4541   25.7736 F   0  0  0  0  0  0
  -29.9936  -13.5115   20.4406 N   0  0  0  0  0  0
  -26.2952  -12.9379   20.3252 N   0  0  0  0  0  0
  -25.9321  -11.6525   20.5709 N   0  0  0  0  0  0
  -22.0490  -12.8214   22.0423 N   0  0  0  0  0  0
  -25.4258  -15.1913   20.4153 N   0  0  0  0  0  0
  -31.7269  -14.9086   20.0352 O   0  0  0  0  0  0
  -21.6640   -6.8878   21.4240 O   0  0  0  0  0  0
  -22.3516  -14.5530   20.6709 O   0  0  0  0  0  0
  -24.6327  -31.8543   23.1978 C   0  0  0  0  0  0
  -25.9146  -32.4751   23.8330 C   0  0  1  0  0  0
  -27.2220  -27.2556   20.1293 C   0  0  0  0  0  0
  -25.5936  -33.8553   24.2252 N   0  0  0  0  0  0
  -23.4312  -30.4762   21.5410 C   0  0  2  0  0  0
  -24.8821  -28.9238   20.1088 C   0  0  0  0  0  0
  -22.7517  -29.4592   22.4903 C   0  0  0  0  0  0
  -18.0296  -28.1383   22.8483 C   0  0  0  0  0  0
  -24.1491  -36.7281   23.2638 C   0  0  0  0  0  0
  -25.9788  -30.7641   21.3812 C   0  0  0  0  0  0
  -26.0547  -29.3862   20.7226 C   0  0  0  0  0  0
  -27.2305  -28.5638   20.7249 C   0  0  0  0  0  0
  -26.0309  -26.8672   19.4802 C   0  0  0  0  0  0
  -24.8753  -27.6717   19.4759 C   0  0  0  0  0  0
  -23.6521  -29.8110   20.1573 C   0  0  0  0  0  0
  -25.4117  -36.3067   24.0326 C   0  0  1  0  0  0
  -20.5903  -28.3698   23.1261 C   0  0  2  0  0  0
  -20.6784  -26.9413   22.5404 C   0  0  0  0  0  0
  -19.5756  -26.6380   21.5211 C   0  0  0  0  0  0
  -18.1939  -26.7923   22.1628 C   0  0  0  0  0  0
  -19.1551  -28.8858   23.2866 C   0  0  0  0  0  0
  -18.9471  -30.1459   23.8884 C   0  0  0  0  0  0
  -17.6469  -30.6584   24.0560 C   0  0  0  0  0  0
  -25.9060  -34.9438   23.5092 C   0  0  0  0  0  0
  -16.5360  -29.9079   23.6331 C   0  0  0  0  0  0
  -16.7283  -28.6497   23.0353 C   0  0  0  0  0  0
  -26.4508  -31.6578   25.0723 C   0  0  0  0  0  0
  -25.3725  -31.3736   26.1438 C   0  0  0  0  0  0
  -27.0359  -30.2991   24.6223 C   0  0  0  0  0  0
  -27.6056  -32.4324   25.7498 C   0  0  0  0  0  0
  -27.5581  -37.1793   24.8464 C   0  0  0  0  0  0
  -21.4221  -29.3042   22.3647 N   0  0  0  0  0  0
  -26.4289  -37.3769   23.9412 N   0  0  0  0  0  0
  -24.6998  -31.0495   22.0962 N   0  0  0  0  0  0
  -23.4209  -28.8133   23.3009 O   0  0  0  0  0  0
  -28.2678  -26.3005   20.1734 O   0  0  0  0  0  0
  -26.5635  -34.8916   22.4664 O   0  0  0  0  0  0
  -23.5472  -32.1370   23.7261 O   0  0  0  0  0  0
  -28.4685  -19.3273   21.5076 C   0  0  0  0  0  0
  -30.1320  -19.4708   19.8643 C   0  0  0  0  0  0
  -28.7247  -17.9284   21.6594 C   0  0  0  0  0  0
  -30.4007  -18.0502   19.9968 C   0  0  0  0  0  0
  -29.1584  -20.2093   20.6241 C   0  0  0  0  0  0
  -29.7198  -17.2103   20.9337 C   0  0  0  0  0  0
  -28.4015  -23.7095   20.5763 C   0  0  0  0  0  0
  -27.8937  -22.5196   21.2548 C   0  0  0  0  0  0
  -27.9348  -25.0209   20.7181 C   0  0  0  0  0  0
  -29.4405  -22.7979   19.8481 C   0  0  0  0  0  0
  -29.9502  -15.5070   22.7308 C   0  0  0  0  0  0
  -28.8072  -21.6668   20.5966 N   0  0  0  0  0  0
  -30.0022  -15.7716   21.2808 N   0  0  0  0  0  0
  -27.0129  -22.3954   22.0807 O   0  0  0  0  0  0
  -31.4781  -12.6207   19.1652 H   0  0  0  0  0  0
  -30.4073  -11.4893   19.9329 H   0  0  0  0  0  0
  -29.8031  -11.7687   17.5130 H   0  0  0  0  0  0
  -29.6325  -13.4924   17.7314 H   0  0  0  0  0  0
  -27.8999  -11.2903   18.8950 H   0  0  0  0  0  0
  -27.3824  -12.5419   17.7964 H   0  0  0  0  0  0
  -27.6555  -14.2578   19.4998 H   0  0  0  0  0  0
  -28.7261  -12.0939   21.3715 H   0  0  0  0  0  0
  -28.3643  -13.7257   21.8246 H   0  0  0  0  0  0
  -25.2766   -9.5687   22.4751 H   0  0  0  0  0  0
  -24.0004   -7.4639   22.7472 H   0  0  0  0  0  0
  -21.0839   -8.8773   19.8954 H   0  0  0  0  0  0
  -22.3694  -10.9671   19.6160 H   0  0  0  0  0  0
  -21.2010   -7.6146   23.9716 H   0  0  0  0  0  0
  -21.1482   -6.0522   25.9077 H   0  0  0  0  0  0
  -22.0599   -2.7607   23.2847 H   0  0  0  0  0  0
  -22.4109  -11.9874   22.4804 H   0  0  0  0  0  0
  -21.1110  -13.1238   22.2639 H   0  0  0  0  0  0
  -24.6657  -15.8508   20.5409 H   0  0  0  0  0  0
  -26.2887  -15.6321   20.1215 H   0  0  0  0  0  0
  -26.7211  -32.5402   23.1070 H   0  0  0  0  0  0
  -25.0069  -33.9688   25.0388 H   0  0  0  0  0  0
  -22.7279  -31.2986   21.3942 H   0  0  0  0  0  0
  -23.3757  -35.9609   23.3294 H   0  0  0  0  0  0
  -24.3581  -36.8911   22.2054 H   0  0  0  0  0  0
  -23.7242  -37.6477   23.6670 H   0  0  0  0  0  0
  -26.1204  -31.5252   20.6127 H   0  0  0  0  0  0
  -26.8546  -30.8123   22.0167 H   0  0  0  0  0  0
  -28.1255  -28.9072   21.2246 H   0  0  0  0  0  0
  -25.9818  -25.9012   18.9978 H   0  0  0  0  0  0
  -23.9792  -27.3124   18.9890 H   0  0  0  0  0  0
  -23.7774  -30.5885   19.4029 H   0  0  0  0  0  0
  -22.7703  -29.2458   19.8502 H   0  0  0  0  0  0
  -25.1300  -36.1908   25.0818 H   0  0  0  0  0  0
  -20.9996  -28.3276   24.1383 H   0  0  0  0  0  0
  -20.5684  -26.2308   23.3609 H   0  0  0  0  0  0
  -21.6651  -26.7430   22.1198 H   0  0  0  0  0  0
  -19.6918  -25.6290   21.1243 H   0  0  0  0  0  0
  -19.6689  -27.3189   20.6739 H   0  0  0  0  0  0
  -17.4205  -26.6663   21.4036 H   0  0  0  0  0  0
  -18.0347  -26.0067   22.9029 H   0  0  0  0  0  0
  -19.7948  -30.7280   24.2246 H   0  0  0  0  0  0
  -17.5022  -31.6264   24.5164 H   0  0  0  0  0  0
  -15.5360  -30.2977   23.7660 H   0  0  0  0  0  0
  -15.8684  -28.0812   22.7073 H   0  0  0  0  0  0
  -24.5888  -30.7103   25.7761 H   0  0  0  0  0  0
  -24.8932  -32.2911   26.4862 H   0  0  0  0  0  0
  -25.8029  -30.8903   27.0216 H   0  0  0  0  0  0
  -26.2948  -29.6730   24.1237 H   0  0  0  0  0  0
  -27.4024  -29.7263   25.4751 H   0  0  0  0  0  0
  -27.8836  -30.4261   23.9485 H   0  0  0  0  0  0
  -27.2659  -33.3630   26.2059 H   0  0  0  0  0  0
  -28.3874  -32.6875   25.0332 H   0  0  0  0  0  0
  -28.0715  -31.8459   26.5427 H   0  0  0  0  0  0
  -28.2589  -38.0101   24.7526 H   0  0  0  0  0  0
  -28.1088  -36.2633   24.6273 H   0  0  0  0  0  0
  -27.2300  -37.1417   25.8867 H   0  0  0  0  0  0
  -20.9410  -29.8762   21.6848 H   0  0  0  0  0  0
  -26.0166  -38.2841   24.1421 H   0  0  0  0  0  0
  -27.6919  -19.7412   22.1349 H   0  0  0  0  0  0
  -30.7223  -20.0183   19.1435 H   0  0  0  0  0  0
  -28.1218  -17.4076   22.3882 H   0  0  0  0  0  0
  -31.1835  -17.6205   19.3877 H   0  0  0  0  0  0
  -27.1164  -25.1499   21.4147 H   0  0  0  0  0  0
  -30.4911  -22.9215   20.1160 H   0  0  0  0  0  0
  -29.3364  -22.6764   18.7687 H   0  0  0  0  0  0
  -28.9233  -15.4721   23.0945 H   0  0  0  0  0  0
  -30.4678  -16.2979   23.2757 H   0  0  0  0  0  0
  -30.4264  -14.5691   23.0272 H   0  0  0  0  0  0
  1 25  1  0  0  0
  1 30  2  0  0  0
  1 83  1  0  0  0
  2  3  1  0  0  0
  2 25  1  0  0  0
  2 85  1  0  0  0
  2 86  1  0  0  0
  3  4  1  0  0  0
  3 87  1  0  0  0
  3 88  1  0  0  0
  4  5  1  0  0  0
  4 89  1  0  0  0
  4 90  1  0  0  0
  5  6  1  0  0  0
  5 26  1  0  0  0
  5 91  1  0  0  0
  6 25  1  0  0  0
  6 92  1  0  0  0
  6 93  1  0  0  0
  7  8  2  0  0  0
  7 26  1  0  0  0
  7 29  1  0  0  0
  8  9  1  0  0  0
  8 22  1  0  0  0
  9 10  1  0  0  0
  9 27  2  0  0  0
 10 11  2  0  0  0
 10 15  1  0  0  0
 11 12  1  0  0  0
 11 94  1  0  0  0
 12 13  2  0  0  0
 12 95  1  0  0  0
 13 14  1  0  0  0
 13 31  1  0  0  0
 14 15  2  0  0  0
 14 96  1  0  0  0
 15 97  1  0  0  0
 16 17  2  0  0  0
 16 21  1  0  0  0
 16 31  1  0  0  0
 17 18  1  0  0  0
 17 98  1  0  0  0
 18 19  2  0  0  0
 18 99  1  0  0  0
 19 20  1  0  0  0
 19 24  1  0  0  0
 20 21  2  0  0  0
 20100  1  0  0  0
 21 23  1  0  0  0
 22 28  1  0  0  0
 22 32  2  0  0  0
 26 27  1  0  0  0
 28101  1  0  0  0
 28102  1  0  0  0
 29103  1  0  0  0
 29104  1  0  0  0
 33 34  1  0  0  0
 33 66  1  0  0  0
 33 70  2  0  0  0
 34 36  1  0  0  0
 34 59  1  0  0  0
 34105  1  0  0  0
 35 44  2  0  0  0
 35 45  1  0  0  0
 35 68  1  0  0  0
 36 56  1  0  0  0
 36106  1  0  0  0
 37 39  1  0  0  0
 37 47  1  0  0  0
 37 66  1  0  0  0
 37107  1  0  0  0
 38 43  2  0  0  0
 38 46  1  0  0  0
 38 47  1  0  0  0
 39 64  1  0  0  0
 39 67  2  0  0  0
 40 52  1  0  0  0
 40 53  2  0  0  0
 40 58  1  0  0  0
 41108  1  0  0  0
 41109  1  0  0  0
 41110  1  0  0  0
 41 48  1  0  0  0
 42 43  1  0  0  0
 42 66  1  0  0  0
 42111  1  0  0  0
 42112  1  0  0  0
 43 44  1  0  0  0
 44113  1  0  0  0
 45 46  2  0  0  0
 45114  1  0  0  0
 46115  1  0  0  0
 47116  1  0  0  0
 47117  1  0  0  0
 48 56  1  0  0  0
 48 65  1  0  0  0
 48118  1  0  0  0
 49 50  1  0  0  0
 49 53  1  0  0  0
 49 64  1  0  0  0
 49119  1  0  0  0
 50 51  1  0  0  0
 50120  1  0  0  0
 50121  1  0  0  0
 51 52  1  0  0  0
 51122  1  0  0  0
 51123  1  0  0  0
 52124  1  0  0  0
 52125  1  0  0  0
 53 54  1  0  0  0
 54 55  2  0  0  0
 54126  1  0  0  0
 55 57  1  0  0  0
 55127  1  0  0  0
 56 69  2  0  0  0
 57 58  2  0  0  0
 57128  1  0  0  0
 58129  1  0  0  0
 59 60  1  0  0  0
 59 61  1  0  0  0
 59 62  1  0  0  0
 60130  1  0  0  0
 60131  1  0  0  0
 60132  1  0  0  0
 61133  1  0  0  0
 61134  1  0  0  0
 61135  1  0  0  0
 62136  1  0  0  0
 62137  1  0  0  0
 62138  1  0  0  0
 63 65  1  0  0  0
 63139  1  0  0  0
 63140  1  0  0  0
 63141  1  0  0  0
 64142  1  0  0  0
 65143  1  0  0  0
 68 79  1  0  0  0
 71 73  2  0  0  0
 71 75  1  0  0  0
 71144  1  0  0  0
 72 74  1  0  0  0
 72 75  2  0  0  0
 72145  1  0  0  0
 73 76  1  0  0  0
 73146  1  0  0  0
 74 76  2  0  0  0
 74147  1  0  0  0
 75 82  1  0  0  0
 76 83  1  0  0  0
 77 78  1  0  0  0
 77 79  2  0  0  0
 77 80  1  0  0  0
 78 82  1  0  0  0
 78 84  2  0  0  0
 79148  1  0  0  0
 80 82  1  0  0  0
 80149  1  0  0  0
 80150  1  0  0  0
 81 83  1  0  0  0
 81151  1  0  0  0
 81152  1  0  0  0
 81153  1  0  0  0
M  ISO  4   1 100  68 101  79 101  83 100
M  END
> <chiral flag>
0

> <version>
0

> <s_m_source_file>
/data/baiqing/PycharmProjects/Reinvent-master-3.2/result/LINK_invent/BTK/process_docking_weight1_custom_product_contain_oxygen_bond_distance_aromatic_linkinvent_7_9_3/rearranged_h_0080.sdf

> <i_m_source_file_index>
13

> <r_mmod_Potential_Energy-OPLS-2005>
417.577972412109

> <r_mmod_Stretch_Energy-OPLS-2005>
124.389739990234

> <r_mmod_Bend_Energy-OPLS-2005>
278.238494873047

> <r_mmod_Torsional_Energy-OPLS-2005>
292.219543457031

> <r_mmod_Improper_Torsional_Energy-OPLS-2005>
2.90872621536255

> <r_mmod_Van_der_Waal_Energy-OPLS-2005>
144.656921386719

> <r_mmod_Electrostatic_Energy-OPLS-2005>
-315.148071289062

> <r_mmod_Solvation_Energy-OPLS-2005>
-199.283325195312

> <b_mmod_Minimization_Converged-OPLS-2005>
0

> <r_mmod_RMS_Derivative-OPLS-2005>
0.436084657907486

$$$$
13
                    3D
 Structure written by MMmdl.
155164  0  0  1  0            999 V2000
  -30.5713  -14.9575   20.4946 C   0  0  0  0  0  0
  -30.4434  -12.6097   19.5073 C   0  0  0  0  0  0
  -29.5236  -12.5643   18.2629 C   0  0  0  0  0  0
  -28.0542  -12.3483   18.6686 C   0  0  0  0  0  0
  -27.6361  -13.2584   19.8512 C   0  0  2  0  0  0
  -28.6755  -13.2553   20.9901 C   0  0  0  0  0  0
  -25.2472  -13.8269   20.5744 C   0  0  0  0  0  0
  -24.1781  -13.0463   20.9209 C   0  0  0  0  0  0
  -24.6413  -11.6956   20.8734 C   0  0  0  0  0  0
  -23.9099  -10.4300   21.0401 C   0  0  0  0  0  0
  -24.3654   -9.4196   21.9157 C   0  0  0  0  0  0
  -23.6301   -8.2243   22.0743 C   0  0  0  0  0  0
  -22.4290   -8.0281   21.3532 C   0  0  0  0  0  0
  -21.9938   -9.0256   20.4638 C   0  0  0  0  0  0
  -22.7287  -10.2131   20.3040 C   0  0  0  0  0  0
  -21.6864   -6.0729   22.5272 C   0  0  0  0  0  0
  -21.4017   -6.5626   23.8205 C   0  0  0  0  0  0
  -21.3667   -5.6768   24.9168 C   0  0  0  0  0  0
  -21.6052   -4.3040   24.7212 C   0  0  0  0  0  0
  -21.8821   -3.8140   23.4330 C   0  0  0  0  0  0
  -21.9199   -4.6960   22.3391 C   0  0  0  0  0  0
  -22.7804  -13.5213   21.1874 C   0  0  0  0  0  0
  -22.1667   -4.2154   21.0967 F   0  0  0  0  0  0
  -21.5627   -3.4521   25.7726 F   0  0  0  0  0  0
  -29.9643  -13.6923   20.4214 N   0  0  0  0  0  0
  -26.2918  -12.9514   20.3318 N   0  0  0  0  0  0
  -25.9360  -11.6634   20.5746 N   0  0  0  0  0  0
  -22.0473  -12.8177   22.0418 N   0  0  0  0  0  0
  -25.4149  -15.2002   20.4208 N   0  0  0  0  0  0
  -31.6995  -15.0572   19.9990 O   0  0  0  0  0  0
  -21.6638   -6.8882   21.4237 O   0  0  0  0  0  0
  -22.3473  -14.5526   20.6747 O   0  0  0  0  0  0
  -24.6438  -31.8428   23.1901 C   0  0  0  0  0  0
  -25.9204  -32.4684   23.8287 C   0  0  1  0  0  0
  -27.2206  -27.1241   20.1394 C   0  0  0  0  0  0
  -25.5929  -33.8492   24.2188 N   0  0  0  0  0  0
  -23.4498  -30.4637   21.5351 C   0  0  2  0  0  0
  -24.9027  -28.8978   20.1066 C   0  0  0  0  0  0
  -22.7586  -29.4530   22.4866 C   0  0  0  0  0  0
  -18.0301  -28.1376   22.8494 C   0  0  0  0  0  0
  -24.1511  -36.7267   23.2652 C   0  0  0  0  0  0
  -26.0079  -30.7133   21.3931 C   0  0  0  0  0  0
  -26.0813  -29.3240   20.7325 C   0  0  0  0  0  0
  -27.2380  -28.4509   20.7407 C   0  0  0  0  0  0
  -26.0057  -26.8070   19.4844 C   0  0  0  0  0  0
  -24.8795  -27.6527   19.4662 C   0  0  0  0  0  0
  -23.6788  -29.7981   20.1527 C   0  0  0  0  0  0
  -25.4132  -36.3025   24.0315 C   0  0  1  0  0  0
  -20.5924  -28.3711   23.1239 C   0  0  2  0  0  0
  -20.6785  -26.9412   22.5417 C   0  0  0  0  0  0
  -19.5759  -26.6372   21.5222 C   0  0  0  0  0  0
  -18.1943  -26.7914   22.1641 C   0  0  0  0  0  0
  -19.1563  -28.8868   23.2854 C   0  0  0  0  0  0
  -18.9477  -30.1471   23.8870 C   0  0  0  0  0  0
  -17.6474  -30.6580   24.0562 C   0  0  0  0  0  0
  -25.9081  -34.9399   23.5064 C   0  0  0  0  0  0
  -16.5362  -29.9079   23.6331 C   0  0  0  0  0  0
  -16.7287  -28.6496   23.0351 C   0  0  0  0  0  0
  -26.4523  -31.6555   25.0736 C   0  0  0  0  0  0
  -25.3701  -31.3733   26.1434 C   0  0  0  0  0  0
  -27.0396  -30.2951   24.6300 C   0  0  0  0  0  0
  -27.6045  -32.4334   25.7507 C   0  0  0  0  0  0
  -27.5569  -37.1810   24.8455 C   0  0  0  0  0  0
  -21.4282  -29.3035   22.3622 N   0  0  0  0  0  0
  -26.4293  -37.3734   23.9391 N   0  0  0  0  0  0
  -24.7207  -31.0275   22.0942 N   0  0  0  0  0  0
  -23.4242  -28.8071   23.3003 O   0  0  0  0  0  0
  -28.2389  -26.0919   20.2368 O   0  0  0  0  0  0
  -26.5701  -34.8883   22.4666 O   0  0  0  0  0  0
  -23.5550  -32.1302   23.7104 O   0  0  0  0  0  0
  -29.5097  -19.7414   19.4309 C   0  0  0  0  0  0
  -29.0325  -19.9369   21.6758 C   0  0  0  0  0  0
  -29.8286  -18.3138   19.5982 C   0  0  0  0  0  0
  -29.3502  -18.5331   21.8619 C   0  0  0  0  0  0
  -29.0337  -20.6739   20.4459 C   0  0  0  0  0  0
  -29.7444  -17.5881   20.8423 C   0  0  0  0  0  0
  -27.6472  -22.7145   18.5959 C   0  0  0  0  0  0
  -28.2036  -23.4185   19.5857 C   0  0  0  0  0  0
  -27.2359  -22.8951   17.3276 C   0  0  0  0  0  0
  -28.1360  -24.8510   19.4725 C   0  0  0  0  0  0
  -27.2693  -21.6744   19.5848 C   0  0  0  0  0  0
  -29.9279  -15.7981   22.6102 C   0  0  0  0  0  0
  -28.4534  -22.1192   20.3504 N   0  0  0  0  0  0
  -29.9655  -16.0730   21.1618 N   0  0  0  0  0  0
  -31.4746  -12.7695   19.1925 H   0  0  0  0  0  0
  -30.4463  -11.6497   20.0265 H   0  0  0  0  0  0
  -29.8414  -11.7751   17.5815 H   0  0  0  0  0  0
  -29.6127  -13.5016   17.7103 H   0  0  0  0  0  0
  -27.9334  -11.3004   18.9441 H   0  0  0  0  0  0
  -27.3977  -12.5167   17.8149 H   0  0  0  0  0  0
  -27.6088  -14.2743   19.4530 H   0  0  0  0  0  0
  -28.7622  -12.2670   21.4430 H   0  0  0  0  0  0
  -28.3363  -13.9195   21.7838 H   0  0  0  0  0  0
  -25.2787   -9.5672   22.4748 H   0  0  0  0  0  0
  -24.0009   -7.4636   22.7463 H   0  0  0  0  0  0
  -21.0877   -8.8783   19.8924 H   0  0  0  0  0  0
  -22.3740  -10.9674   19.6161 H   0  0  0  0  0  0
  -21.1991   -7.6128   23.9726 H   0  0  0  0  0  0
  -21.1513   -6.0482   25.9078 H   0  0  0  0  0  0
  -22.0604   -2.7604   23.2816 H   0  0  0  0  0  0
  -22.4104  -11.9828   22.4760 H   0  0  0  0  0  0
  -21.1088  -13.1188   22.2645 H   0  0  0  0  0  0
  -24.6525  -15.8595   20.5412 H   0  0  0  0  0  0
  -26.2817  -15.6445   20.1468 H   0  0  0  0  0  0
  -26.7283  -32.5300   23.1030 H   0  0  0  0  0  0
  -24.9962  -33.9601   25.0251 H   0  0  0  0  0  0
  -22.7508  -31.2893   21.3818 H   0  0  0  0  0  0
  -23.3747  -35.9624   23.3296 H   0  0  0  0  0  0
  -24.3606  -36.8927   22.2072 H   0  0  0  0  0  0
  -23.7307  -37.6472   23.6706 H   0  0  0  0  0  0
  -26.1647  -31.4690   20.6227 H   0  0  0  0  0  0
  -26.8783  -30.7662   22.0347 H   0  0  0  0  0  0
  -28.1271  -28.7664   21.2693 H   0  0  0  0  0  0
  -25.8656  -25.8477   19.0081 H   0  0  0  0  0  0
  -23.9785  -27.3207   18.9678 H   0  0  0  0  0  0
  -23.8092  -30.5739   19.3966 H   0  0  0  0  0  0
  -22.7959  -29.2379   19.8419 H   0  0  0  0  0  0
  -25.1336  -36.1849   25.0808 H   0  0  0  0  0  0
  -21.0001  -28.3281   24.1367 H   0  0  0  0  0  0
  -20.5658  -26.2324   23.3637 H   0  0  0  0  0  0
  -21.6645  -26.7399   22.1224 H   0  0  0  0  0  0
  -19.6901  -25.6277   21.1265 H   0  0  0  0  0  0
  -19.6665  -27.3172   20.6739 H   0  0  0  0  0  0
  -17.4203  -26.6659   21.4052 H   0  0  0  0  0  0
  -18.0341  -26.0057   22.9037 H   0  0  0  0  0  0
  -19.7948  -30.7308   24.2212 H   0  0  0  0  0  0
  -17.5011  -31.6247   24.5182 H   0  0  0  0  0  0
  -15.5357  -30.2967   23.7644 H   0  0  0  0  0  0
  -15.8694  -28.0799   22.7066 H   0  0  0  0  0  0
  -24.5888  -30.7075   25.7756 H   0  0  0  0  0  0
  -24.8886  -32.2913   26.4808 H   0  0  0  0  0  0
  -25.7981  -30.8940   27.0247 H   0  0  0  0  0  0
  -26.3018  -29.6681   24.1282 H   0  0  0  0  0  0
  -27.4019  -29.7232   25.4854 H   0  0  0  0  0  0
  -27.8913  -30.4210   23.9613 H   0  0  0  0  0  0
  -27.2621  -33.3647   26.2020 H   0  0  0  0  0  0
  -28.3858  -32.6891   25.0340 H   0  0  0  0  0  0
  -28.0707  -31.8522   26.5473 H   0  0  0  0  0  0
  -28.2590  -38.0101   24.7472 H   0  0  0  0  0  0
  -28.1067  -36.2633   24.6316 H   0  0  0  0  0  0
  -27.2287  -37.1495   25.8860 H   0  0  0  0  0  0
  -20.9485  -29.8769   21.6823 H   0  0  0  0  0  0
  -26.0143  -38.2804   24.1347 H   0  0  0  0  0  0
  -29.5759  -20.1271   18.4228 H   0  0  0  0  0  0
  -28.7183  -20.4764   22.5575 H   0  0  0  0  0  0
  -30.1249  -17.7666   18.7149 H   0  0  0  0  0  0
  -29.2485  -18.2006   22.8814 H   0  0  0  0  0  0
  -26.6482  -22.1434   16.8212 H   0  0  0  0  0  0
  -27.4804  -23.7887   16.7736 H   0  0  0  0  0  0
  -27.8282  -25.1818   18.4911 H   0  0  0  0  0  0
  -27.1864  -20.6553   19.1990 H   0  0  0  0  0  0
  -26.3534  -21.8731   20.1494 H   0  0  0  0  0  0
  -30.6646  -16.4188   23.1232 H   0  0  0  0  0  0
  -30.1649  -14.7717   22.9004 H   0  0  0  0  0  0
  -28.9406  -16.0106   23.0204 H   0  0  0  0  0  0
  1 25  1  0  0  0
  1 30  2  0  0  0
  1 84  1  0  0  0
  2  3  1  0  0  0
  2 25  1  0  0  0
  2 85  1  0  0  0
  2 86  1  0  0  0
  3  4  1  0  0  0
  3 87  1  0  0  0
  3 88  1  0  0  0
  4  5  1  0  0  0
  4 89  1  0  0  0
  4 90  1  0  0  0
  5  6  1  0  0  0
  5 26  1  0  0  0
  5 91  1  0  0  0
  6 25  1  0  0  0
  6 92  1  0  0  0
  6 93  1  0  0  0
  7  8  2  0  0  0
  7 26  1  0  0  0
  7 29  1  0  0  0
  8  9  1  0  0  0
  8 22  1  0  0  0
  9 10  1  0  0  0
  9 27  2  0  0  0
 10 11  2  0  0  0
 10 15  1  0  0  0
 11 12  1  0  0  0
 11 94  1  0  0  0
 12 13  2  0  0  0
 12 95  1  0  0  0
 13 14  1  0  0  0
 13 31  1  0  0  0
 14 15  2  0  0  0
 14 96  1  0  0  0
 15 97  1  0  0  0
 16 17  2  0  0  0
 16 21  1  0  0  0
 16 31  1  0  0  0
 17 18  1  0  0  0
 17 98  1  0  0  0
 18 19  2  0  0  0
 18 99  1  0  0  0
 19 20  1  0  0  0
 19 24  1  0  0  0
 20 21  2  0  0  0
 20100  1  0  0  0
 21 23  1  0  0  0
 22 28  1  0  0  0
 22 32  2  0  0  0
 26 27  1  0  0  0
 28101  1  0  0  0
 28102  1  0  0  0
 29103  1  0  0  0
 29104  1  0  0  0
 33 34  1  0  0  0
 33 66  1  0  0  0
 33 70  2  0  0  0
 34 36  1  0  0  0
 34 59  1  0  0  0
 34105  1  0  0  0
 35 44  2  0  0  0
 35 45  1  0  0  0
 35 68  1  0  0  0
 36 56  1  0  0  0
 36106  1  0  0  0
 37 39  1  0  0  0
 37 47  1  0  0  0
 37 66  1  0  0  0
 37107  1  0  0  0
 38 43  2  0  0  0
 38 46  1  0  0  0
 38 47  1  0  0  0
 39 64  1  0  0  0
 39 67  2  0  0  0
 40 52  1  0  0  0
 40 53  2  0  0  0
 40 58  1  0  0  0
 41108  1  0  0  0
 41109  1  0  0  0
 41110  1  0  0  0
 41 48  1  0  0  0
 42 43  1  0  0  0
 42 66  1  0  0  0
 42111  1  0  0  0
 42112  1  0  0  0
 43 44  1  0  0  0
 44113  1  0  0  0
 45 46  2  0  0  0
 45114  1  0  0  0
 46115  1  0  0  0
 47116  1  0  0  0
 47117  1  0  0  0
 48 56  1  0  0  0
 48 65  1  0  0  0
 48118  1  0  0  0
 49 50  1  0  0  0
 49 53  1  0  0  0
 49 64  1  0  0  0
 49119  1  0  0  0
 50 51  1  0  0  0
 50120  1  0  0  0
 50121  1  0  0  0
 51 52  1  0  0  0
 51122  1  0  0  0
 51123  1  0  0  0
 52124  1  0  0  0
 52125  1  0  0  0
 53 54  1  0  0  0
 54 55  2  0  0  0
 54126  1  0  0  0
 55 57  1  0  0  0
 55127  1  0  0  0
 56 69  2  0  0  0
 57 58  2  0  0  0
 57128  1  0  0  0
 58129  1  0  0  0
 59 60  1  0  0  0
 59 61  1  0  0  0
 59 62  1  0  0  0
 60130  1  0  0  0
 60131  1  0  0  0
 60132  1  0  0  0
 61133  1  0  0  0
 61134  1  0  0  0
 61135  1  0  0  0
 62136  1  0  0  0
 62137  1  0  0  0
 62138  1  0  0  0
 63 65  1  0  0  0
 63139  1  0  0  0
 63140  1  0  0  0
 63141  1  0  0  0
 64142  1  0  0  0
 65143  1  0  0  0
 68 80  1  0  0  0
 71 73  2  0  0  0
 71 75  1  0  0  0
 71144  1  0  0  0
 72 74  1  0  0  0
 72 75  2  0  0  0
 72145  1  0  0  0
 73 76  1  0  0  0
 73146  1  0  0  0
 74 76  2  0  0  0
 74147  1  0  0  0
 75 83  1  0  0  0
 76 84  1  0  0  0
 77 78  1  0  0  0
 77 79  2  0  0  0
 77 81  1  0  0  0
 78 80  2  0  0  0
 78 83  1  0  0  0
 79148  1  0  0  0
 79149  1  0  0  0
 80150  1  0  0  0
 81 83  1  0  0  0
 81151  1  0  0  0
 81152  1  0  0  0
 82 84  1  0  0  0
 82153  1  0  0  0
 82154  1  0  0  0
 82155  1  0  0  0
M  ISO  4   1 100  68 101  80 101  84 100
M  END
> <chiral flag>
0

> <version>
0

> <s_m_source_file>
/data/baiqing/PycharmProjects/Reinvent-master-3.2/result/LINK_invent/BTK/process_docking_weight1_custom_product_contain_oxygen_bond_distance_aromatic_linkinvent_7_9_3/rearranged_h_0080.sdf

> <i_m_source_file_index>
14

> <r_mmod_Potential_Energy-OPLS-2005>
963.927185058594

> <r_mmod_Stretch_Energy-OPLS-2005>
282.679229736328

> <r_mmod_Bend_Energy-OPLS-2005>
420.487426757812

> <r_mmod_Torsional_Energy-OPLS-2005>
373.367431640625

> <r_mmod_Improper_Torsional_Energy-OPLS-2005>
13.2641019821167

> <r_mmod_Van_der_Waal_Energy-OPLS-2005>
171.801818847656

> <r_mmod_Electrostatic_Energy-OPLS-2005>
-304.586669921875

> <r_mmod_Solvation_Energy-OPLS-2005>
-196.661499023438

> <b_mmod_Minimization_Converged-OPLS-2005>
0

> <r_mmod_RMS_Derivative-OPLS-2005>
2.7248547077179

$$$$
14
                    3D
 Structure written by MMmdl.
150159  0  0  1  0            999 V2000
  -30.5692  -14.7421   20.4850 C   0  0  0  0  0  0
  -30.4511  -12.4556   19.4667 C   0  0  0  0  0  0
  -29.5167  -12.5196   18.2354 C   0  0  0  0  0  0
  -28.0415  -12.3384   18.6472 C   0  0  0  0  0  0
  -27.6514  -13.2208   19.8618 C   0  0  2  0  0  0
  -28.6968  -13.1055   20.9942 C   0  0  0  0  0  0
  -25.2559  -13.8174   20.5689 C   0  0  0  0  0  0
  -24.1830  -13.0437   20.9196 C   0  0  0  0  0  0
  -24.6401  -11.6907   20.8741 C   0  0  0  0  0  0
  -23.9068  -10.4291   21.0407 C   0  0  0  0  0  0
  -24.3618   -9.4205   21.9186 C   0  0  0  0  0  0
  -23.6292   -8.2241   22.0755 C   0  0  0  0  0  0
  -22.4275   -8.0280   21.3543 C   0  0  0  0  0  0
  -21.9909   -9.0255   20.4647 C   0  0  0  0  0  0
  -22.7237  -10.2136   20.3058 C   0  0  0  0  0  0
  -21.6853   -6.0734   22.5277 C   0  0  0  0  0  0
  -21.4013   -6.5638   23.8211 C   0  0  0  0  0  0
  -21.3661   -5.6792   24.9174 C   0  0  0  0  0  0
  -21.6046   -4.3055   24.7226 C   0  0  0  0  0  0
  -21.8819   -3.8144   23.4347 C   0  0  0  0  0  0
  -21.9194   -4.6961   22.3402 C   0  0  0  0  0  0
  -22.7851  -13.5229   21.1858 C   0  0  0  0  0  0
  -22.1663   -4.2146   21.0980 F   0  0  0  0  0  0
  -21.5630   -3.4539   25.7739 F   0  0  0  0  0  0
  -30.0028  -13.4861   20.4307 N   0  0  0  0  0  0
  -26.2984  -12.9356   20.3309 N   0  0  0  0  0  0
  -25.9333  -11.6509   20.5755 N   0  0  0  0  0  0
  -22.0493  -12.8223   22.0415 N   0  0  0  0  0  0
  -25.4275  -15.1895   20.4100 N   0  0  0  0  0  0
  -31.7264  -14.9244   20.0924 O   0  0  0  0  0  0
  -21.6639   -6.8876   21.4239 O   0  0  0  0  0  0
  -22.3536  -14.5535   20.6704 O   0  0  0  0  0  0
  -24.6314  -31.8549   23.1984 C   0  0  0  0  0  0
  -25.9134  -32.4756   23.8333 C   0  0  1  0  0  0
  -27.2250  -27.2670   20.1294 C   0  0  0  0  0  0
  -25.5927  -33.8558   24.2257 N   0  0  0  0  0  0
  -23.4299  -30.4768   21.5412 C   0  0  2  0  0  0
  -24.8813  -28.9255   20.1089 C   0  0  0  0  0  0
  -22.7508  -29.4598   22.4904 C   0  0  0  0  0  0
  -18.0293  -28.1387   22.8484 C   0  0  0  0  0  0
  -24.1489  -36.7287   23.2640 C   0  0  0  0  0  0
  -25.9762  -30.7685   21.3801 C   0  0  0  0  0  0
  -26.0527  -29.3913   20.7223 C   0  0  0  0  0  0
  -27.2303  -28.5734   20.7248 C   0  0  0  0  0  0
  -26.0356  -26.8726   19.4803 C   0  0  0  0  0  0
  -24.8772  -27.6731   19.4764 C   0  0  0  0  0  0
  -23.6501  -29.8107   20.1576 C   0  0  0  0  0  0
  -25.4115  -36.3072   24.0326 C   0  0  1  0  0  0
  -20.5898  -28.3700   23.1263 C   0  0  2  0  0  0
  -20.6781  -26.9416   22.5405 C   0  0  0  0  0  0
  -19.5756  -26.6381   21.5211 C   0  0  0  0  0  0
  -18.1937  -26.7927   22.1628 C   0  0  0  0  0  0
  -19.1547  -28.8861   23.2868 C   0  0  0  0  0  0
  -18.9469  -30.1460   23.8888 C   0  0  0  0  0  0
  -17.6468  -30.6588   24.0562 C   0  0  0  0  0  0
  -25.9054  -34.9440   23.5096 C   0  0  0  0  0  0
  -16.5358  -29.9085   23.6332 C   0  0  0  0  0  0
  -16.7280  -28.6503   23.0354 C   0  0  0  0  0  0
  -26.4501  -31.6579   25.0723 C   0  0  0  0  0  0
  -25.3721  -31.3735   26.1441 C   0  0  0  0  0  0
  -27.0351  -30.2993   24.6217 C   0  0  0  0  0  0
  -27.6049  -32.4325   25.7499 C   0  0  0  0  0  0
  -27.5577  -37.1802   24.8467 C   0  0  0  0  0  0
  -21.4213  -29.3046   22.3649 N   0  0  0  0  0  0
  -26.4294  -37.3768   23.9402 N   0  0  0  0  0  0
  -24.6980  -31.0509   22.0963 N   0  0  0  0  0  0
  -23.4201  -28.8136   23.3008 O   0  0  0  0  0  0
  -28.2753  -26.3204   20.1787 O   0  0  0  0  0  0
  -26.5632  -34.8914   22.4668 O   0  0  0  0  0  0
  -23.5459  -32.1370   23.7272 O   0  0  0  0  0  0
  -28.4147  -19.3382   21.3791 C   0  0  0  0  0  0
  -28.6190  -17.9253   21.4410 C   0  0  0  0  0  0
  -30.5052  -18.1406   20.0189 C   0  0  0  0  0  0
  -29.2142  -20.2597   20.6377 C   0  0  0  0  0  0
  -29.6714  -17.2542   20.7664 C   0  0  0  0  0  0
  -30.2800  -19.5711   19.9586 C   0  0  0  0  0  0
  -28.4329  -23.7445   20.6059 C   0  0  0  0  0  0
  -27.9293  -22.5503   21.2765 C   0  0  0  0  0  0
  -27.9469  -25.0473   20.7329 C   0  0  0  0  0  0
  -29.4929  -22.8503   19.8929 C   0  0  0  0  0  0
  -28.8819  -21.7191   20.6560 N   0  0  0  0  0  0
  -29.7268  -15.7694   20.8755 N   0  0  0  0  0  0
  -27.0121  -22.4075   22.0586 O   0  0  0  0  0  0
  -31.1316  -20.3109   19.2077 F   0  0  0  0  0  0
  -31.4873  -12.6086   19.1603 H   0  0  0  0  0  0
  -30.4187  -11.4666   19.9261 H   0  0  0  0  0  0
  -29.7977  -11.7565   17.5082 H   0  0  0  0  0  0
  -29.6392  -13.4802   17.7325 H   0  0  0  0  0  0
  -27.8950  -11.2863   18.8949 H   0  0  0  0  0  0
  -27.3838  -12.5451   17.8020 H   0  0  0  0  0  0
  -27.6590  -14.2508   19.5047 H   0  0  0  0  0  0
  -28.7335  -12.0856   21.3802 H   0  0  0  0  0  0
  -28.4237  -13.7328   21.8440 H   0  0  0  0  0  0
  -25.2766   -9.5679   22.4757 H   0  0  0  0  0  0
  -24.0002   -7.4631   22.7474 H   0  0  0  0  0  0
  -21.0839   -8.8773   19.8953 H   0  0  0  0  0  0
  -22.3696  -10.9675   19.6166 H   0  0  0  0  0  0
  -21.2003   -7.6146   23.9713 H   0  0  0  0  0  0
  -21.1484   -6.0523   25.9077 H   0  0  0  0  0  0
  -22.0597   -2.7606   23.2849 H   0  0  0  0  0  0
  -22.4110  -11.9886   22.4805 H   0  0  0  0  0  0
  -21.1109  -13.1249   22.2618 H   0  0  0  0  0  0
  -24.6575  -15.8417   20.5111 H   0  0  0  0  0  0
  -26.2692  -15.6257   20.0557 H   0  0  0  0  0  0
  -26.7202  -32.5412   23.1077 H   0  0  0  0  0  0
  -25.0057  -33.9692   25.0390 H   0  0  0  0  0  0
  -22.7266  -31.2991   21.3942 H   0  0  0  0  0  0
  -23.3747  -35.9625   23.3312 H   0  0  0  0  0  0
  -24.3575  -36.8900   22.2053 H   0  0  0  0  0  0
  -23.7250  -37.6494   23.6659 H   0  0  0  0  0  0
  -26.1149  -31.5293   20.6105 H   0  0  0  0  0  0
  -26.8530  -30.8180   22.0142 H   0  0  0  0  0  0
  -28.1244  -28.9185   21.2249 H   0  0  0  0  0  0
  -25.9906  -25.9060   18.9985 H   0  0  0  0  0  0
  -23.9820  -27.3108   18.9898 H   0  0  0  0  0  0
  -23.7730  -30.5874   19.4019 H   0  0  0  0  0  0
  -22.7692  -29.2432   19.8524 H   0  0  0  0  0  0
  -25.1299  -36.1923   25.0821 H   0  0  0  0  0  0
  -20.9994  -28.3282   24.1382 H   0  0  0  0  0  0
  -20.5678  -26.2313   23.3613 H   0  0  0  0  0  0
  -21.6649  -26.7436   22.1201 H   0  0  0  0  0  0
  -19.6918  -25.6290   21.1246 H   0  0  0  0  0  0
  -19.6690  -27.3187   20.6737 H   0  0  0  0  0  0
  -17.4204  -26.6666   21.4035 H   0  0  0  0  0  0
  -18.0347  -26.0071   22.9028 H   0  0  0  0  0  0
  -19.7944  -30.7279   24.2254 H   0  0  0  0  0  0
  -17.5022  -31.6267   24.5165 H   0  0  0  0  0  0
  -15.5359  -30.2987   23.7655 H   0  0  0  0  0  0
  -15.8680  -28.0818   22.7075 H   0  0  0  0  0  0
  -24.5883  -30.7104   25.7763 H   0  0  0  0  0  0
  -24.8932  -32.2912   26.4868 H   0  0  0  0  0  0
  -25.8030  -30.8900   27.0218 H   0  0  0  0  0  0
  -26.2942  -29.6738   24.1227 H   0  0  0  0  0  0
  -27.4010  -29.7259   25.4744 H   0  0  0  0  0  0
  -27.8829  -30.4260   23.9480 H   0  0  0  0  0  0
  -27.2645  -33.3622   26.2070 H   0  0  0  0  0  0
  -28.3863  -32.6891   25.0335 H   0  0  0  0  0  0
  -28.0714  -31.8458   26.5423 H   0  0  0  0  0  0
  -28.2605  -38.0089   24.7496 H   0  0  0  0  0  0
  -28.1064  -36.2619   24.6320 H   0  0  0  0  0  0
  -27.2292  -37.1482   25.8870 H   0  0  0  0  0  0
  -20.9399  -29.8771   21.6856 H   0  0  0  0  0  0
  -26.0176  -38.2846   24.1388 H   0  0  0  0  0  0
  -27.5767  -19.7268   21.9396 H   0  0  0  0  0  0
  -27.9237  -17.3468   22.0337 H   0  0  0  0  0  0
  -31.3323  -17.7308   19.4585 H   0  0  0  0  0  0
  -27.1165  -25.1720   21.4163 H   0  0  0  0  0  0
  -30.5402  -22.9998   20.1597 H   0  0  0  0  0  0
  -29.3912  -22.7119   18.8152 H   0  0  0  0  0  0
  -28.8841  -15.3800   21.2699 H   0  0  0  0  0  0
  1 25  1  0  0  0
  1 30  2  0  0  0
  1 82  1  0  0  0
  2  3  1  0  0  0
  2 25  1  0  0  0
  2 85  1  0  0  0
  2 86  1  0  0  0
  3  4  1  0  0  0
  3 87  1  0  0  0
  3 88  1  0  0  0
  4  5  1  0  0  0
  4 89  1  0  0  0
  4 90  1  0  0  0
  5  6  1  0  0  0
  5 26  1  0  0  0
  5 91  1  0  0  0
  6 25  1  0  0  0
  6 92  1  0  0  0
  6 93  1  0  0  0
  7  8  2  0  0  0
  7 26  1  0  0  0
  7 29  1  0  0  0
  8  9  1  0  0  0
  8 22  1  0  0  0
  9 10  1  0  0  0
  9 27  2  0  0  0
 10 11  2  0  0  0
 10 15  1  0  0  0
 11 12  1  0  0  0
 11 94  1  0  0  0
 12 13  2  0  0  0
 12 95  1  0  0  0
 13 14  1  0  0  0
 13 31  1  0  0  0
 14 15  2  0  0  0
 14 96  1  0  0  0
 15 97  1  0  0  0
 16 17  2  0  0  0
 16 21  1  0  0  0
 16 31  1  0  0  0
 17 18  1  0  0  0
 17 98  1  0  0  0
 18 19  2  0  0  0
 18 99  1  0  0  0
 19 20  1  0  0  0
 19 24  1  0  0  0
 20 21  2  0  0  0
 20100  1  0  0  0
 21 23  1  0  0  0
 22 28  1  0  0  0
 22 32  2  0  0  0
 26 27  1  0  0  0
 28101  1  0  0  0
 28102  1  0  0  0
 29103  1  0  0  0
 29104  1  0  0  0
 33 34  1  0  0  0
 33 66  1  0  0  0
 33 70  2  0  0  0
 34 36  1  0  0  0
 34 59  1  0  0  0
 34105  1  0  0  0
 35 44  2  0  0  0
 35 45  1  0  0  0
 35 68  1  0  0  0
 36 56  1  0  0  0
 36106  1  0  0  0
 37 39  1  0  0  0
 37 47  1  0  0  0
 37 66  1  0  0  0
 37107  1  0  0  0
 38 43  2  0  0  0
 38 46  1  0  0  0
 38 47  1  0  0  0
 39 64  1  0  0  0
 39 67  2  0  0  0
 40 52  1  0  0  0
 40 53  2  0  0  0
 40 58  1  0  0  0
 41108  1  0  0  0
 41109  1  0  0  0
 41110  1  0  0  0
 41 48  1  0  0  0
 42 43  1  0  0  0
 42 66  1  0  0  0
 42111  1  0  0  0
 42112  1  0  0  0
 43 44  1  0  0  0
 44113  1  0  0  0
 45 46  2  0  0  0
 45114  1  0  0  0
 46115  1  0  0  0
 47116  1  0  0  0
 47117  1  0  0  0
 48 56  1  0  0  0
 48 65  1  0  0  0
 48118  1  0  0  0
 49 50  1  0  0  0
 49 53  1  0  0  0
 49 64  1  0  0  0
 49119  1  0  0  0
 50 51  1  0  0  0
 50120  1  0  0  0
 50121  1  0  0  0
 51 52  1  0  0  0
 51122  1  0  0  0
 51123  1  0  0  0
 52124  1  0  0  0
 52125  1  0  0  0
 53 54  1  0  0  0
 54 55  2  0  0  0
 54126  1  0  0  0
 55 57  1  0  0  0
 55127  1  0  0  0
 56 69  2  0  0  0
 57 58  2  0  0  0
 57128  1  0  0  0
 58129  1  0  0  0
 59 60  1  0  0  0
 59 61  1  0  0  0
 59 62  1  0  0  0
 60130  1  0  0  0
 60131  1  0  0  0
 60132  1  0  0  0
 61133  1  0  0  0
 61134  1  0  0  0
 61135  1  0  0  0
 62136  1  0  0  0
 62137  1  0  0  0
 62138  1  0  0  0
 63 65  1  0  0  0
 63139  1  0  0  0
 63140  1  0  0  0
 63141  1  0  0  0
 64142  1  0  0  0
 65143  1  0  0  0
 68 79  1  0  0  0
 71 72  2  0  0  0
 71 74  1  0  0  0
 71144  1  0  0  0
 72 75  1  0  0  0
 72145  1  0  0  0
 73 75  2  0  0  0
 73 76  1  0  0  0
 73146  1  0  0  0
 74 76  2  0  0  0
 74 81  1  0  0  0
 75 82  1  0  0  0
 76 84  1  0  0  0
 77 78  1  0  0  0
 77 79  2  0  0  0
 77 80  1  0  0  0
 78 81  1  0  0  0
 78 83  2  0  0  0
 79147  1  0  0  0
 80 81  1  0  0  0
 80148  1  0  0  0
 80149  1  0  0  0
 82150  1  0  0  0
M  ISO  4   1 100  68 101  79 101  82 100
M  END
> <chiral flag>
0

> <version>
0

> <s_m_source_file>
/data/baiqing/PycharmProjects/Reinvent-master-3.2/result/LINK_invent/BTK/process_docking_weight1_custom_product_contain_oxygen_bond_distance_aromatic_linkinvent_7_9_3/rearranged_h_0080.sdf

> <i_m_source_file_index>
15

> <r_mmod_Potential_Energy-OPLS-2005>
227.970703125

> <r_mmod_Stretch_Energy-OPLS-2005>
107.681640625

> <r_mmod_Bend_Energy-OPLS-2005>
270.576690673828

> <r_mmod_Torsional_Energy-OPLS-2005>
220.03254699707

> <r_mmod_Improper_Torsional_Energy-OPLS-2005>
3.48363852500916

> <r_mmod_Van_der_Waal_Energy-OPLS-2005>
134.12727355957

> <r_mmod_Electrostatic_Energy-OPLS-2005>
-381.995819091797

> <r_mmod_Solvation_Energy-OPLS-2005>
-213.960922241211

> <b_mmod_Minimization_Converged-OPLS-2005>
0

> <r_mmod_RMS_Derivative-OPLS-2005>
0.390327841043472

$$$$
15
                    3D
 Structure written by MMmdl.
154163  0  0  1  0            999 V2000
  -30.5768  -14.7547   20.4662 C   0  0  0  0  0  0
  -30.4445  -12.4598   19.4721 C   0  0  0  0  0  0
  -29.5162  -12.5168   18.2369 C   0  0  0  0  0  0
  -28.0411  -12.3359   18.6480 C   0  0  0  0  0  0
  -27.6474  -13.2256   19.8566 C   0  0  2  0  0  0
  -28.6918  -13.1331   20.9915 C   0  0  0  0  0  0
  -25.2539  -13.8182   20.5688 C   0  0  0  0  0  0
  -24.1820  -13.0440   20.9206 C   0  0  0  0  0  0
  -24.6398  -11.6913   20.8742 C   0  0  0  0  0  0
  -23.9069  -10.4296   21.0406 C   0  0  0  0  0  0
  -24.3620   -9.4210   21.9184 C   0  0  0  0  0  0
  -23.6296   -8.2245   22.0751 C   0  0  0  0  0  0
  -22.4278   -8.0282   21.3543 C   0  0  0  0  0  0
  -21.9913   -9.0257   20.4647 C   0  0  0  0  0  0
  -22.7240  -10.2137   20.3057 C   0  0  0  0  0  0
  -21.6853   -6.0736   22.5280 C   0  0  0  0  0  0
  -21.4014   -6.5639   23.8213 C   0  0  0  0  0  0
  -21.3661   -5.6791   24.9175 C   0  0  0  0  0  0
  -21.6045   -4.3054   24.7225 C   0  0  0  0  0  0
  -21.8819   -3.8145   23.4346 C   0  0  0  0  0  0
  -21.9193   -4.6963   22.3403 C   0  0  0  0  0  0
  -22.7841  -13.5229   21.1866 C   0  0  0  0  0  0
  -22.1662   -4.2149   21.0981 F   0  0  0  0  0  0
  -21.5631   -3.4537   25.7738 F   0  0  0  0  0  0
  -29.9956  -13.5048   20.4212 N   0  0  0  0  0  0
  -26.2963  -12.9375   20.3288 N   0  0  0  0  0  0
  -25.9328  -11.6522   20.5745 N   0  0  0  0  0  0
  -22.0481  -12.8221   22.0421 N   0  0  0  0  0  0
  -25.4237  -15.1905   20.4095 N   0  0  0  0  0  0
  -31.7515  -14.9001   20.1126 O   0  0  0  0  0  0
  -21.6640   -6.8880   21.4241 O   0  0  0  0  0  0
  -22.3526  -14.5535   20.6712 O   0  0  0  0  0  0
  -24.6328  -31.8542   23.1976 C   0  0  0  0  0  0
  -25.9147  -32.4749   23.8329 C   0  0  1  0  0  0
  -27.2266  -27.2583   20.1178 C   0  0  0  0  0  0
  -25.5934  -33.8551   24.2248 N   0  0  0  0  0  0
  -23.4312  -30.4771   21.5405 C   0  0  2  0  0  0
  -24.8806  -28.9255   20.1067 C   0  0  0  0  0  0
  -22.7515  -29.4600   22.4895 C   0  0  0  0  0  0
  -18.0295  -28.1394   22.8484 C   0  0  0  0  0  0
  -24.1488  -36.7283   23.2640 C   0  0  0  0  0  0
  -25.9789  -30.7643   21.3804 C   0  0  0  0  0  0
  -26.0533  -29.3874   20.7189 C   0  0  0  0  0  0
  -27.2275  -28.5639   20.7198 C   0  0  0  0  0  0
  -26.0238  -26.8616   19.4897 C   0  0  0  0  0  0
  -24.8708  -27.6696   19.4825 C   0  0  0  0  0  0
  -23.6512  -29.8129   20.1561 C   0  0  0  0  0  0
  -25.4115  -36.3067   24.0325 C   0  0  1  0  0  0
  -20.5902  -28.3711   23.1259 C   0  0  2  0  0  0
  -20.6784  -26.9425   22.5407 C   0  0  0  0  0  0
  -19.5758  -26.6387   21.5213 C   0  0  0  0  0  0
  -18.1939  -26.7935   22.1626 C   0  0  0  0  0  0
  -19.1550  -28.8869   23.2867 C   0  0  0  0  0  0
  -18.9470  -30.1467   23.8890 C   0  0  0  0  0  0
  -17.6468  -30.6593   24.0562 C   0  0  0  0  0  0
  -25.9059  -34.9437   23.5091 C   0  0  0  0  0  0
  -16.5359  -29.9091   23.6332 C   0  0  0  0  0  0
  -16.7281  -28.6508   23.0353 C   0  0  0  0  0  0
  -26.4505  -31.6583   25.0728 C   0  0  0  0  0  0
  -25.3721  -31.3747   26.1447 C   0  0  0  0  0  0
  -27.0352  -30.2991   24.6239 C   0  0  0  0  0  0
  -27.6055  -32.4330   25.7503 C   0  0  0  0  0  0
  -27.5579  -37.1796   24.8463 C   0  0  0  0  0  0
  -21.4220  -29.3051   22.3641 N   0  0  0  0  0  0
  -26.4288  -37.3770   23.9411 N   0  0  0  0  0  0
  -24.7000  -31.0498   22.0958 N   0  0  0  0  0  0
  -23.4208  -28.8142   23.3002 O   0  0  0  0  0  0
  -28.2847  -26.3170   20.2047 O   0  0  0  0  0  0
  -26.5636  -34.8917   22.4663 O   0  0  0  0  0  0
  -23.5473  -32.1367   23.7261 O   0  0  0  0  0  0
  -28.5495  -19.5205   20.5607 C   0  0  0  0  0  0
  -30.8135  -19.4645   19.8177 C   0  0  0  0  0  0
  -28.6286  -18.1043   20.8162 C   0  0  0  0  0  0
  -30.8922  -18.0518   20.0706 C   0  0  0  0  0  0
  -29.6337  -20.2616   20.0091 C   0  0  0  0  0  0
  -29.7847  -17.3009   20.5510 C   0  0  0  0  0  0
  -28.8617  -23.6967   17.5735 C   0  0  0  0  0  0
  -29.4710  -22.6041   17.1215 C   0  0  0  0  0  0
  -28.7944  -24.0295   18.9922 C   0  0  0  0  0  0
  -29.0056  -22.8517   19.9552 C   0  0  0  0  0  0
  -28.4710  -25.3846   19.1599 C   0  0  0  0  0  0
  -30.1327  -21.6557   18.0726 C   0  0  0  0  0  0
  -29.5231  -21.6414   19.4190 N   0  0  0  0  0  0
  -29.7411  -15.8243   20.7622 N   0  0  0  0  0  0
  -28.7206  -22.9270   21.1545 O   0  0  0  0  0  0
  -31.4831  -12.6017   19.1688 H   0  0  0  0  0  0
  -30.4031  -11.4758   19.9416 H   0  0  0  0  0  0
  -29.8001  -11.7499   17.5150 H   0  0  0  0  0  0
  -29.6393  -13.4747   17.7289 H   0  0  0  0  0  0
  -27.8965  -11.2850   18.9014 H   0  0  0  0  0  0
  -27.3845  -12.5366   17.8007 H   0  0  0  0  0  0
  -27.6484  -14.2516   19.4883 H   0  0  0  0  0  0
  -28.7291  -12.1227   21.4014 H   0  0  0  0  0  0
  -28.4206  -13.7838   21.8241 H   0  0  0  0  0  0
  -25.2766   -9.5686   22.4757 H   0  0  0  0  0  0
  -24.0006   -7.4635   22.7466 H   0  0  0  0  0  0
  -21.0844   -8.8775   19.8954 H   0  0  0  0  0  0
  -22.3696  -10.9675   19.6166 H   0  0  0  0  0  0
  -21.2003   -7.6148   23.9717 H   0  0  0  0  0  0
  -21.1485   -6.0521   25.9079 H   0  0  0  0  0  0
  -22.0597   -2.7607   23.2844 H   0  0  0  0  0  0
  -22.4095  -11.9885   22.4815 H   0  0  0  0  0  0
  -21.1099  -13.1244   22.2625 H   0  0  0  0  0  0
  -24.6502  -15.8392   20.5088 H   0  0  0  0  0  0
  -26.2585  -15.6255   20.0388 H   0  0  0  0  0  0
  -26.7218  -32.5399   23.1073 H   0  0  0  0  0  0
  -25.0068  -33.9683   25.0384 H   0  0  0  0  0  0
  -22.7285  -31.3002   21.3943 H   0  0  0  0  0  0
  -23.3753  -35.9613   23.3294 H   0  0  0  0  0  0
  -24.3577  -36.8915   22.2055 H   0  0  0  0  0  0
  -23.7238  -37.6479   23.6671 H   0  0  0  0  0  0
  -26.1215  -31.5262   20.6128 H   0  0  0  0  0  0
  -26.8545  -30.8109   22.0163 H   0  0  0  0  0  0
  -28.1213  -28.9064   21.2222 H   0  0  0  0  0  0
  -25.9458  -25.8851   19.0338 H   0  0  0  0  0  0
  -23.9702  -27.3044   19.0081 H   0  0  0  0  0  0
  -23.7775  -30.5909   19.4022 H   0  0  0  0  0  0
  -22.7690  -29.2484   19.8489 H   0  0  0  0  0  0
  -25.1297  -36.1911   25.0818 H   0  0  0  0  0  0
  -20.9997  -28.3296   24.1379 H   0  0  0  0  0  0
  -20.5687  -26.2323   23.3617 H   0  0  0  0  0  0
  -21.6651  -26.7449   22.1199 H   0  0  0  0  0  0
  -19.6919  -25.6293   21.1253 H   0  0  0  0  0  0
  -19.6693  -27.3189   20.6736 H   0  0  0  0  0  0
  -17.4207  -26.6677   21.4032 H   0  0  0  0  0  0
  -18.0342  -26.0081   22.9029 H   0  0  0  0  0  0
  -19.7945  -30.7285   24.2257 H   0  0  0  0  0  0
  -17.5023  -31.6271   24.5167 H   0  0  0  0  0  0
  -15.5359  -30.2992   23.7661 H   0  0  0  0  0  0
  -15.8681  -28.0826   22.7072 H   0  0  0  0  0  0
  -24.5878  -30.7121   25.7769 H   0  0  0  0  0  0
  -24.8937  -32.2925   26.4875 H   0  0  0  0  0  0
  -25.8025  -30.8909   27.0225 H   0  0  0  0  0  0
  -26.2943  -29.6736   24.1245 H   0  0  0  0  0  0
  -27.3994  -29.7262   25.4777 H   0  0  0  0  0  0
  -27.8842  -30.4245   23.9515 H   0  0  0  0  0  0
  -27.2657  -33.3633   26.2066 H   0  0  0  0  0  0
  -28.3873  -32.6886   25.0338 H   0  0  0  0  0  0
  -28.0719  -31.8467   26.5430 H   0  0  0  0  0  0
  -28.2591  -38.0099   24.7515 H   0  0  0  0  0  0
  -28.1081  -36.2630   24.6280 H   0  0  0  0  0  0
  -27.2300  -37.1435   25.8866 H   0  0  0  0  0  0
  -20.9408  -29.8770   21.6839 H   0  0  0  0  0  0
  -26.0164  -38.2843   24.1413 H   0  0  0  0  0  0
  -27.6053  -20.0209   20.7249 H   0  0  0  0  0  0
  -31.6941  -19.9315   19.3998 H   0  0  0  0  0  0
  -27.7395  -17.6191   21.1941 H   0  0  0  0  0  0
  -31.8209  -17.5439   19.8516 H   0  0  0  0  0  0
  -28.4072  -24.3461   16.8376 H   0  0  0  0  0  0
  -29.5332  -22.3940   16.0621 H   0  0  0  0  0  0
  -28.3657  -25.9620   18.2505 H   0  0  0  0  0  0
  -31.1928  -21.9026   18.1416 H   0  0  0  0  0  0
  -30.0580  -20.6719   17.6060 H   0  0  0  0  0  0
  -28.8438  -15.4954   21.0837 H   0  0  0  0  0  0
  1 25  1  0  0  0
  1 30  2  0  0  0
  1 84  1  0  0  0
  2  3  1  0  0  0
  2 25  1  0  0  0
  2 86  1  0  0  0
  2 87  1  0  0  0
  3  4  1  0  0  0
  3 88  1  0  0  0
  3 89  1  0  0  0
  4  5  1  0  0  0
  4 90  1  0  0  0
  4 91  1  0  0  0
  5  6  1  0  0  0
  5 26  1  0  0  0
  5 92  1  0  0  0
  6 25  1  0  0  0
  6 93  1  0  0  0
  6 94  1  0  0  0
  7  8  2  0  0  0
  7 26  1  0  0  0
  7 29  1  0  0  0
  8  9  1  0  0  0
  8 22  1  0  0  0
  9 10  1  0  0  0
  9 27  2  0  0  0
 10 11  2  0  0  0
 10 15  1  0  0  0
 11 12  1  0  0  0
 11 95  1  0  0  0
 12 13  2  0  0  0
 12 96  1  0  0  0
 13 14  1  0  0  0
 13 31  1  0  0  0
 14 15  2  0  0  0
 14 97  1  0  0  0
 15 98  1  0  0  0
 16 17  2  0  0  0
 16 21  1  0  0  0
 16 31  1  0  0  0
 17 18  1  0  0  0
 17 99  1  0  0  0
 18 19  2  0  0  0
 18100  1  0  0  0
 19 20  1  0  0  0
 19 24  1  0  0  0
 20 21  2  0  0  0
 20101  1  0  0  0
 21 23  1  0  0  0
 22 28  1  0  0  0
 22 32  2  0  0  0
 26 27  1  0  0  0
 28102  1  0  0  0
 28103  1  0  0  0
 29104  1  0  0  0
 29105  1  0  0  0
 33 34  1  0  0  0
 33 66  1  0  0  0
 33 70  2  0  0  0
 34 36  1  0  0  0
 34 59  1  0  0  0
 34106  1  0  0  0
 35 44  2  0  0  0
 35 45  1  0  0  0
 35 68  1  0  0  0
 36 56  1  0  0  0
 36107  1  0  0  0
 37 39  1  0  0  0
 37 47  1  0  0  0
 37 66  1  0  0  0
 37108  1  0  0  0
 38 43  2  0  0  0
 38 46  1  0  0  0
 38 47  1  0  0  0
 39 64  1  0  0  0
 39 67  2  0  0  0
 40 52  1  0  0  0
 40 53  2  0  0  0
 40 58  1  0  0  0
 41109  1  0  0  0
 41110  1  0  0  0
 41111  1  0  0  0
 41 48  1  0  0  0
 42 43  1  0  0  0
 42 66  1  0  0  0
 42112  1  0  0  0
 42113  1  0  0  0
 43 44  1  0  0  0
 44114  1  0  0  0
 45 46  2  0  0  0
 45115  1  0  0  0
 46116  1  0  0  0
 47117  1  0  0  0
 47118  1  0  0  0
 48 56  1  0  0  0
 48 65  1  0  0  0
 48119  1  0  0  0
 49 50  1  0  0  0
 49 53  1  0  0  0
 49 64  1  0  0  0
 49120  1  0  0  0
 50 51  1  0  0  0
 50121  1  0  0  0
 50122  1  0  0  0
 51 52  1  0  0  0
 51123  1  0  0  0
 51124  1  0  0  0
 52125  1  0  0  0
 52126  1  0  0  0
 53 54  1  0  0  0
 54 55  2  0  0  0
 54127  1  0  0  0
 55 57  1  0  0  0
 55128  1  0  0  0
 56 69  2  0  0  0
 57 58  2  0  0  0
 57129  1  0  0  0
 58130  1  0  0  0
 59 60  1  0  0  0
 59 61  1  0  0  0
 59 62  1  0  0  0
 60131  1  0  0  0
 60132  1  0  0  0
 60133  1  0  0  0
 61134  1  0  0  0
 61135  1  0  0  0
 61136  1  0  0  0
 62137  1  0  0  0
 62138  1  0  0  0
 62139  1  0  0  0
 63 65  1  0  0  0
 63140  1  0  0  0
 63141  1  0  0  0
 63142  1  0  0  0
 64143  1  0  0  0
 65144  1  0  0  0
 68 81  1  0  0  0
 71 73  2  0  0  0
 71 75  1  0  0  0
 71145  1  0  0  0
 72 74  1  0  0  0
 72 75  2  0  0  0
 72146  1  0  0  0
 73 76  1  0  0  0
 73147  1  0  0  0
 74 76  2  0  0  0
 74148  1  0  0  0
 75 83  1  0  0  0
 76 84  1  0  0  0
 77 78  2  0  0  0
 77 79  1  0  0  0
 77149  1  0  0  0
 78 82  1  0  0  0
 78150  1  0  0  0
 79 80  1  0  0  0
 79 81  2  0  0  0
 80 83  1  0  0  0
 80 85  2  0  0  0
 81151  1  0  0  0
 82 83  1  0  0  0
 82152  1  0  0  0
 82153  1  0  0  0
 84154  1  0  0  0
M  ISO  4   1 100  68 101  81 101  84 100
M  END
> <chiral flag>
0

> <version>
0

> <s_m_source_file>
/data/baiqing/PycharmProjects/Reinvent-master-3.2/result/LINK_invent/BTK/process_docking_weight1_custom_product_contain_oxygen_bond_distance_aromatic_linkinvent_7_9_3/rearranged_h_0080.sdf

> <i_m_source_file_index>
16

> <r_mmod_Potential_Energy-OPLS-2005>
384.850219726562

> <r_mmod_Stretch_Energy-OPLS-2005>
136.901794433594

> <r_mmod_Bend_Energy-OPLS-2005>
234.722885131836

> <r_mmod_Torsional_Energy-OPLS-2005>
281.153381347656

> <r_mmod_Improper_Torsional_Energy-OPLS-2005>
6.27843618392944

> <r_mmod_Van_der_Waal_Energy-OPLS-2005>
162.064743041992

> <r_mmod_Electrostatic_Energy-OPLS-2005>
-304.679290771484

> <r_mmod_Solvation_Energy-OPLS-2005>
-224.779312133789

> <b_mmod_Minimization_Converged-OPLS-2005>
0

> <r_mmod_RMS_Derivative-OPLS-2005>
0.398778200149536

$$$$
16
                    3D
 Structure written by MMmdl.
157166  0  0  1  0            999 V2000
  -30.6685  -14.5831   20.4779 C   0  0  0  0  0  0
  -30.4162  -12.3436   19.4704 C   0  0  0  0  0  0
  -29.5038  -12.4954   18.2338 C   0  0  0  0  0  0
  -28.0245  -12.3537   18.6379 C   0  0  0  0  0  0
  -27.6544  -13.2212   19.8711 C   0  0  2  0  0  0
  -28.6948  -13.0791   21.0074 C   0  0  0  0  0  0
  -25.2553  -13.8190   20.5696 C   0  0  0  0  0  0
  -24.1820  -13.0450   20.9183 C   0  0  0  0  0  0
  -24.6392  -11.6921   20.8739 C   0  0  0  0  0  0
  -23.9064  -10.4300   21.0404 C   0  0  0  0  0  0
  -24.3614   -9.4214   21.9184 C   0  0  0  0  0  0
  -23.6292   -8.2247   22.0755 C   0  0  0  0  0  0
  -22.4276   -8.0282   21.3543 C   0  0  0  0  0  0
  -21.9909   -9.0255   20.4643 C   0  0  0  0  0  0
  -22.7235  -10.2137   20.3054 C   0  0  0  0  0  0
  -21.6856   -6.0733   22.5276 C   0  0  0  0  0  0
  -21.4016   -6.5637   23.8207 C   0  0  0  0  0  0
  -21.3660   -5.6792   24.9170 C   0  0  0  0  0  0
  -21.6046   -4.3055   24.7222 C   0  0  0  0  0  0
  -21.8820   -3.8145   23.4344 C   0  0  0  0  0  0
  -21.9193   -4.6960   22.3400 C   0  0  0  0  0  0
  -22.7842  -13.5236   21.1845 C   0  0  0  0  0  0
  -22.1663   -4.2147   21.0980 F   0  0  0  0  0  0
  -21.5628   -3.4540   25.7736 F   0  0  0  0  0  0
  -30.0214  -13.3772   20.4498 N   0  0  0  0  0  0
  -26.2990  -12.9382   20.3358 N   0  0  0  0  0  0
  -25.9327  -11.6529   20.5778 N   0  0  0  0  0  0
  -22.0492  -12.8222   22.0401 N   0  0  0  0  0  0
  -25.4279  -15.1911   20.4107 N   0  0  0  0  0  0
  -31.8183  -14.6838   20.0395 O   0  0  0  0  0  0
  -21.6644   -6.8877   21.4240 O   0  0  0  0  0  0
  -22.3526  -14.5547   20.6705 O   0  0  0  0  0  0
  -24.6198  -31.8616   23.2048 C   0  0  0  0  0  0
  -25.9064  -32.4786   23.8357 C   0  0  1  0  0  0
  -27.2275  -27.3624   20.1066 C   0  0  0  0  0  0
  -25.5903  -33.8588   24.2286 N   0  0  0  0  0  0
  -23.4111  -30.4842   21.5461 C   0  0  2  0  0  0
  -24.8573  -28.9435   20.1061 C   0  0  0  0  0  0
  -22.7439  -29.4622   22.4954 C   0  0  0  0  0  0
  -18.0273  -28.1376   22.8483 C   0  0  0  0  0  0
  -24.1487  -36.7294   23.2641 C   0  0  0  0  0  0
  -25.9464  -30.8043   21.3694 C   0  0  0  0  0  0
  -26.0194  -29.4350   20.7120 C   0  0  0  0  0  0
  -27.2023  -28.6509   20.7096 C   0  0  0  0  0  0
  -26.0478  -26.9117   19.4720 C   0  0  0  0  0  0
  -24.8705  -27.6851   19.4815 C   0  0  0  0  0  0
  -23.6218  -29.8167   20.1601 C   0  0  0  0  0  0
  -25.4114  -36.3089   24.0331 C   0  0  1  0  0  0
  -20.5870  -28.3666   23.1305 C   0  0  2  0  0  0
  -20.6763  -26.9395   22.5421 C   0  0  0  0  0  0
  -19.5744  -26.6380   21.5214 C   0  0  0  0  0  0
  -18.1919  -26.7922   22.1619 C   0  0  0  0  0  0
  -19.1524  -28.8838   23.2889 C   0  0  0  0  0  0
  -18.9455  -30.1447   23.8896 C   0  0  0  0  0  0
  -17.6457  -30.6583   24.0567 C   0  0  0  0  0  0
  -25.9045  -34.9454   23.5108 C   0  0  0  0  0  0
  -16.5346  -29.9084   23.6335 C   0  0  0  0  0  0
  -16.7263  -28.6503   23.0348 C   0  0  0  0  0  0
  -26.4477  -31.6592   25.0710 C   0  0  0  0  0  0
  -25.3731  -31.3722   26.1455 C   0  0  0  0  0  0
  -27.0319  -30.3028   24.6128 C   0  0  0  0  0  0
  -27.6032  -32.4339   25.7477 C   0  0  0  0  0  0
  -27.5579  -37.1801   24.8467 C   0  0  0  0  0  0
  -21.4158  -29.3022   22.3706 N   0  0  0  0  0  0
  -26.4296  -37.3781   23.9405 N   0  0  0  0  0  0
  -24.6776  -31.0662   22.0976 N   0  0  0  0  0  0
  -23.4188  -28.8159   23.3011 O   0  0  0  0  0  0
  -28.3802  -26.5830   20.1947 O   0  0  0  0  0  0
  -26.5618  -34.8916   22.4678 O   0  0  0  0  0  0
  -23.5378  -32.1401   23.7408 O   0  0  0  0  0  0
  -29.6146  -19.0742   23.6146 C   0  0  0  0  0  0
  -29.8868  -17.9963   22.7563 C   0  0  0  0  0  0
  -29.1074  -20.2801   23.1027 C   0  0  0  0  0  0
  -29.1657  -19.3554   20.8507 C   0  0  0  0  0  0
  -29.6780  -18.1101   21.3653 C   0  0  0  0  0  0
  -28.8504  -20.4541   21.7205 C   0  0  0  0  0  0
  -26.8774  -24.1718   21.3089 C   0  0  0  0  0  0
  -26.9733  -21.9040   22.0448 C   0  0  0  0  0  0
  -27.9957  -24.0378   20.5632 C   0  0  0  0  0  0
  -26.3282  -23.0769   22.0666 C   0  0  0  0  0  0
  -28.7209  -22.7155   20.5721 C   0  0  0  0  0  0
  -30.1532  -16.9681   20.4718 C   0  0  0  0  0  0
  -28.4771  -25.2183   19.6646 C   0  0  0  0  0  0
  -28.1770  -21.6954   21.3399 N   0  0  0  0  0  0
  -29.9549  -15.6765   20.8768 N   0  0  0  0  0  0
  -29.7558  -22.5282   19.9223 O   0  0  0  0  0  0
  -30.6960  -17.2688   19.4025 O   0  0  0  0  0  0
  -25.1977  -23.2182   22.7666 O   0  0  0  0  0  0
  -31.4651  -12.4155   19.1775 H   0  0  0  0  0  0
  -30.3033  -11.3502   19.9079 H   0  0  0  0  0  0
  -29.7575  -11.7460   17.4829 H   0  0  0  0  0  0
  -29.6688  -13.4669   17.7651 H   0  0  0  0  0  0
  -27.8444  -11.3010   18.8591 H   0  0  0  0  0  0
  -27.3771  -12.6010   17.7960 H   0  0  0  0  0  0
  -27.6767  -14.2578   19.5345 H   0  0  0  0  0  0
  -28.6816  -12.0677   21.4159 H   0  0  0  0  0  0
  -28.4506  -13.7400   21.8403 H   0  0  0  0  0  0
  -25.2760   -9.5692   22.4757 H   0  0  0  0  0  0
  -24.0001   -7.4642   22.7476 H   0  0  0  0  0  0
  -21.0841   -8.8772   19.8950 H   0  0  0  0  0  0
  -22.3694  -10.9673   19.6163 H   0  0  0  0  0  0
  -21.2010   -7.6147   23.9710 H   0  0  0  0  0  0
  -21.1481   -6.0524   25.9073 H   0  0  0  0  0  0
  -22.0599   -2.7608   23.2847 H   0  0  0  0  0  0
  -22.4111  -11.9871   22.4766 H   0  0  0  0  0  0
  -21.1114  -13.1246   22.2628 H   0  0  0  0  0  0
  -24.6632  -15.8485   20.5186 H   0  0  0  0  0  0
  -26.2805  -15.6277   20.0841 H   0  0  0  0  0  0
  -26.7114  -32.5469   23.1094 H   0  0  0  0  0  0
  -25.0050  -33.9737   25.0429 H   0  0  0  0  0  0
  -22.7036  -31.3038   21.4044 H   0  0  0  0  0  0
  -23.3751  -35.9626   23.3319 H   0  0  0  0  0  0
  -24.3578  -36.8906   22.2053 H   0  0  0  0  0  0
  -23.7239  -37.6500   23.6655 H   0  0  0  0  0  0
  -26.0732  -31.5696   20.6028 H   0  0  0  0  0  0
  -26.8290  -30.8524   21.9954 H   0  0  0  0  0  0
  -28.0945  -29.0204   21.1960 H   0  0  0  0  0  0
  -26.0038  -25.9457   18.9927 H   0  0  0  0  0  0
  -23.9781  -27.3018   19.0067 H   0  0  0  0  0  0
  -23.7324  -30.5927   19.4017 H   0  0  0  0  0  0
  -22.7442  -29.2398   19.8628 H   0  0  0  0  0  0
  -25.1296  -36.1946   25.0826 H   0  0  0  0  0  0
  -20.9955  -28.3230   24.1429 H   0  0  0  0  0  0
  -20.5671  -26.2262   23.3607 H   0  0  0  0  0  0
  -21.6630  -26.7439   22.1208 H   0  0  0  0  0  0
  -19.6914  -25.6295   21.1233 H   0  0  0  0  0  0
  -19.6694  -27.3197   20.6750 H   0  0  0  0  0  0
  -17.4196  -26.6670   21.4017 H   0  0  0  0  0  0
  -18.0316  -26.0067   22.9015 H   0  0  0  0  0  0
  -19.7937  -30.7263   24.2257 H   0  0  0  0  0  0
  -17.5016  -31.6263   24.5167 H   0  0  0  0  0  0
  -15.5348  -30.2988   23.7664 H   0  0  0  0  0  0
  -15.8659  -28.0832   22.7056 H   0  0  0  0  0  0
  -24.5896  -30.7074   25.7803 H   0  0  0  0  0  0
  -24.8929  -32.2884   26.4902 H   0  0  0  0  0  0
  -25.8075  -30.8899   27.0217 H   0  0  0  0  0  0
  -26.2872  -29.6784   24.1175 H   0  0  0  0  0  0
  -27.4069  -29.7278   25.4606 H   0  0  0  0  0  0
  -27.8716  -30.4348   23.9299 H   0  0  0  0  0  0
  -27.2631  -33.3636   26.2053 H   0  0  0  0  0  0
  -28.3838  -32.6915   25.0306 H   0  0  0  0  0  0
  -28.0699  -31.8472   26.5401 H   0  0  0  0  0  0
  -28.2604  -38.0091   24.7516 H   0  0  0  0  0  0
  -28.1067  -36.2623   24.6297 H   0  0  0  0  0  0
  -27.2292  -37.1460   25.8869 H   0  0  0  0  0  0
  -20.9321  -29.8756   21.6940 H   0  0  0  0  0  0
  -26.0182  -38.2858   24.1414 H   0  0  0  0  0  0
  -29.7967  -18.9773   24.6762 H   0  0  0  0  0  0
  -30.3015  -17.0886   23.1735 H   0  0  0  0  0  0
  -28.8901  -21.0803   23.7974 H   0  0  0  0  0  0
  -28.9997  -19.4556   19.7870 H   0  0  0  0  0  0
  -26.3503  -25.1120   21.3140 H   0  0  0  0  0  0
  -26.6097  -21.0363   22.5778 H   0  0  0  0  0  0
  -28.0094  -25.1412   18.6832 H   0  0  0  0  0  0
  -29.5398  -25.0729   19.4710 H   0  0  0  0  0  0
  -29.2045  -15.5212   21.5282 H   0  0  0  0  0  0
  -24.8945  -24.1115   22.6573 H   0  0  0  0  0  0
  1 25  1  0  0  0
  1 30  2  0  0  0
  1 85  1  0  0  0
  2  3  1  0  0  0
  2 25  1  0  0  0
  2 89  1  0  0  0
  2 90  1  0  0  0
  3  4  1  0  0  0
  3 91  1  0  0  0
  3 92  1  0  0  0
  4  5  1  0  0  0
  4 93  1  0  0  0
  4 94  1  0  0  0
  5  6  1  0  0  0
  5 26  1  0  0  0
  5 95  1  0  0  0
  6 25  1  0  0  0
  6 96  1  0  0  0
  6 97  1  0  0  0
  7  8  2  0  0  0
  7 26  1  0  0  0
  7 29  1  0  0  0
  8  9  1  0  0  0
  8 22  1  0  0  0
  9 10  1  0  0  0
  9 27  2  0  0  0
 10 11  2  0  0  0
 10 15  1  0  0  0
 11 12  1  0  0  0
 11 98  1  0  0  0
 12 13  2  0  0  0
 12 99  1  0  0  0
 13 14  1  0  0  0
 13 31  1  0  0  0
 14 15  2  0  0  0
 14100  1  0  0  0
 15101  1  0  0  0
 16 17  2  0  0  0
 16 21  1  0  0  0
 16 31  1  0  0  0
 17 18  1  0  0  0
 17102  1  0  0  0
 18 19  2  0  0  0
 18103  1  0  0  0
 19 20  1  0  0  0
 19 24  1  0  0  0
 20 21  2  0  0  0
 20104  1  0  0  0
 21 23  1  0  0  0
 22 28  1  0  0  0
 22 32  2  0  0  0
 26 27  1  0  0  0
 28105  1  0  0  0
 28106  1  0  0  0
 29107  1  0  0  0
 29108  1  0  0  0
 33 34  1  0  0  0
 33 66  1  0  0  0
 33 70  2  0  0  0
 34 36  1  0  0  0
 34 59  1  0  0  0
 34109  1  0  0  0
 35 44  2  0  0  0
 35 45  1  0  0  0
 35 68  1  0  0  0
 36 56  1  0  0  0
 36110  1  0  0  0
 37 39  1  0  0  0
 37 47  1  0  0  0
 37 66  1  0  0  0
 37111  1  0  0  0
 38 43  2  0  0  0
 38 46  1  0  0  0
 38 47  1  0  0  0
 39 64  1  0  0  0
 39 67  2  0  0  0
 40 52  1  0  0  0
 40 53  2  0  0  0
 40 58  1  0  0  0
 41112  1  0  0  0
 41113  1  0  0  0
 41114  1  0  0  0
 41 48  1  0  0  0
 42 43  1  0  0  0
 42 66  1  0  0  0
 42115  1  0  0  0
 42116  1  0  0  0
 43 44  1  0  0  0
 44117  1  0  0  0
 45 46  2  0  0  0
 45118  1  0  0  0
 46119  1  0  0  0
 47120  1  0  0  0
 47121  1  0  0  0
 48 56  1  0  0  0
 48 65  1  0  0  0
 48122  1  0  0  0
 49 50  1  0  0  0
 49 53  1  0  0  0
 49 64  1  0  0  0
 49123  1  0  0  0
 50 51  1  0  0  0
 50124  1  0  0  0
 50125  1  0  0  0
 51 52  1  0  0  0
 51126  1  0  0  0
 51127  1  0  0  0
 52128  1  0  0  0
 52129  1  0  0  0
 53 54  1  0  0  0
 54 55  2  0  0  0
 54130  1  0  0  0
 55 57  1  0  0  0
 55131  1  0  0  0
 56 69  2  0  0  0
 57 58  2  0  0  0
 57132  1  0  0  0
 58133  1  0  0  0
 59 60  1  0  0  0
 59 61  1  0  0  0
 59 62  1  0  0  0
 60134  1  0  0  0
 60135  1  0  0  0
 60136  1  0  0  0
 61137  1  0  0  0
 61138  1  0  0  0
 61139  1  0  0  0
 62140  1  0  0  0
 62141  1  0  0  0
 62142  1  0  0  0
 63 65  1  0  0  0
 63143  1  0  0  0
 63144  1  0  0  0
 63145  1  0  0  0
 64146  1  0  0  0
 65147  1  0  0  0
 68 83  1  0  0  0
 71 72  2  0  0  0
 71 73  1  0  0  0
 71148  1  0  0  0
 72 75  1  0  0  0
 72149  1  0  0  0
 73 76  2  0  0  0
 73150  1  0  0  0
 74 75  2  0  0  0
 74 76  1  0  0  0
 74151  1  0  0  0
 75 82  1  0  0  0
 76 84  1  0  0  0
 77 79  2  0  0  0
 77 80  1  0  0  0
 77152  1  0  0  0
 78 80  2  0  0  0
 78 84  1  0  0  0
 78153  1  0  0  0
 79 81  1  0  0  0
 79 83  1  0  0  0
 80 88  1  0  0  0
 81 84  1  0  0  0
 81 86  2  0  0  0
 82 85  1  0  0  0
 82 87  2  0  0  0
 83154  1  0  0  0
 83155  1  0  0  0
 85156  1  0  0  0
 88157  1  0  0  0
M  ISO  4   1 100  68 101  83 101  85 100
M  END
> <chiral flag>
0

> <version>
0

> <s_m_source_file>
/data/baiqing/PycharmProjects/Reinvent-master-3.2/result/LINK_invent/BTK/process_docking_weight1_custom_product_contain_oxygen_bond_distance_aromatic_linkinvent_7_9_3/rearranged_h_0080.sdf

> <i_m_source_file_index>
17

> <r_mmod_Potential_Energy-OPLS-2005>
47.1568870544434

> <r_mmod_Stretch_Energy-OPLS-2005>
74.520881652832

> <r_mmod_Bend_Energy-OPLS-2005>
135.460433959961

> <r_mmod_Torsional_Energy-OPLS-2005>
279.342468261719

> <r_mmod_Improper_Torsional_Energy-OPLS-2005>
4.68193483352661

> <r_mmod_Van_der_Waal_Energy-OPLS-2005>
176.96549987793

> <r_mmod_Electrostatic_Energy-OPLS-2005>
-412.140899658203

> <r_mmod_Solvation_Energy-OPLS-2005>
-245.156448364258

> <b_mmod_Minimization_Converged-OPLS-2005>
0

> <r_mmod_RMS_Derivative-OPLS-2005>
0.849058151245117

$$$$
17
                    3D
 Structure written by MMmdl.
150158  0  0  1  0            999 V2000
  -30.6068  -14.6767   20.4859 C   0  0  0  0  0  0
  -30.4403  -12.4122   19.4593 C   0  0  0  0  0  0
  -29.5106  -12.5080   18.2285 C   0  0  0  0  0  0
  -28.0338  -12.3410   18.6395 C   0  0  0  0  0  0
  -27.6511  -13.2185   19.8608 C   0  0  2  0  0  0
  -28.6960  -13.0917   20.9924 C   0  0  0  0  0  0
  -25.2554  -13.8173   20.5683 C   0  0  0  0  0  0
  -24.1826  -13.0438   20.9196 C   0  0  0  0  0  0
  -24.6396  -11.6908   20.8743 C   0  0  0  0  0  0
  -23.9064  -10.4291   21.0407 C   0  0  0  0  0  0
  -24.3616   -9.4207   21.9184 C   0  0  0  0  0  0
  -23.6290   -8.2243   22.0754 C   0  0  0  0  0  0
  -22.4273   -8.0281   21.3543 C   0  0  0  0  0  0
  -21.9908   -9.0256   20.4647 C   0  0  0  0  0  0
  -22.7236  -10.2135   20.3057 C   0  0  0  0  0  0
  -21.6854   -6.0735   22.5278 C   0  0  0  0  0  0
  -21.4016   -6.5639   23.8211 C   0  0  0  0  0  0
  -21.3659   -5.6791   24.9173 C   0  0  0  0  0  0
  -21.6043   -4.3054   24.7224 C   0  0  0  0  0  0
  -21.8819   -3.8146   23.4345 C   0  0  0  0  0  0
  -21.9193   -4.6962   22.3401 C   0  0  0  0  0  0
  -22.7848  -13.5230   21.1856 C   0  0  0  0  0  0
  -22.1661   -4.2148   21.0978 F   0  0  0  0  0  0
  -21.5628   -3.4538   25.7737 F   0  0  0  0  0  0
  -30.0074  -13.4426   20.4260 N   0  0  0  0  0  0
  -26.2979  -12.9355   20.3306 N   0  0  0  0  0  0
  -25.9324  -11.6510   20.5756 N   0  0  0  0  0  0
  -22.0488  -12.8225   22.0413 N   0  0  0  0  0  0
  -25.4263  -15.1897   20.4085 N   0  0  0  0  0  0
  -31.7770  -14.8269   20.1216 O   0  0  0  0  0  0
  -21.6639   -6.8878   21.4240 O   0  0  0  0  0  0
  -22.3534  -14.5535   20.6701 O   0  0  0  0  0  0
  -24.6279  -31.8583   23.2013 C   0  0  0  0  0  0
  -25.9118  -32.4771   23.8346 C   0  0  1  0  0  0
  -27.2233  -27.3013   20.1185 C   0  0  0  0  0  0
  -25.5926  -33.8572   24.2272 N   0  0  0  0  0  0
  -23.4224  -30.4821   21.5443 C   0  0  2  0  0  0
  -24.8689  -28.9355   20.1105 C   0  0  0  0  0  0
  -22.7483  -29.4617   22.4927 C   0  0  0  0  0  0
  -18.0288  -28.1385   22.8486 C   0  0  0  0  0  0
  -24.1489  -36.7292   23.2639 C   0  0  0  0  0  0
  -25.9655  -30.7838   21.3751 C   0  0  0  0  0  0
  -26.0393  -29.4103   20.7158 C   0  0  0  0  0  0
  -27.2195  -28.6055   20.7085 C   0  0  0  0  0  0
  -26.0280  -26.8849   19.4874 C   0  0  0  0  0  0
  -24.8664  -27.6793   19.4868 C   0  0  0  0  0  0
  -23.6379  -29.8177   20.1596 C   0  0  0  0  0  0
  -25.4114  -36.3079   24.0328 C   0  0  1  0  0  0
  -20.5890  -28.3691   23.1278 C   0  0  2  0  0  0
  -20.6776  -26.9412   22.5409 C   0  0  0  0  0  0
  -19.5751  -26.6383   21.5212 C   0  0  0  0  0  0
  -18.1932  -26.7927   22.1626 C   0  0  0  0  0  0
  -19.1541  -28.8855   23.2878 C   0  0  0  0  0  0
  -18.9463  -30.1457   23.8895 C   0  0  0  0  0  0
  -17.6462  -30.6587   24.0563 C   0  0  0  0  0  0
  -25.9052  -34.9448   23.5101 C   0  0  0  0  0  0
  -16.5354  -29.9085   23.6329 C   0  0  0  0  0  0
  -16.7275  -28.6503   23.0351 C   0  0  0  0  0  0
  -26.4495  -31.6587   25.0724 C   0  0  0  0  0  0
  -25.3724  -31.3732   26.1449 C   0  0  0  0  0  0
  -27.0341  -30.3007   24.6192 C   0  0  0  0  0  0
  -27.6050  -32.4327   25.7497 C   0  0  0  0  0  0
  -27.5579  -37.1801   24.8464 C   0  0  0  0  0  0
  -21.4195  -29.3044   22.3670 N   0  0  0  0  0  0
  -26.4291  -37.3774   23.9407 N   0  0  0  0  0  0
  -24.6909  -31.0582   22.0970 N   0  0  0  0  0  0
  -23.4200  -28.8155   23.3011 O   0  0  0  0  0  0
  -28.3346  -26.4386   20.1737 O   0  0  0  0  0  0
  -26.5622  -34.8918   22.4669 O   0  0  0  0  0  0
  -23.5438  -32.1387   23.7332 O   0  0  0  0  0  0
  -31.0735  -19.3280   20.1619 C   0  0  0  0  0  0
  -28.8199  -19.4610   20.9662 C   0  0  0  0  0  0
  -31.0390  -17.9004   20.2188 C   0  0  0  0  0  0
  -28.7843  -18.0277   21.0253 C   0  0  0  0  0  0
  -29.9793  -20.1639   20.5416 C   0  0  0  0  0  0
  -29.8924  -17.1981   20.6727 C   0  0  0  0  0  0
  -30.1830  -21.7020   20.6515 C   0  0  0  0  0  0
  -29.3055  -24.0265   20.4400 C   0  0  0  0  0  0
  -28.1051  -24.9690   20.0188 C   0  0  0  0  0  0
  -29.7812  -15.7336   20.8002 N   0  0  0  0  0  0
  -29.2078  -22.6402   20.3729 N   0  0  0  0  0  0
  -31.3264  -22.0403   20.9800 O   0  0  0  0  0  0
  -30.3264  -24.6080   20.8290 O   0  0  0  0  0  0
  -31.4808  -12.5424   19.1569 H   0  0  0  0  0  0
  -30.3822  -11.4208   19.9114 H   0  0  0  0  0  0
  -29.7809  -11.7508   17.4914 H   0  0  0  0  0  0
  -29.6475  -13.4737   17.7388 H   0  0  0  0  0  0
  -27.8758  -11.2886   18.8782 H   0  0  0  0  0  0
  -27.3792  -12.5619   17.7955 H   0  0  0  0  0  0
  -27.6629  -14.2502   19.5094 H   0  0  0  0  0  0
  -28.7157  -12.0742   21.3857 H   0  0  0  0  0  0
  -28.4372  -13.7320   21.8371 H   0  0  0  0  0  0
  -25.2763   -9.5681   22.4757 H   0  0  0  0  0  0
  -23.9999   -7.4635   22.7474 H   0  0  0  0  0  0
  -21.0838   -8.8777   19.8954 H   0  0  0  0  0  0
  -22.3696  -10.9675   19.6166 H   0  0  0  0  0  0
  -21.2011   -7.6147   23.9714 H   0  0  0  0  0  0
  -21.1480   -6.0522   25.9076 H   0  0  0  0  0  0
  -22.0599   -2.7608   23.2847 H   0  0  0  0  0  0
  -22.4103  -11.9889   22.4805 H   0  0  0  0  0  0
  -21.1107  -13.1257   22.2617 H   0  0  0  0  0  0
  -24.6543  -15.8401   20.5078 H   0  0  0  0  0  0
  -26.2636  -15.6250   20.0439 H   0  0  0  0  0  0
  -26.7186  -32.5435   23.1093 H   0  0  0  0  0  0
  -25.0067  -33.9712   25.0412 H   0  0  0  0  0  0
  -22.7170  -31.3033   21.4009 H   0  0  0  0  0  0
  -23.3749  -35.9627   23.3302 H   0  0  0  0  0  0
  -24.3580  -36.8914   22.2054 H   0  0  0  0  0  0
  -23.7245  -37.6495   23.6662 H   0  0  0  0  0  0
  -26.1000  -31.5474   20.6076 H   0  0  0  0  0  0
  -26.8447  -30.8314   22.0061 H   0  0  0  0  0  0
  -28.1166  -28.9648   21.1932 H   0  0  0  0  0  0
  -25.9595  -25.9267   18.9951 H   0  0  0  0  0  0
  -23.9699  -27.3109   19.0072 H   0  0  0  0  0  0
  -23.7587  -30.5946   19.4038 H   0  0  0  0  0  0
  -22.7572  -29.2488   19.8561 H   0  0  0  0  0  0
  -25.1295  -36.1930   25.0820 H   0  0  0  0  0  0
  -20.9983  -28.3268   24.1398 H   0  0  0  0  0  0
  -20.5678  -26.2301   23.3610 H   0  0  0  0  0  0
  -21.6645  -26.7440   22.1202 H   0  0  0  0  0  0
  -19.6912  -25.6294   21.1242 H   0  0  0  0  0  0
  -19.6687  -27.3192   20.6742 H   0  0  0  0  0  0
  -17.4199  -26.6671   21.4032 H   0  0  0  0  0  0
  -18.0336  -26.0071   22.9026 H   0  0  0  0  0  0
  -19.7938  -30.7274   24.2263 H   0  0  0  0  0  0
  -17.5016  -31.6266   24.5165 H   0  0  0  0  0  0
  -15.5354  -30.2987   23.7653 H   0  0  0  0  0  0
  -15.8676  -28.0821   22.7067 H   0  0  0  0  0  0
  -24.5895  -30.7087   25.7777 H   0  0  0  0  0  0
  -24.8923  -32.2903   26.4872 H   0  0  0  0  0  0
  -25.8044  -30.8908   27.0225 H   0  0  0  0  0  0
  -26.2921  -29.6756   24.1209 H   0  0  0  0  0  0
  -27.4025  -29.7265   25.4703 H   0  0  0  0  0  0
  -27.8796  -30.4288   23.9429 H   0  0  0  0  0  0
  -27.2653  -33.3625   26.2072 H   0  0  0  0  0  0
  -28.3860  -32.6892   25.0327 H   0  0  0  0  0  0
  -28.0717  -31.8456   26.5416 H   0  0  0  0  0  0
  -28.2594  -38.0101   24.7513 H   0  0  0  0  0  0
  -28.1079  -36.2632   24.6286 H   0  0  0  0  0  0
  -27.2298  -37.1445   25.8867 H   0  0  0  0  0  0
  -20.9373  -29.8771   21.6884 H   0  0  0  0  0  0
  -26.0172  -38.2849   24.1409 H   0  0  0  0  0  0
  -31.9968  -19.7957   19.8482 H   0  0  0  0  0  0
  -27.9556  -20.0182   21.2998 H   0  0  0  0  0  0
  -31.9261  -17.3565   19.9275 H   0  0  0  0  0  0
  -27.8748  -17.5622   21.3794 H   0  0  0  0  0  0
  -27.2398  -24.6693   20.6114 H   0  0  0  0  0  0
  -27.8774  -24.7506   18.9752 H   0  0  0  0  0  0
  -28.8733  -15.4168   21.1032 H   0  0  0  0  0  0
  -28.3231  -22.2684   20.0655 H   0  0  0  0  0  0
  1 25  1  0  0  0
  1 30  2  0  0  0
  1 80  1  0  0  0
  2  3  1  0  0  0
  2 25  1  0  0  0
  2 84  1  0  0  0
  2 85  1  0  0  0
  3  4  1  0  0  0
  3 86  1  0  0  0
  3 87  1  0  0  0
  4  5  1  0  0  0
  4 88  1  0  0  0
  4 89  1  0  0  0
  5  6  1  0  0  0
  5 26  1  0  0  0
  5 90  1  0  0  0
  6 25  1  0  0  0
  6 91  1  0  0  0
  6 92  1  0  0  0
  7  8  2  0  0  0
  7 26  1  0  0  0
  7 29  1  0  0  0
  8  9  1  0  0  0
  8 22  1  0  0  0
  9 10  1  0  0  0
  9 27  2  0  0  0
 10 11  2  0  0  0
 10 15  1  0  0  0
 11 12  1  0  0  0
 11 93  1  0  0  0
 12 13  2  0  0  0
 12 94  1  0  0  0
 13 14  1  0  0  0
 13 31  1  0  0  0
 14 15  2  0  0  0
 14 95  1  0  0  0
 15 96  1  0  0  0
 16 17  2  0  0  0
 16 21  1  0  0  0
 16 31  1  0  0  0
 17 18  1  0  0  0
 17 97  1  0  0  0
 18 19  2  0  0  0
 18 98  1  0  0  0
 19 20  1  0  0  0
 19 24  1  0  0  0
 20 21  2  0  0  0
 20 99  1  0  0  0
 21 23  1  0  0  0
 22 28  1  0  0  0
 22 32  2  0  0  0
 26 27  1  0  0  0
 28100  1  0  0  0
 28101  1  0  0  0
 29102  1  0  0  0
 29103  1  0  0  0
 33 34  1  0  0  0
 33 66  1  0  0  0
 33 70  2  0  0  0
 34 36  1  0  0  0
 34 59  1  0  0  0
 34104  1  0  0  0
 35 44  2  0  0  0
 35 45  1  0  0  0
 35 68  1  0  0  0
 36 56  1  0  0  0
 36105  1  0  0  0
 37 39  1  0  0  0
 37 47  1  0  0  0
 37 66  1  0  0  0
 37106  1  0  0  0
 38 43  2  0  0  0
 38 46  1  0  0  0
 38 47  1  0  0  0
 39 64  1  0  0  0
 39 67  2  0  0  0
 40 52  1  0  0  0
 40 53  2  0  0  0
 40 58  1  0  0  0
 41107  1  0  0  0
 41108  1  0  0  0
 41109  1  0  0  0
 41 48  1  0  0  0
 42 43  1  0  0  0
 42 66  1  0  0  0
 42110  1  0  0  0
 42111  1  0  0  0
 43 44  1  0  0  0
 44112  1  0  0  0
 45 46  2  0  0  0
 45113  1  0  0  0
 46114  1  0  0  0
 47115  1  0  0  0
 47116  1  0  0  0
 48 56  1  0  0  0
 48 65  1  0  0  0
 48117  1  0  0  0
 49 50  1  0  0  0
 49 53  1  0  0  0
 49 64  1  0  0  0
 49118  1  0  0  0
 50 51  1  0  0  0
 50119  1  0  0  0
 50120  1  0  0  0
 51 52  1  0  0  0
 51121  1  0  0  0
 51122  1  0  0  0
 52123  1  0  0  0
 52124  1  0  0  0
 53 54  1  0  0  0
 54 55  2  0  0  0
 54125  1  0  0  0
 55 57  1  0  0  0
 55126  1  0  0  0
 56 69  2  0  0  0
 57 58  2  0  0  0
 57127  1  0  0  0
 58128  1  0  0  0
 59 60  1  0  0  0
 59 61  1  0  0  0
 59 62  1  0  0  0
 60129  1  0  0  0
 60130  1  0  0  0
 60131  1  0  0  0
 61132  1  0  0  0
 61133  1  0  0  0
 61134  1  0  0  0
 62135  1  0  0  0
 62136  1  0  0  0
 62137  1  0  0  0
 63 65  1  0  0  0
 63138  1  0  0  0
 63139  1  0  0  0
 63140  1  0  0  0
 64141  1  0  0  0
 65142  1  0  0  0
 68 79  1  0  0  0
 71 73  2  0  0  0
 71 75  1  0  0  0
 71143  1  0  0  0
 72 74  1  0  0  0
 72 75  2  0  0  0
 72144  1  0  0  0
 73 76  1  0  0  0
 73145  1  0  0  0
 74 76  2  0  0  0
 74146  1  0  0  0
 75 77  1  0  0  0
 76 80  1  0  0  0
 77 81  1  0  0  0
 77 82  2  0  0  0
 78 79  1  0  0  0
 78 81  1  0  0  0
 78 83  2  0  0  0
 79147  1  0  0  0
 79148  1  0  0  0
 80149  1  0  0  0
 81150  1  0  0  0
M  ISO  4   1 100  68 101  79 101  80 100
M  END
> <chiral flag>
0

> <version>
0

> <s_m_source_file>
/data/baiqing/PycharmProjects/Reinvent-master-3.2/result/LINK_invent/BTK/process_docking_weight1_custom_product_contain_oxygen_bond_distance_aromatic_linkinvent_7_9_3/rearranged_h_0080.sdf

> <i_m_source_file_index>
18

> <r_mmod_Potential_Energy-OPLS-2005>
-55.1184234619141

> <r_mmod_Stretch_Energy-OPLS-2005>
92.2701950073242

> <r_mmod_Bend_Energy-OPLS-2005>
148.72624206543

> <r_mmod_Torsional_Energy-OPLS-2005>
220.304656982422

> <r_mmod_Improper_Torsional_Energy-OPLS-2005>
5.15767621994019

> <r_mmod_Van_der_Waal_Energy-OPLS-2005>
152.321136474609

> <r_mmod_Electrostatic_Energy-OPLS-2005>
-438.132751464844

> <r_mmod_Solvation_Energy-OPLS-2005>
-295.065979003906

> <b_mmod_Minimization_Converged-OPLS-2005>
0

> <r_mmod_RMS_Derivative-OPLS-2005>
0.221084013581276

$$$$
18
                    3D
 Structure written by MMmdl.
157166  0  0  1  0            999 V2000
  -30.5844  -14.7038   20.4715 C   0  0  0  0  0  0
  -30.4486  -12.4283   19.4579 C   0  0  0  0  0  0
  -29.5149  -12.5084   18.2284 C   0  0  0  0  0  0
  -28.0382  -12.3335   18.6400 C   0  0  0  0  0  0
  -27.6501  -13.2153   19.8558 C   0  0  2  0  0  0
  -28.6964  -13.0995   20.9878 C   0  0  0  0  0  0
  -25.2558  -13.8163   20.5677 C   0  0  0  0  0  0
  -24.1825  -13.0431   20.9178 C   0  0  0  0  0  0
  -24.6392  -11.6899   20.8730 C   0  0  0  0  0  0
  -23.9056  -10.4291   21.0400 C   0  0  0  0  0  0
  -24.3607   -9.4209   21.9175 C   0  0  0  0  0  0
  -23.6288   -8.2245   22.0751 C   0  0  0  0  0  0
  -22.4267   -8.0282   21.3547 C   0  0  0  0  0  0
  -21.9899   -9.0254   20.4649 C   0  0  0  0  0  0
  -22.7228  -10.2134   20.3055 C   0  0  0  0  0  0
  -21.6856   -6.0732   22.5277 C   0  0  0  0  0  0
  -21.4020   -6.5631   23.8210 C   0  0  0  0  0  0
  -21.3657   -5.6779   24.9170 C   0  0  0  0  0  0
  -21.6044   -4.3047   24.7217 C   0  0  0  0  0  0
  -21.8821   -3.8141   23.4338 C   0  0  0  0  0  0
  -21.9196   -4.6960   22.3396 C   0  0  0  0  0  0
  -22.7851  -13.5234   21.1843 C   0  0  0  0  0  0
  -22.1664   -4.2148   21.0974 F   0  0  0  0  0  0
  -21.5624   -3.4528   25.7731 F   0  0  0  0  0  0
  -30.0048  -13.4592   20.4176 N   0  0  0  0  0  0
  -26.2974  -12.9337   20.3278 N   0  0  0  0  0  0
  -25.9317  -11.6495   20.5727 N   0  0  0  0  0  0
  -22.0487  -12.8238   22.0409 N   0  0  0  0  0  0
  -25.4265  -15.1886   20.4102 N   0  0  0  0  0  0
  -31.7666  -14.8713   20.1530 O   0  0  0  0  0  0
  -21.6640   -6.8876   21.4241 O   0  0  0  0  0  0
  -22.3543  -14.5547   20.6699 O   0  0  0  0  0  0
  -24.6303  -31.8578   23.1973 C   0  0  0  0  0  0
  -25.9130  -32.4763   23.8329 C   0  0  1  0  0  0
  -27.2265  -27.2820   20.1139 C   0  0  0  0  0  0
  -25.5932  -33.8563   24.2264 N   0  0  0  0  0  0
  -23.4256  -30.4812   21.5416 C   0  0  2  0  0  0
  -24.8702  -28.9279   20.1144 C   0  0  0  0  0  0
  -22.7504  -29.4622   22.4912 C   0  0  0  0  0  0
  -18.0303  -28.1388   22.8469 C   0  0  0  0  0  0
  -24.1514  -36.7310   23.2626 C   0  0  0  0  0  0
  -25.9701  -30.7796   21.3682 C   0  0  0  0  0  0
  -26.0438  -29.4016   20.7138 C   0  0  0  0  0  0
  -27.2221  -28.5908   20.7023 C   0  0  0  0  0  0
  -26.0119  -26.8555   19.5279 C   0  0  0  0  0  0
  -24.8573  -27.6603   19.5151 C   0  0  0  0  0  0
  -23.6424  -29.8155   20.1580 C   0  0  0  0  0  0
  -25.4121  -36.3073   24.0329 C   0  0  1  0  0  0
  -20.5906  -28.3698   23.1277 C   0  0  2  0  0  0
  -20.6794  -26.9416   22.5410 C   0  0  0  0  0  0
  -19.5771  -26.6385   21.5208 C   0  0  0  0  0  0
  -18.1950  -26.7925   22.1617 C   0  0  0  0  0  0
  -19.1552  -28.8858   23.2867 C   0  0  0  0  0  0
  -18.9464  -30.1457   23.8889 C   0  0  0  0  0  0
  -17.6461  -30.6581   24.0560 C   0  0  0  0  0  0
  -25.9057  -34.9447   23.5099 C   0  0  0  0  0  0
  -16.5354  -29.9074   23.6325 C   0  0  0  0  0  0
  -16.7288  -28.6500   23.0327 C   0  0  0  0  0  0
  -26.4490  -31.6550   25.0699 C   0  0  0  0  0  0
  -25.3707  -31.3719   26.1420 C   0  0  0  0  0  0
  -27.0264  -30.2945   24.6137 C   0  0  0  0  0  0
  -27.6083  -32.4231   25.7472 C   0  0  0  0  0  0
  -27.5600  -37.1805   24.8447 C   0  0  0  0  0  0
  -21.4210  -29.3054   22.3667 N   0  0  0  0  0  0
  -26.4294  -37.3767   23.9412 N   0  0  0  0  0  0
  -24.6956  -31.0572   22.0932 N   0  0  0  0  0  0
  -23.4215  -28.8158   23.2994 O   0  0  0  0  0  0
  -28.3497  -26.4228   20.1706 O   0  0  0  0  0  0
  -26.5625  -34.8920   22.4669 O   0  0  0  0  0  0
  -23.5455  -32.1385   23.7279 O   0  0  0  0  0  0
  -28.6390  -19.3161   19.7578 C   0  0  0  0  0  0
  -30.5152  -19.4901   21.2352 C   0  0  0  0  0  0
  -28.7646  -17.8902   19.7894 C   0  0  0  0  0  0
  -30.6635  -18.0618   21.2393 C   0  0  0  0  0  0
  -29.4912  -20.1748   20.5076 C   0  0  0  0  0  0
  -29.7720  -17.2105   20.5324 C   0  0  0  0  0  0
  -28.7251  -23.9362   20.2629 C   0  0  0  0  0  0
  -29.0990  -23.7590   21.6444 C   0  0  0  0  0  0
  -28.8300  -22.5563   19.6778 C   0  0  0  0  0  0
  -28.9955  -24.6754   22.6234 C   0  0  0  0  0  0
  -28.3844  -25.1170   19.5992 C   0  0  0  0  0  0
  -29.5820  -22.3424   21.8741 C   0  0  0  0  0  0
  -28.1793  -25.1718   18.0883 C   0  0  0  0  0  0
  -29.2911  -21.6467   20.6157 N   0  0  0  0  0  0
  -29.7084  -15.7460   20.6808 N   0  0  0  0  0  0
  -28.5550  -22.2332   18.5174 O   0  0  0  0  0  0
  -31.4871  -12.5719   19.1527 H   0  0  0  0  0  0
  -30.4032  -11.4391   19.9152 H   0  0  0  0  0  0
  -29.7910  -11.7503   17.4940 H   0  0  0  0  0  0
  -29.6458  -13.4720   17.7332 H   0  0  0  0  0  0
  -27.8850  -11.2810   18.8834 H   0  0  0  0  0  0
  -27.3842  -12.5472   17.7937 H   0  0  0  0  0  0
  -27.6571  -14.2431   19.4934 H   0  0  0  0  0  0
  -28.7228  -12.0847   21.3874 H   0  0  0  0  0  0
  -28.4335  -13.7451   21.8276 H   0  0  0  0  0  0
  -25.2754   -9.5690   22.4741 H   0  0  0  0  0  0
  -24.0000   -7.4638   22.7465 H   0  0  0  0  0  0
  -21.0828   -8.8769   19.8955 H   0  0  0  0  0  0
  -22.3677  -10.9667   19.6164 H   0  0  0  0  0  0
  -21.2018   -7.6140   23.9714 H   0  0  0  0  0  0
  -21.1475   -6.0509   25.9072 H   0  0  0  0  0  0
  -22.0604   -2.7605   23.2838 H   0  0  0  0  0  0
  -22.4081  -11.9886   22.4796 H   0  0  0  0  0  0
  -21.1124  -13.1300   22.2624 H   0  0  0  0  0  0
  -24.6581  -15.8408   20.5224 H   0  0  0  0  0  0
  -26.2695  -15.6315   20.0711 H   0  0  0  0  0  0
  -26.7197  -32.5431   23.1076 H   0  0  0  0  0  0
  -25.0066  -33.9709   25.0400 H   0  0  0  0  0  0
  -22.7194  -31.3017   21.3964 H   0  0  0  0  0  0
  -23.3766  -35.9648   23.3233 H   0  0  0  0  0  0
  -24.3631  -36.8976   22.2052 H   0  0  0  0  0  0
  -23.7276  -37.6507   23.6677 H   0  0  0  0  0  0
  -26.0956  -31.5361   20.5921 H   0  0  0  0  0  0
  -26.8537  -30.8386   21.9919 H   0  0  0  0  0  0
  -28.1242  -28.9515   21.1763 H   0  0  0  0  0  0
  -25.9184  -25.8701   19.0988 H   0  0  0  0  0  0
  -23.9513  -27.2805   19.0639 H   0  0  0  0  0  0
  -23.7698  -30.5917   19.4023 H   0  0  0  0  0  0
  -22.7602  -29.2510   19.8518 H   0  0  0  0  0  0
  -25.1285  -36.1924   25.0814 H   0  0  0  0  0  0
  -20.9992  -28.3275   24.1401 H   0  0  0  0  0  0
  -20.5701  -26.2300   23.3606 H   0  0  0  0  0  0
  -21.6668  -26.7451   22.1209 H   0  0  0  0  0  0
  -19.6937  -25.6293   21.1250 H   0  0  0  0  0  0
  -19.6711  -27.3186   20.6729 H   0  0  0  0  0  0
  -17.4221  -26.6654   21.4024 H   0  0  0  0  0  0
  -18.0349  -26.0073   22.9022 H   0  0  0  0  0  0
  -19.7936  -30.7275   24.2258 H   0  0  0  0  0  0
  -17.5012  -31.6262   24.5157 H   0  0  0  0  0  0
  -15.5352  -30.2965   23.7657 H   0  0  0  0  0  0
  -15.8689  -28.0828   22.7023 H   0  0  0  0  0  0
  -24.5922  -30.7007   25.7772 H   0  0  0  0  0  0
  -24.8844  -32.2887   26.4772 H   0  0  0  0  0  0
  -25.8026  -30.8978   27.0243 H   0  0  0  0  0  0
  -26.2797  -29.6752   24.1150 H   0  0  0  0  0  0
  -27.3905  -29.7157   25.4635 H   0  0  0  0  0  0
  -27.8713  -30.4170   23.9353 H   0  0  0  0  0  0
  -27.2738  -33.3537   26.2070 H   0  0  0  0  0  0
  -28.3904  -32.6755   25.0299 H   0  0  0  0  0  0
  -28.0728  -31.8311   26.5369 H   0  0  0  0  0  0
  -28.2565  -38.0150   24.7525 H   0  0  0  0  0  0
  -28.1149  -36.2685   24.6206 H   0  0  0  0  0  0
  -27.2340  -37.1367   25.8851 H   0  0  0  0  0  0
  -20.9386  -29.8771   21.6879 H   0  0  0  0  0  0
  -26.0177  -38.2850   24.1381 H   0  0  0  0  0  0
  -27.8265  -19.7443   19.1871 H   0  0  0  0  0  0
  -31.2081  -20.0642   21.8332 H   0  0  0  0  0  0
  -28.0367  -17.3083   19.2420 H   0  0  0  0  0  0
  -31.4410  -17.6229   21.8489 H   0  0  0  0  0  0
  -28.6184  -25.6716   22.4491 H   0  0  0  0  0  0
  -29.2836  -24.4317   23.6365 H   0  0  0  0  0  0
  -29.0495  -21.8765   22.7047 H   0  0  0  0  0  0
  -30.6514  -22.3387   22.0876 H   0  0  0  0  0  0
  -29.0606  -24.7878   17.5747 H   0  0  0  0  0  0
  -28.0235  -26.1898   17.7311 H   0  0  0  0  0  0
  -27.3217  -24.5689   17.7877 H   0  0  0  0  0  0
  -28.7715  -15.3981   20.8122 H   0  0  0  0  0  0
  1 25  1  0  0  0
  1 30  2  0  0  0
  1 85  1  0  0  0
  2  3  1  0  0  0
  2 25  1  0  0  0
  2 87  1  0  0  0
  2 88  1  0  0  0
  3  4  1  0  0  0
  3 89  1  0  0  0
  3 90  1  0  0  0
  4  5  1  0  0  0
  4 91  1  0  0  0
  4 92  1  0  0  0
  5  6  1  0  0  0
  5 26  1  0  0  0
  5 93  1  0  0  0
  6 25  1  0  0  0
  6 94  1  0  0  0
  6 95  1  0  0  0
  7  8  2  0  0  0
  7 26  1  0  0  0
  7 29  1  0  0  0
  8  9  1  0  0  0
  8 22  1  0  0  0
  9 10  1  0  0  0
  9 27  2  0  0  0
 10 11  2  0  0  0
 10 15  1  0  0  0
 11 12  1  0  0  0
 11 96  1  0  0  0
 12 13  2  0  0  0
 12 97  1  0  0  0
 13 14  1  0  0  0
 13 31  1  0  0  0
 14 15  2  0  0  0
 14 98  1  0  0  0
 15 99  1  0  0  0
 16 17  2  0  0  0
 16 21  1  0  0  0
 16 31  1  0  0  0
 17 18  1  0  0  0
 17100  1  0  0  0
 18 19  2  0  0  0
 18101  1  0  0  0
 19 20  1  0  0  0
 19 24  1  0  0  0
 20 21  2  0  0  0
 20102  1  0  0  0
 21 23  1  0  0  0
 22 28  1  0  0  0
 22 32  2  0  0  0
 26 27  1  0  0  0
 28103  1  0  0  0
 28104  1  0  0  0
 29105  1  0  0  0
 29106  1  0  0  0
 33 34  1  0  0  0
 33 66  1  0  0  0
 33 70  2  0  0  0
 34 36  1  0  0  0
 34 59  1  0  0  0
 34107  1  0  0  0
 35 44  2  0  0  0
 35 45  1  0  0  0
 35 68  1  0  0  0
 36 56  1  0  0  0
 36108  1  0  0  0
 37 39  1  0  0  0
 37 47  1  0  0  0
 37 66  1  0  0  0
 37109  1  0  0  0
 38 43  2  0  0  0
 38 46  1  0  0  0
 38 47  1  0  0  0
 39 64  1  0  0  0
 39 67  2  0  0  0
 40 52  1  0  0  0
 40 53  2  0  0  0
 40 58  1  0  0  0
 41110  1  0  0  0
 41111  1  0  0  0
 41112  1  0  0  0
 41 48  1  0  0  0
 42 43  1  0  0  0
 42 66  1  0  0  0
 42113  1  0  0  0
 42114  1  0  0  0
 43 44  1  0  0  0
 44115  1  0  0  0
 45 46  2  0  0  0
 45116  1  0  0  0
 46117  1  0  0  0
 47118  1  0  0  0
 47119  1  0  0  0
 48 56  1  0  0  0
 48 65  1  0  0  0
 48120  1  0  0  0
 49 50  1  0  0  0
 49 53  1  0  0  0
 49 64  1  0  0  0
 49121  1  0  0  0
 50 51  1  0  0  0
 50122  1  0  0  0
 50123  1  0  0  0
 51 52  1  0  0  0
 51124  1  0  0  0
 51125  1  0  0  0
 52126  1  0  0  0
 52127  1  0  0  0
 53 54  1  0  0  0
 54 55  2  0  0  0
 54128  1  0  0  0
 55 57  1  0  0  0
 55129  1  0  0  0
 56 69  2  0  0  0
 57 58  2  0  0  0
 57130  1  0  0  0
 58131  1  0  0  0
 59 60  1  0  0  0
 59 61  1  0  0  0
 59 62  1  0  0  0
 60132  1  0  0  0
 60133  1  0  0  0
 60134  1  0  0  0
 61135  1  0  0  0
 61136  1  0  0  0
 61137  1  0  0  0
 62138  1  0  0  0
 62139  1  0  0  0
 62140  1  0  0  0
 63 65  1  0  0  0
 63141  1  0  0  0
 63142  1  0  0  0
 63143  1  0  0  0
 64144  1  0  0  0
 65145  1  0  0  0
 68 81  1  0  0  0
 71 73  2  0  0  0
 71 75  1  0  0  0
 71146  1  0  0  0
 72 74  1  0  0  0
 72 75  2  0  0  0
 72147  1  0  0  0
 73 76  1  0  0  0
 73148  1  0  0  0
 74 76  2  0  0  0
 74149  1  0  0  0
 75 84  1  0  0  0
 76 85  1  0  0  0
 77 78  1  0  0  0
 77 79  1  0  0  0
 77 81  2  0  0  0
 78 80  2  0  0  0
 78 82  1  0  0  0
 79 84  1  0  0  0
 79 86  2  0  0  0
 80150  1  0  0  0
 80151  1  0  0  0
 81 83  1  0  0  0
 82 84  1  0  0  0
 82152  1  0  0  0
 82153  1  0  0  0
 83154  1  0  0  0
 83155  1  0  0  0
 83156  1  0  0  0
 85157  1  0  0  0
M  ISO  4   1 100  68 101  81 101  85 100
M  END
> <chiral flag>
0

> <version>
0

> <s_m_source_file>
/data/baiqing/PycharmProjects/Reinvent-master-3.2/result/LINK_invent/BTK/process_docking_weight1_custom_product_contain_oxygen_bond_distance_aromatic_linkinvent_7_9_3/rearranged_h_0080.sdf

> <i_m_source_file_index>
19

> <r_mmod_Potential_Energy-OPLS-2005>
301.31689453125

> <r_mmod_Stretch_Energy-OPLS-2005>
100.55078125

> <r_mmod_Bend_Energy-OPLS-2005>
197.038452148438

> <r_mmod_Torsional_Energy-OPLS-2005>
289.120208740234

> <r_mmod_Improper_Torsional_Energy-OPLS-2005>
6.97273349761963

> <r_mmod_Van_der_Waal_Energy-OPLS-2005>
141.710571289062

> <r_mmod_Electrostatic_Energy-OPLS-2005>
-294.971588134766

> <r_mmod_Solvation_Energy-OPLS-2005>
-208.983749389648

> <b_mmod_Minimization_Converged-OPLS-2005>
0

> <r_mmod_RMS_Derivative-OPLS-2005>
1.41329073905945

$$$$
19
                    3D
 Structure written by MMmdl.
156165  0  0  1  0            999 V2000
  -30.7666  -14.5165   20.5516 C   0  0  0  0  0  0
  -30.3961  -12.3331   19.4425 C   0  0  0  0  0  0
  -29.4809  -12.4722   18.2115 C   0  0  0  0  0  0
  -28.0053  -12.3363   18.6290 C   0  0  0  0  0  0
  -27.6446  -13.2200   19.8518 C   0  0  2  0  0  0
  -28.6889  -13.1091   20.9843 C   0  0  0  0  0  0
  -25.2556  -13.8212   20.5721 C   0  0  0  0  0  0
  -24.1825  -13.0481   20.9222 C   0  0  0  0  0  0
  -24.6375  -11.6948   20.8764 C   0  0  0  0  0  0
  -23.9058  -10.4316   21.0448 C   0  0  0  0  0  0
  -24.3627   -9.4227   21.9220 C   0  0  0  0  0  0
  -23.6316   -8.2264   22.0760 C   0  0  0  0  0  0
  -22.4292   -8.0307   21.3555 C   0  0  0  0  0  0
  -21.9931   -9.0272   20.4635 C   0  0  0  0  0  0
  -22.7241  -10.2168   20.3066 C   0  0  0  0  0  0
  -21.6841   -6.0772   22.5290 C   0  0  0  0  0  0
  -21.3973   -6.5662   23.8227 C   0  0  0  0  0  0
  -21.3660   -5.6805   24.9186 C   0  0  0  0  0  0
  -21.6069   -4.3083   24.7220 C   0  0  0  0  0  0
  -21.8819   -3.8174   23.4331 C   0  0  0  0  0  0
  -21.9195   -4.6995   22.3395 C   0  0  0  0  0  0
  -22.7855  -13.5277   21.1882 C   0  0  0  0  0  0
  -22.1678   -4.2180   21.0979 F   0  0  0  0  0  0
  -21.5637   -3.4546   25.7723 F   0  0  0  0  0  0
  -30.0138  -13.3827   20.4108 N   0  0  0  0  0  0
  -26.2942  -12.9406   20.3277 N   0  0  0  0  0  0
  -25.9294  -11.6561   20.5755 N   0  0  0  0  0  0
  -22.0465  -12.8248   22.0392 N   0  0  0  0  0  0
  -25.4346  -15.1913   20.4164 N   0  0  0  0  0  0
  -31.9275  -14.5281   20.1350 O   0  0  0  0  0  0
  -21.6657   -6.8907   21.4243 O   0  0  0  0  0  0
  -22.3561  -14.5619   20.6763 O   0  0  0  0  0  0
  -24.6196  -31.8583   23.2046 C   0  0  0  0  0  0
  -25.9062  -32.4767   23.8376 C   0  0  1  0  0  0
  -27.2299  -27.4023   20.1311 C   0  0  0  0  0  0
  -25.5933  -33.8577   24.2311 N   0  0  0  0  0  0
  -23.4070  -30.4822   21.5429 C   0  0  2  0  0  0
  -24.8596  -28.9531   20.0966 C   0  0  0  0  0  0
  -22.7427  -29.4611   22.4970 C   0  0  0  0  0  0
  -18.0256  -28.1346   22.8440 C   0  0  0  0  0  0
  -24.1467  -36.7285   23.2645 C   0  0  0  0  0  0
  -25.9393  -30.8308   21.3516 C   0  0  0  0  0  0
  -26.0215  -29.4686   20.6894 C   0  0  0  0  0  0
  -27.2153  -28.7029   20.6957 C   0  0  0  0  0  0
  -26.0574  -26.9112   19.5256 C   0  0  0  0  0  0
  -24.8771  -27.6779   19.5031 C   0  0  0  0  0  0
  -23.6123  -29.8097   20.1585 C   0  0  0  0  0  0
  -25.4085  -36.3105   24.0369 C   0  0  1  0  0  0
  -20.5843  -28.3646   23.1279 C   0  0  2  0  0  0
  -20.6721  -26.9369   22.5390 C   0  0  0  0  0  0
  -19.5732  -26.6350   21.5170 C   0  0  0  0  0  0
  -18.1917  -26.7901   22.1568 C   0  0  0  0  0  0
  -19.1499  -28.8830   23.2823 C   0  0  0  0  0  0
  -18.9435  -30.1431   23.8847 C   0  0  0  0  0  0
  -17.6433  -30.6557   24.0546 C   0  0  0  0  0  0
  -25.9049  -34.9451   23.5137 C   0  0  0  0  0  0
  -16.5321  -29.9045   23.6360 C   0  0  0  0  0  0
  -16.7248  -28.6446   23.0399 C   0  0  0  0  0  0
  -26.4490  -31.6589   25.0741 C   0  0  0  0  0  0
  -25.3779  -31.3670   26.1489 C   0  0  0  0  0  0
  -27.0367  -30.3042   24.6169 C   0  0  0  0  0  0
  -27.6099  -32.4291   25.7495 C   0  0  0  0  0  0
  -27.5547  -37.1781   24.8463 C   0  0  0  0  0  0
  -21.4164  -29.2987   22.3701 N   0  0  0  0  0  0
  -26.4251  -37.3801   23.9464 N   0  0  0  0  0  0
  -24.6729  -31.0717   22.0901 N   0  0  0  0  0  0
  -23.4181  -28.8178   23.3036 O   0  0  0  0  0  0
  -28.2772  -26.5187   20.3262 O   0  0  0  0  0  0
  -26.5585  -34.8932   22.4680 O   0  0  0  0  0  0
  -23.5388  -32.1322   23.7442 O   0  0  0  0  0  0
  -30.7592  -19.3077   20.5975 C   0  0  0  0  0  0
  -28.8586  -18.4213   21.8025 C   0  0  0  0  0  0
  -30.2539  -20.6261   20.7196 C   0  0  0  0  0  0
  -28.3617  -19.7458   21.9415 C   0  0  0  0  0  0
  -30.0942  -18.1846   21.1576 C   0  0  0  0  0  0
  -29.0585  -20.8812   21.4314 C   0  0  0  0  0  0
  -28.3088  -24.5181   21.8544 C   0  0  0  0  0  0
  -27.8941  -23.9454   23.1101 C   0  0  0  0  0  0
  -28.8214  -23.4038   21.0449 C   0  0  0  0  0  0
  -27.6104  -24.6079   24.2476 C   0  0  0  0  0  0
  -28.1232  -25.8328   21.5279 C   0  0  0  0  0  0
  -30.8169  -16.8436   21.2021 C   0  0  0  0  0  0
  -27.8794  -22.4578   22.9864 C   0  0  0  0  0  0
  -28.6090  -22.2305   21.7364 N   0  0  0  0  0  0
  -30.1617  -15.6670   20.9661 N   0  0  0  0  0  0
  -29.3522  -23.4920   19.9325 O   0  0  0  0  0  0
  -32.0315  -16.9078   21.4374 O   0  0  0  0  0  0
  -31.4390  -12.3924   19.1258 H   0  0  0  0  0  0
  -30.2839  -11.3416   19.8892 H   0  0  0  0  0  0
  -29.7229  -11.7048   17.4761 H   0  0  0  0  0  0
  -29.6419  -13.4315   17.7183 H   0  0  0  0  0  0
  -27.8225  -11.2863   18.8655 H   0  0  0  0  0  0
  -27.3548  -12.5721   17.7887 H   0  0  0  0  0  0
  -27.6613  -14.2468   19.4949 H   0  0  0  0  0  0
  -28.6696  -12.1137   21.4268 H   0  0  0  0  0  0
  -28.4426  -13.8031   21.7897 H   0  0  0  0  0  0
  -25.2771   -9.5729   22.4803 H   0  0  0  0  0  0
  -24.0050   -7.4650   22.7446 H   0  0  0  0  0  0
  -21.0895   -8.8755   19.8931 H   0  0  0  0  0  0
  -22.3691  -10.9714   19.6180 H   0  0  0  0  0  0
  -21.1924   -7.6169   23.9725 H   0  0  0  0  0  0
  -21.1488   -6.0541   25.9094 H   0  0  0  0  0  0
  -22.0595   -2.7631   23.2806 H   0  0  0  0  0  0
  -22.4055  -11.9870   22.4740 H   0  0  0  0  0  0
  -21.1078  -13.1260   22.2590 H   0  0  0  0  0  0
  -24.6729  -15.8522   20.5234 H   0  0  0  0  0  0
  -26.2905  -15.6214   20.0911 H   0  0  0  0  0  0
  -26.7202  -32.5462   23.1196 H   0  0  0  0  0  0
  -25.0257  -33.9749   25.0571 H   0  0  0  0  0  0
  -22.6967  -31.2988   21.4011 H   0  0  0  0  0  0
  -23.3790  -35.9559   23.3268 H   0  0  0  0  0  0
  -24.3552  -36.8891   22.2058 H   0  0  0  0  0  0
  -23.7157  -37.6469   23.6644 H   0  0  0  0  0  0
  -26.0553  -31.6010   20.5887 H   0  0  0  0  0  0
  -26.8239  -30.8777   21.9735 H   0  0  0  0  0  0
  -28.0962  -29.0781   21.1935 H   0  0  0  0  0  0
  -26.0422  -25.9006   19.1389 H   0  0  0  0  0  0
  -23.9785  -27.2664   19.0595 H   0  0  0  0  0  0
  -23.6991  -30.5743   19.3886 H   0  0  0  0  0  0
  -22.7403  -29.2171   19.8789 H   0  0  0  0  0  0
  -25.1261  -36.1950   25.0872 H   0  0  0  0  0  0
  -20.9885  -28.3150   24.1422 H   0  0  0  0  0  0
  -20.5577  -26.2268   23.3592 H   0  0  0  0  0  0
  -21.6595  -26.7345   22.1212 H   0  0  0  0  0  0
  -19.6892  -25.6257   21.1199 H   0  0  0  0  0  0
  -19.6688  -27.3161   20.6696 H   0  0  0  0  0  0
  -17.4177  -26.6673   21.3966 H   0  0  0  0  0  0
  -18.0277  -26.0041   22.8940 H   0  0  0  0  0  0
  -19.7920  -30.7225   24.2226 H   0  0  0  0  0  0
  -17.5008  -31.6270   24.5087 H   0  0  0  0  0  0
  -15.5320  -30.2944   23.7728 H   0  0  0  0  0  0
  -15.8634  -28.0752   22.7198 H   0  0  0  0  0  0
  -24.6014  -30.6930   25.7833 H   0  0  0  0  0  0
  -24.8914  -32.2799   26.4924 H   0  0  0  0  0  0
  -25.8165  -30.8887   27.0243 H   0  0  0  0  0  0
  -26.2946  -29.6760   24.1233 H   0  0  0  0  0  0
  -27.4133  -29.7319   25.4659 H   0  0  0  0  0  0
  -27.8748  -30.4398   23.9342 H   0  0  0  0  0  0
  -27.2793  -33.3632   26.2031 H   0  0  0  0  0  0
  -28.3922  -32.6729   25.0303 H   0  0  0  0  0  0
  -28.0757  -31.8431   26.5426 H   0  0  0  0  0  0
  -28.2545  -38.0098   24.7558 H   0  0  0  0  0  0
  -28.1061  -36.2624   24.6232 H   0  0  0  0  0  0
  -27.2290  -37.1295   25.8869 H   0  0  0  0  0  0
  -20.9377  -29.8749   21.6931 H   0  0  0  0  0  0
  -26.0134  -38.2870   24.1516 H   0  0  0  0  0  0
  -31.7175  -19.1752   20.1135 H   0  0  0  0  0  0
  -28.3210  -17.6035   22.2630 H   0  0  0  0  0  0
  -30.8474  -21.4395   20.3259 H   0  0  0  0  0  0
  -27.4429  -19.8769   22.4939 H   0  0  0  0  0  0
  -27.6642  -25.6840   24.3271 H   0  0  0  0  0  0
  -27.3252  -24.0688   25.1398 H   0  0  0  0  0  0
  -27.6848  -26.4883   22.2678 H   0  0  0  0  0  0
  -26.8511  -22.1040   22.9056 H   0  0  0  0  0  0
  -28.3664  -21.9724   23.8357 H   0  0  0  0  0  0
  -29.1574  -15.6757   21.0169 H   0  0  0  0  0  0
  1 25  1  0  0  0
  1 30  2  0  0  0
  1 85  1  0  0  0
  2  3  1  0  0  0
  2 25  1  0  0  0
  2 88  1  0  0  0
  2 89  1  0  0  0
  3  4  1  0  0  0
  3 90  1  0  0  0
  3 91  1  0  0  0
  4  5  1  0  0  0
  4 92  1  0  0  0
  4 93  1  0  0  0
  5  6  1  0  0  0
  5 26  1  0  0  0
  5 94  1  0  0  0
  6 25  1  0  0  0
  6 95  1  0  0  0
  6 96  1  0  0  0
  7  8  2  0  0  0
  7 26  1  0  0  0
  7 29  1  0  0  0
  8  9  1  0  0  0
  8 22  1  0  0  0
  9 10  1  0  0  0
  9 27  2  0  0  0
 10 11  2  0  0  0
 10 15  1  0  0  0
 11 12  1  0  0  0
 11 97  1  0  0  0
 12 13  2  0  0  0
 12 98  1  0  0  0
 13 14  1  0  0  0
 13 31  1  0  0  0
 14 15  2  0  0  0
 14 99  1  0  0  0
 15100  1  0  0  0
 16 17  2  0  0  0
 16 21  1  0  0  0
 16 31  1  0  0  0
 17 18  1  0  0  0
 17101  1  0  0  0
 18 19  2  0  0  0
 18102  1  0  0  0
 19 20  1  0  0  0
 19 24  1  0  0  0
 20 21  2  0  0  0
 20103  1  0  0  0
 21 23  1  0  0  0
 22 28  1  0  0  0
 22 32  2  0  0  0
 26 27  1  0  0  0
 28104  1  0  0  0
 28105  1  0  0  0
 29106  1  0  0  0
 29107  1  0  0  0
 33 34  1  0  0  0
 33 66  1  0  0  0
 33 70  2  0  0  0
 34 36  1  0  0  0
 34 59  1  0  0  0
 34108  1  0  0  0
 35 44  2  0  0  0
 35 45  1  0  0  0
 35 68  1  0  0  0
 36 56  1  0  0  0
 36109  1  0  0  0
 37 39  1  0  0  0
 37 47  1  0  0  0
 37 66  1  0  0  0
 37110  1  0  0  0
 38 43  2  0  0  0
 38 46  1  0  0  0
 38 47  1  0  0  0
 39 64  1  0  0  0
 39 67  2  0  0  0
 40 52  1  0  0  0
 40 53  2  0  0  0
 40 58  1  0  0  0
 41111  1  0  0  0
 41112  1  0  0  0
 41113  1  0  0  0
 41 48  1  0  0  0
 42 43  1  0  0  0
 42 66  1  0  0  0
 42114  1  0  0  0
 42115  1  0  0  0
 43 44  1  0  0  0
 44116  1  0  0  0
 45 46  2  0  0  0
 45117  1  0  0  0
 46118  1  0  0  0
 47119  1  0  0  0
 47120  1  0  0  0
 48 56  1  0  0  0
 48 65  1  0  0  0
 48121  1  0  0  0
 49 50  1  0  0  0
 49 53  1  0  0  0
 49 64  1  0  0  0
 49122  1  0  0  0
 50 51  1  0  0  0
 50123  1  0  0  0
 50124  1  0  0  0
 51 52  1  0  0  0
 51125  1  0  0  0
 51126  1  0  0  0
 52127  1  0  0  0
 52128  1  0  0  0
 53 54  1  0  0  0
 54 55  2  0  0  0
 54129  1  0  0  0
 55 57  1  0  0  0
 55130  1  0  0  0
 56 69  2  0  0  0
 57 58  2  0  0  0
 57131  1  0  0  0
 58132  1  0  0  0
 59 60  1  0  0  0
 59 61  1  0  0  0
 59 62  1  0  0  0
 60133  1  0  0  0
 60134  1  0  0  0
 60135  1  0  0  0
 61136  1  0  0  0
 61137  1  0  0  0
 61138  1  0  0  0
 62139  1  0  0  0
 62140  1  0  0  0
 62141  1  0  0  0
 63 65  1  0  0  0
 63142  1  0  0  0
 63143  1  0  0  0
 63144  1  0  0  0
 64145  1  0  0  0
 65146  1  0  0  0
 68 81  1  0  0  0
 71 73  2  0  0  0
 71 75  1  0  0  0
 71147  1  0  0  0
 72 74  1  0  0  0
 72 75  2  0  0  0
 72148  1  0  0  0
 73 76  1  0  0  0
 73149  1  0  0  0
 74 76  2  0  0  0
 74150  1  0  0  0
 75 82  1  0  0  0
 76 84  1  0  0  0
 77 78  1  0  0  0
 77 79  1  0  0  0
 77 81  2  0  0  0
 78 80  2  0  0  0
 78 83  1  0  0  0
 79 84  1  0  0  0
 79 86  2  0  0  0
 80151  1  0  0  0
 80152  1  0  0  0
 81153  1  0  0  0
 82 85  1  0  0  0
 82 87  2  0  0  0
 83 84  1  0  0  0
 83154  1  0  0  0
 83155  1  0  0  0
 85156  1  0  0  0
M  ISO  4   1 100  68 101  81 101  85 100
M  END
> <chiral flag>
0

> <version>
0

> <s_m_source_file>
/data/baiqing/PycharmProjects/Reinvent-master-3.2/result/LINK_invent/BTK/process_docking_weight1_custom_product_contain_oxygen_bond_distance_aromatic_linkinvent_7_9_3/rearranged_h_0080.sdf

> <i_m_source_file_index>
20

> <r_mmod_Potential_Energy-OPLS-2005>
151.68440246582

> <r_mmod_Stretch_Energy-OPLS-2005>
56.2755432128906

> <r_mmod_Bend_Energy-OPLS-2005>
184.252212524414

> <r_mmod_Torsional_Energy-OPLS-2005>
297.313873291016

> <r_mmod_Improper_Torsional_Energy-OPLS-2005>
6.79269790649414

> <r_mmod_Van_der_Waal_Energy-OPLS-2005>
158.60188293457

> <r_mmod_Electrostatic_Energy-OPLS-2005>
-357.063873291016

> <r_mmod_Solvation_Energy-OPLS-2005>
-235.369186401367

> <b_mmod_Minimization_Converged-OPLS-2005>
0

> <r_mmod_RMS_Derivative-OPLS-2005>
5.64873456954956

$$$$
20
                    3D
 Structure written by MMmdl.
154163  0  0  1  0            999 V2000
  -30.4935  -14.9264   20.4540 C   0  0  0  0  0  0
  -30.4640  -12.5794   19.4866 C   0  0  0  0  0  0
  -29.5281  -12.5506   18.2504 C   0  0  0  0  0  0
  -28.0539  -12.3337   18.6557 C   0  0  0  0  0  0
  -27.6437  -13.2194   19.8596 C   0  0  2  0  0  0
  -28.6955  -13.1291   20.9860 C   0  0  0  0  0  0
  -25.2531  -13.8133   20.5716 C   0  0  0  0  0  0
  -24.1785  -13.0401   20.9158 C   0  0  0  0  0  0
  -24.6374  -11.6878   20.8722 C   0  0  0  0  0  0
  -23.9047  -10.4270   21.0398 C   0  0  0  0  0  0
  -24.3602   -9.4196   21.9183 C   0  0  0  0  0  0
  -23.6282   -8.2231   22.0753 C   0  0  0  0  0  0
  -22.4266   -8.0269   21.3542 C   0  0  0  0  0  0
  -21.9897   -9.0238   20.4643 C   0  0  0  0  0  0
  -22.7222  -10.2117   20.3048 C   0  0  0  0  0  0
  -21.6848   -6.0730   22.5282 C   0  0  0  0  0  0
  -21.4009   -6.5636   23.8214 C   0  0  0  0  0  0
  -21.3660   -5.6791   24.9177 C   0  0  0  0  0  0
  -21.6045   -4.3054   24.7229 C   0  0  0  0  0  0
  -21.8819   -3.8144   23.4350 C   0  0  0  0  0  0
  -21.9192   -4.6959   22.3406 C   0  0  0  0  0  0
  -22.7819  -13.5206   21.1851 C   0  0  0  0  0  0
  -22.1662   -4.2144   21.0982 F   0  0  0  0  0  0
  -21.5630   -3.4539   25.7743 F   0  0  0  0  0  0
  -29.9646  -13.6268   20.4240 N   0  0  0  0  0  0
  -26.2951  -12.9308   20.3337 N   0  0  0  0  0  0
  -25.9306  -11.6461   20.5745 N   0  0  0  0  0  0
  -22.0467  -12.8198   22.0411 N   0  0  0  0  0  0
  -25.4324  -15.1844   20.4249 N   0  0  0  0  0  0
  -31.6751  -15.0630   20.1059 O   0  0  0  0  0  0
  -21.6630   -6.8869   21.4241 O   0  0  0  0  0  0
  -22.3506  -14.5528   20.6730 O   0  0  0  0  0  0
  -24.6409  -31.8472   23.1900 C   0  0  0  0  0  0
  -25.9198  -32.4713   23.8279 C   0  0  1  0  0  0
  -27.2271  -27.1708   20.1524 C   0  0  0  0  0  0
  -25.5965  -33.8516   24.2212 N   0  0  0  0  0  0
  -23.4438  -30.4645   21.5350 C   0  0  2  0  0  0
  -24.8966  -28.8933   20.1135 C   0  0  0  0  0  0
  -22.7557  -29.4554   22.4876 C   0  0  0  0  0  0
  -18.0304  -28.1393   22.8477 C   0  0  0  0  0  0
  -24.1491  -36.7252   23.2638 C   0  0  0  0  0  0
  -25.9967  -30.7301   21.3854 C   0  0  0  0  0  0
  -26.0712  -29.3425   20.7316 C   0  0  0  0  0  0
  -27.2393  -28.4956   20.7371 C   0  0  0  0  0  0
  -26.0301  -26.8133   19.4970 C   0  0  0  0  0  0
  -24.8852  -27.6392   19.4832 C   0  0  0  0  0  0
  -23.6707  -29.7919   20.1550 C   0  0  0  0  0  0
  -25.4123  -36.3041   24.0320 C   0  0  1  0  0  0
  -20.5914  -28.3717   23.1245 C   0  0  2  0  0  0
  -20.6787  -26.9420   22.5407 C   0  0  0  0  0  0
  -19.5764  -26.6381   21.5211 C   0  0  0  0  0  0
  -18.1945  -26.7933   22.1621 C   0  0  0  0  0  0
  -19.1560  -28.8874   23.2852 C   0  0  0  0  0  0
  -18.9476  -30.1470   23.8874 C   0  0  0  0  0  0
  -17.6472  -30.6590   24.0559 C   0  0  0  0  0  0
  -25.9072  -34.9415   23.5072 C   0  0  0  0  0  0
  -16.5363  -29.9081   23.6332 C   0  0  0  0  0  0
  -16.7287  -28.6501   23.0355 C   0  0  0  0  0  0
  -26.4531  -31.6564   25.0705 C   0  0  0  0  0  0
  -25.3720  -31.3765   26.1406 C   0  0  0  0  0  0
  -27.0383  -30.2956   24.6266 C   0  0  0  0  0  0
  -27.6074  -32.4311   25.7491 C   0  0  0  0  0  0
  -27.5577  -37.1787   24.8466 C   0  0  0  0  0  0
  -21.4255  -29.3042   22.3620 N   0  0  0  0  0  0
  -26.4291  -37.3747   23.9407 N   0  0  0  0  0  0
  -24.7128  -31.0343   22.0926 N   0  0  0  0  0  0
  -23.4208  -28.8105   23.3022 O   0  0  0  0  0  0
  -28.2823  -26.1941   20.1743 O   0  0  0  0  0  0
  -26.5640  -34.8908   22.4641 O   0  0  0  0  0  0
  -23.5533  -32.1339   23.7136 O   0  0  0  0  0  0
  -29.1431  -18.5894   19.5235 C   0  0  0  0  0  0
  -30.1537  -18.6995   21.6432 C   0  0  0  0  0  0
  -28.9054  -20.0290   19.5437 C   0  0  0  0  0  0
  -29.9112  -20.1291   21.6724 C   0  0  0  0  0  0
  -29.7462  -17.8222   20.5862 C   0  0  0  0  0  0
  -29.2277  -20.8818   20.6529 C   0  0  0  0  0  0
  -27.2062  -24.6683   21.6631 C   0  0  0  0  0  0
  -28.0920  -24.8246   20.6575 C   0  0  0  0  0  0
  -28.8129  -23.5285   20.1723 C   0  0  0  0  0  0
  -29.5202  -16.2445   20.7949 C   0  0  0  0  0  0
  -26.8993  -23.3576   22.3355 C   0  0  0  0  0  0
  -28.0991  -22.4103   22.2491 C   0  0  0  0  0  0
  -28.3767  -16.0581   21.3021 N   0  0  0  0  0  0
  -28.7030  -22.3059   20.9085 N   0  0  0  0  0  0
  -29.4782  -23.5360   19.1317 O   0  0  0  0  0  0
  -31.4892  -12.7749   19.1689 H   0  0  0  0  0  0
  -30.4932  -11.6029   19.9727 H   0  0  0  0  0  0
  -29.8442  -11.7727   17.5545 H   0  0  0  0  0  0
  -29.6178  -13.4951   17.7120 H   0  0  0  0  0  0
  -27.9310  -11.2820   18.9152 H   0  0  0  0  0  0
  -27.3956  -12.5178   17.8061 H   0  0  0  0  0  0
  -27.6335  -14.2406   19.4817 H   0  0  0  0  0  0
  -28.7957  -12.0964   21.3228 H   0  0  0  0  0  0
  -28.3971  -13.6703   21.8816 H   0  0  0  0  0  0
  -25.2744   -9.5679   22.4761 H   0  0  0  0  0  0
  -23.9996   -7.4620   22.7471 H   0  0  0  0  0  0
  -21.0831   -8.8751   19.8945 H   0  0  0  0  0  0
  -22.3682  -10.9653   19.6156 H   0  0  0  0  0  0
  -21.1998   -7.6145   23.9717 H   0  0  0  0  0  0
  -21.1485   -6.0521   25.9080 H   0  0  0  0  0  0
  -22.0600   -2.7606   23.2853 H   0  0  0  0  0  0
  -22.4071  -11.9842   22.4776 H   0  0  0  0  0  0
  -21.1090  -13.1231   22.2633 H   0  0  0  0  0  0
  -24.7082  -15.8567   20.6502 H   0  0  0  0  0  0
  -26.3664  -15.5862   20.4078 H   0  0  0  0  0  0
  -26.7265  -32.5346   23.1007 H   0  0  0  0  0  0
  -25.0126  -33.9631   25.0374 H   0  0  0  0  0  0
  -22.7437  -31.2883   21.3801 H   0  0  0  0  0  0
  -23.3760  -35.9578   23.3303 H   0  0  0  0  0  0
  -24.3569  -36.8872   22.2049 H   0  0  0  0  0  0
  -23.7239  -37.6451   23.6663 H   0  0  0  0  0  0
  -26.1457  -31.4841   20.6113 H   0  0  0  0  0  0
  -26.8686  -30.7838   22.0252 H   0  0  0  0  0  0
  -28.1372  -28.8338   21.2343 H   0  0  0  0  0  0
  -25.9680  -25.8463   19.0182 H   0  0  0  0  0  0
  -23.9883  -27.2888   18.9910 H   0  0  0  0  0  0
  -23.8051  -30.5654   19.3978 H   0  0  0  0  0  0
  -22.7870  -29.2304   19.8465 H   0  0  0  0  0  0
  -25.1305  -36.1872   25.0810 H   0  0  0  0  0  0
  -21.0004  -28.3309   24.1368 H   0  0  0  0  0  0
  -20.5676  -26.2328   23.3623 H   0  0  0  0  0  0
  -21.6656  -26.7427   22.1208 H   0  0  0  0  0  0
  -19.6921  -25.6286   21.1253 H   0  0  0  0  0  0
  -19.6703  -27.3178   20.6732 H   0  0  0  0  0  0
  -17.4213  -26.6680   21.4024 H   0  0  0  0  0  0
  -18.0341  -26.0079   22.9021 H   0  0  0  0  0  0
  -19.7952  -30.7298   24.2226 H   0  0  0  0  0  0
  -17.5025  -31.6267   24.5167 H   0  0  0  0  0  0
  -15.5363  -30.2976   23.7670 H   0  0  0  0  0  0
  -15.8689  -28.0811   22.7081 H   0  0  0  0  0  0
  -24.5921  -30.7074   25.7746 H   0  0  0  0  0  0
  -24.8883  -32.2954   26.4733 H   0  0  0  0  0  0
  -25.8013  -30.9023   27.0240 H   0  0  0  0  0  0
  -26.2994  -29.6688   24.1260 H   0  0  0  0  0  0
  -27.3984  -29.7240   25.4830 H   0  0  0  0  0  0
  -27.8904  -30.4183   23.9578 H   0  0  0  0  0  0
  -27.2688  -33.3647   26.1993 H   0  0  0  0  0  0
  -28.3933  -32.6804   25.0351 H   0  0  0  0  0  0
  -28.0677  -31.8472   26.5469 H   0  0  0  0  0  0
  -28.2598  -38.0081   24.7503 H   0  0  0  0  0  0
  -28.1071  -36.2610   24.6307 H   0  0  0  0  0  0
  -27.2291  -37.1451   25.8870 H   0  0  0  0  0  0
  -20.9461  -29.8744   21.6791 H   0  0  0  0  0  0
  -26.0162  -38.2818   24.1408 H   0  0  0  0  0  0
  -28.7356  -18.0368   18.6886 H   0  0  0  0  0  0
  -30.5706  -18.2496   22.5335 H   0  0  0  0  0  0
  -28.3570  -20.4587   18.7170 H   0  0  0  0  0  0
  -30.1966  -20.6478   22.5769 H   0  0  0  0  0  0
  -26.6588  -25.5162   22.0484 H   0  0  0  0  0  0
  -26.0188  -22.9176   21.8646 H   0  0  0  0  0  0
  -26.6445  -23.5382   23.3808 H   0  0  0  0  0  0
  -27.7707  -21.4325   22.6054 H   0  0  0  0  0  0
  -28.8759  -22.7419   22.9400 H   0  0  0  0  0  0
  -27.9217  -16.9486   21.4630 H   0  0  0  0  0  0
  1 25  1  0  0  0
  1 30  2  0  0  0
  1 80  1  0  0  0
  2  3  1  0  0  0
  2 25  1  0  0  0
  2 86  1  0  0  0
  2 87  1  0  0  0
  3  4  1  0  0  0
  3 88  1  0  0  0
  3 89  1  0  0  0
  4  5  1  0  0  0
  4 90  1  0  0  0
  4 91  1  0  0  0
  5  6  1  0  0  0
  5 26  1  0  0  0
  5 92  1  0  0  0
  6 25  1  0  0  0
  6 93  1  0  0  0
  6 94  1  0  0  0
  7  8  2  0  0  0
  7 26  1  0  0  0
  7 29  1  0  0  0
  8  9  1  0  0  0
  8 22  1  0  0  0
  9 10  1  0  0  0
  9 27  2  0  0  0
 10 11  2  0  0  0
 10 15  1  0  0  0
 11 12  1  0  0  0
 11 95  1  0  0  0
 12 13  2  0  0  0
 12 96  1  0  0  0
 13 14  1  0  0  0
 13 31  1  0  0  0
 14 15  2  0  0  0
 14 97  1  0  0  0
 15 98  1  0  0  0
 16 17  2  0  0  0
 16 21  1  0  0  0
 16 31  1  0  0  0
 17 18  1  0  0  0
 17 99  1  0  0  0
 18 19  2  0  0  0
 18100  1  0  0  0
 19 20  1  0  0  0
 19 24  1  0  0  0
 20 21  2  0  0  0
 20101  1  0  0  0
 21 23  1  0  0  0
 22 28  1  0  0  0
 22 32  2  0  0  0
 26 27  1  0  0  0
 28102  1  0  0  0
 28103  1  0  0  0
 29104  1  0  0  0
 29105  1  0  0  0
 33 34  1  0  0  0
 33 66  1  0  0  0
 33 70  2  0  0  0
 34 36  1  0  0  0
 34 59  1  0  0  0
 34106  1  0  0  0
 35 44  2  0  0  0
 35 45  1  0  0  0
 35 68  1  0  0  0
 36 56  1  0  0  0
 36107  1  0  0  0
 37 39  1  0  0  0
 37 47  1  0  0  0
 37 66  1  0  0  0
 37108  1  0  0  0
 38 43  2  0  0  0
 38 46  1  0  0  0
 38 47  1  0  0  0
 39 64  1  0  0  0
 39 67  2  0  0  0
 40 52  1  0  0  0
 40 53  2  0  0  0
 40 58  1  0  0  0
 41109  1  0  0  0
 41110  1  0  0  0
 41111  1  0  0  0
 41 48  1  0  0  0
 42 43  1  0  0  0
 42 66  1  0  0  0
 42112  1  0  0  0
 42113  1  0  0  0
 43 44  1  0  0  0
 44114  1  0  0  0
 45 46  2  0  0  0
 45115  1  0  0  0
 46116  1  0  0  0
 47117  1  0  0  0
 47118  1  0  0  0
 48 56  1  0  0  0
 48 65  1  0  0  0
 48119  1  0  0  0
 49 50  1  0  0  0
 49 53  1  0  0  0
 49 64  1  0  0  0
 49120  1  0  0  0
 50 51  1  0  0  0
 50121  1  0  0  0
 50122  1  0  0  0
 51 52  1  0  0  0
 51123  1  0  0  0
 51124  1  0  0  0
 52125  1  0  0  0
 52126  1  0  0  0
 53 54  1  0  0  0
 54 55  2  0  0  0
 54127  1  0  0  0
 55 57  1  0  0  0
 55128  1  0  0  0
 56 69  2  0  0  0
 57 58  2  0  0  0
 57129  1  0  0  0
 58130  1  0  0  0
 59 60  1  0  0  0
 59 61  1  0  0  0
 59 62  1  0  0  0
 60131  1  0  0  0
 60132  1  0  0  0
 60133  1  0  0  0
 61134  1  0  0  0
 61135  1  0  0  0
 61136  1  0  0  0
 62137  1  0  0  0
 62138  1  0  0  0
 62139  1  0  0  0
 63 65  1  0  0  0
 63140  1  0  0  0
 63141  1  0  0  0
 63142  1  0  0  0
 64143  1  0  0  0
 65144  1  0  0  0
 68 78  1  0  0  0
 71 73  2  0  0  0
 71 75  1  0  0  0
 71145  1  0  0  0
 72 74  1  0  0  0
 72 75  2  0  0  0
 72146  1  0  0  0
 73 76  1  0  0  0
 73147  1  0  0  0
 74 76  2  0  0  0
 74148  1  0  0  0
 75 80  1  0  0  0
 76 84  1  0  0  0
 77 78  2  0  0  0
 77 81  1  0  0  0
 77149  1  0  0  0
 78 79  1  0  0  0
 79 84  1  0  0  0
 79 85  2  0  0  0
 80 83  2  0  0  0
 81 82  1  0  0  0
 81150  1  0  0  0
 81151  1  0  0  0
 82 84  1  0  0  0
 82152  1  0  0  0
 82153  1  0  0  0
 83154  1  0  0  0
M  ISO  4   1 100  68 101  78 101  80 100
M  END
> <chiral flag>
0

> <version>
0

> <s_m_source_file>
/data/baiqing/PycharmProjects/Reinvent-master-3.2/result/LINK_invent/BTK/process_docking_weight1_custom_product_contain_oxygen_bond_distance_aromatic_linkinvent_7_9_3/rearranged_h_0080.sdf

> <i_m_source_file_index>
21

> <r_mmod_Potential_Energy-OPLS-2005>
744.416198730469

> <r_mmod_Stretch_Energy-OPLS-2005>
240.809005737305

> <r_mmod_Bend_Energy-OPLS-2005>
248.556167602539

> <r_mmod_Torsional_Energy-OPLS-2005>
291.636413574219

> <r_mmod_Improper_Torsional_Energy-OPLS-2005>
11.3042001724243

> <r_mmod_Van_der_Waal_Energy-OPLS-2005>
157.956069946289

> <r_mmod_Electrostatic_Energy-OPLS-2005>
-169.028091430664

> <r_mmod_Solvation_Energy-OPLS-2005>
-203.540817260742

> <b_mmod_Minimization_Converged-OPLS-2005>
0

> <r_mmod_RMS_Derivative-OPLS-2005>
0.834984004497528

$$$$
21
                    3D
 Structure written by MMmdl.
154163  0  0  1  0            999 V2000
  -30.5937  -14.6869   20.4966 C   0  0  0  0  0  0
  -30.4457  -12.4209   19.4629 C   0  0  0  0  0  0
  -29.5156  -12.5150   18.2318 C   0  0  0  0  0  0
  -28.0379  -12.3437   18.6404 C   0  0  0  0  0  0
  -27.6533  -13.2176   19.8637 C   0  0  2  0  0  0
  -28.6969  -13.0819   20.9955 C   0  0  0  0  0  0
  -25.2563  -13.8173   20.5685 C   0  0  0  0  0  0
  -24.1828  -13.0441   20.9185 C   0  0  0  0  0  0
  -24.6392  -11.6912   20.8732 C   0  0  0  0  0  0
  -23.9060  -10.4296   21.0401 C   0  0  0  0  0  0
  -24.3613   -9.4211   21.9178 C   0  0  0  0  0  0
  -23.6287   -8.2248   22.0755 C   0  0  0  0  0  0
  -22.4268   -8.0285   21.3548 C   0  0  0  0  0  0
  -21.9901   -9.0258   20.4649 C   0  0  0  0  0  0
  -22.7231  -10.2134   20.3053 C   0  0  0  0  0  0
  -21.6858   -6.0733   22.5275 C   0  0  0  0  0  0
  -21.4018   -6.5635   23.8210 C   0  0  0  0  0  0
  -21.3660   -5.6786   24.9171 C   0  0  0  0  0  0
  -21.6043   -4.3049   24.7222 C   0  0  0  0  0  0
  -21.8820   -3.8143   23.4342 C   0  0  0  0  0  0
  -21.9195   -4.6960   22.3397 C   0  0  0  0  0  0
  -22.7849  -13.5238   21.1848 C   0  0  0  0  0  0
  -22.1663   -4.2148   21.0974 F   0  0  0  0  0  0
  -21.5627   -3.4531   25.7735 F   0  0  0  0  0  0
  -30.0091  -13.4445   20.4356 N   0  0  0  0  0  0
  -26.2985  -12.9350   20.3306 N   0  0  0  0  0  0
  -25.9322  -11.6505   20.5743 N   0  0  0  0  0  0
  -22.0484  -12.8240   22.0403 N   0  0  0  0  0  0
  -25.4283  -15.1894   20.4109 N   0  0  0  0  0  0
  -31.7518  -14.8608   20.1032 O   0  0  0  0  0  0
  -21.6640   -6.8876   21.4239 O   0  0  0  0  0  0
  -22.3538  -14.5548   20.6695 O   0  0  0  0  0  0
  -24.6280  -31.8580   23.2012 C   0  0  0  0  0  0
  -25.9119  -32.4770   23.8347 C   0  0  1  0  0  0
  -27.2250  -27.2997   20.1263 C   0  0  0  0  0  0
  -25.5922  -33.8573   24.2269 N   0  0  0  0  0  0
  -23.4235  -30.4802   21.5438 C   0  0  2  0  0  0
  -24.8721  -28.9318   20.1110 C   0  0  0  0  0  0
  -22.7487  -29.4612   22.4929 C   0  0  0  0  0  0
  -18.0291  -28.1382   22.8487 C   0  0  0  0  0  0
  -24.1487  -36.7296   23.2637 C   0  0  0  0  0  0
  -25.9658  -30.7811   21.3771 C   0  0  0  0  0  0
  -26.0407  -29.4059   20.7221 C   0  0  0  0  0  0
  -27.2207  -28.6000   20.7237 C   0  0  0  0  0  0
  -26.0387  -26.8879   19.4797 C   0  0  0  0  0  0
  -24.8732  -27.6778   19.4808 C   0  0  0  0  0  0
  -23.6401  -29.8137   20.1596 C   0  0  0  0  0  0
  -25.4108  -36.3080   24.0328 C   0  0  1  0  0  0
  -20.5892  -28.3691   23.1278 C   0  0  2  0  0  0
  -20.6782  -26.9413   22.5405 C   0  0  0  0  0  0
  -19.5754  -26.6380   21.5213 C   0  0  0  0  0  0
  -18.1934  -26.7924   22.1628 C   0  0  0  0  0  0
  -19.1543  -28.8854   23.2876 C   0  0  0  0  0  0
  -18.9464  -30.1456   23.8891 C   0  0  0  0  0  0
  -17.6464  -30.6585   24.0559 C   0  0  0  0  0  0
  -25.9047  -34.9449   23.5100 C   0  0  0  0  0  0
  -16.5356  -29.9080   23.6329 C   0  0  0  0  0  0
  -16.7278  -28.6498   23.0351 C   0  0  0  0  0  0
  -26.4492  -31.6592   25.0730 C   0  0  0  0  0  0
  -25.3718  -31.3748   26.1456 C   0  0  0  0  0  0
  -27.0344  -30.3012   24.6209 C   0  0  0  0  0  0
  -27.6046  -32.4331   25.7504 C   0  0  0  0  0  0
  -27.5581  -37.1794   24.8455 C   0  0  0  0  0  0
  -21.4198  -29.3044   22.3672 N   0  0  0  0  0  0
  -26.4283  -37.3778   23.9413 N   0  0  0  0  0  0
  -24.6912  -31.0569   22.0974 N   0  0  0  0  0  0
  -23.4199  -28.8153   23.3019 O   0  0  0  0  0  0
  -28.3171  -26.4129   20.1582 O   0  0  0  0  0  0
  -26.5618  -34.8922   22.4669 O   0  0  0  0  0  0
  -23.5438  -32.1389   23.7326 O   0  0  0  0  0  0
  -28.5738  -19.3587   21.0983 C   0  0  0  0  0  0
  -30.6724  -19.3915   19.9566 C   0  0  0  0  0  0
  -28.6813  -17.9380   21.2258 C   0  0  0  0  0  0
  -30.7823  -17.9658   20.0834 C   0  0  0  0  0  0
  -29.5644  -20.1527   20.4518 C   0  0  0  0  0  0
  -29.7807  -17.1864   20.7242 C   0  0  0  0  0  0
  -28.8670  -23.9310   20.2720 C   0  0  0  0  0  0
  -30.1820  -23.8284   19.7056 C   0  0  0  0  0  0
  -28.4868  -22.5343   20.6300 C   0  0  0  0  0  0
  -30.9410  -24.8539   19.2820 C   0  0  0  0  0  0
  -28.0703  -25.0478   20.4636 C   0  0  0  0  0  0
  -30.6089  -22.3770   19.6777 C   0  0  0  0  0  0
  -29.4919  -21.6375   20.2925 N   0  0  0  0  0  0
  -29.7677  -15.7195   20.8819 N   0  0  0  0  0  0
  -27.4147  -22.2150   21.1542 O   0  0  0  0  0  0
  -31.4860  -12.5568   19.1624 H   0  0  0  0  0  0
  -30.3926  -11.4276   19.9111 H   0  0  0  0  0  0
  -29.7893  -11.7597   17.4939 H   0  0  0  0  0  0
  -29.6508  -13.4813   17.7439 H   0  0  0  0  0  0
  -27.8808  -11.2906   18.8760 H   0  0  0  0  0  0
  -27.3850  -12.5670   17.7958 H   0  0  0  0  0  0
  -27.6681  -14.2511   19.5175 H   0  0  0  0  0  0
  -28.7190  -12.0590   21.3746 H   0  0  0  0  0  0
  -28.4320  -13.7070   21.8496 H   0  0  0  0  0  0
  -25.2760   -9.5692   22.4748 H   0  0  0  0  0  0
  -24.0003   -7.4640   22.7475 H   0  0  0  0  0  0
  -21.0833   -8.8774   19.8953 H   0  0  0  0  0  0
  -22.3689  -10.9673   19.6159 H   0  0  0  0  0  0
  -21.2013   -7.6144   23.9714 H   0  0  0  0  0  0
  -21.1479   -6.0514   25.9074 H   0  0  0  0  0  0
  -22.0599   -2.7606   23.2843 H   0  0  0  0  0  0
  -22.4093  -11.9903   22.4801 H   0  0  0  0  0  0
  -21.1107  -13.1282   22.2608 H   0  0  0  0  0  0
  -24.6596  -15.8430   20.5138 H   0  0  0  0  0  0
  -26.2718  -15.6257   20.0604 H   0  0  0  0  0  0
  -26.7193  -32.5430   23.1098 H   0  0  0  0  0  0
  -25.0059  -33.9716   25.0408 H   0  0  0  0  0  0
  -22.7187  -31.3015   21.3991 H   0  0  0  0  0  0
  -23.3751  -35.9626   23.3286 H   0  0  0  0  0  0
  -24.3584  -36.8931   22.2054 H   0  0  0  0  0  0
  -23.7243  -37.6494   23.6670 H   0  0  0  0  0  0
  -26.0987  -31.5420   20.6068 H   0  0  0  0  0  0
  -26.8459  -30.8321   22.0066 H   0  0  0  0  0  0
  -28.1157  -28.9540   21.2151 H   0  0  0  0  0  0
  -26.0014  -25.9259   18.9878 H   0  0  0  0  0  0
  -23.9798  -27.3100   18.9947 H   0  0  0  0  0  0
  -23.7595  -30.5895   19.4025 H   0  0  0  0  0  0
  -22.7598  -29.2437   19.8565 H   0  0  0  0  0  0
  -25.1288  -36.1924   25.0820 H   0  0  0  0  0  0
  -20.9985  -28.3266   24.1399 H   0  0  0  0  0  0
  -20.5689  -26.2299   23.3606 H   0  0  0  0  0  0
  -21.6650  -26.7442   22.1195 H   0  0  0  0  0  0
  -19.6912  -25.6289   21.1250 H   0  0  0  0  0  0
  -19.6685  -27.3187   20.6739 H   0  0  0  0  0  0
  -17.4201  -26.6670   21.4034 H   0  0  0  0  0  0
  -18.0332  -26.0064   22.9023 H   0  0  0  0  0  0
  -19.7938  -30.7275   24.2256 H   0  0  0  0  0  0
  -17.5016  -31.6267   24.5159 H   0  0  0  0  0  0
  -15.5356  -30.2978   23.7655 H   0  0  0  0  0  0
  -15.8679  -28.0814   22.7071 H   0  0  0  0  0  0
  -24.5855  -30.7144   25.7779 H   0  0  0  0  0  0
  -24.8957  -32.2930   26.4908 H   0  0  0  0  0  0
  -25.8024  -30.8886   27.0219 H   0  0  0  0  0  0
  -26.2935  -29.6756   24.1219 H   0  0  0  0  0  0
  -27.4020  -29.7277   25.4730 H   0  0  0  0  0  0
  -27.8811  -30.4299   23.9462 H   0  0  0  0  0  0
  -27.2645  -33.3617   26.2102 H   0  0  0  0  0  0
  -28.3845  -32.6917   25.0329 H   0  0  0  0  0  0
  -28.0729  -31.8448   26.5406 H   0  0  0  0  0  0
  -28.2575  -38.0115   24.7537 H   0  0  0  0  0  0
  -28.1103  -36.2650   24.6230 H   0  0  0  0  0  0
  -27.2308  -37.1381   25.8858 H   0  0  0  0  0  0
  -20.9378  -29.8765   21.6878 H   0  0  0  0  0  0
  -26.0162  -38.2849   24.1427 H   0  0  0  0  0  0
  -27.6947  -19.8228   21.5192 H   0  0  0  0  0  0
  -31.4812  -19.8985   19.4508 H   0  0  0  0  0  0
  -27.8770  -17.4185   21.7279 H   0  0  0  0  0  0
  -31.6526  -17.4774   19.6680 H   0  0  0  0  0  0
  -30.5999  -25.8776   19.3309 H   0  0  0  0  0  0
  -31.9287  -24.6833   18.8782 H   0  0  0  0  0  0
  -27.0987  -24.9246   20.9244 H   0  0  0  0  0  0
  -31.5281  -22.2385   20.2487 H   0  0  0  0  0  0
  -30.7724  -22.0521   18.6492 H   0  0  0  0  0  0
  -28.9002  -15.3650   21.2552 H   0  0  0  0  0  0
  1 25  1  0  0  0
  1 30  2  0  0  0
  1 84  1  0  0  0
  2  3  1  0  0  0
  2 25  1  0  0  0
  2 86  1  0  0  0
  2 87  1  0  0  0
  3  4  1  0  0  0
  3 88  1  0  0  0
  3 89  1  0  0  0
  4  5  1  0  0  0
  4 90  1  0  0  0
  4 91  1  0  0  0
  5  6  1  0  0  0
  5 26  1  0  0  0
  5 92  1  0  0  0
  6 25  1  0  0  0
  6 93  1  0  0  0
  6 94  1  0  0  0
  7  8  2  0  0  0
  7 26  1  0  0  0
  7 29  1  0  0  0
  8  9  1  0  0  0
  8 22  1  0  0  0
  9 10  1  0  0  0
  9 27  2  0  0  0
 10 11  2  0  0  0
 10 15  1  0  0  0
 11 12  1  0  0  0
 11 95  1  0  0  0
 12 13  2  0  0  0
 12 96  1  0  0  0
 13 14  1  0  0  0
 13 31  1  0  0  0
 14 15  2  0  0  0
 14 97  1  0  0  0
 15 98  1  0  0  0
 16 17  2  0  0  0
 16 21  1  0  0  0
 16 31  1  0  0  0
 17 18  1  0  0  0
 17 99  1  0  0  0
 18 19  2  0  0  0
 18100  1  0  0  0
 19 20  1  0  0  0
 19 24  1  0  0  0
 20 21  2  0  0  0
 20101  1  0  0  0
 21 23  1  0  0  0
 22 28  1  0  0  0
 22 32  2  0  0  0
 26 27  1  0  0  0
 28102  1  0  0  0
 28103  1  0  0  0
 29104  1  0  0  0
 29105  1  0  0  0
 33 34  1  0  0  0
 33 66  1  0  0  0
 33 70  2  0  0  0
 34 36  1  0  0  0
 34 59  1  0  0  0
 34106  1  0  0  0
 35 44  2  0  0  0
 35 45  1  0  0  0
 35 68  1  0  0  0
 36 56  1  0  0  0
 36107  1  0  0  0
 37 39  1  0  0  0
 37 47  1  0  0  0
 37 66  1  0  0  0
 37108  1  0  0  0
 38 43  2  0  0  0
 38 46  1  0  0  0
 38 47  1  0  0  0
 39 64  1  0  0  0
 39 67  2  0  0  0
 40 52  1  0  0  0
 40 53  2  0  0  0
 40 58  1  0  0  0
 41109  1  0  0  0
 41110  1  0  0  0
 41111  1  0  0  0
 41 48  1  0  0  0
 42 43  1  0  0  0
 42 66  1  0  0  0
 42112  1  0  0  0
 42113  1  0  0  0
 43 44  1  0  0  0
 44114  1  0  0  0
 45 46  2  0  0  0
 45115  1  0  0  0
 46116  1  0  0  0
 47117  1  0  0  0
 47118  1  0  0  0
 48 56  1  0  0  0
 48 65  1  0  0  0
 48119  1  0  0  0
 49 50  1  0  0  0
 49 53  1  0  0  0
 49 64  1  0  0  0
 49120  1  0  0  0
 50 51  1  0  0  0
 50121  1  0  0  0
 50122  1  0  0  0
 51 52  1  0  0  0
 51123  1  0  0  0
 51124  1  0  0  0
 52125  1  0  0  0
 52126  1  0  0  0
 53 54  1  0  0  0
 54 55  2  0  0  0
 54127  1  0  0  0
 55 57  1  0  0  0
 55128  1  0  0  0
 56 69  2  0  0  0
 57 58  2  0  0  0
 57129  1  0  0  0
 58130  1  0  0  0
 59 60  1  0  0  0
 59 61  1  0  0  0
 59 62  1  0  0  0
 60131  1  0  0  0
 60132  1  0  0  0
 60133  1  0  0  0
 61134  1  0  0  0
 61135  1  0  0  0
 61136  1  0  0  0
 62137  1  0  0  0
 62138  1  0  0  0
 62139  1  0  0  0
 63 65  1  0  0  0
 63140  1  0  0  0
 63141  1  0  0  0
 63142  1  0  0  0
 64143  1  0  0  0
 65144  1  0  0  0
 68 81  1  0  0  0
 71 73  2  0  0  0
 71 75  1  0  0  0
 71145  1  0  0  0
 72 74  1  0  0  0
 72 75  2  0  0  0
 72146  1  0  0  0
 73 76  1  0  0  0
 73147  1  0  0  0
 74 76  2  0  0  0
 74148  1  0  0  0
 75 83  1  0  0  0
 76 84  1  0  0  0
 77 78  1  0  0  0
 77 79  1  0  0  0
 77 81  2  0  0  0
 78 80  2  0  0  0
 78 82  1  0  0  0
 79 83  1  0  0  0
 79 85  2  0  0  0
 80149  1  0  0  0
 80150  1  0  0  0
 81151  1  0  0  0
 82 83  1  0  0  0
 82152  1  0  0  0
 82153  1  0  0  0
 84154  1  0  0  0
M  ISO  4   1 100  68 101  81 101  84 100
M  END
> <chiral flag>
0

> <version>
0

> <s_m_source_file>
/data/baiqing/PycharmProjects/Reinvent-master-3.2/result/LINK_invent/BTK/process_docking_weight1_custom_product_contain_oxygen_bond_distance_aromatic_linkinvent_7_9_3/rearranged_h_0080.sdf

> <i_m_source_file_index>
22

> <r_mmod_Potential_Energy-OPLS-2005>
213.749710083008

> <r_mmod_Stretch_Energy-OPLS-2005>
94.9645385742188

> <r_mmod_Bend_Energy-OPLS-2005>
196.454376220703

> <r_mmod_Torsional_Energy-OPLS-2005>
246.572250366211

> <r_mmod_Improper_Torsional_Energy-OPLS-2005>
3.60927796363831

> <r_mmod_Van_der_Waal_Energy-OPLS-2005>
143.749618530273

> <r_mmod_Electrostatic_Energy-OPLS-2005>
-326.163909912109

> <r_mmod_Solvation_Energy-OPLS-2005>
-208.378356933594

> <b_mmod_Minimization_Converged-OPLS-2005>
0

> <r_mmod_RMS_Derivative-OPLS-2005>
0.686327934265137

$$$$
22
                    3D
 Structure written by MMmdl.
165174  0  0  1  0            999 V2000
  -30.6257  -14.8168   20.4273 C   0  0  0  0  0  0
  -30.4172  -12.4972   19.4825 C   0  0  0  0  0  0
  -29.5029  -12.5088   18.2387 C   0  0  0  0  0  0
  -28.0341  -12.3292   18.6592 C   0  0  0  0  0  0
  -27.6314  -13.2444   19.8465 C   0  0  2  0  0  0
  -28.6812  -13.2315   20.9818 C   0  0  0  0  0  0
  -25.2458  -13.8239   20.5746 C   0  0  0  0  0  0
  -24.1750  -13.0469   20.9244 C   0  0  0  0  0  0
  -24.6367  -11.6950   20.8776 C   0  0  0  0  0  0
  -23.9050  -10.4318   21.0431 C   0  0  0  0  0  0
  -24.3602   -9.4236   21.9199 C   0  0  0  0  0  0
  -23.6289   -8.2262   22.0764 C   0  0  0  0  0  0
  -22.4268   -8.0291   21.3557 C   0  0  0  0  0  0
  -21.9900   -9.0256   20.4660 C   0  0  0  0  0  0
  -22.7219  -10.2149   20.3082 C   0  0  0  0  0  0
  -21.6841   -6.0738   22.5283 C   0  0  0  0  0  0
  -21.4014   -6.5647   23.8219 C   0  0  0  0  0  0
  -21.3660   -5.6801   24.9187 C   0  0  0  0  0  0
  -21.6052   -4.3064   24.7234 C   0  0  0  0  0  0
  -21.8806   -3.8149   23.4355 C   0  0  0  0  0  0
  -21.9188   -4.6963   22.3407 C   0  0  0  0  0  0
  -22.7788  -13.5264   21.1892 C   0  0  0  0  0  0
  -22.1648   -4.2155   21.0984 F   0  0  0  0  0  0
  -21.5624   -3.4541   25.7745 F   0  0  0  0  0  0
  -29.9712  -13.5953   20.3817 N   0  0  0  0  0  0
  -26.2874  -12.9448   20.3318 N   0  0  0  0  0  0
  -25.9295  -11.6575   20.5786 N   0  0  0  0  0  0
  -22.0413  -12.8258   22.0427 N   0  0  0  0  0  0
  -25.4165  -15.1967   20.4183 N   0  0  0  0  0  0
  -31.8252  -14.8189   20.1460 O   0  0  0  0  0  0
  -21.6635   -6.8882   21.4250 O   0  0  0  0  0  0
  -22.3497  -14.5573   20.6743 O   0  0  0  0  0  0
  -24.6342  -31.8499   23.1994 C   0  0  0  0  0  0
  -25.9156  -32.4723   23.8361 C   0  0  1  0  0  0
  -27.2305  -27.2312   20.1442 C   0  0  0  0  0  0
  -25.5933  -33.8538   24.2255 N   0  0  0  0  0  0
  -23.4351  -30.4712   21.5385 C   0  0  2  0  0  0
  -24.8860  -28.9074   20.1137 C   0  0  0  0  0  0
  -22.7517  -29.4574   22.4887 C   0  0  0  0  0  0
  -18.0285  -28.1410   22.8466 C   0  0  0  0  0  0
  -24.1473  -36.7266   23.2647 C   0  0  0  0  0  0
  -25.9837  -30.7498   21.3880 C   0  0  0  0  0  0
  -26.0549  -29.3704   20.7305 C   0  0  0  0  0  0
  -27.2241  -28.5408   20.7397 C   0  0  0  0  0  0
  -26.0445  -26.8479   19.4816 C   0  0  0  0  0  0
  -24.8884  -27.6561   19.4771 C   0  0  0  0  0  0
  -23.6605  -29.8009   20.1557 C   0  0  0  0  0  0
  -25.4097  -36.3060   24.0337 C   0  0  1  0  0  0
  -20.5887  -28.3745   23.1223 C   0  0  2  0  0  0
  -20.6791  -26.9462   22.5400 C   0  0  0  0  0  0
  -19.5753  -26.6413   21.5216 C   0  0  0  0  0  0
  -18.1930  -26.7953   22.1619 C   0  0  0  0  0  0
  -19.1535  -28.8896   23.2833 C   0  0  0  0  0  0
  -18.9465  -30.1488   23.8881 C   0  0  0  0  0  0
  -17.6466  -30.6606   24.0582 C   0  0  0  0  0  0
  -25.9044  -34.9425   23.5112 C   0  0  0  0  0  0
  -16.5355  -29.9115   23.6343 C   0  0  0  0  0  0
  -16.7278  -28.6530   23.0364 C   0  0  0  0  0  0
  -26.4522  -31.6571   25.0753 C   0  0  0  0  0  0
  -25.3778  -31.3738   26.1514 C   0  0  0  0  0  0
  -27.0415  -30.2992   24.6299 C   0  0  0  0  0  0
  -27.6062  -32.4326   25.7524 C   0  0  0  0  0  0
  -27.5543  -37.1789   24.8459 C   0  0  0  0  0  0
  -21.4221  -29.3054   22.3615 N   0  0  0  0  0  0
  -26.4264  -37.3763   23.9411 N   0  0  0  0  0  0
  -24.7025  -31.0423   22.0988 N   0  0  0  0  0  0
  -23.4188  -28.8136   23.3026 O   0  0  0  0  0  0
  -28.3216  -26.3268   20.2626 O   0  0  0  0  0  0
  -26.5609  -34.8902   22.4665 O   0  0  0  0  0  0
  -23.5456  -32.1329   23.7243 O   0  0  0  0  0  0
  -29.4838  -18.6751   20.6315 C   0  0  0  0  0  0
  -31.5743  -17.7747   19.8135 C   0  0  0  0  0  0
  -31.2324  -20.2215   19.8581 C   0  0  0  0  0  0
  -30.3033  -17.4772   20.3619 C   0  0  0  0  0  0
  -29.9135  -20.0630   20.3748 C   0  0  0  0  0  0
  -32.0251  -19.0842   19.5704 C   0  0  0  0  0  0
  -34.2308  -22.7977   18.9338 C   0  0  0  0  0  0
  -35.0911  -23.7983   18.6772 C   0  0  0  0  0  0
  -28.7366  -23.8051   20.5373 C   0  0  0  0  0  0
  -28.2879  -24.9450   19.8594 C   0  0  0  0  0  0
  -28.7864  -22.4014   19.9509 C   0  0  0  0  0  0
  -34.0660  -22.1883   20.3188 C   0  0  0  0  0  0
  -33.3587  -22.1768   17.8552 C   0  0  0  0  0  0
  -32.5848  -22.1008   20.7295 C   0  0  0  0  0  0
  -31.8938  -22.0123   18.2988 C   0  0  0  0  0  0
  -31.7732  -21.5101   19.6662 N   0  0  0  0  0  0
  -29.1964  -21.3333   20.7511 N   0  0  0  0  0  0
  -29.9113  -16.0255   20.5883 N   0  0  0  0  0  0
  -28.4492  -22.1743   18.7869 O   0  0  0  0  0  0
  -33.2704  -19.2388   19.0550 F   0  0  0  0  0  0
  -31.4594  -12.6058   19.1771 H   0  0  0  0  0  0
  -30.3549  -11.5338   19.9916 H   0  0  0  0  0  0
  -29.7947  -11.7179   17.5445 H   0  0  0  0  0  0
  -29.6186  -13.4503   17.6994 H   0  0  0  0  0  0
  -27.9062  -11.2844   18.9385 H   0  0  0  0  0  0
  -27.3713  -12.4948   17.8110 H   0  0  0  0  0  0
  -27.6077  -14.2565   19.4406 H   0  0  0  0  0  0
  -28.7362  -12.2501   21.4590 H   0  0  0  0  0  0
  -28.4078  -13.9403   21.7646 H   0  0  0  0  0  0
  -25.2736   -9.5704   22.4788 H   0  0  0  0  0  0
  -23.9978   -7.4663   22.7498 H   0  0  0  0  0  0
  -21.0823   -8.8777   19.8978 H   0  0  0  0  0  0
  -22.3660  -10.9685   19.6202 H   0  0  0  0  0  0
  -21.2004   -7.6152   23.9726 H   0  0  0  0  0  0
  -21.1500   -6.0531   25.9090 H   0  0  0  0  0  0
  -22.0583   -2.7604   23.2854 H   0  0  0  0  0  0
  -22.3975  -11.9887   22.4789 H   0  0  0  0  0  0
  -21.1062  -13.1355   22.2708 H   0  0  0  0  0  0
  -24.6494  -15.8499   20.5336 H   0  0  0  0  0  0
  -26.2634  -15.6356   20.0799 H   0  0  0  0  0  0
  -26.7228  -32.5381   23.1093 H   0  0  0  0  0  0
  -25.0168  -33.9677   25.0474 H   0  0  0  0  0  0
  -22.7364  -31.2965   21.3850 H   0  0  0  0  0  0
  -23.3727  -35.9597   23.3324 H   0  0  0  0  0  0
  -24.3556  -36.8877   22.2051 H   0  0  0  0  0  0
  -23.7230  -37.6479   23.6662 H   0  0  0  0  0  0
  -26.1298  -31.5039   20.6142 H   0  0  0  0  0  0
  -26.8621  -30.7982   22.0213 H   0  0  0  0  0  0
  -28.1160  -28.8847   21.2439 H   0  0  0  0  0  0
  -25.9864  -25.8952   18.9841 H   0  0  0  0  0  0
  -23.9966  -27.2947   18.9859 H   0  0  0  0  0  0
  -23.8087  -30.5799   19.4070 H   0  0  0  0  0  0
  -22.7757  -29.2451   19.8371 H   0  0  0  0  0  0
  -25.1276  -36.1921   25.0827 H   0  0  0  0  0  0
  -20.9962  -28.3389   24.1339 H   0  0  0  0  0  0
  -20.5709  -26.2387   23.3638 H   0  0  0  0  0  0
  -21.6673  -26.7511   22.1178 H   0  0  0  0  0  0
  -19.6950  -25.6323   21.1259 H   0  0  0  0  0  0
  -19.6687  -27.3229   20.6741 H   0  0  0  0  0  0
  -17.4212  -26.6668   21.4025 H   0  0  0  0  0  0
  -18.0328  -26.0104   22.9008 H   0  0  0  0  0  0
  -19.7959  -30.7291   24.2245 H   0  0  0  0  0  0
  -17.5045  -31.6297   24.5198 H   0  0  0  0  0  0
  -15.5361  -30.3031   23.7700 H   0  0  0  0  0  0
  -15.8657  -28.0882   22.7069 H   0  0  0  0  0  0
  -24.5931  -30.7078   25.7905 H   0  0  0  0  0  0
  -24.8986  -32.2912   26.4950 H   0  0  0  0  0  0
  -25.8135  -30.8951   27.0305 H   0  0  0  0  0  0
  -26.3053  -29.6685   24.1297 H   0  0  0  0  0  0
  -27.4072  -29.7287   25.4852 H   0  0  0  0  0  0
  -27.8941  -30.4255   23.9617 H   0  0  0  0  0  0
  -27.2675  -33.3636   26.2099 H   0  0  0  0  0  0
  -28.3905  -32.6886   25.0378 H   0  0  0  0  0  0
  -28.0740  -31.8479   26.5463 H   0  0  0  0  0  0
  -28.2593  -38.0057   24.7488 H   0  0  0  0  0  0
  -28.1020  -36.2590   24.6330 H   0  0  0  0  0  0
  -27.2268  -37.1514   25.8869 H   0  0  0  0  0  0
  -20.9439  -29.8727   21.6764 H   0  0  0  0  0  0
  -26.0139  -38.2833   24.1432 H   0  0  0  0  0  0
  -28.5038  -18.5287   21.0594 H   0  0  0  0  0  0
  -32.2789  -17.0046   19.5511 H   0  0  0  0  0  0
  -35.7200  -24.2160   19.4486 H   0  0  0  0  0  0
  -35.1961  -24.2082   17.6829 H   0  0  0  0  0  0
  -29.1141  -23.9277   21.5410 H   0  0  0  0  0  0
  -27.9033  -24.8489   18.8530 H   0  0  0  0  0  0
  -34.6231  -22.7672   21.0539 H   0  0  0  0  0  0
  -34.5091  -21.1911   20.3162 H   0  0  0  0  0  0
  -33.7726  -21.2024   17.5951 H   0  0  0  0  0  0
  -33.4080  -22.7733   16.9429 H   0  0  0  0  0  0
  -32.2064  -23.1040   20.9426 H   0  0  0  0  0  0
  -32.4866  -21.5301   21.6552 H   0  0  0  0  0  0
  -31.3706  -21.3576   17.6017 H   0  0  0  0  0  0
  -31.3851  -22.9745   18.2445 H   0  0  0  0  0  0
  -29.3162  -21.5790   21.7240 H   0  0  0  0  0  0
  -28.9421  -15.8836   20.8291 H   0  0  0  0  0  0
  1 25  1  0  0  0
  1 30  2  0  0  0
  1 88  1  0  0  0
  2  3  1  0  0  0
  2 25  1  0  0  0
  2 91  1  0  0  0
  2 92  1  0  0  0
  3  4  1  0  0  0
  3 93  1  0  0  0
  3 94  1  0  0  0
  4  5  1  0  0  0
  4 95  1  0  0  0
  4 96  1  0  0  0
  5  6  1  0  0  0
  5 26  1  0  0  0
  5 97  1  0  0  0
  6 25  1  0  0  0
  6 98  1  0  0  0
  6 99  1  0  0  0
  7  8  2  0  0  0
  7 26  1  0  0  0
  7 29  1  0  0  0
  8  9  1  0  0  0
  8 22  1  0  0  0
  9 10  1  0  0  0
  9 27  2  0  0  0
 10 11  2  0  0  0
 10 15  1  0  0  0
 11 12  1  0  0  0
 11100  1  0  0  0
 12 13  2  0  0  0
 12101  1  0  0  0
 13 14  1  0  0  0
 13 31  1  0  0  0
 14 15  2  0  0  0
 14102  1  0  0  0
 15103  1  0  0  0
 16 17  2  0  0  0
 16 21  1  0  0  0
 16 31  1  0  0  0
 17 18  1  0  0  0
 17104  1  0  0  0
 18 19  2  0  0  0
 18105  1  0  0  0
 19 20  1  0  0  0
 19 24  1  0  0  0
 20 21  2  0  0  0
 20106  1  0  0  0
 21 23  1  0  0  0
 22 28  1  0  0  0
 22 32  2  0  0  0
 26 27  1  0  0  0
 28107  1  0  0  0
 28108  1  0  0  0
 29109  1  0  0  0
 29110  1  0  0  0
 33 34  1  0  0  0
 33 66  1  0  0  0
 33 70  2  0  0  0
 34 36  1  0  0  0
 34 59  1  0  0  0
 34111  1  0  0  0
 35 44  2  0  0  0
 35 45  1  0  0  0
 35 68  1  0  0  0
 36 56  1  0  0  0
 36112  1  0  0  0
 37 39  1  0  0  0
 37 47  1  0  0  0
 37 66  1  0  0  0
 37113  1  0  0  0
 38 43  2  0  0  0
 38 46  1  0  0  0
 38 47  1  0  0  0
 39 64  1  0  0  0
 39 67  2  0  0  0
 40 52  1  0  0  0
 40 53  2  0  0  0
 40 58  1  0  0  0
 41114  1  0  0  0
 41115  1  0  0  0
 41116  1  0  0  0
 41 48  1  0  0  0
 42 43  1  0  0  0
 42 66  1  0  0  0
 42117  1  0  0  0
 42118  1  0  0  0
 43 44  1  0  0  0
 44119  1  0  0  0
 45 46  2  0  0  0
 45120  1  0  0  0
 46121  1  0  0  0
 47122  1  0  0  0
 47123  1  0  0  0
 48 56  1  0  0  0
 48 65  1  0  0  0
 48124  1  0  0  0
 49 50  1  0  0  0
 49 53  1  0  0  0
 49 64  1  0  0  0
 49125  1  0  0  0
 50 51  1  0  0  0
 50126  1  0  0  0
 50127  1  0  0  0
 51 52  1  0  0  0
 51128  1  0  0  0
 51129  1  0  0  0
 52130  1  0  0  0
 52131  1  0  0  0
 53 54  1  0  0  0
 54 55  2  0  0  0
 54132  1  0  0  0
 55 57  1  0  0  0
 55133  1  0  0  0
 56 69  2  0  0  0
 57 58  2  0  0  0
 57134  1  0  0  0
 58135  1  0  0  0
 59 60  1  0  0  0
 59 61  1  0  0  0
 59 62  1  0  0  0
 60136  1  0  0  0
 60137  1  0  0  0
 60138  1  0  0  0
 61139  1  0  0  0
 61140  1  0  0  0
 61141  1  0  0  0
 62142  1  0  0  0
 62143  1  0  0  0
 62144  1  0  0  0
 63 65  1  0  0  0
 63145  1  0  0  0
 63146  1  0  0  0
 63147  1  0  0  0
 64148  1  0  0  0
 65149  1  0  0  0
 68 80  1  0  0  0
 71 74  2  0  0  0
 71 75  1  0  0  0
 71150  1  0  0  0
 72 74  1  0  0  0
 72 76  2  0  0  0
 72151  1  0  0  0
 73 75  2  0  0  0
 73 76  1  0  0  0
 73 86  1  0  0  0
 74 88  1  0  0  0
 75 87  1  0  0  0
 76 90  1  0  0  0
 77 78  2  0  0  0
 77 82  1  0  0  0
 77 83  1  0  0  0
 78152  1  0  0  0
 78153  1  0  0  0
 79 80  2  0  0  0
 79 81  1  0  0  0
 79154  1  0  0  0
 80155  1  0  0  0
 81 87  1  0  0  0
 81 89  2  0  0  0
 82 84  1  0  0  0
 82156  1  0  0  0
 82157  1  0  0  0
 83 85  1  0  0  0
 83158  1  0  0  0
 83159  1  0  0  0
 84 86  1  0  0  0
 84160  1  0  0  0
 84161  1  0  0  0
 85 86  1  0  0  0
 85162  1  0  0  0
 85163  1  0  0  0
 87164  1  0  0  0
 88165  1  0  0  0
M  ISO  4   1 100  68 101  80 101  88 100
M  END
> <chiral flag>
0

> <version>
0

> <s_m_source_file>
/data/baiqing/PycharmProjects/Reinvent-master-3.2/result/LINK_invent/BTK/process_docking_weight1_custom_product_contain_oxygen_bond_distance_aromatic_linkinvent_7_9_3/rearranged_h_0080.sdf

> <i_m_source_file_index>
23

> <r_mmod_Potential_Energy-OPLS-2005>
307.986602783203

> <r_mmod_Stretch_Energy-OPLS-2005>
161.536224365234

> <r_mmod_Bend_Energy-OPLS-2005>
190.55224609375

> <r_mmod_Torsional_Energy-OPLS-2005>
306.419281005859

> <r_mmod_Improper_Torsional_Energy-OPLS-2005>
7.99485397338867

> <r_mmod_Van_der_Waal_Energy-OPLS-2005>
149.342498779297

> <r_mmod_Electrostatic_Energy-OPLS-2005>
-389.628112792969

> <r_mmod_Solvation_Energy-OPLS-2005>
-233.401397705078

> <b_mmod_Minimization_Converged-OPLS-2005>
0

> <r_mmod_RMS_Derivative-OPLS-2005>
4.84224224090576

$$$$
23
                    3D
 Structure written by MMmdl.
151160  0  0  1  0            999 V2000
  -30.5780  -14.8448   20.4523 C   0  0  0  0  0  0
  -30.4456  -12.5210   19.4862 C   0  0  0  0  0  0
  -29.5195  -12.5194   18.2458 C   0  0  0  0  0  0
  -28.0468  -12.3120   18.6536 C   0  0  0  0  0  0
  -27.6369  -13.2163   19.8427 C   0  0  2  0  0  0
  -28.6850  -13.1586   20.9781 C   0  0  0  0  0  0
  -25.2520  -13.8153   20.5684 C   0  0  0  0  0  0
  -24.1792  -13.0414   20.9159 C   0  0  0  0  0  0
  -24.6373  -11.6890   20.8720 C   0  0  0  0  0  0
  -23.9050  -10.4279   21.0398 C   0  0  0  0  0  0
  -24.3611   -9.4205   21.9177 C   0  0  0  0  0  0
  -23.6290   -8.2240   22.0748 C   0  0  0  0  0  0
  -22.4273   -8.0275   21.3542 C   0  0  0  0  0  0
  -21.9897   -9.0244   20.4644 C   0  0  0  0  0  0
  -22.7219  -10.2124   20.3050 C   0  0  0  0  0  0
  -21.6854   -6.0745   22.5285 C   0  0  0  0  0  0
  -21.4016   -6.5648   23.8219 C   0  0  0  0  0  0
  -21.3651   -5.6793   24.9174 C   0  0  0  0  0  0
  -21.6038   -4.3058   24.7222 C   0  0  0  0  0  0
  -21.8822   -3.8155   23.4345 C   0  0  0  0  0  0
  -21.9195   -4.6972   22.3405 C   0  0  0  0  0  0
  -22.7824  -13.5216   21.1846 C   0  0  0  0  0  0
  -22.1666   -4.2160   21.0982 F   0  0  0  0  0  0
  -21.5615   -3.4536   25.7735 F   0  0  0  0  0  0
  -29.9730  -13.5885   20.4102 N   0  0  0  0  0  0
  -26.2913  -12.9315   20.3248 N   0  0  0  0  0  0
  -25.9296  -11.6480   20.5730 N   0  0  0  0  0  0
  -22.0480  -12.8210   22.0413 N   0  0  0  0  0  0
  -25.4231  -15.1886   20.4224 N   0  0  0  0  0  0
  -31.7697  -14.9145   20.1330 O   0  0  0  0  0  0
  -21.6633   -6.8880   21.4245 O   0  0  0  0  0  0
  -22.3506  -14.5528   20.6705 O   0  0  0  0  0  0
  -24.6378  -31.8507   23.1948 C   0  0  0  0  0  0
  -25.9179  -32.4728   23.8308 C   0  0  1  0  0  0
  -27.2209  -27.2049   20.1223 C   0  0  0  0  0  0
  -25.5950  -33.8532   24.2228 N   0  0  0  0  0  0
  -23.4368  -30.4753   21.5399 C   0  0  2  0  0  0
  -24.8842  -28.9190   20.1096 C   0  0  0  0  0  0
  -22.7536  -29.4586   22.4883 C   0  0  0  0  0  0
  -18.0303  -28.1388   22.8482 C   0  0  0  0  0  0
  -24.1498  -36.7276   23.2641 C   0  0  0  0  0  0
  -25.9903  -30.7457   21.3850 C   0  0  0  0  0  0
  -26.0613  -29.3648   20.7232 C   0  0  0  0  0  0
  -27.2285  -28.5212   20.7198 C   0  0  0  0  0  0
  -26.0046  -26.8440   19.4898 C   0  0  0  0  0  0
  -24.8647  -27.6680   19.4829 C   0  0  0  0  0  0
  -23.6583  -29.8123   20.1566 C   0  0  0  0  0  0
  -25.4125  -36.3055   24.0321 C   0  0  1  0  0  0
  -20.5913  -28.3711   23.1245 C   0  0  2  0  0  0
  -20.6789  -26.9420   22.5399 C   0  0  0  0  0  0
  -19.5759  -26.6379   21.5210 C   0  0  0  0  0  0
  -18.1945  -26.7926   22.1631 C   0  0  0  0  0  0
  -19.1559  -28.8866   23.2858 C   0  0  0  0  0  0
  -18.9477  -30.1465   23.8877 C   0  0  0  0  0  0
  -17.6474  -30.6587   24.0558 C   0  0  0  0  0  0
  -25.9065  -34.9424   23.5077 C   0  0  0  0  0  0
  -16.5365  -29.9082   23.6333 C   0  0  0  0  0  0
  -16.7288  -28.6500   23.0353 C   0  0  0  0  0  0
  -26.4518  -31.6569   25.0719 C   0  0  0  0  0  0
  -25.3721  -31.3743   26.1427 C   0  0  0  0  0  0
  -27.0369  -30.2971   24.6254 C   0  0  0  0  0  0
  -27.6059  -32.4323   25.7496 C   0  0  0  0  0  0
  -27.5578  -37.1802   24.8469 C   0  0  0  0  0  0
  -21.4237  -29.3052   22.3626 N   0  0  0  0  0  0
  -26.4298  -37.3756   23.9398 N   0  0  0  0  0  0
  -24.7078  -31.0427   22.0954 N   0  0  0  0  0  0
  -23.4210  -28.8121   23.2999 O   0  0  0  0  0  0
  -28.2973  -26.2604   20.1977 O   0  0  0  0  0  0
  -26.5645  -34.8907   22.4652 O   0  0  0  0  0  0
  -23.5514  -32.1357   23.7207 O   0  0  0  0  0  0
  -32.1459  -19.2473   20.9696 C   0  0  0  0  0  0
  -31.6300  -17.9397   20.8963 C   0  0  0  0  0  0
  -31.3274  -20.3862   20.8176 C   0  0  0  0  0  0
  -29.4613  -18.9366   20.4833 C   0  0  0  0  0  0
  -30.2615  -17.7050   20.6519 C   0  0  0  0  0  0
  -29.9347  -20.3302   20.5628 C   0  0  0  0  0  0
  -28.6640  -23.6457   20.0720 C   0  0  0  0  0  0
  -28.4554  -22.3354   19.4313 C   0  0  0  0  0  0
  -28.1674  -24.9086   19.7025 C   0  0  0  0  0  0
  -29.6941  -16.2232   20.6908 C   0  0  0  0  0  0
  -29.5781  -22.9299   21.0994 C   0  0  0  0  0  0
  -28.4499  -16.1514   20.9099 N   0  0  0  0  0  0
  -29.1941  -21.6405   20.4255 N   0  0  0  0  0  0
  -27.9268  -22.0494   18.3764 O   0  0  0  0  0  0
  -31.4806  -12.6690   19.1737 H   0  0  0  0  0  0
  -30.4269  -11.5478   19.9793 H   0  0  0  0  0  0
  -29.8249  -11.7393   17.5473 H   0  0  0  0  0  0
  -29.6233  -13.4656   17.7127 H   0  0  0  0  0  0
  -27.9236  -11.2633   18.9261 H   0  0  0  0  0  0
  -27.3877  -12.4826   17.8013 H   0  0  0  0  0  0
  -27.6143  -14.2215   19.4268 H   0  0  0  0  0  0
  -28.7603  -12.1429   21.3698 H   0  0  0  0  0  0
  -28.3968  -13.7664   21.8357 H   0  0  0  0  0  0
  -25.2759   -9.5680   22.4741 H   0  0  0  0  0  0
  -24.0000   -7.4634   22.7468 H   0  0  0  0  0  0
  -21.0822   -8.8760   19.8962 H   0  0  0  0  0  0
  -22.3675  -10.9657   19.6156 H   0  0  0  0  0  0
  -21.2018   -7.6159   23.9725 H   0  0  0  0  0  0
  -21.1458   -6.0525   25.9076 H   0  0  0  0  0  0
  -22.0608   -2.7617   23.2843 H   0  0  0  0  0  0
  -22.4106  -11.9870   22.4790 H   0  0  0  0  0  0
  -21.1105  -13.1239   22.2647 H   0  0  0  0  0  0
  -24.6660  -15.8420   20.5909 H   0  0  0  0  0  0
  -26.3107  -15.6539   20.2577 H   0  0  0  0  0  0
  -26.7242  -32.5362   23.1042 H   0  0  0  0  0  0
  -25.0078  -33.9655   25.0362 H   0  0  0  0  0  0
  -22.7369  -31.3005   21.3927 H   0  0  0  0  0  0
  -23.3748  -35.9623   23.3315 H   0  0  0  0  0  0
  -24.3581  -36.8889   22.2053 H   0  0  0  0  0  0
  -23.7269  -37.6487   23.6661 H   0  0  0  0  0  0
  -26.1401  -31.5053   20.6164 H   0  0  0  0  0  0
  -26.8632  -30.7917   22.0240 H   0  0  0  0  0  0
  -28.1253  -28.8565   21.2215 H   0  0  0  0  0  0
  -25.8660  -25.8862   19.0170 H   0  0  0  0  0  0
  -23.9609  -27.3164   19.0034 H   0  0  0  0  0  0
  -23.7887  -30.5899   19.4029 H   0  0  0  0  0  0
  -22.7749  -29.2517   19.8457 H   0  0  0  0  0  0
  -25.1314  -36.1897   25.0815 H   0  0  0  0  0  0
  -21.0011  -28.3296   24.1363 H   0  0  0  0  0  0
  -20.5693  -26.2321   23.3612 H   0  0  0  0  0  0
  -21.6655  -26.7438   22.1189 H   0  0  0  0  0  0
  -19.6920  -25.6287   21.1245 H   0  0  0  0  0  0
  -19.6686  -27.3185   20.6734 H   0  0  0  0  0  0
  -17.4207  -26.6664   21.4041 H   0  0  0  0  0  0
  -18.0355  -26.0073   22.9036 H   0  0  0  0  0  0
  -19.7951  -30.7291   24.2234 H   0  0  0  0  0  0
  -17.5025  -31.6263   24.5168 H   0  0  0  0  0  0
  -15.5364  -30.2979   23.7661 H   0  0  0  0  0  0
  -15.8690  -28.0813   22.7073 H   0  0  0  0  0  0
  -24.5889  -30.7105   25.7747 H   0  0  0  0  0  0
  -24.8924  -32.2923   26.4831 H   0  0  0  0  0  0
  -25.8019  -30.8923   27.0216 H   0  0  0  0  0  0
  -26.2968  -29.6706   24.1262 H   0  0  0  0  0  0
  -27.4002  -29.7256   25.4804 H   0  0  0  0  0  0
  -27.8871  -30.4220   23.9545 H   0  0  0  0  0  0
  -27.2652  -33.3628   26.2047 H   0  0  0  0  0  0
  -28.3878  -32.6875   25.0331 H   0  0  0  0  0  0
  -28.0712  -31.8464   26.5431 H   0  0  0  0  0  0
  -28.2612  -38.0083   24.7481 H   0  0  0  0  0  0
  -28.1057  -36.2608   24.6344 H   0  0  0  0  0  0
  -27.2284  -37.1509   25.8871 H   0  0  0  0  0  0
  -20.9432  -29.8779   21.6830 H   0  0  0  0  0  0
  -26.0171  -38.2834   24.1372 H   0  0  0  0  0  0
  -33.2012  -19.3825   21.1642 H   0  0  0  0  0  0
  -32.3113  -17.1190   21.0649 H   0  0  0  0  0  0
  -31.8206  -21.3431   20.8928 H   0  0  0  0  0  0
  -28.4030  -18.7986   20.3116 H   0  0  0  0  0  0
  -27.5930  -24.9065   18.7907 H   0  0  0  0  0  0
  -29.2747  -22.9443   22.1472 H   0  0  0  0  0  0
  -30.6402  -23.1619   21.0191 H   0  0  0  0  0  0
  -28.1652  -15.1809   20.9390 H   0  0  0  0  0  0
  1 25  1  0  0  0
  1 30  2  0  0  0
  1 80  1  0  0  0
  2  3  1  0  0  0
  2 25  1  0  0  0
  2 85  1  0  0  0
  2 86  1  0  0  0
  3  4  1  0  0  0
  3 87  1  0  0  0
  3 88  1  0  0  0
  4  5  1  0  0  0
  4 89  1  0  0  0
  4 90  1  0  0  0
  5  6  1  0  0  0
  5 26  1  0  0  0
  5 91  1  0  0  0
  6 25  1  0  0  0
  6 92  1  0  0  0
  6 93  1  0  0  0
  7  8  2  0  0  0
  7 26  1  0  0  0
  7 29  1  0  0  0
  8  9  1  0  0  0
  8 22  1  0  0  0
  9 10  1  0  0  0
  9 27  2  0  0  0
 10 11  2  0  0  0
 10 15  1  0  0  0
 11 12  1  0  0  0
 11 94  1  0  0  0
 12 13  2  0  0  0
 12 95  1  0  0  0
 13 14  1  0  0  0
 13 31  1  0  0  0
 14 15  2  0  0  0
 14 96  1  0  0  0
 15 97  1  0  0  0
 16 17  2  0  0  0
 16 21  1  0  0  0
 16 31  1  0  0  0
 17 18  1  0  0  0
 17 98  1  0  0  0
 18 19  2  0  0  0
 18 99  1  0  0  0
 19 20  1  0  0  0
 19 24  1  0  0  0
 20 21  2  0  0  0
 20100  1  0  0  0
 21 23  1  0  0  0
 22 28  1  0  0  0
 22 32  2  0  0  0
 26 27  1  0  0  0
 28101  1  0  0  0
 28102  1  0  0  0
 29103  1  0  0  0
 29104  1  0  0  0
 33 34  1  0  0  0
 33 66  1  0  0  0
 33 70  2  0  0  0
 34 36  1  0  0  0
 34 59  1  0  0  0
 34105  1  0  0  0
 35 44  2  0  0  0
 35 45  1  0  0  0
 35 68  1  0  0  0
 36 56  1  0  0  0
 36106  1  0  0  0
 37 39  1  0  0  0
 37 47  1  0  0  0
 37 66  1  0  0  0
 37107  1  0  0  0
 38 43  2  0  0  0
 38 46  1  0  0  0
 38 47  1  0  0  0
 39 64  1  0  0  0
 39 67  2  0  0  0
 40 52  1  0  0  0
 40 53  2  0  0  0
 40 58  1  0  0  0
 41108  1  0  0  0
 41109  1  0  0  0
 41110  1  0  0  0
 41 48  1  0  0  0
 42 43  1  0  0  0
 42 66  1  0  0  0
 42111  1  0  0  0
 42112  1  0  0  0
 43 44  1  0  0  0
 44113  1  0  0  0
 45 46  2  0  0  0
 45114  1  0  0  0
 46115  1  0  0  0
 47116  1  0  0  0
 47117  1  0  0  0
 48 56  1  0  0  0
 48 65  1  0  0  0
 48118  1  0  0  0
 49 50  1  0  0  0
 49 53  1  0  0  0
 49 64  1  0  0  0
 49119  1  0  0  0
 50 51  1  0  0  0
 50120  1  0  0  0
 50121  1  0  0  0
 51 52  1  0  0  0
 51122  1  0  0  0
 51123  1  0  0  0
 52124  1  0  0  0
 52125  1  0  0  0
 53 54  1  0  0  0
 54 55  2  0  0  0
 54126  1  0  0  0
 55 57  1  0  0  0
 55127  1  0  0  0
 56 69  2  0  0  0
 57 58  2  0  0  0
 57128  1  0  0  0
 58129  1  0  0  0
 59 60  1  0  0  0
 59 61  1  0  0  0
 59 62  1  0  0  0
 60130  1  0  0  0
 60131  1  0  0  0
 60132  1  0  0  0
 61133  1  0  0  0
 61134  1  0  0  0
 61135  1  0  0  0
 62136  1  0  0  0
 62137  1  0  0  0
 62138  1  0  0  0
 63 65  1  0  0  0
 63139  1  0  0  0
 63140  1  0  0  0
 63141  1  0  0  0
 64142  1  0  0  0
 65143  1  0  0  0
 68 79  1  0  0  0
 71 72  2  0  0  0
 71 73  1  0  0  0
 71144  1  0  0  0
 72 75  1  0  0  0
 72145  1  0  0  0
 73 76  2  0  0  0
 73146  1  0  0  0
 74 75  2  0  0  0
 74 76  1  0  0  0
 74147  1  0  0  0
 75 80  1  0  0  0
 76 83  1  0  0  0
 77 78  1  0  0  0
 77 79  2  0  0  0
 77 81  1  0  0  0
 78 83  1  0  0  0
 78 84  2  0  0  0
 79148  1  0  0  0
 80 82  2  0  0  0
 81 83  1  0  0  0
 81149  1  0  0  0
 81150  1  0  0  0
 82151  1  0  0  0
M  ISO  4   1 100  68 101  79 101  80 100
M  END
> <chiral flag>
0

> <version>
0

> <s_m_source_file>
/data/baiqing/PycharmProjects/Reinvent-master-3.2/result/LINK_invent/BTK/process_docking_weight1_custom_product_contain_oxygen_bond_distance_aromatic_linkinvent_7_9_3/rearranged_h_0080.sdf

> <i_m_source_file_index>
24

> <r_mmod_Potential_Energy-OPLS-2005>
493.995880126953

> <r_mmod_Stretch_Energy-OPLS-2005>
180.474960327148

> <r_mmod_Bend_Energy-OPLS-2005>
275.950042724609

> <r_mmod_Torsional_Energy-OPLS-2005>
206.027923583984

> <r_mmod_Improper_Torsional_Energy-OPLS-2005>
7.1858549118042

> <r_mmod_Van_der_Waal_Energy-OPLS-2005>
152.413803100586

> <r_mmod_Electrostatic_Energy-OPLS-2005>
-245.902709960938

> <r_mmod_Solvation_Energy-OPLS-2005>
-207.888626098633

> <b_mmod_Minimization_Converged-OPLS-2005>
0

> <r_mmod_RMS_Derivative-OPLS-2005>
1.14839720726013

$$$$
24
                    3D
 Structure written by MMmdl.
156165  0  0  1  0            999 V2000
  -30.6237  -14.7966   20.2829 C   0  0  0  0  0  0
  -30.4424  -12.4384   19.4815 C   0  0  0  0  0  0
  -29.5172  -12.3544   18.2485 C   0  0  0  0  0  0
  -28.0278  -12.2613   18.6582 C   0  0  0  0  0  0
  -27.6206  -13.1908   19.8361 C   0  0  2  0  0  0
  -28.6929  -13.2473   20.9411 C   0  0  0  0  0  0
  -25.2514  -13.8055   20.5815 C   0  0  0  0  0  0
  -24.1770  -13.0363   20.9296 C   0  0  0  0  0  0
  -24.6326  -11.6834   20.8858 C   0  0  0  0  0  0
  -23.9025  -10.4242   21.0467 C   0  0  0  0  0  0
  -24.3594   -9.4147   21.9220 C   0  0  0  0  0  0
  -23.6266   -8.2191   22.0755 C   0  0  0  0  0  0
  -22.4249   -8.0256   21.3533 C   0  0  0  0  0  0
  -21.9890   -9.0242   20.4637 C   0  0  0  0  0  0
  -22.7222  -10.2118   20.3078 C   0  0  0  0  0  0
  -21.6819   -6.0725   22.5281 C   0  0  0  0  0  0
  -21.3979   -6.5631   23.8217 C   0  0  0  0  0  0
  -21.3643   -5.6773   24.9170 C   0  0  0  0  0  0
  -21.6048   -4.3040   24.7213 C   0  0  0  0  0  0
  -21.8830   -3.8132   23.4334 C   0  0  0  0  0  0
  -21.9187   -4.6959   22.3397 C   0  0  0  0  0  0
  -22.7808  -13.5212   21.1882 C   0  0  0  0  0  0
  -22.1660   -4.2153   21.0969 F   0  0  0  0  0  0
  -21.5636   -3.4524   25.7724 F   0  0  0  0  0  0
  -29.9855  -13.5682   20.3143 N   0  0  0  0  0  0
  -26.2872  -12.9137   20.3424 N   0  0  0  0  0  0
  -25.9235  -11.6347   20.5931 N   0  0  0  0  0  0
  -22.0390  -12.8265   22.0428 N   0  0  0  0  0  0
  -25.4283  -15.1784   20.4223 N   0  0  0  0  0  0
  -31.8540  -14.8176   20.2919 O   0  0  0  0  0  0
  -21.6595   -6.8867   21.4245 O   0  0  0  0  0  0
  -22.3560  -14.5522   20.6681 O   0  0  0  0  0  0
  -24.6281  -31.8594   23.2017 C   0  0  0  0  0  0
  -25.9125  -32.4770   23.8344 C   0  0  1  0  0  0
  -27.2275  -27.3001   20.1197 C   0  0  0  0  0  0
  -25.5938  -33.8572   24.2275 N   0  0  0  0  0  0
  -23.4224  -30.4812   21.5447 C   0  0  2  0  0  0
  -24.8718  -28.9352   20.1069 C   0  0  0  0  0  0
  -22.7479  -29.4622   22.4939 C   0  0  0  0  0  0
  -18.0286  -28.1386   22.8486 C   0  0  0  0  0  0
  -24.1490  -36.7282   23.2636 C   0  0  0  0  0  0
  -25.9654  -30.7828   21.3757 C   0  0  0  0  0  0
  -26.0412  -29.4082   20.7178 C   0  0  0  0  0  0
  -27.2202  -28.5994   20.7213 C   0  0  0  0  0  0
  -26.0325  -26.8810   19.4914 C   0  0  0  0  0  0
  -24.8700  -27.6763   19.4859 C   0  0  0  0  0  0
  -23.6388  -29.8163   20.1593 C   0  0  0  0  0  0
  -25.4122  -36.3080   24.0328 C   0  0  1  0  0  0
  -20.5891  -28.3698   23.1285 C   0  0  2  0  0  0
  -20.6784  -26.9426   22.5411 C   0  0  0  0  0  0
  -19.5758  -26.6377   21.5219 C   0  0  0  0  0  0
  -18.1933  -26.7931   22.1617 C   0  0  0  0  0  0
  -19.1537  -28.8861   23.2874 C   0  0  0  0  0  0
  -18.9454  -30.1464   23.8887 C   0  0  0  0  0  0
  -17.6456  -30.6593   24.0556 C   0  0  0  0  0  0
  -25.9064  -34.9450   23.5099 C   0  0  0  0  0  0
  -16.5351  -29.9085   23.6334 C   0  0  0  0  0  0
  -16.7270  -28.6499   23.0358 C   0  0  0  0  0  0
  -26.4505  -31.6575   25.0714 C   0  0  0  0  0  0
  -25.3730  -31.3714   26.1428 C   0  0  0  0  0  0
  -27.0334  -30.2993   24.6164 C   0  0  0  0  0  0
  -27.6072  -32.4300   25.7488 C   0  0  0  0  0  0
  -27.5584  -37.1788   24.8461 C   0  0  0  0  0  0
  -21.4193  -29.3042   22.3672 N   0  0  0  0  0  0
  -26.4289  -37.3785   23.9415 N   0  0  0  0  0  0
  -24.6905  -31.0585   22.0971 N   0  0  0  0  0  0
  -23.4197  -28.8165   23.3029 O   0  0  0  0  0  0
  -28.3030  -26.3940   20.2191 O   0  0  0  0  0  0
  -26.5627  -34.8921   22.4667 O   0  0  0  0  0  0
  -23.5438  -32.1403   23.7341 O   0  0  0  0  0  0
  -30.9175  -18.2849   19.3424 C   0  0  0  0  0  0
  -29.0732  -18.2424   20.8595 C   0  0  0  0  0  0
  -30.7730  -19.6991   19.2158 C   0  0  0  0  0  0
  -28.9367  -19.6725   20.7455 C   0  0  0  0  0  0
  -30.0347  -17.4886   20.1164 C   0  0  0  0  0  0
  -29.7444  -20.4484   19.8610 C   0  0  0  0  0  0
  -28.8500  -24.1215   19.1000 C   0  0  0  0  0  0
  -29.0938  -23.5023   17.8209 C   0  0  0  0  0  0
  -29.0481  -23.0085   20.0908 C   0  0  0  0  0  0
  -28.8132  -24.0170   16.6072 C   0  0  0  0  0  0
  -29.0563  -15.8788   18.6770 C   0  0  0  0  0  0
  -28.5302  -25.4749   19.1841 C   0  0  0  0  0  0
  -29.8621  -16.0058   19.7474 C   0  0  0  0  0  0
  -29.6454  -22.1276   18.0043 C   0  0  0  0  0  0
  -29.4715  -21.8507   19.4314 N   0  0  0  0  0  0
  -28.8731  -23.0806   21.3108 O   0  0  0  0  0  0
  -31.4807  -12.5543   19.1638 H   0  0  0  0  0  0
  -30.4061  -11.5116   20.0570 H   0  0  0  0  0  0
  -29.7803  -11.4668   17.6708 H   0  0  0  0  0  0
  -29.7030  -13.1821   17.5699 H   0  0  0  0  0  0
  -27.8507  -11.2253   18.9475 H   0  0  0  0  0  0
  -27.3859  -12.4403   17.7948 H   0  0  0  0  0  0
  -27.5098  -14.1741   19.4177 H   0  0  0  0  0  0
  -28.7520  -12.2996   21.4777 H   0  0  0  0  0  0
  -28.4351  -14.0086   21.6791 H   0  0  0  0  0  0
  -25.2717   -9.5609   22.4824 H   0  0  0  0  0  0
  -23.9945   -7.4566   22.7462 H   0  0  0  0  0  0
  -21.0821   -8.8795   19.8935 H   0  0  0  0  0  0
  -22.3699  -10.9695   19.6216 H   0  0  0  0  0  0
  -21.1953   -7.6130   23.9732 H   0  0  0  0  0  0
  -21.1449   -6.0479   25.9078 H   0  0  0  0  0  0
  -22.0626   -2.7595   23.2825 H   0  0  0  0  0  0
  -22.3941  -11.9930   22.4872 H   0  0  0  0  0  0
  -21.1017  -13.1360   22.2566 H   0  0  0  0  0  0
  -24.6712  -15.8424   20.5367 H   0  0  0  0  0  0
  -26.2954  -15.6110   20.1271 H   0  0  0  0  0  0
  -26.7191  -32.5438   23.1087 H   0  0  0  0  0  0
  -25.0093  -33.9720   25.0415 H   0  0  0  0  0  0
  -22.7181  -31.3034   21.4016 H   0  0  0  0  0  0
  -23.3767  -35.9594   23.3285 H   0  0  0  0  0  0
  -24.3586  -36.8918   22.2052 H   0  0  0  0  0  0
  -23.7211  -37.6464   23.6669 H   0  0  0  0  0  0
  -26.0981  -31.5451   20.6061 H   0  0  0  0  0  0
  -26.8457  -30.8333   22.0052 H   0  0  0  0  0  0
  -28.1099  -28.9500   21.2264 H   0  0  0  0  0  0
  -25.9710  -25.9024   19.0374 H   0  0  0  0  0  0
  -23.9710  -27.3042   19.0137 H   0  0  0  0  0  0
  -23.7583  -30.5943   19.4050 H   0  0  0  0  0  0
  -22.7566  -29.2489   19.8565 H   0  0  0  0  0  0
  -25.1301  -36.1928   25.0818 H   0  0  0  0  0  0
  -20.9983  -28.3268   24.1405 H   0  0  0  0  0  0
  -20.5702  -26.2306   23.3609 H   0  0  0  0  0  0
  -21.6645  -26.7467   22.1184 H   0  0  0  0  0  0
  -19.6931  -25.6281   21.1258 H   0  0  0  0  0  0
  -19.6707  -27.3178   20.6743 H   0  0  0  0  0  0
  -17.4215  -26.6688   21.4005 H   0  0  0  0  0  0
  -18.0329  -26.0066   22.9004 H   0  0  0  0  0  0
  -19.7938  -30.7278   24.2246 H   0  0  0  0  0  0
  -17.5017  -31.6280   24.5140 H   0  0  0  0  0  0
  -15.5353  -30.2983   23.7668 H   0  0  0  0  0  0
  -15.8663  -28.0811   22.7091 H   0  0  0  0  0  0
  -24.5909  -30.7075   25.7736 H   0  0  0  0  0  0
  -24.8921  -32.2875   26.4861 H   0  0  0  0  0  0
  -25.8037  -30.8864   27.0191 H   0  0  0  0  0  0
  -26.2892  -29.6749   24.1200 H   0  0  0  0  0  0
  -27.4036  -29.7253   25.4666 H   0  0  0  0  0  0
  -27.8774  -30.4275   23.9383 H   0  0  0  0  0  0
  -27.2695  -33.3608   26.2066 H   0  0  0  0  0  0
  -28.3887  -32.6840   25.0310 H   0  0  0  0  0  0
  -28.0732  -31.8410   26.5396 H   0  0  0  0  0  0
  -28.2583  -38.0105   24.7549 H   0  0  0  0  0  0
  -28.1097  -36.2638   24.6236 H   0  0  0  0  0  0
  -27.2306  -37.1374   25.8862 H   0  0  0  0  0  0
  -20.9386  -29.8739   21.6851 H   0  0  0  0  0  0
  -26.0170  -38.2852   24.1436 H   0  0  0  0  0  0
  -31.6425  -17.7906   18.7112 H   0  0  0  0  0  0
  -28.3327  -17.7004   21.4326 H   0  0  0  0  0  0
  -31.4405  -20.1928   18.5235 H   0  0  0  0  0  0
  -28.1173  -20.1513   21.2626 H   0  0  0  0  0  0
  -28.3782  -24.9933   16.4593 H   0  0  0  0  0  0
  -29.0113  -23.4427   15.7144 H   0  0  0  0  0  0
  -28.5458  -16.7403   18.2674 H   0  0  0  0  0  0
  -28.8892  -14.9589   18.1567 H   0  0  0  0  0  0
  -28.4689  -26.0368   18.2652 H   0  0  0  0  0  0
  -30.6967  -22.1248   17.7152 H   0  0  0  0  0  0
  -29.0993  -21.4062   17.3946 H   0  0  0  0  0  0
  1 25  1  0  0  0
  1 30  2  0  0  0
  1 83  1  0  0  0
  2  3  1  0  0  0
  2 25  1  0  0  0
  2 87  1  0  0  0
  2 88  1  0  0  0
  3  4  1  0  0  0
  3 89  1  0  0  0
  3 90  1  0  0  0
  4  5  1  0  0  0
  4 91  1  0  0  0
  4 92  1  0  0  0
  5  6  1  0  0  0
  5 26  1  0  0  0
  5 93  1  0  0  0
  6 25  1  0  0  0
  6 94  1  0  0  0
  6 95  1  0  0  0
  7  8  2  0  0  0
  7 26  1  0  0  0
  7 29  1  0  0  0
  8  9  1  0  0  0
  8 22  1  0  0  0
  9 10  1  0  0  0
  9 27  2  0  0  0
 10 11  2  0  0  0
 10 15  1  0  0  0
 11 12  1  0  0  0
 11 96  1  0  0  0
 12 13  2  0  0  0
 12 97  1  0  0  0
 13 14  1  0  0  0
 13 31  1  0  0  0
 14 15  2  0  0  0
 14 98  1  0  0  0
 15 99  1  0  0  0
 16 17  2  0  0  0
 16 21  1  0  0  0
 16 31  1  0  0  0
 17 18  1  0  0  0
 17100  1  0  0  0
 18 19  2  0  0  0
 18101  1  0  0  0
 19 20  1  0  0  0
 19 24  1  0  0  0
 20 21  2  0  0  0
 20102  1  0  0  0
 21 23  1  0  0  0
 22 28  1  0  0  0
 22 32  2  0  0  0
 26 27  1  0  0  0
 28103  1  0  0  0
 28104  1  0  0  0
 29105  1  0  0  0
 29106  1  0  0  0
 33 34  1  0  0  0
 33 66  1  0  0  0
 33 70  2  0  0  0
 34 36  1  0  0  0
 34 59  1  0  0  0
 34107  1  0  0  0
 35 44  2  0  0  0
 35 45  1  0  0  0
 35 68  1  0  0  0
 36 56  1  0  0  0
 36108  1  0  0  0
 37 39  1  0  0  0
 37 47  1  0  0  0
 37 66  1  0  0  0
 37109  1  0  0  0
 38 43  2  0  0  0
 38 46  1  0  0  0
 38 47  1  0  0  0
 39 64  1  0  0  0
 39 67  2  0  0  0
 40 52  1  0  0  0
 40 53  2  0  0  0
 40 58  1  0  0  0
 41110  1  0  0  0
 41111  1  0  0  0
 41112  1  0  0  0
 41 48  1  0  0  0
 42 43  1  0  0  0
 42 66  1  0  0  0
 42113  1  0  0  0
 42114  1  0  0  0
 43 44  1  0  0  0
 44115  1  0  0  0
 45 46  2  0  0  0
 45116  1  0  0  0
 46117  1  0  0  0
 47118  1  0  0  0
 47119  1  0  0  0
 48 56  1  0  0  0
 48 65  1  0  0  0
 48120  1  0  0  0
 49 50  1  0  0  0
 49 53  1  0  0  0
 49 64  1  0  0  0
 49121  1  0  0  0
 50 51  1  0  0  0
 50122  1  0  0  0
 50123  1  0  0  0
 51 52  1  0  0  0
 51124  1  0  0  0
 51125  1  0  0  0
 52126  1  0  0  0
 52127  1  0  0  0
 53 54  1  0  0  0
 54 55  2  0  0  0
 54128  1  0  0  0
 55 57  1  0  0  0
 55129  1  0  0  0
 56 69  2  0  0  0
 57 58  2  0  0  0
 57130  1  0  0  0
 58131  1  0  0  0
 59 60  1  0  0  0
 59 61  1  0  0  0
 59 62  1  0  0  0
 60132  1  0  0  0
 60133  1  0  0  0
 60134  1  0  0  0
 61135  1  0  0  0
 61136  1  0  0  0
 61137  1  0  0  0
 62138  1  0  0  0
 62139  1  0  0  0
 62140  1  0  0  0
 63 65  1  0  0  0
 63141  1  0  0  0
 63142  1  0  0  0
 63143  1  0  0  0
 64144  1  0  0  0
 65145  1  0  0  0
 68 82  1  0  0  0
 71 73  2  0  0  0
 71 75  1  0  0  0
 71146  1  0  0  0
 72 74  1  0  0  0
 72 75  2  0  0  0
 72147  1  0  0  0
 73 76  1  0  0  0
 73148  1  0  0  0
 74 76  2  0  0  0
 74149  1  0  0  0
 75 83  1  0  0  0
 76 85  1  0  0  0
 77 78  1  0  0  0
 77 79  1  0  0  0
 77 82  2  0  0  0
 78 80  2  0  0  0
 78 84  1  0  0  0
 79 85  1  0  0  0
 79 86  2  0  0  0
 80150  1  0  0  0
 80151  1  0  0  0
 81 83  2  0  0  0
 81152  1  0  0  0
 81153  1  0  0  0
 82154  1  0  0  0
 84 85  1  0  0  0
 84155  1  0  0  0
 84156  1  0  0  0
M  ISO  4   1 100  68 101  82 101  83 100
M  END
> <chiral flag>
0

> <version>
0

> <s_m_source_file>
/data/baiqing/PycharmProjects/Reinvent-master-3.2/result/LINK_invent/BTK/process_docking_weight1_custom_product_contain_oxygen_bond_distance_aromatic_linkinvent_7_9_3/rearranged_h_0080.sdf

> <i_m_source_file_index>
25

> <r_mmod_Potential_Energy-OPLS-2005>
561.376403808594

> <r_mmod_Stretch_Energy-OPLS-2005>
108.25553894043

> <r_mmod_Bend_Energy-OPLS-2005>
262.7177734375

> <r_mmod_Torsional_Energy-OPLS-2005>
335.961547851562

> <r_mmod_Improper_Torsional_Energy-OPLS-2005>
24.5298442840576

> <r_mmod_Van_der_Waal_Energy-OPLS-2005>
155.448165893555

> <r_mmod_Electrostatic_Energy-OPLS-2005>
-232.027587890625

> <r_mmod_Solvation_Energy-OPLS-2005>
-207.315322875977

> <b_mmod_Minimization_Converged-OPLS-2005>
0

> <r_mmod_RMS_Derivative-OPLS-2005>
2.22150588035583

$$$$
25
                    3D
 Structure written by MMmdl.
137144  0  0  1  0            999 V2000
  -30.0227  -16.3666   20.2760 C   0  0  0  0  0  0
  -30.3488  -13.6403   19.5352 C   0  0  0  0  0  0
  -29.5710  -12.8739   18.3979 C   0  0  0  0  0  0
  -28.2140  -12.3534   18.8785 C   0  0  0  0  0  0
  -27.5778  -13.3942   19.8136 C   0  0  2  0  0  0
  -28.5368  -14.0247   20.8787 C   0  0  0  0  0  0
  -25.2211  -13.8418   20.5910 C   0  0  0  0  0  0
  -24.1682  -13.0452   20.9333 C   0  0  0  0  0  0
  -24.6503  -11.7001   20.8752 C   0  0  0  0  0  0
  -23.9214  -10.4310   21.0358 C   0  0  0  0  0  0
  -24.3713   -9.4219   21.9159 C   0  0  0  0  0  0
  -23.6348   -8.2271   22.0749 C   0  0  0  0  0  0
  -22.4325   -8.0311   21.3544 C   0  0  0  0  0  0
  -21.9992   -9.0291   20.4637 C   0  0  0  0  0  0
  -22.7362  -10.2150   20.3027 C   0  0  0  0  0  0
  -21.6872   -6.0757   22.5278 C   0  0  0  0  0  0
  -21.4028   -6.5652   23.8214 C   0  0  0  0  0  0
  -21.3664   -5.6799   24.9172 C   0  0  0  0  0  0
  -21.6043   -4.3062   24.7219 C   0  0  0  0  0  0
  -21.8817   -3.8159   23.4338 C   0  0  0  0  0  0
  -21.9198   -4.6981   22.3397 C   0  0  0  0  0  0
  -22.7669  -13.5110   21.1938 C   0  0  0  0  0  0
  -22.1663   -4.2165   21.0975 F   0  0  0  0  0  0
  -21.5625   -3.4542   25.7729 F   0  0  0  0  0  0
  -29.5815  -14.8737   20.1787 N   0  0  0  0  0  0
  -26.2784  -12.9928   20.3396 N   0  0  0  0  0  0
  -25.9492  -11.6896   20.5675 N   0  0  0  0  0  0
  -22.0358  -12.8067   22.0488 N   0  0  0  0  0  0
  -25.3661  -15.2175   20.4343 N   0  0  0  0  0  0
  -31.2701  -16.1710   20.2087 O   0  0  0  0  0  0
  -21.6668   -6.8916   21.4247 O   0  0  0  0  0  0
  -22.3317  -14.5398   20.6771 O   0  0  0  0  0  0
  -24.7311  -31.7396   23.1101 C   0  0  0  0  0  0
  -25.9648  -32.4173   23.7833 C   0  0  1  0  0  0
  -27.2524  -26.1953   20.2622 C   0  0  0  0  0  0
  -25.6017  -33.8028   24.1662 N   0  0  0  0  0  0
  -23.5802  -30.3172   21.4762 C   0  0  2  0  0  0
  -25.0426  -28.5485   20.1363 C   0  0  0  0  0  0
  -22.7976  -29.3990   22.4583 C   0  0  0  0  0  0
  -18.0368  -28.1447   22.8429 C   0  0  0  0  0  0
  -24.1497  -36.7028   23.2667 C   0  0  0  0  0  0
  -26.1771  -30.3026   21.4536 C   0  0  0  0  0  0
  -26.2364  -28.8091   20.8170 C   0  0  0  0  0  0
  -27.2972  -27.6780   20.8356 C   0  0  0  0  0  0
  -26.0251  -26.2777   19.5095 C   0  0  0  0  0  0
  -25.0058  -27.3121   19.4574 C   0  0  0  0  0  0
  -23.8622  -29.5648   20.1348 C   0  0  0  0  0  0
  -25.4166  -36.2725   24.0246 C   0  0  1  0  0  0
  -20.6024  -28.3825   23.1054 C   0  0  2  0  0  0
  -20.6807  -26.9439   22.5414 C   0  0  0  0  0  0
  -19.5793  -26.6353   21.5222 C   0  0  0  0  0  0
  -18.1975  -26.7964   22.1610 C   0  0  0  0  0  0
  -19.1646  -28.8972   23.2706 C   0  0  0  0  0  0
  -18.9544  -30.1543   23.8773 C   0  0  0  0  0  0
  -17.6528  -30.6616   24.0539 C   0  0  0  0  0  0
  -25.9175  -34.9128   23.4831 C   0  0  0  0  0  0
  -16.5414  -29.9089   23.6363 C   0  0  0  0  0  0
  -16.7345  -28.6515   23.0375 C   0  0  0  0  0  0
  -26.4671  -31.6428   25.0663 C   0  0  0  0  0  0
  -25.3607  -31.3884   26.1185 C   0  0  0  0  0  0
  -27.0687  -30.2718   24.6928 C   0  0  0  0  0  0
  -27.6022  -32.4414   25.7505 C   0  0  0  0  0  0
  -27.5547  -37.1668   24.8467 C   0  0  0  0  0  0
  -21.4580  -29.2970   22.3320 N   0  0  0  0  0  0
  -26.4250  -37.3541   23.9406 N   0  0  0  0  0  0
  -24.8593  -30.8326   22.0646 N   0  0  0  0  0  0
  -23.4182  -28.7679   23.3164 O   0  0  0  0  0  0
  -28.1793  -24.7645   20.2868 O   0  0  0  0  0  0
  -26.5891  -34.8805   22.4500 O   0  0  0  0  0  0
  -23.6225  -32.0710   23.5731 O   0  0  0  0  0  0
  -28.4183  -21.2750   20.2622 C   0  0  0  0  0  0
  -28.1200  -22.9583   20.2645 C   0  0  0  0  0  0
  -29.4202  -19.6475   20.2898 C   0  0  0  0  0  0
  -29.2729  -17.9285   20.2812 N   0  0  0  0  0  0
  -30.6255  -19.9070   20.3240 O   0  0  0  0  0  0
  -31.2729  -14.0033   19.0844 H   0  0  0  0  0  0
  -30.6912  -12.9418   20.3014 H   0  0  0  0  0  0
  -30.1734  -12.0532   18.0061 H   0  0  0  0  0  0
  -29.4122  -13.5598   17.5647 H   0  0  0  0  0  0
  -28.3726  -11.4241   19.4271 H   0  0  0  0  0  0
  -27.5612  -12.1175   18.0370 H   0  0  0  0  0  0
  -27.3476  -14.2141   19.1311 H   0  0  0  0  0  0
  -28.9549  -13.2718   21.5492 H   0  0  0  0  0  0
  -27.9692  -14.6952   21.5248 H   0  0  0  0  0  0
  -25.2847   -9.5685   22.4754 H   0  0  0  0  0  0
  -24.0036   -7.4668   22.7487 H   0  0  0  0  0  0
  -21.0917   -8.8832   19.8946 H   0  0  0  0  0  0
  -22.3821  -10.9690   19.6138 H   0  0  0  0  0  0
  -21.2028   -7.6161   23.9723 H   0  0  0  0  0  0
  -21.1485   -6.0527   25.9076 H   0  0  0  0  0  0
  -22.0590   -2.7621   23.2833 H   0  0  0  0  0  0
  -22.4031  -11.9760   22.4890 H   0  0  0  0  0  0
  -21.0949  -13.1023   22.2675 H   0  0  0  0  0  0
  -24.5885  -15.8594   20.5440 H   0  0  0  0  0  0
  -26.2104  -15.6668   20.1052 H   0  0  0  0  0  0
  -26.7789  -32.4539   23.0585 H   0  0  0  0  0  0
  -24.9987  -33.8980   24.9700 H   0  0  0  0  0  0
  -22.9352  -31.1666   21.2416 H   0  0  0  0  0  0
  -23.3788  -35.9324   23.3238 H   0  0  0  0  0  0
  -24.3546  -36.8813   22.2100 H   0  0  0  0  0  0
  -23.7235  -37.6152   23.6847 H   0  0  0  0  0  0
  -26.4303  -30.9900   20.6454 H   0  0  0  0  0  0
  -27.0112  -30.3895   22.1360 H   0  0  0  0  0  0
  -28.1879  -27.9087   21.4027 H   0  0  0  0  0  0
  -25.7857  -25.3841   18.9505 H   0  0  0  0  0  0
  -24.1237  -27.0933   18.8713 H   0  0  0  0  0  0
  -24.0783  -30.3019   19.3608 H   0  0  0  0  0  0
  -22.9574  -29.0554   19.7991 H   0  0  0  0  0  0
  -25.1401  -36.1415   25.0733 H   0  0  0  0  0  0
  -21.0086  -28.3487   24.1190 H   0  0  0  0  0  0
  -20.5623  -26.2463   23.3720 H   0  0  0  0  0  0
  -21.6664  -26.7302   22.1264 H   0  0  0  0  0  0
  -19.6939  -25.6231   21.1331 H   0  0  0  0  0  0
  -19.6753  -27.3096   20.6702 H   0  0  0  0  0  0
  -17.4248  -26.6711   21.4009 H   0  0  0  0  0  0
  -18.0343  -26.0136   22.9031 H   0  0  0  0  0  0
  -19.8021  -30.7387   24.2090 H   0  0  0  0  0  0
  -17.5078  -31.6283   24.5167 H   0  0  0  0  0  0
  -15.5410  -30.2953   23.7759 H   0  0  0  0  0  0
  -15.8745  -28.0794   22.7161 H   0  0  0  0  0  0
  -24.5847  -30.7185   25.7464 H   0  0  0  0  0  0
  -24.8745  -32.3148   26.4253 H   0  0  0  0  0  0
  -25.7668  -30.9273   27.0197 H   0  0  0  0  0  0
  -26.3492  -29.6166   24.2012 H   0  0  0  0  0  0
  -27.4005  -29.7379   25.5844 H   0  0  0  0  0  0
  -27.9510  -30.3737   24.0609 H   0  0  0  0  0  0
  -27.2498  -33.3847   26.1690 H   0  0  0  0  0  0
  -28.4023  -32.6766   25.0474 H   0  0  0  0  0  0
  -28.0481  -31.8819   26.5739 H   0  0  0  0  0  0
  -28.2504  -38.0016   24.7512 H   0  0  0  0  0  0
  -28.1101  -36.2530   24.6300 H   0  0  0  0  0  0
  -27.2259  -37.1297   25.8867 H   0  0  0  0  0  0
  -21.0006  -29.8544   21.6239 H   0  0  0  0  0  0
  -26.0032  -38.2566   24.1426 H   0  0  0  0  0  0
  -27.4139  -20.8821   20.2129 H   0  0  0  0  0  0
  -29.1992  -22.9982   20.3104 H   0  0  0  0  0  0
  -28.2804  -17.7454   20.2650 H   0  0  0  0  0  0
  1 25  1  0  0  0
  1 30  2  0  0  0
  1 74  1  0  0  0
  2  3  1  0  0  0
  2 25  1  0  0  0
  2 76  1  0  0  0
  2 77  1  0  0  0
  3  4  1  0  0  0
  3 78  1  0  0  0
  3 79  1  0  0  0
  4  5  1  0  0  0
  4 80  1  0  0  0
  4 81  1  0  0  0
  5  6  1  0  0  0
  5 26  1  0  0  0
  5 82  1  0  0  0
  6 25  1  0  0  0
  6 83  1  0  0  0
  6 84  1  0  0  0
  7  8  2  0  0  0
  7 26  1  0  0  0
  7 29  1  0  0  0
  8  9  1  0  0  0
  8 22  1  0  0  0
  9 10  1  0  0  0
  9 27  2  0  0  0
 10 11  2  0  0  0
 10 15  1  0  0  0
 11 12  1  0  0  0
 11 85  1  0  0  0
 12 13  2  0  0  0
 12 86  1  0  0  0
 13 14  1  0  0  0
 13 31  1  0  0  0
 14 15  2  0  0  0
 14 87  1  0  0  0
 15 88  1  0  0  0
 16 17  2  0  0  0
 16 21  1  0  0  0
 16 31  1  0  0  0
 17 18  1  0  0  0
 17 89  1  0  0  0
 18 19  2  0  0  0
 18 90  1  0  0  0
 19 20  1  0  0  0
 19 24  1  0  0  0
 20 21  2  0  0  0
 20 91  1  0  0  0
 21 23  1  0  0  0
 22 28  1  0  0  0
 22 32  2  0  0  0
 26 27  1  0  0  0
 28 92  1  0  0  0
 28 93  1  0  0  0
 29 94  1  0  0  0
 29 95  1  0  0  0
 33 34  1  0  0  0
 33 66  1  0  0  0
 33 70  2  0  0  0
 34 36  1  0  0  0
 34 59  1  0  0  0
 34 96  1  0  0  0
 35 44  2  0  0  0
 35 45  1  0  0  0
 35 68  1  0  0  0
 36 56  1  0  0  0
 36 97  1  0  0  0
 37 39  1  0  0  0
 37 47  1  0  0  0
 37 66  1  0  0  0
 37 98  1  0  0  0
 38 43  2  0  0  0
 38 46  1  0  0  0
 38 47  1  0  0  0
 39 64  1  0  0  0
 39 67  2  0  0  0
 40 52  1  0  0  0
 40 53  2  0  0  0
 40 58  1  0  0  0
 41 99  1  0  0  0
 41100  1  0  0  0
 41101  1  0  0  0
 41 48  1  0  0  0
 42 43  1  0  0  0
 42 66  1  0  0  0
 42102  1  0  0  0
 42103  1  0  0  0
 43 44  1  0  0  0
 44104  1  0  0  0
 45 46  2  0  0  0
 45105  1  0  0  0
 46106  1  0  0  0
 47107  1  0  0  0
 47108  1  0  0  0
 48 56  1  0  0  0
 48 65  1  0  0  0
 48109  1  0  0  0
 49 50  1  0  0  0
 49 53  1  0  0  0
 49 64  1  0  0  0
 49110  1  0  0  0
 50 51  1  0  0  0
 50111  1  0  0  0
 50112  1  0  0  0
 51 52  1  0  0  0
 51113  1  0  0  0
 51114  1  0  0  0
 52115  1  0  0  0
 52116  1  0  0  0
 53 54  1  0  0  0
 54 55  2  0  0  0
 54117  1  0  0  0
 55 57  1  0  0  0
 55118  1  0  0  0
 56 69  2  0  0  0
 57 58  2  0  0  0
 57119  1  0  0  0
 58120  1  0  0  0
 59 60  1  0  0  0
 59 61  1  0  0  0
 59 62  1  0  0  0
 60121  1  0  0  0
 60122  1  0  0  0
 60123  1  0  0  0
 61124  1  0  0  0
 61125  1  0  0  0
 61126  1  0  0  0
 62127  1  0  0  0
 62128  1  0  0  0
 62129  1  0  0  0
 63 65  1  0  0  0
 63130  1  0  0  0
 63131  1  0  0  0
 63132  1  0  0  0
 64133  1  0  0  0
 65134  1  0  0  0
 68 72  1  0  0  0
 71 72  2  0  0  0
 71 73  1  0  0  0
 71135  1  0  0  0
 72136  1  0  0  0
 73 74  1  0  0  0
 73 75  2  0  0  0
 74137  1  0  0  0
M  ISO  4   1 100  68 101  72 101  74 100
M  END
> <chiral flag>
0

> <version>
0

> <s_m_source_file>
/data/baiqing/PycharmProjects/Reinvent-master-3.2/result/LINK_invent/BTK/process_docking_weight1_custom_product_contain_oxygen_bond_distance_aromatic_linkinvent_7_9_3/rearranged_h_0080.sdf

> <i_m_source_file_index>
26

> <r_mmod_Potential_Energy-OPLS-2005>
5536.701171875

> <r_mmod_Stretch_Energy-OPLS-2005>
2247.86108398438

> <r_mmod_Bend_Energy-OPLS-2005>
1276.73291015625

> <r_mmod_Torsional_Energy-OPLS-2005>
208.950439453125

> <r_mmod_Improper_Torsional_Energy-OPLS-2005>
4.2933144569397

> <r_mmod_Van_der_Waal_Energy-OPLS-2005>
115.79280090332

> <r_mmod_Electrostatic_Energy-OPLS-2005>
-392.346527099609

> <r_mmod_Solvation_Energy-OPLS-2005>
-238.194381713867

> <b_mmod_Minimization_Converged-OPLS-2005>
1

> <r_mmod_RMS_Derivative-OPLS-2005>
0.049935445189476

$$$$
26
                    3D
 Structure written by MMmdl.
149158  0  0  1  0            999 V2000
  -30.5740  -14.7508   20.4693 C   0  0  0  0  0  0
  -30.4506  -12.4588   19.4657 C   0  0  0  0  0  0
  -29.5165  -12.5143   18.2341 C   0  0  0  0  0  0
  -28.0419  -12.3314   18.6477 C   0  0  0  0  0  0
  -27.6485  -13.2211   19.8559 C   0  0  2  0  0  0
  -28.6960  -13.1241   20.9884 C   0  0  0  0  0  0
  -25.2539  -13.8158   20.5679 C   0  0  0  0  0  0
  -24.1822  -13.0423   20.9209 C   0  0  0  0  0  0
  -24.6400  -11.6899   20.8750 C   0  0  0  0  0  0
  -23.9069  -10.4284   21.0411 C   0  0  0  0  0  0
  -24.3618   -9.4199   21.9188 C   0  0  0  0  0  0
  -23.6291   -8.2236   22.0756 C   0  0  0  0  0  0
  -22.4274   -8.0277   21.3545 C   0  0  0  0  0  0
  -21.9911   -9.0252   20.4648 C   0  0  0  0  0  0
  -22.7242  -10.2131   20.3059 C   0  0  0  0  0  0
  -21.6851   -6.0734   22.5279 C   0  0  0  0  0  0
  -21.4013   -6.5639   23.8212 C   0  0  0  0  0  0
  -21.3659   -5.6792   24.9174 C   0  0  0  0  0  0
  -21.6044   -4.3054   24.7225 C   0  0  0  0  0  0
  -21.8819   -3.8146   23.4346 C   0  0  0  0  0  0
  -21.9192   -4.6962   22.3402 C   0  0  0  0  0  0
  -22.7844  -13.5218   21.1865 C   0  0  0  0  0  0
  -22.1661   -4.2148   21.0980 F   0  0  0  0  0  0
  -21.5629   -3.4538   25.7739 F   0  0  0  0  0  0
  -30.0001  -13.4984   20.4176 N   0  0  0  0  0  0
  -26.2969  -12.9349   20.3289 N   0  0  0  0  0  0
  -25.9329  -11.6504   20.5754 N   0  0  0  0  0  0
  -22.0483  -12.8214   22.0421 N   0  0  0  0  0  0
  -25.4218  -15.1876   20.4051 N   0  0  0  0  0  0
  -31.7526  -14.9133   20.1371 O   0  0  0  0  0  0
  -21.6636   -6.8876   21.4241 O   0  0  0  0  0  0
  -22.3533  -14.5525   20.6709 O   0  0  0  0  0  0
  -24.6337  -31.8549   23.1986 C   0  0  0  0  0  0
  -25.9156  -32.4753   23.8334 C   0  0  1  0  0  0
  -27.2260  -27.2543   20.1117 C   0  0  0  0  0  0
  -25.5944  -33.8555   24.2254 N   0  0  0  0  0  0
  -23.4307  -30.4797   21.5433 C   0  0  2  0  0  0
  -24.8773  -28.9302   20.1106 C   0  0  0  0  0  0
  -22.7516  -29.4605   22.4908 C   0  0  0  0  0  0
  -18.0295  -28.1389   22.8483 C   0  0  0  0  0  0
  -24.1490  -36.7281   23.2639 C   0  0  0  0  0  0
  -25.9800  -30.7651   21.3805 C   0  0  0  0  0  0
  -26.0531  -29.3889   20.7176 C   0  0  0  0  0  0
  -27.2276  -28.5641   20.7084 C   0  0  0  0  0  0
  -26.0092  -26.8626   19.4989 C   0  0  0  0  0  0
  -24.8609  -27.6740   19.4930 C   0  0  0  0  0  0
  -23.6493  -29.8182   20.1588 C   0  0  0  0  0  0
  -25.4118  -36.3068   24.0324 C   0  0  1  0  0  0
  -20.5902  -28.3706   23.1261 C   0  0  2  0  0  0
  -20.6784  -26.9421   22.5404 C   0  0  0  0  0  0
  -19.5755  -26.6385   21.5211 C   0  0  0  0  0  0
  -18.1937  -26.7930   22.1626 C   0  0  0  0  0  0
  -19.1549  -28.8863   23.2867 C   0  0  0  0  0  0
  -18.9469  -30.1463   23.8887 C   0  0  0  0  0  0
  -17.6467  -30.6589   24.0562 C   0  0  0  0  0  0
  -25.9061  -34.9439   23.5091 C   0  0  0  0  0  0
  -16.5358  -29.9084   23.6333 C   0  0  0  0  0  0
  -16.7281  -28.6502   23.0354 C   0  0  0  0  0  0
  -26.4511  -31.6582   25.0731 C   0  0  0  0  0  0
  -25.3724  -31.3738   26.1443 C   0  0  0  0  0  0
  -27.0363  -30.2995   24.6234 C   0  0  0  0  0  0
  -27.6058  -32.4328   25.7509 C   0  0  0  0  0  0
  -27.5579  -37.1797   24.8465 C   0  0  0  0  0  0
  -21.4221  -29.3051   22.3650 N   0  0  0  0  0  0
  -26.4290  -37.3769   23.9408 N   0  0  0  0  0  0
  -24.7009  -31.0507   22.0969 N   0  0  0  0  0  0
  -23.4209  -28.8139   23.3006 O   0  0  0  0  0  0
  -28.3164  -26.3407   20.1783 O   0  0  0  0  0  0
  -26.5633  -34.8915   22.4660 O   0  0  0  0  0  0
  -23.5483  -32.1375   23.7273 O   0  0  0  0  0  0
  -28.3545  -19.3300   19.9913 C   0  0  0  0  0  0
  -30.5668  -19.6337   20.7255 C   0  0  0  0  0  0
  -28.5010  -17.9112   20.1167 C   0  0  0  0  0  0
  -30.7469  -18.2015   20.8233 C   0  0  0  0  0  0
  -29.3636  -20.2939   20.2959 C   0  0  0  0  0  0
  -29.7042  -17.2759   20.5266 C   0  0  0  0  0  0
  -28.6488  -23.7647   19.8539 C   0  0  0  0  0  0
  -28.4603  -22.5188   19.1304 C   0  0  0  0  0  0
  -29.3401  -22.9801   20.8743 C   0  0  0  0  0  0
  -28.2379  -25.0630   19.5412 C   0  0  0  0  0  0
  -29.1311  -21.7616   20.1292 N   0  0  0  0  0  0
  -29.7050  -15.8007   20.7201 N   0  0  0  0  0  0
  -27.9000  -22.2909   18.0756 O   0  0  0  0  0  0
  -29.8478  -23.3033   21.9306 O   0  0  0  0  0  0
  -31.4871  -12.6099   19.1590 H   0  0  0  0  0  0
  -30.4166  -11.4739   19.9340 H   0  0  0  0  0  0
  -29.7994  -11.7480   17.5112 H   0  0  0  0  0  0
  -29.6368  -13.4724   17.7258 H   0  0  0  0  0  0
  -27.8998  -11.2808   18.9035 H   0  0  0  0  0  0
  -27.3835  -12.5292   17.8011 H   0  0  0  0  0  0
  -27.6488  -14.2464   19.4862 H   0  0  0  0  0  0
  -28.7344  -12.1114   21.3927 H   0  0  0  0  0  0
  -28.4265  -13.7698   21.8258 H   0  0  0  0  0  0
  -25.2763   -9.5673   22.4762 H   0  0  0  0  0  0
  -23.9998   -7.4627   22.7474 H   0  0  0  0  0  0
  -21.0841   -8.8774   19.8952 H   0  0  0  0  0  0
  -22.3702  -10.9671   19.6168 H   0  0  0  0  0  0
  -21.2005   -7.6147   23.9715 H   0  0  0  0  0  0
  -21.1481   -6.0522   25.9078 H   0  0  0  0  0  0
  -22.0599   -2.7608   23.2847 H   0  0  0  0  0  0
  -22.4096  -11.9876   22.4812 H   0  0  0  0  0  0
  -21.1101  -13.1243   22.2624 H   0  0  0  0  0  0
  -24.6449  -15.8332   20.4974 H   0  0  0  0  0  0
  -26.2473  -15.6169   20.0115 H   0  0  0  0  0  0
  -26.7223  -32.5398   23.1075 H   0  0  0  0  0  0
  -25.0085  -33.9690   25.0395 H   0  0  0  0  0  0
  -22.7278  -31.3028   21.3986 H   0  0  0  0  0  0
  -23.3755  -35.9611   23.3296 H   0  0  0  0  0  0
  -24.3580  -36.8912   22.2055 H   0  0  0  0  0  0
  -23.7241  -37.6478   23.6670 H   0  0  0  0  0  0
  -26.1229  -31.5281   20.6140 H   0  0  0  0  0  0
  -26.8558  -30.8104   22.0163 H   0  0  0  0  0  0
  -28.1265  -28.9115   21.1980 H   0  0  0  0  0  0
  -25.8875  -25.8929   19.0430 H   0  0  0  0  0  0
  -23.9563  -27.3098   19.0253 H   0  0  0  0  0  0
  -23.7762  -30.5966   19.4055 H   0  0  0  0  0  0
  -22.7667  -29.2545   19.8510 H   0  0  0  0  0  0
  -25.1300  -36.1911   25.0817 H   0  0  0  0  0  0
  -20.9994  -28.3284   24.1382 H   0  0  0  0  0  0
  -20.5686  -26.2315   23.3611 H   0  0  0  0  0  0
  -21.6651  -26.7443   22.1196 H   0  0  0  0  0  0
  -19.6919  -25.6292   21.1246 H   0  0  0  0  0  0
  -19.6691  -27.3190   20.6736 H   0  0  0  0  0  0
  -17.4206  -26.6674   21.4031 H   0  0  0  0  0  0
  -18.0342  -26.0075   22.9025 H   0  0  0  0  0  0
  -19.7944  -30.7283   24.2252 H   0  0  0  0  0  0
  -17.5020  -31.6268   24.5165 H   0  0  0  0  0  0
  -15.5358  -30.2983   23.7663 H   0  0  0  0  0  0
  -15.8681  -28.0818   22.7075 H   0  0  0  0  0  0
  -24.5904  -30.7082   25.7767 H   0  0  0  0  0  0
  -24.8910  -32.2909   26.4847 H   0  0  0  0  0  0
  -25.8032  -30.8927   27.0233 H   0  0  0  0  0  0
  -26.2957  -29.6736   24.1241 H   0  0  0  0  0  0
  -27.4018  -29.7265   25.4766 H   0  0  0  0  0  0
  -27.8847  -30.4261   23.9504 H   0  0  0  0  0  0
  -27.2660  -33.3635   26.2065 H   0  0  0  0  0  0
  -28.3881  -32.6878   25.0348 H   0  0  0  0  0  0
  -28.0711  -31.8468   26.5444 H   0  0  0  0  0  0
  -28.2592  -38.0099   24.7515 H   0  0  0  0  0  0
  -28.1080  -36.2629   24.6288 H   0  0  0  0  0  0
  -27.2296  -37.1441   25.8868 H   0  0  0  0  0  0
  -20.9409  -29.8778   21.6857 H   0  0  0  0  0  0
  -26.0167  -38.2841   24.1411 H   0  0  0  0  0  0
  -27.3918  -19.6921   19.6584 H   0  0  0  0  0  0
  -31.4144  -20.2538   20.9801 H   0  0  0  0  0  0
  -27.6402  -17.3007   19.8860 H   0  0  0  0  0  0
  -31.7001  -17.8230   21.1645 H   0  0  0  0  0  0
  -27.7683  -25.1745   18.5753 H   0  0  0  0  0  0
  -28.7878  -15.4347   20.9226 H   0  0  0  0  0  0
  1 25  1  0  0  0
  1 30  2  0  0  0
  1 82  1  0  0  0
  2  3  1  0  0  0
  2 25  1  0  0  0
  2 85  1  0  0  0
  2 86  1  0  0  0
  3  4  1  0  0  0
  3 87  1  0  0  0
  3 88  1  0  0  0
  4  5  1  0  0  0
  4 89  1  0  0  0
  4 90  1  0  0  0
  5  6  1  0  0  0
  5 26  1  0  0  0
  5 91  1  0  0  0
  6 25  1  0  0  0
  6 92  1  0  0  0
  6 93  1  0  0  0
  7  8  2  0  0  0
  7 26  1  0  0  0
  7 29  1  0  0  0
  8  9  1  0  0  0
  8 22  1  0  0  0
  9 10  1  0  0  0
  9 27  2  0  0  0
 10 11  2  0  0  0
 10 15  1  0  0  0
 11 12  1  0  0  0
 11 94  1  0  0  0
 12 13  2  0  0  0
 12 95  1  0  0  0
 13 14  1  0  0  0
 13 31  1  0  0  0
 14 15  2  0  0  0
 14 96  1  0  0  0
 15 97  1  0  0  0
 16 17  2  0  0  0
 16 21  1  0  0  0
 16 31  1  0  0  0
 17 18  1  0  0  0
 17 98  1  0  0  0
 18 19  2  0  0  0
 18 99  1  0  0  0
 19 20  1  0  0  0
 19 24  1  0  0  0
 20 21  2  0  0  0
 20100  1  0  0  0
 21 23  1  0  0  0
 22 28  1  0  0  0
 22 32  2  0  0  0
 26 27  1  0  0  0
 28101  1  0  0  0
 28102  1  0  0  0
 29103  1  0  0  0
 29104  1  0  0  0
 33 34  1  0  0  0
 33 66  1  0  0  0
 33 70  2  0  0  0
 34 36  1  0  0  0
 34 59  1  0  0  0
 34105  1  0  0  0
 35 44  2  0  0  0
 35 45  1  0  0  0
 35 68  1  0  0  0
 36 56  1  0  0  0
 36106  1  0  0  0
 37 39  1  0  0  0
 37 47  1  0  0  0
 37 66  1  0  0  0
 37107  1  0  0  0
 38 43  2  0  0  0
 38 46  1  0  0  0
 38 47  1  0  0  0
 39 64  1  0  0  0
 39 67  2  0  0  0
 40 52  1  0  0  0
 40 53  2  0  0  0
 40 58  1  0  0  0
 41108  1  0  0  0
 41109  1  0  0  0
 41110  1  0  0  0
 41 48  1  0  0  0
 42 43  1  0  0  0
 42 66  1  0  0  0
 42111  1  0  0  0
 42112  1  0  0  0
 43 44  1  0  0  0
 44113  1  0  0  0
 45 46  2  0  0  0
 45114  1  0  0  0
 46115  1  0  0  0
 47116  1  0  0  0
 47117  1  0  0  0
 48 56  1  0  0  0
 48 65  1  0  0  0
 48118  1  0  0  0
 49 50  1  0  0  0
 49 53  1  0  0  0
 49 64  1  0  0  0
 49119  1  0  0  0
 50 51  1  0  0  0
 50120  1  0  0  0
 50121  1  0  0  0
 51 52  1  0  0  0
 51122  1  0  0  0
 51123  1  0  0  0
 52124  1  0  0  0
 52125  1  0  0  0
 53 54  1  0  0  0
 54 55  2  0  0  0
 54126  1  0  0  0
 55 57  1  0  0  0
 55127  1  0  0  0
 56 69  2  0  0  0
 57 58  2  0  0  0
 57128  1  0  0  0
 58129  1  0  0  0
 59 60  1  0  0  0
 59 61  1  0  0  0
 59 62  1  0  0  0
 60130  1  0  0  0
 60131  1  0  0  0
 60132  1  0  0  0
 61133  1  0  0  0
 61134  1  0  0  0
 61135  1  0  0  0
 62136  1  0  0  0
 62137  1  0  0  0
 62138  1  0  0  0
 63 65  1  0  0  0
 63139  1  0  0  0
 63140  1  0  0  0
 63141  1  0  0  0
 64142  1  0  0  0
 65143  1  0  0  0
 68 80  1  0  0  0
 71 73  2  0  0  0
 71 75  1  0  0  0
 71144  1  0  0  0
 72 74  1  0  0  0
 72 75  2  0  0  0
 72145  1  0  0  0
 73 76  1  0  0  0
 73146  1  0  0  0
 74 76  2  0  0  0
 74147  1  0  0  0
 75 81  1  0  0  0
 76 82  1  0  0  0
 77 78  1  0  0  0
 77 79  1  0  0  0
 77 80  2  0  0  0
 78 81  1  0  0  0
 78 83  2  0  0  0
 79 81  1  0  0  0
 79 84  2  0  0  0
 80148  1  0  0  0
 82149  1  0  0  0
M  ISO  4   1 100  68 101  80 101  82 100
M  END
> <chiral flag>
0

> <version>
0

> <s_m_source_file>
/data/baiqing/PycharmProjects/Reinvent-master-3.2/result/LINK_invent/BTK/process_docking_weight1_custom_product_contain_oxygen_bond_distance_aromatic_linkinvent_7_9_3/rearranged_h_0080.sdf

> <i_m_source_file_index>
27

> <r_mmod_Potential_Energy-OPLS-2005>
205.04655456543

> <r_mmod_Stretch_Energy-OPLS-2005>
112.029167175293

> <r_mmod_Bend_Energy-OPLS-2005>
265.751098632812

> <r_mmod_Torsional_Energy-OPLS-2005>
227.429061889648

> <r_mmod_Improper_Torsional_Energy-OPLS-2005>
5.86768484115601

> <r_mmod_Van_der_Waal_Energy-OPLS-2005>
136.00553894043

> <r_mmod_Electrostatic_Energy-OPLS-2005>
-398.190032958984

> <r_mmod_Solvation_Energy-OPLS-2005>
-233.616638183594

> <b_mmod_Minimization_Converged-OPLS-2005>
0

> <r_mmod_RMS_Derivative-OPLS-2005>
0.452697724103928

$$$$
27
                    3D
 Structure written by MMmdl.
157166  0  0  1  0            999 V2000
  -30.5745  -14.7620   20.4569 C   0  0  0  0  0  0
  -30.4455  -12.4649   19.4692 C   0  0  0  0  0  0
  -29.5155  -12.5212   18.2348 C   0  0  0  0  0  0
  -28.0406  -12.3387   18.6462 C   0  0  0  0  0  0
  -27.6474  -13.2264   19.8559 C   0  0  2  0  0  0
  -28.6938  -13.1374   20.9898 C   0  0  0  0  0  0
  -25.2539  -13.8178   20.5682 C   0  0  0  0  0  0
  -24.1824  -13.0435   20.9210 C   0  0  0  0  0  0
  -24.6404  -11.6910   20.8744 C   0  0  0  0  0  0
  -23.9069  -10.4293   21.0405 C   0  0  0  0  0  0
  -24.3616   -9.4209   21.9185 C   0  0  0  0  0  0
  -23.6293   -8.2243   22.0753 C   0  0  0  0  0  0
  -22.4278   -8.0278   21.3543 C   0  0  0  0  0  0
  -21.9910   -9.0252   20.4647 C   0  0  0  0  0  0
  -22.7238  -10.2134   20.3056 C   0  0  0  0  0  0
  -21.6854   -6.0734   22.5278 C   0  0  0  0  0  0
  -21.4012   -6.5635   23.8210 C   0  0  0  0  0  0
  -21.3663   -5.6791   24.9175 C   0  0  0  0  0  0
  -21.6050   -4.3055   24.7227 C   0  0  0  0  0  0
  -21.8820   -3.8142   23.4351 C   0  0  0  0  0  0
  -21.9192   -4.6959   22.3403 C   0  0  0  0  0  0
  -22.7844  -13.5225   21.1865 C   0  0  0  0  0  0
  -22.1660   -4.2143   21.0979 F   0  0  0  0  0  0
  -21.5635   -3.4539   25.7737 F   0  0  0  0  0  0
  -29.9969  -13.5100   20.4178 N   0  0  0  0  0  0
  -26.2968  -12.9375   20.3289 N   0  0  0  0  0  0
  -25.9333  -11.6526   20.5746 N   0  0  0  0  0  0
  -22.0480  -12.8219   22.0421 N   0  0  0  0  0  0
  -25.4227  -15.1894   20.4045 N   0  0  0  0  0  0
  -31.7497  -14.9121   20.1079 O   0  0  0  0  0  0
  -21.6642   -6.8874   21.4236 O   0  0  0  0  0  0
  -22.3538  -14.5535   20.6708 O   0  0  0  0  0  0
  -24.6338  -31.8543   23.1988 C   0  0  0  0  0  0
  -25.9159  -32.4752   23.8337 C   0  0  1  0  0  0
  -27.2260  -27.2579   20.1100 C   0  0  0  0  0  0
  -25.5950  -33.8556   24.2261 N   0  0  0  0  0  0
  -23.4311  -30.4782   21.5425 C   0  0  2  0  0  0
  -24.8785  -28.9271   20.1091 C   0  0  0  0  0  0
  -22.7520  -29.4598   22.4902 C   0  0  0  0  0  0
  -18.0293  -28.1396   22.8486 C   0  0  0  0  0  0
  -24.1482  -36.7272   23.2636 C   0  0  0  0  0  0
  -25.9794  -30.7638   21.3804 C   0  0  0  0  0  0
  -26.0533  -29.3872   20.7188 C   0  0  0  0  0  0
  -27.2286  -28.5636   20.7136 C   0  0  0  0  0  0
  -26.0160  -26.8624   19.4928 C   0  0  0  0  0  0
  -24.8645  -27.6714   19.4871 C   0  0  0  0  0  0
  -23.6503  -29.8160   20.1581 C   0  0  0  0  0  0
  -25.4110  -36.3066   24.0324 C   0  0  1  0  0  0
  -20.5903  -28.3717   23.1257 C   0  0  2  0  0  0
  -20.6781  -26.9430   22.5410 C   0  0  0  0  0  0
  -19.5754  -26.6392   21.5217 C   0  0  0  0  0  0
  -18.1936  -26.7939   22.1625 C   0  0  0  0  0  0
  -19.1548  -28.8872   23.2871 C   0  0  0  0  0  0
  -18.9467  -30.1469   23.8898 C   0  0  0  0  0  0
  -17.6464  -30.6597   24.0565 C   0  0  0  0  0  0
  -25.9062  -34.9437   23.5096 C   0  0  0  0  0  0
  -16.5356  -29.9093   23.6333 C   0  0  0  0  0  0
  -16.7276  -28.6509   23.0356 C   0  0  0  0  0  0
  -26.4521  -31.6578   25.0730 C   0  0  0  0  0  0
  -25.3734  -31.3721   26.1440 C   0  0  0  0  0  0
  -27.0369  -30.2989   24.6228 C   0  0  0  0  0  0
  -27.6077  -32.4317   25.7509 C   0  0  0  0  0  0
  -27.5577  -37.1785   24.8462 C   0  0  0  0  0  0
  -21.4223  -29.3063   22.3649 N   0  0  0  0  0  0
  -26.4279  -37.3773   23.9423 N   0  0  0  0  0  0
  -24.7007  -31.0497   22.0971 N   0  0  0  0  0  0
  -23.4213  -28.8132   23.3002 O   0  0  0  0  0  0
  -28.2903  -26.3183   20.1696 O   0  0  0  0  0  0
  -26.5639  -34.8914   22.4667 O   0  0  0  0  0  0
  -23.5483  -32.1373   23.7273 O   0  0  0  0  0  0
  -30.8634  -18.1039   20.1127 C   0  0  0  0  0  0
  -28.5497  -18.0682   20.6802 C   0  0  0  0  0  0
  -29.5328  -20.2536   19.9454 C   0  0  0  0  0  0
  -29.7493  -17.3078   20.5077 C   0  0  0  0  0  0
  -30.7602  -19.5170   19.8488 C   0  0  0  0  0  0
  -28.4338  -19.4747   20.4028 C   0  0  0  0  0  0
  -28.6740  -24.0115   18.9290 C   0  0  0  0  0  0
  -28.6253  -23.6260   17.5242 C   0  0  0  0  0  0
  -28.9752  -22.8355   19.8697 C   0  0  0  0  0  0
  -27.6345  -24.0104   16.6929 C   0  0  0  0  0  0
  -28.4197  -25.3804   19.1187 C   0  0  0  0  0  0
  -29.7020  -22.7145   17.0391 C   0  0  0  0  0  0
  -29.5543  -21.4295   17.8338 C   0  0  0  0  0  0
  -29.3584  -21.5916   19.2967 N   0  0  0  0  0  0
  -29.7292  -15.8294   20.7361 N   0  0  0  0  0  0
  -28.9079  -22.9500   21.0969 O   0  0  0  0  0  0
  -31.8745  -20.1653   19.4287 F   0  0  0  0  0  0
  -27.2144  -20.0568   20.5010 F   0  0  0  0  0  0
  -31.4827  -12.6091   19.1635 H   0  0  0  0  0  0
  -30.4053  -11.4816   19.9399 H   0  0  0  0  0  0
  -29.8006  -11.7565   17.5109 H   0  0  0  0  0  0
  -29.6369  -13.4801   17.7275 H   0  0  0  0  0  0
  -27.8964  -11.2879   18.8985 H   0  0  0  0  0  0
  -27.3827  -12.5407   17.8000 H   0  0  0  0  0  0
  -27.6460  -14.2523   19.4875 H   0  0  0  0  0  0
  -28.7336  -12.1282   21.4030 H   0  0  0  0  0  0
  -28.4227  -13.7918   21.8194 H   0  0  0  0  0  0
  -25.2756   -9.5687   22.4766 H   0  0  0  0  0  0
  -24.0000   -7.4638   22.7473 H   0  0  0  0  0  0
  -21.0839   -8.8770   19.8955 H   0  0  0  0  0  0
  -22.3689  -10.9673   19.6169 H   0  0  0  0  0  0
  -21.2002   -7.6142   23.9712 H   0  0  0  0  0  0
  -21.1486   -6.0519   25.9075 H   0  0  0  0  0  0
  -22.0598   -2.7601   23.2848 H   0  0  0  0  0  0
  -22.4077  -11.9874   22.4812 H   0  0  0  0  0  0
  -21.1103  -13.1259   22.2622 H   0  0  0  0  0  0
  -24.6446  -15.8337   20.4936 H   0  0  0  0  0  0
  -26.2449  -15.6158   19.9985 H   0  0  0  0  0  0
  -26.7232  -32.5395   23.1084 H   0  0  0  0  0  0
  -25.0090  -33.9701   25.0401 H   0  0  0  0  0  0
  -22.7284  -31.3011   21.3970 H   0  0  0  0  0  0
  -23.3759  -35.9589   23.3282 H   0  0  0  0  0  0
  -24.3575  -36.8915   22.2056 H   0  0  0  0  0  0
  -23.7213  -37.6455   23.6676 H   0  0  0  0  0  0
  -26.1206  -31.5247   20.6117 H   0  0  0  0  0  0
  -26.8568  -30.8127   22.0139 H   0  0  0  0  0  0
  -28.1249  -28.9070   21.2104 H   0  0  0  0  0  0
  -25.9279  -25.8869   19.0380 H   0  0  0  0  0  0
  -23.9617  -27.3078   19.0155 H   0  0  0  0  0  0
  -23.7777  -30.5945   19.4051 H   0  0  0  0  0  0
  -22.7674  -29.2539   19.8497 H   0  0  0  0  0  0
  -25.1286  -36.1905   25.0815 H   0  0  0  0  0  0
  -21.0001  -28.3296   24.1374 H   0  0  0  0  0  0
  -20.5680  -26.2330   23.3621 H   0  0  0  0  0  0
  -21.6643  -26.7448   22.1197 H   0  0  0  0  0  0
  -19.6919  -25.6301   21.1253 H   0  0  0  0  0  0
  -19.6684  -27.3194   20.6742 H   0  0  0  0  0  0
  -17.4205  -26.6682   21.4033 H   0  0  0  0  0  0
  -18.0337  -26.0082   22.9025 H   0  0  0  0  0  0
  -19.7939  -30.7286   24.2271 H   0  0  0  0  0  0
  -17.5016  -31.6277   24.5168 H   0  0  0  0  0  0
  -15.5360  -30.3000   23.7657 H   0  0  0  0  0  0
  -15.8670  -28.0830   22.7080 H   0  0  0  0  0  0
  -24.5932  -30.7050   25.7759 H   0  0  0  0  0  0
  -24.8896  -32.2880   26.4845 H   0  0  0  0  0  0
  -25.8042  -30.8912   27.0233 H   0  0  0  0  0  0
  -26.2957  -29.6732   24.1246 H   0  0  0  0  0  0
  -27.4034  -29.7257   25.4757 H   0  0  0  0  0  0
  -27.8844  -30.4251   23.9486 H   0  0  0  0  0  0
  -27.2700  -33.3636   26.2059 H   0  0  0  0  0  0
  -28.3909  -32.6852   25.0351 H   0  0  0  0  0  0
  -28.0728  -31.8458   26.5447 H   0  0  0  0  0  0
  -28.2571  -38.0108   24.7557 H   0  0  0  0  0  0
  -28.1097  -36.2646   24.6224 H   0  0  0  0  0  0
  -27.2308  -37.1352   25.8866 H   0  0  0  0  0  0
  -20.9420  -29.8781   21.6843 H   0  0  0  0  0  0
  -26.0149  -38.2835   24.1467 H   0  0  0  0  0  0
  -31.8244  -17.6308   19.9734 H   0  0  0  0  0  0
  -27.6517  -17.5549   20.9924 H   0  0  0  0  0  0
  -26.8190  -24.6380   17.0236 H   0  0  0  0  0  0
  -27.6117  -23.6921   15.6597 H   0  0  0  0  0  0
  -28.2773  -25.9587   18.2153 H   0  0  0  0  0  0
  -30.6755  -23.1739   17.2201 H   0  0  0  0  0  0
  -29.6294  -22.5244   15.9666 H   0  0  0  0  0  0
  -30.4103  -20.7982   17.5993 H   0  0  0  0  0  0
  -28.6832  -20.8909   17.4573 H   0  0  0  0  0  0
  -28.8322  -15.4890   21.0482 H   0  0  0  0  0  0
  1 25  1  0  0  0
  1 30  2  0  0  0
  1 85  1  0  0  0
  2  3  1  0  0  0
  2 25  1  0  0  0
  2 89  1  0  0  0
  2 90  1  0  0  0
  3  4  1  0  0  0
  3 91  1  0  0  0
  3 92  1  0  0  0
  4  5  1  0  0  0
  4 93  1  0  0  0
  4 94  1  0  0  0
  5  6  1  0  0  0
  5 26  1  0  0  0
  5 95  1  0  0  0
  6 25  1  0  0  0
  6 96  1  0  0  0
  6 97  1  0  0  0
  7  8  2  0  0  0
  7 26  1  0  0  0
  7 29  1  0  0  0
  8  9  1  0  0  0
  8 22  1  0  0  0
  9 10  1  0  0  0
  9 27  2  0  0  0
 10 11  2  0  0  0
 10 15  1  0  0  0
 11 12  1  0  0  0
 11 98  1  0  0  0
 12 13  2  0  0  0
 12 99  1  0  0  0
 13 14  1  0  0  0
 13 31  1  0  0  0
 14 15  2  0  0  0
 14100  1  0  0  0
 15101  1  0  0  0
 16 17  2  0  0  0
 16 21  1  0  0  0
 16 31  1  0  0  0
 17 18  1  0  0  0
 17102  1  0  0  0
 18 19  2  0  0  0
 18103  1  0  0  0
 19 20  1  0  0  0
 19 24  1  0  0  0
 20 21  2  0  0  0
 20104  1  0  0  0
 21 23  1  0  0  0
 22 28  1  0  0  0
 22 32  2  0  0  0
 26 27  1  0  0  0
 28105  1  0  0  0
 28106  1  0  0  0
 29107  1  0  0  0
 29108  1  0  0  0
 33 34  1  0  0  0
 33 66  1  0  0  0
 33 70  2  0  0  0
 34 36  1  0  0  0
 34 59  1  0  0  0
 34109  1  0  0  0
 35 44  2  0  0  0
 35 45  1  0  0  0
 35 68  1  0  0  0
 36 56  1  0  0  0
 36110  1  0  0  0
 37 39  1  0  0  0
 37 47  1  0  0  0
 37 66  1  0  0  0
 37111  1  0  0  0
 38 43  2  0  0  0
 38 46  1  0  0  0
 38 47  1  0  0  0
 39 64  1  0  0  0
 39 67  2  0  0  0
 40 52  1  0  0  0
 40 53  2  0  0  0
 40 58  1  0  0  0
 41112  1  0  0  0
 41113  1  0  0  0
 41114  1  0  0  0
 41 48  1  0  0  0
 42 43  1  0  0  0
 42 66  1  0  0  0
 42115  1  0  0  0
 42116  1  0  0  0
 43 44  1  0  0  0
 44117  1  0  0  0
 45 46  2  0  0  0
 45118  1  0  0  0
 46119  1  0  0  0
 47120  1  0  0  0
 47121  1  0  0  0
 48 56  1  0  0  0
 48 65  1  0  0  0
 48122  1  0  0  0
 49 50  1  0  0  0
 49 53  1  0  0  0
 49 64  1  0  0  0
 49123  1  0  0  0
 50 51  1  0  0  0
 50124  1  0  0  0
 50125  1  0  0  0
 51 52  1  0  0  0
 51126  1  0  0  0
 51127  1  0  0  0
 52128  1  0  0  0
 52129  1  0  0  0
 53 54  1  0  0  0
 54 55  2  0  0  0
 54130  1  0  0  0
 55 57  1  0  0  0
 55131  1  0  0  0
 56 69  2  0  0  0
 57 58  2  0  0  0
 57132  1  0  0  0
 58133  1  0  0  0
 59 60  1  0  0  0
 59 61  1  0  0  0
 59 62  1  0  0  0
 60134  1  0  0  0
 60135  1  0  0  0
 60136  1  0  0  0
 61137  1  0  0  0
 61138  1  0  0  0
 61139  1  0  0  0
 62140  1  0  0  0
 62141  1  0  0  0
 62142  1  0  0  0
 63 65  1  0  0  0
 63143  1  0  0  0
 63144  1  0  0  0
 63145  1  0  0  0
 64146  1  0  0  0
 65147  1  0  0  0
 68 81  1  0  0  0
 71 74  2  0  0  0
 71 75  1  0  0  0
 71148  1  0  0  0
 72 74  1  0  0  0
 72 76  2  0  0  0
 72149  1  0  0  0
 73 75  2  0  0  0
 73 76  1  0  0  0
 73 84  1  0  0  0
 74 85  1  0  0  0
 75 87  1  0  0  0
 76 88  1  0  0  0
 77 78  1  0  0  0
 77 79  1  0  0  0
 77 81  2  0  0  0
 78 80  2  0  0  0
 78 82  1  0  0  0
 79 84  1  0  0  0
 79 86  2  0  0  0
 80150  1  0  0  0
 80151  1  0  0  0
 81152  1  0  0  0
 82 83  1  0  0  0
 82153  1  0  0  0
 82154  1  0  0  0
 83 84  1  0  0  0
 83155  1  0  0  0
 83156  1  0  0  0
 85157  1  0  0  0
M  ISO  4   1 100  68 101  81 101  85 100
M  END
> <chiral flag>
0

> <version>
0

> <s_m_source_file>
/data/baiqing/PycharmProjects/Reinvent-master-3.2/result/LINK_invent/BTK/process_docking_weight1_custom_product_contain_oxygen_bond_distance_aromatic_linkinvent_7_9_3/rearranged_h_0080.sdf

> <i_m_source_file_index>
28

> <r_mmod_Potential_Energy-OPLS-2005>
404.6748046875

> <r_mmod_Stretch_Energy-OPLS-2005>
138.454193115234

> <r_mmod_Bend_Energy-OPLS-2005>
245.894622802734

> <r_mmod_Torsional_Energy-OPLS-2005>
308.916046142578

> <r_mmod_Improper_Torsional_Energy-OPLS-2005>
7.67667818069458

> <r_mmod_Van_der_Waal_Energy-OPLS-2005>
160.76237487793

> <r_mmod_Electrostatic_Energy-OPLS-2005>
-330.469909667969

> <r_mmod_Solvation_Energy-OPLS-2005>
-220.530136108398

> <b_mmod_Minimization_Converged-OPLS-2005>
0

> <r_mmod_RMS_Derivative-OPLS-2005>
1.1197863817215

$$$$
28
                    3D
 Structure written by MMmdl.
156165  0  0  1  0            999 V2000
  -30.6200  -14.7758   20.5454 C   0  0  0  0  0  0
  -30.4385  -12.4950   19.4805 C   0  0  0  0  0  0
  -29.5159  -12.5334   18.2411 C   0  0  0  0  0  0
  -28.0436  -12.3382   18.6472 C   0  0  0  0  0  0
  -27.6431  -13.2321   19.8485 C   0  0  2  0  0  0
  -28.6783  -13.1505   20.9863 C   0  0  0  0  0  0
  -25.2517  -13.8194   20.5677 C   0  0  0  0  0  0
  -24.1803  -13.0436   20.9182 C   0  0  0  0  0  0
  -24.6395  -11.6915   20.8723 C   0  0  0  0  0  0
  -23.9073  -10.4292   21.0393 C   0  0  0  0  0  0
  -24.3623   -9.4210   21.9174 C   0  0  0  0  0  0
  -23.6296   -8.2248   22.0751 C   0  0  0  0  0  0
  -22.4278   -8.0286   21.3542 C   0  0  0  0  0  0
  -21.9909   -9.0256   20.4644 C   0  0  0  0  0  0
  -22.7240  -10.2132   20.3049 C   0  0  0  0  0  0
  -21.6857   -6.0740   22.5282 C   0  0  0  0  0  0
  -21.4018   -6.5642   23.8217 C   0  0  0  0  0  0
  -21.3657   -5.6792   24.9177 C   0  0  0  0  0  0
  -21.6042   -4.3056   24.7226 C   0  0  0  0  0  0
  -21.8819   -3.8148   23.4348 C   0  0  0  0  0  0
  -21.9194   -4.6966   22.3404 C   0  0  0  0  0  0
  -22.7828  -13.5222   21.1857 C   0  0  0  0  0  0
  -22.1663   -4.2151   21.0981 F   0  0  0  0  0  0
  -21.5622   -3.4538   25.7737 F   0  0  0  0  0  0
  -29.9882  -13.5428   20.4360 N   0  0  0  0  0  0
  -26.2936  -12.9399   20.3228 N   0  0  0  0  0  0
  -25.9323  -11.6540   20.5704 N   0  0  0  0  0  0
  -22.0479  -12.8214   22.0419 N   0  0  0  0  0  0
  -25.4233  -15.1921   20.4148 N   0  0  0  0  0  0
  -31.7275  -14.9232   20.0168 O   0  0  0  0  0  0
  -21.6643   -6.8882   21.4243 O   0  0  0  0  0  0
  -22.3506  -14.5524   20.6706 O   0  0  0  0  0  0
  -24.6349  -31.8510   23.1945 C   0  0  0  0  0  0
  -25.9160  -32.4731   23.8308 C   0  0  1  0  0  0
  -27.2283  -27.2330   20.1204 C   0  0  0  0  0  0
  -25.5935  -33.8533   24.2228 N   0  0  0  0  0  0
  -23.4339  -30.4724   21.5380 C   0  0  2  0  0  0
  -24.8827  -28.9149   20.1059 C   0  0  0  0  0  0
  -22.7523  -29.4579   22.4887 C   0  0  0  0  0  0
  -18.0297  -28.1392   22.8480 C   0  0  0  0  0  0
  -24.1489  -36.7277   23.2640 C   0  0  0  0  0  0
  -25.9827  -30.7544   21.3785 C   0  0  0  0  0  0
  -26.0559  -29.3756   20.7162 C   0  0  0  0  0  0
  -27.2279  -28.5466   20.7137 C   0  0  0  0  0  0
  -26.0216  -26.8398   19.4987 C   0  0  0  0  0  0
  -24.8719  -27.6557   19.4865 C   0  0  0  0  0  0
  -23.6546  -29.8053   20.1545 C   0  0  0  0  0  0
  -25.4118  -36.3055   24.0321 C   0  0  1  0  0  0
  -20.5905  -28.3706   23.1255 C   0  0  2  0  0  0
  -20.6784  -26.9419   22.5406 C   0  0  0  0  0  0
  -19.5759  -26.6381   21.5212 C   0  0  0  0  0  0
  -18.1940  -26.7931   22.1624 C   0  0  0  0  0  0
  -19.1554  -28.8867   23.2860 C   0  0  0  0  0  0
  -18.9471  -30.1468   23.8884 C   0  0  0  0  0  0
  -17.6468  -30.6590   24.0560 C   0  0  0  0  0  0
  -25.9062  -34.9426   23.5081 C   0  0  0  0  0  0
  -16.5358  -29.9086   23.6331 C   0  0  0  0  0  0
  -16.7283  -28.6505   23.0350 C   0  0  0  0  0  0
  -26.4509  -31.6575   25.0718 C   0  0  0  0  0  0
  -25.3721  -31.3743   26.1434 C   0  0  0  0  0  0
  -27.0366  -30.2983   24.6242 C   0  0  0  0  0  0
  -27.6047  -32.4332   25.7498 C   0  0  0  0  0  0
  -27.5577  -37.1794   24.8464 C   0  0  0  0  0  0
  -21.4226  -29.3043   22.3637 N   0  0  0  0  0  0
  -26.4289  -37.3759   23.9407 N   0  0  0  0  0  0
  -24.7031  -31.0447   22.0930 N   0  0  0  0  0  0
  -23.4206  -28.8128   23.3007 O   0  0  0  0  0  0
  -28.3032  -26.3037   20.2323 O   0  0  0  0  0  0
  -26.5644  -34.8910   22.4656 O   0  0  0  0  0  0
  -23.5490  -32.1343   23.7220 O   0  0  0  0  0  0
  -29.3559  -19.6680   21.7310 C   0  0  0  0  0  0
  -29.5386  -19.3131   19.4308 C   0  0  0  0  0  0
  -29.5911  -18.2704   21.9631 C   0  0  0  0  0  0
  -29.7863  -17.8976   19.6461 C   0  0  0  0  0  0
  -29.3067  -20.3006   20.4551 C   0  0  0  0  0  0
  -29.8279  -17.2911   20.9406 C   0  0  0  0  0  0
  -28.6675  -23.7763   19.8061 C   0  0  0  0  0  0
  -28.8114  -22.9763   21.0307 C   0  0  0  0  0  0
  -28.4325  -25.1134   19.4404 C   0  0  0  0  0  0
  -28.9040  -22.4710   18.9865 C   0  0  0  0  0  0
  -28.4453  -25.4651   17.9601 C   0  0  0  0  0  0
  -30.0213  -15.5201   22.7206 C   0  0  0  0  0  0
  -29.0482  -21.7743   20.2821 N   0  0  0  0  0  0
  -30.0327  -15.8211   21.2768 N   0  0  0  0  0  0
  -28.7350  -23.2847   22.2020 O   0  0  0  0  0  0
  -31.4767  -12.6328   19.1738 H   0  0  0  0  0  0
  -30.4066  -11.5125   19.9548 H   0  0  0  0  0  0
  -29.8114  -11.7645   17.5260 H   0  0  0  0  0  0
  -29.6314  -13.4895   17.7285 H   0  0  0  0  0  0
  -27.9092  -11.2878   18.9084 H   0  0  0  0  0  0
  -27.3870  -12.5272   17.7970 H   0  0  0  0  0  0
  -27.6431  -14.2581   19.4794 H   0  0  0  0  0  0
  -28.7244  -12.1416   21.3991 H   0  0  0  0  0  0
  -28.3541  -13.7908   21.8033 H   0  0  0  0  0  0
  -25.2769   -9.5686   22.4742 H   0  0  0  0  0  0
  -24.0005   -7.4642   22.7470 H   0  0  0  0  0  0
  -21.0843   -8.8774   19.8954 H   0  0  0  0  0  0
  -22.3698  -10.9669   19.6155 H   0  0  0  0  0  0
  -21.2020   -7.6151   23.9723 H   0  0  0  0  0  0
  -21.1473   -6.0521   25.9079 H   0  0  0  0  0  0
  -22.0601   -2.7610   23.2849 H   0  0  0  0  0  0
  -22.4104  -11.9885   22.4818 H   0  0  0  0  0  0
  -21.1097  -13.1238   22.2623 H   0  0  0  0  0  0
  -24.6644  -15.8524   20.5429 H   0  0  0  0  0  0
  -26.2894  -15.6328   20.1299 H   0  0  0  0  0  0
  -26.7225  -32.5366   23.1046 H   0  0  0  0  0  0
  -25.0066  -33.9660   25.0362 H   0  0  0  0  0  0
  -22.7320  -31.2957   21.3897 H   0  0  0  0  0  0
  -23.3748  -35.9612   23.3299 H   0  0  0  0  0  0
  -24.3576  -36.8908   22.2057 H   0  0  0  0  0  0
  -23.7249  -37.6477   23.6675 H   0  0  0  0  0  0
  -26.1281  -31.5155   20.6108 H   0  0  0  0  0  0
  -26.8565  -30.8005   22.0168 H   0  0  0  0  0  0
  -28.1224  -28.8895   21.2147 H   0  0  0  0  0  0
  -25.9359  -25.8607   19.0516 H   0  0  0  0  0  0
  -23.9696  -27.2906   19.0154 H   0  0  0  0  0  0
  -23.7821  -30.5817   19.3992 H   0  0  0  0  0  0
  -22.7715  -29.2419   19.8482 H   0  0  0  0  0  0
  -25.1303  -36.1893   25.0815 H   0  0  0  0  0  0
  -21.0000  -28.3294   24.1374 H   0  0  0  0  0  0
  -20.5681  -26.2320   23.3618 H   0  0  0  0  0  0
  -21.6651  -26.7433   22.1203 H   0  0  0  0  0  0
  -19.6918  -25.6290   21.1250 H   0  0  0  0  0  0
  -19.6697  -27.3185   20.6738 H   0  0  0  0  0  0
  -17.4208  -26.6675   21.4029 H   0  0  0  0  0  0
  -18.0340  -26.0077   22.9027 H   0  0  0  0  0  0
  -19.7947  -30.7285   24.2246 H   0  0  0  0  0  0
  -17.5023  -31.6267   24.5168 H   0  0  0  0  0  0
  -15.5361  -30.2982   23.7663 H   0  0  0  0  0  0
  -15.8686  -28.0820   22.7070 H   0  0  0  0  0  0
  -24.5891  -30.7099   25.7764 H   0  0  0  0  0  0
  -24.8922  -32.2922   26.4840 H   0  0  0  0  0  0
  -25.8027  -30.8930   27.0224 H   0  0  0  0  0  0
  -26.2965  -29.6718   24.1250 H   0  0  0  0  0  0
  -27.4010  -29.7264   25.4786 H   0  0  0  0  0  0
  -27.8857  -30.4243   23.9522 H   0  0  0  0  0  0
  -27.2638  -33.3635   26.2055 H   0  0  0  0  0  0
  -28.3868  -32.6892   25.0338 H   0  0  0  0  0  0
  -28.0707  -31.8477   26.5435 H   0  0  0  0  0  0
  -28.2591  -38.0094   24.7505 H   0  0  0  0  0  0
  -28.1078  -36.2623   24.6295 H   0  0  0  0  0  0
  -27.2295  -37.1448   25.8867 H   0  0  0  0  0  0
  -20.9422  -29.8764   21.6832 H   0  0  0  0  0  0
  -26.0161  -38.2830   24.1406 H   0  0  0  0  0  0
  -29.1967  -20.2875   22.6026 H   0  0  0  0  0  0
  -29.5265  -19.6512   18.4045 H   0  0  0  0  0  0
  -29.5774  -17.9782   23.0014 H   0  0  0  0  0  0
  -29.9359  -17.2727   18.7769 H   0  0  0  0  0  0
  -29.8184  -22.4137   18.3933 H   0  0  0  0  0  0
  -28.0601  -22.0841   18.4132 H   0  0  0  0  0  0
  -29.3121  -25.0181   17.4729 H   0  0  0  0  0  0
  -28.5020  -26.5420   17.7981 H   0  0  0  0  0  0
  -27.5501  -25.0880   17.4657 H   0  0  0  0  0  0
  -30.7864  -16.1031   23.2354 H   0  0  0  0  0  0
  -30.2277  -14.4775   22.9731 H   0  0  0  0  0  0
  -29.0493  -15.7591   23.1535 H   0  0  0  0  0  0
  1 25  1  0  0  0
  1 30  2  0  0  0
  1 84  1  0  0  0
  2  3  1  0  0  0
  2 25  1  0  0  0
  2 86  1  0  0  0
  2 87  1  0  0  0
  3  4  1  0  0  0
  3 88  1  0  0  0
  3 89  1  0  0  0
  4  5  1  0  0  0
  4 90  1  0  0  0
  4 91  1  0  0  0
  5  6  1  0  0  0
  5 26  1  0  0  0
  5 92  1  0  0  0
  6 25  1  0  0  0
  6 93  1  0  0  0
  6 94  1  0  0  0
  7  8  2  0  0  0
  7 26  1  0  0  0
  7 29  1  0  0  0
  8  9  1  0  0  0
  8 22  1  0  0  0
  9 10  1  0  0  0
  9 27  2  0  0  0
 10 11  2  0  0  0
 10 15  1  0  0  0
 11 12  1  0  0  0
 11 95  1  0  0  0
 12 13  2  0  0  0
 12 96  1  0  0  0
 13 14  1  0  0  0
 13 31  1  0  0  0
 14 15  2  0  0  0
 14 97  1  0  0  0
 15 98  1  0  0  0
 16 17  2  0  0  0
 16 21  1  0  0  0
 16 31  1  0  0  0
 17 18  1  0  0  0
 17 99  1  0  0  0
 18 19  2  0  0  0
 18100  1  0  0  0
 19 20  1  0  0  0
 19 24  1  0  0  0
 20 21  2  0  0  0
 20101  1  0  0  0
 21 23  1  0  0  0
 22 28  1  0  0  0
 22 32  2  0  0  0
 26 27  1  0  0  0
 28102  1  0  0  0
 28103  1  0  0  0
 29104  1  0  0  0
 29105  1  0  0  0
 33 34  1  0  0  0
 33 66  1  0  0  0
 33 70  2  0  0  0
 34 36  1  0  0  0
 34 59  1  0  0  0
 34106  1  0  0  0
 35 44  2  0  0  0
 35 45  1  0  0  0
 35 68  1  0  0  0
 36 56  1  0  0  0
 36107  1  0  0  0
 37 39  1  0  0  0
 37 47  1  0  0  0
 37 66  1  0  0  0
 37108  1  0  0  0
 38 43  2  0  0  0
 38 46  1  0  0  0
 38 47  1  0  0  0
 39 64  1  0  0  0
 39 67  2  0  0  0
 40 52  1  0  0  0
 40 53  2  0  0  0
 40 58  1  0  0  0
 41109  1  0  0  0
 41110  1  0  0  0
 41111  1  0  0  0
 41 48  1  0  0  0
 42 43  1  0  0  0
 42 66  1  0  0  0
 42112  1  0  0  0
 42113  1  0  0  0
 43 44  1  0  0  0
 44114  1  0  0  0
 45 46  2  0  0  0
 45115  1  0  0  0
 46116  1  0  0  0
 47117  1  0  0  0
 47118  1  0  0  0
 48 56  1  0  0  0
 48 65  1  0  0  0
 48119  1  0  0  0
 49 50  1  0  0  0
 49 53  1  0  0  0
 49 64  1  0  0  0
 49120  1  0  0  0
 50 51  1  0  0  0
 50121  1  0  0  0
 50122  1  0  0  0
 51 52  1  0  0  0
 51123  1  0  0  0
 51124  1  0  0  0
 52125  1  0  0  0
 52126  1  0  0  0
 53 54  1  0  0  0
 54 55  2  0  0  0
 54127  1  0  0  0
 55 57  1  0  0  0
 55128  1  0  0  0
 56 69  2  0  0  0
 57 58  2  0  0  0
 57129  1  0  0  0
 58130  1  0  0  0
 59 60  1  0  0  0
 59 61  1  0  0  0
 59 62  1  0  0  0
 60131  1  0  0  0
 60132  1  0  0  0
 60133  1  0  0  0
 61134  1  0  0  0
 61135  1  0  0  0
 61136  1  0  0  0
 62137  1  0  0  0
 62138  1  0  0  0
 62139  1  0  0  0
 63 65  1  0  0  0
 63140  1  0  0  0
 63141  1  0  0  0
 63142  1  0  0  0
 64143  1  0  0  0
 65144  1  0  0  0
 68 79  1  0  0  0
 71 73  2  0  0  0
 71 75  1  0  0  0
 71145  1  0  0  0
 72 74  1  0  0  0
 72 75  2  0  0  0
 72146  1  0  0  0
 73 76  1  0  0  0
 73147  1  0  0  0
 74 76  2  0  0  0
 74148  1  0  0  0
 75 83  1  0  0  0
 76 84  1  0  0  0
 77 78  1  0  0  0
 77 79  2  0  0  0
 77 80  1  0  0  0
 78 83  1  0  0  0
 78 85  2  0  0  0
 79 81  1  0  0  0
 80 83  1  0  0  0
 80149  1  0  0  0
 80150  1  0  0  0
 81151  1  0  0  0
 81152  1  0  0  0
 81153  1  0  0  0
 82 84  1  0  0  0
 82154  1  0  0  0
 82155  1  0  0  0
 82156  1  0  0  0
M  ISO  4   1 100  68 101  79 101  84 100
M  END
> <chiral flag>
0

> <version>
0

> <s_m_source_file>
/data/baiqing/PycharmProjects/Reinvent-master-3.2/result/LINK_invent/BTK/process_docking_weight1_custom_product_contain_oxygen_bond_distance_aromatic_linkinvent_7_9_3/rearranged_h_0080.sdf

> <i_m_source_file_index>
29

> <r_mmod_Potential_Energy-OPLS-2005>
464.157012939453

> <r_mmod_Stretch_Energy-OPLS-2005>
143.582107543945

> <r_mmod_Bend_Energy-OPLS-2005>
276.478149414062

> <r_mmod_Torsional_Energy-OPLS-2005>
279.938446044922

> <r_mmod_Improper_Torsional_Energy-OPLS-2005>
3.37075281143188

> <r_mmod_Van_der_Waal_Energy-OPLS-2005>
146.090240478516

> <r_mmod_Electrostatic_Energy-OPLS-2005>
-281.204742431641

> <r_mmod_Solvation_Energy-OPLS-2005>
-206.74739074707

> <b_mmod_Minimization_Converged-OPLS-2005>
0

> <r_mmod_RMS_Derivative-OPLS-2005>
0.684920907020569

$$$$
29
                    3D
 Structure written by MMmdl.
158166  0  0  1  0            999 V2000
  -30.6763  -14.4808   20.5650 C   0  0  0  0  0  0
  -30.4326  -12.3095   19.4201 C   0  0  0  0  0  0
  -29.4980  -12.5057   18.2070 C   0  0  0  0  0  0
  -28.0190  -12.3580   18.6189 C   0  0  0  0  0  0
  -27.6634  -13.1957   19.8755 C   0  0  2  0  0  0
  -28.7054  -12.9666   20.9946 C   0  0  0  0  0  0
  -25.2591  -13.8117   20.5676 C   0  0  0  0  0  0
  -24.1836  -13.0413   20.9177 C   0  0  0  0  0  0
  -24.6383  -11.6880   20.8735 C   0  0  0  0  0  0
  -23.9047  -10.4279   21.0409 C   0  0  0  0  0  0
  -24.3604   -9.4196   21.9185 C   0  0  0  0  0  0
  -23.6282   -8.2232   22.0754 C   0  0  0  0  0  0
  -22.4264   -8.0275   21.3546 C   0  0  0  0  0  0
  -21.9895   -9.0249   20.4649 C   0  0  0  0  0  0
  -22.7222  -10.2127   20.3057 C   0  0  0  0  0  0
  -21.6848   -6.0731   22.5281 C   0  0  0  0  0  0
  -21.4011   -6.5635   23.8214 C   0  0  0  0  0  0
  -21.3659   -5.6789   24.9176 C   0  0  0  0  0  0
  -21.6044   -4.3053   24.7227 C   0  0  0  0  0  0
  -21.8819   -3.8146   23.4348 C   0  0  0  0  0  0
  -21.9191   -4.6961   22.3404 C   0  0  0  0  0  0
  -22.7864  -13.5230   21.1845 C   0  0  0  0  0  0
  -22.1661   -4.2147   21.0982 F   0  0  0  0  0  0
  -21.5630   -3.4538   25.7740 F   0  0  0  0  0  0
  -30.0390  -13.2834   20.4494 N   0  0  0  0  0  0
  -26.3026  -12.9274   20.3360 N   0  0  0  0  0  0
  -25.9305  -11.6446   20.5761 N   0  0  0  0  0  0
  -22.0496  -12.8235   22.0405 N   0  0  0  0  0  0
  -25.4287  -15.1834   20.4093 N   0  0  0  0  0  0
  -31.7990  -14.6969   20.0980 O   0  0  0  0  0  0
  -21.6632   -6.8871   21.4243 O   0  0  0  0  0  0
  -22.3557  -14.5540   20.6694 O   0  0  0  0  0  0
  -24.6146  -31.8673   23.2091 C   0  0  0  0  0  0
  -25.9039  -32.4817   23.8389 C   0  0  1  0  0  0
  -27.2440  -27.4337   20.0803 C   0  0  0  0  0  0
  -25.5894  -33.8615   24.2324 N   0  0  0  0  0  0
  -23.4025  -30.4903   21.5498 C   0  0  2  0  0  0
  -24.8482  -28.9535   20.1148 C   0  0  0  0  0  0
  -22.7408  -29.4655   22.4989 C   0  0  0  0  0  0
  -18.0270  -28.1381   22.8489 C   0  0  0  0  0  0
  -24.1487  -36.7317   23.2636 C   0  0  0  0  0  0
  -25.9312  -30.8301   21.3628 C   0  0  0  0  0  0
  -26.0071  -29.4636   20.7103 C   0  0  0  0  0  0
  -27.2014  -28.7080   20.6948 C   0  0  0  0  0  0
  -26.0560  -26.9287   19.4998 C   0  0  0  0  0  0
  -24.8670  -27.6838   19.5125 C   0  0  0  0  0  0
  -23.6105  -29.8209   20.1646 C   0  0  0  0  0  0
  -25.4105  -36.3109   24.0338 C   0  0  1  0  0  0
  -20.5859  -28.3664   23.1317 C   0  0  2  0  0  0
  -20.6756  -26.9398   22.5421 C   0  0  0  0  0  0
  -19.5738  -26.6383   21.5210 C   0  0  0  0  0  0
  -18.1916  -26.7928   22.1619 C   0  0  0  0  0  0
  -19.1520  -28.8840   23.2901 C   0  0  0  0  0  0
  -18.9450  -30.1446   23.8914 C   0  0  0  0  0  0
  -17.6453  -30.6586   24.0567 C   0  0  0  0  0  0
  -25.9031  -34.9473   23.5130 C   0  0  0  0  0  0
  -16.5343  -29.9090   23.6323 C   0  0  0  0  0  0
  -16.7260  -28.6507   23.0344 C   0  0  0  0  0  0
  -26.4469  -31.6600   25.0722 C   0  0  0  0  0  0
  -25.3743  -31.3715   26.1483 C   0  0  0  0  0  0
  -27.0288  -30.3039   24.6098 C   0  0  0  0  0  0
  -27.6059  -32.4312   25.7470 C   0  0  0  0  0  0
  -27.5584  -37.1806   24.8459 C   0  0  0  0  0  0
  -21.4136  -29.3033   22.3728 N   0  0  0  0  0  0
  -26.4293  -37.3793   23.9409 N   0  0  0  0  0  0
  -24.6677  -31.0770   22.0992 N   0  0  0  0  0  0
  -23.4181  -28.8194   23.3028 O   0  0  0  0  0  0
  -28.4434  -26.7445   20.1015 O   0  0  0  0  0  0
  -26.5594  -34.8925   22.4692 O   0  0  0  0  0  0
  -23.5339  -32.1431   23.7484 O   0  0  0  0  0  0
  -28.5666  -18.5348   19.5228 C   0  0  0  0  0  0
  -30.6978  -19.1045   20.5405 C   0  0  0  0  0  0
  -28.7065  -17.2055   19.9694 C   0  0  0  0  0  0
  -30.8501  -17.7628   20.9719 C   0  0  0  0  0  0
  -29.5551  -19.5032   19.8036 C   0  0  0  0  0  0
  -29.8563  -16.7992   20.6780 C   0  0  0  0  0  0
  -29.4181  -20.8898   19.2215 C   0  0  0  0  0  0
  -31.3860  -23.7322   19.8749 C   0  0  0  0  0  0
  -28.9031  -24.3141   20.0621 C   0  0  0  0  0  0
  -32.0419  -24.8440   19.0644 C   0  0  0  0  0  0
  -28.6679  -25.6075   19.2478 C   0  0  0  0  0  0
  -29.9504  -23.3123   19.5076 C   0  0  2  0  0  0
  -29.9361  -15.4517   21.1328 N   0  0  0  0  0  0
  -29.7370  -21.9332   19.9975 N   0  0  0  0  0  0
  -29.0064  -21.0315   18.0685 O   0  0  0  0  0  0
  -32.0331  -23.1940   20.7808 O   0  0  0  0  0  0
  -28.2538  -24.1064   21.0952 O   0  0  0  0  0  0
  -31.4753  -12.4229   19.1176 H   0  0  0  0  0  0
  -30.3453  -11.2955   19.8129 H   0  0  0  0  0  0
  -29.7414  -11.7852   17.4248 H   0  0  0  0  0  0
  -29.6609  -13.4935   17.7730 H   0  0  0  0  0  0
  -27.8339  -11.3011   18.8155 H   0  0  0  0  0  0
  -27.3675  -12.6301   17.7878 H   0  0  0  0  0  0
  -27.7089  -14.2413   19.5767 H   0  0  0  0  0  0
  -28.6846  -11.9254   21.3200 H   0  0  0  0  0  0
  -28.4603  -13.5476   21.8844 H   0  0  0  0  0  0
  -25.2752   -9.5674   22.4755 H   0  0  0  0  0  0
  -23.9997   -7.4621   22.7466 H   0  0  0  0  0  0
  -21.0830   -8.8769   19.8953 H   0  0  0  0  0  0
  -22.3686  -10.9668   19.6168 H   0  0  0  0  0  0
  -21.1999   -7.6141   23.9716 H   0  0  0  0  0  0
  -21.1482   -6.0521   25.9080 H   0  0  0  0  0  0
  -22.0598   -2.7608   23.2852 H   0  0  0  0  0  0
  -22.4101  -11.9897   22.4802 H   0  0  0  0  0  0
  -21.1119  -13.1283   22.2606 H   0  0  0  0  0  0
  -24.6603  -15.8365   20.5174 H   0  0  0  0  0  0
  -26.2774  -15.6243   20.0849 H   0  0  0  0  0  0
  -26.7111  -32.5523   23.1152 H   0  0  0  0  0  0
  -25.0056  -33.9775   25.0478 H   0  0  0  0  0  0
  -22.6913  -31.3070   21.4097 H   0  0  0  0  0  0
  -23.3746  -35.9654   23.3301 H   0  0  0  0  0  0
  -24.3587  -36.8930   22.2050 H   0  0  0  0  0  0
  -23.7245  -37.6525   23.6652 H   0  0  0  0  0  0
  -26.0439  -31.5954   20.5935 H   0  0  0  0  0  0
  -26.8191  -30.8838   21.9809 H   0  0  0  0  0  0
  -28.0979  -29.1030   21.1521 H   0  0  0  0  0  0
  -26.0105  -25.9494   19.0492 H   0  0  0  0  0  0
  -23.9708  -27.2782   19.0629 H   0  0  0  0  0  0
  -23.7184  -30.5949   19.4037 H   0  0  0  0  0  0
  -22.7348  -29.2401   19.8698 H   0  0  0  0  0  0
  -25.1277  -36.1977   25.0831 H   0  0  0  0  0  0
  -20.9951  -28.3232   24.1438 H   0  0  0  0  0  0
  -20.5643  -26.2272   23.3607 H   0  0  0  0  0  0
  -21.6630  -26.7431   22.1224 H   0  0  0  0  0  0
  -19.6891  -25.6296   21.1234 H   0  0  0  0  0  0
  -19.6682  -27.3198   20.6744 H   0  0  0  0  0  0
  -17.4186  -26.6685   21.4018 H   0  0  0  0  0  0
  -18.0309  -26.0068   22.9011 H   0  0  0  0  0  0
  -19.7928  -30.7253   24.2294 H   0  0  0  0  0  0
  -17.5011  -31.6267   24.5167 H   0  0  0  0  0  0
  -15.5345  -30.3000   23.7635 H   0  0  0  0  0  0
  -15.8660  -28.0830   22.7053 H   0  0  0  0  0  0
  -24.5905  -30.7067   25.7835 H   0  0  0  0  0  0
  -24.8946  -32.2875   26.4945 H   0  0  0  0  0  0
  -25.8102  -30.8881   27.0236 H   0  0  0  0  0  0
  -26.2823  -29.6805   24.1165 H   0  0  0  0  0  0
  -27.4068  -29.7273   25.4550 H   0  0  0  0  0  0
  -27.8657  -30.4351   23.9235 H   0  0  0  0  0  0
  -27.2694  -33.3602   26.2085 H   0  0  0  0  0  0
  -28.3844  -32.6887   25.0276 H   0  0  0  0  0  0
  -28.0760  -31.8416   26.5352 H   0  0  0  0  0  0
  -28.2603  -38.0102   24.7513 H   0  0  0  0  0  0
  -28.1079  -36.2637   24.6271 H   0  0  0  0  0  0
  -27.2309  -37.1447   25.8864 H   0  0  0  0  0  0
  -20.9292  -29.8776   21.6971 H   0  0  0  0  0  0
  -26.0184  -38.2871   24.1419 H   0  0  0  0  0  0
  -27.6918  -18.8104   18.9496 H   0  0  0  0  0  0
  -31.4801  -19.8206   20.7541 H   0  0  0  0  0  0
  -27.9265  -16.4980   19.7366 H   0  0  0  0  0  0
  -31.7330  -17.4789   21.5282 H   0  0  0  0  0  0
  -31.7093  -24.8155   18.0271 H   0  0  0  0  0  0
  -33.1256  -24.7291   19.0775 H   0  0  0  0  0  0
  -31.7961  -25.8179   19.4864 H   0  0  0  0  0  0
  -27.8812  -25.4395   18.5166 H   0  0  0  0  0  0
  -29.5593  -25.8173   18.6591 H   0  0  0  0  0  0
  -29.8756  -23.3335   18.4196 H   0  0  0  0  0  0
  -29.0737  -15.0844   21.5056 H   0  0  0  0  0  0
  -30.0356  -21.7513   20.9449 H   0  0  0  0  0  0
  1 25  1  0  0  0
  1 30  2  0  0  0
  1 83  1  0  0  0
  2  3  1  0  0  0
  2 25  1  0  0  0
  2 88  1  0  0  0
  2 89  1  0  0  0
  3  4  1  0  0  0
  3 90  1  0  0  0
  3 91  1  0  0  0
  4  5  1  0  0  0
  4 92  1  0  0  0
  4 93  1  0  0  0
  5  6  1  0  0  0
  5 26  1  0  0  0
  5 94  1  0  0  0
  6 25  1  0  0  0
  6 95  1  0  0  0
  6 96  1  0  0  0
  7  8  2  0  0  0
  7 26  1  0  0  0
  7 29  1  0  0  0
  8  9  1  0  0  0
  8 22  1  0  0  0
  9 10  1  0  0  0
  9 27  2  0  0  0
 10 11  2  0  0  0
 10 15  1  0  0  0
 11 12  1  0  0  0
 11 97  1  0  0  0
 12 13  2  0  0  0
 12 98  1  0  0  0
 13 14  1  0  0  0
 13 31  1  0  0  0
 14 15  2  0  0  0
 14 99  1  0  0  0
 15100  1  0  0  0
 16 17  2  0  0  0
 16 21  1  0  0  0
 16 31  1  0  0  0
 17 18  1  0  0  0
 17101  1  0  0  0
 18 19  2  0  0  0
 18102  1  0  0  0
 19 20  1  0  0  0
 19 24  1  0  0  0
 20 21  2  0  0  0
 20103  1  0  0  0
 21 23  1  0  0  0
 22 28  1  0  0  0
 22 32  2  0  0  0
 26 27  1  0  0  0
 28104  1  0  0  0
 28105  1  0  0  0
 29106  1  0  0  0
 29107  1  0  0  0
 33 34  1  0  0  0
 33 66  1  0  0  0
 33 70  2  0  0  0
 34 36  1  0  0  0
 34 59  1  0  0  0
 34108  1  0  0  0
 35 44  2  0  0  0
 35 45  1  0  0  0
 35 68  1  0  0  0
 36 56  1  0  0  0
 36109  1  0  0  0
 37 39  1  0  0  0
 37 47  1  0  0  0
 37 66  1  0  0  0
 37110  1  0  0  0
 38 43  2  0  0  0
 38 46  1  0  0  0
 38 47  1  0  0  0
 39 64  1  0  0  0
 39 67  2  0  0  0
 40 52  1  0  0  0
 40 53  2  0  0  0
 40 58  1  0  0  0
 41111  1  0  0  0
 41112  1  0  0  0
 41113  1  0  0  0
 41 48  1  0  0  0
 42 43  1  0  0  0
 42 66  1  0  0  0
 42114  1  0  0  0
 42115  1  0  0  0
 43 44  1  0  0  0
 44116  1  0  0  0
 45 46  2  0  0  0
 45117  1  0  0  0
 46118  1  0  0  0
 47119  1  0  0  0
 47120  1  0  0  0
 48 56  1  0  0  0
 48 65  1  0  0  0
 48121  1  0  0  0
 49 50  1  0  0  0
 49 53  1  0  0  0
 49 64  1  0  0  0
 49122  1  0  0  0
 50 51  1  0  0  0
 50123  1  0  0  0
 50124  1  0  0  0
 51 52  1  0  0  0
 51125  1  0  0  0
 51126  1  0  0  0
 52127  1  0  0  0
 52128  1  0  0  0
 53 54  1  0  0  0
 54 55  2  0  0  0
 54129  1  0  0  0
 55 57  1  0  0  0
 55130  1  0  0  0
 56 69  2  0  0  0
 57 58  2  0  0  0
 57131  1  0  0  0
 58132  1  0  0  0
 59 60  1  0  0  0
 59 61  1  0  0  0
 59 62  1  0  0  0
 60133  1  0  0  0
 60134  1  0  0  0
 60135  1  0  0  0
 61136  1  0  0  0
 61137  1  0  0  0
 61138  1  0  0  0
 62139  1  0  0  0
 62140  1  0  0  0
 62141  1  0  0  0
 63 65  1  0  0  0
 63142  1  0  0  0
 63143  1  0  0  0
 63144  1  0  0  0
 64145  1  0  0  0
 65146  1  0  0  0
 68 81  1  0  0  0
 71 73  2  0  0  0
 71 75  1  0  0  0
 71147  1  0  0  0
 72 74  1  0  0  0
 72 75  2  0  0  0
 72148  1  0  0  0
 73 76  1  0  0  0
 73149  1  0  0  0
 74 76  2  0  0  0
 74150  1  0  0  0
 75 77  1  0  0  0
 76 83  1  0  0  0
 77 84  1  0  0  0
 77 85  2  0  0  0
 78 80  1  0  0  0
 78 82  1  0  0  0
 78 86  2  0  0  0
 79 81  1  0  0  0
 79 82  1  0  0  0
 79 87  2  0  0  0
 80151  1  0  0  0
 80152  1  0  0  0
 80153  1  0  0  0
 81154  1  0  0  0
 81155  1  0  0  0
 82 84  1  0  0  0
 82156  1  0  0  0
 83157  1  0  0  0
 84158  1  0  0  0
M  ISO  4   1 100  68 101  81 101  83 100
M  END
> <chiral flag>
0

> <version>
0

> <s_m_source_file>
/data/baiqing/PycharmProjects/Reinvent-master-3.2/result/LINK_invent/BTK/process_docking_weight1_custom_product_contain_oxygen_bond_distance_aromatic_linkinvent_7_9_3/rearranged_h_0080.sdf

> <i_m_source_file_index>
30

> <r_mmod_Potential_Energy-OPLS-2005>
-237.485595703125

> <r_mmod_Stretch_Energy-OPLS-2005>
39.0971870422363

> <r_mmod_Bend_Energy-OPLS-2005>
102.967590332031

> <r_mmod_Torsional_Energy-OPLS-2005>
222.052734375

> <r_mmod_Improper_Torsional_Energy-OPLS-2005>
6.49487638473511

> <r_mmod_Van_der_Waal_Energy-OPLS-2005>
148.787139892578

> <r_mmod_Electrostatic_Energy-OPLS-2005>
-509.127410888672

> <r_mmod_Solvation_Energy-OPLS-2005>
-261.023834228516

> <b_mmod_Minimization_Converged-OPLS-2005>
0

> <r_mmod_RMS_Derivative-OPLS-2005>
0.603683292865753

$$$$
30
                    3D
 Structure written by MMmdl.
156164  0  0  1  0            999 V2000
  -30.7227  -14.5908   20.3981 C   0  0  0  0  0  0
  -30.4031  -12.3403   19.4779 C   0  0  0  0  0  0
  -29.5039  -12.4642   18.2331 C   0  0  0  0  0  0
  -28.0205  -12.3519   18.6331 C   0  0  0  0  0  0
  -27.6465  -13.2419   19.8494 C   0  0  2  0  0  0
  -28.6939  -13.1677   20.9837 C   0  0  0  0  0  0
  -25.2524  -13.8236   20.5700 C   0  0  0  0  0  0
  -24.1820  -13.0457   20.9178 C   0  0  0  0  0  0
  -24.6435  -11.6944   20.8759 C   0  0  0  0  0  0
  -23.9094  -10.4305   21.0413 C   0  0  0  0  0  0
  -24.3640   -9.4204   21.9189 C   0  0  0  0  0  0
  -23.6299   -8.2244   22.0778 C   0  0  0  0  0  0
  -22.4280   -8.0291   21.3552 C   0  0  0  0  0  0
  -21.9904   -9.0273   20.4659 C   0  0  0  0  0  0
  -22.7256  -10.2143   20.3059 C   0  0  0  0  0  0
  -21.6853   -6.0728   22.5260 C   0  0  0  0  0  0
  -21.4025   -6.5641   23.8188 C   0  0  0  0  0  0
  -21.3662   -5.6797   24.9152 C   0  0  0  0  0  0
  -21.6042   -4.3056   24.7207 C   0  0  0  0  0  0
  -21.8816   -3.8138   23.4335 C   0  0  0  0  0  0
  -21.9198   -4.6953   22.3390 C   0  0  0  0  0  0
  -22.7828  -13.5224   21.1823 C   0  0  0  0  0  0
  -22.1658   -4.2146   21.0955 F   0  0  0  0  0  0
  -21.5634   -3.4536   25.7713 F   0  0  0  0  0  0
  -30.0120  -13.4230   20.3999 N   0  0  0  0  0  0
  -26.2972  -12.9481   20.3288 N   0  0  0  0  0  0
  -25.9365  -11.6610   20.5769 N   0  0  0  0  0  0
  -22.0469  -12.8225   22.0400 N   0  0  0  0  0  0
  -25.4190  -15.1950   20.4136 N   0  0  0  0  0  0
  -31.9351  -14.5714   20.1752 O   0  0  0  0  0  0
  -21.6647   -6.8883   21.4230 O   0  0  0  0  0  0
  -22.3496  -14.5510   20.6640 O   0  0  0  0  0  0
  -24.6237  -31.8641   23.2076 C   0  0  0  0  0  0
  -25.9103  -32.4808   23.8418 C   0  0  1  0  0  0
  -27.2283  -27.3725   20.1159 C   0  0  0  0  0  0
  -25.5957  -33.8613   24.2345 N   0  0  0  0  0  0
  -23.4205  -30.4856   21.5458 C   0  0  2  0  0  0
  -24.8721  -28.9580   20.1044 C   0  0  0  0  0  0
  -22.7473  -29.4631   22.4920 C   0  0  0  0  0  0
  -18.0276  -28.1420   22.8481 C   0  0  0  0  0  0
  -24.1459  -36.7278   23.2634 C   0  0  0  0  0  0
  -25.9567  -30.8111   21.3753 C   0  0  0  0  0  0
  -26.0356  -29.4452   20.7156 C   0  0  0  0  0  0
  -27.2205  -28.6604   20.7196 C   0  0  0  0  0  0
  -26.0532  -26.9309   19.4694 C   0  0  0  0  0  0
  -24.8801  -27.7064   19.4669 C   0  0  0  0  0  0
  -23.6394  -29.8308   20.1566 C   0  0  0  0  0  0
  -25.4095  -36.3101   24.0333 C   0  0  1  0  0  0
  -20.5882  -28.3727   23.1283 C   0  0  2  0  0  0
  -20.6770  -26.9462   22.5394 C   0  0  0  0  0  0
  -19.5750  -26.6426   21.5188 C   0  0  0  0  0  0
  -18.1934  -26.7966   22.1609 C   0  0  0  0  0  0
  -19.1530  -28.8885   23.2888 C   0  0  0  0  0  0
  -18.9456  -30.1481   23.8910 C   0  0  0  0  0  0
  -17.6455  -30.6615   24.0571 C   0  0  0  0  0  0
  -25.9037  -34.9464   23.5123 C   0  0  0  0  0  0
  -16.5344  -29.9123   23.6338 C   0  0  0  0  0  0
  -16.7261  -28.6548   23.0345 C   0  0  0  0  0  0
  -26.4548  -31.6605   25.0763 C   0  0  0  0  0  0
  -25.3806  -31.3711   26.1506 C   0  0  0  0  0  0
  -27.0389  -30.3040   24.6179 C   0  0  0  0  0  0
  -27.6127  -32.4319   25.7519 C   0  0  0  0  0  0
  -27.5560  -37.1802   24.8489 C   0  0  0  0  0  0
  -21.4180  -29.3075   22.3665 N   0  0  0  0  0  0
  -26.4275  -37.3791   23.9416 N   0  0  0  0  0  0
  -24.6855  -31.0685   22.1005 N   0  0  0  0  0  0
  -23.4200  -28.8167   23.2994 O   0  0  0  0  0  0
  -28.2932  -26.4822   20.2143 O   0  0  0  0  0  0
  -26.5559  -34.8927   22.4662 O   0  0  0  0  0  0
  -23.5392  -32.1420   23.7395 O   0  0  0  0  0  0
  -30.2414  -18.8878   21.1182 C   0  0  0  0  0  0
  -30.2425  -20.3044   21.2566 C   0  0  0  0  0  0
  -29.7223  -19.1408   18.7707 C   0  0  0  0  0  0
  -30.0258  -18.2780   19.8585 C   0  0  0  0  0  0
  -30.0158  -21.1638   20.1491 C   0  0  0  0  0  0
  -29.7401  -20.5524   18.9009 C   0  0  0  0  0  0
  -27.9542  -25.2683   20.8245 C   0  0  0  0  0  0
  -30.4174  -16.8292   19.5725 C   0  0  0  0  0  0
  -28.5232  -24.0235   20.7618 C   0  0  0  0  0  0
  -29.7529  -23.7350   19.9998 C   0  0  0  0  0  0
  -27.8534  -22.8870   21.5281 C   0  0  0  0  0  0
  -29.6039  -21.3429   17.7615 N   0  0  0  0  0  0
  -30.4059  -22.5561   20.2113 N   0  0  0  0  0  0
  -30.0415  -15.7771   20.3629 N   0  0  0  0  0  0
  -31.0858  -16.6656   18.5419 O   0  0  0  0  0  0
  -30.2558  -24.5351   19.2096 O   0  0  0  0  0  0
  -31.4549  -12.3817   19.1856 H   0  0  0  0  0  0
  -30.2704  -11.3708   19.9625 H   0  0  0  0  0  0
  -29.7576  -11.6837   17.5141 H   0  0  0  0  0  0
  -29.6818  -13.4183   17.7334 H   0  0  0  0  0  0
  -27.8263  -11.3059   18.8721 H   0  0  0  0  0  0
  -27.3866  -12.5959   17.7796 H   0  0  0  0  0  0
  -27.6508  -14.2687   19.4823 H   0  0  0  0  0  0
  -28.6844  -12.1928   21.4730 H   0  0  0  0  0  0
  -28.4672  -13.9078   21.7543 H   0  0  0  0  0  0
  -25.2789   -9.5674   22.4771 H   0  0  0  0  0  0
  -24.0000   -7.4637   22.7510 H   0  0  0  0  0  0
  -21.0832   -8.8801   19.8980 H   0  0  0  0  0  0
  -22.3724  -10.9688   19.6177 H   0  0  0  0  0  0
  -21.2034   -7.6148   23.9685 H   0  0  0  0  0  0
  -21.1488   -6.0527   25.9055 H   0  0  0  0  0  0
  -22.0608   -2.7603   23.2815 H   0  0  0  0  0  0
  -22.4098  -11.9896   22.4789 H   0  0  0  0  0  0
  -21.1100  -13.1291   22.2644 H   0  0  0  0  0  0
  -24.6506  -15.8469   20.5249 H   0  0  0  0  0  0
  -26.2626  -15.6327   20.0670 H   0  0  0  0  0  0
  -26.7183  -32.5508   23.1186 H   0  0  0  0  0  0
  -25.0259  -33.9808   25.0600 H   0  0  0  0  0  0
  -22.7128  -31.3049   21.4003 H   0  0  0  0  0  0
  -23.3729  -35.9609   23.3343 H   0  0  0  0  0  0
  -24.3554  -36.8840   22.2045 H   0  0  0  0  0  0
  -23.7216  -37.6489   23.6620 H   0  0  0  0  0  0
  -26.0770  -31.5741   20.6043 H   0  0  0  0  0  0
  -26.8400  -30.8649   22.0016 H   0  0  0  0  0  0
  -28.1094  -29.0146   21.2228 H   0  0  0  0  0  0
  -26.0357  -25.9555   19.0004 H   0  0  0  0  0  0
  -23.9944  -27.3300   18.9762 H   0  0  0  0  0  0
  -23.7695  -30.6126   19.4077 H   0  0  0  0  0  0
  -22.7618  -29.2632   19.8392 H   0  0  0  0  0  0
  -25.1260  -36.1965   25.0822 H   0  0  0  0  0  0
  -20.9966  -28.3295   24.1404 H   0  0  0  0  0  0
  -20.5680  -26.2332   23.3598 H   0  0  0  0  0  0
  -21.6647  -26.7505   22.1185 H   0  0  0  0  0  0
  -19.6928  -25.6332   21.1249 H   0  0  0  0  0  0
  -19.6698  -27.3210   20.6709 H   0  0  0  0  0  0
  -17.4203  -26.6704   21.4024 H   0  0  0  0  0  0
  -18.0348  -26.0117   22.9018 H   0  0  0  0  0  0
  -19.7916  -30.7290   24.2313 H   0  0  0  0  0  0
  -17.5001  -31.6286   24.5176 H   0  0  0  0  0  0
  -15.5350  -30.3020   23.7656 H   0  0  0  0  0  0
  -15.8662  -28.0860   22.7061 H   0  0  0  0  0  0
  -24.5995  -30.7038   25.7844 H   0  0  0  0  0  0
  -24.8989  -32.2842   26.4968 H   0  0  0  0  0  0
  -25.8171  -30.8881   27.0250 H   0  0  0  0  0  0
  -26.2952  -29.6784   24.1222 H   0  0  0  0  0  0
  -27.4124  -29.7305   25.4670 H   0  0  0  0  0  0
  -27.8800  -30.4348   23.9377 H   0  0  0  0  0  0
  -27.2790  -33.3618   26.2132 H   0  0  0  0  0  0
  -28.3935  -32.6877   25.0344 H   0  0  0  0  0  0
  -28.0820  -31.8429   26.5408 H   0  0  0  0  0  0
  -28.2619  -38.0050   24.7460 H   0  0  0  0  0  0
  -28.0995  -36.2578   24.6385 H   0  0  0  0  0  0
  -27.2273  -37.1543   25.8892 H   0  0  0  0  0  0
  -20.9365  -29.8803   21.6876 H   0  0  0  0  0  0
  -26.0152  -38.2856   24.1424 H   0  0  0  0  0  0
  -30.5334  -18.2793   21.9632 H   0  0  0  0  0  0
  -30.5227  -20.7274   22.2106 H   0  0  0  0  0  0
  -29.5950  -18.7090   17.7872 H   0  0  0  0  0  0
  -27.0705  -25.3932   21.4409 H   0  0  0  0  0  0
  -26.9856  -23.2191   22.0969 H   0  0  0  0  0  0
  -28.5427  -22.4308   22.2399 H   0  0  0  0  0  0
  -27.5108  -22.1190   20.8344 H   0  0  0  0  0  0
  -29.9633  -22.2887   17.8348 H   0  0  0  0  0  0
  -29.8228  -20.9265   16.8622 H   0  0  0  0  0  0
  -31.3570  -22.6577   19.8901 H   0  0  0  0  0  0
  -29.1832  -15.8695   20.8811 H   0  0  0  0  0  0
  1 25  1  0  0  0
  1 30  2  0  0  0
  1 84  1  0  0  0
  2  3  1  0  0  0
  2 25  1  0  0  0
  2 87  1  0  0  0
  2 88  1  0  0  0
  3  4  1  0  0  0
  3 89  1  0  0  0
  3 90  1  0  0  0
  4  5  1  0  0  0
  4 91  1  0  0  0
  4 92  1  0  0  0
  5  6  1  0  0  0
  5 26  1  0  0  0
  5 93  1  0  0  0
  6 25  1  0  0  0
  6 94  1  0  0  0
  6 95  1  0  0  0
  7  8  2  0  0  0
  7 26  1  0  0  0
  7 29  1  0  0  0
  8  9  1  0  0  0
  8 22  1  0  0  0
  9 10  1  0  0  0
  9 27  2  0  0  0
 10 11  2  0  0  0
 10 15  1  0  0  0
 11 12  1  0  0  0
 11 96  1  0  0  0
 12 13  2  0  0  0
 12 97  1  0  0  0
 13 14  1  0  0  0
 13 31  1  0  0  0
 14 15  2  0  0  0
 14 98  1  0  0  0
 15 99  1  0  0  0
 16 17  2  0  0  0
 16 21  1  0  0  0
 16 31  1  0  0  0
 17 18  1  0  0  0
 17100  1  0  0  0
 18 19  2  0  0  0
 18101  1  0  0  0
 19 20  1  0  0  0
 19 24  1  0  0  0
 20 21  2  0  0  0
 20102  1  0  0  0
 21 23  1  0  0  0
 22 28  1  0  0  0
 22 32  2  0  0  0
 26 27  1  0  0  0
 28103  1  0  0  0
 28104  1  0  0  0
 29105  1  0  0  0
 29106  1  0  0  0
 33 34  1  0  0  0
 33 66  1  0  0  0
 33 70  2  0  0  0
 34 36  1  0  0  0
 34 59  1  0  0  0
 34107  1  0  0  0
 35 44  2  0  0  0
 35 45  1  0  0  0
 35 68  1  0  0  0
 36 56  1  0  0  0
 36108  1  0  0  0
 37 39  1  0  0  0
 37 47  1  0  0  0
 37 66  1  0  0  0
 37109  1  0  0  0
 38 43  2  0  0  0
 38 46  1  0  0  0
 38 47  1  0  0  0
 39 64  1  0  0  0
 39 67  2  0  0  0
 40 52  1  0  0  0
 40 53  2  0  0  0
 40 58  1  0  0  0
 41110  1  0  0  0
 41111  1  0  0  0
 41112  1  0  0  0
 41 48  1  0  0  0
 42 43  1  0  0  0
 42 66  1  0  0  0
 42113  1  0  0  0
 42114  1  0  0  0
 43 44  1  0  0  0
 44115  1  0  0  0
 45 46  2  0  0  0
 45116  1  0  0  0
 46117  1  0  0  0
 47118  1  0  0  0
 47119  1  0  0  0
 48 56  1  0  0  0
 48 65  1  0  0  0
 48120  1  0  0  0
 49 50  1  0  0  0
 49 53  1  0  0  0
 49 64  1  0  0  0
 49121  1  0  0  0
 50 51  1  0  0  0
 50122  1  0  0  0
 50123  1  0  0  0
 51 52  1  0  0  0
 51124  1  0  0  0
 51125  1  0  0  0
 52126  1  0  0  0
 52127  1  0  0  0
 53 54  1  0  0  0
 54 55  2  0  0  0
 54128  1  0  0  0
 55 57  1  0  0  0
 55129  1  0  0  0
 56 69  2  0  0  0
 57 58  2  0  0  0
 57130  1  0  0  0
 58131  1  0  0  0
 59 60  1  0  0  0
 59 61  1  0  0  0
 59 62  1  0  0  0
 60132  1  0  0  0
 60133  1  0  0  0
 60134  1  0  0  0
 61135  1  0  0  0
 61136  1  0  0  0
 61137  1  0  0  0
 62138  1  0  0  0
 62139  1  0  0  0
 62140  1  0  0  0
 63 65  1  0  0  0
 63141  1  0  0  0
 63142  1  0  0  0
 63143  1  0  0  0
 64144  1  0  0  0
 65145  1  0  0  0
 68 77  1  0  0  0
 71 72  2  0  0  0
 71 74  1  0  0  0
 71146  1  0  0  0
 72 75  1  0  0  0
 72147  1  0  0  0
 73 74  2  0  0  0
 73 76  1  0  0  0
 73148  1  0  0  0
 74 78  1  0  0  0
 75 76  2  0  0  0
 75 83  1  0  0  0
 76 82  1  0  0  0
 77 79  2  0  0  0
 77149  1  0  0  0
 78 84  1  0  0  0
 78 85  2  0  0  0
 79 80  1  0  0  0
 79 81  1  0  0  0
 80 83  1  0  0  0
 80 86  2  0  0  0
 81150  1  0  0  0
 81151  1  0  0  0
 81152  1  0  0  0
 82153  1  0  0  0
 82154  1  0  0  0
 83155  1  0  0  0
 84156  1  0  0  0
M  ISO  4   1 100  68 101  77 101  84 100
M  END
> <chiral flag>
0

> <version>
0

> <s_m_source_file>
/data/baiqing/PycharmProjects/Reinvent-master-3.2/result/LINK_invent/BTK/process_docking_weight1_custom_product_contain_oxygen_bond_distance_aromatic_linkinvent_7_9_3/rearranged_h_0080.sdf

> <i_m_source_file_index>
31

> <r_mmod_Potential_Energy-OPLS-2005>
-10.9672632217407

> <r_mmod_Stretch_Energy-OPLS-2005>
56.8297080993652

> <r_mmod_Bend_Energy-OPLS-2005>
154.773330688477

> <r_mmod_Torsional_Energy-OPLS-2005>
369.888793945312

> <r_mmod_Improper_Torsional_Energy-OPLS-2005>
19.8547439575195

> <r_mmod_Van_der_Waal_Energy-OPLS-2005>
165.073638916016

> <r_mmod_Electrostatic_Energy-OPLS-2005>
-587.019104003906

> <r_mmod_Solvation_Energy-OPLS-2005>
-243.286209106445

> <b_mmod_Minimization_Converged-OPLS-2005>
0

> <r_mmod_RMS_Derivative-OPLS-2005>
3.91631603240967

$$$$
31
                    3D
 Structure written by MMmdl.
160169  0  0  1  0            999 V2000
  -30.7298  -14.4037   20.6423 C   0  0  0  0  0  0
  -30.4210  -12.2897   19.4053 C   0  0  0  0  0  0
  -29.4897  -12.5197   18.1985 C   0  0  0  0  0  0
  -28.0115  -12.3783   18.6110 C   0  0  0  0  0  0
  -27.6664  -13.2002   19.8814 C   0  0  2  0  0  0
  -28.7037  -12.9389   20.9962 C   0  0  0  0  0  0
  -25.2609  -13.8149   20.5671 C   0  0  0  0  0  0
  -24.1846  -13.0437   20.9158 C   0  0  0  0  0  0
  -24.6386  -11.6900   20.8722 C   0  0  0  0  0  0
  -23.9046  -10.4290   21.0401 C   0  0  0  0  0  0
  -24.3605   -9.4211   21.9180 C   0  0  0  0  0  0
  -23.6289   -8.2243   22.0751 C   0  0  0  0  0  0
  -22.4272   -8.0277   21.3540 C   0  0  0  0  0  0
  -21.9900   -9.0248   20.4644 C   0  0  0  0  0  0
  -22.7220  -10.2132   20.3052 C   0  0  0  0  0  0
  -21.6851   -6.0735   22.5278 C   0  0  0  0  0  0
  -21.4011   -6.5637   23.8212 C   0  0  0  0  0  0
  -21.3661   -5.6790   24.9174 C   0  0  0  0  0  0
  -21.6046   -4.3053   24.7224 C   0  0  0  0  0  0
  -21.8819   -3.8143   23.4346 C   0  0  0  0  0  0
  -21.9192   -4.6962   22.3402 C   0  0  0  0  0  0
  -22.7873  -13.5246   21.1831 C   0  0  0  0  0  0
  -22.1662   -4.2148   21.0981 F   0  0  0  0  0  0
  -21.5630   -3.4535   25.7737 F   0  0  0  0  0  0
  -30.0443  -13.2436   20.4596 N   0  0  0  0  0  0
  -26.3042  -12.9305   20.3378 N   0  0  0  0  0  0
  -25.9310  -11.6469   20.5754 N   0  0  0  0  0  0
  -22.0510  -12.8242   22.0390 N   0  0  0  0  0  0
  -25.4354  -15.1867   20.4091 N   0  0  0  0  0  0
  -31.7988  -14.6405   20.0707 O   0  0  0  0  0  0
  -21.6638   -6.8875   21.4240 O   0  0  0  0  0  0
  -22.3565  -14.5558   20.6684 O   0  0  0  0  0  0
  -24.6101  -31.8708   23.2131 C   0  0  0  0  0  0
  -25.9008  -32.4837   23.8418 C   0  0  1  0  0  0
  -27.2405  -27.4684   20.0936 C   0  0  0  0  0  0
  -25.5878  -33.8635   24.2356 N   0  0  0  0  0  0
  -23.3980  -30.4933   21.5518 C   0  0  2  0  0  0
  -24.8487  -28.9606   20.1197 C   0  0  0  0  0  0
  -22.7391  -29.4668   22.5003 C   0  0  0  0  0  0
  -18.0268  -28.1377   22.8497 C   0  0  0  0  0  0
  -24.1485  -36.7326   23.2635 C   0  0  0  0  0  0
  -25.9229  -30.8441   21.3647 C   0  0  0  0  0  0
  -26.0035  -29.4766   20.7231 C   0  0  0  0  0  0
  -27.2030  -28.7327   20.7214 C   0  0  0  0  0  0
  -26.0779  -26.9626   19.4815 C   0  0  0  0  0  0
  -24.8768  -27.6975   19.5019 C   0  0  0  0  0  0
  -23.6079  -29.8235   20.1671 C   0  0  0  0  0  0
  -25.4102  -36.3126   24.0346 C   0  0  1  0  0  0
  -20.5857  -28.3654   23.1331 C   0  0  2  0  0  0
  -20.6759  -26.9393   22.5422 C   0  0  0  0  0  0
  -19.5740  -26.6387   21.5215 C   0  0  0  0  0  0
  -18.1917  -26.7926   22.1626 C   0  0  0  0  0  0
  -19.1517  -28.8832   23.2913 C   0  0  0  0  0  0
  -18.9448  -30.1442   23.8918 C   0  0  0  0  0  0
  -17.6451  -30.6586   24.0570 C   0  0  0  0  0  0
  -25.9022  -34.9485   23.5150 C   0  0  0  0  0  0
  -16.5342  -29.9091   23.6327 C   0  0  0  0  0  0
  -16.7258  -28.6509   23.0345 C   0  0  0  0  0  0
  -26.4456  -31.6597   25.0723 C   0  0  0  0  0  0
  -25.3737  -31.3701   26.1484 C   0  0  0  0  0  0
  -27.0268  -30.3042   24.6061 C   0  0  0  0  0  0
  -27.6052  -32.4295   25.7475 C   0  0  0  0  0  0
  -27.5588  -37.1812   24.8461 C   0  0  0  0  0  0
  -21.4124  -29.3027   22.3743 N   0  0  0  0  0  0
  -26.4295  -37.3803   23.9414 N   0  0  0  0  0  0
  -24.6615  -31.0831   22.1025 N   0  0  0  0  0  0
  -23.4176  -28.8209   23.3033 O   0  0  0  0  0  0
  -28.3827  -26.7147   20.0212 O   0  0  0  0  0  0
  -26.5586  -34.8929   22.4710 O   0  0  0  0  0  0
  -23.5298  -32.1454   23.7535 O   0  0  0  0  0  0
  -29.4678  -18.8947   22.1399 C   0  0  0  0  0  0
  -31.8201  -18.6569   21.6081 C   0  0  0  0  0  0
  -29.2959  -17.5042   21.9829 C   0  0  0  0  0  0
  -31.6502  -17.2680   21.4526 C   0  0  0  0  0  0
  -30.7339  -19.5044   21.9420 C   0  0  0  0  0  0
  -30.3776  -16.6778   21.6171 C   0  0  0  0  0  0
  -32.0828  -22.9457   22.2361 C   0  0  0  0  0  0
  -30.0599  -21.9220   22.2356 C   0  0  0  0  0  0
  -33.0156  -23.9133   22.2642 C   0  0  0  0  0  0
  -29.6438  -25.0365   21.2151 C   0  0  0  0  0  0
  -32.3125  -21.4793   22.0359 C   0  0  0  0  0  0
  -30.0489  -24.3989   22.5512 C   0  0  0  0  0  0
  -29.0049  -26.4316   21.2714 C   0  0  0  0  0  0
  -30.9633  -20.9212   22.0818 N   0  0  0  0  0  0
  -30.7099  -23.0937   22.3644 N   0  0  0  0  0  0
  -30.1281  -15.2847   21.4619 N   0  0  0  0  0  0
  -28.8301  -21.8153   22.2683 O   0  0  0  0  0  0
  -29.8265  -24.4504   20.1411 O   0  0  0  0  0  0
  -31.4648  -12.3904   19.1018 H   0  0  0  0  0  0
  -30.3197  -11.2686   19.7754 H   0  0  0  0  0  0
  -29.7240  -11.8136   17.4008 H   0  0  0  0  0  0
  -29.6608  -13.5150   17.7850 H   0  0  0  0  0  0
  -27.8151  -11.3205   18.7895 H   0  0  0  0  0  0
  -27.3607  -12.6702   17.7859 H   0  0  0  0  0  0
  -27.7250  -14.2542   19.6095 H   0  0  0  0  0  0
  -28.6700  -11.8915   21.3001 H   0  0  0  0  0  0
  -28.4525  -13.4999   21.8967 H   0  0  0  0  0  0
  -25.2756   -9.5692   22.4746 H   0  0  0  0  0  0
  -24.0002   -7.4638   22.7469 H   0  0  0  0  0  0
  -21.0831   -8.8762   19.8954 H   0  0  0  0  0  0
  -22.3677  -10.9666   19.6156 H   0  0  0  0  0  0
  -21.1999   -7.6146   23.9713 H   0  0  0  0  0  0
  -21.1484   -6.0521   25.9078 H   0  0  0  0  0  0
  -22.0596   -2.7607   23.2843 H   0  0  0  0  0  0
  -22.4118  -11.9901   22.4778 H   0  0  0  0  0  0
  -21.1132  -13.1278   22.2593 H   0  0  0  0  0  0
  -24.6707  -15.8446   20.5137 H   0  0  0  0  0  0
  -26.2929  -15.6229   20.0930 H   0  0  0  0  0  0
  -26.7080  -32.5577   23.1193 H   0  0  0  0  0  0
  -25.0022  -33.9801   25.0496 H   0  0  0  0  0  0
  -22.6852  -31.3090   21.4125 H   0  0  0  0  0  0
  -23.3746  -35.9659   23.3298 H   0  0  0  0  0  0
  -24.3589  -36.8935   22.2050 H   0  0  0  0  0  0
  -23.7235  -37.6534   23.6641 H   0  0  0  0  0  0
  -26.0260  -31.6060   20.5905 H   0  0  0  0  0  0
  -26.8144  -30.9056   21.9766 H   0  0  0  0  0  0
  -28.0955  -29.1369   21.1792 H   0  0  0  0  0  0
  -26.1042  -25.9983   18.9934 H   0  0  0  0  0  0
  -23.9900  -27.2956   19.0319 H   0  0  0  0  0  0
  -23.7129  -30.5973   19.4059 H   0  0  0  0  0  0
  -22.7340  -29.2391   19.8732 H   0  0  0  0  0  0
  -25.1275  -36.2000   25.0838 H   0  0  0  0  0  0
  -20.9952  -28.3214   24.1449 H   0  0  0  0  0  0
  -20.5672  -26.2254   23.3601 H   0  0  0  0  0  0
  -21.6629  -26.7445   22.1207 H   0  0  0  0  0  0
  -19.6900  -25.6306   21.1223 H   0  0  0  0  0  0
  -19.6687  -27.3215   20.6760 H   0  0  0  0  0  0
  -17.4191  -26.6679   21.4023 H   0  0  0  0  0  0
  -18.0321  -26.0066   22.9021 H   0  0  0  0  0  0
  -19.7922  -30.7253   24.2293 H   0  0  0  0  0  0
  -17.5007  -31.6268   24.5170 H   0  0  0  0  0  0
  -15.5343  -30.3003   23.7635 H   0  0  0  0  0  0
  -15.8660  -28.0841   22.7036 H   0  0  0  0  0  0
  -24.5883  -30.7081   25.7823 H   0  0  0  0  0  0
  -24.8959  -32.2860   26.4974 H   0  0  0  0  0  0
  -25.8097  -30.8833   27.0216 H   0  0  0  0  0  0
  -26.2798  -29.6822   24.1118 H   0  0  0  0  0  0
  -27.4055  -29.7253   25.4494 H   0  0  0  0  0  0
  -27.8627  -30.4370   23.9189 H   0  0  0  0  0  0
  -27.2697  -33.3588   26.2091 H   0  0  0  0  0  0
  -28.3842  -32.6862   25.0283 H   0  0  0  0  0  0
  -28.0738  -31.8388   26.5355 H   0  0  0  0  0  0
  -28.2598  -38.0118   24.7520 H   0  0  0  0  0  0
  -28.1093  -36.2650   24.6264 H   0  0  0  0  0  0
  -27.2310  -37.1431   25.8865 H   0  0  0  0  0  0
  -20.9275  -29.8754   21.6979 H   0  0  0  0  0  0
  -26.0191  -38.2883   24.1423 H   0  0  0  0  0  0
  -28.5959  -19.4642   22.4200 H   0  0  0  0  0  0
  -32.8149  -19.0489   21.4597 H   0  0  0  0  0  0
  -28.3132  -17.0804   22.1380 H   0  0  0  0  0  0
  -32.5189  -16.6749   21.2090 H   0  0  0  0  0  0
  -34.0605  -23.6667   22.1419 H   0  0  0  0  0  0
  -32.7748  -24.9567   22.4009 H   0  0  0  0  0  0
  -32.9415  -21.0765   22.8313 H   0  0  0  0  0  0
  -32.7864  -21.3072   21.0685 H   0  0  0  0  0  0
  -29.1488  -24.2746   23.1547 H   0  0  0  0  0  0
  -30.6793  -25.0904   23.1083 H   0  0  0  0  0  0
  -29.7710  -27.1770   21.4839 H   0  0  0  0  0  0
  -28.2794  -26.4544   22.0862 H   0  0  0  0  0  0
  -29.2605  -14.9473   21.8502 H   0  0  0  0  0  0
  1 25  1  0  0  0
  1 30  2  0  0  0
  1 86  1  0  0  0
  2  3  1  0  0  0
  2 25  1  0  0  0
  2 89  1  0  0  0
  2 90  1  0  0  0
  3  4  1  0  0  0
  3 91  1  0  0  0
  3 92  1  0  0  0
  4  5  1  0  0  0
  4 93  1  0  0  0
  4 94  1  0  0  0
  5  6  1  0  0  0
  5 26  1  0  0  0
  5 95  1  0  0  0
  6 25  1  0  0  0
  6 96  1  0  0  0
  6 97  1  0  0  0
  7  8  2  0  0  0
  7 26  1  0  0  0
  7 29  1  0  0  0
  8  9  1  0  0  0
  8 22  1  0  0  0
  9 10  1  0  0  0
  9 27  2  0  0  0
 10 11  2  0  0  0
 10 15  1  0  0  0
 11 12  1  0  0  0
 11 98  1  0  0  0
 12 13  2  0  0  0
 12 99  1  0  0  0
 13 14  1  0  0  0
 13 31  1  0  0  0
 14 15  2  0  0  0
 14100  1  0  0  0
 15101  1  0  0  0
 16 17  2  0  0  0
 16 21  1  0  0  0
 16 31  1  0  0  0
 17 18  1  0  0  0
 17102  1  0  0  0
 18 19  2  0  0  0
 18103  1  0  0  0
 19 20  1  0  0  0
 19 24  1  0  0  0
 20 21  2  0  0  0
 20104  1  0  0  0
 21 23  1  0  0  0
 22 28  1  0  0  0
 22 32  2  0  0  0
 26 27  1  0  0  0
 28105  1  0  0  0
 28106  1  0  0  0
 29107  1  0  0  0
 29108  1  0  0  0
 33 34  1  0  0  0
 33 66  1  0  0  0
 33 70  2  0  0  0
 34 36  1  0  0  0
 34 59  1  0  0  0
 34109  1  0  0  0
 35 44  2  0  0  0
 35 45  1  0  0  0
 35 68  1  0  0  0
 36 56  1  0  0  0
 36110  1  0  0  0
 37 39  1  0  0  0
 37 47  1  0  0  0
 37 66  1  0  0  0
 37111  1  0  0  0
 38 43  2  0  0  0
 38 46  1  0  0  0
 38 47  1  0  0  0
 39 64  1  0  0  0
 39 67  2  0  0  0
 40 52  1  0  0  0
 40 53  2  0  0  0
 40 58  1  0  0  0
 41112  1  0  0  0
 41113  1  0  0  0
 41114  1  0  0  0
 41 48  1  0  0  0
 42 43  1  0  0  0
 42 66  1  0  0  0
 42115  1  0  0  0
 42116  1  0  0  0
 43 44  1  0  0  0
 44117  1  0  0  0
 45 46  2  0  0  0
 45118  1  0  0  0
 46119  1  0  0  0
 47120  1  0  0  0
 47121  1  0  0  0
 48 56  1  0  0  0
 48 65  1  0  0  0
 48122  1  0  0  0
 49 50  1  0  0  0
 49 53  1  0  0  0
 49 64  1  0  0  0
 49123  1  0  0  0
 50 51  1  0  0  0
 50124  1  0  0  0
 50125  1  0  0  0
 51 52  1  0  0  0
 51126  1  0  0  0
 51127  1  0  0  0
 52128  1  0  0  0
 52129  1  0  0  0
 53 54  1  0  0  0
 54 55  2  0  0  0
 54130  1  0  0  0
 55 57  1  0  0  0
 55131  1  0  0  0
 56 69  2  0  0  0
 57 58  2  0  0  0
 57132  1  0  0  0
 58133  1  0  0  0
 59 60  1  0  0  0
 59 61  1  0  0  0
 59 62  1  0  0  0
 60134  1  0  0  0
 60135  1  0  0  0
 60136  1  0  0  0
 61137  1  0  0  0
 61138  1  0  0  0
 61139  1  0  0  0
 62140  1  0  0  0
 62141  1  0  0  0
 62142  1  0  0  0
 63 65  1  0  0  0
 63143  1  0  0  0
 63144  1  0  0  0
 63145  1  0  0  0
 64146  1  0  0  0
 65147  1  0  0  0
 68 83  1  0  0  0
 71 73  2  0  0  0
 71 75  1  0  0  0
 71148  1  0  0  0
 72 74  1  0  0  0
 72 75  2  0  0  0
 72149  1  0  0  0
 73 76  1  0  0  0
 73150  1  0  0  0
 74 76  2  0  0  0
 74151  1  0  0  0
 75 84  1  0  0  0
 76 86  1  0  0  0
 77 79  2  0  0  0
 77 81  1  0  0  0
 77 85  1  0  0  0
 78 84  1  0  0  0
 78 85  1  0  0  0
 78 87  2  0  0  0
 79152  1  0  0  0
 79153  1  0  0  0
 80 82  1  0  0  0
 80 83  1  0  0  0
 80 88  2  0  0  0
 81 84  1  0  0  0
 81154  1  0  0  0
 81155  1  0  0  0
 82 85  1  0  0  0
 82156  1  0  0  0
 82157  1  0  0  0
 83158  1  0  0  0
 83159  1  0  0  0
 86160  1  0  0  0
M  ISO  4   1 100  68 101  83 101  86 100
M  END
> <chiral flag>
0

> <version>
0

> <s_m_source_file>
/data/baiqing/PycharmProjects/Reinvent-master-3.2/result/LINK_invent/BTK/process_docking_weight1_custom_product_contain_oxygen_bond_distance_aromatic_linkinvent_7_9_3/rearranged_h_0080.sdf

> <i_m_source_file_index>
32

> <r_mmod_Potential_Energy-OPLS-2005>
-13.8162784576416

> <r_mmod_Stretch_Energy-OPLS-2005>
37.2921600341797

> <r_mmod_Bend_Energy-OPLS-2005>
134.074142456055

> <r_mmod_Torsional_Energy-OPLS-2005>
295.861999511719

> <r_mmod_Improper_Torsional_Energy-OPLS-2005>
2.61849617958069

> <r_mmod_Van_der_Waal_Energy-OPLS-2005>
168.115570068359

> <r_mmod_Electrostatic_Energy-OPLS-2005>
-418.801940917969

> <r_mmod_Solvation_Energy-OPLS-2005>
-239.718978881836

> <b_mmod_Minimization_Converged-OPLS-2005>
0

> <r_mmod_RMS_Derivative-OPLS-2005>
0.760803818702698

$$$$
32
                    3D
 Structure written by MMmdl.
155164  0  0  1  0            999 V2000
  -30.6222  -14.6606   20.5734 C   0  0  0  0  0  0
  -30.4416  -12.4291   19.4528 C   0  0  0  0  0  0
  -29.5081  -12.5374   18.2242 C   0  0  0  0  0  0
  -28.0287  -12.3632   18.6245 C   0  0  0  0  0  0
  -27.6523  -13.2119   19.8656 C   0  0  2  0  0  0
  -28.6890  -13.0096   20.9868 C   0  0  0  0  0  0
  -25.2548  -13.8152   20.5670 C   0  0  0  0  0  0
  -24.1811  -13.0423   20.9168 C   0  0  0  0  0  0
  -24.6384  -11.6895   20.8729 C   0  0  0  0  0  0
  -23.9060  -10.4281   21.0402 C   0  0  0  0  0  0
  -24.3612   -9.4202   21.9184 C   0  0  0  0  0  0
  -23.6295   -8.2236   22.0755 C   0  0  0  0  0  0
  -22.4268   -8.0270   21.3541 C   0  0  0  0  0  0
  -21.9904   -9.0245   20.4647 C   0  0  0  0  0  0
  -22.7233  -10.2126   20.3057 C   0  0  0  0  0  0
  -21.6853   -6.0740   22.5284 C   0  0  0  0  0  0
  -21.4010   -6.5648   23.8220 C   0  0  0  0  0  0
  -21.3650   -5.6796   24.9176 C   0  0  0  0  0  0
  -21.6042   -4.3064   24.7228 C   0  0  0  0  0  0
  -21.8818   -3.8153   23.4346 C   0  0  0  0  0  0
  -21.9190   -4.6971   22.3405 C   0  0  0  0  0  0
  -22.7843  -13.5210   21.1857 C   0  0  0  0  0  0
  -22.1666   -4.2165   21.0981 F   0  0  0  0  0  0
  -21.5621   -3.4538   25.7737 F   0  0  0  0  0  0
  -30.0060  -13.4256   20.4630 N   0  0  0  0  0  0
  -26.2963  -12.9323   20.3287 N   0  0  0  0  0  0
  -25.9294  -11.6478   20.5710 N   0  0  0  0  0  0
  -22.0502  -12.8202   22.0432 N   0  0  0  0  0  0
  -25.4277  -15.1874   20.4112 N   0  0  0  0  0  0
  -31.7118  -14.8636   20.0245 O   0  0  0  0  0  0
  -21.6630   -6.8873   21.4244 O   0  0  0  0  0  0
  -22.3531  -14.5525   20.6727 O   0  0  0  0  0  0
  -24.6274  -31.8551   23.2008 C   0  0  0  0  0  0
  -25.9127  -32.4741   23.8330 C   0  0  1  0  0  0
  -27.2324  -27.3071   20.1276 C   0  0  0  0  0  0
  -25.5954  -33.8543   24.2274 N   0  0  0  0  0  0
  -23.4223  -30.4782   21.5421 C   0  0  2  0  0  0
  -24.8733  -28.9249   20.1168 C   0  0  0  0  0  0
  -22.7483  -29.4602   22.4922 C   0  0  0  0  0  0
  -18.0286  -28.1392   22.8480 C   0  0  0  0  0  0
  -24.1486  -36.7259   23.2639 C   0  0  0  0  0  0
  -25.9622  -30.7855   21.3711 C   0  0  0  0  0  0
  -26.0410  -29.4075   20.7230 C   0  0  0  0  0  0
  -27.2262  -28.6090   20.7183 C   0  0  0  0  0  0
  -26.0423  -26.8719   19.5081 C   0  0  0  0  0  0
  -24.8749  -27.6619   19.5014 C   0  0  0  0  0  0
  -23.6417  -29.8084   20.1591 C   0  0  0  0  0  0
  -25.4108  -36.3044   24.0332 C   0  0  1  0  0  0
  -20.5886  -28.3683   23.1287 C   0  0  2  0  0  0
  -20.6764  -26.9403   22.5411 C   0  0  0  0  0  0
  -19.5741  -26.6395   21.5203 C   0  0  0  0  0  0
  -18.1925  -26.7943   22.1620 C   0  0  0  0  0  0
  -19.1542  -28.8858   23.2873 C   0  0  0  0  0  0
  -18.9466  -30.1470   23.8875 C   0  0  0  0  0  0
  -17.6461  -30.6588   24.0567 C   0  0  0  0  0  0
  -25.9042  -34.9420   23.5086 C   0  0  0  0  0  0
  -16.5351  -29.9091   23.6333 C   0  0  0  0  0  0
  -16.7278  -28.6519   23.0335 C   0  0  0  0  0  0
  -26.4532  -31.6554   25.0696 C   0  0  0  0  0  0
  -25.3794  -31.3704   26.1447 C   0  0  0  0  0  0
  -27.0344  -30.2971   24.6107 C   0  0  0  0  0  0
  -27.6085  -32.4279   25.7480 C   0  0  0  0  0  0
  -27.5569  -37.1780   24.8468 C   0  0  0  0  0  0
  -21.4195  -29.3028   22.3687 N   0  0  0  0  0  0
  -26.4272  -37.3754   23.9423 N   0  0  0  0  0  0
  -24.6896  -31.0561   22.0959 N   0  0  0  0  0  0
  -23.4196  -28.8122   23.2993 O   0  0  0  0  0  0
  -28.3440  -26.4526   20.0984 O   0  0  0  0  0  0
  -26.5584  -34.8894   22.4637 O   0  0  0  0  0  0
  -23.5445  -32.1356   23.7357 O   0  0  0  0  0  0
  -29.8538  -17.8138   19.6752 C   0  0  0  0  0  0
  -29.7118  -18.3195   22.0016 C   0  0  0  0  0  0
  -29.6627  -19.2077   19.3817 C   0  0  0  0  0  0
  -29.5028  -19.7008   21.7134 C   0  0  0  0  0  0
  -29.8754  -17.3055   21.0057 C   0  0  0  0  0  0
  -29.4538  -20.2037   20.3885 C   0  0  0  0  0  0
  -28.7497  -23.9558   20.1389 C   0  0  0  0  0  0
  -29.4691  -23.6934   18.9210 C   0  0  0  0  0  0
  -28.6426  -22.6352   20.8191 C   0  0  0  0  0  0
  -29.8737  -24.6136   18.0280 C   0  0  0  0  0  0
  -28.2278  -25.1430   20.6214 C   0  0  0  0  0  0
  -29.9485  -15.8086   21.4404 C   0  0  0  0  0  0
  -29.7239  -22.2055   18.7947 C   0  0  0  0  0  0
  -29.4980  -15.5276   22.5943 N   0  0  0  0  0  0
  -29.2539  -21.6419   20.0702 N   0  0  0  0  0  0
  -28.0807  -22.4417   21.9027 O   0  0  0  0  0  0
  -31.4788  -12.5761   19.1468 H   0  0  0  0  0  0
  -30.4056  -11.4214   19.8706 H   0  0  0  0  0  0
  -29.7795  -11.7923   17.4758 H   0  0  0  0  0  0
  -29.6445  -13.5094   17.7493 H   0  0  0  0  0  0
  -27.8642  -11.3065   18.8404 H   0  0  0  0  0  0
  -27.3755  -12.6068   17.7851 H   0  0  0  0  0  0
  -27.6865  -14.2580   19.5608 H   0  0  0  0  0  0
  -28.7221  -11.9573   21.2751 H   0  0  0  0  0  0
  -28.3680  -13.5174   21.8905 H   0  0  0  0  0  0
  -25.2756   -9.5683   22.4758 H   0  0  0  0  0  0
  -24.0015   -7.4620   22.7462 H   0  0  0  0  0  0
  -21.0842   -8.8758   19.8948 H   0  0  0  0  0  0
  -22.3690  -10.9663   19.6165 H   0  0  0  0  0  0
  -21.2010   -7.6156   23.9731 H   0  0  0  0  0  0
  -21.1472   -6.0523   25.9086 H   0  0  0  0  0  0
  -22.0606   -2.7618   23.2842 H   0  0  0  0  0  0
  -22.4107  -11.9837   22.4777 H   0  0  0  0  0  0
  -21.1138  -13.1241   22.2676 H   0  0  0  0  0  0
  -24.6685  -15.8481   20.5341 H   0  0  0  0  0  0
  -26.2942  -15.6302   20.1326 H   0  0  0  0  0  0
  -26.7192  -32.5425   23.1073 H   0  0  0  0  0  0
  -25.0177  -33.9683   25.0468 H   0  0  0  0  0  0
  -22.7167  -31.2990   21.3979 H   0  0  0  0  0  0
  -23.3732  -35.9602   23.3289 H   0  0  0  0  0  0
  -24.3594  -36.8884   22.2055 H   0  0  0  0  0  0
  -23.7248  -37.6462   23.6664 H   0  0  0  0  0  0
  -26.0845  -31.5442   20.5973 H   0  0  0  0  0  0
  -26.8461  -30.8457   21.9938 H   0  0  0  0  0  0
  -28.1250  -28.9772   21.1928 H   0  0  0  0  0  0
  -26.0163  -25.9010   19.0336 H   0  0  0  0  0  0
  -23.9803  -27.2876   19.0245 H   0  0  0  0  0  0
  -23.7664  -30.5825   19.4017 H   0  0  0  0  0  0
  -22.7626  -29.2401   19.8512 H   0  0  0  0  0  0
  -25.1286  -36.1875   25.0823 H   0  0  0  0  0  0
  -20.9987  -28.3257   24.1402 H   0  0  0  0  0  0
  -20.5632  -26.2278   23.3594 H   0  0  0  0  0  0
  -21.6634  -26.7421   22.1209 H   0  0  0  0  0  0
  -19.6866  -25.6303   21.1234 H   0  0  0  0  0  0
  -19.6690  -27.3207   20.6728 H   0  0  0  0  0  0
  -17.4186  -26.6681   21.4028 H   0  0  0  0  0  0
  -18.0326  -26.0101   22.9029 H   0  0  0  0  0  0
  -19.7945  -30.7306   24.2205 H   0  0  0  0  0  0
  -17.5014  -31.6265   24.5181 H   0  0  0  0  0  0
  -15.5344  -30.2971   23.7680 H   0  0  0  0  0  0
  -15.8677  -28.0847   22.7025 H   0  0  0  0  0  0
  -24.5977  -30.7021   25.7819 H   0  0  0  0  0  0
  -24.8993  -32.2882   26.4844 H   0  0  0  0  0  0
  -25.8170  -30.8934   27.0227 H   0  0  0  0  0  0
  -26.2883  -29.6728   24.1164 H   0  0  0  0  0  0
  -27.4097  -29.7209   25.4573 H   0  0  0  0  0  0
  -27.8740  -30.4247   23.9269 H   0  0  0  0  0  0
  -27.2692  -33.3600   26.2003 H   0  0  0  0  0  0
  -28.3936  -32.6781   25.0339 H   0  0  0  0  0  0
  -28.0672  -31.8417   26.5448 H   0  0  0  0  0  0
  -28.2569  -38.0083   24.7503 H   0  0  0  0  0  0
  -28.1076  -36.2615   24.6301 H   0  0  0  0  0  0
  -27.2286  -37.1444   25.8867 H   0  0  0  0  0  0
  -20.9359  -29.8783   21.6937 H   0  0  0  0  0  0
  -26.0131  -38.2814   24.1451 H   0  0  0  0  0  0
  -29.9600  -17.1245   18.8490 H   0  0  0  0  0  0
  -29.7319  -18.0462   23.0466 H   0  0  0  0  0  0
  -29.6569  -19.5019   18.3415 H   0  0  0  0  0  0
  -29.3930  -20.3752   22.5515 H   0  0  0  0  0  0
  -29.6797  -25.6682   18.1584 H   0  0  0  0  0  0
  -30.4123  -24.3226   17.1380 H   0  0  0  0  0  0
  -27.6877  -25.1591   21.5589 H   0  0  0  0  0  0
  -30.7826  -21.9959   18.6368 H   0  0  0  0  0  0
  -29.1530  -21.7988   17.9589 H   0  0  0  0  0  0
  -29.1100  -16.3458   23.0461 H   0  0  0  0  0  0
  1 25  1  0  0  0
  1 30  2  0  0  0
  1 82  1  0  0  0
  2  3  1  0  0  0
  2 25  1  0  0  0
  2 87  1  0  0  0
  2 88  1  0  0  0
  3  4  1  0  0  0
  3 89  1  0  0  0
  3 90  1  0  0  0
  4  5  1  0  0  0
  4 91  1  0  0  0
  4 92  1  0  0  0
  5  6  1  0  0  0
  5 26  1  0  0  0
  5 93  1  0  0  0
  6 25  1  0  0  0
  6 94  1  0  0  0
  6 95  1  0  0  0
  7  8  2  0  0  0
  7 26  1  0  0  0
  7 29  1  0  0  0
  8  9  1  0  0  0
  8 22  1  0  0  0
  9 10  1  0  0  0
  9 27  2  0  0  0
 10 11  2  0  0  0
 10 15  1  0  0  0
 11 12  1  0  0  0
 11 96  1  0  0  0
 12 13  2  0  0  0
 12 97  1  0  0  0
 13 14  1  0  0  0
 13 31  1  0  0  0
 14 15  2  0  0  0
 14 98  1  0  0  0
 15 99  1  0  0  0
 16 17  2  0  0  0
 16 21  1  0  0  0
 16 31  1  0  0  0
 17 18  1  0  0  0
 17100  1  0  0  0
 18 19  2  0  0  0
 18101  1  0  0  0
 19 20  1  0  0  0
 19 24  1  0  0  0
 20 21  2  0  0  0
 20102  1  0  0  0
 21 23  1  0  0  0
 22 28  1  0  0  0
 22 32  2  0  0  0
 26 27  1  0  0  0
 28103  1  0  0  0
 28104  1  0  0  0
 29105  1  0  0  0
 29106  1  0  0  0
 33 34  1  0  0  0
 33 66  1  0  0  0
 33 70  2  0  0  0
 34 36  1  0  0  0
 34 59  1  0  0  0
 34107  1  0  0  0
 35 44  2  0  0  0
 35 45  1  0  0  0
 35 68  1  0  0  0
 36 56  1  0  0  0
 36108  1  0  0  0
 37 39  1  0  0  0
 37 47  1  0  0  0
 37 66  1  0  0  0
 37109  1  0  0  0
 38 43  2  0  0  0
 38 46  1  0  0  0
 38 47  1  0  0  0
 39 64  1  0  0  0
 39 67  2  0  0  0
 40 52  1  0  0  0
 40 53  2  0  0  0
 40 58  1  0  0  0
 41110  1  0  0  0
 41111  1  0  0  0
 41112  1  0  0  0
 41 48  1  0  0  0
 42 43  1  0  0  0
 42 66  1  0  0  0
 42113  1  0  0  0
 42114  1  0  0  0
 43 44  1  0  0  0
 44115  1  0  0  0
 45 46  2  0  0  0
 45116  1  0  0  0
 46117  1  0  0  0
 47118  1  0  0  0
 47119  1  0  0  0
 48 56  1  0  0  0
 48 65  1  0  0  0
 48120  1  0  0  0
 49 50  1  0  0  0
 49 53  1  0  0  0
 49 64  1  0  0  0
 49121  1  0  0  0
 50 51  1  0  0  0
 50122  1  0  0  0
 50123  1  0  0  0
 51 52  1  0  0  0
 51124  1  0  0  0
 51125  1  0  0  0
 52126  1  0  0  0
 52127  1  0  0  0
 53 54  1  0  0  0
 54 55  2  0  0  0
 54128  1  0  0  0
 55 57  1  0  0  0
 55129  1  0  0  0
 56 69  2  0  0  0
 57 58  2  0  0  0
 57130  1  0  0  0
 58131  1  0  0  0
 59 60  1  0  0  0
 59 61  1  0  0  0
 59 62  1  0  0  0
 60132  1  0  0  0
 60133  1  0  0  0
 60134  1  0  0  0
 61135  1  0  0  0
 61136  1  0  0  0
 61137  1  0  0  0
 62138  1  0  0  0
 62139  1  0  0  0
 62140  1  0  0  0
 63 65  1  0  0  0
 63141  1  0  0  0
 63142  1  0  0  0
 63143  1  0  0  0
 64144  1  0  0  0
 65145  1  0  0  0
 68 81  1  0  0  0
 71 73  2  0  0  0
 71 75  1  0  0  0
 71146  1  0  0  0
 72 74  1  0  0  0
 72 75  2  0  0  0
 72147  1  0  0  0
 73 76  1  0  0  0
 73148  1  0  0  0
 74 76  2  0  0  0
 74149  1  0  0  0
 75 82  1  0  0  0
 76 85  1  0  0  0
 77 78  1  0  0  0
 77 79  1  0  0  0
 77 81  2  0  0  0
 78 80  2  0  0  0
 78 83  1  0  0  0
 79 85  1  0  0  0
 79 86  2  0  0  0
 80150  1  0  0  0
 80151  1  0  0  0
 81152  1  0  0  0
 82 84  2  0  0  0
 83 85  1  0  0  0
 83153  1  0  0  0
 83154  1  0  0  0
 84155  1  0  0  0
M  ISO  4   1 100  68 101  81 101  82 100
M  END
> <chiral flag>
0

> <version>
0

> <s_m_source_file>
/data/baiqing/PycharmProjects/Reinvent-master-3.2/result/LINK_invent/BTK/process_docking_weight1_custom_product_contain_oxygen_bond_distance_aromatic_linkinvent_7_9_3/rearranged_h_0080.sdf

> <i_m_source_file_index>
33

> <r_mmod_Potential_Energy-OPLS-2005>
383.538391113281

> <r_mmod_Stretch_Energy-OPLS-2005>
104.074638366699

> <r_mmod_Bend_Energy-OPLS-2005>
202.614883422852

> <r_mmod_Torsional_Energy-OPLS-2005>
243.406341552734

> <r_mmod_Improper_Torsional_Energy-OPLS-2005>
2.72359585762024

> <r_mmod_Van_der_Waal_Energy-OPLS-2005>
148.576538085938

> <r_mmod_Electrostatic_Energy-OPLS-2005>
-169.880569458008

> <r_mmod_Solvation_Energy-OPLS-2005>
-199.448318481445

> <b_mmod_Minimization_Converged-OPLS-2005>
0

> <r_mmod_RMS_Derivative-OPLS-2005>
2.19461011886597

$$$$
33
                    3D
 Structure written by MMmdl.
156164  0  0  1  0            999 V2000
  -30.6737  -14.5111   20.5199 C   0  0  0  0  0  0
  -30.4218  -12.3141   19.4321 C   0  0  0  0  0  0
  -29.4961  -12.4946   18.2105 C   0  0  0  0  0  0
  -28.0164  -12.3563   18.6207 C   0  0  0  0  0  0
  -27.6563  -13.2073   19.8680 C   0  0  2  0  0  0
  -28.6989  -13.0130   20.9925 C   0  0  0  0  0  0
  -25.2573  -13.8164   20.5675 C   0  0  0  0  0  0
  -24.1829  -13.0442   20.9183 C   0  0  0  0  0  0
  -24.6382  -11.6908   20.8740 C   0  0  0  0  0  0
  -23.9052  -10.4295   21.0407 C   0  0  0  0  0  0
  -24.3609   -9.4211   21.9183 C   0  0  0  0  0  0
  -23.6289   -8.2244   22.0755 C   0  0  0  0  0  0
  -22.4272   -8.0279   21.3547 C   0  0  0  0  0  0
  -21.9905   -9.0249   20.4646 C   0  0  0  0  0  0
  -22.7230  -10.2131   20.3055 C   0  0  0  0  0  0
  -21.6850   -6.0734   22.5278 C   0  0  0  0  0  0
  -21.4011   -6.5639   23.8211 C   0  0  0  0  0  0
  -21.3660   -5.6794   24.9177 C   0  0  0  0  0  0
  -21.6043   -4.3056   24.7229 C   0  0  0  0  0  0
  -21.8820   -3.8146   23.4351 C   0  0  0  0  0  0
  -21.9192   -4.6962   22.3405 C   0  0  0  0  0  0
  -22.7852  -13.5233   21.1854 C   0  0  0  0  0  0
  -22.1659   -4.2148   21.0983 F   0  0  0  0  0  0
  -21.5631   -3.4542   25.7744 F   0  0  0  0  0  0
  -30.0259  -13.3169   20.4335 N   0  0  0  0  0  0
  -26.2995  -12.9327   20.3326 N   0  0  0  0  0  0
  -25.9305  -11.6491   20.5756 N   0  0  0  0  0  0
  -22.0493  -12.8224   22.0409 N   0  0  0  0  0  0
  -25.4300  -15.1886   20.4080 N   0  0  0  0  0  0
  -31.8342  -14.6499   20.1252 O   0  0  0  0  0  0
  -21.6638   -6.8876   21.4242 O   0  0  0  0  0  0
  -22.3543  -14.5546   20.6708 O   0  0  0  0  0  0
  -24.6159  -31.8665   23.2084 C   0  0  0  0  0  0
  -25.9048  -32.4814   23.8384 C   0  0  1  0  0  0
  -27.2399  -27.4164   20.0922 C   0  0  0  0  0  0
  -25.5909  -33.8613   24.2321 N   0  0  0  0  0  0
  -23.4050  -30.4886   21.5491 C   0  0  2  0  0  0
  -24.8512  -28.9490   20.1164 C   0  0  0  0  0  0
  -22.7419  -29.4647   22.4985 C   0  0  0  0  0  0
  -18.0270  -28.1367   22.8483 C   0  0  0  0  0  0
  -24.1486  -36.7304   23.2639 C   0  0  0  0  0  0
  -25.9352  -30.8262   21.3640 C   0  0  0  0  0  0
  -26.0118  -29.4586   20.7104 C   0  0  0  0  0  0
  -27.2060  -28.7000   20.6913 C   0  0  0  0  0  0
  -26.0527  -26.9182   19.5058 C   0  0  0  0  0  0
  -24.8672  -27.6792   19.5140 C   0  0  0  0  0  0
  -23.6145  -29.8184   20.1649 C   0  0  0  0  0  0
  -25.4110  -36.3109   24.0337 C   0  0  1  0  0  0
  -20.5863  -28.3665   23.1309 C   0  0  2  0  0  0
  -20.6758  -26.9399   22.5414 C   0  0  0  0  0  0
  -19.5742  -26.6376   21.5203 C   0  0  0  0  0  0
  -18.1916  -26.7916   22.1607 C   0  0  0  0  0  0
  -19.1520  -28.8832   23.2891 C   0  0  0  0  0  0
  -18.9453  -30.1431   23.8913 C   0  0  0  0  0  0
  -17.6460  -30.6582   24.0556 C   0  0  0  0  0  0
  -25.9040  -34.9472   23.5129 C   0  0  0  0  0  0
  -16.5348  -29.9084   23.6322 C   0  0  0  0  0  0
  -16.7260  -28.6494   23.0354 C   0  0  0  0  0  0
  -26.4475  -31.6598   25.0717 C   0  0  0  0  0  0
  -25.3735  -31.3697   26.1461 C   0  0  0  0  0  0
  -27.0301  -30.3037   24.6102 C   0  0  0  0  0  0
  -27.6066  -32.4303   25.7478 C   0  0  0  0  0  0
  -27.5587  -37.1805   24.8465 C   0  0  0  0  0  0
  -21.4147  -29.3031   22.3721 N   0  0  0  0  0  0
  -26.4298  -37.3795   23.9410 N   0  0  0  0  0  0
  -24.6702  -31.0753   22.0988 N   0  0  0  0  0  0
  -23.4181  -28.8185   23.3028 O   0  0  0  0  0  0
  -28.4321  -26.7124   20.1026 O   0  0  0  0  0  0
  -26.5604  -34.8928   22.4691 O   0  0  0  0  0  0
  -23.5348  -32.1427   23.7472 O   0  0  0  0  0  0
  -29.2411  -19.2608   21.2113 C   0  0  0  0  0  0
  -31.4363  -18.9748   20.2461 C   0  0  0  0  0  0
  -29.0835  -17.8507   21.2417 C   0  0  0  0  0  0
  -31.2827  -17.5726   20.2740 C   0  0  0  0  0  0
  -30.4349  -19.8514   20.7314 C   0  0  0  0  0  0
  -30.1092  -16.9779   20.7987 C   0  0  0  0  0  0
  -30.4660  -23.6399   19.7978 C   0  0  0  0  0  0
  -30.7626  -21.3174   20.8349 C   0  0  0  0  0  0
  -29.9413  -24.8697   19.5449 C   0  0  0  0  0  0
  -29.8091  -22.3686   20.2217 C   0  0  0  0  0  0
  -30.8723  -25.9731   19.0581 C   0  0  0  0  0  0
  -28.4854  -25.3319   19.6856 C   0  0  0  0  0  0
  -31.8667  -21.6332   21.3795 N   0  0  0  0  0  0
  -29.8989  -15.5553   20.9046 N   0  0  0  0  0  0
  -28.6014  -22.1587   20.0636 O   0  0  0  0  0  0
  -31.4672  -12.4101   19.1327 H   0  0  0  0  0  0
  -30.3218  -11.3104   19.8473 H   0  0  0  0  0  0
  -29.7397  -11.7609   17.4413 H   0  0  0  0  0  0
  -29.6625  -13.4754   17.7615 H   0  0  0  0  0  0
  -27.8283  -11.3018   18.8257 H   0  0  0  0  0  0
  -27.3680  -12.6219   17.7850 H   0  0  0  0  0  0
  -27.6904  -14.2501   19.5518 H   0  0  0  0  0  0
  -28.6806  -11.9848   21.3560 H   0  0  0  0  0  0
  -28.4642  -13.6347   21.8580 H   0  0  0  0  0  0
  -25.2753   -9.5686   22.4760 H   0  0  0  0  0  0
  -23.9999   -7.4635   22.7476 H   0  0  0  0  0  0
  -21.0835   -8.8764   19.8950 H   0  0  0  0  0  0
  -22.3686  -10.9670   19.6163 H   0  0  0  0  0  0
  -21.2001   -7.6147   23.9715 H   0  0  0  0  0  0
  -21.1479   -6.0526   25.9080 H   0  0  0  0  0  0
  -22.0599   -2.7608   23.2855 H   0  0  0  0  0  0
  -22.4107  -11.9876   22.4781 H   0  0  0  0  0  0
  -21.1116  -13.1253   22.2627 H   0  0  0  0  0  0
  -24.6614  -15.8429   20.5099 H   0  0  0  0  0  0
  -26.2753  -15.6241   20.0608 H   0  0  0  0  0  0
  -26.7116  -32.5520   23.1145 H   0  0  0  0  0  0
  -25.0060  -33.9769   25.0469 H   0  0  0  0  0  0
  -22.6940  -31.3054   21.4078 H   0  0  0  0  0  0
  -23.3760  -35.9623   23.3291 H   0  0  0  0  0  0
  -24.3572  -36.8934   22.2054 H   0  0  0  0  0  0
  -23.7216  -37.6498   23.6659 H   0  0  0  0  0  0
  -26.0512  -31.5928   20.5964 H   0  0  0  0  0  0
  -26.8217  -30.8782   21.9848 H   0  0  0  0  0  0
  -28.1051  -29.0943   21.1459 H   0  0  0  0  0  0
  -26.0172  -25.9458   19.0383 H   0  0  0  0  0  0
  -23.9720  -27.2786   19.0578 H   0  0  0  0  0  0
  -23.7242  -30.5918   19.4039 H   0  0  0  0  0  0
  -22.7385  -29.2391   19.8698 H   0  0  0  0  0  0
  -25.1282  -36.1984   25.0831 H   0  0  0  0  0  0
  -20.9950  -28.3235   24.1432 H   0  0  0  0  0  0
  -20.5653  -26.2276   23.3603 H   0  0  0  0  0  0
  -21.6631  -26.7428   22.1221 H   0  0  0  0  0  0
  -19.6908  -25.6291   21.1230 H   0  0  0  0  0  0
  -19.6690  -27.3186   20.6738 H   0  0  0  0  0  0
  -17.4191  -26.6666   21.4005 H   0  0  0  0  0  0
  -18.0310  -26.0048   22.8997 H   0  0  0  0  0  0
  -19.7929  -30.7221   24.2319 H   0  0  0  0  0  0
  -17.5018  -31.6269   24.5141 H   0  0  0  0  0  0
  -15.5347  -30.2994   23.7642 H   0  0  0  0  0  0
  -15.8654  -28.0814   22.7087 H   0  0  0  0  0  0
  -24.5921  -30.7037   25.7786 H   0  0  0  0  0  0
  -24.8902  -32.2843   26.4913 H   0  0  0  0  0  0
  -25.8075  -30.8860   27.0221 H   0  0  0  0  0  0
  -26.2840  -29.6791   24.1176 H   0  0  0  0  0  0
  -27.4093  -29.7286   25.4562 H   0  0  0  0  0  0
  -27.8668  -30.4346   23.9231 H   0  0  0  0  0  0
  -27.2728  -33.3625   26.2041 H   0  0  0  0  0  0
  -28.3888  -32.6814   25.0303 H   0  0  0  0  0  0
  -28.0711  -31.8416   26.5400 H   0  0  0  0  0  0
  -28.2607  -38.0104   24.7538 H   0  0  0  0  0  0
  -28.1081  -36.2639   24.6266 H   0  0  0  0  0  0
  -27.2298  -37.1436   25.8867 H   0  0  0  0  0  0
  -20.9321  -29.8759   21.6943 H   0  0  0  0  0  0
  -26.0192  -38.2872   24.1428 H   0  0  0  0  0  0
  -28.4515  -19.8870   21.6028 H   0  0  0  0  0  0
  -32.3666  -19.3788   19.8705 H   0  0  0  0  0  0
  -28.1626  -17.4457   21.6376 H   0  0  0  0  0  0
  -32.1048  -16.9828   19.8996 H   0  0  0  0  0  0
  -31.5324  -23.5440   19.6566 H   0  0  0  0  0  0
  -31.8878  -25.6136   18.8888 H   0  0  0  0  0  0
  -30.9298  -26.7829   19.7860 H   0  0  0  0  0  0
  -30.5077  -26.3865   18.1174 H   0  0  0  0  0  0
  -27.9342  -24.7029   20.3849 H   0  0  0  0  0  0
  -28.0342  -25.2223   18.6988 H   0  0  0  0  0  0
  -32.3563  -20.8050   21.6974 H   0  0  0  0  0  0
  -28.9831  -15.2774   21.2226 H   0  0  0  0  0  0
  1 25  1  0  0  0
  1 30  2  0  0  0
  1 84  1  0  0  0
  2  3  1  0  0  0
  2 25  1  0  0  0
  2 86  1  0  0  0
  2 87  1  0  0  0
  3  4  1  0  0  0
  3 88  1  0  0  0
  3 89  1  0  0  0
  4  5  1  0  0  0
  4 90  1  0  0  0
  4 91  1  0  0  0
  5  6  1  0  0  0
  5 26  1  0  0  0
  5 92  1  0  0  0
  6 25  1  0  0  0
  6 93  1  0  0  0
  6 94  1  0  0  0
  7  8  2  0  0  0
  7 26  1  0  0  0
  7 29  1  0  0  0
  8  9  1  0  0  0
  8 22  1  0  0  0
  9 10  1  0  0  0
  9 27  2  0  0  0
 10 11  2  0  0  0
 10 15  1  0  0  0
 11 12  1  0  0  0
 11 95  1  0  0  0
 12 13  2  0  0  0
 12 96  1  0  0  0
 13 14  1  0  0  0
 13 31  1  0  0  0
 14 15  2  0  0  0
 14 97  1  0  0  0
 15 98  1  0  0  0
 16 17  2  0  0  0
 16 21  1  0  0  0
 16 31  1  0  0  0
 17 18  1  0  0  0
 17 99  1  0  0  0
 18 19  2  0  0  0
 18100  1  0  0  0
 19 20  1  0  0  0
 19 24  1  0  0  0
 20 21  2  0  0  0
 20101  1  0  0  0
 21 23  1  0  0  0
 22 28  1  0  0  0
 22 32  2  0  0  0
 26 27  1  0  0  0
 28102  1  0  0  0
 28103  1  0  0  0
 29104  1  0  0  0
 29105  1  0  0  0
 33 34  1  0  0  0
 33 66  1  0  0  0
 33 70  2  0  0  0
 34 36  1  0  0  0
 34 59  1  0  0  0
 34106  1  0  0  0
 35 44  2  0  0  0
 35 45  1  0  0  0
 35 68  1  0  0  0
 36 56  1  0  0  0
 36107  1  0  0  0
 37 39  1  0  0  0
 37 47  1  0  0  0
 37 66  1  0  0  0
 37108  1  0  0  0
 38 43  2  0  0  0
 38 46  1  0  0  0
 38 47  1  0  0  0
 39 64  1  0  0  0
 39 67  2  0  0  0
 40 52  1  0  0  0
 40 53  2  0  0  0
 40 58  1  0  0  0
 41109  1  0  0  0
 41110  1  0  0  0
 41111  1  0  0  0
 41 48  1  0  0  0
 42 43  1  0  0  0
 42 66  1  0  0  0
 42112  1  0  0  0
 42113  1  0  0  0
 43 44  1  0  0  0
 44114  1  0  0  0
 45 46  2  0  0  0
 45115  1  0  0  0
 46116  1  0  0  0
 47117  1  0  0  0
 47118  1  0  0  0
 48 56  1  0  0  0
 48 65  1  0  0  0
 48119  1  0  0  0
 49 50  1  0  0  0
 49 53  1  0  0  0
 49 64  1  0  0  0
 49120  1  0  0  0
 50 51  1  0  0  0
 50121  1  0  0  0
 50122  1  0  0  0
 51 52  1  0  0  0
 51123  1  0  0  0
 51124  1  0  0  0
 52125  1  0  0  0
 52126  1  0  0  0
 53 54  1  0  0  0
 54 55  2  0  0  0
 54127  1  0  0  0
 55 57  1  0  0  0
 55128  1  0  0  0
 56 69  2  0  0  0
 57 58  2  0  0  0
 57129  1  0  0  0
 58130  1  0  0  0
 59 60  1  0  0  0
 59 61  1  0  0  0
 59 62  1  0  0  0
 60131  1  0  0  0
 60132  1  0  0  0
 60133  1  0  0  0
 61134  1  0  0  0
 61135  1  0  0  0
 61136  1  0  0  0
 62137  1  0  0  0
 62138  1  0  0  0
 62139  1  0  0  0
 63 65  1  0  0  0
 63140  1  0  0  0
 63141  1  0  0  0
 63142  1  0  0  0
 64143  1  0  0  0
 65144  1  0  0  0
 68 82  1  0  0  0
 71 73  2  0  0  0
 71 75  1  0  0  0
 71145  1  0  0  0
 72 74  1  0  0  0
 72 75  2  0  0  0
 72146  1  0  0  0
 73 76  1  0  0  0
 73147  1  0  0  0
 74 76  2  0  0  0
 74148  1  0  0  0
 75 78  1  0  0  0
 76 84  1  0  0  0
 77 79  2  0  0  0
 77 80  1  0  0  0
 77149  1  0  0  0
 78 80  1  0  0  0
 78 83  2  0  0  0
 79 81  1  0  0  0
 79 82  1  0  0  0
 80 85  2  0  0  0
 81150  1  0  0  0
 81151  1  0  0  0
 81152  1  0  0  0
 82153  1  0  0  0
 82154  1  0  0  0
 83155  1  0  0  0
 84156  1  0  0  0
M  ISO  4   1 100  68 101  82 101  84 100
M  END
> <chiral flag>
0

> <version>
0

> <s_m_source_file>
/data/baiqing/PycharmProjects/Reinvent-master-3.2/result/LINK_invent/BTK/process_docking_weight1_custom_product_contain_oxygen_bond_distance_aromatic_linkinvent_7_9_3/rearranged_h_0080.sdf

> <i_m_source_file_index>
34

> <r_mmod_Potential_Energy-OPLS-2005>
69.5713882446289

> <r_mmod_Stretch_Energy-OPLS-2005>
46.9544525146484

> <r_mmod_Bend_Energy-OPLS-2005>
133.845611572266

> <r_mmod_Torsional_Energy-OPLS-2005>
226.354125976562

> <r_mmod_Improper_Torsional_Energy-OPLS-2005>
4.97924137115479

> <r_mmod_Van_der_Waal_Energy-OPLS-2005>
164.325942993164

> <r_mmod_Electrostatic_Energy-OPLS-2005>
-309.777404785156

> <r_mmod_Solvation_Energy-OPLS-2005>
-214.724456787109

> <b_mmod_Minimization_Converged-OPLS-2005>
0

> <r_mmod_RMS_Derivative-OPLS-2005>
1.08880436420441

$$$$
34
                    3D
 Structure written by MMmdl.
158167  0  0  1  0            999 V2000
  -30.5773  -14.7013   20.5073 C   0  0  0  0  0  0
  -30.4480  -12.4342   19.4648 C   0  0  0  0  0  0
  -29.5222  -12.5335   18.2304 C   0  0  0  0  0  0
  -28.0432  -12.3558   18.6333 C   0  0  0  0  0  0
  -27.6509  -13.2227   19.8615 C   0  0  2  0  0  0
  -28.6925  -13.0886   20.9963 C   0  0  0  0  0  0
  -25.2523  -13.8178   20.5705 C   0  0  0  0  0  0
  -24.1784  -13.0442   20.9176 C   0  0  0  0  0  0
  -24.6352  -11.6903   20.8678 C   0  0  0  0  0  0
  -23.9033  -10.4296   21.0353 C   0  0  0  0  0  0
  -24.3573   -9.4217   21.9137 C   0  0  0  0  0  0
  -23.6257   -8.2273   22.0746 C   0  0  0  0  0  0
  -22.4244   -8.0285   21.3557 C   0  0  0  0  0  0
  -21.9857   -9.0261   20.4673 C   0  0  0  0  0  0
  -22.7195  -10.2115   20.3048 C   0  0  0  0  0  0
  -21.6864   -6.0711   22.5260 C   0  0  0  0  0  0
  -21.4042   -6.5614   23.8207 C   0  0  0  0  0  0
  -21.3667   -5.6756   24.9159 C   0  0  0  0  0  0
  -21.6038   -4.3022   24.7218 C   0  0  0  0  0  0
  -21.8826   -3.8121   23.4339 C   0  0  0  0  0  0
  -21.9213   -4.6931   22.3375 C   0  0  0  0  0  0
  -22.7823  -13.5270   21.1853 C   0  0  0  0  0  0
  -22.1668   -4.2111   21.0941 F   0  0  0  0  0  0
  -21.5604   -3.4515   25.7751 F   0  0  0  0  0  0
  -30.0065  -13.4535   20.4400 N   0  0  0  0  0  0
  -26.2960  -12.9360   20.3285 N   0  0  0  0  0  0
  -25.9277  -11.6509   20.5696 N   0  0  0  0  0  0
  -22.0443  -12.8302   22.0403 N   0  0  0  0  0  0
  -25.4189  -15.1902   20.4182 N   0  0  0  0  0  0
  -31.7377  -14.8907   20.1212 O   0  0  0  0  0  0
  -21.6631   -6.8858   21.4231 O   0  0  0  0  0  0
  -22.3523  -14.5557   20.6669 O   0  0  0  0  0  0
  -24.6275  -31.8575   23.1995 C   0  0  0  0  0  0
  -25.9110  -32.4751   23.8346 C   0  0  1  0  0  0
  -27.2257  -27.3117   20.1354 C   0  0  0  0  0  0
  -25.5910  -33.8558   24.2250 N   0  0  0  0  0  0
  -23.4208  -30.4784   21.5426 C   0  0  2  0  0  0
  -24.8710  -28.9258   20.1195 C   0  0  0  0  0  0
  -22.7455  -29.4602   22.4926 C   0  0  0  0  0  0
  -18.0289  -28.1378   22.8500 C   0  0  0  0  0  0
  -24.1487  -36.7304   23.2636 C   0  0  0  0  0  0
  -25.9619  -30.7836   21.3770 C   0  0  0  0  0  0
  -26.0382  -29.4081   20.7274 C   0  0  0  0  0  0
  -27.2224  -28.6155   20.7236 C   0  0  0  0  0  0
  -26.0414  -26.8711   19.5148 C   0  0  0  0  0  0
  -24.8736  -27.6623   19.5045 C   0  0  0  0  0  0
  -23.6391  -29.8083   20.1597 C   0  0  0  0  0  0
  -25.4094  -36.3060   24.0327 C   0  0  1  0  0  0
  -20.5881  -28.3681   23.1283 C   0  0  2  0  0  0
  -20.6774  -26.9393   22.5421 C   0  0  0  0  0  0
  -19.5756  -26.6380   21.5211 C   0  0  0  0  0  0
  -18.1926  -26.7928   22.1614 C   0  0  0  0  0  0
  -19.1535  -28.8848   23.2897 C   0  0  0  0  0  0
  -18.9456  -30.1446   23.8929 C   0  0  0  0  0  0
  -17.6459  -30.6580   24.0567 C   0  0  0  0  0  0
  -25.9042  -34.9437   23.5096 C   0  0  0  0  0  0
  -16.5353  -29.9082   23.6327 C   0  0  0  0  0  0
  -16.7273  -28.6489   23.0363 C   0  0  0  0  0  0
  -26.4504  -31.6582   25.0737 C   0  0  0  0  0  0
  -25.3739  -31.3785   26.1481 C   0  0  0  0  0  0
  -27.0318  -30.2967   24.6248 C   0  0  0  0  0  0
  -27.6066  -32.4344   25.7489 C   0  0  0  0  0  0
  -27.5584  -37.1770   24.8432 C   0  0  0  0  0  0
  -21.4170  -29.3032   22.3660 N   0  0  0  0  0  0
  -26.4252  -37.3776   23.9435 N   0  0  0  0  0  0
  -24.6889  -31.0583   22.0958 N   0  0  0  0  0  0
  -23.4181  -28.8131   23.2998 O   0  0  0  0  0  0
  -28.3406  -26.4712   20.0634 O   0  0  0  0  0  0
  -26.5625  -34.8924   22.4667 O   0  0  0  0  0  0
  -23.5446  -32.1373   23.7323 O   0  0  0  0  0  0
  -28.2607  -19.0556   19.7729 C   0  0  0  0  0  0
  -30.1019  -19.5699   21.2372 C   0  0  0  0  0  0
  -28.5737  -17.6644   19.8624 C   0  0  0  0  0  0
  -30.4242  -18.1679   21.3141 C   0  0  0  0  0  0
  -28.9815  -20.0507   20.4961 C   0  0  0  0  0  0
  -29.6493  -17.1652   20.6469 C   0  0  0  0  0  0
  -27.0783  -23.2852   20.6952 C   0  0  0  0  0  0
  -28.2752  -23.8826   20.6645 C   0  0  0  0  0  0
  -27.1985  -21.8814   20.6176 C   0  0  0  0  0  0
  -29.3395  -22.7397   20.5817 C   0  0  0  0  0  0
  -29.8972  -25.6361   21.6815 C   0  0  0  0  0  0
  -28.5134  -25.4016   21.0632 C   0  0  1  0  0  0
  -28.4954  -21.4877   20.4823 N   0  0  0  0  0  0
  -29.7367  -15.7177   20.9075 N   0  0  0  0  0  0
  -26.1212  -21.0823   20.7128 N   0  3  0  0  0  0
  -31.4930  -12.5717   19.1772 H   0  0  0  0  0  0
  -30.3907  -11.4388   19.9040 H   0  0  0  0  0  0
  -29.7913  -11.7844   17.4851 H   0  0  0  0  0  0
  -29.6568  -13.5026   17.7467 H   0  0  0  0  0  0
  -27.8861  -11.3020   18.8580 H   0  0  0  0  0  0
  -27.4022  -12.5866   17.7821 H   0  0  0  0  0  0
  -27.6592  -14.2564   19.5126 H   0  0  0  0  0  0
  -28.7157  -12.0670   21.3748 H   0  0  0  0  0  0
  -28.4294  -13.7119   21.8539 H   0  0  0  0  0  0
  -25.2713   -9.5702   22.4710 H   0  0  0  0  0  0
  -23.9983   -7.4649   22.7494 H   0  0  0  0  0  0
  -21.0785   -8.8787   19.9000 H   0  0  0  0  0  0
  -22.3651  -10.9639   19.6168 H   0  0  0  0  0  0
  -21.2040   -7.6128   23.9696 H   0  0  0  0  0  0
  -21.1474   -6.0485   25.9056 H   0  0  0  0  0  0
  -22.0595   -2.7599   23.2847 H   0  0  0  0  0  0
  -22.4017  -12.0006   22.4839 H   0  0  0  0  0  0
  -21.1077  -13.1397   22.2608 H   0  0  0  0  0  0
  -24.6444  -15.8381   20.5230 H   0  0  0  0  0  0
  -26.2737  -15.6443   20.1188 H   0  0  0  0  0  0
  -26.7201  -32.5428   23.1115 H   0  0  0  0  0  0
  -24.9978  -33.9722   25.0339 H   0  0  0  0  0  0
  -22.7149  -31.2998   21.3970 H   0  0  0  0  0  0
  -23.3757  -35.9627   23.3226 H   0  0  0  0  0  0
  -24.3601  -36.9002   22.2067 H   0  0  0  0  0  0
  -23.7239  -37.6483   23.6720 H   0  0  0  0  0  0
  -26.1029  -31.5431   20.6094 H   0  0  0  0  0  0
  -26.8395  -30.8323   22.0071 H   0  0  0  0  0  0
  -28.1268  -28.9888   21.1853 H   0  0  0  0  0  0
  -26.0203  -25.9011   19.0329 H   0  0  0  0  0  0
  -23.9819  -27.2897   19.0189 H   0  0  0  0  0  0
  -23.7591  -30.5849   19.4036 H   0  0  0  0  0  0
  -22.7590  -29.2391   19.8560 H   0  0  0  0  0  0
  -25.1252  -36.1896   25.0817 H   0  0  0  0  0  0
  -20.9971  -28.3278   24.1407 H   0  0  0  0  0  0
  -20.5645  -26.2286   23.3619 H   0  0  0  0  0  0
  -21.6650  -26.7421   22.1229 H   0  0  0  0  0  0
  -19.6917  -25.6295   21.1225 H   0  0  0  0  0  0
  -19.6675  -27.3190   20.6734 H   0  0  0  0  0  0
  -17.4181  -26.6692   21.4021 H   0  0  0  0  0  0
  -18.0309  -26.0054   22.8993 H   0  0  0  0  0  0
  -19.7932  -30.7255   24.2307 H   0  0  0  0  0  0
  -17.5014  -31.6261   24.5154 H   0  0  0  0  0  0
  -15.5350  -30.2991   23.7645 H   0  0  0  0  0  0
  -15.8667  -28.0803   22.7094 H   0  0  0  0  0  0
  -24.5831  -30.7224   25.7816 H   0  0  0  0  0  0
  -24.9055  -32.3006   26.4951 H   0  0  0  0  0  0
  -25.8065  -30.8904   27.0219 H   0  0  0  0  0  0
  -26.2880  -29.6726   24.1270 H   0  0  0  0  0  0
  -27.3938  -29.7249   25.4804 H   0  0  0  0  0  0
  -27.8809  -30.4184   23.9511 H   0  0  0  0  0  0
  -27.2643  -33.3631   26.2070 H   0  0  0  0  0  0
  -28.3850  -32.6925   25.0295 H   0  0  0  0  0  0
  -28.0751  -31.8476   26.5396 H   0  0  0  0  0  0
  -28.2521  -38.0147   24.7586 H   0  0  0  0  0  0
  -28.1160  -36.2696   24.6069 H   0  0  0  0  0  0
  -27.2368  -37.1199   25.8849 H   0  0  0  0  0  0
  -20.9322  -29.8737   21.6865 H   0  0  0  0  0  0
  -26.0122  -38.2834   24.1512 H   0  0  0  0  0  0
  -27.4195  -19.3468   19.1540 H   0  0  0  0  0  0
  -30.7011  -20.2720   21.8025 H   0  0  0  0  0  0
  -27.9369  -16.9740   19.3276 H   0  0  0  0  0  0
  -31.2476  -17.8655   21.9523 H   0  0  0  0  0  0
  -26.1271  -23.7656   20.8754 H   0  0  0  0  0  0
  -29.9432  -22.7215   21.4891 H   0  0  0  0  0  0
  -29.9945  -22.8588   19.7174 H   0  0  0  0  0  0
  -30.1221  -24.9101   22.4657 H   0  0  0  0  0  0
  -29.9448  -26.6243   22.1388 H   0  0  0  0  0  0
  -30.6805  -25.5845   20.9229 H   0  0  0  0  0  0
  -27.7999  -25.5932   21.8662 H   0  0  0  0  0  0
  -28.8564  -15.3179   21.2009 H   0  0  0  0  0  0
  -25.2069  -21.4834   20.8779 H   0  0  0  0  0  0
  -26.1852  -20.0766   20.7002 H   0  0  0  0  0  0
  1 25  1  0  0  0
  1 30  2  0  0  0
  1 84  1  0  0  0
  2  3  1  0  0  0
  2 25  1  0  0  0
  2 86  1  0  0  0
  2 87  1  0  0  0
  3  4  1  0  0  0
  3 88  1  0  0  0
  3 89  1  0  0  0
  4  5  1  0  0  0
  4 90  1  0  0  0
  4 91  1  0  0  0
  5  6  1  0  0  0
  5 26  1  0  0  0
  5 92  1  0  0  0
  6 25  1  0  0  0
  6 93  1  0  0  0
  6 94  1  0  0  0
  7  8  2  0  0  0
  7 26  1  0  0  0
  7 29  1  0  0  0
  8  9  1  0  0  0
  8 22  1  0  0  0
  9 10  1  0  0  0
  9 27  2  0  0  0
 10 11  2  0  0  0
 10 15  1  0  0  0
 11 12  1  0  0  0
 11 95  1  0  0  0
 12 13  2  0  0  0
 12 96  1  0  0  0
 13 14  1  0  0  0
 13 31  1  0  0  0
 14 15  2  0  0  0
 14 97  1  0  0  0
 15 98  1  0  0  0
 16 17  2  0  0  0
 16 21  1  0  0  0
 16 31  1  0  0  0
 17 18  1  0  0  0
 17 99  1  0  0  0
 18 19  2  0  0  0
 18100  1  0  0  0
 19 20  1  0  0  0
 19 24  1  0  0  0
 20 21  2  0  0  0
 20101  1  0  0  0
 21 23  1  0  0  0
 22 28  1  0  0  0
 22 32  2  0  0  0
 26 27  1  0  0  0
 28102  1  0  0  0
 28103  1  0  0  0
 29104  1  0  0  0
 29105  1  0  0  0
 33 34  1  0  0  0
 33 66  1  0  0  0
 33 70  2  0  0  0
 34 36  1  0  0  0
 34 59  1  0  0  0
 34106  1  0  0  0
 35 44  2  0  0  0
 35 45  1  0  0  0
 35 68  1  0  0  0
 36 56  1  0  0  0
 36107  1  0  0  0
 37 39  1  0  0  0
 37 47  1  0  0  0
 37 66  1  0  0  0
 37108  1  0  0  0
 38 43  2  0  0  0
 38 46  1  0  0  0
 38 47  1  0  0  0
 39 64  1  0  0  0
 39 67  2  0  0  0
 40 52  1  0  0  0
 40 53  2  0  0  0
 40 58  1  0  0  0
 41109  1  0  0  0
 41110  1  0  0  0
 41111  1  0  0  0
 41 48  1  0  0  0
 42 43  1  0  0  0
 42 66  1  0  0  0
 42112  1  0  0  0
 42113  1  0  0  0
 43 44  1  0  0  0
 44114  1  0  0  0
 45 46  2  0  0  0
 45115  1  0  0  0
 46116  1  0  0  0
 47117  1  0  0  0
 47118  1  0  0  0
 48 56  1  0  0  0
 48 65  1  0  0  0
 48119  1  0  0  0
 49 50  1  0  0  0
 49 53  1  0  0  0
 49 64  1  0  0  0
 49120  1  0  0  0
 50 51  1  0  0  0
 50121  1  0  0  0
 50122  1  0  0  0
 51 52  1  0  0  0
 51123  1  0  0  0
 51124  1  0  0  0
 52125  1  0  0  0
 52126  1  0  0  0
 53 54  1  0  0  0
 54 55  2  0  0  0
 54127  1  0  0  0
 55 57  1  0  0  0
 55128  1  0  0  0
 56 69  2  0  0  0
 57 58  2  0  0  0
 57129  1  0  0  0
 58130  1  0  0  0
 59 60  1  0  0  0
 59 61  1  0  0  0
 59 62  1  0  0  0
 60131  1  0  0  0
 60132  1  0  0  0
 60133  1  0  0  0
 61134  1  0  0  0
 61135  1  0  0  0
 61136  1  0  0  0
 62137  1  0  0  0
 62138  1  0  0  0
 62139  1  0  0  0
 63 65  1  0  0  0
 63140  1  0  0  0
 63141  1  0  0  0
 63142  1  0  0  0
 64143  1  0  0  0
 65144  1  0  0  0
 68 82  1  0  0  0
 71 73  2  0  0  0
 71 75  1  0  0  0
 71145  1  0  0  0
 72 74  1  0  0  0
 72 75  2  0  0  0
 72146  1  0  0  0
 73 76  1  0  0  0
 73147  1  0  0  0
 74 76  2  0  0  0
 74148  1  0  0  0
 75 83  1  0  0  0
 76 84  1  0  0  0
 77 78  2  0  0  0
 77 79  1  0  0  0
 77149  1  0  0  0
 78 80  1  0  0  0
 78 82  1  0  0  0
 79 83  1  0  0  0
 79 85  2  0  0  0
 80 83  1  0  0  0
 80150  1  0  0  0
 80151  1  0  0  0
 81152  1  0  0  0
 81153  1  0  0  0
 81154  1  0  0  0
 81 82  1  0  0  0
 82155  1  0  0  0
 84156  1  0  0  0
 85157  1  0  0  0
 85158  1  0  0  0
M  CHG  1  85   1
M  ISO  4   1 100  68 101  82 101  84 100
M  END
> <chiral flag>
0

> <version>
0

> <s_m_source_file>
/data/baiqing/PycharmProjects/Reinvent-master-3.2/result/LINK_invent/BTK/process_docking_weight1_custom_product_contain_oxygen_bond_distance_aromatic_linkinvent_7_9_3/rearranged_h_0080.sdf

> <i_m_source_file_index>
35

> <r_mmod_Potential_Energy-OPLS-2005>
106.49634552002

> <r_mmod_Stretch_Energy-OPLS-2005>
92.2705230712891

> <r_mmod_Bend_Energy-OPLS-2005>
243.28662109375

> <r_mmod_Torsional_Energy-OPLS-2005>
270.101837158203

> <r_mmod_Improper_Torsional_Energy-OPLS-2005>
7.42794132232666

> <r_mmod_Van_der_Waal_Energy-OPLS-2005>
124.874565124512

> <r_mmod_Electrostatic_Energy-OPLS-2005>
-254.721313476562

> <r_mmod_Solvation_Energy-OPLS-2005>
-437.073791503906

> <b_mmod_Minimization_Converged-OPLS-2005>
0

> <r_mmod_RMS_Derivative-OPLS-2005>
6.0830192565918

$$$$
35
                    3D
 Structure written by MMmdl.
153162  0  0  1  0            999 V2000
  -30.5185  -15.0736   20.3626 C   0  0  0  0  0  0
  -30.4346  -12.6745   19.4813 C   0  0  0  0  0  0
  -29.5188  -12.5281   18.2468 C   0  0  0  0  0  0
  -28.0523  -12.2992   18.6670 C   0  0  0  0  0  0
  -27.6082  -13.2573   19.7989 C   0  0  2  0  0  0
  -28.6497  -13.3829   20.9228 C   0  0  0  0  0  0
  -25.2436  -13.8235   20.5709 C   0  0  0  0  0  0
  -24.1776  -13.0465   20.9247 C   0  0  0  0  0  0
  -24.6385  -11.6935   20.8747 C   0  0  0  0  0  0
  -23.9067  -10.4302   21.0405 C   0  0  0  0  0  0
  -24.3611   -9.4223   21.9198 C   0  0  0  0  0  0
  -23.6264   -8.2271   22.0782 C   0  0  0  0  0  0
  -22.4251   -8.0296   21.3554 C   0  0  0  0  0  0
  -21.9887   -9.0284   20.4674 C   0  0  0  0  0  0
  -22.7233  -10.2148   20.3060 C   0  0  0  0  0  0
  -21.6855   -6.0721   22.5273 C   0  0  0  0  0  0
  -21.4046   -6.5635   23.8199 C   0  0  0  0  0  0
  -21.3668   -5.6791   24.9159 C   0  0  0  0  0  0
  -21.6011   -4.3044   24.7215 C   0  0  0  0  0  0
  -21.8823   -3.8141   23.4342 C   0  0  0  0  0  0
  -21.9189   -4.6951   22.3389 C   0  0  0  0  0  0
  -22.7796  -13.5249   21.1893 C   0  0  0  0  0  0
  -22.1665   -4.2149   21.0962 F   0  0  0  0  0  0
  -21.5601   -3.4520   25.7718 F   0  0  0  0  0  0
  -29.9061  -13.8124   20.2940 N   0  0  0  0  0  0
  -26.2792  -12.9480   20.3068 N   0  0  0  0  0  0
  -25.9299  -11.6599   20.5656 N   0  0  0  0  0  0
  -22.0447  -12.8201   22.0413 N   0  0  0  0  0  0
  -25.4130  -15.1969   20.4156 N   0  0  0  0  0  0
  -31.7563  -15.0450   20.3220 O   0  0  0  0  0  0
  -21.6639   -6.8868   21.4237 O   0  0  0  0  0  0
  -22.3486  -14.5568   20.6759 O   0  0  0  0  0  0
  -24.6480  -31.8381   23.1819 C   0  0  0  0  0  0
  -25.9211  -32.4678   23.8246 C   0  0  1  0  0  0
  -27.2157  -27.0535   20.1945 C   0  0  0  0  0  0
  -25.5926  -33.8488   24.2143 N   0  0  0  0  0  0
  -23.4561  -30.4497   21.5296 C   0  0  2  0  0  0
  -24.9076  -28.8496   20.1319 C   0  0  0  0  0  0
  -22.7594  -29.4500   22.4867 C   0  0  0  0  0  0
  -18.0304  -28.1405   22.8470 C   0  0  0  0  0  0
  -24.1466  -36.7241   23.2642 C   0  0  0  0  0  0
  -26.0139  -30.6890   21.3894 C   0  0  0  0  0  0
  -26.0879  -29.2825   20.7499 C   0  0  0  0  0  0
  -27.2448  -28.4030   20.7580 C   0  0  0  0  0  0
  -26.0059  -26.7308   19.5484 C   0  0  0  0  0  0
  -24.8807  -27.5884   19.5172 C   0  0  0  0  0  0
  -23.6903  -29.7648   20.1564 C   0  0  0  0  0  0
  -25.4115  -36.3017   24.0289 C   0  0  1  0  0  0
  -20.5917  -28.3729   23.1234 C   0  0  2  0  0  0
  -20.6788  -26.9431   22.5408 C   0  0  0  0  0  0
  -19.5757  -26.6387   21.5212 C   0  0  0  0  0  0
  -18.1939  -26.7940   22.1626 C   0  0  0  0  0  0
  -19.1562  -28.8882   23.2845 C   0  0  0  0  0  0
  -18.9480  -30.1475   23.8869 C   0  0  0  0  0  0
  -17.6482  -30.6602   24.0541 C   0  0  0  0  0  0
  -25.9063  -34.9389   23.5028 C   0  0  0  0  0  0
  -16.5372  -29.9080   23.6352 C   0  0  0  0  0  0
  -16.7289  -28.6504   23.0363 C   0  0  0  0  0  0
  -26.4519  -31.6584   25.0715 C   0  0  0  0  0  0
  -25.3672  -31.3840   26.1391 C   0  0  0  0  0  0
  -27.0377  -30.2956   24.6349 C   0  0  0  0  0  0
  -27.6019  -32.4381   25.7537 C   0  0  0  0  0  0
  -27.5548  -37.1796   24.8479 C   0  0  0  0  0  0
  -21.4288  -29.3030   22.3599 N   0  0  0  0  0  0
  -26.4289  -37.3722   23.9378 N   0  0  0  0  0  0
  -24.7258  -31.0160   22.0896 N   0  0  0  0  0  0
  -23.4188  -28.8079   23.3077 O   0  0  0  0  0  0
  -28.2888  -26.0773   20.0756 O   0  0  0  0  0  0
  -26.5659  -34.8899   22.4614 O   0  0  0  0  0  0
  -23.5584  -32.1277   23.6992 O   0  0  0  0  0  0
  -27.2509  -18.7856   21.6248 C   0  0  0  0  0  0
  -28.0693  -17.7110   21.2168 C   0  0  0  0  0  0
  -27.5383  -20.1368   21.3230 C   0  0  0  0  0  0
  -29.5165  -19.3593   20.1710 C   0  0  0  0  0  0
  -29.2335  -17.8907   20.4416 C   0  0  0  0  0  0
  -28.6843  -20.5481   20.6061 C   0  0  0  0  0  0
  -29.0354  -24.7492   21.8890 C   0  0  0  0  0  0
  -29.5346  -22.3678   21.9542 C   0  0  0  0  0  0
  -28.4489  -24.7193   20.6743 C   0  0  0  0  0  0
  -29.5688  -23.5742   22.5559 C   0  0  0  0  0  0
  -28.3664  -23.2644   20.0389 C   0  0  0  0  0  0
  -29.7919  -16.4975   19.7616 C   0  0  0  0  0  0
  -29.6597  -16.5110   18.4994 N   0  0  0  0  0  0
  -28.9320  -22.0988   20.7113 N   0  0  0  0  0  0
  -27.8301  -23.1036   18.9378 O   0  0  0  0  0  0
  -30.1220  -23.6963   23.7681 O   0  0  0  0  0  0
  -31.4575  -12.8594   19.1496 H   0  0  0  0  0  0
  -30.4683  -11.7527   20.0647 H   0  0  0  0  0  0
  -29.8627  -11.7090   17.6104 H   0  0  0  0  0  0
  -29.5855  -13.4341   17.6411 H   0  0  0  0  0  0
  -27.9548  -11.2632   18.9926 H   0  0  0  0  0  0
  -27.3973  -12.4109   17.8021 H   0  0  0  0  0  0
  -27.5369  -14.2374   19.3243 H   0  0  0  0  0  0
  -28.7703  -12.4447   21.4676 H   0  0  0  0  0  0
  -28.3265  -14.1288   21.6514 H   0  0  0  0  0  0
  -25.2768   -9.5672   22.4749 H   0  0  0  0  0  0
  -23.9962   -7.4656   22.7491 H   0  0  0  0  0  0
  -21.0830   -8.8804   19.8969 H   0  0  0  0  0  0
  -22.3723  -10.9682   19.6135 H   0  0  0  0  0  0
  -21.2104   -7.6163   23.9706 H   0  0  0  0  0  0
  -21.1469   -6.0526   25.9052 H   0  0  0  0  0  0
  -22.0597   -2.7611   23.2832 H   0  0  0  0  0  0
  -22.4100  -11.9827   22.4730 H   0  0  0  0  0  0
  -21.1090  -13.1248   22.2671 H   0  0  0  0  0  0
  -24.6525  -15.8515   20.5599 H   0  0  0  0  0  0
  -26.2162  -15.6199   19.9680 H   0  0  0  0  0  0
  -26.7251  -32.5274   23.0952 H   0  0  0  0  0  0
  -25.0044  -33.9605   25.0267 H   0  0  0  0  0  0
  -22.7623  -31.2757   21.3631 H   0  0  0  0  0  0
  -23.3712  -35.9604   23.3389 H   0  0  0  0  0  0
  -24.3501  -36.8799   22.2040 H   0  0  0  0  0  0
  -23.7267  -37.6468   23.6649 H   0  0  0  0  0  0
  -26.1630  -31.4336   20.6067 H   0  0  0  0  0  0
  -26.8841  -30.7578   22.0297 H   0  0  0  0  0  0
  -28.1553  -28.7432   21.2294 H   0  0  0  0  0  0
  -25.9251  -25.7693   19.0617 H   0  0  0  0  0  0
  -23.9774  -27.2524   19.0269 H   0  0  0  0  0  0
  -23.8390  -30.5279   19.3925 H   0  0  0  0  0  0
  -22.8057  -29.2074   19.8461 H   0  0  0  0  0  0
  -25.1327  -36.1839   25.0788 H   0  0  0  0  0  0
  -20.9996  -28.3306   24.1362 H   0  0  0  0  0  0
  -20.5684  -26.2339   23.3630 H   0  0  0  0  0  0
  -21.6658  -26.7438   22.1206 H   0  0  0  0  0  0
  -19.6939  -25.6294   21.1248 H   0  0  0  0  0  0
  -19.6697  -27.3189   20.6727 H   0  0  0  0  0  0
  -17.4222  -26.6671   21.4024 H   0  0  0  0  0  0
  -18.0345  -26.0096   22.9032 H   0  0  0  0  0  0
  -19.7955  -30.7284   24.2249 H   0  0  0  0  0  0
  -17.5032  -31.6285   24.5131 H   0  0  0  0  0  0
  -15.5365  -30.2960   23.7710 H   0  0  0  0  0  0
  -15.8687  -28.0795   22.7119 H   0  0  0  0  0  0
  -24.5846  -30.7188   25.7721 H   0  0  0  0  0  0
  -24.8871  -32.3061   26.4694 H   0  0  0  0  0  0
  -25.7918  -30.9101   27.0247 H   0  0  0  0  0  0
  -26.3009  -29.6701   24.1290 H   0  0  0  0  0  0
  -27.3856  -29.7262   25.4980 H   0  0  0  0  0  0
  -27.8978  -30.4152   23.9755 H   0  0  0  0  0  0
  -27.2556  -33.3681   26.2069 H   0  0  0  0  0  0
  -28.3881  -32.6952   25.0424 H   0  0  0  0  0  0
  -28.0624  -31.8540   26.5515 H   0  0  0  0  0  0
  -28.2636  -38.0010   24.7404 H   0  0  0  0  0  0
  -28.0962  -36.2543   24.6484 H   0  0  0  0  0  0
  -27.2239  -37.1657   25.8872 H   0  0  0  0  0  0
  -20.9550  -29.8662   21.6687 H   0  0  0  0  0  0
  -26.0152  -38.2794   24.1350 H   0  0  0  0  0  0
  -26.3603  -18.5604   22.1944 H   0  0  0  0  0  0
  -27.7373  -16.7090   21.4510 H   0  0  0  0  0  0
  -26.8792  -20.8939   21.7251 H   0  0  0  0  0  0
  -30.4073  -19.5732   19.5952 H   0  0  0  0  0  0
  -29.2114  -25.7121   22.3509 H   0  0  0  0  0  0
  -29.9386  -21.4834   22.4301 H   0  0  0  0  0  0
  -29.2364  -17.3804   18.1948 H   0  0  0  0  0  0
  -30.4060  -22.8346   24.0523 H   0  0  0  0  0  0
  1 25  1  0  0  0
  1 30  2  0  0  0
  1 82  1  0  0  0
  2  3  1  0  0  0
  2 25  1  0  0  0
  2 87  1  0  0  0
  2 88  1  0  0  0
  3  4  1  0  0  0
  3 89  1  0  0  0
  3 90  1  0  0  0
  4  5  1  0  0  0
  4 91  1  0  0  0
  4 92  1  0  0  0
  5  6  1  0  0  0
  5 26  1  0  0  0
  5 93  1  0  0  0
  6 25  1  0  0  0
  6 94  1  0  0  0
  6 95  1  0  0  0
  7  8  2  0  0  0
  7 26  1  0  0  0
  7 29  1  0  0  0
  8  9  1  0  0  0
  8 22  1  0  0  0
  9 10  1  0  0  0
  9 27  2  0  0  0
 10 11  2  0  0  0
 10 15  1  0  0  0
 11 12  1  0  0  0
 11 96  1  0  0  0
 12 13  2  0  0  0
 12 97  1  0  0  0
 13 14  1  0  0  0
 13 31  1  0  0  0
 14 15  2  0  0  0
 14 98  1  0  0  0
 15 99  1  0  0  0
 16 17  2  0  0  0
 16 21  1  0  0  0
 16 31  1  0  0  0
 17 18  1  0  0  0
 17100  1  0  0  0
 18 19  2  0  0  0
 18101  1  0  0  0
 19 20  1  0  0  0
 19 24  1  0  0  0
 20 21  2  0  0  0
 20102  1  0  0  0
 21 23  1  0  0  0
 22 28  1  0  0  0
 22 32  2  0  0  0
 26 27  1  0  0  0
 28103  1  0  0  0
 28104  1  0  0  0
 29105  1  0  0  0
 29106  1  0  0  0
 33 34  1  0  0  0
 33 66  1  0  0  0
 33 70  2  0  0  0
 34 36  1  0  0  0
 34 59  1  0  0  0
 34107  1  0  0  0
 35 44  2  0  0  0
 35 45  1  0  0  0
 35 68  1  0  0  0
 36 56  1  0  0  0
 36108  1  0  0  0
 37 39  1  0  0  0
 37 47  1  0  0  0
 37 66  1  0  0  0
 37109  1  0  0  0
 38 43  2  0  0  0
 38 46  1  0  0  0
 38 47  1  0  0  0
 39 64  1  0  0  0
 39 67  2  0  0  0
 40 52  1  0  0  0
 40 53  2  0  0  0
 40 58  1  0  0  0
 41110  1  0  0  0
 41111  1  0  0  0
 41112  1  0  0  0
 41 48  1  0  0  0
 42 43  1  0  0  0
 42 66  1  0  0  0
 42113  1  0  0  0
 42114  1  0  0  0
 43 44  1  0  0  0
 44115  1  0  0  0
 45 46  2  0  0  0
 45116  1  0  0  0
 46117  1  0  0  0
 47118  1  0  0  0
 47119  1  0  0  0
 48 56  1  0  0  0
 48 65  1  0  0  0
 48120  1  0  0  0
 49 50  1  0  0  0
 49 53  1  0  0  0
 49 64  1  0  0  0
 49121  1  0  0  0
 50 51  1  0  0  0
 50122  1  0  0  0
 50123  1  0  0  0
 51 52  1  0  0  0
 51124  1  0  0  0
 51125  1  0  0  0
 52126  1  0  0  0
 52127  1  0  0  0
 53 54  1  0  0  0
 54 55  2  0  0  0
 54128  1  0  0  0
 55 57  1  0  0  0
 55129  1  0  0  0
 56 69  2  0  0  0
 57 58  2  0  0  0
 57130  1  0  0  0
 58131  1  0  0  0
 59 60  1  0  0  0
 59 61  1  0  0  0
 59 62  1  0  0  0
 60132  1  0  0  0
 60133  1  0  0  0
 60134  1  0  0  0
 61135  1  0  0  0
 61136  1  0  0  0
 61137  1  0  0  0
 62138  1  0  0  0
 62139  1  0  0  0
 62140  1  0  0  0
 63 65  1  0  0  0
 63141  1  0  0  0
 63142  1  0  0  0
 63143  1  0  0  0
 64144  1  0  0  0
 65145  1  0  0  0
 68 79  1  0  0  0
 71 72  2  0  0  0
 71 73  1  0  0  0
 71146  1  0  0  0
 72 75  1  0  0  0
 72147  1  0  0  0
 73 76  2  0  0  0
 73148  1  0  0  0
 74 75  2  0  0  0
 74 76  1  0  0  0
 74149  1  0  0  0
 75 82  1  0  0  0
 76 84  1  0  0  0
 77 79  2  0  0  0
 77 80  1  0  0  0
 77150  1  0  0  0
 78 80  2  0  0  0
 78 84  1  0  0  0
 78151  1  0  0  0
 79 81  1  0  0  0
 80 86  1  0  0  0
 81 84  1  0  0  0
 81 85  2  0  0  0
 82 83  2  0  0  0
 83152  1  0  0  0
 86153  1  0  0  0
M  ISO  4   1 100  68 101  79 101  82 100
M  END
> <chiral flag>
0

> <version>
0

> <s_m_source_file>
/data/baiqing/PycharmProjects/Reinvent-master-3.2/result/LINK_invent/BTK/process_docking_weight1_custom_product_contain_oxygen_bond_distance_aromatic_linkinvent_7_9_3/rearranged_h_0080.sdf

> <i_m_source_file_index>
36

> <r_mmod_Potential_Energy-OPLS-2005>
1138.37426757812

> <r_mmod_Stretch_Energy-OPLS-2005>
372.593048095703

> <r_mmod_Bend_Energy-OPLS-2005>
350.469421386719

> <r_mmod_Torsional_Energy-OPLS-2005>
363.247161865234

> <r_mmod_Improper_Torsional_Energy-OPLS-2005>
32.032039642334

> <r_mmod_Van_der_Waal_Energy-OPLS-2005>
132.327499389648

> <r_mmod_Electrostatic_Energy-OPLS-2005>
-162.309448242188

> <r_mmod_Solvation_Energy-OPLS-2005>
-230.024658203125

> <b_mmod_Minimization_Converged-OPLS-2005>
0

> <r_mmod_RMS_Derivative-OPLS-2005>
4.29325580596924

$$$$
36
                    3D
 Structure written by MMmdl.
160169  0  0  1  0            999 V2000
  -30.6445  -14.6758   20.4393 C   0  0  0  0  0  0
  -30.4235  -12.4029   19.4797 C   0  0  0  0  0  0
  -29.5146  -12.4930   18.2357 C   0  0  0  0  0  0
  -28.0345  -12.3421   18.6368 C   0  0  0  0  0  0
  -27.6447  -13.2284   19.8509 C   0  0  2  0  0  0
  -28.6848  -13.1540   20.9896 C   0  0  0  0  0  0
  -25.2528  -13.8183   20.5675 C   0  0  0  0  0  0
  -24.1819  -13.0432   20.9188 C   0  0  0  0  0  0
  -24.6414  -11.6911   20.8727 C   0  0  0  0  0  0
  -23.9083  -10.4293   21.0402 C   0  0  0  0  0  0
  -24.3633   -9.4206   21.9178 C   0  0  0  0  0  0
  -23.6296   -8.2251   22.0761 C   0  0  0  0  0  0
  -22.4282   -8.0290   21.3544 C   0  0  0  0  0  0
  -21.9904   -9.0268   20.4657 C   0  0  0  0  0  0
  -22.7249  -10.2136   20.3058 C   0  0  0  0  0  0
  -21.6855   -6.0730   22.5279 C   0  0  0  0  0  0
  -21.4023   -6.5633   23.8211 C   0  0  0  0  0  0
  -21.3660   -5.6794   24.9174 C   0  0  0  0  0  0
  -21.6042   -4.3057   24.7227 C   0  0  0  0  0  0
  -21.8827   -3.8142   23.4352 C   0  0  0  0  0  0
  -21.9192   -4.6955   22.3401 C   0  0  0  0  0  0
  -22.7843  -13.5225   21.1844 C   0  0  0  0  0  0
  -22.1664   -4.2148   21.0974 F   0  0  0  0  0  0
  -21.5622   -3.4540   25.7732 F   0  0  0  0  0  0
  -29.9981  -13.4663   20.4165 N   0  0  0  0  0  0
  -26.2956  -12.9389   20.3267 N   0  0  0  0  0  0
  -25.9343  -11.6535   20.5738 N   0  0  0  0  0  0
  -22.0472  -12.8228   22.0396 N   0  0  0  0  0  0
  -25.4218  -15.1906   20.4094 N   0  0  0  0  0  0
  -31.8433  -14.7249   20.1569 O   0  0  0  0  0  0
  -21.6647   -6.8884   21.4245 O   0  0  0  0  0  0
  -22.3529  -14.5526   20.6678 O   0  0  0  0  0  0
  -24.6257  -31.8579   23.2022 C   0  0  0  0  0  0
  -25.9103  -32.4771   23.8343 C   0  0  1  0  0  0
  -27.2258  -27.3175   20.1207 C   0  0  0  0  0  0
  -25.5924  -33.8570   24.2273 N   0  0  0  0  0  0
  -23.4190  -30.4810   21.5447 C   0  0  2  0  0  0
  -24.8639  -28.9346   20.1098 C   0  0  0  0  0  0
  -22.7468  -29.4602   22.4937 C   0  0  0  0  0  0
  -18.0286  -28.1393   22.8467 C   0  0  0  0  0  0
  -24.1493  -36.7292   23.2639 C   0  0  0  0  0  0
  -25.9591  -30.7890   21.3718 C   0  0  0  0  0  0
  -26.0310  -29.4160   20.7143 C   0  0  0  0  0  0
  -27.2118  -28.6181   20.7109 C   0  0  0  0  0  0
  -26.0314  -26.8800   19.5048 C   0  0  0  0  0  0
  -24.8652  -27.6713   19.4974 C   0  0  0  0  0  0
  -23.6311  -29.8141   20.1598 C   0  0  0  0  0  0
  -25.4111  -36.3073   24.0332 C   0  0  1  0  0  0
  -20.5885  -28.3674   23.1289 C   0  0  2  0  0  0
  -20.6769  -26.9395   22.5413 C   0  0  0  0  0  0
  -19.5746  -26.6376   21.5208 C   0  0  0  0  0  0
  -18.1924  -26.7932   22.1615 C   0  0  0  0  0  0
  -19.1539  -28.8850   23.2873 C   0  0  0  0  0  0
  -18.9459  -30.1451   23.8888 C   0  0  0  0  0  0
  -17.6461  -30.6580   24.0563 C   0  0  0  0  0  0
  -25.9040  -34.9442   23.5095 C   0  0  0  0  0  0
  -16.5354  -29.9071   23.6343 C   0  0  0  0  0  0
  -16.7271  -28.6503   23.0332 C   0  0  0  0  0  0
  -26.4493  -31.6582   25.0715 C   0  0  0  0  0  0
  -25.3734  -31.3742   26.1459 C   0  0  0  0  0  0
  -27.0334  -30.2998   24.6170 C   0  0  0  0  0  0
  -27.6043  -32.4330   25.7486 C   0  0  0  0  0  0
  -27.5581  -37.1796   24.8453 C   0  0  0  0  0  0
  -21.4181  -29.3033   22.3687 N   0  0  0  0  0  0
  -26.4289  -37.3762   23.9403 N   0  0  0  0  0  0
  -24.6868  -31.0592   22.0969 N   0  0  0  0  0  0
  -23.4190  -28.8130   23.3008 O   0  0  0  0  0  0
  -28.3640  -26.4986   20.1805 O   0  0  0  0  0  0
  -26.5601  -34.8906   22.4658 O   0  0  0  0  0  0
  -23.5424  -32.1401   23.7343 O   0  0  0  0  0  0
  -30.5236  -19.5082   20.3654 C   0  0  0  0  0  0
  -28.1983  -19.0173   20.0797 C   0  0  0  0  0  0
  -30.2334  -20.9104   20.3799 C   0  0  0  0  0  0
  -27.9069  -20.4167   20.0860 C   0  0  0  0  0  0
  -28.1577  -24.6079   18.5133 C   0  0  0  0  0  0
  -29.5316  -18.5096   20.1147 C   0  0  0  0  0  0
  -28.9223  -21.4061   20.1610 C   0  0  0  0  0  0
  -28.3686  -25.1301   19.8235 C   0  0  0  0  0  0
  -28.3108  -23.2448   18.5500 C   0  0  0  0  0  0
  -28.6828  -24.0049   20.5903 C   0  0  0  0  0  0
  -31.2584  -17.1692   18.8221 C   0  0  0  0  0  0
  -28.8849  -16.6869   18.4679 C   0  0  0  0  0  0
  -29.9062  -17.0456   19.5756 C   0  0  0  0  0  0
  -28.6508  -22.8093   19.8276 N   0  0  0  0  0  0
  -29.8720  -15.8236   20.4929 N   0  0  0  0  0  0
  -28.1987  -22.3581   17.5209 O   0  0  0  0  0  0
  -29.0121  -23.9638   21.9102 O   0  0  0  0  0  0
  -31.4694  -12.4976   19.1828 H   0  0  0  0  0  0
  -30.3393  -11.4242   19.9537 H   0  0  0  0  0  0
  -29.7861  -11.7219   17.5144 H   0  0  0  0  0  0
  -29.6714  -13.4466   17.7307 H   0  0  0  0  0  0
  -27.8639  -11.2919   18.8725 H   0  0  0  0  0  0
  -27.3928  -12.5692   17.7851 H   0  0  0  0  0  0
  -27.6411  -14.2512   19.4802 H   0  0  0  0  0  0
  -28.6931  -12.1612   21.4404 H   0  0  0  0  0  0
  -28.4325  -13.8525   21.7896 H   0  0  0  0  0  0
  -25.2781   -9.5679   22.4748 H   0  0  0  0  0  0
  -23.9997   -7.4636   22.7481 H   0  0  0  0  0  0
  -21.0832   -8.8805   19.8959 H   0  0  0  0  0  0
  -22.3715  -10.9682   19.6173 H   0  0  0  0  0  0
  -21.2029   -7.6142   23.9715 H   0  0  0  0  0  0
  -21.1468   -6.0521   25.9076 H   0  0  0  0  0  0
  -22.0600   -2.7603   23.2854 H   0  0  0  0  0  0
  -22.4080  -11.9897   22.4814 H   0  0  0  0  0  0
  -21.1091  -13.1284   22.2578 H   0  0  0  0  0  0
  -24.6497  -15.8405   20.5119 H   0  0  0  0  0  0
  -26.2683  -15.6271   20.0714 H   0  0  0  0  0  0
  -26.7153  -32.5440   23.1073 H   0  0  0  0  0  0
  -25.0088  -33.9710   25.0429 H   0  0  0  0  0  0
  -22.7155  -31.3040   21.4040 H   0  0  0  0  0  0
  -23.3748  -35.9630   23.3292 H   0  0  0  0  0  0
  -24.3601  -36.8923   22.2057 H   0  0  0  0  0  0
  -23.7242  -37.6487   23.6670 H   0  0  0  0  0  0
  -26.0907  -31.5515   20.6031 H   0  0  0  0  0  0
  -26.8400  -30.8369   22.0010 H   0  0  0  0  0  0
  -28.1095  -28.9826   21.1909 H   0  0  0  0  0  0
  -25.9695  -25.9055   19.0467 H   0  0  0  0  0  0
  -23.9685  -27.2918   19.0270 H   0  0  0  0  0  0
  -23.7450  -30.5917   19.4039 H   0  0  0  0  0  0
  -22.7508  -29.2427   19.8597 H   0  0  0  0  0  0
  -25.1284  -36.1929   25.0823 H   0  0  0  0  0  0
  -20.9973  -28.3244   24.1412 H   0  0  0  0  0  0
  -20.5664  -26.2271   23.3604 H   0  0  0  0  0  0
  -21.6639  -26.7424   22.1218 H   0  0  0  0  0  0
  -19.6905  -25.6283   21.1233 H   0  0  0  0  0  0
  -19.6695  -27.3192   20.6741 H   0  0  0  0  0  0
  -17.4197  -26.6672   21.4022 H   0  0  0  0  0  0
  -18.0325  -26.0089   22.9023 H   0  0  0  0  0  0
  -19.7930  -30.7268   24.2257 H   0  0  0  0  0  0
  -17.5008  -31.6268   24.5143 H   0  0  0  0  0  0
  -15.5343  -30.2956   23.7688 H   0  0  0  0  0  0
  -15.8674  -28.0821   22.7034 H   0  0  0  0  0  0
  -24.5880  -30.7116   25.7804 H   0  0  0  0  0  0
  -24.8974  -32.2933   26.4885 H   0  0  0  0  0  0
  -25.8074  -30.8916   27.0224 H   0  0  0  0  0  0
  -26.2909  -29.6747   24.1199 H   0  0  0  0  0  0
  -27.4029  -29.7249   25.4668 H   0  0  0  0  0  0
  -27.8778  -30.4273   23.9395 H   0  0  0  0  0  0
  -27.2626  -33.3614   26.2072 H   0  0  0  0  0  0
  -28.3849  -32.6920   25.0321 H   0  0  0  0  0  0
  -28.0716  -31.8458   26.5400 H   0  0  0  0  0  0
  -28.2574  -38.0111   24.7506 H   0  0  0  0  0  0
  -28.1099  -36.2642   24.6265 H   0  0  0  0  0  0
  -27.2312  -37.1428   25.8858 H   0  0  0  0  0  0
  -20.9348  -29.8751   21.6904 H   0  0  0  0  0  0
  -26.0174  -38.2836   24.1405 H   0  0  0  0  0  0
  -31.5637  -19.2266   20.4316 H   0  0  0  0  0  0
  -27.3670  -18.3492   19.9183 H   0  0  0  0  0  0
  -31.0508  -21.6136   20.4612 H   0  0  0  0  0  0
  -26.8846  -20.7314   19.9299 H   0  0  0  0  0  0
  -27.9269  -25.1851   17.6294 H   0  0  0  0  0  0
  -31.2539  -18.0184   18.1369 H   0  0  0  0  0  0
  -31.4773  -16.2959   18.2061 H   0  0  0  0  0  0
  -32.1005  -17.3019   19.5022 H   0  0  0  0  0  0
  -28.8189  -17.4739   17.7160 H   0  0  0  0  0  0
  -27.8818  -16.5247   18.8597 H   0  0  0  0  0  0
  -29.1614  -15.7739   17.9403 H   0  0  0  0  0  0
  -28.9642  -15.6650   20.9023 H   0  0  0  0  0  0
  -27.9739  -22.8453   16.7342 H   0  0  0  0  0  0
  -28.9838  -24.8601   22.2319 H   0  0  0  0  0  0
  1 25  1  0  0  0
  1 30  2  0  0  0
  1 85  1  0  0  0
  2  3  1  0  0  0
  2 25  1  0  0  0
  2 88  1  0  0  0
  2 89  1  0  0  0
  3  4  1  0  0  0
  3 90  1  0  0  0
  3 91  1  0  0  0
  4  5  1  0  0  0
  4 92  1  0  0  0
  4 93  1  0  0  0
  5  6  1  0  0  0
  5 26  1  0  0  0
  5 94  1  0  0  0
  6 25  1  0  0  0
  6 95  1  0  0  0
  6 96  1  0  0  0
  7  8  2  0  0  0
  7 26  1  0  0  0
  7 29  1  0  0  0
  8  9  1  0  0  0
  8 22  1  0  0  0
  9 10  1  0  0  0
  9 27  2  0  0  0
 10 11  2  0  0  0
 10 15  1  0  0  0
 11 12  1  0  0  0
 11 97  1  0  0  0
 12 13  2  0  0  0
 12 98  1  0  0  0
 13 14  1  0  0  0
 13 31  1  0  0  0
 14 15  2  0  0  0
 14 99  1  0  0  0
 15100  1  0  0  0
 16 17  2  0  0  0
 16 21  1  0  0  0
 16 31  1  0  0  0
 17 18  1  0  0  0
 17101  1  0  0  0
 18 19  2  0  0  0
 18102  1  0  0  0
 19 20  1  0  0  0
 19 24  1  0  0  0
 20 21  2  0  0  0
 20103  1  0  0  0
 21 23  1  0  0  0
 22 28  1  0  0  0
 22 32  2  0  0  0
 26 27  1  0  0  0
 28104  1  0  0  0
 28105  1  0  0  0
 29106  1  0  0  0
 29107  1  0  0  0
 33 34  1  0  0  0
 33 66  1  0  0  0
 33 70  2  0  0  0
 34 36  1  0  0  0
 34 59  1  0  0  0
 34108  1  0  0  0
 35 44  2  0  0  0
 35 45  1  0  0  0
 35 68  1  0  0  0
 36 56  1  0  0  0
 36109  1  0  0  0
 37 39  1  0  0  0
 37 47  1  0  0  0
 37 66  1  0  0  0
 37110  1  0  0  0
 38 43  2  0  0  0
 38 46  1  0  0  0
 38 47  1  0  0  0
 39 64  1  0  0  0
 39 67  2  0  0  0
 40 52  1  0  0  0
 40 53  2  0  0  0
 40 58  1  0  0  0
 41111  1  0  0  0
 41112  1  0  0  0
 41113  1  0  0  0
 41 48  1  0  0  0
 42 43  1  0  0  0
 42 66  1  0  0  0
 42114  1  0  0  0
 42115  1  0  0  0
 43 44  1  0  0  0
 44116  1  0  0  0
 45 46  2  0  0  0
 45117  1  0  0  0
 46118  1  0  0  0
 47119  1  0  0  0
 47120  1  0  0  0
 48 56  1  0  0  0
 48 65  1  0  0  0
 48121  1  0  0  0
 49 50  1  0  0  0
 49 53  1  0  0  0
 49 64  1  0  0  0
 49122  1  0  0  0
 50 51  1  0  0  0
 50123  1  0  0  0
 50124  1  0  0  0
 51 52  1  0  0  0
 51125  1  0  0  0
 51126  1  0  0  0
 52127  1  0  0  0
 52128  1  0  0  0
 53 54  1  0  0  0
 54 55  2  0  0  0
 54129  1  0  0  0
 55 57  1  0  0  0
 55130  1  0  0  0
 56 69  2  0  0  0
 57 58  2  0  0  0
 57131  1  0  0  0
 58132  1  0  0  0
 59 60  1  0  0  0
 59 61  1  0  0  0
 59 62  1  0  0  0
 60133  1  0  0  0
 60134  1  0  0  0
 60135  1  0  0  0
 61136  1  0  0  0
 61137  1  0  0  0
 61138  1  0  0  0
 62139  1  0  0  0
 62140  1  0  0  0
 62141  1  0  0  0
 63 65  1  0  0  0
 63142  1  0  0  0
 63143  1  0  0  0
 63144  1  0  0  0
 64145  1  0  0  0
 65146  1  0  0  0
 68 78  1  0  0  0
 71 73  2  0  0  0
 71 76  1  0  0  0
 71147  1  0  0  0
 72 74  1  0  0  0
 72 76  2  0  0  0
 72148  1  0  0  0
 73 77  1  0  0  0
 73149  1  0  0  0
 74 77  2  0  0  0
 74150  1  0  0  0
 75 78  1  0  0  0
 75 79  2  0  0  0
 75151  1  0  0  0
 76 83  1  0  0  0
 77 84  1  0  0  0
 78 80  2  0  0  0
 79 84  1  0  0  0
 79 86  1  0  0  0
 80 84  1  0  0  0
 80 87  1  0  0  0
 81152  1  0  0  0
 81153  1  0  0  0
 81154  1  0  0  0
 81 83  1  0  0  0
 82 83  1  0  0  0
 82155  1  0  0  0
 82156  1  0  0  0
 82157  1  0  0  0
 83 85  1  0  0  0
 85158  1  0  0  0
 86159  1  0  0  0
 87160  1  0  0  0
M  ISO  4   1 100  68 101  78 101  85 100
M  END
> <chiral flag>
0

> <version>
0

> <s_m_source_file>
/data/baiqing/PycharmProjects/Reinvent-master-3.2/result/LINK_invent/BTK/process_docking_weight1_custom_product_contain_oxygen_bond_distance_aromatic_linkinvent_7_9_3/rearranged_h_0080.sdf

> <i_m_source_file_index>
37

> <r_mmod_Potential_Energy-OPLS-2005>
125.603935241699

> <r_mmod_Stretch_Energy-OPLS-2005>
88.983039855957

> <r_mmod_Bend_Energy-OPLS-2005>
149.052139282227

> <r_mmod_Torsional_Energy-OPLS-2005>
269.037628173828

> <r_mmod_Improper_Torsional_Energy-OPLS-2005>
13.1090126037598

> <r_mmod_Van_der_Waal_Energy-OPLS-2005>
147.754745483398

> <r_mmod_Electrostatic_Energy-OPLS-2005>
-369.091613769531

> <r_mmod_Solvation_Energy-OPLS-2005>
-230.942672729492

> <b_mmod_Minimization_Converged-OPLS-2005>
0

> <r_mmod_RMS_Derivative-OPLS-2005>
2.23708868026733

$$$$
37
                    3D
 Structure written by MMmdl.
156165  0  0  1  0            999 V2000
  -30.6637  -14.6308   20.4953 C   0  0  0  0  0  0
  -30.4242  -12.3915   19.4458 C   0  0  0  0  0  0
  -29.4984  -12.4974   18.2167 C   0  0  0  0  0  0
  -28.0241  -12.3353   18.6356 C   0  0  0  0  0  0
  -27.6447  -13.2219   19.8522 C   0  0  2  0  0  0
  -28.6919  -13.1164   20.9823 C   0  0  0  0  0  0
  -25.2525  -13.8183   20.5683 C   0  0  0  0  0  0
  -24.1813  -13.0431   20.9202 C   0  0  0  0  0  0
  -24.6398  -11.6910   20.8744 C   0  0  0  0  0  0
  -23.9076  -10.4288   21.0400 C   0  0  0  0  0  0
  -24.3629   -9.4206   21.9178 C   0  0  0  0  0  0
  -23.6304   -8.2242   22.0747 C   0  0  0  0  0  0
  -22.4282   -8.0281   21.3542 C   0  0  0  0  0  0
  -21.9921   -9.0252   20.4637 C   0  0  0  0  0  0
  -22.7249  -10.2132   20.3049 C   0  0  0  0  0  0
  -21.6860   -6.0734   22.5278 C   0  0  0  0  0  0
  -21.4011   -6.5638   23.8208 C   0  0  0  0  0  0
  -21.3662   -5.6796   24.9176 C   0  0  0  0  0  0
  -21.6048   -4.3057   24.7228 C   0  0  0  0  0  0
  -21.8819   -3.8145   23.4348 C   0  0  0  0  0  0
  -21.9189   -4.6961   22.3402 C   0  0  0  0  0  0
  -22.7835  -13.5220   21.1880 C   0  0  0  0  0  0
  -22.1661   -4.2149   21.0981 F   0  0  0  0  0  0
  -21.5645   -3.4538   25.7740 F   0  0  0  0  0  0
  -30.0000  -13.4371   20.3978 N   0  0  0  0  0  0
  -26.2950  -12.9377   20.3282 N   0  0  0  0  0  0
  -25.9323  -11.6527   20.5746 N   0  0  0  0  0  0
  -22.0481  -12.8191   22.0420 N   0  0  0  0  0  0
  -25.4179  -15.1914   20.4105 N   0  0  0  0  0  0
  -31.8631  -14.6927   20.2111 O   0  0  0  0  0  0
  -21.6645   -6.8877   21.4238 O   0  0  0  0  0  0
  -22.3509  -14.5521   20.6735 O   0  0  0  0  0  0
  -24.6213  -31.8633   23.2046 C   0  0  0  0  0  0
  -25.9079  -32.4799   23.8364 C   0  0  1  0  0  0
  -27.2205  -27.3541   20.1268 C   0  0  0  0  0  0
  -25.5902  -33.8598   24.2292 N   0  0  0  0  0  0
  -23.4139  -30.4866   21.5455 C   0  0  2  0  0  0
  -24.8633  -28.9423   20.1154 C   0  0  0  0  0  0
  -22.7440  -29.4645   22.4944 C   0  0  0  0  0  0
  -18.0288  -28.1360   22.8506 C   0  0  0  0  0  0
  -24.1490  -36.7310   23.2642 C   0  0  0  0  0  0
  -25.9517  -30.8043   21.3715 C   0  0  0  0  0  0
  -26.0280  -29.4303   20.7248 C   0  0  0  0  0  0
  -27.2134  -28.6430   20.7312 C   0  0  0  0  0  0
  -26.0444  -26.9037   19.4998 C   0  0  0  0  0  0
  -24.8699  -27.6800   19.4979 C   0  0  0  0  0  0
  -23.6299  -29.8198   20.1611 C   0  0  0  0  0  0
  -25.4113  -36.3095   24.0334 C   0  0  1  0  0  0
  -20.5889  -28.3675   23.1278 C   0  0  2  0  0  0
  -20.6792  -26.9404   22.5396 C   0  0  0  0  0  0
  -19.5750  -26.6366   21.5219 C   0  0  0  0  0  0
  -18.1932  -26.7908   22.1647 C   0  0  0  0  0  0
  -19.1544  -28.8831   23.2887 C   0  0  0  0  0  0
  -18.9468  -30.1436   23.8899 C   0  0  0  0  0  0
  -17.6471  -30.6579   24.0552 C   0  0  0  0  0  0
  -25.9040  -34.9464   23.5113 C   0  0  0  0  0  0
  -16.5360  -29.9084   23.6318 C   0  0  0  0  0  0
  -16.7279  -28.6490   23.0363 C   0  0  0  0  0  0
  -26.4480  -31.6593   25.0725 C   0  0  0  0  0  0
  -25.3726  -31.3724   26.1462 C   0  0  0  0  0  0
  -27.0317  -30.3021   24.6144 C   0  0  0  0  0  0
  -27.6040  -32.4323   25.7505 C   0  0  0  0  0  0
  -27.5581  -37.1811   24.8466 C   0  0  0  0  0  0
  -21.4162  -29.3045   22.3677 N   0  0  0  0  0  0
  -26.4295  -37.3784   23.9405 N   0  0  0  0  0  0
  -24.6812  -31.0676   22.0983 N   0  0  0  0  0  0
  -23.4179  -28.8176   23.3002 O   0  0  0  0  0  0
  -28.3091  -26.4909   20.1027 O   0  0  0  0  0  0
  -26.5610  -34.8926   22.4679 O   0  0  0  0  0  0
  -23.5384  -32.1411   23.7399 O   0  0  0  0  0  0
  -27.6351  -19.1000   18.8995 C   0  0  0  0  0  0
  -28.4019  -18.0206   19.3829 C   0  0  0  0  0  0
  -27.8421  -20.4128   19.3683 C   0  0  0  0  0  0
  -29.5796  -19.5709   20.8446 C   0  0  0  0  0  0
  -29.3981  -18.2227   20.3641 C   0  0  0  0  0  0
  -28.8121  -20.6915   20.3587 C   0  0  0  0  0  0
  -28.7056  -24.3368   21.3403 C   0  0  0  0  0  0
  -29.0067  -23.6603   22.5781 C   0  0  0  0  0  0
  -28.6610  -23.2737   20.3135 C   0  0  0  0  0  0
  -28.9817  -24.2031   23.8103 C   0  0  0  0  0  0
  -28.5176  -25.6970   21.2246 C   0  0  0  0  0  0
  -30.3269  -17.0609   20.7640 C   0  0  0  0  0  0
  -29.3063  -22.2135   22.3090 C   0  0  0  0  0  0
  -28.9394  -22.0495   20.9040 N   0  0  0  0  0  0
  -29.8979  -15.7617   20.6454 N   0  0  0  0  0  0
  -28.4195  -23.4395   19.1130 O   0  0  0  0  0  0
  -31.4486  -17.3567   21.1937 O   0  0  0  0  0  0
  -31.4670  -12.4992   19.1419 H   0  0  0  0  0  0
  -30.3472  -11.4050   19.9053 H   0  0  0  0  0  0
  -29.7642  -11.7410   17.4778 H   0  0  0  0  0  0
  -29.6410  -13.4627   17.7285 H   0  0  0  0  0  0
  -27.8680  -11.2843   18.8816 H   0  0  0  0  0  0
  -27.3676  -12.5479   17.7912 H   0  0  0  0  0  0
  -27.6494  -14.2498   19.4905 H   0  0  0  0  0  0
  -28.7057  -12.1123   21.4088 H   0  0  0  0  0  0
  -28.4470  -13.7921   21.8034 H   0  0  0  0  0  0
  -25.2772   -9.5694   22.4749 H   0  0  0  0  0  0
  -24.0015   -7.4637   22.7468 H   0  0  0  0  0  0
  -21.0854   -8.8778   19.8938 H   0  0  0  0  0  0
  -22.3708  -10.9678   19.6163 H   0  0  0  0  0  0
  -21.1990   -7.6143   23.9715 H   0  0  0  0  0  0
  -21.1495   -6.0522   25.9083 H   0  0  0  0  0  0
  -22.0589   -2.7602   23.2849 H   0  0  0  0  0  0
  -22.4116  -11.9858   22.4809 H   0  0  0  0  0  0
  -21.1094  -13.1193   22.2624 H   0  0  0  0  0  0
  -24.6419  -15.8365   20.5172 H   0  0  0  0  0  0
  -26.2542  -15.6402   20.0635 H   0  0  0  0  0  0
  -26.7149  -32.5494   23.1120 H   0  0  0  0  0  0
  -25.0049  -33.9742   25.0434 H   0  0  0  0  0  0
  -22.7063  -31.3058   21.4020 H   0  0  0  0  0  0
  -23.3743  -35.9651   23.3305 H   0  0  0  0  0  0
  -24.3583  -36.8931   22.2057 H   0  0  0  0  0  0
  -23.7250  -37.6521   23.6655 H   0  0  0  0  0  0
  -26.0737  -31.5636   20.5978 H   0  0  0  0  0  0
  -26.8360  -30.8596   21.9940 H   0  0  0  0  0  0
  -28.1089  -29.0113   21.2111 H   0  0  0  0  0  0
  -26.0373  -25.9311   19.0280 H   0  0  0  0  0  0
  -23.9774  -27.2973   19.0217 H   0  0  0  0  0  0
  -23.7477  -30.5961   19.4044 H   0  0  0  0  0  0
  -22.7501  -29.2483   19.8597 H   0  0  0  0  0  0
  -25.1287  -36.1957   25.0826 H   0  0  0  0  0  0
  -20.9988  -28.3249   24.1400 H   0  0  0  0  0  0
  -20.5712  -26.2282   23.3595 H   0  0  0  0  0  0
  -21.6653  -26.7453   22.1164 H   0  0  0  0  0  0
  -19.6898  -25.6272   21.1246 H   0  0  0  0  0  0
  -19.6666  -27.3179   20.6746 H   0  0  0  0  0  0
  -17.4191  -26.6637   21.4061 H   0  0  0  0  0  0
  -18.0341  -26.0049   22.9049 H   0  0  0  0  0  0
  -19.7945  -30.7253   24.2264 H   0  0  0  0  0  0
  -17.5038  -31.6273   24.5132 H   0  0  0  0  0  0
  -15.5361  -30.2994   23.7635 H   0  0  0  0  0  0
  -15.8681  -28.0799   22.7086 H   0  0  0  0  0  0
  -24.5884  -30.7090   25.7798 H   0  0  0  0  0  0
  -24.8945  -32.2899   26.4904 H   0  0  0  0  0  0
  -25.8068  -30.8892   27.0223 H   0  0  0  0  0  0
  -26.2884  -29.6788   24.1164 H   0  0  0  0  0  0
  -27.4026  -29.7253   25.4625 H   0  0  0  0  0  0
  -27.8740  -30.4321   23.9347 H   0  0  0  0  0  0
  -27.2629  -33.3602   26.2101 H   0  0  0  0  0  0
  -28.3845  -32.6916   25.0343 H   0  0  0  0  0  0
  -28.0702  -31.8440   26.5415 H   0  0  0  0  0  0
  -28.2599  -38.0108   24.7498 H   0  0  0  0  0  0
  -28.1070  -36.2635   24.6293 H   0  0  0  0  0  0
  -27.2296  -37.1469   25.8869 H   0  0  0  0  0  0
  -20.9317  -29.8773   21.6914 H   0  0  0  0  0  0
  -26.0180  -38.2863   24.1388 H   0  0  0  0  0  0
  -26.8759  -18.9178   18.1514 H   0  0  0  0  0  0
  -28.2330  -17.0383   18.9646 H   0  0  0  0  0  0
  -27.2158  -21.2000   18.9715 H   0  0  0  0  0  0
  -30.3466  -19.7463   21.5867 H   0  0  0  0  0  0
  -29.2052  -23.6029   24.6807 H   0  0  0  0  0  0
  -28.7399  -25.2410   23.9881 H   0  0  0  0  0  0
  -28.5795  -26.3309   22.0972 H   0  0  0  0  0  0
  -28.7163  -21.5585   22.9516 H   0  0  0  0  0  0
  -30.3668  -22.0112   22.4617 H   0  0  0  0  0  0
  -28.9054  -15.6321   20.5613 H   0  0  0  0  0  0
  1 25  1  0  0  0
  1 30  2  0  0  0
  1 85  1  0  0  0
  2  3  1  0  0  0
  2 25  1  0  0  0
  2 88  1  0  0  0
  2 89  1  0  0  0
  3  4  1  0  0  0
  3 90  1  0  0  0
  3 91  1  0  0  0
  4  5  1  0  0  0
  4 92  1  0  0  0
  4 93  1  0  0  0
  5  6  1  0  0  0
  5 26  1  0  0  0
  5 94  1  0  0  0
  6 25  1  0  0  0
  6 95  1  0  0  0
  6 96  1  0  0  0
  7  8  2  0  0  0
  7 26  1  0  0  0
  7 29  1  0  0  0
  8  9  1  0  0  0
  8 22  1  0  0  0
  9 10  1  0  0  0
  9 27  2  0  0  0
 10 11  2  0  0  0
 10 15  1  0  0  0
 11 12  1  0  0  0
 11 97  1  0  0  0
 12 13  2  0  0  0
 12 98  1  0  0  0
 13 14  1  0  0  0
 13 31  1  0  0  0
 14 15  2  0  0  0
 14 99  1  0  0  0
 15100  1  0  0  0
 16 17  2  0  0  0
 16 21  1  0  0  0
 16 31  1  0  0  0
 17 18  1  0  0  0
 17101  1  0  0  0
 18 19  2  0  0  0
 18102  1  0  0  0
 19 20  1  0  0  0
 19 24  1  0  0  0
 20 21  2  0  0  0
 20103  1  0  0  0
 21 23  1  0  0  0
 22 28  1  0  0  0
 22 32  2  0  0  0
 26 27  1  0  0  0
 28104  1  0  0  0
 28105  1  0  0  0
 29106  1  0  0  0
 29107  1  0  0  0
 33 34  1  0  0  0
 33 66  1  0  0  0
 33 70  2  0  0  0
 34 36  1  0  0  0
 34 59  1  0  0  0
 34108  1  0  0  0
 35 44  2  0  0  0
 35 45  1  0  0  0
 35 68  1  0  0  0
 36 56  1  0  0  0
 36109  1  0  0  0
 37 39  1  0  0  0
 37 47  1  0  0  0
 37 66  1  0  0  0
 37110  1  0  0  0
 38 43  2  0  0  0
 38 46  1  0  0  0
 38 47  1  0  0  0
 39 64  1  0  0  0
 39 67  2  0  0  0
 40 52  1  0  0  0
 40 53  2  0  0  0
 40 58  1  0  0  0
 41111  1  0  0  0
 41112  1  0  0  0
 41113  1  0  0  0
 41 48  1  0  0  0
 42 43  1  0  0  0
 42 66  1  0  0  0
 42114  1  0  0  0
 42115  1  0  0  0
 43 44  1  0  0  0
 44116  1  0  0  0
 45 46  2  0  0  0
 45117  1  0  0  0
 46118  1  0  0  0
 47119  1  0  0  0
 47120  1  0  0  0
 48 56  1  0  0  0
 48 65  1  0  0  0
 48121  1  0  0  0
 49 50  1  0  0  0
 49 53  1  0  0  0
 49 64  1  0  0  0
 49122  1  0  0  0
 50 51  1  0  0  0
 50123  1  0  0  0
 50124  1  0  0  0
 51 52  1  0  0  0
 51125  1  0  0  0
 51126  1  0  0  0
 52127  1  0  0  0
 52128  1  0  0  0
 53 54  1  0  0  0
 54 55  2  0  0  0
 54129  1  0  0  0
 55 57  1  0  0  0
 55130  1  0  0  0
 56 69  2  0  0  0
 57 58  2  0  0  0
 57131  1  0  0  0
 58132  1  0  0  0
 59 60  1  0  0  0
 59 61  1  0  0  0
 59 62  1  0  0  0
 60133  1  0  0  0
 60134  1  0  0  0
 60135  1  0  0  0
 61136  1  0  0  0
 61137  1  0  0  0
 61138  1  0  0  0
 62139  1  0  0  0
 62140  1  0  0  0
 62141  1  0  0  0
 63 65  1  0  0  0
 63142  1  0  0  0
 63143  1  0  0  0
 63144  1  0  0  0
 64145  1  0  0  0
 65146  1  0  0  0
 68 81  1  0  0  0
 71 72  2  0  0  0
 71 73  1  0  0  0
 71147  1  0  0  0
 72 75  1  0  0  0
 72148  1  0  0  0
 73 76  2  0  0  0
 73149  1  0  0  0
 74 75  2  0  0  0
 74 76  1  0  0  0
 74150  1  0  0  0
 75 82  1  0  0  0
 76 84  1  0  0  0
 77 78  1  0  0  0
 77 79  1  0  0  0
 77 81  2  0  0  0
 78 80  2  0  0  0
 78 83  1  0  0  0
 79 84  1  0  0  0
 79 86  2  0  0  0
 80151  1  0  0  0
 80152  1  0  0  0
 81153  1  0  0  0
 82 85  1  0  0  0
 82 87  2  0  0  0
 83 84  1  0  0  0
 83154  1  0  0  0
 83155  1  0  0  0
 85156  1  0  0  0
M  ISO  4   1 100  68 101  81 101  85 100
M  END
> <chiral flag>
0

> <version>
0

> <s_m_source_file>
/data/baiqing/PycharmProjects/Reinvent-master-3.2/result/LINK_invent/BTK/process_docking_weight1_custom_product_contain_oxygen_bond_distance_aromatic_linkinvent_7_9_3/rearranged_h_0080.sdf

> <i_m_source_file_index>
38

> <r_mmod_Potential_Energy-OPLS-2005>
138.477096557617

> <r_mmod_Stretch_Energy-OPLS-2005>
71.7891006469727

> <r_mmod_Bend_Energy-OPLS-2005>
178.136917114258

> <r_mmod_Torsional_Energy-OPLS-2005>
292.836151123047

> <r_mmod_Improper_Torsional_Energy-OPLS-2005>
7.13942623138428

> <r_mmod_Van_der_Waal_Energy-OPLS-2005>
141.674560546875

> <r_mmod_Electrostatic_Energy-OPLS-2005>
-366.961975097656

> <r_mmod_Solvation_Energy-OPLS-2005>
-231.754653930664

> <b_mmod_Minimization_Converged-OPLS-2005>
0

> <r_mmod_RMS_Derivative-OPLS-2005>
1.84472501277924

$$$$
38
                    3D
 Structure written by MMmdl.
156165  0  0  1  0            999 V2000
  -30.7702  -14.7802   20.4237 C   0  0  0  0  0  0
  -30.3769  -12.5071   19.4896 C   0  0  0  0  0  0
  -29.4778  -12.5250   18.2419 C   0  0  0  0  0  0
  -28.0127  -12.3482   18.6581 C   0  0  0  0  0  0
  -27.6164  -13.2754   19.8370 C   0  0  2  0  0  0
  -28.6669  -13.3102   20.9670 C   0  0  0  0  0  0
  -25.2374  -13.8307   20.5796 C   0  0  0  0  0  0
  -24.1717  -13.0465   20.9249 C   0  0  0  0  0  0
  -24.6384  -11.6966   20.8776 C   0  0  0  0  0  0
  -23.9109  -10.4314   21.0413 C   0  0  0  0  0  0
  -24.3655   -9.4206   21.9180 C   0  0  0  0  0  0
  -23.6320   -8.2234   22.0746 C   0  0  0  0  0  0
  -22.4296   -8.0283   21.3531 C   0  0  0  0  0  0
  -21.9943   -9.0271   20.4636 C   0  0  0  0  0  0
  -22.7283  -10.2151   20.3056 C   0  0  0  0  0  0
  -21.6863   -6.0752   22.5275 C   0  0  0  0  0  0
  -21.4020   -6.5642   23.8212 C   0  0  0  0  0  0
  -21.3651   -5.6782   24.9169 C   0  0  0  0  0  0
  -21.6043   -4.3043   24.7208 C   0  0  0  0  0  0
  -21.8821   -3.8152   23.4318 C   0  0  0  0  0  0
  -21.9197   -4.6984   22.3387 C   0  0  0  0  0  0
  -22.7712  -13.5207   21.1849 C   0  0  0  0  0  0
  -22.1669   -4.2169   21.0961 F   0  0  0  0  0  0
  -21.5619   -3.4518   25.7714 F   0  0  0  0  0  0
  -29.9613  -13.6499   20.3625 N   0  0  0  0  0  0
  -26.2828  -12.9608   20.3347 N   0  0  0  0  0  0
  -25.9329  -11.6703   20.5822 N   0  0  0  0  0  0
  -22.0379  -12.8232   22.0440 N   0  0  0  0  0  0
  -25.3971  -15.2044   20.4273 N   0  0  0  0  0  0
  -31.9668  -14.5707   20.1953 O   0  0  0  0  0  0
  -21.6629   -6.8893   21.4236 O   0  0  0  0  0  0
  -22.3362  -14.5460   20.6624 O   0  0  0  0  0  0
  -24.6334  -31.8568   23.1975 C   0  0  0  0  0  0
  -25.9142  -32.4774   23.8330 C   0  0  1  0  0  0
  -27.1893  -27.2110   20.1143 C   0  0  0  0  0  0
  -25.5947  -33.8590   24.2240 N   0  0  0  0  0  0
  -23.4294  -30.4787   21.5456 C   0  0  2  0  0  0
  -24.8708  -28.9240   20.0990 C   0  0  0  0  0  0
  -22.7512  -29.4631   22.4965 C   0  0  0  0  0  0
  -18.0346  -28.1275   22.8505 C   0  0  0  0  0  0
  -24.1474  -36.7253   23.2639 C   0  0  0  0  0  0
  -25.9781  -30.7502   21.3872 C   0  0  0  0  0  0
  -26.0422  -29.3694   20.7229 C   0  0  0  0  0  0
  -27.1977  -28.5165   20.7354 C   0  0  0  0  0  0
  -26.0208  -26.8834   19.4028 C   0  0  0  0  0  0
  -24.8655  -27.6899   19.4329 C   0  0  0  0  0  0
  -23.6428  -29.8115   20.1608 C   0  0  0  0  0  0
  -25.4106  -36.3057   24.0316 C   0  0  1  0  0  0
  -20.5915  -28.3700   23.1302 C   0  0  2  0  0  0
  -20.6875  -26.9440   22.5389 C   0  0  0  0  0  0
  -19.5875  -26.6397   21.5184 C   0  0  0  0  0  0
  -18.2066  -26.7814   22.1654 C   0  0  0  0  0  0
  -19.1542  -28.8824   23.2861 C   0  0  0  0  0  0
  -18.9398  -30.1435   23.8848 C   0  0  0  0  0  0
  -17.6361  -30.6501   24.0480 C   0  0  0  0  0  0
  -25.9068  -34.9451   23.5060 C   0  0  0  0  0  0
  -16.5310  -29.8907   23.6297 C   0  0  0  0  0  0
  -16.7308  -28.6323   23.0335 C   0  0  0  0  0  0
  -26.4466  -31.6652   25.0772 C   0  0  0  0  0  0
  -25.3671  -31.3862   26.1495 C   0  0  0  0  0  0
  -27.0325  -30.3050   24.6340 C   0  0  0  0  0  0
  -27.5954  -32.4459   25.7573 C   0  0  0  0  0  0
  -27.5557  -37.1792   24.8470 C   0  0  0  0  0  0
  -21.4200  -29.3119   22.3738 N   0  0  0  0  0  0
  -26.4266  -37.3761   23.9422 N   0  0  0  0  0  0
  -24.7008  -31.0462   22.0994 N   0  0  0  0  0  0
  -23.4205  -28.8166   23.3057 O   0  0  0  0  0  0
  -28.2312  -26.2508   20.2533 O   0  0  0  0  0  0
  -26.5621  -34.8920   22.4626 O   0  0  0  0  0  0
  -23.5479  -32.1470   23.7225 O   0  0  0  0  0  0
  -27.5285  -17.8092   22.5627 C   0  0  0  0  0  0
  -28.4474  -16.9054   21.9989 C   0  0  0  0  0  0
  -27.4034  -19.1336   22.0917 C   0  0  0  0  0  0
  -29.0706  -18.6733   20.4256 C   0  0  0  0  0  0
  -29.2529  -17.2872   20.9094 C   0  0  0  0  0  0
  -28.1563  -19.6536   21.0001 C   0  0  0  0  0  0
  -26.6021  -22.9861   20.3154 C   0  0  0  0  0  0
  -27.8566  -23.4433   20.1814 C   0  0  0  0  0  0
  -26.5874  -21.5458   20.5273 C   0  0  0  0  0  0
  -28.6823  -22.1870   20.3270 C   0  0  0  0  0  0
  -30.4536  -16.4023   20.4670 C   0  0  0  0  0  0
  -25.3015  -23.7474   20.1397 C   0  0  0  0  0  0
  -28.2892  -24.8838   19.5648 C   0  0  0  0  0  0
  -31.4396  -17.1323   20.1136 N   0  0  0  0  0  0
  -27.8621  -21.0901   20.5735 N   0  0  0  0  0  0
  -25.5700  -20.8447   20.5906 O   0  0  0  0  0  0
  -29.9115  -22.1086   20.2237 O   0  0  0  0  0  0
  -31.4144  -12.5489   19.1546 H   0  0  0  0  0  0
  -30.2917  -11.5591   20.0178 H   0  0  0  0  0  0
  -29.7671  -11.7365   17.5473 H   0  0  0  0  0  0
  -29.6029  -13.4687   17.7071 H   0  0  0  0  0  0
  -27.8817  -11.3052   18.9460 H   0  0  0  0  0  0
  -27.3508  -12.5198   17.8084 H   0  0  0  0  0  0
  -27.5760  -14.2822   19.4176 H   0  0  0  0  0  0
  -28.7238  -12.3476   21.4777 H   0  0  0  0  0  0
  -28.3834  -14.0296   21.7272 H   0  0  0  0  0  0
  -25.2804   -9.5665   22.4758 H   0  0  0  0  0  0
  -24.0016   -7.4619   22.7458 H   0  0  0  0  0  0
  -21.0882   -8.8818   19.8936 H   0  0  0  0  0  0
  -22.3759  -10.9697   19.6170 H   0  0  0  0  0  0
  -21.2023   -7.6149   23.9729 H   0  0  0  0  0  0
  -21.1470   -6.0499   25.9076 H   0  0  0  0  0  0
  -22.0615   -2.7614   23.2798 H   0  0  0  0  0  0
  -22.4056  -11.9970   22.4924 H   0  0  0  0  0  0
  -21.0961  -13.1185   22.2563 H   0  0  0  0  0  0
  -24.6216  -15.8474   20.5399 H   0  0  0  0  0  0
  -26.2647  -15.6719   20.1984 H   0  0  0  0  0  0
  -26.7231  -32.5402   23.1094 H   0  0  0  0  0  0
  -25.0075  -33.9766   25.0365 H   0  0  0  0  0  0
  -22.7326  -31.3065   21.3989 H   0  0  0  0  0  0
  -23.3756  -35.9568   23.3314 H   0  0  0  0  0  0
  -24.3515  -36.8873   22.2042 H   0  0  0  0  0  0
  -23.7237  -37.6450   23.6677 H   0  0  0  0  0  0
  -26.1157  -31.5182   20.6241 H   0  0  0  0  0  0
  -26.8517  -30.7983   22.0262 H   0  0  0  0  0  0
  -28.0823  -28.8343   21.2706 H   0  0  0  0  0  0
  -25.9588  -25.9604   18.8488 H   0  0  0  0  0  0
  -23.9679  -27.3520   18.9330 H   0  0  0  0  0  0
  -23.7602  -30.5873   19.4039 H   0  0  0  0  0  0
  -22.7586  -29.2437   19.8643 H   0  0  0  0  0  0
  -25.1303  -36.1845   25.0806 H   0  0  0  0  0  0
  -20.9960  -28.3276   24.1446 H   0  0  0  0  0  0
  -21.6749  -26.7494   22.1169 H   0  0  0  0  0  0
  -20.5817  -26.2263   23.3536 H   0  0  0  0  0  0
  -19.7174  -25.6351   21.1122 H   0  0  0  0  0  0
  -19.6749  -27.3302   20.6797 H   0  0  0  0  0  0
  -17.4362  -26.6480   21.4076 H   0  0  0  0  0  0
  -18.0581  -25.9920   22.9021 H   0  0  0  0  0  0
  -19.7821  -30.7370   24.2149 H   0  0  0  0  0  0
  -17.4833  -31.6176   24.5037 H   0  0  0  0  0  0
  -15.5269  -30.2719   23.7625 H   0  0  0  0  0  0
  -15.8765  -28.0576   22.7048 H   0  0  0  0  0  0
  -24.5781  -30.7275   25.7857 H   0  0  0  0  0  0
  -24.8952  -32.3079   26.4915 H   0  0  0  0  0  0
  -25.7973  -30.9043   27.0287 H   0  0  0  0  0  0
  -26.2964  -29.6834   24.1238 H   0  0  0  0  0  0
  -27.3809  -29.7288   25.4921 H   0  0  0  0  0  0
  -27.8906  -30.4296   23.9733 H   0  0  0  0  0  0
  -27.2446  -33.3730   26.2123 H   0  0  0  0  0  0
  -28.3763  -32.7113   25.0439 H   0  0  0  0  0  0
  -28.0623  -31.8656   26.5542 H   0  0  0  0  0  0
  -28.2576  -38.0081   24.7474 H   0  0  0  0  0  0
  -28.1048  -36.2606   24.6342 H   0  0  0  0  0  0
  -27.2268  -37.1481   25.8872 H   0  0  0  0  0  0
  -20.9354  -29.8958   21.7064 H   0  0  0  0  0  0
  -26.0121  -38.2813   24.1467 H   0  0  0  0  0  0
  -26.9274  -17.4933   23.4044 H   0  0  0  0  0  0
  -28.5801  -15.9461   22.4749 H   0  0  0  0  0  0
  -26.6834  -19.7527   22.6093 H   0  0  0  0  0  0
  -29.6834  -19.0055   19.5975 H   0  0  0  0  0  0
  -25.0660  -23.8733   19.0829 H   0  0  0  0  0  0
  -25.3623  -24.7117   20.6337 H   0  0  0  0  0  0
  -24.4693  -23.2189   20.6085 H   0  0  0  0  0  0
  -27.8609  -24.9572   18.5669 H   0  0  0  0  0  0
  -29.3529  -24.7668   19.3553 H   0  0  0  0  0  0
  -31.2290  -18.1176   20.2193 H   0  0  0  0  0  0
  1 25  1  0  0  0
  1 30  2  0  0  0
  1 81  1  0  0  0
  2  3  1  0  0  0
  2 25  1  0  0  0
  2 88  1  0  0  0
  2 89  1  0  0  0
  3  4  1  0  0  0
  3 90  1  0  0  0
  3 91  1  0  0  0
  4  5  1  0  0  0
  4 92  1  0  0  0
  4 93  1  0  0  0
  5  6  1  0  0  0
  5 26  1  0  0  0
  5 94  1  0  0  0
  6 25  1  0  0  0
  6 95  1  0  0  0
  6 96  1  0  0  0
  7  8  2  0  0  0
  7 26  1  0  0  0
  7 29  1  0  0  0
  8  9  1  0  0  0
  8 22  1  0  0  0
  9 10  1  0  0  0
  9 27  2  0  0  0
 10 11  2  0  0  0
 10 15  1  0  0  0
 11 12  1  0  0  0
 11 97  1  0  0  0
 12 13  2  0  0  0
 12 98  1  0  0  0
 13 14  1  0  0  0
 13 31  1  0  0  0
 14 15  2  0  0  0
 14 99  1  0  0  0
 15100  1  0  0  0
 16 17  2  0  0  0
 16 21  1  0  0  0
 16 31  1  0  0  0
 17 18  1  0  0  0
 17101  1  0  0  0
 18 19  2  0  0  0
 18102  1  0  0  0
 19 20  1  0  0  0
 19 24  1  0  0  0
 20 21  2  0  0  0
 20103  1  0  0  0
 21 23  1  0  0  0
 22 28  1  0  0  0
 22 32  2  0  0  0
 26 27  1  0  0  0
 28104  1  0  0  0
 28105  1  0  0  0
 29106  1  0  0  0
 29107  1  0  0  0
 33 34  1  0  0  0
 33 66  1  0  0  0
 33 70  2  0  0  0
 34 36  1  0  0  0
 34 59  1  0  0  0
 34108  1  0  0  0
 35 44  2  0  0  0
 35 45  1  0  0  0
 35 68  1  0  0  0
 36 56  1  0  0  0
 36109  1  0  0  0
 37 39  1  0  0  0
 37 47  1  0  0  0
 37 66  1  0  0  0
 37110  1  0  0  0
 38 43  2  0  0  0
 38 46  1  0  0  0
 38 47  1  0  0  0
 39 64  1  0  0  0
 39 67  2  0  0  0
 40 52  1  0  0  0
 40 53  2  0  0  0
 40 58  1  0  0  0
 41111  1  0  0  0
 41112  1  0  0  0
 41113  1  0  0  0
 41 48  1  0  0  0
 42 43  1  0  0  0
 42 66  1  0  0  0
 42114  1  0  0  0
 42115  1  0  0  0
 43 44  1  0  0  0
 44116  1  0  0  0
 45 46  2  0  0  0
 45117  1  0  0  0
 46118  1  0  0  0
 47119  1  0  0  0
 47120  1  0  0  0
 48 56  1  0  0  0
 48 65  1  0  0  0
 48121  1  0  0  0
 49 50  1  0  0  0
 49 53  1  0  0  0
 49 64  1  0  0  0
 49122  1  0  0  0
 50 51  1  0  0  0
 50123  1  0  0  0
 50124  1  0  0  0
 51 52  1  0  0  0
 51125  1  0  0  0
 51126  1  0  0  0
 52127  1  0  0  0
 52128  1  0  0  0
 53 54  1  0  0  0
 54 55  2  0  0  0
 54129  1  0  0  0
 55 57  1  0  0  0
 55130  1  0  0  0
 56 69  2  0  0  0
 57 58  2  0  0  0
 57131  1  0  0  0
 58132  1  0  0  0
 59 60  1  0  0  0
 59 61  1  0  0  0
 59 62  1  0  0  0
 60133  1  0  0  0
 60134  1  0  0  0
 60135  1  0  0  0
 61136  1  0  0  0
 61137  1  0  0  0
 61138  1  0  0  0
 62139  1  0  0  0
 62140  1  0  0  0
 62141  1  0  0  0
 63 65  1  0  0  0
 63142  1  0  0  0
 63143  1  0  0  0
 63144  1  0  0  0
 64145  1  0  0  0
 65146  1  0  0  0
 68 83  1  0  0  0
 71 72  2  0  0  0
 71 73  1  0  0  0
 71147  1  0  0  0
 72 75  1  0  0  0
 72148  1  0  0  0
 73 76  2  0  0  0
 73149  1  0  0  0
 74 75  2  0  0  0
 74 76  1  0  0  0
 74150  1  0  0  0
 75 81  1  0  0  0
 76 85  1  0  0  0
 77 78  2  0  0  0
 77 79  1  0  0  0
 77 82  1  0  0  0
 78 80  1  0  0  0
 78 83  1  0  0  0
 79 85  1  0  0  0
 79 86  2  0  0  0
 80 85  1  0  0  0
 80 87  2  0  0  0
 81 84  2  0  0  0
 82151  1  0  0  0
 82152  1  0  0  0
 82153  1  0  0  0
 83154  1  0  0  0
 83155  1  0  0  0
 84156  1  0  0  0
M  ISO  4   1 100  68 101  81 100  83 101
M  END
> <chiral flag>
0

> <version>
0

> <s_m_source_file>
/data/baiqing/PycharmProjects/Reinvent-master-3.2/result/LINK_invent/BTK/process_docking_weight1_custom_product_contain_oxygen_bond_distance_aromatic_linkinvent_7_9_3/rearranged_h_0080.sdf

> <i_m_source_file_index>
39

> <r_mmod_Potential_Energy-OPLS-2005>
667.301452636719

> <r_mmod_Stretch_Energy-OPLS-2005>
190.053756713867

> <r_mmod_Bend_Energy-OPLS-2005>
377.336578369141

> <r_mmod_Torsional_Energy-OPLS-2005>
238.361831665039

> <r_mmod_Improper_Torsional_Energy-OPLS-2005>
9.84562873840332

> <r_mmod_Van_der_Waal_Energy-OPLS-2005>
151.688400268555

> <r_mmod_Electrostatic_Energy-OPLS-2005>
-196.033096313477

> <r_mmod_Solvation_Energy-OPLS-2005>
-240.702346801758

> <b_mmod_Minimization_Converged-OPLS-2005>
0

> <r_mmod_RMS_Derivative-OPLS-2005>
4.36014032363892

$$$$
39
                    3D
 Structure written by MMmdl.
154163  0  0  1  0            999 V2000
  -30.5944  -14.8061   20.4354 C   0  0  0  0  0  0
  -30.4350  -12.4901   19.4970 C   0  0  0  0  0  0
  -29.5173  -12.5201   18.2531 C   0  0  0  0  0  0
  -28.0441  -12.3392   18.6618 C   0  0  0  0  0  0
  -27.6431  -13.2429   19.8563 C   0  0  2  0  0  0
  -28.6836  -13.2013   20.9975 C   0  0  0  0  0  0
  -25.2506  -13.8227   20.5700 C   0  0  0  0  0  0
  -24.1799  -13.0455   20.9201 C   0  0  0  0  0  0
  -24.6402  -11.6942   20.8739 C   0  0  0  0  0  0
  -23.9064  -10.4313   21.0393 C   0  0  0  0  0  0
  -24.3610   -9.4229   21.9174 C   0  0  0  0  0  0
  -23.6299   -8.2249   22.0727 C   0  0  0  0  0  0
  -22.4281   -8.0281   21.3523 C   0  0  0  0  0  0
  -21.9915   -9.0256   20.4618 C   0  0  0  0  0  0
  -22.7231  -10.2145   20.3035 C   0  0  0  0  0  0
  -21.6857   -6.0726   22.5275 C   0  0  0  0  0  0
  -21.4012   -6.5631   23.8211 C   0  0  0  0  0  0
  -21.3659   -5.6787   24.9173 C   0  0  0  0  0  0
  -21.6061   -4.3049   24.7220 C   0  0  0  0  0  0
  -21.8818   -3.8132   23.4343 C   0  0  0  0  0  0
  -21.9185   -4.6952   22.3404 C   0  0  0  0  0  0
  -22.7810  -13.5222   21.1840 C   0  0  0  0  0  0
  -22.1652   -4.2133   21.0983 F   0  0  0  0  0  0
  -21.5640   -3.4539   25.7733 F   0  0  0  0  0  0
  -29.9854  -13.5630   20.4229 N   0  0  0  0  0  0
  -26.2953  -12.9453   20.3304 N   0  0  0  0  0  0
  -25.9344  -11.6586   20.5753 N   0  0  0  0  0  0
  -22.0451  -12.8226   22.0399 N   0  0  0  0  0  0
  -25.4204  -15.1949   20.4118 N   0  0  0  0  0  0
  -31.7656  -14.8960   20.0587 O   0  0  0  0  0  0
  -21.6634   -6.8877   21.4235 O   0  0  0  0  0  0
  -22.3506  -14.5530   20.6679 O   0  0  0  0  0  0
  -24.6363  -31.8509   23.1970 C   0  0  0  0  0  0
  -25.9170  -32.4723   23.8320 C   0  0  1  0  0  0
  -27.2072  -27.1930   20.1376 C   0  0  0  0  0  0
  -25.5969  -33.8534   24.2234 N   0  0  0  0  0  0
  -23.4348  -30.4765   21.5412 C   0  0  2  0  0  0
  -24.8823  -28.9190   20.1114 C   0  0  0  0  0  0
  -22.7529  -29.4586   22.4887 C   0  0  0  0  0  0
  -18.0303  -28.1385   22.8480 C   0  0  0  0  0  0
  -24.1502  -36.7254   23.2637 C   0  0  0  0  0  0
  -25.9881  -30.7398   21.3935 C   0  0  0  0  0  0
  -26.0558  -29.3561   20.7390 C   0  0  0  0  0  0
  -27.2155  -28.5021   20.7519 C   0  0  0  0  0  0
  -26.0200  -26.8731   19.4342 C   0  0  0  0  0  0
  -24.8725  -27.6862   19.4505 C   0  0  0  0  0  0
  -23.6572  -29.8130   20.1583 C   0  0  0  0  0  0
  -25.4129  -36.3028   24.0315 C   0  0  1  0  0  0
  -20.5909  -28.3692   23.1251 C   0  0  2  0  0  0
  -20.6776  -26.9405   22.5398 C   0  0  0  0  0  0
  -19.5757  -26.6372   21.5202 C   0  0  0  0  0  0
  -18.1941  -26.7931   22.1613 C   0  0  0  0  0  0
  -19.1557  -28.8855   23.2867 C   0  0  0  0  0  0
  -18.9471  -30.1456   23.8882 C   0  0  0  0  0  0
  -17.6468  -30.6587   24.0551 C   0  0  0  0  0  0
  -25.9084  -34.9410   23.5067 C   0  0  0  0  0  0
  -16.5357  -29.9080   23.6338 C   0  0  0  0  0  0
  -16.7287  -28.6500   23.0356 C   0  0  0  0  0  0
  -26.4528  -31.6564   25.0726 C   0  0  0  0  0  0
  -25.3744  -31.3729   26.1438 C   0  0  0  0  0  0
  -27.0366  -30.2960   24.6268 C   0  0  0  0  0  0
  -27.6093  -32.4301   25.7490 C   0  0  0  0  0  0
  -27.5583  -37.1777   24.8464 C   0  0  0  0  0  0
  -21.4229  -29.3034   22.3633 N   0  0  0  0  0  0
  -26.4281  -37.3745   23.9416 N   0  0  0  0  0  0
  -24.7054  -31.0425   22.0981 N   0  0  0  0  0  0
  -23.4202  -28.8115   23.2999 O   0  0  0  0  0  0
  -28.2640  -26.2270   20.2145 O   0  0  0  0  0  0
  -26.5654  -34.8887   22.4640 O   0  0  0  0  0  0
  -23.5496  -32.1346   23.7236 O   0  0  0  0  0  0
  -29.8046  -18.4834   17.9031 C   0  0  0  0  0  0
  -29.5730  -19.7317   18.5151 C   0  0  0  0  0  0
  -29.9411  -17.3009   18.6583 C   0  0  0  0  0  0
  -29.6069  -18.6207   20.6818 C   0  0  0  0  0  0
  -29.4687  -19.8721   19.9167 C   0  0  0  0  0  0
  -29.8398  -17.3011   20.0679 C   0  0  0  0  0  0
  -28.7787  -23.6498   20.3515 C   0  0  0  0  0  0
  -30.1133  -23.4969   20.8670 C   0  0  0  0  0  0
  -28.3467  -22.2312   20.0797 C   0  0  0  0  0  0
  -30.9243  -24.5066   21.2244 C   0  0  0  0  0  0
  -28.0082  -24.7995   20.1119 C   0  0  0  0  0  0
  -30.4824  -22.0172   20.9596 C   0  0  0  0  0  0
  -29.3248  -21.2895   20.4136 N   0  0  0  0  0  0
  -29.8595  -15.9583   20.7429 N   0  0  0  0  0  0
  -27.2461  -21.9080   19.6217 O   0  0  0  0  0  0
  -31.4746  -12.6160   19.1928 H   0  0  0  0  0  0
  -30.3897  -11.5173   19.9906 H   0  0  0  0  0  0
  -29.8076  -11.7400   17.5477 H   0  0  0  0  0  0
  -29.6410  -13.4702   17.7303 H   0  0  0  0  0  0
  -27.9038  -11.2906   18.9271 H   0  0  0  0  0  0
  -27.3866  -12.5269   17.8116 H   0  0  0  0  0  0
  -27.6312  -14.2618   19.4686 H   0  0  0  0  0  0
  -28.7309  -12.2114   21.4524 H   0  0  0  0  0  0
  -28.4019  -13.8927   21.7936 H   0  0  0  0  0  0
  -25.2746   -9.5702   22.4766 H   0  0  0  0  0  0
  -23.9989   -7.4645   22.7466 H   0  0  0  0  0  0
  -21.0827   -8.8761   19.8961 H   0  0  0  0  0  0
  -22.3660  -10.9668   19.6139 H   0  0  0  0  0  0
  -21.1997   -7.6143   23.9711 H   0  0  0  0  0  0
  -21.1490   -6.0514   25.9081 H   0  0  0  0  0  0
  -22.0595   -2.7593   23.2845 H   0  0  0  0  0  0
  -22.4047  -11.9885   22.4799 H   0  0  0  0  0  0
  -21.1059  -13.1242   22.2562 H   0  0  0  0  0  0
  -24.6595  -15.8545   20.5302 H   0  0  0  0  0  0
  -26.2733  -15.6344   20.0878 H   0  0  0  0  0  0
  -26.7246  -32.5329   23.1063 H   0  0  0  0  0  0
  -25.0119  -33.9677   25.0378 H   0  0  0  0  0  0
  -22.7333  -31.3004   21.3943 H   0  0  0  0  0  0
  -23.3767  -35.9585   23.3264 H   0  0  0  0  0  0
  -24.3609  -36.8907   22.2061 H   0  0  0  0  0  0
  -23.7241  -37.6435   23.6695 H   0  0  0  0  0  0
  -26.1410  -31.4934   20.6192 H   0  0  0  0  0  0
  -26.8623  -30.7880   22.0308 H   0  0  0  0  0  0
  -28.1041  -28.8237   21.2788 H   0  0  0  0  0  0
  -25.9241  -25.9649   18.8630 H   0  0  0  0  0  0
  -23.9817  -27.3548   18.9350 H   0  0  0  0  0  0
  -23.7885  -30.5881   19.4029 H   0  0  0  0  0  0
  -22.7735  -29.2519   19.8494 H   0  0  0  0  0  0
  -25.1319  -36.1850   25.0806 H   0  0  0  0  0  0
  -21.0019  -28.3264   24.1365 H   0  0  0  0  0  0
  -20.5633  -26.2319   23.3613 H   0  0  0  0  0  0
  -21.6643  -26.7404   22.1200 H   0  0  0  0  0  0
  -19.6901  -25.6277   21.1243 H   0  0  0  0  0  0
  -19.6686  -27.3177   20.6732 H   0  0  0  0  0  0
  -17.4203  -26.6682   21.4020 H   0  0  0  0  0  0
  -18.0344  -26.0074   22.9010 H   0  0  0  0  0  0
  -19.7946  -30.7278   24.2232 H   0  0  0  0  0  0
  -17.5024  -31.6273   24.5141 H   0  0  0  0  0  0
  -15.5354  -30.2964   23.7678 H   0  0  0  0  0  0
  -15.8695  -28.0808   22.7079 H   0  0  0  0  0  0
  -24.5960  -30.7035   25.7767 H   0  0  0  0  0  0
  -24.8890  -32.2888   26.4821 H   0  0  0  0  0  0
  -25.8044  -30.8937   27.0244 H   0  0  0  0  0  0
  -26.2955  -29.6706   24.1275 H   0  0  0  0  0  0
  -27.3994  -29.7240   25.4819 H   0  0  0  0  0  0
  -27.8875  -30.4197   23.9564 H   0  0  0  0  0  0
  -27.2750  -33.3649   26.2017 H   0  0  0  0  0  0
  -28.3942  -32.6776   25.0325 H   0  0  0  0  0  0
  -28.0741  -31.8446   26.5439 H   0  0  0  0  0  0
  -28.2566  -38.0107   24.7534 H   0  0  0  0  0  0
  -28.1105  -36.2632   24.6253 H   0  0  0  0  0  0
  -27.2310  -37.1367   25.8866 H   0  0  0  0  0  0
  -20.9426  -29.8773   21.6842 H   0  0  0  0  0  0
  -26.0135  -38.2801   24.1444 H   0  0  0  0  0  0
  -29.8776  -18.4291   16.8255 H   0  0  0  0  0  0
  -29.4993  -20.6054   17.8811 H   0  0  0  0  0  0
  -30.0928  -16.3739   18.1223 H   0  0  0  0  0  0
  -29.5345  -18.6768   21.7593 H   0  0  0  0  0  0
  -30.6165  -25.5392   21.1401 H   0  0  0  0  0  0
  -31.9136  -24.3153   21.6129 H   0  0  0  0  0  0
  -27.0120  -24.5944   19.7654 H   0  0  0  0  0  0
  -30.6630  -21.7304   21.9952 H   0  0  0  0  0  0
  -31.3789  -21.8047   20.3755 H   0  0  0  0  0  0
  -29.0453  -15.7741   21.3107 H   0  0  0  0  0  0
  1 25  1  0  0  0
  1 30  2  0  0  0
  1 84  1  0  0  0
  2  3  1  0  0  0
  2 25  1  0  0  0
  2 86  1  0  0  0
  2 87  1  0  0  0
  3  4  1  0  0  0
  3 88  1  0  0  0
  3 89  1  0  0  0
  4  5  1  0  0  0
  4 90  1  0  0  0
  4 91  1  0  0  0
  5  6  1  0  0  0
  5 26  1  0  0  0
  5 92  1  0  0  0
  6 25  1  0  0  0
  6 93  1  0  0  0
  6 94  1  0  0  0
  7  8  2  0  0  0
  7 26  1  0  0  0
  7 29  1  0  0  0
  8  9  1  0  0  0
  8 22  1  0  0  0
  9 10  1  0  0  0
  9 27  2  0  0  0
 10 11  2  0  0  0
 10 15  1  0  0  0
 11 12  1  0  0  0
 11 95  1  0  0  0
 12 13  2  0  0  0
 12 96  1  0  0  0
 13 14  1  0  0  0
 13 31  1  0  0  0
 14 15  2  0  0  0
 14 97  1  0  0  0
 15 98  1  0  0  0
 16 17  2  0  0  0
 16 21  1  0  0  0
 16 31  1  0  0  0
 17 18  1  0  0  0
 17 99  1  0  0  0
 18 19  2  0  0  0
 18100  1  0  0  0
 19 20  1  0  0  0
 19 24  1  0  0  0
 20 21  2  0  0  0
 20101  1  0  0  0
 21 23  1  0  0  0
 22 28  1  0  0  0
 22 32  2  0  0  0
 26 27  1  0  0  0
 28102  1  0  0  0
 28103  1  0  0  0
 29104  1  0  0  0
 29105  1  0  0  0
 33 34  1  0  0  0
 33 66  1  0  0  0
 33 70  2  0  0  0
 34 36  1  0  0  0
 34 59  1  0  0  0
 34106  1  0  0  0
 35 44  2  0  0  0
 35 45  1  0  0  0
 35 68  1  0  0  0
 36 56  1  0  0  0
 36107  1  0  0  0
 37 39  1  0  0  0
 37 47  1  0  0  0
 37 66  1  0  0  0
 37108  1  0  0  0
 38 43  2  0  0  0
 38 46  1  0  0  0
 38 47  1  0  0  0
 39 64  1  0  0  0
 39 67  2  0  0  0
 40 52  1  0  0  0
 40 53  2  0  0  0
 40 58  1  0  0  0
 41109  1  0  0  0
 41110  1  0  0  0
 41111  1  0  0  0
 41 48  1  0  0  0
 42 43  1  0  0  0
 42 66  1  0  0  0
 42112  1  0  0  0
 42113  1  0  0  0
 43 44  1  0  0  0
 44114  1  0  0  0
 45 46  2  0  0  0
 45115  1  0  0  0
 46116  1  0  0  0
 47117  1  0  0  0
 47118  1  0  0  0
 48 56  1  0  0  0
 48 65  1  0  0  0
 48119  1  0  0  0
 49 50  1  0  0  0
 49 53  1  0  0  0
 49 64  1  0  0  0
 49120  1  0  0  0
 50 51  1  0  0  0
 50121  1  0  0  0
 50122  1  0  0  0
 51 52  1  0  0  0
 51123  1  0  0  0
 51124  1  0  0  0
 52125  1  0  0  0
 52126  1  0  0  0
 53 54  1  0  0  0
 54 55  2  0  0  0
 54127  1  0  0  0
 55 57  1  0  0  0
 55128  1  0  0  0
 56 69  2  0  0  0
 57 58  2  0  0  0
 57129  1  0  0  0
 58130  1  0  0  0
 59 60  1  0  0  0
 59 61  1  0  0  0
 59 62  1  0  0  0
 60131  1  0  0  0
 60132  1  0  0  0
 60133  1  0  0  0
 61134  1  0  0  0
 61135  1  0  0  0
 61136  1  0  0  0
 62137  1  0  0  0
 62138  1  0  0  0
 62139  1  0  0  0
 63 65  1  0  0  0
 63140  1  0  0  0
 63141  1  0  0  0
 63142  1  0  0  0
 64143  1  0  0  0
 65144  1  0  0  0
 68 81  1  0  0  0
 71 72  2  0  0  0
 71 73  1  0  0  0
 71145  1  0  0  0
 72 75  1  0  0  0
 72146  1  0  0  0
 73 76  2  0  0  0
 73147  1  0  0  0
 74 75  2  0  0  0
 74 76  1  0  0  0
 74148  1  0  0  0
 75 83  1  0  0  0
 76 84  1  0  0  0
 77 78  1  0  0  0
 77 79  1  0  0  0
 77 81  2  0  0  0
 78 80  2  0  0  0
 78 82  1  0  0  0
 79 83  1  0  0  0
 79 85  2  0  0  0
 80149  1  0  0  0
 80150  1  0  0  0
 81151  1  0  0  0
 82 83  1  0  0  0
 82152  1  0  0  0
 82153  1  0  0  0
 84154  1  0  0  0
M  ISO  4   1 100  68 101  81 101  84 100
M  END
> <chiral flag>
0

> <version>
0

> <s_m_source_file>
/data/baiqing/PycharmProjects/Reinvent-master-3.2/result/LINK_invent/BTK/process_docking_weight1_custom_product_contain_oxygen_bond_distance_aromatic_linkinvent_7_9_3/rearranged_h_0080.sdf

> <i_m_source_file_index>
40

> <r_mmod_Potential_Energy-OPLS-2005>
442.187652587891

> <r_mmod_Stretch_Energy-OPLS-2005>
157.179016113281

> <r_mmod_Bend_Energy-OPLS-2005>
226.772308349609

> <r_mmod_Torsional_Energy-OPLS-2005>
314.052825927734

> <r_mmod_Improper_Torsional_Energy-OPLS-2005>
5.56581020355225

> <r_mmod_Van_der_Waal_Energy-OPLS-2005>
136.50895690918

> <r_mmod_Electrostatic_Energy-OPLS-2005>
-307.822723388672

> <r_mmod_Solvation_Energy-OPLS-2005>
-215.523071289062

> <b_mmod_Minimization_Converged-OPLS-2005>
0

> <r_mmod_RMS_Derivative-OPLS-2005>
2.63439536094666

$$$$
40
                    3D
 Structure written by MMmdl.
158167  0  0  1  0            999 V2000
  -30.7061  -14.5013   20.5496 C   0  0  0  0  0  0
  -30.4141  -12.3080   19.4478 C   0  0  0  0  0  0
  -29.5004  -12.5003   18.2198 C   0  0  0  0  0  0
  -28.0198  -12.3618   18.6237 C   0  0  0  0  0  0
  -27.6575  -13.2155   19.8687 C   0  0  2  0  0  0
  -28.6954  -13.0333   20.9973 C   0  0  0  0  0  0
  -25.2572  -13.8183   20.5679 C   0  0  0  0  0  0
  -24.1828  -13.0449   20.9167 C   0  0  0  0  0  0
  -24.6392  -11.6918   20.8727 C   0  0  0  0  0  0
  -23.9062  -10.4300   21.0400 C   0  0  0  0  0  0
  -24.3614   -9.4217   21.9181 C   0  0  0  0  0  0
  -23.6291   -8.2251   22.0754 C   0  0  0  0  0  0
  -22.4274   -8.0285   21.3544 C   0  0  0  0  0  0
  -21.9907   -9.0257   20.4645 C   0  0  0  0  0  0
  -22.7234  -10.2137   20.3052 C   0  0  0  0  0  0
  -21.6856   -6.0737   22.5278 C   0  0  0  0  0  0
  -21.4015   -6.5641   23.8212 C   0  0  0  0  0  0
  -21.3659   -5.6793   24.9174 C   0  0  0  0  0  0
  -21.6042   -4.3055   24.7225 C   0  0  0  0  0  0
  -21.8819   -3.8146   23.4346 C   0  0  0  0  0  0
  -21.9193   -4.6964   22.3402 C   0  0  0  0  0  0
  -22.7852  -13.5243   21.1839 C   0  0  0  0  0  0
  -22.1662   -4.2149   21.0980 F   0  0  0  0  0  0
  -21.5628   -3.4538   25.7737 F   0  0  0  0  0  0
  -30.0286  -13.3211   20.4473 N   0  0  0  0  0  0
  -26.3004  -12.9365   20.3334 N   0  0  0  0  0  0
  -25.9315  -11.6514   20.5743 N   0  0  0  0  0  0
  -22.0496  -12.8234   22.0398 N   0  0  0  0  0  0
  -25.4307  -15.1900   20.4106 N   0  0  0  0  0  0
  -31.8575  -14.5805   20.1082 O   0  0  0  0  0  0
  -21.6641   -6.8879   21.4240 O   0  0  0  0  0  0
  -22.3536  -14.5553   20.6699 O   0  0  0  0  0  0
  -24.6145  -31.8686   23.2127 C   0  0  0  0  0  0
  -25.9040  -32.4826   23.8415 C   0  0  1  0  0  0
  -27.2145  -27.4004   20.1341 C   0  0  0  0  0  0
  -25.5898  -33.8627   24.2341 N   0  0  0  0  0  0
  -23.4042  -30.4926   21.5522 C   0  0  2  0  0  0
  -24.8516  -28.9552   20.1209 C   0  0  0  0  0  0
  -22.7414  -29.4656   22.4987 C   0  0  0  0  0  0
  -18.0272  -28.1376   22.8492 C   0  0  0  0  0  0
  -24.1487  -36.7316   23.2637 C   0  0  0  0  0  0
  -25.9357  -30.8189   21.3786 C   0  0  0  0  0  0
  -26.0080  -29.4452   20.7438 C   0  0  0  0  0  0
  -27.1929  -28.6686   20.7628 C   0  0  0  0  0  0
  -26.0673  -26.9672   19.4424 C   0  0  0  0  0  0
  -24.8746  -27.7112   19.4699 C   0  0  0  0  0  0
  -23.6169  -29.8272   20.1664 C   0  0  0  0  0  0
  -25.4107  -36.3116   24.0340 C   0  0  1  0  0  0
  -20.5864  -28.3662   23.1313 C   0  0  2  0  0  0
  -20.6765  -26.9398   22.5415 C   0  0  0  0  0  0
  -19.5744  -26.6383   21.5211 C   0  0  0  0  0  0
  -18.1922  -26.7923   22.1622 C   0  0  0  0  0  0
  -19.1522  -28.8835   23.2901 C   0  0  0  0  0  0
  -18.9450  -30.1440   23.8911 C   0  0  0  0  0  0
  -17.6454  -30.6582   24.0564 C   0  0  0  0  0  0
  -25.9034  -34.9479   23.5137 C   0  0  0  0  0  0
  -16.5344  -29.9086   23.6325 C   0  0  0  0  0  0
  -16.7260  -28.6503   23.0346 C   0  0  0  0  0  0
  -26.4467  -31.6600   25.0740 C   0  0  0  0  0  0
  -25.3731  -31.3708   26.1487 C   0  0  0  0  0  0
  -27.0298  -30.3039   24.6123 C   0  0  0  0  0  0
  -27.6047  -32.4318   25.7495 C   0  0  0  0  0  0
  -27.5583  -37.1813   24.8462 C   0  0  0  0  0  0
  -21.4142  -29.3031   22.3721 N   0  0  0  0  0  0
  -26.4295  -37.3799   23.9409 N   0  0  0  0  0  0
  -24.6691  -31.0765   22.1051 N   0  0  0  0  0  0
  -23.4181  -28.8196   23.3032 O   0  0  0  0  0  0
  -28.3687  -26.6651   19.9938 O   0  0  0  0  0  0
  -26.5595  -34.8927   22.4698 O   0  0  0  0  0  0
  -23.5332  -32.1456   23.7499 O   0  0  0  0  0  0
  -30.7641  -19.2389   21.1327 C   0  0  0  0  0  0
  -28.5377  -18.3302   21.3535 C   0  0  0  0  0  0
  -30.2495  -20.5528   21.2015 C   0  0  0  0  0  0
  -28.0188  -19.6474   21.4202 C   0  0  0  0  0  0
  -29.9209  -18.1044   21.1812 C   0  0  0  0  0  0
  -28.8582  -20.7923   21.3095 C   0  0  0  0  0  0
  -27.0082  -23.9749   21.0142 C   0  0  0  0  0  0
  -28.3236  -24.5160   21.2217 C   0  0  0  0  0  0
  -27.1073  -22.5342   20.8681 C   0  0  0  0  0  0
  -25.8170  -24.5620   21.2263 C   0  0  0  0  0  0
  -30.5239  -16.7487   20.9869 C   0  0  0  0  0  0
  -28.8608  -25.7328   20.8958 C   0  0  0  0  0  0
  -29.1622  -23.3310   21.6633 C   0  0  0  0  0  0
  -30.3158  -26.0551   21.1733 C   0  0  0  0  0  0
  -29.9502  -15.5932   21.0148 N   0  0  0  0  0  0
  -28.3418  -22.1513   21.2979 N   0  0  0  0  0  0
  -26.2131  -21.7913   20.4475 O   0  0  0  0  0  0
  -31.4627  -12.3714   19.1523 H   0  0  0  0  0  0
  -30.2887  -11.3065   19.8630 H   0  0  0  0  0  0
  -29.7459  -11.7696   17.4482 H   0  0  0  0  0  0
  -29.6731  -13.4832   17.7781 H   0  0  0  0  0  0
  -27.8330  -11.3076   18.8318 H   0  0  0  0  0  0
  -27.3731  -12.6247   17.7859 H   0  0  0  0  0  0
  -27.6942  -14.2589   19.5551 H   0  0  0  0  0  0
  -28.6681  -12.0125   21.3811 H   0  0  0  0  0  0
  -28.4562  -13.6741   21.8473 H   0  0  0  0  0  0
  -25.2760   -9.5696   22.4755 H   0  0  0  0  0  0
  -24.0000   -7.4645   22.7477 H   0  0  0  0  0  0
  -21.0837   -8.8775   19.8953 H   0  0  0  0  0  0
  -22.3693  -10.9673   19.6159 H   0  0  0  0  0  0
  -21.2009   -7.6150   23.9716 H   0  0  0  0  0  0
  -21.1480   -6.0523   25.9077 H   0  0  0  0  0  0
  -22.0598   -2.7609   23.2845 H   0  0  0  0  0  0
  -22.4100  -11.9881   22.4767 H   0  0  0  0  0  0
  -21.1121  -13.1271   22.2617 H   0  0  0  0  0  0
  -24.6741  -15.8550   20.5272 H   0  0  0  0  0  0
  -26.3018  -15.6207   20.1253 H   0  0  0  0  0  0
  -26.7108  -32.5540   23.1176 H   0  0  0  0  0  0
  -25.0054  -33.9794   25.0487 H   0  0  0  0  0  0
  -22.6937  -31.3101   21.4131 H   0  0  0  0  0  0
  -23.3748  -35.9650   23.3310 H   0  0  0  0  0  0
  -24.3586  -36.8915   22.2051 H   0  0  0  0  0  0
  -23.7239  -37.6526   23.6638 H   0  0  0  0  0  0
  -26.0515  -31.5744   20.6003 H   0  0  0  0  0  0
  -26.8238  -30.8788   21.9956 H   0  0  0  0  0  0
  -28.0898  -29.0440   21.2351 H   0  0  0  0  0  0
  -26.0956  -26.0344   18.8974 H   0  0  0  0  0  0
  -23.9956  -27.3379   18.9627 H   0  0  0  0  0  0
  -23.7315  -30.6025   19.4080 H   0  0  0  0  0  0
  -22.7403  -29.2501   19.8667 H   0  0  0  0  0  0
  -25.1284  -36.1987   25.0834 H   0  0  0  0  0  0
  -20.9956  -28.3224   24.1433 H   0  0  0  0  0  0
  -20.5668  -26.2269   23.3601 H   0  0  0  0  0  0
  -21.6636  -26.7443   22.1206 H   0  0  0  0  0  0
  -19.6905  -25.6297   21.1230 H   0  0  0  0  0  0
  -19.6684  -27.3202   20.6749 H   0  0  0  0  0  0
  -17.4193  -26.6672   21.4021 H   0  0  0  0  0  0
  -18.0321  -26.0061   22.9014 H   0  0  0  0  0  0
  -19.7927  -30.7249   24.2289 H   0  0  0  0  0  0
  -17.5011  -31.6265   24.5162 H   0  0  0  0  0  0
  -15.5346  -30.2995   23.7644 H   0  0  0  0  0  0
  -15.8658  -28.0831   22.7052 H   0  0  0  0  0  0
  -24.5899  -30.7061   25.7822 H   0  0  0  0  0  0
  -24.8924  -32.2865   26.4945 H   0  0  0  0  0  0
  -25.8080  -30.8868   27.0240 H   0  0  0  0  0  0
  -26.2849  -29.6809   24.1157 H   0  0  0  0  0  0
  -27.4043  -29.7266   25.4585 H   0  0  0  0  0  0
  -27.8699  -30.4356   23.9299 H   0  0  0  0  0  0
  -27.2673  -33.3610   26.2099 H   0  0  0  0  0  0
  -28.3840  -32.6888   25.0309 H   0  0  0  0  0  0
  -28.0733  -31.8425   26.5387 H   0  0  0  0  0  0
  -28.2603  -38.0108   24.7516 H   0  0  0  0  0  0
  -28.1078  -36.2643   24.6279 H   0  0  0  0  0  0
  -27.2305  -37.1451   25.8866 H   0  0  0  0  0  0
  -20.9301  -29.8763   21.6953 H   0  0  0  0  0  0
  -26.0188  -38.2879   24.1408 H   0  0  0  0  0  0
  -31.8311  -19.1112   21.0107 H   0  0  0  0  0  0
  -27.8614  -17.4883   21.4088 H   0  0  0  0  0  0
  -30.9539  -21.3675   21.1297 H   0  0  0  0  0  0
  -26.9513  -19.7526   21.5471 H   0  0  0  0  0  0
  -25.7403  -25.5919   21.5355 H   0  0  0  0  0  0
  -24.8939  -24.0041   21.1522 H   0  0  0  0  0  0
  -31.5946  -16.8256   20.7709 H   0  0  0  0  0  0
  -29.3507  -23.3622   22.7368 H   0  0  0  0  0  0
  -30.1116  -23.3362   21.1302 H   0  0  0  0  0  0
  -30.6124  -25.7050   22.1624 H   0  0  0  0  0  0
  -30.4838  -27.1319   21.1383 H   0  0  0  0  0  0
  -30.9598  -25.5856   20.4295 H   0  0  0  0  0  0
  1 25  1  0  0  0
  1 30  2  0  0  0
  1 85  1  0  0  0
  2  3  1  0  0  0
  2 25  1  0  0  0
  2 88  1  0  0  0
  2 89  1  0  0  0
  3  4  1  0  0  0
  3 90  1  0  0  0
  3 91  1  0  0  0
  4  5  1  0  0  0
  4 92  1  0  0  0
  4 93  1  0  0  0
  5  6  1  0  0  0
  5 26  1  0  0  0
  5 94  1  0  0  0
  6 25  1  0  0  0
  6 95  1  0  0  0
  6 96  1  0  0  0
  7  8  2  0  0  0
  7 26  1  0  0  0
  7 29  1  0  0  0
  8  9  1  0  0  0
  8 22  1  0  0  0
  9 10  1  0  0  0
  9 27  2  0  0  0
 10 11  2  0  0  0
 10 15  1  0  0  0
 11 12  1  0  0  0
 11 97  1  0  0  0
 12 13  2  0  0  0
 12 98  1  0  0  0
 13 14  1  0  0  0
 13 31  1  0  0  0
 14 15  2  0  0  0
 14 99  1  0  0  0
 15100  1  0  0  0
 16 17  2  0  0  0
 16 21  1  0  0  0
 16 31  1  0  0  0
 17 18  1  0  0  0
 17101  1  0  0  0
 18 19  2  0  0  0
 18102  1  0  0  0
 19 20  1  0  0  0
 19 24  1  0  0  0
 20 21  2  0  0  0
 20103  1  0  0  0
 21 23  1  0  0  0
 22 28  1  0  0  0
 22 32  2  0  0  0
 26 27  1  0  0  0
 28104  1  0  0  0
 28105  1  0  0  0
 29106  1  0  0  0
 29107  1  0  0  0
 33 34  1  0  0  0
 33 66  1  0  0  0
 33 70  2  0  0  0
 34 36  1  0  0  0
 34 59  1  0  0  0
 34108  1  0  0  0
 35 44  2  0  0  0
 35 45  1  0  0  0
 35 68  1  0  0  0
 36 56  1  0  0  0
 36109  1  0  0  0
 37 39  1  0  0  0
 37 47  1  0  0  0
 37 66  1  0  0  0
 37110  1  0  0  0
 38 43  2  0  0  0
 38 46  1  0  0  0
 38 47  1  0  0  0
 39 64  1  0  0  0
 39 67  2  0  0  0
 40 52  1  0  0  0
 40 53  2  0  0  0
 40 58  1  0  0  0
 41111  1  0  0  0
 41112  1  0  0  0
 41113  1  0  0  0
 41 48  1  0  0  0
 42 43  1  0  0  0
 42 66  1  0  0  0
 42114  1  0  0  0
 42115  1  0  0  0
 43 44  1  0  0  0
 44116  1  0  0  0
 45 46  2  0  0  0
 45117  1  0  0  0
 46118  1  0  0  0
 47119  1  0  0  0
 47120  1  0  0  0
 48 56  1  0  0  0
 48 65  1  0  0  0
 48121  1  0  0  0
 49 50  1  0  0  0
 49 53  1  0  0  0
 49 64  1  0  0  0
 49122  1  0  0  0
 50 51  1  0  0  0
 50123  1  0  0  0
 50124  1  0  0  0
 51 52  1  0  0  0
 51125  1  0  0  0
 51126  1  0  0  0
 52127  1  0  0  0
 52128  1  0  0  0
 53 54  1  0  0  0
 54 55  2  0  0  0
 54129  1  0  0  0
 55 57  1  0  0  0
 55130  1  0  0  0
 56 69  2  0  0  0
 57 58  2  0  0  0
 57131  1  0  0  0
 58132  1  0  0  0
 59 60  1  0  0  0
 59 61  1  0  0  0
 59 62  1  0  0  0
 60133  1  0  0  0
 60134  1  0  0  0
 60135  1  0  0  0
 61136  1  0  0  0
 61137  1  0  0  0
 61138  1  0  0  0
 62139  1  0  0  0
 62140  1  0  0  0
 62141  1  0  0  0
 63 65  1  0  0  0
 63142  1  0  0  0
 63143  1  0  0  0
 63144  1  0  0  0
 64145  1  0  0  0
 65146  1  0  0  0
 68 82  1  0  0  0
 71 73  2  0  0  0
 71 75  1  0  0  0
 71147  1  0  0  0
 72 74  1  0  0  0
 72 75  2  0  0  0
 72148  1  0  0  0
 73 76  1  0  0  0
 73149  1  0  0  0
 74 76  2  0  0  0
 74150  1  0  0  0
 75 81  1  0  0  0
 76 86  1  0  0  0
 77 78  1  0  0  0
 77 79  1  0  0  0
 77 80  2  0  0  0
 78 82  2  0  0  0
 78 83  1  0  0  0
 79 86  1  0  0  0
 79 87  2  0  0  0
 80151  1  0  0  0
 80152  1  0  0  0
 81 85  2  0  0  0
 81153  1  0  0  0
 82 84  1  0  0  0
 83 86  1  0  0  0
 83154  1  0  0  0
 83155  1  0  0  0
 84156  1  0  0  0
 84157  1  0  0  0
 84158  1  0  0  0
M  ISO  4   1 100  68 101  82 101  85 100
M  END
> <chiral flag>
0

> <version>
0

> <s_m_source_file>
/data/baiqing/PycharmProjects/Reinvent-master-3.2/result/LINK_invent/BTK/process_docking_weight1_custom_product_contain_oxygen_bond_distance_aromatic_linkinvent_7_9_3/rearranged_h_0080.sdf

> <i_m_source_file_index>
41

> <r_mmod_Potential_Energy-OPLS-2005>
195.122512817383

> <r_mmod_Stretch_Energy-OPLS-2005>
49.393367767334

> <r_mmod_Bend_Energy-OPLS-2005>
183.658157348633

> <r_mmod_Torsional_Energy-OPLS-2005>
267.4453125

> <r_mmod_Improper_Torsional_Energy-OPLS-2005>
6.44370651245117

> <r_mmod_Van_der_Waal_Energy-OPLS-2005>
171.666168212891

> <r_mmod_Electrostatic_Energy-OPLS-2005>
-318.230102539062

> <r_mmod_Solvation_Energy-OPLS-2005>
-183.632873535156

> <b_mmod_Minimization_Converged-OPLS-2005>
0

> <r_mmod_RMS_Derivative-OPLS-2005>
0.405631482601166

$$$$
41
                    3D
 Structure written by MMmdl.
160169  0  0  1  0            999 V2000
  -30.7702  -14.4775   20.6027 C   0  0  0  0  0  0
  -30.4063  -12.3245   19.4414 C   0  0  0  0  0  0
  -29.4975  -12.5129   18.2126 C   0  0  0  0  0  0
  -28.0204  -12.3703   18.6228 C   0  0  0  0  0  0
  -27.6569  -13.2241   19.8677 C   0  0  2  0  0  0
  -28.6985  -13.0643   21.0000 C   0  0  0  0  0  0
  -25.2574  -13.8186   20.5680 C   0  0  0  0  0  0
  -24.1850  -13.0438   20.9177 C   0  0  0  0  0  0
  -24.6426  -11.6914   20.8723 C   0  0  0  0  0  0
  -23.9094  -10.4297   21.0398 C   0  0  0  0  0  0
  -24.3638   -9.4205   21.9179 C   0  0  0  0  0  0
  -23.6307   -8.2244   22.0753 C   0  0  0  0  0  0
  -22.4290   -8.0284   21.3545 C   0  0  0  0  0  0
  -21.9930   -9.0260   20.4645 C   0  0  0  0  0  0
  -22.7266  -10.2136   20.3049 C   0  0  0  0  0  0
  -21.6851   -6.0742   22.5281 C   0  0  0  0  0  0
  -21.4013   -6.5647   23.8212 C   0  0  0  0  0  0
  -21.3664   -5.6797   24.9174 C   0  0  0  0  0  0
  -21.6047   -4.3060   24.7222 C   0  0  0  0  0  0
  -21.8815   -3.8149   23.4342 C   0  0  0  0  0  0
  -21.9194   -4.6968   22.3402 C   0  0  0  0  0  0
  -22.7876  -13.5222   21.1839 C   0  0  0  0  0  0
  -22.1662   -4.2152   21.0980 F   0  0  0  0  0  0
  -21.5635   -3.4543   25.7733 F   0  0  0  0  0  0
  -30.0263  -13.3452   20.4364 N   0  0  0  0  0  0
  -26.3018  -12.9392   20.3333 N   0  0  0  0  0  0
  -25.9356  -11.6536   20.5740 N   0  0  0  0  0  0
  -22.0519  -12.8212   22.0396 N   0  0  0  0  0  0
  -25.4262  -15.1907   20.4101 N   0  0  0  0  0  0
  -31.8991  -14.5588   20.1090 O   0  0  0  0  0  0
  -21.6645   -6.8886   21.4242 O   0  0  0  0  0  0
  -22.3563  -14.5533   20.6697 O   0  0  0  0  0  0
  -24.6203  -31.8693   23.2158 C   0  0  0  0  0  0
  -25.9095  -32.4821   23.8440 C   0  0  1  0  0  0
  -27.2005  -27.3925   20.1064 C   0  0  0  0  0  0
  -25.5948  -33.8620   24.2369 N   0  0  0  0  0  0
  -23.4066  -30.4992   21.5573 C   0  0  2  0  0  0
  -24.8481  -28.9732   20.1167 C   0  0  0  0  0  0
  -22.7442  -29.4663   22.4996 C   0  0  0  0  0  0
  -18.0280  -28.1365   22.8487 C   0  0  0  0  0  0
  -24.1475  -36.7297   23.2634 C   0  0  0  0  0  0
  -25.9446  -30.8181   21.3833 C   0  0  0  0  0  0
  -26.0136  -29.4513   20.7312 C   0  0  0  0  0  0
  -27.1932  -28.6618   20.7413 C   0  0  0  0  0  0
  -26.0364  -26.9846   19.4257 C   0  0  0  0  0  0
  -24.8552  -27.7366   19.4613 C   0  0  0  0  0  0
  -23.6166  -29.8460   20.1680 C   0  0  0  0  0  0
  -25.4101  -36.3115   24.0351 C   0  0  1  0  0  0
  -20.5877  -28.3653   23.1299 C   0  0  2  0  0  0
  -20.6772  -26.9387   22.5401 C   0  0  0  0  0  0
  -19.5748  -26.6367   21.5198 C   0  0  0  0  0  0
  -18.1927  -26.7910   22.1611 C   0  0  0  0  0  0
  -19.1533  -28.8830   23.2882 C   0  0  0  0  0  0
  -18.9455  -30.1438   23.8886 C   0  0  0  0  0  0
  -17.6454  -30.6566   24.0551 C   0  0  0  0  0  0
  -25.9041  -34.9477   23.5147 C   0  0  0  0  0  0
  -16.5344  -29.9062   23.6323 C   0  0  0  0  0  0
  -16.7266  -28.6478   23.0349 C   0  0  0  0  0  0
  -26.4514  -31.6593   25.0758 C   0  0  0  0  0  0
  -25.3783  -31.3697   26.1507 C   0  0  0  0  0  0
  -27.0334  -30.3019   24.6166 C   0  0  0  0  0  0
  -27.6112  -32.4294   25.7501 C   0  0  0  0  0  0
  -27.5583  -37.1803   24.8462 C   0  0  0  0  0  0
  -21.4171  -29.3026   22.3716 N   0  0  0  0  0  0
  -26.4275  -37.3810   23.9428 N   0  0  0  0  0  0
  -24.6756  -31.0772   22.1091 N   0  0  0  0  0  0
  -23.4199  -28.8190   23.3040 O   0  0  0  0  0  0
  -28.3029  -26.5545   20.1029 O   0  0  0  0  0  0
  -26.5567  -34.8929   22.4682 O   0  0  0  0  0  0
  -23.5382  -32.1449   23.7538 O   0  0  0  0  0  0
  -30.6586  -19.1981   21.1643 C   0  0  0  0  0  0
  -28.6745  -18.0732   21.9876 C   0  0  0  0  0  0
  -29.9780  -20.4354   21.1586 C   0  0  0  0  0  0
  -27.9941  -19.3154   21.9824 C   0  0  0  0  0  0
  -30.0158  -17.9941   21.5522 C   0  0  0  0  0  0
  -28.6232  -20.5128   21.5411 C   0  0  0  0  0  0
  -28.4422  -23.0331   21.5062 C   0  0  0  0  0  0
  -27.9108  -24.1190   20.8827 C   0  0  0  0  0  0
  -26.3482  -22.4817   19.6973 C   0  0  0  0  0  0
  -25.8893  -22.0334   18.5175 C   0  0  0  0  0  0
  -30.8035  -16.6991   21.5358 C   0  0  0  0  0  0
  -26.7499  -23.9308   19.9118 C   0  0  0  0  0  0
  -26.5569  -21.5716   20.8871 C   0  0  0  0  0  0
  -28.3624  -25.5794   21.1822 C   0  0  0  0  0  0
  -27.9112  -21.7337   21.4200 N   0  0  0  0  0  0
  -30.1719  -15.5489   21.1826 N   0  0  0  0  0  0
  -32.0125  -16.7695   21.7897 O   0  0  0  0  0  0
  -31.4570  -12.3752   19.1503 H   0  0  0  0  0  0
  -30.2690  -11.3276   19.8616 H   0  0  0  0  0  0
  -29.7453  -11.7797   17.4434 H   0  0  0  0  0  0
  -29.6705  -13.4954   17.7690 H   0  0  0  0  0  0
  -27.8376  -11.3162   18.8308 H   0  0  0  0  0  0
  -27.3723  -12.6310   17.7852 H   0  0  0  0  0  0
  -27.6839  -14.2645   19.5431 H   0  0  0  0  0  0
  -28.6787  -12.0513   21.4055 H   0  0  0  0  0  0
  -28.4584  -13.7221   21.8370 H   0  0  0  0  0  0
  -25.2780   -9.5677   22.4761 H   0  0  0  0  0  0
  -24.0009   -7.4636   22.7483 H   0  0  0  0  0  0
  -21.0857   -8.8784   19.8961 H   0  0  0  0  0  0
  -22.3724  -10.9675   19.6160 H   0  0  0  0  0  0
  -21.2000   -7.6156   23.9712 H   0  0  0  0  0  0
  -21.1496   -6.0532   25.9077 H   0  0  0  0  0  0
  -22.0593   -2.7609   23.2837 H   0  0  0  0  0  0
  -22.4112  -11.9853   22.4772 H   0  0  0  0  0  0
  -21.1133  -13.1238   22.2581 H   0  0  0  0  0  0
  -24.6512  -15.8377   20.5034 H   0  0  0  0  0  0
  -26.2716  -15.6319   20.0722 H   0  0  0  0  0  0
  -26.7178  -32.5513   23.1216 H   0  0  0  0  0  0
  -25.0215  -33.9792   25.0588 H   0  0  0  0  0  0
  -22.6969  -31.3195   21.4252 H   0  0  0  0  0  0
  -23.3765  -35.9596   23.3271 H   0  0  0  0  0  0
  -24.3590  -36.8919   22.2054 H   0  0  0  0  0  0
  -23.7181  -37.6488   23.6633 H   0  0  0  0  0  0
  -26.0679  -31.5829   20.6154 H   0  0  0  0  0  0
  -26.8311  -30.8657   22.0047 H   0  0  0  0  0  0
  -28.0846  -29.0149   21.2408 H   0  0  0  0  0  0
  -26.0122  -26.0912   18.8332 H   0  0  0  0  0  0
  -23.9708  -27.3784   18.9527 H   0  0  0  0  0  0
  -23.7341  -30.6261   19.4143 H   0  0  0  0  0  0
  -22.7371  -29.2748   19.8638 H   0  0  0  0  0  0
  -25.1271  -36.1996   25.0842 H   0  0  0  0  0  0
  -20.9963  -28.3202   24.1424 H   0  0  0  0  0  0
  -20.5658  -26.2265   23.3587 H   0  0  0  0  0  0
  -21.6644  -26.7416   22.1203 H   0  0  0  0  0  0
  -19.6897  -25.6279   21.1216 H   0  0  0  0  0  0
  -19.6684  -27.3196   20.6744 H   0  0  0  0  0  0
  -17.4203  -26.6672   21.4001 H   0  0  0  0  0  0
  -18.0311  -26.0044   22.8995 H   0  0  0  0  0  0
  -19.7936  -30.7256   24.2242 H   0  0  0  0  0  0
  -17.5011  -31.6250   24.5147 H   0  0  0  0  0  0
  -15.5340  -30.2960   23.7650 H   0  0  0  0  0  0
  -15.8672  -28.0795   22.7059 H   0  0  0  0  0  0
  -24.5978  -30.7009   25.7855 H   0  0  0  0  0  0
  -24.8946  -32.2845   26.4943 H   0  0  0  0  0  0
  -25.8156  -30.8891   27.0268 H   0  0  0  0  0  0
  -26.2891  -29.6802   24.1179 H   0  0  0  0  0  0
  -27.4039  -29.7250   25.4653 H   0  0  0  0  0  0
  -27.8763  -30.4317   23.9373 H   0  0  0  0  0  0
  -27.2771  -33.3611   26.2079 H   0  0  0  0  0  0
  -28.3914  -32.6823   25.0302 H   0  0  0  0  0  0
  -28.0783  -31.8400   26.5406 H   0  0  0  0  0  0
  -28.2594  -38.0118   24.7576 H   0  0  0  0  0  0
  -28.1095  -36.2662   24.6198 H   0  0  0  0  0  0
  -27.2313  -37.1343   25.8868 H   0  0  0  0  0  0
  -20.9333  -29.8777   21.6966 H   0  0  0  0  0  0
  -26.0174  -38.2877   24.1476 H   0  0  0  0  0  0
  -31.6909  -19.1784   20.8426 H   0  0  0  0  0  0
  -28.1572  -17.1879   22.3308 H   0  0  0  0  0  0
  -30.4957  -21.3203   20.8150 H   0  0  0  0  0  0
  -26.9681  -19.3313   22.3199 H   0  0  0  0  0  0
  -29.2449  -23.1309   22.2249 H   0  0  0  0  0  0
  -25.7700  -22.6990   17.6744 H   0  0  0  0  0  0
  -25.6306  -20.9945   18.3710 H   0  0  0  0  0  0
  -27.0423  -24.3375   18.9459 H   0  0  0  0  0  0
  -25.8797  -24.4558   20.3039 H   0  0  0  0  0  0
  -26.3319  -20.5520   20.5720 H   0  0  0  0  0  0
  -25.8350  -21.8295   21.6636 H   0  0  0  0  0  0
  -29.3917  -25.5487   21.5410 H   0  0  0  0  0  0
  -27.7694  -25.9379   22.0262 H   0  0  0  0  0  0
  -29.1711  -15.5298   21.2615 H   0  0  0  0  0  0
  1 25  1  0  0  0
  1 30  2  0  0  0
  1 86  1  0  0  0
  2  3  1  0  0  0
  2 25  1  0  0  0
  2 88  1  0  0  0
  2 89  1  0  0  0
  3  4  1  0  0  0
  3 90  1  0  0  0
  3 91  1  0  0  0
  4  5  1  0  0  0
  4 92  1  0  0  0
  4 93  1  0  0  0
  5  6  1  0  0  0
  5 26  1  0  0  0
  5 94  1  0  0  0
  6 25  1  0  0  0
  6 95  1  0  0  0
  6 96  1  0  0  0
  7  8  2  0  0  0
  7 26  1  0  0  0
  7 29  1  0  0  0
  8  9  1  0  0  0
  8 22  1  0  0  0
  9 10  1  0  0  0
  9 27  2  0  0  0
 10 11  2  0  0  0
 10 15  1  0  0  0
 11 12  1  0  0  0
 11 97  1  0  0  0
 12 13  2  0  0  0
 12 98  1  0  0  0
 13 14  1  0  0  0
 13 31  1  0  0  0
 14 15  2  0  0  0
 14 99  1  0  0  0
 15100  1  0  0  0
 16 17  2  0  0  0
 16 21  1  0  0  0
 16 31  1  0  0  0
 17 18  1  0  0  0
 17101  1  0  0  0
 18 19  2  0  0  0
 18102  1  0  0  0
 19 20  1  0  0  0
 19 24  1  0  0  0
 20 21  2  0  0  0
 20103  1  0  0  0
 21 23  1  0  0  0
 22 28  1  0  0  0
 22 32  2  0  0  0
 26 27  1  0  0  0
 28104  1  0  0  0
 28105  1  0  0  0
 29106  1  0  0  0
 29107  1  0  0  0
 33 34  1  0  0  0
 33 66  1  0  0  0
 33 70  2  0  0  0
 34 36  1  0  0  0
 34 59  1  0  0  0
 34108  1  0  0  0
 35 44  2  0  0  0
 35 45  1  0  0  0
 35 68  1  0  0  0
 36 56  1  0  0  0
 36109  1  0  0  0
 37 39  1  0  0  0
 37 47  1  0  0  0
 37 66  1  0  0  0
 37110  1  0  0  0
 38 43  2  0  0  0
 38 46  1  0  0  0
 38 47  1  0  0  0
 39 64  1  0  0  0
 39 67  2  0  0  0
 40 52  1  0  0  0
 40 53  2  0  0  0
 40 58  1  0  0  0
 41111  1  0  0  0
 41112  1  0  0  0
 41113  1  0  0  0
 41 48  1  0  0  0
 42 43  1  0  0  0
 42 66  1  0  0  0
 42114  1  0  0  0
 42115  1  0  0  0
 43 44  1  0  0  0
 44116  1  0  0  0
 45 46  2  0  0  0
 45117  1  0  0  0
 46118  1  0  0  0
 47119  1  0  0  0
 47120  1  0  0  0
 48 56  1  0  0  0
 48 65  1  0  0  0
 48121  1  0  0  0
 49 50  1  0  0  0
 49 53  1  0  0  0
 49 64  1  0  0  0
 49122  1  0  0  0
 50 51  1  0  0  0
 50123  1  0  0  0
 50124  1  0  0  0
 51 52  1  0  0  0
 51125  1  0  0  0
 51126  1  0  0  0
 52127  1  0  0  0
 52128  1  0  0  0
 53 54  1  0  0  0
 54 55  2  0  0  0
 54129  1  0  0  0
 55 57  1  0  0  0
 55130  1  0  0  0
 56 69  2  0  0  0
 57 58  2  0  0  0
 57131  1  0  0  0
 58132  1  0  0  0
 59 60  1  0  0  0
 59 61  1  0  0  0
 59 62  1  0  0  0
 60133  1  0  0  0
 60134  1  0  0  0
 60135  1  0  0  0
 61136  1  0  0  0
 61137  1  0  0  0
 61138  1  0  0  0
 62139  1  0  0  0
 62140  1  0  0  0
 62141  1  0  0  0
 63 65  1  0  0  0
 63142  1  0  0  0
 63143  1  0  0  0
 63144  1  0  0  0
 64145  1  0  0  0
 65146  1  0  0  0
 68 84  1  0  0  0
 71 73  2  0  0  0
 71 75  1  0  0  0
 71147  1  0  0  0
 72 74  1  0  0  0
 72 75  2  0  0  0
 72148  1  0  0  0
 73 76  1  0  0  0
 73149  1  0  0  0
 74 76  2  0  0  0
 74150  1  0  0  0
 75 81  1  0  0  0
 76 85  1  0  0  0
 77 78  2  0  0  0
 77 85  1  0  0  0
 77151  1  0  0  0
 78 82  1  0  0  0
 78 84  1  0  0  0
 79 80  2  0  0  0
 79 82  1  0  0  0
 79 83  1  0  0  0
 80152  1  0  0  0
 80153  1  0  0  0
 81 86  1  0  0  0
 81 87  2  0  0  0
 82154  1  0  0  0
 82155  1  0  0  0
 83 85  1  0  0  0
 83156  1  0  0  0
 83157  1  0  0  0
 84158  1  0  0  0
 84159  1  0  0  0
 86160  1  0  0  0
M  ISO  4   1 100  68 101  84 101  86 100
M  END
> <chiral flag>
0

> <version>
0

> <s_m_source_file>
/data/baiqing/PycharmProjects/Reinvent-master-3.2/result/LINK_invent/BTK/process_docking_weight1_custom_product_contain_oxygen_bond_distance_aromatic_linkinvent_7_9_3/rearranged_h_0080.sdf

> <i_m_source_file_index>
42

> <r_mmod_Potential_Energy-OPLS-2005>
-25.3930168151855

> <r_mmod_Stretch_Energy-OPLS-2005>
47.9370651245117

> <r_mmod_Bend_Energy-OPLS-2005>
110.465461730957

> <r_mmod_Torsional_Energy-OPLS-2005>
251.977249145508

> <r_mmod_Improper_Torsional_Energy-OPLS-2005>
4.49869251251221

> <r_mmod_Van_der_Waal_Energy-OPLS-2005>
180.294952392578

> <r_mmod_Electrostatic_Energy-OPLS-2005>
-422.325378417969

> <r_mmod_Solvation_Energy-OPLS-2005>
-223.15202331543

> <b_mmod_Minimization_Converged-OPLS-2005>
0

> <r_mmod_RMS_Derivative-OPLS-2005>
2.38773775100708

$$$$
42
                    3D
 Structure written by MMmdl.
159168  0  0  1  0            999 V2000
  -30.6644  -14.6811   20.4504 C   0  0  0  0  0  0
  -30.4137  -12.4115   19.4790 C   0  0  0  0  0  0
  -29.5097  -12.5019   18.2331 C   0  0  0  0  0  0
  -28.0292  -12.3557   18.6337 C   0  0  0  0  0  0
  -27.6413  -13.2407   19.8486 C   0  0  2  0  0  0
  -28.6826  -13.1730   20.9866 C   0  0  0  0  0  0
  -25.2495  -13.8209   20.5667 C   0  0  0  0  0  0
  -24.1798  -13.0447   20.9210 C   0  0  0  0  0  0
  -24.6398  -11.6926   20.8728 C   0  0  0  0  0  0
  -23.9077  -10.4301   21.0389 C   0  0  0  0  0  0
  -24.3624   -9.4224   21.9172 C   0  0  0  0  0  0
  -23.6313   -8.2255   22.0754 C   0  0  0  0  0  0
  -22.4299   -8.0277   21.3537 C   0  0  0  0  0  0
  -21.9928   -9.0249   20.4643 C   0  0  0  0  0  0
  -22.7247  -10.2131   20.3048 C   0  0  0  0  0  0
  -21.6869   -6.0740   22.5275 C   0  0  0  0  0  0
  -21.4005   -6.5644   23.8204 C   0  0  0  0  0  0
  -21.3664   -5.6801   24.9169 C   0  0  0  0  0  0
  -21.6045   -4.3064   24.7218 C   0  0  0  0  0  0
  -21.8817   -3.8151   23.4336 C   0  0  0  0  0  0
  -21.9185   -4.6965   22.3393 C   0  0  0  0  0  0
  -22.7816  -13.5213   21.1866 C   0  0  0  0  0  0
  -22.1664   -4.2145   21.0976 F   0  0  0  0  0  0
  -21.5643   -3.4549   25.7731 F   0  0  0  0  0  0
  -29.9908  -13.4859   20.4028 N   0  0  0  0  0  0
  -26.2929  -12.9439   20.3236 N   0  0  0  0  0  0
  -25.9329  -11.6569   20.5708 N   0  0  0  0  0  0
  -22.0466  -12.8200   22.0414 N   0  0  0  0  0  0
  -25.4189  -15.1929   20.4089 N   0  0  0  0  0  0
  -31.8618  -14.6946   20.1681 O   0  0  0  0  0  0
  -21.6652   -6.8884   21.4242 O   0  0  0  0  0  0
  -22.3497  -14.5522   20.6726 O   0  0  0  0  0  0
  -24.6271  -31.8606   23.2012 C   0  0  0  0  0  0
  -25.9112  -32.4782   23.8351 C   0  0  1  0  0  0
  -27.2236  -27.3114   20.1057 C   0  0  0  0  0  0
  -25.5918  -33.8582   24.2268 N   0  0  0  0  0  0
  -23.4202  -30.4829   21.5449 C   0  0  2  0  0  0
  -24.8645  -28.9348   20.1126 C   0  0  0  0  0  0
  -22.7473  -29.4640   22.4945 C   0  0  0  0  0  0
  -18.0281  -28.1377   22.8491 C   0  0  0  0  0  0
  -24.1479  -36.7297   23.2636 C   0  0  0  0  0  0
  -25.9629  -30.7861   21.3726 C   0  0  0  0  0  0
  -26.0364  -29.4137   20.7112 C   0  0  0  0  0  0
  -27.2170  -28.6126   20.7000 C   0  0  0  0  0  0
  -26.0149  -26.8743   19.5150 C   0  0  0  0  0  0
  -24.8545  -27.6686   19.5083 C   0  0  0  0  0  0
  -23.6327  -29.8138   20.1621 C   0  0  0  0  0  0
  -25.4109  -36.3092   24.0326 C   0  0  1  0  0  0
  -20.5886  -28.3701   23.1279 C   0  0  2  0  0  0
  -20.6785  -26.9422   22.5413 C   0  0  0  0  0  0
  -19.5764  -26.6376   21.5217 C   0  0  0  0  0  0
  -18.1934  -26.7927   22.1620 C   0  0  0  0  0  0
  -19.1534  -28.8848   23.2881 C   0  0  0  0  0  0
  -18.9454  -30.1451   23.8900 C   0  0  0  0  0  0
  -17.6462  -30.6592   24.0551 C   0  0  0  0  0  0
  -25.9046  -34.9459   23.5097 C   0  0  0  0  0  0
  -16.5349  -29.9089   23.6323 C   0  0  0  0  0  0
  -16.7269  -28.6490   23.0363 C   0  0  0  0  0  0
  -26.4473  -31.6620   25.0746 C   0  0  0  0  0  0
  -25.3684  -31.3789   26.1459 C   0  0  0  0  0  0
  -27.0314  -30.3032   24.6235 C   0  0  0  0  0  0
  -27.6009  -32.4369   25.7536 C   0  0  0  0  0  0
  -27.5580  -37.1806   24.8454 C   0  0  0  0  0  0
  -21.4191  -29.3059   22.3686 N   0  0  0  0  0  0
  -26.4288  -37.3791   23.9404 N   0  0  0  0  0  0
  -24.6891  -31.0613   22.0956 N   0  0  0  0  0  0
  -23.4197  -28.8182   23.3027 O   0  0  0  0  0  0
  -28.3360  -26.4501   20.1686 O   0  0  0  0  0  0
  -26.5620  -34.8933   22.4664 O   0  0  0  0  0  0
  -23.5430  -32.1401   23.7331 O   0  0  0  0  0  0
  -29.4271  -18.4022   20.5210 C   0  0  0  0  0  0
  -31.0936  -19.9869   19.7093 C   0  0  0  0  0  0
  -31.6076  -17.6001   19.8290 C   0  0  0  0  0  0
  -29.8004  -19.7759   20.2252 C   0  0  0  0  0  0
  -30.3219  -17.2717   20.3338 C   0  0  0  0  0  0
  -31.9831  -18.9191   19.5165 C   0  0  0  0  0  0
  -28.6563  -23.9951   19.6988 C   0  0  0  0  0  0
  -28.8141  -23.4721   21.0882 C   0  0  0  0  0  0
  -28.4456  -25.3174   19.3302 C   0  0  0  0  0  0
  -28.7533  -22.8362   18.6777 C   0  0  0  0  0  0
  -29.4332  -22.0343   21.2797 C   0  0  0  0  0  0
  -28.2777  -21.4222   19.1703 C   0  0  0  0  0  0
  -28.4218  -25.7253   17.8610 C   0  0  0  0  0  0
  -28.9573  -20.9364   20.3850 N   0  0  0  0  0  0
  -29.9440  -15.8565   20.6121 N   0  0  0  0  0  0
  -28.5038  -24.1216   22.0912 O   0  0  0  0  0  0
  -33.2165  -19.1640   19.0104 F   0  0  0  0  0  0
  -31.4631  -12.4891   19.1911 H   0  0  0  0  0  0
  -30.3096  -11.4391   19.9625 H   0  0  0  0  0  0
  -29.7872  -11.7326   17.5102 H   0  0  0  0  0  0
  -29.6628  -13.4614   17.7336 H   0  0  0  0  0  0
  -27.8533  -11.3066   18.8689 H   0  0  0  0  0  0
  -27.3879  -12.5836   17.7817 H   0  0  0  0  0  0
  -27.6393  -14.2664   19.4789 H   0  0  0  0  0  0
  -28.6960  -12.1819   21.4444 H   0  0  0  0  0  0
  -28.4317  -13.8796   21.7802 H   0  0  0  0  0  0
  -25.2756   -9.5726   22.4761 H   0  0  0  0  0  0
  -24.0030   -7.4651   22.7477 H   0  0  0  0  0  0
  -21.0865   -8.8759   19.8950 H   0  0  0  0  0  0
  -22.3689  -10.9671   19.6171 H   0  0  0  0  0  0
  -21.2004   -7.6152   23.9711 H   0  0  0  0  0  0
  -21.1495   -6.0528   25.9075 H   0  0  0  0  0  0
  -22.0594   -2.7615   23.2832 H   0  0  0  0  0  0
  -22.4087  -11.9864   22.4801 H   0  0  0  0  0  0
  -21.1067  -13.1214   22.2587 H   0  0  0  0  0  0
  -24.6543  -15.8496   20.5214 H   0  0  0  0  0  0
  -26.2619  -15.6256   20.0546 H   0  0  0  0  0  0
  -26.7175  -32.5448   23.1099 H   0  0  0  0  0  0
  -25.0060  -33.9726   25.0403 H   0  0  0  0  0  0
  -22.7151  -31.3042   21.4012 H   0  0  0  0  0  0
  -23.3755  -35.9616   23.3284 H   0  0  0  0  0  0
  -24.3552  -36.8936   22.2051 H   0  0  0  0  0  0
  -23.7224  -37.6488   23.6666 H   0  0  0  0  0  0
  -26.0965  -31.5488   20.6043 H   0  0  0  0  0  0
  -26.8419  -30.8344   22.0042 H   0  0  0  0  0  0
  -28.1155  -28.9740   21.1775 H   0  0  0  0  0  0
  -25.9402  -25.8901   19.0744 H   0  0  0  0  0  0
  -23.9488  -27.2859   19.0576 H   0  0  0  0  0  0
  -23.7469  -30.5853   19.4002 H   0  0  0  0  0  0
  -22.7537  -29.2379   19.8657 H   0  0  0  0  0  0
  -25.1296  -36.1940   25.0822 H   0  0  0  0  0  0
  -20.9965  -28.3275   24.1401 H   0  0  0  0  0  0
  -20.5689  -26.2315   23.3617 H   0  0  0  0  0  0
  -21.6659  -26.7468   22.1196 H   0  0  0  0  0  0
  -19.6928  -25.6276   21.1258 H   0  0  0  0  0  0
  -19.6700  -27.3171   20.6730 H   0  0  0  0  0  0
  -17.4221  -26.6667   21.4004 H   0  0  0  0  0  0
  -18.0332  -26.0068   22.9010 H   0  0  0  0  0  0
  -19.7936  -30.7250   24.2279 H   0  0  0  0  0  0
  -17.5021  -31.6269   24.5169 H   0  0  0  0  0  0
  -15.5347  -30.2989   23.7656 H   0  0  0  0  0  0
  -15.8663  -28.0795   22.7106 H   0  0  0  0  0  0
  -24.5812  -30.7202   25.7779 H   0  0  0  0  0  0
  -24.8926  -32.2984   26.4892 H   0  0  0  0  0  0
  -25.7968  -30.8933   27.0244 H   0  0  0  0  0  0
  -26.2904  -29.6809   24.1206 H   0  0  0  0  0  0
  -27.3928  -29.7277   25.4778 H   0  0  0  0  0  0
  -27.8816  -30.4297   23.9521 H   0  0  0  0  0  0
  -27.2569  -33.3651   26.2121 H   0  0  0  0  0  0
  -28.3821  -32.6982   25.0381 H   0  0  0  0  0  0
  -28.0686  -31.8512   26.5466 H   0  0  0  0  0  0
  -28.2593  -38.0111   24.7523 H   0  0  0  0  0  0
  -28.1088  -36.2645   24.6253 H   0  0  0  0  0  0
  -27.2297  -37.1425   25.8857 H   0  0  0  0  0  0
  -20.9383  -29.8756   21.6861 H   0  0  0  0  0  0
  -26.0173  -38.2867   24.1410 H   0  0  0  0  0  0
  -28.4320  -18.2188   20.9012 H   0  0  0  0  0  0
  -31.4217  -20.9789   19.4379 H   0  0  0  0  0  0
  -32.3662  -16.8611   19.6423 H   0  0  0  0  0  0
  -29.7915  -22.7704   18.3489 H   0  0  0  0  0  0
  -28.1738  -23.0864   17.7894 H   0  0  0  0  0  0
  -29.2605  -21.7307   22.3120 H   0  0  0  0  0  0
  -30.5135  -22.1438   21.1793 H   0  0  0  0  0  0
  -28.3904  -20.7038   18.3547 H   0  0  0  0  0  0
  -27.2061  -21.4562   19.3801 H   0  0  0  0  0  0
  -29.2992  -25.3349   17.3442 H   0  0  0  0  0  0
  -28.4343  -26.8094   17.7427 H   0  0  0  0  0  0
  -27.5311  -25.3400   17.3645 H   0  0  0  0  0  0
  -28.9790  -15.7147   20.8646 H   0  0  0  0  0  0
  1 25  1  0  0  0
  1 30  2  0  0  0
  1 85  1  0  0  0
  2  3  1  0  0  0
  2 25  1  0  0  0
  2 88  1  0  0  0
  2 89  1  0  0  0
  3  4  1  0  0  0
  3 90  1  0  0  0
  3 91  1  0  0  0
  4  5  1  0  0  0
  4 92  1  0  0  0
  4 93  1  0  0  0
  5  6  1  0  0  0
  5 26  1  0  0  0
  5 94  1  0  0  0
  6 25  1  0  0  0
  6 95  1  0  0  0
  6 96  1  0  0  0
  7  8  2  0  0  0
  7 26  1  0  0  0
  7 29  1  0  0  0
  8  9  1  0  0  0
  8 22  1  0  0  0
  9 10  1  0  0  0
  9 27  2  0  0  0
 10 11  2  0  0  0
 10 15  1  0  0  0
 11 12  1  0  0  0
 11 97  1  0  0  0
 12 13  2  0  0  0
 12 98  1  0  0  0
 13 14  1  0  0  0
 13 31  1  0  0  0
 14 15  2  0  0  0
 14 99  1  0  0  0
 15100  1  0  0  0
 16 17  2  0  0  0
 16 21  1  0  0  0
 16 31  1  0  0  0
 17 18  1  0  0  0
 17101  1  0  0  0
 18 19  2  0  0  0
 18102  1  0  0  0
 19 20  1  0  0  0
 19 24  1  0  0  0
 20 21  2  0  0  0
 20103  1  0  0  0
 21 23  1  0  0  0
 22 28  1  0  0  0
 22 32  2  0  0  0
 26 27  1  0  0  0
 28104  1  0  0  0
 28105  1  0  0  0
 29106  1  0  0  0
 29107  1  0  0  0
 33 34  1  0  0  0
 33 66  1  0  0  0
 33 70  2  0  0  0
 34 36  1  0  0  0
 34 59  1  0  0  0
 34108  1  0  0  0
 35 44  2  0  0  0
 35 45  1  0  0  0
 35 68  1  0  0  0
 36 56  1  0  0  0
 36109  1  0  0  0
 37 39  1  0  0  0
 37 47  1  0  0  0
 37 66  1  0  0  0
 37110  1  0  0  0
 38 43  2  0  0  0
 38 46  1  0  0  0
 38 47  1  0  0  0
 39 64  1  0  0  0
 39 67  2  0  0  0
 40 52  1  0  0  0
 40 53  2  0  0  0
 40 58  1  0  0  0
 41111  1  0  0  0
 41112  1  0  0  0
 41113  1  0  0  0
 41 48  1  0  0  0
 42 43  1  0  0  0
 42 66  1  0  0  0
 42114  1  0  0  0
 42115  1  0  0  0
 43 44  1  0  0  0
 44116  1  0  0  0
 45 46  2  0  0  0
 45117  1  0  0  0
 46118  1  0  0  0
 47119  1  0  0  0
 47120  1  0  0  0
 48 56  1  0  0  0
 48 65  1  0  0  0
 48121  1  0  0  0
 49 50  1  0  0  0
 49 53  1  0  0  0
 49 64  1  0  0  0
 49122  1  0  0  0
 50 51  1  0  0  0
 50123  1  0  0  0
 50124  1  0  0  0
 51 52  1  0  0  0
 51125  1  0  0  0
 51126  1  0  0  0
 52127  1  0  0  0
 52128  1  0  0  0
 53 54  1  0  0  0
 54 55  2  0  0  0
 54129  1  0  0  0
 55 57  1  0  0  0
 55130  1  0  0  0
 56 69  2  0  0  0
 57 58  2  0  0  0
 57131  1  0  0  0
 58132  1  0  0  0
 59 60  1  0  0  0
 59 61  1  0  0  0
 59 62  1  0  0  0
 60133  1  0  0  0
 60134  1  0  0  0
 60135  1  0  0  0
 61136  1  0  0  0
 61137  1  0  0  0
 61138  1  0  0  0
 62139  1  0  0  0
 62140  1  0  0  0
 62141  1  0  0  0
 63 65  1  0  0  0
 63142  1  0  0  0
 63143  1  0  0  0
 63144  1  0  0  0
 64145  1  0  0  0
 65146  1  0  0  0
 68 79  1  0  0  0
 71 74  2  0  0  0
 71 75  1  0  0  0
 71147  1  0  0  0
 72 74  1  0  0  0
 72 76  2  0  0  0
 72148  1  0  0  0
 73 75  2  0  0  0
 73 76  1  0  0  0
 73149  1  0  0  0
 74 84  1  0  0  0
 75 85  1  0  0  0
 76 87  1  0  0  0
 77 78  1  0  0  0
 77 79  2  0  0  0
 77 80  1  0  0  0
 78 81  1  0  0  0
 78 86  2  0  0  0
 79 83  1  0  0  0
 80 82  1  0  0  0
 80150  1  0  0  0
 80151  1  0  0  0
 81 84  1  0  0  0
 81152  1  0  0  0
 81153  1  0  0  0
 82 84  1  0  0  0
 82154  1  0  0  0
 82155  1  0  0  0
 83156  1  0  0  0
 83157  1  0  0  0
 83158  1  0  0  0
 85159  1  0  0  0
M  ISO  4   1 100  68 101  79 101  85 100
M  END
> <chiral flag>
0

> <version>
0

> <s_m_source_file>
/data/baiqing/PycharmProjects/Reinvent-master-3.2/result/LINK_invent/BTK/process_docking_weight1_custom_product_contain_oxygen_bond_distance_aromatic_linkinvent_7_9_3/rearranged_h_0080.sdf

> <i_m_source_file_index>
43

> <r_mmod_Potential_Energy-OPLS-2005>
241.181991577148

> <r_mmod_Stretch_Energy-OPLS-2005>
97.8966979980469

> <r_mmod_Bend_Energy-OPLS-2005>
147.360794067383

> <r_mmod_Torsional_Energy-OPLS-2005>
259.369995117188

> <r_mmod_Improper_Torsional_Energy-OPLS-2005>
8.37754726409912

> <r_mmod_Van_der_Waal_Energy-OPLS-2005>
165.251541137695

> <r_mmod_Electrostatic_Energy-OPLS-2005>
-269.655578613281

> <r_mmod_Solvation_Energy-OPLS-2005>
-230.629943847656

> <b_mmod_Minimization_Converged-OPLS-2005>
0

> <r_mmod_RMS_Derivative-OPLS-2005>
2.93981122970581

$$$$
43
                    3D
 Structure written by MMmdl.
153162  0  0  1  0            999 V2000
  -30.4757  -14.9827   20.4388 C   0  0  0  0  0  0
  -30.4653  -12.6151   19.4986 C   0  0  0  0  0  0
  -29.5331  -12.5584   18.2604 C   0  0  0  0  0  0
  -28.0614  -12.3331   18.6682 C   0  0  0  0  0  0
  -27.6425  -13.2317   19.8602 C   0  0  2  0  0  0
  -28.6919  -13.1662   20.9883 C   0  0  0  0  0  0
  -25.2543  -13.8158   20.5790 C   0  0  0  0  0  0
  -24.1791  -13.0411   20.9167 C   0  0  0  0  0  0
  -24.6382  -11.6888   20.8700 C   0  0  0  0  0  0
  -23.9058  -10.4276   21.0390 C   0  0  0  0  0  0
  -24.3610   -9.4197   21.9176 C   0  0  0  0  0  0
  -23.6286   -8.2233   22.0753 C   0  0  0  0  0  0
  -22.4267   -8.0270   21.3541 C   0  0  0  0  0  0
  -21.9903   -9.0240   20.4641 C   0  0  0  0  0  0
  -22.7230  -10.2118   20.3046 C   0  0  0  0  0  0
  -21.6843   -6.0732   22.5277 C   0  0  0  0  0  0
  -21.4004   -6.5638   23.8209 C   0  0  0  0  0  0
  -21.3663   -5.6795   24.9173 C   0  0  0  0  0  0
  -21.6050   -4.3057   24.7223 C   0  0  0  0  0  0
  -21.8816   -3.8148   23.4342 C   0  0  0  0  0  0
  -21.9189   -4.6964   22.3399 C   0  0  0  0  0  0
  -22.7816  -13.5201   21.1849 C   0  0  0  0  0  0
  -22.1659   -4.2153   21.0976 F   0  0  0  0  0  0
  -21.5636   -3.4541   25.7735 F   0  0  0  0  0  0
  -29.9558  -13.6741   20.4231 N   0  0  0  0  0  0
  -26.2954  -12.9354   20.3346 N   0  0  0  0  0  0
  -25.9318  -11.6491   20.5724 N   0  0  0  0  0  0
  -22.0471  -12.8190   22.0411 N   0  0  0  0  0  0
  -25.4366  -15.1878   20.4438 N   0  0  0  0  0  0
  -31.6550  -15.1090   20.0780 O   0  0  0  0  0  0
  -21.6629   -6.8870   21.4237 O   0  0  0  0  0  0
  -22.3503  -14.5517   20.6717 O   0  0  0  0  0  0
  -24.6453  -31.8422   23.1847 C   0  0  0  0  0  0
  -25.9222  -32.4683   23.8246 C   0  0  1  0  0  0
  -27.2280  -27.1254   20.1605 C   0  0  0  0  0  0
  -25.5982  -33.8490   24.2182 N   0  0  0  0  0  0
  -23.4496  -30.4569   21.5308 C   0  0  2  0  0  0
  -24.9018  -28.8758   20.1116 C   0  0  0  0  0  0
  -22.7583  -29.4517   22.4854 C   0  0  0  0  0  0
  -18.0305  -28.1399   22.8481 C   0  0  0  0  0  0
  -24.1483  -36.7236   23.2633 C   0  0  0  0  0  0
  -26.0044  -30.7120   21.3837 C   0  0  0  0  0  0
  -26.0771  -29.3193   20.7304 C   0  0  0  0  0  0
  -27.2413  -28.4612   20.7341 C   0  0  0  0  0  0
  -26.0305  -26.7855   19.4966 C   0  0  0  0  0  0
  -24.8910  -27.6217   19.4794 C   0  0  0  0  0  0
  -23.6784  -29.7789   20.1516 C   0  0  0  0  0  0
  -25.4121  -36.3023   24.0310 C   0  0  1  0  0  0
  -20.5924  -28.3722   23.1238 C   0  0  2  0  0  0
  -20.6798  -26.9425   22.5406 C   0  0  0  0  0  0
  -19.5763  -26.6382   21.5222 C   0  0  0  0  0  0
  -18.1944  -26.7933   22.1633 C   0  0  0  0  0  0
  -19.1565  -28.8882   23.2845 C   0  0  0  0  0  0
  -18.9480  -30.1487   23.8854 C   0  0  0  0  0  0
  -17.6475  -30.6592   24.0565 C   0  0  0  0  0  0
  -25.9077  -34.9401   23.5047 C   0  0  0  0  0  0
  -16.5366  -29.9084   23.6340 C   0  0  0  0  0  0
  -16.7289  -28.6506   23.0354 C   0  0  0  0  0  0
  -26.4547  -31.6549   25.0687 C   0  0  0  0  0  0
  -25.3732  -31.3785   26.1387 C   0  0  0  0  0  0
  -27.0384  -30.2932   24.6270 C   0  0  0  0  0  0
  -27.6089  -32.4297   25.7474 C   0  0  0  0  0  0
  -27.5567  -37.1775   24.8458 C   0  0  0  0  0  0
  -21.4271  -29.3039   22.3615 N   0  0  0  0  0  0
  -26.4273  -37.3752   23.9409 N   0  0  0  0  0  0
  -24.7193  -31.0263   22.0886 N   0  0  0  0  0  0
  -23.4222  -28.8075   23.3013 O   0  0  0  0  0  0
  -28.2943  -26.1489   20.2077 O   0  0  0  0  0  0
  -26.5653  -34.8908   22.4621 O   0  0  0  0  0  0
  -23.5571  -32.1314   23.7060 O   0  0  0  0  0  0
  -28.8803  -18.5860   19.4818 C   0  0  0  0  0  0
  -30.1816  -18.9184   21.3759 C   0  0  0  0  0  0
  -28.6378  -20.0239   19.4037 C   0  0  0  0  0  0
  -29.9370  -20.3596   21.2781 C   0  0  0  0  0  0
  -29.6538  -17.9115   20.4898 C   0  0  0  0  0  0
  -29.1080  -21.0448   20.3098 C   0  0  0  0  0  0
  -27.9330  -23.4771   19.5063 C   0  0  0  0  0  0
  -29.5138  -16.3211   20.8123 C   0  0  0  0  0  0
  -29.3692  -23.6874   20.9643 C   0  0  0  0  0  0
  -28.1128  -24.6401   20.6280 C   0  0  1  0  0  0
  -26.9847  -24.5797   21.6665 C   0  0  0  0  0  0
  -28.4421  -16.1246   21.4544 N   0  0  0  0  0  0
  -28.7201  -22.5434   20.2628 N   0  0  0  0  0  0
  -27.3684  -23.3588   18.4373 O   0  0  0  0  0  0
  -31.4891  -12.8142   19.1780 H   0  0  0  0  0  0
  -30.5053  -11.6458   19.9984 H   0  0  0  0  0  0
  -29.8577  -11.7711   17.5789 H   0  0  0  0  0  0
  -29.6170  -13.4938   17.7055 H   0  0  0  0  0  0
  -27.9519  -11.2838   18.9457 H   0  0  0  0  0  0
  -27.4002  -12.4952   17.8166 H   0  0  0  0  0  0
  -27.6258  -14.2522   19.4774 H   0  0  0  0  0  0
  -28.8039  -12.1384   21.3377 H   0  0  0  0  0  0
  -28.3803  -13.7128   21.8755 H   0  0  0  0  0  0
  -25.2752   -9.5680   22.4752 H   0  0  0  0  0  0
  -23.9995   -7.4629   22.7477 H   0  0  0  0  0  0
  -21.0832   -8.8752   19.8949 H   0  0  0  0  0  0
  -22.3680  -10.9653   19.6154 H   0  0  0  0  0  0
  -21.1982   -7.6144   23.9710 H   0  0  0  0  0  0
  -21.1495   -6.0525   25.9078 H   0  0  0  0  0  0
  -22.0593   -2.7612   23.2836 H   0  0  0  0  0  0
  -22.4086  -11.9828   22.4757 H   0  0  0  0  0  0
  -21.1096  -13.1221   22.2653 H   0  0  0  0  0  0
  -24.7194  -15.8493   20.7176 H   0  0  0  0  0  0
  -26.3718  -15.5838   20.4579 H   0  0  0  0  0  0
  -26.7291  -32.5293   23.0974 H   0  0  0  0  0  0
  -25.0189  -33.9614   25.0375 H   0  0  0  0  0  0
  -22.7516  -31.2818   21.3713 H   0  0  0  0  0  0
  -23.3767  -35.9543   23.3272 H   0  0  0  0  0  0
  -24.3553  -36.8896   22.2049 H   0  0  0  0  0  0
  -23.7218  -37.6414   23.6684 H   0  0  0  0  0  0
  -26.1578  -31.4643   20.6090 H   0  0  0  0  0  0
  -26.8762  -30.7663   22.0248 H   0  0  0  0  0  0
  -28.1379  -28.7991   21.2357 H   0  0  0  0  0  0
  -25.9582  -25.8254   19.0069 H   0  0  0  0  0  0
  -23.9952  -27.2774   18.9795 H   0  0  0  0  0  0
  -23.8188  -30.5506   19.3941 H   0  0  0  0  0  0
  -22.7935  -29.2209   19.8388 H   0  0  0  0  0  0
  -25.1318  -36.1840   25.0804 H   0  0  0  0  0  0
  -21.0023  -28.3307   24.1360 H   0  0  0  0  0  0
  -20.5702  -26.2335   23.3627 H   0  0  0  0  0  0
  -21.6659  -26.7426   22.1198 H   0  0  0  0  0  0
  -19.6916  -25.6289   21.1259 H   0  0  0  0  0  0
  -19.6702  -27.3192   20.6752 H   0  0  0  0  0  0
  -17.4229  -26.6696   21.4022 H   0  0  0  0  0  0
  -18.0317  -26.0080   22.9031 H   0  0  0  0  0  0
  -19.7957  -30.7326   24.2181 H   0  0  0  0  0  0
  -17.5025  -31.6258   24.5192 H   0  0  0  0  0  0
  -15.5363  -30.2978   23.7672 H   0  0  0  0  0  0
  -15.8695  -28.0817   22.7075 H   0  0  0  0  0  0
  -24.5894  -30.7151   25.7721 H   0  0  0  0  0  0
  -24.8953  -32.2991   26.4739 H   0  0  0  0  0  0
  -25.8014  -30.9002   27.0207 H   0  0  0  0  0  0
  -26.2985  -29.6668   24.1277 H   0  0  0  0  0  0
  -27.3985  -29.7224   25.4839 H   0  0  0  0  0  0
  -27.8909  -30.4143   23.9587 H   0  0  0  0  0  0
  -27.2730  -33.3687   26.1891 H   0  0  0  0  0  0
  -28.4002  -32.6699   25.0358 H   0  0  0  0  0  0
  -28.0630  -31.8500   26.5525 H   0  0  0  0  0  0
  -28.2581  -38.0078   24.7527 H   0  0  0  0  0  0
  -28.1070  -36.2610   24.6267 H   0  0  0  0  0  0
  -27.2277  -37.1406   25.8858 H   0  0  0  0  0  0
  -20.9493  -29.8746   21.6784 H   0  0  0  0  0  0
  -26.0128  -38.2806   24.1457 H   0  0  0  0  0  0
  -28.3631  -17.9655   18.7642 H   0  0  0  0  0  0
  -30.7418  -18.5728   22.2333 H   0  0  0  0  0  0
  -27.9932  -20.3539   18.6006 H   0  0  0  0  0  0
  -30.3807  -20.9690   22.0517 H   0  0  0  0  0  0
  -29.5231  -23.5164   22.0306 H   0  0  0  0  0  0
  -30.3022  -23.9953   20.4850 H   0  0  0  0  0  0
  -26.9599  -23.6159   22.1759 H   0  0  0  0  0  0
  -26.0021  -24.7136   21.2168 H   0  0  0  0  0  0
  -27.1133  -25.3431   22.4333 H   0  0  0  0  0  0
  -27.9725  -17.0058   21.6256 H   0  0  0  0  0  0
  1 25  1  0  0  0
  1 30  2  0  0  0
  1 78  1  0  0  0
  2  3  1  0  0  0
  2 25  1  0  0  0
  2 85  1  0  0  0
  2 86  1  0  0  0
  3  4  1  0  0  0
  3 87  1  0  0  0
  3 88  1  0  0  0
  4  5  1  0  0  0
  4 89  1  0  0  0
  4 90  1  0  0  0
  5  6  1  0  0  0
  5 26  1  0  0  0
  5 91  1  0  0  0
  6 25  1  0  0  0
  6 92  1  0  0  0
  6 93  1  0  0  0
  7  8  2  0  0  0
  7 26  1  0  0  0
  7 29  1  0  0  0
  8  9  1  0  0  0
  8 22  1  0  0  0
  9 10  1  0  0  0
  9 27  2  0  0  0
 10 11  2  0  0  0
 10 15  1  0  0  0
 11 12  1  0  0  0
 11 94  1  0  0  0
 12 13  2  0  0  0
 12 95  1  0  0  0
 13 14  1  0  0  0
 13 31  1  0  0  0
 14 15  2  0  0  0
 14 96  1  0  0  0
 15 97  1  0  0  0
 16 17  2  0  0  0
 16 21  1  0  0  0
 16 31  1  0  0  0
 17 18  1  0  0  0
 17 98  1  0  0  0
 18 19  2  0  0  0
 18 99  1  0  0  0
 19 20  1  0  0  0
 19 24  1  0  0  0
 20 21  2  0  0  0
 20100  1  0  0  0
 21 23  1  0  0  0
 22 28  1  0  0  0
 22 32  2  0  0  0
 26 27  1  0  0  0
 28101  1  0  0  0
 28102  1  0  0  0
 29103  1  0  0  0
 29104  1  0  0  0
 33 34  1  0  0  0
 33 66  1  0  0  0
 33 70  2  0  0  0
 34 36  1  0  0  0
 34 59  1  0  0  0
 34105  1  0  0  0
 35 44  2  0  0  0
 35 45  1  0  0  0
 35 68  1  0  0  0
 36 56  1  0  0  0
 36106  1  0  0  0
 37 39  1  0  0  0
 37 47  1  0  0  0
 37 66  1  0  0  0
 37107  1  0  0  0
 38 43  2  0  0  0
 38 46  1  0  0  0
 38 47  1  0  0  0
 39 64  1  0  0  0
 39 67  2  0  0  0
 40 52  1  0  0  0
 40 53  2  0  0  0
 40 58  1  0  0  0
 41108  1  0  0  0
 41109  1  0  0  0
 41110  1  0  0  0
 41 48  1  0  0  0
 42 43  1  0  0  0
 42 66  1  0  0  0
 42111  1  0  0  0
 42112  1  0  0  0
 43 44  1  0  0  0
 44113  1  0  0  0
 45 46  2  0  0  0
 45114  1  0  0  0
 46115  1  0  0  0
 47116  1  0  0  0
 47117  1  0  0  0
 48 56  1  0  0  0
 48 65  1  0  0  0
 48118  1  0  0  0
 49 50  1  0  0  0
 49 53  1  0  0  0
 49 64  1  0  0  0
 49119  1  0  0  0
 50 51  1  0  0  0
 50120  1  0  0  0
 50121  1  0  0  0
 51 52  1  0  0  0
 51122  1  0  0  0
 51123  1  0  0  0
 52124  1  0  0  0
 52125  1  0  0  0
 53 54  1  0  0  0
 54 55  2  0  0  0
 54126  1  0  0  0
 55 57  1  0  0  0
 55127  1  0  0  0
 56 69  2  0  0  0
 57 58  2  0  0  0
 57128  1  0  0  0
 58129  1  0  0  0
 59 60  1  0  0  0
 59 61  1  0  0  0
 59 62  1  0  0  0
 60130  1  0  0  0
 60131  1  0  0  0
 60132  1  0  0  0
 61133  1  0  0  0
 61134  1  0  0  0
 61135  1  0  0  0
 62136  1  0  0  0
 62137  1  0  0  0
 62138  1  0  0  0
 63 65  1  0  0  0
 63139  1  0  0  0
 63140  1  0  0  0
 63141  1  0  0  0
 64142  1  0  0  0
 65143  1  0  0  0
 68 80  1  0  0  0
 71 73  2  0  0  0
 71 75  1  0  0  0
 71144  1  0  0  0
 72 74  1  0  0  0
 72 75  2  0  0  0
 72145  1  0  0  0
 73 76  1  0  0  0
 73146  1  0  0  0
 74 76  2  0  0  0
 74147  1  0  0  0
 75 78  1  0  0  0
 76 83  1  0  0  0
 77 80  1  0  0  0
 77 83  1  0  0  0
 77 84  2  0  0  0
 78 82  2  0  0  0
 79 80  1  0  0  0
 79 83  1  0  0  0
 79148  1  0  0  0
 79149  1  0  0  0
 80 81  1  0  0  0
 81150  1  0  0  0
 81151  1  0  0  0
 81152  1  0  0  0
 82153  1  0  0  0
M  ISO  4   1 100  68 101  78 100  80 101
M  END
> <chiral flag>
0

> <version>
0

> <s_m_source_file>
/data/baiqing/PycharmProjects/Reinvent-master-3.2/result/LINK_invent/BTK/process_docking_weight1_custom_product_contain_oxygen_bond_distance_aromatic_linkinvent_7_9_3/rearranged_h_0080.sdf

> <i_m_source_file_index>
44

> <r_mmod_Potential_Energy-OPLS-2005>
750.180480957031

> <r_mmod_Stretch_Energy-OPLS-2005>
270.091125488281

> <r_mmod_Bend_Energy-OPLS-2005>
325.290466308594

> <r_mmod_Torsional_Energy-OPLS-2005>
244.483688354492

> <r_mmod_Improper_Torsional_Energy-OPLS-2005>
9.18767738342285

> <r_mmod_Van_der_Waal_Energy-OPLS-2005>
135.939590454102

> <r_mmod_Electrostatic_Energy-OPLS-2005>
-231.659942626953

> <r_mmod_Solvation_Energy-OPLS-2005>
-206.786682128906

> <b_mmod_Minimization_Converged-OPLS-2005>
0

> <r_mmod_RMS_Derivative-OPLS-2005>
1.59762406349182

$$$$
44
                    3D
 Structure written by MMmdl.
157165  0  0  1  0            999 V2000
  -30.5651  -14.7276   20.4757 C   0  0  0  0  0  0
  -30.4499  -12.4456   19.4611 C   0  0  0  0  0  0
  -29.5164  -12.5150   18.2300 C   0  0  0  0  0  0
  -28.0393  -12.3344   18.6393 C   0  0  0  0  0  0
  -27.6476  -13.2159   19.8543 C   0  0  2  0  0  0
  -28.6921  -13.1012   20.9874 C   0  0  0  0  0  0
  -25.2529  -13.8138   20.5642 C   0  0  0  0  0  0
  -24.1821  -13.0413   20.9216 C   0  0  0  0  0  0
  -24.6393  -11.6887   20.8757 C   0  0  0  0  0  0
  -23.9061  -10.4276   21.0414 C   0  0  0  0  0  0
  -24.3614   -9.4197   21.9190 C   0  0  0  0  0  0
  -23.6291   -8.2233   22.0751 C   0  0  0  0  0  0
  -22.4271   -8.0275   21.3546 C   0  0  0  0  0  0
  -21.9911   -9.0248   20.4645 C   0  0  0  0  0  0
  -22.7235  -10.2127   20.3059 C   0  0  0  0  0  0
  -21.6851   -6.0736   22.5281 C   0  0  0  0  0  0
  -21.4009   -6.5639   23.8216 C   0  0  0  0  0  0
  -21.3658   -5.6791   24.9178 C   0  0  0  0  0  0
  -21.6048   -4.3055   24.7227 C   0  0  0  0  0  0
  -21.8817   -3.8148   23.4346 C   0  0  0  0  0  0
  -21.9192   -4.6964   22.3403 C   0  0  0  0  0  0
  -22.7843  -13.5219   21.1871 C   0  0  0  0  0  0
  -22.1660   -4.2150   21.0982 F   0  0  0  0  0  0
  -21.5632   -3.4539   25.7741 F   0  0  0  0  0  0
  -29.9989  -13.4745   20.4214 N   0  0  0  0  0  0
  -26.2955  -12.9319   20.3256 N   0  0  0  0  0  0
  -25.9317  -11.6482   20.5747 N   0  0  0  0  0  0
  -22.0468  -12.8218   22.0417 N   0  0  0  0  0  0
  -25.4196  -15.1846   20.3916 N   0  0  0  0  0  0
  -31.7438  -14.9031   20.1467 O   0  0  0  0  0  0
  -21.6633   -6.8876   21.4239 O   0  0  0  0  0  0
  -22.3552  -14.5530   20.6716 O   0  0  0  0  0  0
  -24.6284  -31.8557   23.1980 C   0  0  0  0  0  0
  -25.9113  -32.4757   23.8327 C   0  0  1  0  0  0
  -27.2298  -27.2884   20.1387 C   0  0  0  0  0  0
  -25.5916  -33.8560   24.2250 N   0  0  0  0  0  0
  -23.4246  -30.4764   21.5399 C   0  0  2  0  0  0
  -24.8723  -28.9166   20.1182 C   0  0  0  0  0  0
  -22.7482  -29.4616   22.4925 C   0  0  0  0  0  0
  -18.0285  -28.1387   22.8485 C   0  0  0  0  0  0
  -24.1481  -36.7285   23.2637 C   0  0  0  0  0  0
  -25.9660  -30.7802   21.3688 C   0  0  0  0  0  0
  -26.0421  -29.4017   20.7167 C   0  0  0  0  0  0
  -27.2262  -28.6035   20.7055 C   0  0  0  0  0  0
  -26.0330  -26.8469   19.5367 C   0  0  0  0  0  0
  -24.8709  -27.6459   19.5179 C   0  0  0  0  0  0
  -23.6420  -29.8015   20.1593 C   0  0  0  0  0  0
  -25.4112  -36.3074   24.0321 C   0  0  1  0  0  0
  -20.5889  -28.3699   23.1270 C   0  0  2  0  0  0
  -20.6776  -26.9417   22.5409 C   0  0  0  0  0  0
  -19.5753  -26.6387   21.5210 C   0  0  0  0  0  0
  -18.1931  -26.7933   22.1622 C   0  0  0  0  0  0
  -19.1539  -28.8859   23.2880 C   0  0  0  0  0  0
  -18.9461  -30.1462   23.8901 C   0  0  0  0  0  0
  -17.6460  -30.6591   24.0566 C   0  0  0  0  0  0
  -25.9055  -34.9442   23.5093 C   0  0  0  0  0  0
  -16.5354  -29.9086   23.6333 C   0  0  0  0  0  0
  -16.7271  -28.6503   23.0355 C   0  0  0  0  0  0
  -26.4495  -31.6583   25.0712 C   0  0  0  0  0  0
  -25.3723  -31.3727   26.1435 C   0  0  0  0  0  0
  -27.0344  -30.3007   24.6178 C   0  0  0  0  0  0
  -27.6053  -32.4321   25.7487 C   0  0  0  0  0  0
  -27.5582  -37.1790   24.8459 C   0  0  0  0  0  0
  -21.4193  -29.3049   22.3664 N   0  0  0  0  0  0
  -26.4283  -37.3778   23.9417 N   0  0  0  0  0  0
  -24.6922  -31.0550   22.0931 N   0  0  0  0  0  0
  -23.4189  -28.8161   23.3024 O   0  0  0  0  0  0
  -28.3665  -26.4591   20.1230 O   0  0  0  0  0  0
  -26.5634  -34.8918   22.4667 O   0  0  0  0  0  0
  -23.5440  -32.1360   23.7288 O   0  0  0  0  0  0
  -30.6258  -19.5459   20.8034 C   0  0  0  0  0  0
  -28.3137  -19.3263   20.2299 C   0  0  0  0  0  0
  -30.7764  -18.1119   20.8170 C   0  0  0  0  0  0
  -28.4559  -17.9005   20.2768 C   0  0  0  0  0  0
  -29.3895  -20.2110   20.5159 C   0  0  0  0  0  0
  -29.6817  -17.2333   20.5747 C   0  0  0  0  0  0
  -29.2186  -21.7417   20.6190 C   0  0  0  0  0  0
  -28.4644  -23.9240   19.4821 C   0  0  0  0  0  0
  -28.2661  -23.7836   16.9366 C   0  0  0  0  0  0
  -28.3017  -25.0289   20.5719 C   0  0  0  0  0  0
  -29.5983  -22.2847   21.7843 N   0  3  0  0  0  0
  -29.6784  -15.7597   20.7151 N   0  0  0  0  0  0
  -28.7492  -22.5521   19.6015 N   0  0  0  0  0  0
  -28.2512  -24.4438   18.2524 N   0  3  0  0  0  0
  -31.4865  -12.6005   19.1569 H   0  0  0  0  0  0
  -30.4164  -11.4561   19.9189 H   0  0  0  0  0  0
  -29.7984  -11.7544   17.5009 H   0  0  0  0  0  0
  -29.6416  -13.4763   17.7292 H   0  0  0  0  0  0
  -27.8912  -11.2825   18.8851 H   0  0  0  0  0  0
  -27.3835  -12.5430   17.7934 H   0  0  0  0  0  0
  -27.6529  -14.2441   19.4940 H   0  0  0  0  0  0
  -28.7248  -12.0834   21.3797 H   0  0  0  0  0  0
  -28.4230  -13.7370   21.8324 H   0  0  0  0  0  0
  -25.2752   -9.5678   22.4775 H   0  0  0  0  0  0
  -23.9999   -7.4623   22.7466 H   0  0  0  0  0  0
  -21.0850   -8.8766   19.8950 H   0  0  0  0  0  0
  -22.3692  -10.9671   19.6179 H   0  0  0  0  0  0
  -21.1996   -7.6143   23.9726 H   0  0  0  0  0  0
  -21.1482   -6.0516   25.9083 H   0  0  0  0  0  0
  -22.0598   -2.7611   23.2846 H   0  0  0  0  0  0
  -22.4056  -11.9877   22.4827 H   0  0  0  0  0  0
  -21.1085  -13.1264   22.2601 H   0  0  0  0  0  0
  -24.6193  -15.8064   20.4331 H   0  0  0  0  0  0
  -26.1989  -15.5817   19.8857 H   0  0  0  0  0  0
  -26.7179  -32.5421   23.1076 H   0  0  0  0  0  0
  -25.0080  -33.9697   25.0406 H   0  0  0  0  0  0
  -22.7216  -31.2990   21.3909 H   0  0  0  0  0  0
  -23.3752  -35.9606   23.3272 H   0  0  0  0  0  0
  -24.3588  -36.8938   22.2060 H   0  0  0  0  0  0
  -23.7209  -37.6465   23.6683 H   0  0  0  0  0  0
  -26.0956  -31.5386   20.5949 H   0  0  0  0  0  0
  -26.8469  -30.8359   21.9972 H   0  0  0  0  0  0
  -28.1298  -28.9812   21.1629 H   0  0  0  0  0  0
  -25.9846  -25.8707   19.0774 H   0  0  0  0  0  0
  -23.9719  -27.2639   19.0532 H   0  0  0  0  0  0
  -23.7651  -30.5721   19.3978 H   0  0  0  0  0  0
  -22.7624  -29.2301   19.8580 H   0  0  0  0  0  0
  -25.1291  -36.1921   25.0810 H   0  0  0  0  0  0
  -20.9991  -28.3266   24.1385 H   0  0  0  0  0  0
  -20.5662  -26.2310   23.3616 H   0  0  0  0  0  0
  -21.6644  -26.7435   22.1209 H   0  0  0  0  0  0
  -19.6917  -25.6291   21.1251 H   0  0  0  0  0  0
  -19.6694  -27.3191   20.6734 H   0  0  0  0  0  0
  -17.4206  -26.6678   21.4021 H   0  0  0  0  0  0
  -18.0332  -26.0070   22.9013 H   0  0  0  0  0  0
  -19.7936  -30.7277   24.2271 H   0  0  0  0  0  0
  -17.5013  -31.6275   24.5162 H   0  0  0  0  0  0
  -15.5354  -30.2997   23.7651 H   0  0  0  0  0  0
  -15.8668  -28.0826   22.7073 H   0  0  0  0  0  0
  -24.5903  -30.7072   25.7758 H   0  0  0  0  0  0
  -24.8917  -32.2899   26.4851 H   0  0  0  0  0  0
  -25.8046  -30.8913   27.0216 H   0  0  0  0  0  0
  -26.2921  -29.6754   24.1202 H   0  0  0  0  0  0
  -27.4034  -29.7272   25.4692 H   0  0  0  0  0  0
  -27.8793  -30.4293   23.9409 H   0  0  0  0  0  0
  -27.2658  -33.3621   26.2062 H   0  0  0  0  0  0
  -28.3870  -32.6876   25.0319 H   0  0  0  0  0  0
  -28.0713  -31.8447   26.5409 H   0  0  0  0  0  0
  -28.2568  -38.0118   24.7553 H   0  0  0  0  0  0
  -28.1110  -36.2654   24.6222 H   0  0  0  0  0  0
  -27.2316  -37.1354   25.8862 H   0  0  0  0  0  0
  -20.9369  -29.8776   21.6879 H   0  0  0  0  0  0
  -26.0156  -38.2841   24.1457 H   0  0  0  0  0  0
  -31.4942  -20.1467   21.0381 H   0  0  0  0  0  0
  -27.3325  -19.7333   20.0255 H   0  0  0  0  0  0
  -31.7417  -17.6918   21.0631 H   0  0  0  0  0  0
  -27.5716  -17.3083   20.0950 H   0  0  0  0  0  0
  -28.1219  -24.5246   16.1497 H   0  0  0  0  0  0
  -27.4598  -23.0541   16.8527 H   0  0  0  0  0  0
  -29.2177  -23.2844   16.7523 H   0  0  0  0  0  0
  -29.0922  -24.9021   21.3104 H   0  0  0  0  0  0
  -27.3653  -24.8510   21.1031 H   0  0  0  0  0  0
  -29.8894  -21.6625   22.5219 H   0  0  0  0  0  0
  -29.6447  -23.2742   21.9490 H   0  0  0  0  0  0
  -28.7624  -15.3877   20.9109 H   0  0  0  0  0  0
  -28.6303  -22.0113   18.7657 H   0  0  0  0  0  0
  -28.1242  -25.4491   18.2325 H   0  0  0  0  0  0
  1 25  1  0  0  0
  1 30  2  0  0  0
  1 82  1  0  0  0
  2  3  1  0  0  0
  2 25  1  0  0  0
  2 85  1  0  0  0
  2 86  1  0  0  0
  3  4  1  0  0  0
  3 87  1  0  0  0
  3 88  1  0  0  0
  4  5  1  0  0  0
  4 89  1  0  0  0
  4 90  1  0  0  0
  5  6  1  0  0  0
  5 26  1  0  0  0
  5 91  1  0  0  0
  6 25  1  0  0  0
  6 92  1  0  0  0
  6 93  1  0  0  0
  7  8  2  0  0  0
  7 26  1  0  0  0
  7 29  1  0  0  0
  8  9  1  0  0  0
  8 22  1  0  0  0
  9 10  1  0  0  0
  9 27  2  0  0  0
 10 11  2  0  0  0
 10 15  1  0  0  0
 11 12  1  0  0  0
 11 94  1  0  0  0
 12 13  2  0  0  0
 12 95  1  0  0  0
 13 14  1  0  0  0
 13 31  1  0  0  0
 14 15  2  0  0  0
 14 96  1  0  0  0
 15 97  1  0  0  0
 16 17  2  0  0  0
 16 21  1  0  0  0
 16 31  1  0  0  0
 17 18  1  0  0  0
 17 98  1  0  0  0
 18 19  2  0  0  0
 18 99  1  0  0  0
 19 20  1  0  0  0
 19 24  1  0  0  0
 20 21  2  0  0  0
 20100  1  0  0  0
 21 23  1  0  0  0
 22 28  1  0  0  0
 22 32  2  0  0  0
 26 27  1  0  0  0
 28101  1  0  0  0
 28102  1  0  0  0
 29103  1  0  0  0
 29104  1  0  0  0
 33 34  1  0  0  0
 33 66  1  0  0  0
 33 70  2  0  0  0
 34 36  1  0  0  0
 34 59  1  0  0  0
 34105  1  0  0  0
 35 44  2  0  0  0
 35 45  1  0  0  0
 35 68  1  0  0  0
 36 56  1  0  0  0
 36106  1  0  0  0
 37 39  1  0  0  0
 37 47  1  0  0  0
 37 66  1  0  0  0
 37107  1  0  0  0
 38 43  2  0  0  0
 38 46  1  0  0  0
 38 47  1  0  0  0
 39 64  1  0  0  0
 39 67  2  0  0  0
 40 52  1  0  0  0
 40 53  2  0  0  0
 40 58  1  0  0  0
 41108  1  0  0  0
 41109  1  0  0  0
 41110  1  0  0  0
 41 48  1  0  0  0
 42 43  1  0  0  0
 42 66  1  0  0  0
 42111  1  0  0  0
 42112  1  0  0  0
 43 44  1  0  0  0
 44113  1  0  0  0
 45 46  2  0  0  0
 45114  1  0  0  0
 46115  1  0  0  0
 47116  1  0  0  0
 47117  1  0  0  0
 48 56  1  0  0  0
 48 65  1  0  0  0
 48118  1  0  0  0
 49 50  1  0  0  0
 49 53  1  0  0  0
 49 64  1  0  0  0
 49119  1  0  0  0
 50 51  1  0  0  0
 50120  1  0  0  0
 50121  1  0  0  0
 51 52  1  0  0  0
 51122  1  0  0  0
 51123  1  0  0  0
 52124  1  0  0  0
 52125  1  0  0  0
 53 54  1  0  0  0
 54 55  2  0  0  0
 54126  1  0  0  0
 55 57  1  0  0  0
 55127  1  0  0  0
 56 69  2  0  0  0
 57 58  2  0  0  0
 57128  1  0  0  0
 58129  1  0  0  0
 59 60  1  0  0  0
 59 61  1  0  0  0
 59 62  1  0  0  0
 60130  1  0  0  0
 60131  1  0  0  0
 60132  1  0  0  0
 61133  1  0  0  0
 61134  1  0  0  0
 61135  1  0  0  0
 62136  1  0  0  0
 62137  1  0  0  0
 62138  1  0  0  0
 63 65  1  0  0  0
 63139  1  0  0  0
 63140  1  0  0  0
 63141  1  0  0  0
 64142  1  0  0  0
 65143  1  0  0  0
 68 80  1  0  0  0
 71 73  2  0  0  0
 71 75  1  0  0  0
 71144  1  0  0  0
 72 74  1  0  0  0
 72 75  2  0  0  0
 72145  1  0  0  0
 73 76  1  0  0  0
 73146  1  0  0  0
 74 76  2  0  0  0
 74147  1  0  0  0
 75 77  1  0  0  0
 76 82  1  0  0  0
 77 81  2  0  0  0
 77 83  1  0  0  0
 78 80  1  0  0  0
 78 83  1  0  0  0
 78 84  2  0  0  0
 79 84  1  0  0  0
 79148  1  0  0  0
 79149  1  0  0  0
 79150  1  0  0  0
 80151  1  0  0  0
 80152  1  0  0  0
 81153  1  0  0  0
 81154  1  0  0  0
 82155  1  0  0  0
 83156  1  0  0  0
 84157  1  0  0  0
M  CHG  2  81   1  84   1
M  ISO  4   1 100  68 101  80 101  82 100
M  END
> <chiral flag>
0

> <version>
0

> <s_m_source_file>
/data/baiqing/PycharmProjects/Reinvent-master-3.2/result/LINK_invent/BTK/process_docking_weight1_custom_product_contain_oxygen_bond_distance_aromatic_linkinvent_7_9_3/rearranged_h_0080.sdf

> <i_m_source_file_index>
45

> <r_mmod_Potential_Energy-OPLS-2005>
-253.094161987305

> <r_mmod_Stretch_Energy-OPLS-2005>
106.847030639648

> <r_mmod_Bend_Energy-OPLS-2005>
189.294799804688

> <r_mmod_Torsional_Energy-OPLS-2005>
243.521774291992

> <r_mmod_Improper_Torsional_Energy-OPLS-2005>
7.17695379257202

> <r_mmod_Van_der_Waal_Energy-OPLS-2005>
130.470108032227

> <r_mmod_Electrostatic_Energy-OPLS-2005>
16.9867820739746

> <r_mmod_Solvation_Energy-OPLS-2005>
-1018.12091064453

> <b_mmod_Minimization_Converged-OPLS-2005>
0

> <r_mmod_RMS_Derivative-OPLS-2005>
1.24108707904816

$$$$
45
                    3D
 Structure written by MMmdl.
157166  0  0  1  0            999 V2000
  -30.6090  -14.6580   20.4937 C   0  0  0  0  0  0
  -30.4408  -12.4032   19.4533 C   0  0  0  0  0  0
  -29.5083  -12.5060   18.2253 C   0  0  0  0  0  0
  -28.0314  -12.3380   18.6379 C   0  0  0  0  0  0
  -27.6507  -13.2141   19.8604 C   0  0  2  0  0  0
  -28.6955  -13.0768   20.9909 C   0  0  0  0  0  0
  -25.2550  -13.8167   20.5677 C   0  0  0  0  0  0
  -24.1823  -13.0436   20.9201 C   0  0  0  0  0  0
  -24.6382  -11.6904   20.8742 C   0  0  0  0  0  0
  -23.9045  -10.4293   21.0406 C   0  0  0  0  0  0
  -24.3603   -9.4209   21.9182 C   0  0  0  0  0  0
  -23.6282   -8.2242   22.0746 C   0  0  0  0  0  0
  -22.4264   -8.0279   21.3535 C   0  0  0  0  0  0
  -21.9892   -9.0255   20.4643 C   0  0  0  0  0  0
  -22.7214  -10.2140   20.3059 C   0  0  0  0  0  0
  -21.6854   -6.0732   22.5273 C   0  0  0  0  0  0
  -21.4021   -6.5636   23.8208 C   0  0  0  0  0  0
  -21.3658   -5.6787   24.9169 C   0  0  0  0  0  0
  -21.6041   -4.3050   24.7219 C   0  0  0  0  0  0
  -21.8822   -3.8141   23.4342 C   0  0  0  0  0  0
  -21.9194   -4.6958   22.3397 C   0  0  0  0  0  0
  -22.7846  -13.5236   21.1862 C   0  0  0  0  0  0
  -22.1659   -4.2139   21.0975 F   0  0  0  0  0  0
  -21.5626   -3.4539   25.7735 F   0  0  0  0  0  0
  -30.0089  -13.4264   20.4270 N   0  0  0  0  0  0
  -26.2968  -12.9336   20.3294 N   0  0  0  0  0  0
  -25.9309  -11.6493   20.5755 N   0  0  0  0  0  0
  -22.0476  -12.8243   22.0420 N   0  0  0  0  0  0
  -25.4270  -15.1890   20.4081 N   0  0  0  0  0  0
  -31.7783  -14.8151   20.1309 O   0  0  0  0  0  0
  -21.6637   -6.8872   21.4233 O   0  0  0  0  0  0
  -22.3530  -14.5538   20.6699 O   0  0  0  0  0  0
  -24.6263  -31.8588   23.2019 C   0  0  0  0  0  0
  -25.9109  -32.4770   23.8348 C   0  0  1  0  0  0
  -27.2268  -27.3158   20.1185 C   0  0  0  0  0  0
  -25.5921  -33.8572   24.2267 N   0  0  0  0  0  0
  -23.4204  -30.4831   21.5436 C   0  0  2  0  0  0
  -24.8682  -28.9391   20.1101 C   0  0  0  0  0  0
  -22.7476  -29.4622   22.4918 C   0  0  0  0  0  0
  -18.0293  -28.1394   22.8476 C   0  0  0  0  0  0
  -24.1489  -36.7300   23.2635 C   0  0  0  0  0  0
  -25.9619  -30.7905   21.3730 C   0  0  0  0  0  0
  -26.0374  -29.4178   20.7148 C   0  0  0  0  0  0
  -27.2196  -28.6182   20.7090 C   0  0  0  0  0  0
  -26.0337  -26.8949   19.4843 C   0  0  0  0  0  0
  -24.8683  -27.6833   19.4860 C   0  0  0  0  0  0
  -23.6358  -29.8187   20.1591 C   0  0  0  0  0  0
  -25.4110  -36.3073   24.0321 C   0  0  1  0  0  0
  -20.5891  -28.3696   23.1274 C   0  0  2  0  0  0
  -20.6777  -26.9415   22.5412 C   0  0  0  0  0  0
  -19.5761  -26.6387   21.5205 C   0  0  0  0  0  0
  -18.1939  -26.7935   22.1616 C   0  0  0  0  0  0
  -19.1545  -28.8861   23.2872 C   0  0  0  0  0  0
  -18.9469  -30.1457   23.8898 C   0  0  0  0  0  0
  -17.6467  -30.6586   24.0569 C   0  0  0  0  0  0
  -25.9051  -34.9443   23.5096 C   0  0  0  0  0  0
  -16.5359  -29.9091   23.6328 C   0  0  0  0  0  0
  -16.7280  -28.6515   23.0340 C   0  0  0  0  0  0
  -26.4492  -31.6586   25.0720 C   0  0  0  0  0  0
  -25.3728  -31.3766   26.1457 C   0  0  0  0  0  0
  -27.0319  -30.2997   24.6188 C   0  0  0  0  0  0
  -27.6056  -32.4320   25.7484 C   0  0  0  0  0  0
  -27.5583  -37.1791   24.8449 C   0  0  0  0  0  0
  -21.4189  -29.3044   22.3663 N   0  0  0  0  0  0
  -26.4283  -37.3771   23.9413 N   0  0  0  0  0  0
  -24.6883  -31.0602   22.0967 N   0  0  0  0  0  0
  -23.4196  -28.8161   23.2998 O   0  0  0  0  0  0
  -28.3411  -26.4602   20.1786 O   0  0  0  0  0  0
  -26.5624  -34.8915   22.4665 O   0  0  0  0  0  0
  -23.5426  -32.1386   23.7349 O   0  0  0  0  0  0
  -28.7669  -19.4123   20.7504 C   0  0  0  0  0  0
  -31.1345  -19.3051   20.4268 C   0  0  0  0  0  0
  -28.7301  -17.9823   20.8087 C   0  0  0  0  0  0
  -31.1011  -17.8789   20.4748 C   0  0  0  0  0  0
  -29.9785  -20.1344   20.5851 C   0  0  0  0  0  0
  -29.8938  -17.1680   20.6853 C   0  0  0  0  0  0
  -29.0943  -22.5770   20.2979 C   0  0  0  0  0  0
  -29.1784  -23.9383   20.5340 C   0  0  0  0  0  0
  -30.3329  -24.4286   21.3381 C   0  0  0  0  0  0
  -31.3628  -23.4379   21.7516 C   0  0  0  0  0  0
  -32.2535  -23.7541   22.7111 C   0  0  0  0  0  0
  -31.3732  -22.0790   21.0615 C   0  0  0  0  0  0
  -28.1054  -24.9949   20.0572 C   0  0  0  0  0  0
  -30.0585  -21.5834   20.6406 N   0  0  0  0  0  0
  -29.7768  -15.7084   20.8028 N   0  0  0  0  0  0
  -30.4398  -25.6116   21.6799 O   0  0  0  0  0  0
  -31.4793  -12.5400   19.1468 H   0  0  0  0  0  0
  -30.3881  -11.4088   19.8997 H   0  0  0  0  0  0
  -29.7751  -11.7502   17.4847 H   0  0  0  0  0  0
  -29.6455  -13.4726   17.7392 H   0  0  0  0  0  0
  -27.8764  -11.2859   18.8776 H   0  0  0  0  0  0
  -27.3758  -12.5578   17.7942 H   0  0  0  0  0  0
  -27.6650  -14.2463   19.5118 H   0  0  0  0  0  0
  -28.7116  -12.0561   21.3758 H   0  0  0  0  0  0
  -28.4387  -13.7118   21.8399 H   0  0  0  0  0  0
  -25.2753   -9.5686   22.4748 H   0  0  0  0  0  0
  -23.9990   -7.4638   22.7471 H   0  0  0  0  0  0
  -21.0812   -8.8780   19.8964 H   0  0  0  0  0  0
  -22.3665  -10.9682   19.6176 H   0  0  0  0  0  0
  -21.2020   -7.6147   23.9707 H   0  0  0  0  0  0
  -21.1473   -6.0520   25.9068 H   0  0  0  0  0  0
  -22.0602   -2.7602   23.2851 H   0  0  0  0  0  0
  -22.4084  -11.9916   22.4837 H   0  0  0  0  0  0
  -21.1100  -13.1292   22.2619 H   0  0  0  0  0  0
  -24.6578  -15.8421   20.5126 H   0  0  0  0  0  0
  -26.2595  -15.6195   20.0262 H   0  0  0  0  0  0
  -26.7179  -32.5443   23.1102 H   0  0  0  0  0  0
  -25.0043  -33.9712   25.0392 H   0  0  0  0  0  0
  -22.7140  -31.3033   21.3997 H   0  0  0  0  0  0
  -23.3737  -35.9644   23.3277 H   0  0  0  0  0  0
  -24.3587  -36.8947   22.2055 H   0  0  0  0  0  0
  -23.7255  -37.6501   23.6673 H   0  0  0  0  0  0
  -26.0931  -31.5544   20.6051 H   0  0  0  0  0  0
  -26.8423  -30.8396   22.0022 H   0  0  0  0  0  0
  -28.1160  -28.9799   21.1940 H   0  0  0  0  0  0
  -25.9716  -25.9385   18.9870 H   0  0  0  0  0  0
  -23.9735  -27.3113   19.0060 H   0  0  0  0  0  0
  -23.7555  -30.5951   19.4025 H   0  0  0  0  0  0
  -22.7564  -29.2478   19.8555 H   0  0  0  0  0  0
  -25.1287  -36.1917   25.0811 H   0  0  0  0  0  0
  -20.9985  -28.3282   24.1393 H   0  0  0  0  0  0
  -20.5661  -26.2311   23.3617 H   0  0  0  0  0  0
  -21.6649  -26.7432   22.1223 H   0  0  0  0  0  0
  -19.6923  -25.6294   21.1240 H   0  0  0  0  0  0
  -19.6707  -27.3191   20.6730 H   0  0  0  0  0  0
  -17.4207  -26.6673   21.4021 H   0  0  0  0  0  0
  -18.0346  -26.0080   22.9018 H   0  0  0  0  0  0
  -19.7946  -30.7270   24.2271 H   0  0  0  0  0  0
  -17.5026  -31.6263   24.5179 H   0  0  0  0  0  0
  -15.5360  -30.3000   23.7645 H   0  0  0  0  0  0
  -15.8682  -28.0839   22.7043 H   0  0  0  0  0  0
  -24.5889  -30.7114   25.7813 H   0  0  0  0  0  0
  -24.8940  -32.2957   26.4849 H   0  0  0  0  0  0
  -25.8052  -30.8977   27.0250 H   0  0  0  0  0  0
  -26.2896  -29.6760   24.1192 H   0  0  0  0  0  0
  -27.3976  -29.7244   25.4703 H   0  0  0  0  0  0
  -27.8786  -30.4259   23.9437 H   0  0  0  0  0  0
  -27.2658  -33.3604   26.2088 H   0  0  0  0  0  0
  -28.3854  -32.6908   25.0306 H   0  0  0  0  0  0
  -28.0739  -31.8433   26.5383 H   0  0  0  0  0  0
  -28.2574  -38.0112   24.7512 H   0  0  0  0  0  0
  -28.1103  -36.2645   24.6230 H   0  0  0  0  0  0
  -27.2314  -37.1390   25.8854 H   0  0  0  0  0  0
  -20.9362  -29.8778   21.6886 H   0  0  0  0  0  0
  -26.0156  -38.2837   24.1438 H   0  0  0  0  0  0
  -27.8424  -19.9571   20.8767 H   0  0  0  0  0  0
  -32.1046  -19.7517   20.2680 H   0  0  0  0  0  0
  -27.7701  -17.5107   20.9643 H   0  0  0  0  0  0
  -32.0325  -17.3431   20.3653 H   0  0  0  0  0  0
  -28.2586  -22.1797   19.7378 H   0  0  0  0  0  0
  -32.2493  -24.7151   23.2064 H   0  0  0  0  0  0
  -33.0087  -23.0474   23.0220 H   0  0  0  0  0  0
  -31.8497  -21.3820   21.7520 H   0  0  0  0  0  0
  -32.0154  -22.1523   20.1828 H   0  0  0  0  0  0
  -27.1984  -24.7440   20.6088 H   0  0  0  0  0  0
  -27.9024  -24.7745   19.0088 H   0  0  0  0  0  0
  -28.8585  -15.3891   21.0691 H   0  0  0  0  0  0
  1 25  1  0  0  0
  1 30  2  0  0  0
  1 85  1  0  0  0
  2  3  1  0  0  0
  2 25  1  0  0  0
  2 87  1  0  0  0
  2 88  1  0  0  0
  3  4  1  0  0  0
  3 89  1  0  0  0
  3 90  1  0  0  0
  4  5  1  0  0  0
  4 91  1  0  0  0
  4 92  1  0  0  0
  5  6  1  0  0  0
  5 26  1  0  0  0
  5 93  1  0  0  0
  6 25  1  0  0  0
  6 94  1  0  0  0
  6 95  1  0  0  0
  7  8  2  0  0  0
  7 26  1  0  0  0
  7 29  1  0  0  0
  8  9  1  0  0  0
  8 22  1  0  0  0
  9 10  1  0  0  0
  9 27  2  0  0  0
 10 11  2  0  0  0
 10 15  1  0  0  0
 11 12  1  0  0  0
 11 96  1  0  0  0
 12 13  2  0  0  0
 12 97  1  0  0  0
 13 14  1  0  0  0
 13 31  1  0  0  0
 14 15  2  0  0  0
 14 98  1  0  0  0
 15 99  1  0  0  0
 16 17  2  0  0  0
 16 21  1  0  0  0
 16 31  1  0  0  0
 17 18  1  0  0  0
 17100  1  0  0  0
 18 19  2  0  0  0
 18101  1  0  0  0
 19 20  1  0  0  0
 19 24  1  0  0  0
 20 21  2  0  0  0
 20102  1  0  0  0
 21 23  1  0  0  0
 22 28  1  0  0  0
 22 32  2  0  0  0
 26 27  1  0  0  0
 28103  1  0  0  0
 28104  1  0  0  0
 29105  1  0  0  0
 29106  1  0  0  0
 33 34  1  0  0  0
 33 66  1  0  0  0
 33 70  2  0  0  0
 34 36  1  0  0  0
 34 59  1  0  0  0
 34107  1  0  0  0
 35 44  2  0  0  0
 35 45  1  0  0  0
 35 68  1  0  0  0
 36 56  1  0  0  0
 36108  1  0  0  0
 37 39  1  0  0  0
 37 47  1  0  0  0
 37 66  1  0  0  0
 37109  1  0  0  0
 38 43  2  0  0  0
 38 46  1  0  0  0
 38 47  1  0  0  0
 39 64  1  0  0  0
 39 67  2  0  0  0
 40 52  1  0  0  0
 40 53  2  0  0  0
 40 58  1  0  0  0
 41110  1  0  0  0
 41111  1  0  0  0
 41112  1  0  0  0
 41 48  1  0  0  0
 42 43  1  0  0  0
 42 66  1  0  0  0
 42113  1  0  0  0
 42114  1  0  0  0
 43 44  1  0  0  0
 44115  1  0  0  0
 45 46  2  0  0  0
 45116  1  0  0  0
 46117  1  0  0  0
 47118  1  0  0  0
 47119  1  0  0  0
 48 56  1  0  0  0
 48 65  1  0  0  0
 48120  1  0  0  0
 49 50  1  0  0  0
 49 53  1  0  0  0
 49 64  1  0  0  0
 49121  1  0  0  0
 50 51  1  0  0  0
 50122  1  0  0  0
 50123  1  0  0  0
 51 52  1  0  0  0
 51124  1  0  0  0
 51125  1  0  0  0
 52126  1  0  0  0
 52127  1  0  0  0
 53 54  1  0  0  0
 54 55  2  0  0  0
 54128  1  0  0  0
 55 57  1  0  0  0
 55129  1  0  0  0
 56 69  2  0  0  0
 57 58  2  0  0  0
 57130  1  0  0  0
 58131  1  0  0  0
 59 60  1  0  0  0
 59 61  1  0  0  0
 59 62  1  0  0  0
 60132  1  0  0  0
 60133  1  0  0  0
 60134  1  0  0  0
 61135  1  0  0  0
 61136  1  0  0  0
 61137  1  0  0  0
 62138  1  0  0  0
 62139  1  0  0  0
 62140  1  0  0  0
 63 65  1  0  0  0
 63141  1  0  0  0
 63142  1  0  0  0
 63143  1  0  0  0
 64144  1  0  0  0
 65145  1  0  0  0
 68 83  1  0  0  0
 71 73  2  0  0  0
 71 75  1  0  0  0
 71146  1  0  0  0
 72 74  1  0  0  0
 72 75  2  0  0  0
 72147  1  0  0  0
 73 76  1  0  0  0
 73148  1  0  0  0
 74 76  2  0  0  0
 74149  1  0  0  0
 75 84  1  0  0  0
 76 85  1  0  0  0
 77 78  2  0  0  0
 77 84  1  0  0  0
 77150  1  0  0  0
 78 79  1  0  0  0
 78 83  1  0  0  0
 79 80  1  0  0  0
 79 86  2  0  0  0
 80 81  2  0  0  0
 80 82  1  0  0  0
 81151  1  0  0  0
 81152  1  0  0  0
 82 84  1  0  0  0
 82153  1  0  0  0
 82154  1  0  0  0
 83155  1  0  0  0
 83156  1  0  0  0
 85157  1  0  0  0
M  ISO  4   1 100  68 101  83 101  85 100
M  END
> <chiral flag>
0

> <version>
0

> <s_m_source_file>
/data/baiqing/PycharmProjects/Reinvent-master-3.2/result/LINK_invent/BTK/process_docking_weight1_custom_product_contain_oxygen_bond_distance_aromatic_linkinvent_7_9_3/rearranged_h_0080.sdf

> <i_m_source_file_index>
46

> <r_mmod_Potential_Energy-OPLS-2005>
80.258415222168

> <r_mmod_Stretch_Energy-OPLS-2005>
89.1952514648438

> <r_mmod_Bend_Energy-OPLS-2005>
142.360687255859

> <r_mmod_Torsional_Energy-OPLS-2005>
196.998275756836

> <r_mmod_Improper_Torsional_Energy-OPLS-2005>
4.78454732894897

> <r_mmod_Van_der_Waal_Energy-OPLS-2005>
171.281097412109

> <r_mmod_Electrostatic_Energy-OPLS-2005>
-349.583862304688

> <r_mmod_Solvation_Energy-OPLS-2005>
-228.170364379883

> <b_mmod_Minimization_Converged-OPLS-2005>
0

> <r_mmod_RMS_Derivative-OPLS-2005>
1.20157742500305

$$$$
46
                    3D
 Structure written by MMmdl.
154163  0  0  1  0            999 V2000
  -30.5937  -14.6869   20.4966 C   0  0  0  0  0  0
  -30.4457  -12.4209   19.4629 C   0  0  0  0  0  0
  -29.5156  -12.5150   18.2318 C   0  0  0  0  0  0
  -28.0379  -12.3437   18.6404 C   0  0  0  0  0  0
  -27.6533  -13.2176   19.8637 C   0  0  2  0  0  0
  -28.6969  -13.0819   20.9955 C   0  0  0  0  0  0
  -25.2563  -13.8173   20.5685 C   0  0  0  0  0  0
  -24.1828  -13.0441   20.9185 C   0  0  0  0  0  0
  -24.6392  -11.6912   20.8732 C   0  0  0  0  0  0
  -23.9060  -10.4296   21.0401 C   0  0  0  0  0  0
  -24.3613   -9.4211   21.9178 C   0  0  0  0  0  0
  -23.6287   -8.2248   22.0755 C   0  0  0  0  0  0
  -22.4268   -8.0285   21.3548 C   0  0  0  0  0  0
  -21.9901   -9.0258   20.4649 C   0  0  0  0  0  0
  -22.7231  -10.2134   20.3053 C   0  0  0  0  0  0
  -21.6858   -6.0733   22.5275 C   0  0  0  0  0  0
  -21.4018   -6.5635   23.8210 C   0  0  0  0  0  0
  -21.3660   -5.6786   24.9171 C   0  0  0  0  0  0
  -21.6043   -4.3049   24.7222 C   0  0  0  0  0  0
  -21.8820   -3.8143   23.4342 C   0  0  0  0  0  0
  -21.9195   -4.6960   22.3397 C   0  0  0  0  0  0
  -22.7849  -13.5238   21.1848 C   0  0  0  0  0  0
  -22.1663   -4.2148   21.0974 F   0  0  0  0  0  0
  -21.5627   -3.4531   25.7735 F   0  0  0  0  0  0
  -30.0091  -13.4445   20.4356 N   0  0  0  0  0  0
  -26.2985  -12.9350   20.3306 N   0  0  0  0  0  0
  -25.9322  -11.6505   20.5743 N   0  0  0  0  0  0
  -22.0484  -12.8240   22.0403 N   0  0  0  0  0  0
  -25.4283  -15.1894   20.4109 N   0  0  0  0  0  0
  -31.7518  -14.8608   20.1032 O   0  0  0  0  0  0
  -21.6640   -6.8876   21.4239 O   0  0  0  0  0  0
  -22.3538  -14.5548   20.6695 O   0  0  0  0  0  0
  -24.6280  -31.8580   23.2012 C   0  0  0  0  0  0
  -25.9119  -32.4770   23.8347 C   0  0  1  0  0  0
  -27.2250  -27.2997   20.1263 C   0  0  0  0  0  0
  -25.5922  -33.8573   24.2269 N   0  0  0  0  0  0
  -23.4235  -30.4802   21.5438 C   0  0  2  0  0  0
  -24.8721  -28.9318   20.1110 C   0  0  0  0  0  0
  -22.7487  -29.4612   22.4929 C   0  0  0  0  0  0
  -18.0291  -28.1382   22.8487 C   0  0  0  0  0  0
  -24.1487  -36.7296   23.2637 C   0  0  0  0  0  0
  -25.9658  -30.7811   21.3771 C   0  0  0  0  0  0
  -26.0407  -29.4059   20.7221 C   0  0  0  0  0  0
  -27.2207  -28.6000   20.7237 C   0  0  0  0  0  0
  -26.0387  -26.8879   19.4797 C   0  0  0  0  0  0
  -24.8732  -27.6778   19.4808 C   0  0  0  0  0  0
  -23.6401  -29.8137   20.1596 C   0  0  0  0  0  0
  -25.4108  -36.3080   24.0328 C   0  0  1  0  0  0
  -20.5892  -28.3691   23.1278 C   0  0  2  0  0  0
  -20.6782  -26.9413   22.5405 C   0  0  0  0  0  0
  -19.5754  -26.6380   21.5213 C   0  0  0  0  0  0
  -18.1934  -26.7924   22.1628 C   0  0  0  0  0  0
  -19.1543  -28.8854   23.2876 C   0  0  0  0  0  0
  -18.9464  -30.1456   23.8891 C   0  0  0  0  0  0
  -17.6464  -30.6585   24.0559 C   0  0  0  0  0  0
  -25.9047  -34.9449   23.5100 C   0  0  0  0  0  0
  -16.5356  -29.9080   23.6329 C   0  0  0  0  0  0
  -16.7278  -28.6498   23.0351 C   0  0  0  0  0  0
  -26.4492  -31.6592   25.0730 C   0  0  0  0  0  0
  -25.3718  -31.3748   26.1456 C   0  0  0  0  0  0
  -27.0344  -30.3012   24.6209 C   0  0  0  0  0  0
  -27.6046  -32.4331   25.7504 C   0  0  0  0  0  0
  -27.5581  -37.1794   24.8455 C   0  0  0  0  0  0
  -21.4198  -29.3044   22.3672 N   0  0  0  0  0  0
  -26.4283  -37.3778   23.9413 N   0  0  0  0  0  0
  -24.6912  -31.0569   22.0974 N   0  0  0  0  0  0
  -23.4199  -28.8153   23.3019 O   0  0  0  0  0  0
  -28.3171  -26.4129   20.1582 O   0  0  0  0  0  0
  -26.5618  -34.8922   22.4669 O   0  0  0  0  0  0
  -23.5438  -32.1389   23.7326 O   0  0  0  0  0  0
  -28.5738  -19.3587   21.0983 C   0  0  0  0  0  0
  -30.6724  -19.3915   19.9566 C   0  0  0  0  0  0
  -28.6813  -17.9380   21.2258 C   0  0  0  0  0  0
  -30.7823  -17.9658   20.0834 C   0  0  0  0  0  0
  -29.5644  -20.1527   20.4518 C   0  0  0  0  0  0
  -29.7807  -17.1864   20.7242 C   0  0  0  0  0  0
  -28.8670  -23.9310   20.2720 C   0  0  0  0  0  0
  -30.1820  -23.8284   19.7056 C   0  0  0  0  0  0
  -28.4868  -22.5343   20.6300 C   0  0  0  0  0  0
  -30.9410  -24.8539   19.2820 C   0  0  0  0  0  0
  -28.0703  -25.0478   20.4636 C   0  0  0  0  0  0
  -30.6089  -22.3770   19.6777 C   0  0  0  0  0  0
  -29.4919  -21.6375   20.2925 N   0  0  0  0  0  0
  -29.7677  -15.7195   20.8819 N   0  0  0  0  0  0
  -27.4147  -22.2150   21.1542 O   0  0  0  0  0  0
  -31.4860  -12.5568   19.1624 H   0  0  0  0  0  0
  -30.3926  -11.4276   19.9111 H   0  0  0  0  0  0
  -29.7893  -11.7597   17.4939 H   0  0  0  0  0  0
  -29.6508  -13.4813   17.7439 H   0  0  0  0  0  0
  -27.8808  -11.2906   18.8760 H   0  0  0  0  0  0
  -27.3850  -12.5670   17.7958 H   0  0  0  0  0  0
  -27.6681  -14.2511   19.5175 H   0  0  0  0  0  0
  -28.7190  -12.0590   21.3746 H   0  0  0  0  0  0
  -28.4320  -13.7070   21.8496 H   0  0  0  0  0  0
  -25.2760   -9.5692   22.4748 H   0  0  0  0  0  0
  -24.0003   -7.4640   22.7475 H   0  0  0  0  0  0
  -21.0833   -8.8774   19.8953 H   0  0  0  0  0  0
  -22.3689  -10.9673   19.6159 H   0  0  0  0  0  0
  -21.2013   -7.6144   23.9714 H   0  0  0  0  0  0
  -21.1479   -6.0514   25.9074 H   0  0  0  0  0  0
  -22.0599   -2.7606   23.2843 H   0  0  0  0  0  0
  -22.4093  -11.9903   22.4801 H   0  0  0  0  0  0
  -21.1107  -13.1282   22.2608 H   0  0  0  0  0  0
  -24.6596  -15.8430   20.5138 H   0  0  0  0  0  0
  -26.2718  -15.6257   20.0604 H   0  0  0  0  0  0
  -26.7193  -32.5430   23.1098 H   0  0  0  0  0  0
  -25.0059  -33.9716   25.0408 H   0  0  0  0  0  0
  -22.7187  -31.3015   21.3991 H   0  0  0  0  0  0
  -23.3751  -35.9626   23.3286 H   0  0  0  0  0  0
  -24.3584  -36.8931   22.2054 H   0  0  0  0  0  0
  -23.7243  -37.6494   23.6670 H   0  0  0  0  0  0
  -26.0987  -31.5420   20.6068 H   0  0  0  0  0  0
  -26.8459  -30.8321   22.0066 H   0  0  0  0  0  0
  -28.1157  -28.9540   21.2151 H   0  0  0  0  0  0
  -26.0014  -25.9259   18.9878 H   0  0  0  0  0  0
  -23.9798  -27.3100   18.9947 H   0  0  0  0  0  0
  -23.7595  -30.5895   19.4025 H   0  0  0  0  0  0
  -22.7598  -29.2437   19.8565 H   0  0  0  0  0  0
  -25.1288  -36.1924   25.0820 H   0  0  0  0  0  0
  -20.9985  -28.3266   24.1399 H   0  0  0  0  0  0
  -20.5689  -26.2299   23.3606 H   0  0  0  0  0  0
  -21.6650  -26.7442   22.1195 H   0  0  0  0  0  0
  -19.6912  -25.6289   21.1250 H   0  0  0  0  0  0
  -19.6685  -27.3187   20.6739 H   0  0  0  0  0  0
  -17.4201  -26.6670   21.4034 H   0  0  0  0  0  0
  -18.0332  -26.0064   22.9023 H   0  0  0  0  0  0
  -19.7938  -30.7275   24.2256 H   0  0  0  0  0  0
  -17.5016  -31.6267   24.5159 H   0  0  0  0  0  0
  -15.5356  -30.2978   23.7655 H   0  0  0  0  0  0
  -15.8679  -28.0814   22.7071 H   0  0  0  0  0  0
  -24.5855  -30.7144   25.7779 H   0  0  0  0  0  0
  -24.8957  -32.2930   26.4908 H   0  0  0  0  0  0
  -25.8024  -30.8886   27.0219 H   0  0  0  0  0  0
  -26.2935  -29.6756   24.1219 H   0  0  0  0  0  0
  -27.4020  -29.7277   25.4730 H   0  0  0  0  0  0
  -27.8811  -30.4299   23.9462 H   0  0  0  0  0  0
  -27.2645  -33.3617   26.2102 H   0  0  0  0  0  0
  -28.3845  -32.6917   25.0329 H   0  0  0  0  0  0
  -28.0729  -31.8448   26.5406 H   0  0  0  0  0  0
  -28.2575  -38.0115   24.7537 H   0  0  0  0  0  0
  -28.1103  -36.2650   24.6230 H   0  0  0  0  0  0
  -27.2308  -37.1381   25.8858 H   0  0  0  0  0  0
  -20.9378  -29.8765   21.6878 H   0  0  0  0  0  0
  -26.0162  -38.2849   24.1427 H   0  0  0  0  0  0
  -27.6947  -19.8228   21.5192 H   0  0  0  0  0  0
  -31.4812  -19.8985   19.4508 H   0  0  0  0  0  0
  -27.8770  -17.4185   21.7279 H   0  0  0  0  0  0
  -31.6526  -17.4774   19.6680 H   0  0  0  0  0  0
  -30.5999  -25.8776   19.3309 H   0  0  0  0  0  0
  -31.9287  -24.6833   18.8782 H   0  0  0  0  0  0
  -27.0987  -24.9246   20.9244 H   0  0  0  0  0  0
  -31.5281  -22.2385   20.2487 H   0  0  0  0  0  0
  -30.7724  -22.0521   18.6492 H   0  0  0  0  0  0
  -28.9002  -15.3650   21.2552 H   0  0  0  0  0  0
  1 25  1  0  0  0
  1 30  2  0  0  0
  1 84  1  0  0  0
  2  3  1  0  0  0
  2 25  1  0  0  0
  2 86  1  0  0  0
  2 87  1  0  0  0
  3  4  1  0  0  0
  3 88  1  0  0  0
  3 89  1  0  0  0
  4  5  1  0  0  0
  4 90  1  0  0  0
  4 91  1  0  0  0
  5  6  1  0  0  0
  5 26  1  0  0  0
  5 92  1  0  0  0
  6 25  1  0  0  0
  6 93  1  0  0  0
  6 94  1  0  0  0
  7  8  2  0  0  0
  7 26  1  0  0  0
  7 29  1  0  0  0
  8  9  1  0  0  0
  8 22  1  0  0  0
  9 10  1  0  0  0
  9 27  2  0  0  0
 10 11  2  0  0  0
 10 15  1  0  0  0
 11 12  1  0  0  0
 11 95  1  0  0  0
 12 13  2  0  0  0
 12 96  1  0  0  0
 13 14  1  0  0  0
 13 31  1  0  0  0
 14 15  2  0  0  0
 14 97  1  0  0  0
 15 98  1  0  0  0
 16 17  2  0  0  0
 16 21  1  0  0  0
 16 31  1  0  0  0
 17 18  1  0  0  0
 17 99  1  0  0  0
 18 19  2  0  0  0
 18100  1  0  0  0
 19 20  1  0  0  0
 19 24  1  0  0  0
 20 21  2  0  0  0
 20101  1  0  0  0
 21 23  1  0  0  0
 22 28  1  0  0  0
 22 32  2  0  0  0
 26 27  1  0  0  0
 28102  1  0  0  0
 28103  1  0  0  0
 29104  1  0  0  0
 29105  1  0  0  0
 33 34  1  0  0  0
 33 66  1  0  0  0
 33 70  2  0  0  0
 34 36  1  0  0  0
 34 59  1  0  0  0
 34106  1  0  0  0
 35 44  2  0  0  0
 35 45  1  0  0  0
 35 68  1  0  0  0
 36 56  1  0  0  0
 36107  1  0  0  0
 37 39  1  0  0  0
 37 47  1  0  0  0
 37 66  1  0  0  0
 37108  1  0  0  0
 38 43  2  0  0  0
 38 46  1  0  0  0
 38 47  1  0  0  0
 39 64  1  0  0  0
 39 67  2  0  0  0
 40 52  1  0  0  0
 40 53  2  0  0  0
 40 58  1  0  0  0
 41109  1  0  0  0
 41110  1  0  0  0
 41111  1  0  0  0
 41 48  1  0  0  0
 42 43  1  0  0  0
 42 66  1  0  0  0
 42112  1  0  0  0
 42113  1  0  0  0
 43 44  1  0  0  0
 44114  1  0  0  0
 45 46  2  0  0  0
 45115  1  0  0  0
 46116  1  0  0  0
 47117  1  0  0  0
 47118  1  0  0  0
 48 56  1  0  0  0
 48 65  1  0  0  0
 48119  1  0  0  0
 49 50  1  0  0  0
 49 53  1  0  0  0
 49 64  1  0  0  0
 49120  1  0  0  0
 50 51  1  0  0  0
 50121  1  0  0  0
 50122  1  0  0  0
 51 52  1  0  0  0
 51123  1  0  0  0
 51124  1  0  0  0
 52125  1  0  0  0
 52126  1  0  0  0
 53 54  1  0  0  0
 54 55  2  0  0  0
 54127  1  0  0  0
 55 57  1  0  0  0
 55128  1  0  0  0
 56 69  2  0  0  0
 57 58  2  0  0  0
 57129  1  0  0  0
 58130  1  0  0  0
 59 60  1  0  0  0
 59 61  1  0  0  0
 59 62  1  0  0  0
 60131  1  0  0  0
 60132  1  0  0  0
 60133  1  0  0  0
 61134  1  0  0  0
 61135  1  0  0  0
 61136  1  0  0  0
 62137  1  0  0  0
 62138  1  0  0  0
 62139  1  0  0  0
 63 65  1  0  0  0
 63140  1  0  0  0
 63141  1  0  0  0
 63142  1  0  0  0
 64143  1  0  0  0
 65144  1  0  0  0
 68 81  1  0  0  0
 71 73  2  0  0  0
 71 75  1  0  0  0
 71145  1  0  0  0
 72 74  1  0  0  0
 72 75  2  0  0  0
 72146  1  0  0  0
 73 76  1  0  0  0
 73147  1  0  0  0
 74 76  2  0  0  0
 74148  1  0  0  0
 75 83  1  0  0  0
 76 84  1  0  0  0
 77 78  1  0  0  0
 77 79  1  0  0  0
 77 81  2  0  0  0
 78 80  2  0  0  0
 78 82  1  0  0  0
 79 83  1  0  0  0
 79 85  2  0  0  0
 80149  1  0  0  0
 80150  1  0  0  0
 81151  1  0  0  0
 82 83  1  0  0  0
 82152  1  0  0  0
 82153  1  0  0  0
 84154  1  0  0  0
M  ISO  4   1 100  68 101  81 101  84 100
M  END
> <chiral flag>
0

> <version>
0

> <s_m_source_file>
/data/baiqing/PycharmProjects/Reinvent-master-3.2/result/LINK_invent/BTK/process_docking_weight1_custom_product_contain_oxygen_bond_distance_aromatic_linkinvent_7_9_3/rearranged_h_0080.sdf

> <i_m_source_file_index>
47

> <r_mmod_Potential_Energy-OPLS-2005>
213.749710083008

> <r_mmod_Stretch_Energy-OPLS-2005>
94.9645385742188

> <r_mmod_Bend_Energy-OPLS-2005>
196.454376220703

> <r_mmod_Torsional_Energy-OPLS-2005>
246.572250366211

> <r_mmod_Improper_Torsional_Energy-OPLS-2005>
3.60927796363831

> <r_mmod_Van_der_Waal_Energy-OPLS-2005>
143.749618530273

> <r_mmod_Electrostatic_Energy-OPLS-2005>
-326.163909912109

> <r_mmod_Solvation_Energy-OPLS-2005>
-208.378356933594

> <b_mmod_Minimization_Converged-OPLS-2005>
0

> <r_mmod_RMS_Derivative-OPLS-2005>
0.686327934265137

$$$$
47
                    3D
 Structure written by MMmdl.
150159  0  0  1  0            999 V2000
  -30.5455  -14.8753   20.4317 C   0  0  0  0  0  0
  -30.4465  -12.5381   19.4827 C   0  0  0  0  0  0
  -29.5196  -12.5204   18.2450 C   0  0  0  0  0  0
  -28.0492  -12.3190   18.6624 C   0  0  0  0  0  0
  -27.6363  -13.2367   19.8428 C   0  0  2  0  0  0
  -28.6822  -13.2176   20.9782 C   0  0  0  0  0  0
  -25.2494  -13.8197   20.5696 C   0  0  0  0  0  0
  -24.1798  -13.0435   20.9222 C   0  0  0  0  0  0
  -24.6397  -11.6915   20.8754 C   0  0  0  0  0  0
  -23.9076  -10.4290   21.0410 C   0  0  0  0  0  0
  -24.3625   -9.4205   21.9187 C   0  0  0  0  0  0
  -23.6297   -8.2242   22.0755 C   0  0  0  0  0  0
  -22.4278   -8.0282   21.3545 C   0  0  0  0  0  0
  -21.9916   -9.0257   20.4647 C   0  0  0  0  0  0
  -22.7248  -10.2134   20.3058 C   0  0  0  0  0  0
  -21.6853   -6.0736   22.5279 C   0  0  0  0  0  0
  -21.4014   -6.5640   23.8213 C   0  0  0  0  0  0
  -21.3660   -5.6793   24.9175 C   0  0  0  0  0  0
  -21.6044   -4.3056   24.7225 C   0  0  0  0  0  0
  -21.8819   -3.8147   23.4346 C   0  0  0  0  0  0
  -21.9193   -4.6964   22.3402 C   0  0  0  0  0  0
  -22.7817  -13.5214   21.1878 C   0  0  0  0  0  0
  -22.1661   -4.2150   21.0980 F   0  0  0  0  0  0
  -21.5629   -3.4539   25.7738 F   0  0  0  0  0  0
  -29.9675  -13.6148   20.3876 N   0  0  0  0  0  0
  -26.2916  -12.9408   20.3251 N   0  0  0  0  0  0
  -25.9327  -11.6548   20.5741 N   0  0  0  0  0  0
  -22.0464  -12.8204   22.0433 N   0  0  0  0  0  0
  -25.4155  -15.1926   20.4101 N   0  0  0  0  0  0
  -31.7473  -14.9811   20.1634 O   0  0  0  0  0  0
  -21.6640   -6.8879   21.4241 O   0  0  0  0  0  0
  -22.3503  -14.5519   20.6721 O   0  0  0  0  0  0
  -24.6409  -31.8473   23.1909 C   0  0  0  0  0  0
  -25.9194  -32.4712   23.8288 C   0  0  1  0  0  0
  -27.2240  -27.1781   20.1258 C   0  0  0  0  0  0
  -25.5952  -33.8516   24.2206 N   0  0  0  0  0  0
  -23.4419  -30.4688   21.5366 C   0  0  2  0  0  0
  -24.8896  -28.9043   20.1085 C   0  0  0  0  0  0
  -22.7553  -29.4566   22.4872 C   0  0  0  0  0  0
  -18.0302  -28.1393   22.8478 C   0  0  0  0  0  0
  -24.1492  -36.7263   23.2642 C   0  0  0  0  0  0
  -25.9962  -30.7343   21.3825 C   0  0  0  0  0  0
  -26.0683  -29.3510   20.7190 C   0  0  0  0  0  0
  -27.2350  -28.5029   20.7131 C   0  0  0  0  0  0
  -26.0031  -26.8122   19.5136 C   0  0  0  0  0  0
  -24.8667  -27.6452   19.4936 C   0  0  0  0  0  0
  -23.6650  -29.8019   20.1544 C   0  0  0  0  0  0
  -25.4123  -36.3043   24.0318 C   0  0  1  0  0  0
  -20.5914  -28.3716   23.1242 C   0  0  2  0  0  0
  -20.6789  -26.9422   22.5404 C   0  0  0  0  0  0
  -19.5762  -26.6382   21.5213 C   0  0  0  0  0  0
  -18.1942  -26.7932   22.1625 C   0  0  0  0  0  0
  -19.1558  -28.8873   23.2853 C   0  0  0  0  0  0
  -18.9475  -30.1470   23.8878 C   0  0  0  0  0  0
  -17.6473  -30.6591   24.0560 C   0  0  0  0  0  0
  -25.9071  -34.9417   23.5069 C   0  0  0  0  0  0
  -16.5364  -29.9084   23.6335 C   0  0  0  0  0  0
  -16.7288  -28.6502   23.0355 C   0  0  0  0  0  0
  -26.4523  -31.6570   25.0716 C   0  0  0  0  0  0
  -25.3715  -31.3747   26.1415 C   0  0  0  0  0  0
  -27.0386  -30.2973   24.6273 C   0  0  0  0  0  0
  -27.6055  -32.4330   25.7503 C   0  0  0  0  0  0
  -27.5576  -37.1789   24.8465 C   0  0  0  0  0  0
  -21.4249  -29.3049   22.3620 N   0  0  0  0  0  0
  -26.4288  -37.3752   23.9408 N   0  0  0  0  0  0
  -24.7128  -31.0365   22.0923 N   0  0  0  0  0  0
  -23.4212  -28.8110   23.3007 O   0  0  0  0  0  0
  -28.2855  -26.2098   20.2216 O   0  0  0  0  0  0
  -26.5653  -34.8909   22.4645 O   0  0  0  0  0  0
  -23.5535  -32.1331   23.7154 O   0  0  0  0  0  0
  -30.7403  -19.6917   20.6196 C   0  0  0  0  0  0
  -30.9601  -18.2391   20.6522 C   0  0  0  0  0  0
  -29.4454  -20.1422   20.4120 C   0  0  0  0  0  0
  -29.8508  -17.4205   20.5021 C   0  0  0  0  0  0
  -28.6149  -23.6136   19.8670 C   0  0  0  0  0  0
  -28.9852  -22.8226   21.0569 C   0  0  0  0  0  0
  -28.3352  -24.9535   19.4899 C   0  0  0  0  0  0
  -28.7343  -22.2809   19.0561 C   0  0  0  0  0  0
  -28.1896  -25.2161   17.9958 C   0  0  0  0  0  0
  -28.9003  -21.5641   20.3455 N   0  0  0  0  0  0
  -29.6994  -15.9975   20.5507 N   0  0  0  0  0  0
  -29.3417  -23.1767   22.1616 O   0  0  0  0  0  0
  -28.4908  -18.6085   20.2740 S   0  0  0  0  0  0
  -31.4804  -12.6980   19.1726 H   0  0  0  0  0  0
  -30.4325  -11.5737   19.9933 H   0  0  0  0  0  0
  -29.8242  -11.7325   17.5549 H   0  0  0  0  0  0
  -29.6192  -13.4601   17.6997 H   0  0  0  0  0  0
  -27.9308  -11.2739   18.9514 H   0  0  0  0  0  0
  -27.3873  -12.4750   17.8096 H   0  0  0  0  0  0
  -27.6123  -14.2471   19.4348 H   0  0  0  0  0  0
  -28.7513  -12.2271   21.4307 H   0  0  0  0  0  0
  -28.3961  -13.9010   21.7795 H   0  0  0  0  0  0
  -25.2768   -9.5680   22.4764 H   0  0  0  0  0  0
  -24.0003   -7.4632   22.7474 H   0  0  0  0  0  0
  -21.0848   -8.8778   19.8952 H   0  0  0  0  0  0
  -22.3708  -10.9675   19.6169 H   0  0  0  0  0  0
  -21.2007   -7.6148   23.9716 H   0  0  0  0  0  0
  -21.1482   -6.0524   25.9078 H   0  0  0  0  0  0
  -22.0598   -2.7609   23.2846 H   0  0  0  0  0  0
  -22.4084  -11.9868   22.4823 H   0  0  0  0  0  0
  -21.1080  -13.1224   22.2636 H   0  0  0  0  0  0
  -24.6403  -15.8382   20.5162 H   0  0  0  0  0  0
  -26.2462  -15.6349   20.0398 H   0  0  0  0  0  0
  -26.7259  -32.5328   23.1020 H   0  0  0  0  0  0
  -25.0081  -33.9637   25.0341 H   0  0  0  0  0  0
  -22.7427  -31.2940   21.3858 H   0  0  0  0  0  0
  -23.3759  -35.9589   23.3294 H   0  0  0  0  0  0
  -24.3576  -36.8904   22.2058 H   0  0  0  0  0  0
  -23.7242  -37.6455   23.6683 H   0  0  0  0  0  0
  -26.1481  -31.4935   20.6141 H   0  0  0  0  0  0
  -26.8681  -30.7809   22.0235 H   0  0  0  0  0  0
  -28.1336  -28.8389   21.2111 H   0  0  0  0  0  0
  -25.8849  -25.8317   19.0800 H   0  0  0  0  0  0
  -23.9598  -27.2879   19.0255 H   0  0  0  0  0  0
  -23.7987  -30.5780   19.3998 H   0  0  0  0  0  0
  -22.7803  -29.2428   19.8446 H   0  0  0  0  0  0
  -25.1311  -36.1874   25.0809 H   0  0  0  0  0  0
  -21.0006  -28.3303   24.1364 H   0  0  0  0  0  0
  -20.5685  -26.2329   23.3618 H   0  0  0  0  0  0
  -21.6654  -26.7434   22.1199 H   0  0  0  0  0  0
  -19.6923  -25.6288   21.1253 H   0  0  0  0  0  0
  -19.6697  -27.3182   20.6732 H   0  0  0  0  0  0
  -17.4211  -26.6675   21.4030 H   0  0  0  0  0  0
  -18.0345  -26.0079   22.9026 H   0  0  0  0  0  0
  -19.7951  -30.7291   24.2238 H   0  0  0  0  0  0
  -17.5026  -31.6268   24.5165 H   0  0  0  0  0  0
  -15.5362  -30.2980   23.7671 H   0  0  0  0  0  0
  -15.8688  -28.0815   22.7082 H   0  0  0  0  0  0
  -24.5901  -30.7087   25.7736 H   0  0  0  0  0  0
  -24.8894  -32.2925   26.4794 H   0  0  0  0  0  0
  -25.8005  -30.8953   27.0223 H   0  0  0  0  0  0
  -26.2998  -29.6698   24.1273 H   0  0  0  0  0  0
  -27.4008  -29.7264   25.4834 H   0  0  0  0  0  0
  -27.8901  -30.4221   23.9579 H   0  0  0  0  0  0
  -27.2649  -33.3646   26.2036 H   0  0  0  0  0  0
  -28.3893  -32.6867   25.0352 H   0  0  0  0  0  0
  -28.0694  -31.8484   26.5458 H   0  0  0  0  0  0
  -28.2588  -38.0091   24.7512 H   0  0  0  0  0  0
  -28.1079  -36.2620   24.6294 H   0  0  0  0  0  0
  -27.2292  -37.1437   25.8868 H   0  0  0  0  0  0
  -20.9452  -29.8766   21.6808 H   0  0  0  0  0  0
  -26.0158  -38.2821   24.1410 H   0  0  0  0  0  0
  -31.5771  -20.3624   20.7533 H   0  0  0  0  0  0
  -31.9560  -17.8512   20.8140 H   0  0  0  0  0  0
  -29.6165  -22.1747   18.4218 H   0  0  0  0  0  0
  -27.8505  -21.9373   18.5166 H   0  0  0  0  0  0
  -29.0267  -24.7743   17.4542 H   0  0  0  0  0  0
  -28.1846  -26.2803   17.7597 H   0  0  0  0  0  0
  -27.2730  -24.7693   17.6101 H   0  0  0  0  0  0
  -28.7389  -15.7080   20.6520 H   0  0  0  0  0  0
  1 25  1  0  0  0
  1 30  2  0  0  0
  1 81  1  0  0  0
  2  3  1  0  0  0
  2 25  1  0  0  0
  2 84  1  0  0  0
  2 85  1  0  0  0
  3  4  1  0  0  0
  3 86  1  0  0  0
  3 87  1  0  0  0
  4  5  1  0  0  0
  4 88  1  0  0  0
  4 89  1  0  0  0
  5  6  1  0  0  0
  5 26  1  0  0  0
  5 90  1  0  0  0
  6 25  1  0  0  0
  6 91  1  0  0  0
  6 92  1  0  0  0
  7  8  2  0  0  0
  7 26  1  0  0  0
  7 29  1  0  0  0
  8  9  1  0  0  0
  8 22  1  0  0  0
  9 10  1  0  0  0
  9 27  2  0  0  0
 10 11  2  0  0  0
 10 15  1  0  0  0
 11 12  1  0  0  0
 11 93  1  0  0  0
 12 13  2  0  0  0
 12 94  1  0  0  0
 13 14  1  0  0  0
 13 31  1  0  0  0
 14 15  2  0  0  0
 14 95  1  0  0  0
 15 96  1  0  0  0
 16 17  2  0  0  0
 16 21  1  0  0  0
 16 31  1  0  0  0
 17 18  1  0  0  0
 17 97  1  0  0  0
 18 19  2  0  0  0
 18 98  1  0  0  0
 19 20  1  0  0  0
 19 24  1  0  0  0
 20 21  2  0  0  0
 20 99  1  0  0  0
 21 23  1  0  0  0
 22 28  1  0  0  0
 22 32  2  0  0  0
 26 27  1  0  0  0
 28100  1  0  0  0
 28101  1  0  0  0
 29102  1  0  0  0
 29103  1  0  0  0
 33 34  1  0  0  0
 33 66  1  0  0  0
 33 70  2  0  0  0
 34 36  1  0  0  0
 34 59  1  0  0  0
 34104  1  0  0  0
 35 44  2  0  0  0
 35 45  1  0  0  0
 35 68  1  0  0  0
 36 56  1  0  0  0
 36105  1  0  0  0
 37 39  1  0  0  0
 37 47  1  0  0  0
 37 66  1  0  0  0
 37106  1  0  0  0
 38 43  2  0  0  0
 38 46  1  0  0  0
 38 47  1  0  0  0
 39 64  1  0  0  0
 39 67  2  0  0  0
 40 52  1  0  0  0
 40 53  2  0  0  0
 40 58  1  0  0  0
 41107  1  0  0  0
 41108  1  0  0  0
 41109  1  0  0  0
 41 48  1  0  0  0
 42 43  1  0  0  0
 42 66  1  0  0  0
 42110  1  0  0  0
 42111  1  0  0  0
 43 44  1  0  0  0
 44112  1  0  0  0
 45 46  2  0  0  0
 45113  1  0  0  0
 46114  1  0  0  0
 47115  1  0  0  0
 47116  1  0  0  0
 48 56  1  0  0  0
 48 65  1  0  0  0
 48117  1  0  0  0
 49 50  1  0  0  0
 49 53  1  0  0  0
 49 64  1  0  0  0
 49118  1  0  0  0
 50 51  1  0  0  0
 50119  1  0  0  0
 50120  1  0  0  0
 51 52  1  0  0  0
 51121  1  0  0  0
 51122  1  0  0  0
 52123  1  0  0  0
 52124  1  0  0  0
 53 54  1  0  0  0
 54 55  2  0  0  0
 54125  1  0  0  0
 55 57  1  0  0  0
 55126  1  0  0  0
 56 69  2  0  0  0
 57 58  2  0  0  0
 57127  1  0  0  0
 58128  1  0  0  0
 59 60  1  0  0  0
 59 61  1  0  0  0
 59 62  1  0  0  0
 60129  1  0  0  0
 60130  1  0  0  0
 60131  1  0  0  0
 61132  1  0  0  0
 61133  1  0  0  0
 61134  1  0  0  0
 62135  1  0  0  0
 62136  1  0  0  0
 62137  1  0  0  0
 63 65  1  0  0  0
 63138  1  0  0  0
 63139  1  0  0  0
 63140  1  0  0  0
 64141  1  0  0  0
 65142  1  0  0  0
 68 77  1  0  0  0
 71 72  1  0  0  0
 71 73  2  0  0  0
 71143  1  0  0  0
 72 74  2  0  0  0
 72144  1  0  0  0
 73 80  1  0  0  0
 73 83  1  0  0  0
 74 81  1  0  0  0
 74 83  1  0  0  0
 75 76  1  0  0  0
 75 77  2  0  0  0
 75 78  1  0  0  0
 76 80  1  0  0  0
 76 82  2  0  0  0
 77 79  1  0  0  0
 78 80  1  0  0  0
 78145  1  0  0  0
 78146  1  0  0  0
 79147  1  0  0  0
 79148  1  0  0  0
 79149  1  0  0  0
 81150  1  0  0  0
M  ISO  4   1 100  68 101  77 101  81 100
M  END
> <chiral flag>
0

> <version>
0

> <s_m_source_file>
/data/baiqing/PycharmProjects/Reinvent-master-3.2/result/LINK_invent/BTK/process_docking_weight1_custom_product_contain_oxygen_bond_distance_aromatic_linkinvent_7_9_3/rearranged_h_0080.sdf

> <i_m_source_file_index>
48

> <r_mmod_Potential_Energy-OPLS-2005>
413.860260009766

> <r_mmod_Stretch_Energy-OPLS-2005>
164.32438659668

> <r_mmod_Bend_Energy-OPLS-2005>
279.010284423828

> <r_mmod_Torsional_Energy-OPLS-2005>
251.338302612305

> <r_mmod_Improper_Torsional_Energy-OPLS-2005>
9.34439849853516

> <r_mmod_Van_der_Waal_Energy-OPLS-2005>
111.802383422852

> <r_mmod_Electrostatic_Energy-OPLS-2005>
-330.928466796875

> <r_mmod_Solvation_Energy-OPLS-2005>
-223.993957519531

> <b_mmod_Minimization_Converged-OPLS-2005>
0

> <r_mmod_RMS_Derivative-OPLS-2005>
0.530102252960205

$$$$
48
                    3D
 Structure written by MMmdl.
157166  0  0  1  0            999 V2000
  -30.5844  -14.7038   20.4715 C   0  0  0  0  0  0
  -30.4486  -12.4283   19.4579 C   0  0  0  0  0  0
  -29.5149  -12.5084   18.2284 C   0  0  0  0  0  0
  -28.0382  -12.3335   18.6400 C   0  0  0  0  0  0
  -27.6501  -13.2153   19.8558 C   0  0  2  0  0  0
  -28.6964  -13.0995   20.9878 C   0  0  0  0  0  0
  -25.2558  -13.8163   20.5677 C   0  0  0  0  0  0
  -24.1825  -13.0431   20.9178 C   0  0  0  0  0  0
  -24.6392  -11.6899   20.8730 C   0  0  0  0  0  0
  -23.9056  -10.4291   21.0400 C   0  0  0  0  0  0
  -24.3607   -9.4209   21.9175 C   0  0  0  0  0  0
  -23.6288   -8.2245   22.0751 C   0  0  0  0  0  0
  -22.4267   -8.0282   21.3547 C   0  0  0  0  0  0
  -21.9899   -9.0254   20.4649 C   0  0  0  0  0  0
  -22.7228  -10.2134   20.3055 C   0  0  0  0  0  0
  -21.6856   -6.0732   22.5277 C   0  0  0  0  0  0
  -21.4020   -6.5631   23.8210 C   0  0  0  0  0  0
  -21.3657   -5.6779   24.9170 C   0  0  0  0  0  0
  -21.6044   -4.3047   24.7217 C   0  0  0  0  0  0
  -21.8821   -3.8141   23.4338 C   0  0  0  0  0  0
  -21.9196   -4.6960   22.3396 C   0  0  0  0  0  0
  -22.7851  -13.5234   21.1843 C   0  0  0  0  0  0
  -22.1664   -4.2148   21.0974 F   0  0  0  0  0  0
  -21.5624   -3.4528   25.7731 F   0  0  0  0  0  0
  -30.0048  -13.4592   20.4176 N   0  0  0  0  0  0
  -26.2974  -12.9337   20.3278 N   0  0  0  0  0  0
  -25.9317  -11.6495   20.5727 N   0  0  0  0  0  0
  -22.0487  -12.8238   22.0409 N   0  0  0  0  0  0
  -25.4265  -15.1886   20.4102 N   0  0  0  0  0  0
  -31.7666  -14.8713   20.1530 O   0  0  0  0  0  0
  -21.6640   -6.8876   21.4241 O   0  0  0  0  0  0
  -22.3543  -14.5547   20.6699 O   0  0  0  0  0  0
  -24.6303  -31.8578   23.1973 C   0  0  0  0  0  0
  -25.9130  -32.4763   23.8329 C   0  0  1  0  0  0
  -27.2265  -27.2820   20.1139 C   0  0  0  0  0  0
  -25.5932  -33.8563   24.2264 N   0  0  0  0  0  0
  -23.4256  -30.4812   21.5416 C   0  0  2  0  0  0
  -24.8702  -28.9279   20.1144 C   0  0  0  0  0  0
  -22.7504  -29.4622   22.4912 C   0  0  0  0  0  0
  -18.0303  -28.1388   22.8469 C   0  0  0  0  0  0
  -24.1514  -36.7310   23.2626 C   0  0  0  0  0  0
  -25.9701  -30.7796   21.3682 C   0  0  0  0  0  0
  -26.0438  -29.4016   20.7138 C   0  0  0  0  0  0
  -27.2221  -28.5908   20.7023 C   0  0  0  0  0  0
  -26.0119  -26.8555   19.5279 C   0  0  0  0  0  0
  -24.8573  -27.6603   19.5151 C   0  0  0  0  0  0
  -23.6424  -29.8155   20.1580 C   0  0  0  0  0  0
  -25.4121  -36.3073   24.0329 C   0  0  1  0  0  0
  -20.5906  -28.3698   23.1277 C   0  0  2  0  0  0
  -20.6794  -26.9416   22.5410 C   0  0  0  0  0  0
  -19.5771  -26.6385   21.5208 C   0  0  0  0  0  0
  -18.1950  -26.7925   22.1617 C   0  0  0  0  0  0
  -19.1552  -28.8858   23.2867 C   0  0  0  0  0  0
  -18.9464  -30.1457   23.8889 C   0  0  0  0  0  0
  -17.6461  -30.6581   24.0560 C   0  0  0  0  0  0
  -25.9057  -34.9447   23.5099 C   0  0  0  0  0  0
  -16.5354  -29.9074   23.6325 C   0  0  0  0  0  0
  -16.7288  -28.6500   23.0327 C   0  0  0  0  0  0
  -26.4490  -31.6550   25.0699 C   0  0  0  0  0  0
  -25.3707  -31.3719   26.1420 C   0  0  0  0  0  0
  -27.0264  -30.2945   24.6137 C   0  0  0  0  0  0
  -27.6083  -32.4231   25.7472 C   0  0  0  0  0  0
  -27.5600  -37.1805   24.8447 C   0  0  0  0  0  0
  -21.4210  -29.3054   22.3667 N   0  0  0  0  0  0
  -26.4294  -37.3767   23.9412 N   0  0  0  0  0  0
  -24.6956  -31.0572   22.0932 N   0  0  0  0  0  0
  -23.4215  -28.8158   23.2994 O   0  0  0  0  0  0
  -28.3497  -26.4228   20.1706 O   0  0  0  0  0  0
  -26.5625  -34.8920   22.4669 O   0  0  0  0  0  0
  -23.5455  -32.1385   23.7279 O   0  0  0  0  0  0
  -28.6390  -19.3161   19.7578 C   0  0  0  0  0  0
  -30.5152  -19.4901   21.2352 C   0  0  0  0  0  0
  -28.7646  -17.8902   19.7894 C   0  0  0  0  0  0
  -30.6635  -18.0618   21.2393 C   0  0  0  0  0  0
  -29.4912  -20.1748   20.5076 C   0  0  0  0  0  0
  -29.7720  -17.2105   20.5324 C   0  0  0  0  0  0
  -28.7251  -23.9362   20.2629 C   0  0  0  0  0  0
  -29.0990  -23.7590   21.6444 C   0  0  0  0  0  0
  -28.8300  -22.5563   19.6778 C   0  0  0  0  0  0
  -28.9955  -24.6754   22.6234 C   0  0  0  0  0  0
  -28.3844  -25.1170   19.5992 C   0  0  0  0  0  0
  -29.5820  -22.3424   21.8741 C   0  0  0  0  0  0
  -28.1793  -25.1718   18.0883 C   0  0  0  0  0  0
  -29.2911  -21.6467   20.6157 N   0  0  0  0  0  0
  -29.7084  -15.7460   20.6808 N   0  0  0  0  0  0
  -28.5550  -22.2332   18.5174 O   0  0  0  0  0  0
  -31.4871  -12.5719   19.1527 H   0  0  0  0  0  0
  -30.4032  -11.4391   19.9152 H   0  0  0  0  0  0
  -29.7910  -11.7503   17.4940 H   0  0  0  0  0  0
  -29.6458  -13.4720   17.7332 H   0  0  0  0  0  0
  -27.8850  -11.2810   18.8834 H   0  0  0  0  0  0
  -27.3842  -12.5472   17.7937 H   0  0  0  0  0  0
  -27.6571  -14.2431   19.4934 H   0  0  0  0  0  0
  -28.7228  -12.0847   21.3874 H   0  0  0  0  0  0
  -28.4335  -13.7451   21.8276 H   0  0  0  0  0  0
  -25.2754   -9.5690   22.4741 H   0  0  0  0  0  0
  -24.0000   -7.4638   22.7465 H   0  0  0  0  0  0
  -21.0828   -8.8769   19.8955 H   0  0  0  0  0  0
  -22.3677  -10.9667   19.6164 H   0  0  0  0  0  0
  -21.2018   -7.6140   23.9714 H   0  0  0  0  0  0
  -21.1475   -6.0509   25.9072 H   0  0  0  0  0  0
  -22.0604   -2.7605   23.2838 H   0  0  0  0  0  0
  -22.4081  -11.9886   22.4796 H   0  0  0  0  0  0
  -21.1124  -13.1300   22.2624 H   0  0  0  0  0  0
  -24.6581  -15.8408   20.5224 H   0  0  0  0  0  0
  -26.2695  -15.6315   20.0711 H   0  0  0  0  0  0
  -26.7197  -32.5431   23.1076 H   0  0  0  0  0  0
  -25.0066  -33.9709   25.0400 H   0  0  0  0  0  0
  -22.7194  -31.3017   21.3964 H   0  0  0  0  0  0
  -23.3766  -35.9648   23.3233 H   0  0  0  0  0  0
  -24.3631  -36.8976   22.2052 H   0  0  0  0  0  0
  -23.7276  -37.6507   23.6677 H   0  0  0  0  0  0
  -26.0956  -31.5361   20.5921 H   0  0  0  0  0  0
  -26.8537  -30.8386   21.9919 H   0  0  0  0  0  0
  -28.1242  -28.9515   21.1763 H   0  0  0  0  0  0
  -25.9184  -25.8701   19.0988 H   0  0  0  0  0  0
  -23.9513  -27.2805   19.0639 H   0  0  0  0  0  0
  -23.7698  -30.5917   19.4023 H   0  0  0  0  0  0
  -22.7602  -29.2510   19.8518 H   0  0  0  0  0  0
  -25.1285  -36.1924   25.0814 H   0  0  0  0  0  0
  -20.9992  -28.3275   24.1401 H   0  0  0  0  0  0
  -20.5701  -26.2300   23.3606 H   0  0  0  0  0  0
  -21.6668  -26.7451   22.1209 H   0  0  0  0  0  0
  -19.6937  -25.6293   21.1250 H   0  0  0  0  0  0
  -19.6711  -27.3186   20.6729 H   0  0  0  0  0  0
  -17.4221  -26.6654   21.4024 H   0  0  0  0  0  0
  -18.0349  -26.0073   22.9022 H   0  0  0  0  0  0
  -19.7936  -30.7275   24.2258 H   0  0  0  0  0  0
  -17.5012  -31.6262   24.5157 H   0  0  0  0  0  0
  -15.5352  -30.2965   23.7657 H   0  0  0  0  0  0
  -15.8689  -28.0828   22.7023 H   0  0  0  0  0  0
  -24.5922  -30.7007   25.7772 H   0  0  0  0  0  0
  -24.8844  -32.2887   26.4772 H   0  0  0  0  0  0
  -25.8026  -30.8978   27.0243 H   0  0  0  0  0  0
  -26.2797  -29.6752   24.1150 H   0  0  0  0  0  0
  -27.3905  -29.7157   25.4635 H   0  0  0  0  0  0
  -27.8713  -30.4170   23.9353 H   0  0  0  0  0  0
  -27.2738  -33.3537   26.2070 H   0  0  0  0  0  0
  -28.3904  -32.6755   25.0299 H   0  0  0  0  0  0
  -28.0728  -31.8311   26.5369 H   0  0  0  0  0  0
  -28.2565  -38.0150   24.7525 H   0  0  0  0  0  0
  -28.1149  -36.2685   24.6206 H   0  0  0  0  0  0
  -27.2340  -37.1367   25.8851 H   0  0  0  0  0  0
  -20.9386  -29.8771   21.6879 H   0  0  0  0  0  0
  -26.0177  -38.2850   24.1381 H   0  0  0  0  0  0
  -27.8265  -19.7443   19.1871 H   0  0  0  0  0  0
  -31.2081  -20.0642   21.8332 H   0  0  0  0  0  0
  -28.0367  -17.3083   19.2420 H   0  0  0  0  0  0
  -31.4410  -17.6229   21.8489 H   0  0  0  0  0  0
  -28.6184  -25.6716   22.4491 H   0  0  0  0  0  0
  -29.2836  -24.4317   23.6365 H   0  0  0  0  0  0
  -29.0495  -21.8765   22.7047 H   0  0  0  0  0  0
  -30.6514  -22.3387   22.0876 H   0  0  0  0  0  0
  -29.0606  -24.7878   17.5747 H   0  0  0  0  0  0
  -28.0235  -26.1898   17.7311 H   0  0  0  0  0  0
  -27.3217  -24.5689   17.7877 H   0  0  0  0  0  0
  -28.7715  -15.3981   20.8122 H   0  0  0  0  0  0
  1 25  1  0  0  0
  1 30  2  0  0  0
  1 85  1  0  0  0
  2  3  1  0  0  0
  2 25  1  0  0  0
  2 87  1  0  0  0
  2 88  1  0  0  0
  3  4  1  0  0  0
  3 89  1  0  0  0
  3 90  1  0  0  0
  4  5  1  0  0  0
  4 91  1  0  0  0
  4 92  1  0  0  0
  5  6  1  0  0  0
  5 26  1  0  0  0
  5 93  1  0  0  0
  6 25  1  0  0  0
  6 94  1  0  0  0
  6 95  1  0  0  0
  7  8  2  0  0  0
  7 26  1  0  0  0
  7 29  1  0  0  0
  8  9  1  0  0  0
  8 22  1  0  0  0
  9 10  1  0  0  0
  9 27  2  0  0  0
 10 11  2  0  0  0
 10 15  1  0  0  0
 11 12  1  0  0  0
 11 96  1  0  0  0
 12 13  2  0  0  0
 12 97  1  0  0  0
 13 14  1  0  0  0
 13 31  1  0  0  0
 14 15  2  0  0  0
 14 98  1  0  0  0
 15 99  1  0  0  0
 16 17  2  0  0  0
 16 21  1  0  0  0
 16 31  1  0  0  0
 17 18  1  0  0  0
 17100  1  0  0  0
 18 19  2  0  0  0
 18101  1  0  0  0
 19 20  1  0  0  0
 19 24  1  0  0  0
 20 21  2  0  0  0
 20102  1  0  0  0
 21 23  1  0  0  0
 22 28  1  0  0  0
 22 32  2  0  0  0
 26 27  1  0  0  0
 28103  1  0  0  0
 28104  1  0  0  0
 29105  1  0  0  0
 29106  1  0  0  0
 33 34  1  0  0  0
 33 66  1  0  0  0
 33 70  2  0  0  0
 34 36  1  0  0  0
 34 59  1  0  0  0
 34107  1  0  0  0
 35 44  2  0  0  0
 35 45  1  0  0  0
 35 68  1  0  0  0
 36 56  1  0  0  0
 36108  1  0  0  0
 37 39  1  0  0  0
 37 47  1  0  0  0
 37 66  1  0  0  0
 37109  1  0  0  0
 38 43  2  0  0  0
 38 46  1  0  0  0
 38 47  1  0  0  0
 39 64  1  0  0  0
 39 67  2  0  0  0
 40 52  1  0  0  0
 40 53  2  0  0  0
 40 58  1  0  0  0
 41110  1  0  0  0
 41111  1  0  0  0
 41112  1  0  0  0
 41 48  1  0  0  0
 42 43  1  0  0  0
 42 66  1  0  0  0
 42113  1  0  0  0
 42114  1  0  0  0
 43 44  1  0  0  0
 44115  1  0  0  0
 45 46  2  0  0  0
 45116  1  0  0  0
 46117  1  0  0  0
 47118  1  0  0  0
 47119  1  0  0  0
 48 56  1  0  0  0
 48 65  1  0  0  0
 48120  1  0  0  0
 49 50  1  0  0  0
 49 53  1  0  0  0
 49 64  1  0  0  0
 49121  1  0  0  0
 50 51  1  0  0  0
 50122  1  0  0  0
 50123  1  0  0  0
 51 52  1  0  0  0
 51124  1  0  0  0
 51125  1  0  0  0
 52126  1  0  0  0
 52127  1  0  0  0
 53 54  1  0  0  0
 54 55  2  0  0  0
 54128  1  0  0  0
 55 57  1  0  0  0
 55129  1  0  0  0
 56 69  2  0  0  0
 57 58  2  0  0  0
 57130  1  0  0  0
 58131  1  0  0  0
 59 60  1  0  0  0
 59 61  1  0  0  0
 59 62  1  0  0  0
 60132  1  0  0  0
 60133  1  0  0  0
 60134  1  0  0  0
 61135  1  0  0  0
 61136  1  0  0  0
 61137  1  0  0  0
 62138  1  0  0  0
 62139  1  0  0  0
 62140  1  0  0  0
 63 65  1  0  0  0
 63141  1  0  0  0
 63142  1  0  0  0
 63143  1  0  0  0
 64144  1  0  0  0
 65145  1  0  0  0
 68 81  1  0  0  0
 71 73  2  0  0  0
 71 75  1  0  0  0
 71146  1  0  0  0
 72 74  1  0  0  0
 72 75  2  0  0  0
 72147  1  0  0  0
 73 76  1  0  0  0
 73148  1  0  0  0
 74 76  2  0  0  0
 74149  1  0  0  0
 75 84  1  0  0  0
 76 85  1  0  0  0
 77 78  1  0  0  0
 77 79  1  0  0  0
 77 81  2  0  0  0
 78 80  2  0  0  0
 78 82  1  0  0  0
 79 84  1  0  0  0
 79 86  2  0  0  0
 80150  1  0  0  0
 80151  1  0  0  0
 81 83  1  0  0  0
 82 84  1  0  0  0
 82152  1  0  0  0
 82153  1  0  0  0
 83154  1  0  0  0
 83155  1  0  0  0
 83156  1  0  0  0
 85157  1  0  0  0
M  ISO  4   1 100  68 101  81 101  85 100
M  END
> <chiral flag>
0

> <version>
0

> <s_m_source_file>
/data/baiqing/PycharmProjects/Reinvent-master-3.2/result/LINK_invent/BTK/process_docking_weight1_custom_product_contain_oxygen_bond_distance_aromatic_linkinvent_7_9_3/rearranged_h_0080.sdf

> <i_m_source_file_index>
49

> <r_mmod_Potential_Energy-OPLS-2005>
301.31689453125

> <r_mmod_Stretch_Energy-OPLS-2005>
100.55078125

> <r_mmod_Bend_Energy-OPLS-2005>
197.038452148438

> <r_mmod_Torsional_Energy-OPLS-2005>
289.120208740234

> <r_mmod_Improper_Torsional_Energy-OPLS-2005>
6.97273349761963

> <r_mmod_Van_der_Waal_Energy-OPLS-2005>
141.710571289062

> <r_mmod_Electrostatic_Energy-OPLS-2005>
-294.971588134766

> <r_mmod_Solvation_Energy-OPLS-2005>
-208.983749389648

> <b_mmod_Minimization_Converged-OPLS-2005>
0

> <r_mmod_RMS_Derivative-OPLS-2005>
1.41329073905945

$$$$
49
                    3D
 Structure written by MMmdl.
151160  0  0  1  0            999 V2000
  -30.5780  -14.8448   20.4523 C   0  0  0  0  0  0
  -30.4456  -12.5210   19.4862 C   0  0  0  0  0  0
  -29.5195  -12.5194   18.2458 C   0  0  0  0  0  0
  -28.0468  -12.3120   18.6536 C   0  0  0  0  0  0
  -27.6369  -13.2163   19.8427 C   0  0  2  0  0  0
  -28.6850  -13.1586   20.9781 C   0  0  0  0  0  0
  -25.2520  -13.8153   20.5684 C   0  0  0  0  0  0
  -24.1792  -13.0414   20.9159 C   0  0  0  0  0  0
  -24.6373  -11.6890   20.8720 C   0  0  0  0  0  0
  -23.9050  -10.4279   21.0398 C   0  0  0  0  0  0
  -24.3611   -9.4205   21.9177 C   0  0  0  0  0  0
  -23.6290   -8.2240   22.0748 C   0  0  0  0  0  0
  -22.4273   -8.0275   21.3542 C   0  0  0  0  0  0
  -21.9897   -9.0244   20.4644 C   0  0  0  0  0  0
  -22.7219  -10.2124   20.3050 C   0  0  0  0  0  0
  -21.6854   -6.0745   22.5285 C   0  0  0  0  0  0
  -21.4016   -6.5648   23.8219 C   0  0  0  0  0  0
  -21.3651   -5.6793   24.9174 C   0  0  0  0  0  0
  -21.6038   -4.3058   24.7222 C   0  0  0  0  0  0
  -21.8822   -3.8155   23.4345 C   0  0  0  0  0  0
  -21.9195   -4.6972   22.3405 C   0  0  0  0  0  0
  -22.7824  -13.5216   21.1846 C   0  0  0  0  0  0
  -22.1666   -4.2160   21.0982 F   0  0  0  0  0  0
  -21.5615   -3.4536   25.7735 F   0  0  0  0  0  0
  -29.9730  -13.5885   20.4102 N   0  0  0  0  0  0
  -26.2913  -12.9315   20.3248 N   0  0  0  0  0  0
  -25.9296  -11.6480   20.5730 N   0  0  0  0  0  0
  -22.0480  -12.8210   22.0413 N   0  0  0  0  0  0
  -25.4231  -15.1886   20.4224 N   0  0  0  0  0  0
  -31.7697  -14.9145   20.1330 O   0  0  0  0  0  0
  -21.6633   -6.8880   21.4245 O   0  0  0  0  0  0
  -22.3506  -14.5528   20.6705 O   0  0  0  0  0  0
  -24.6378  -31.8507   23.1948 C   0  0  0  0  0  0
  -25.9179  -32.4728   23.8308 C   0  0  1  0  0  0
  -27.2209  -27.2049   20.1223 C   0  0  0  0  0  0
  -25.5950  -33.8532   24.2228 N   0  0  0  0  0  0
  -23.4368  -30.4753   21.5399 C   0  0  2  0  0  0
  -24.8842  -28.9190   20.1096 C   0  0  0  0  0  0
  -22.7536  -29.4586   22.4883 C   0  0  0  0  0  0
  -18.0303  -28.1388   22.8482 C   0  0  0  0  0  0
  -24.1498  -36.7276   23.2641 C   0  0  0  0  0  0
  -25.9903  -30.7457   21.3850 C   0  0  0  0  0  0
  -26.0613  -29.3648   20.7232 C   0  0  0  0  0  0
  -27.2285  -28.5212   20.7198 C   0  0  0  0  0  0
  -26.0046  -26.8440   19.4898 C   0  0  0  0  0  0
  -24.8647  -27.6680   19.4829 C   0  0  0  0  0  0
  -23.6583  -29.8123   20.1566 C   0  0  0  0  0  0
  -25.4125  -36.3055   24.0321 C   0  0  1  0  0  0
  -20.5913  -28.3711   23.1245 C   0  0  2  0  0  0
  -20.6789  -26.9420   22.5399 C   0  0  0  0  0  0
  -19.5759  -26.6379   21.5210 C   0  0  0  0  0  0
  -18.1945  -26.7926   22.1631 C   0  0  0  0  0  0
  -19.1559  -28.8866   23.2858 C   0  0  0  0  0  0
  -18.9477  -30.1465   23.8877 C   0  0  0  0  0  0
  -17.6474  -30.6587   24.0558 C   0  0  0  0  0  0
  -25.9065  -34.9424   23.5077 C   0  0  0  0  0  0
  -16.5365  -29.9082   23.6333 C   0  0  0  0  0  0
  -16.7288  -28.6500   23.0353 C   0  0  0  0  0  0
  -26.4518  -31.6569   25.0719 C   0  0  0  0  0  0
  -25.3721  -31.3743   26.1427 C   0  0  0  0  0  0
  -27.0369  -30.2971   24.6254 C   0  0  0  0  0  0
  -27.6059  -32.4323   25.7496 C   0  0  0  0  0  0
  -27.5578  -37.1802   24.8469 C   0  0  0  0  0  0
  -21.4237  -29.3052   22.3626 N   0  0  0  0  0  0
  -26.4298  -37.3756   23.9398 N   0  0  0  0  0  0
  -24.7078  -31.0427   22.0954 N   0  0  0  0  0  0
  -23.4210  -28.8121   23.2999 O   0  0  0  0  0  0
  -28.2973  -26.2604   20.1977 O   0  0  0  0  0  0
  -26.5645  -34.8907   22.4652 O   0  0  0  0  0  0
  -23.5514  -32.1357   23.7207 O   0  0  0  0  0  0
  -32.1459  -19.2473   20.9696 C   0  0  0  0  0  0
  -31.6300  -17.9397   20.8963 C   0  0  0  0  0  0
  -31.3274  -20.3862   20.8176 C   0  0  0  0  0  0
  -29.4613  -18.9366   20.4833 C   0  0  0  0  0  0
  -30.2615  -17.7050   20.6519 C   0  0  0  0  0  0
  -29.9347  -20.3302   20.5628 C   0  0  0  0  0  0
  -28.6640  -23.6457   20.0720 C   0  0  0  0  0  0
  -28.4554  -22.3354   19.4313 C   0  0  0  0  0  0
  -28.1674  -24.9086   19.7025 C   0  0  0  0  0  0
  -29.6941  -16.2232   20.6908 C   0  0  0  0  0  0
  -29.5781  -22.9299   21.0994 C   0  0  0  0  0  0
  -28.4499  -16.1514   20.9099 N   0  0  0  0  0  0
  -29.1941  -21.6405   20.4255 N   0  0  0  0  0  0
  -27.9268  -22.0494   18.3764 O   0  0  0  0  0  0
  -31.4806  -12.6690   19.1737 H   0  0  0  0  0  0
  -30.4269  -11.5478   19.9793 H   0  0  0  0  0  0
  -29.8249  -11.7393   17.5473 H   0  0  0  0  0  0
  -29.6233  -13.4656   17.7127 H   0  0  0  0  0  0
  -27.9236  -11.2633   18.9261 H   0  0  0  0  0  0
  -27.3877  -12.4826   17.8013 H   0  0  0  0  0  0
  -27.6143  -14.2215   19.4268 H   0  0  0  0  0  0
  -28.7603  -12.1429   21.3698 H   0  0  0  0  0  0
  -28.3968  -13.7664   21.8357 H   0  0  0  0  0  0
  -25.2759   -9.5680   22.4741 H   0  0  0  0  0  0
  -24.0000   -7.4634   22.7468 H   0  0  0  0  0  0
  -21.0822   -8.8760   19.8962 H   0  0  0  0  0  0
  -22.3675  -10.9657   19.6156 H   0  0  0  0  0  0
  -21.2018   -7.6159   23.9725 H   0  0  0  0  0  0
  -21.1458   -6.0525   25.9076 H   0  0  0  0  0  0
  -22.0608   -2.7617   23.2843 H   0  0  0  0  0  0
  -22.4106  -11.9870   22.4790 H   0  0  0  0  0  0
  -21.1105  -13.1239   22.2647 H   0  0  0  0  0  0
  -24.6660  -15.8420   20.5909 H   0  0  0  0  0  0
  -26.3107  -15.6539   20.2577 H   0  0  0  0  0  0
  -26.7242  -32.5362   23.1042 H   0  0  0  0  0  0
  -25.0078  -33.9655   25.0362 H   0  0  0  0  0  0
  -22.7369  -31.3005   21.3927 H   0  0  0  0  0  0
  -23.3748  -35.9623   23.3315 H   0  0  0  0  0  0
  -24.3581  -36.8889   22.2053 H   0  0  0  0  0  0
  -23.7269  -37.6487   23.6661 H   0  0  0  0  0  0
  -26.1401  -31.5053   20.6164 H   0  0  0  0  0  0
  -26.8632  -30.7917   22.0240 H   0  0  0  0  0  0
  -28.1253  -28.8565   21.2215 H   0  0  0  0  0  0
  -25.8660  -25.8862   19.0170 H   0  0  0  0  0  0
  -23.9609  -27.3164   19.0034 H   0  0  0  0  0  0
  -23.7887  -30.5899   19.4029 H   0  0  0  0  0  0
  -22.7749  -29.2517   19.8457 H   0  0  0  0  0  0
  -25.1314  -36.1897   25.0815 H   0  0  0  0  0  0
  -21.0011  -28.3296   24.1363 H   0  0  0  0  0  0
  -20.5693  -26.2321   23.3612 H   0  0  0  0  0  0
  -21.6655  -26.7438   22.1189 H   0  0  0  0  0  0
  -19.6920  -25.6287   21.1245 H   0  0  0  0  0  0
  -19.6686  -27.3185   20.6734 H   0  0  0  0  0  0
  -17.4207  -26.6664   21.4041 H   0  0  0  0  0  0
  -18.0355  -26.0073   22.9036 H   0  0  0  0  0  0
  -19.7951  -30.7291   24.2234 H   0  0  0  0  0  0
  -17.5025  -31.6263   24.5168 H   0  0  0  0  0  0
  -15.5364  -30.2979   23.7661 H   0  0  0  0  0  0
  -15.8690  -28.0813   22.7073 H   0  0  0  0  0  0
  -24.5889  -30.7105   25.7747 H   0  0  0  0  0  0
  -24.8924  -32.2923   26.4831 H   0  0  0  0  0  0
  -25.8019  -30.8923   27.0216 H   0  0  0  0  0  0
  -26.2968  -29.6706   24.1262 H   0  0  0  0  0  0
  -27.4002  -29.7256   25.4804 H   0  0  0  0  0  0
  -27.8871  -30.4220   23.9545 H   0  0  0  0  0  0
  -27.2652  -33.3628   26.2047 H   0  0  0  0  0  0
  -28.3878  -32.6875   25.0331 H   0  0  0  0  0  0
  -28.0712  -31.8464   26.5431 H   0  0  0  0  0  0
  -28.2612  -38.0083   24.7481 H   0  0  0  0  0  0
  -28.1057  -36.2608   24.6344 H   0  0  0  0  0  0
  -27.2284  -37.1509   25.8871 H   0  0  0  0  0  0
  -20.9432  -29.8779   21.6830 H   0  0  0  0  0  0
  -26.0171  -38.2834   24.1372 H   0  0  0  0  0  0
  -33.2012  -19.3825   21.1642 H   0  0  0  0  0  0
  -32.3113  -17.1190   21.0649 H   0  0  0  0  0  0
  -31.8206  -21.3431   20.8928 H   0  0  0  0  0  0
  -28.4030  -18.7986   20.3116 H   0  0  0  0  0  0
  -27.5930  -24.9065   18.7907 H   0  0  0  0  0  0
  -29.2747  -22.9443   22.1472 H   0  0  0  0  0  0
  -30.6402  -23.1619   21.0191 H   0  0  0  0  0  0
  -28.1652  -15.1809   20.9390 H   0  0  0  0  0  0
  1 25  1  0  0  0
  1 30  2  0  0  0
  1 80  1  0  0  0
  2  3  1  0  0  0
  2 25  1  0  0  0
  2 85  1  0  0  0
  2 86  1  0  0  0
  3  4  1  0  0  0
  3 87  1  0  0  0
  3 88  1  0  0  0
  4  5  1  0  0  0
  4 89  1  0  0  0
  4 90  1  0  0  0
  5  6  1  0  0  0
  5 26  1  0  0  0
  5 91  1  0  0  0
  6 25  1  0  0  0
  6 92  1  0  0  0
  6 93  1  0  0  0
  7  8  2  0  0  0
  7 26  1  0  0  0
  7 29  1  0  0  0
  8  9  1  0  0  0
  8 22  1  0  0  0
  9 10  1  0  0  0
  9 27  2  0  0  0
 10 11  2  0  0  0
 10 15  1  0  0  0
 11 12  1  0  0  0
 11 94  1  0  0  0
 12 13  2  0  0  0
 12 95  1  0  0  0
 13 14  1  0  0  0
 13 31  1  0  0  0
 14 15  2  0  0  0
 14 96  1  0  0  0
 15 97  1  0  0  0
 16 17  2  0  0  0
 16 21  1  0  0  0
 16 31  1  0  0  0
 17 18  1  0  0  0
 17 98  1  0  0  0
 18 19  2  0  0  0
 18 99  1  0  0  0
 19 20  1  0  0  0
 19 24  1  0  0  0
 20 21  2  0  0  0
 20100  1  0  0  0
 21 23  1  0  0  0
 22 28  1  0  0  0
 22 32  2  0  0  0
 26 27  1  0  0  0
 28101  1  0  0  0
 28102  1  0  0  0
 29103  1  0  0  0
 29104  1  0  0  0
 33 34  1  0  0  0
 33 66  1  0  0  0
 33 70  2  0  0  0
 34 36  1  0  0  0
 34 59  1  0  0  0
 34105  1  0  0  0
 35 44  2  0  0  0
 35 45  1  0  0  0
 35 68  1  0  0  0
 36 56  1  0  0  0
 36106  1  0  0  0
 37 39  1  0  0  0
 37 47  1  0  0  0
 37 66  1  0  0  0
 37107  1  0  0  0
 38 43  2  0  0  0
 38 46  1  0  0  0
 38 47  1  0  0  0
 39 64  1  0  0  0
 39 67  2  0  0  0
 40 52  1  0  0  0
 40 53  2  0  0  0
 40 58  1  0  0  0
 41108  1  0  0  0
 41109  1  0  0  0
 41110  1  0  0  0
 41 48  1  0  0  0
 42 43  1  0  0  0
 42 66  1  0  0  0
 42111  1  0  0  0
 42112  1  0  0  0
 43 44  1  0  0  0
 44113  1  0  0  0
 45 46  2  0  0  0
 45114  1  0  0  0
 46115  1  0  0  0
 47116  1  0  0  0
 47117  1  0  0  0
 48 56  1  0  0  0
 48 65  1  0  0  0
 48118  1  0  0  0
 49 50  1  0  0  0
 49 53  1  0  0  0
 49 64  1  0  0  0
 49119  1  0  0  0
 50 51  1  0  0  0
 50120  1  0  0  0
 50121  1  0  0  0
 51 52  1  0  0  0
 51122  1  0  0  0
 51123  1  0  0  0
 52124  1  0  0  0
 52125  1  0  0  0
 53 54  1  0  0  0
 54 55  2  0  0  0
 54126  1  0  0  0
 55 57  1  0  0  0
 55127  1  0  0  0
 56 69  2  0  0  0
 57 58  2  0  0  0
 57128  1  0  0  0
 58129  1  0  0  0
 59 60  1  0  0  0
 59 61  1  0  0  0
 59 62  1  0  0  0
 60130  1  0  0  0
 60131  1  0  0  0
 60132  1  0  0  0
 61133  1  0  0  0
 61134  1  0  0  0
 61135  1  0  0  0
 62136  1  0  0  0
 62137  1  0  0  0
 62138  1  0  0  0
 63 65  1  0  0  0
 63139  1  0  0  0
 63140  1  0  0  0
 63141  1  0  0  0
 64142  1  0  0  0
 65143  1  0  0  0
 68 79  1  0  0  0
 71 72  2  0  0  0
 71 73  1  0  0  0
 71144  1  0  0  0
 72 75  1  0  0  0
 72145  1  0  0  0
 73 76  2  0  0  0
 73146  1  0  0  0
 74 75  2  0  0  0
 74 76  1  0  0  0
 74147  1  0  0  0
 75 80  1  0  0  0
 76 83  1  0  0  0
 77 78  1  0  0  0
 77 79  2  0  0  0
 77 81  1  0  0  0
 78 83  1  0  0  0
 78 84  2  0  0  0
 79148  1  0  0  0
 80 82  2  0  0  0
 81 83  1  0  0  0
 81149  1  0  0  0
 81150  1  0  0  0
 82151  1  0  0  0
M  ISO  4   1 100  68 101  79 101  80 100
M  END
> <chiral flag>
0

> <version>
0

> <s_m_source_file>
/data/baiqing/PycharmProjects/Reinvent-master-3.2/result/LINK_invent/BTK/process_docking_weight1_custom_product_contain_oxygen_bond_distance_aromatic_linkinvent_7_9_3/rearranged_h_0080.sdf

> <i_m_source_file_index>
50

> <r_mmod_Potential_Energy-OPLS-2005>
493.995880126953

> <r_mmod_Stretch_Energy-OPLS-2005>
180.474960327148

> <r_mmod_Bend_Energy-OPLS-2005>
275.950042724609

> <r_mmod_Torsional_Energy-OPLS-2005>
206.027923583984

> <r_mmod_Improper_Torsional_Energy-OPLS-2005>
7.1858549118042

> <r_mmod_Van_der_Waal_Energy-OPLS-2005>
152.413803100586

> <r_mmod_Electrostatic_Energy-OPLS-2005>
-245.902709960938

> <r_mmod_Solvation_Energy-OPLS-2005>
-207.888626098633

> <b_mmod_Minimization_Converged-OPLS-2005>
0

> <r_mmod_RMS_Derivative-OPLS-2005>
1.14839720726013

$$$$
50
                    3D
 Structure written by MMmdl.
151159  0  0  1  0            999 V2000
  -30.6260  -14.8582   20.4355 C   0  0  0  0  0  0
  -30.4260  -12.5121   19.5300 C   0  0  0  0  0  0
  -29.5306  -12.4991   18.2730 C   0  0  0  0  0  0
  -28.0494  -12.3300   18.6611 C   0  0  0  0  0  0
  -27.6306  -13.2565   19.8351 C   0  0  2  0  0  0
  -28.6674  -13.2821   20.9761 C   0  0  0  0  0  0
  -25.2451  -13.8212   20.5726 C   0  0  0  0  0  0
  -24.1780  -13.0410   20.9230 C   0  0  0  0  0  0
  -24.6403  -11.6902   20.8715 C   0  0  0  0  0  0
  -23.9077  -10.4268   21.0391 C   0  0  0  0  0  0
  -24.3619   -9.4161   21.9160 C   0  0  0  0  0  0
  -23.6286   -8.2198   22.0713 C   0  0  0  0  0  0
  -22.4252   -8.0263   21.3536 C   0  0  0  0  0  0
  -21.9875   -9.0248   20.4667 C   0  0  0  0  0  0
  -22.7205  -10.2119   20.3090 C   0  0  0  0  0  0
  -21.6831   -6.0738   22.5288 C   0  0  0  0  0  0
  -21.4001   -6.5638   23.8230 C   0  0  0  0  0  0
  -21.3644   -5.6801   24.9195 C   0  0  0  0  0  0
  -21.6026   -4.3061   24.7250 C   0  0  0  0  0  0
  -21.8806   -3.8150   23.4370 C   0  0  0  0  0  0
  -21.9183   -4.6972   22.3421 C   0  0  0  0  0  0
  -22.7799  -13.5179   21.1885 C   0  0  0  0  0  0
  -22.1652   -4.2150   21.1009 F   0  0  0  0  0  0
  -21.5616   -3.4544   25.7757 F   0  0  0  0  0  0
  -29.9718  -13.6312   20.4022 N   0  0  0  0  0  0
  -26.2889  -12.9477   20.3218 N   0  0  0  0  0  0
  -25.9345  -11.6578   20.5698 N   0  0  0  0  0  0
  -22.0436  -12.8206   22.0459 N   0  0  0  0  0  0
  -25.4115  -15.1954   20.4232 N   0  0  0  0  0  0
  -31.8238  -14.8168   20.1480 O   0  0  0  0  0  0
  -21.6593   -6.8866   21.4244 O   0  0  0  0  0  0
  -22.3483  -14.5509   20.6762 O   0  0  0  0  0  0
  -24.6348  -31.8515   23.1917 C   0  0  0  0  0  0
  -25.9122  -32.4764   23.8306 C   0  0  1  0  0  0
  -27.2359  -27.2070   20.1545 C   0  0  0  0  0  0
  -25.5885  -33.8566   24.2217 N   0  0  0  0  0  0
  -23.4403  -30.4669   21.5393 C   0  0  2  0  0  0
  -24.9016  -28.9105   20.1132 C   0  0  0  0  0  0
  -22.7549  -29.4557   22.4925 C   0  0  0  0  0  0
  -18.0290  -28.1432   22.8482 C   0  0  0  0  0  0
  -24.1490  -36.7270   23.2636 C   0  0  0  0  0  0
  -25.9914  -30.7556   21.3786 C   0  0  0  0  0  0
  -26.0768  -29.3706   20.7238 C   0  0  0  0  0  0
  -27.2505  -28.5341   20.7292 C   0  0  0  0  0  0
  -26.0444  -26.8414   19.4935 C   0  0  0  0  0  0
  -24.8955  -27.6579   19.4811 C   0  0  0  0  0  0
  -23.6667  -29.7950   20.1590 C   0  0  0  0  0  0
  -25.4121  -36.3086   24.0316 C   0  0  1  0  0  0
  -20.5903  -28.3721   23.1289 C   0  0  2  0  0  0
  -20.6789  -26.9437   22.5429 C   0  0  0  0  0  0
  -19.5762  -26.6401   21.5242 C   0  0  0  0  0  0
  -18.1931  -26.7965   22.1639 C   0  0  0  0  0  0
  -19.1551  -28.8893   23.2874 C   0  0  0  0  0  0
  -18.9464  -30.1492   23.8898 C   0  0  0  0  0  0
  -17.6461  -30.6621   24.0567 C   0  0  0  0  0  0
  -25.9056  -34.9456   23.5078 C   0  0  0  0  0  0
  -16.5346  -29.9114   23.6349 C   0  0  0  0  0  0
  -16.7271  -28.6544   23.0354 C   0  0  0  0  0  0
  -26.4478  -31.6612   25.0713 C   0  0  0  0  0  0
  -25.3670  -31.3753   26.1405 C   0  0  0  0  0  0
  -27.0309  -30.3023   24.6199 C   0  0  0  0  0  0
  -27.6048  -32.4336   25.7475 C   0  0  0  0  0  0
  -27.5591  -37.1778   24.8470 C   0  0  0  0  0  0
  -21.4246  -29.3040   22.3667 N   0  0  0  0  0  0
  -26.4300  -37.3775   23.9415 N   0  0  0  0  0  0
  -24.7092  -31.0400   22.0943 N   0  0  0  0  0  0
  -23.4220  -28.8099   23.3056 O   0  0  0  0  0  0
  -28.2439  -26.1931   20.2379 O   0  0  0  0  0  0
  -26.5660  -34.8932   22.4661 O   0  0  0  0  0  0
  -23.5471  -32.1354   23.7158 O   0  0  0  0  0  0
  -32.3022  -19.7077   20.0829 C   0  0  0  0  0  0
  -32.3866  -18.5014   19.5082 C   0  0  0  0  0  0
  -31.2184  -20.3934   20.4821 C   0  0  0  0  0  0
  -31.4967  -17.4966   19.4386 C   0  0  0  0  0  0
  -29.4910  -18.7143   20.5561 C   0  0  0  0  0  0
  -29.9045  -20.0722   20.5149 C   0  0  0  0  0  0
  -30.2737  -17.3507   20.2747 C   0  0  0  0  0  0
  -27.8573  -24.9815   20.9228 C   0  0  0  0  0  0
  -28.1475  -23.5957   21.0141 C   0  0  0  0  0  0
  -29.1401  -22.6297   20.3668 C   0  0  0  0  0  0
  -29.8736  -16.1105   20.6514 N   0  0  0  0  0  0
  -28.9835  -21.2386   20.6433 N   0  0  0  0  0  0
  -30.0678  -23.0344   19.6636 O   0  0  0  0  0  0
  -27.3808  -22.9929   21.9388 O   0  0  0  0  0  0
  -31.4737  -12.5951   19.2365 H   0  0  0  0  0  0
  -30.3457  -11.5672   20.0691 H   0  0  0  0  0  0
  -29.8351  -11.6905   17.6079 H   0  0  0  0  0  0
  -29.6686  -13.4254   17.7133 H   0  0  0  0  0  0
  -27.8958  -11.2852   18.9359 H   0  0  0  0  0  0
  -27.4133  -12.5070   17.7934 H   0  0  0  0  0  0
  -27.5991  -14.2640   19.4186 H   0  0  0  0  0  0
  -28.7142  -12.3133   21.4771 H   0  0  0  0  0  0
  -28.3766  -14.0087   21.7367 H   0  0  0  0  0  0
  -25.2771   -9.5604   22.4738 H   0  0  0  0  0  0
  -23.9979   -7.4563   22.7417 H   0  0  0  0  0  0
  -21.0762   -8.8790   19.9037 H   0  0  0  0  0  0
  -22.3614  -10.9680   19.6253 H   0  0  0  0  0  0
  -21.1992   -7.6155   23.9744 H   0  0  0  0  0  0
  -21.1472   -6.0530   25.9094 H   0  0  0  0  0  0
  -22.0601   -2.7613   23.2888 H   0  0  0  0  0  0
  -22.3986  -11.9862   22.4901 H   0  0  0  0  0  0
  -21.1079  -13.1295   22.2657 H   0  0  0  0  0  0
  -24.6480  -15.8511   20.5522 H   0  0  0  0  0  0
  -26.2808  -15.6380   20.1508 H   0  0  0  0  0  0
  -26.7188  -32.5452   23.1057 H   0  0  0  0  0  0
  -24.9966  -33.9702   25.0320 H   0  0  0  0  0  0
  -22.7393  -31.2903   21.3870 H   0  0  0  0  0  0
  -23.3777  -35.9583   23.3310 H   0  0  0  0  0  0
  -24.3576  -36.8883   22.2052 H   0  0  0  0  0  0
  -23.7218  -37.6443   23.6672 H   0  0  0  0  0  0
  -26.1307  -31.5177   20.6094 H   0  0  0  0  0  0
  -26.8625  -30.8171   22.0165 H   0  0  0  0  0  0
  -28.1442  -28.8803   21.2299 H   0  0  0  0  0  0
  -25.9856  -25.8710   19.0208 H   0  0  0  0  0  0
  -23.9981  -27.3037   18.9945 H   0  0  0  0  0  0
  -23.7869  -30.5711   19.4036 H   0  0  0  0  0  0
  -22.7885  -29.2235   19.8526 H   0  0  0  0  0  0
  -25.1319  -36.1922   25.0807 H   0  0  0  0  0  0
  -20.9990  -28.3311   24.1419 H   0  0  0  0  0  0
  -20.5751  -26.2306   23.3623 H   0  0  0  0  0  0
  -21.6642  -26.7487   22.1186 H   0  0  0  0  0  0
  -19.6920  -25.6314   21.1276 H   0  0  0  0  0  0
  -19.6718  -27.3219   20.6785 H   0  0  0  0  0  0
  -17.4198  -26.6700   21.4048 H   0  0  0  0  0  0
  -18.0323  -26.0137   22.9066 H   0  0  0  0  0  0
  -19.7931  -30.7317   24.2278 H   0  0  0  0  0  0
  -17.5001  -31.6316   24.5157 H   0  0  0  0  0  0
  -15.5350  -30.3011   23.7694 H   0  0  0  0  0  0
  -15.8661  -28.0868   22.7068 H   0  0  0  0  0  0
  -24.5878  -30.7080   25.7694 H   0  0  0  0  0  0
  -24.8814  -32.2917   26.4779 H   0  0  0  0  0  0
  -25.7948  -30.8949   27.0215 H   0  0  0  0  0  0
  -26.2892  -29.6789   24.1177 H   0  0  0  0  0  0
  -27.3938  -29.7267   25.4728 H   0  0  0  0  0  0
  -27.8812  -30.4286   23.9483 H   0  0  0  0  0  0
  -27.2686  -33.3661   26.2011 H   0  0  0  0  0  0
  -28.3863  -32.6821   25.0289 H   0  0  0  0  0  0
  -28.0703  -31.8469   26.5398 H   0  0  0  0  0  0
  -28.2599  -38.0084   24.7531 H   0  0  0  0  0  0
  -28.1082  -36.2602   24.6290 H   0  0  0  0  0  0
  -27.2299  -37.1435   25.8868 H   0  0  0  0  0  0
  -20.9463  -29.8667   21.6768 H   0  0  0  0  0  0
  -26.0184  -38.2844   24.1424 H   0  0  0  0  0  0
  -33.2449  -20.2246   20.2071 H   0  0  0  0  0  0
  -33.3311  -18.2990   19.0176 H   0  0  0  0  0  0
  -31.4719  -21.3344   20.9530 H   0  0  0  0  0  0
  -31.6893  -16.7529   18.6808 H   0  0  0  0  0  0
  -28.4390  -18.5673   20.7474 H   0  0  0  0  0  0
  -27.0784  -25.2858   21.6097 H   0  0  0  0  0  0
  -28.0772  -20.9962   21.0152 H   0  0  0  0  0  0
  -27.8069  -22.1813   22.1844 H   0  0  0  0  0  0
  1 25  1  0  0  0
  1 30  2  0  0  0
  1 81  1  0  0  0
  2  3  1  0  0  0
  2 25  1  0  0  0
  2 85  1  0  0  0
  2 86  1  0  0  0
  3  4  1  0  0  0
  3 87  1  0  0  0
  3 88  1  0  0  0
  4  5  1  0  0  0
  4 89  1  0  0  0
  4 90  1  0  0  0
  5  6  1  0  0  0
  5 26  1  0  0  0
  5 91  1  0  0  0
  6 25  1  0  0  0
  6 92  1  0  0  0
  6 93  1  0  0  0
  7  8  2  0  0  0
  7 26  1  0  0  0
  7 29  1  0  0  0
  8  9  1  0  0  0
  8 22  1  0  0  0
  9 10  1  0  0  0
  9 27  2  0  0  0
 10 11  2  0  0  0
 10 15  1  0  0  0
 11 12  1  0  0  0
 11 94  1  0  0  0
 12 13  2  0  0  0
 12 95  1  0  0  0
 13 14  1  0  0  0
 13 31  1  0  0  0
 14 15  2  0  0  0
 14 96  1  0  0  0
 15 97  1  0  0  0
 16 17  2  0  0  0
 16 21  1  0  0  0
 16 31  1  0  0  0
 17 18  1  0  0  0
 17 98  1  0  0  0
 18 19  2  0  0  0
 18 99  1  0  0  0
 19 20  1  0  0  0
 19 24  1  0  0  0
 20 21  2  0  0  0
 20100  1  0  0  0
 21 23  1  0  0  0
 22 28  1  0  0  0
 22 32  2  0  0  0
 26 27  1  0  0  0
 28101  1  0  0  0
 28102  1  0  0  0
 29103  1  0  0  0
 29104  1  0  0  0
 33 34  1  0  0  0
 33 66  1  0  0  0
 33 70  2  0  0  0
 34 36  1  0  0  0
 34 59  1  0  0  0
 34105  1  0  0  0
 35 44  2  0  0  0
 35 45  1  0  0  0
 35 68  1  0  0  0
 36 56  1  0  0  0
 36106  1  0  0  0
 37 39  1  0  0  0
 37 47  1  0  0  0
 37 66  1  0  0  0
 37107  1  0  0  0
 38 43  2  0  0  0
 38 46  1  0  0  0
 38 47  1  0  0  0
 39 64  1  0  0  0
 39 67  2  0  0  0
 40 52  1  0  0  0
 40 53  2  0  0  0
 40 58  1  0  0  0
 41108  1  0  0  0
 41109  1  0  0  0
 41110  1  0  0  0
 41 48  1  0  0  0
 42 43  1  0  0  0
 42 66  1  0  0  0
 42111  1  0  0  0
 42112  1  0  0  0
 43 44  1  0  0  0
 44113  1  0  0  0
 45 46  2  0  0  0
 45114  1  0  0  0
 46115  1  0  0  0
 47116  1  0  0  0
 47117  1  0  0  0
 48 56  1  0  0  0
 48 65  1  0  0  0
 48118  1  0  0  0
 49 50  1  0  0  0
 49 53  1  0  0  0
 49 64  1  0  0  0
 49119  1  0  0  0
 50 51  1  0  0  0
 50120  1  0  0  0
 50121  1  0  0  0
 51 52  1  0  0  0
 51122  1  0  0  0
 51123  1  0  0  0
 52124  1  0  0  0
 52125  1  0  0  0
 53 54  1  0  0  0
 54 55  2  0  0  0
 54126  1  0  0  0
 55 57  1  0  0  0
 55127  1  0  0  0
 56 69  2  0  0  0
 57 58  2  0  0  0
 57128  1  0  0  0
 58129  1  0  0  0
 59 60  1  0  0  0
 59 61  1  0  0  0
 59 62  1  0  0  0
 60130  1  0  0  0
 60131  1  0  0  0
 60132  1  0  0  0
 61133  1  0  0  0
 61134  1  0  0  0
 61135  1  0  0  0
 62136  1  0  0  0
 62137  1  0  0  0
 62138  1  0  0  0
 63 65  1  0  0  0
 63139  1  0  0  0
 63140  1  0  0  0
 63141  1  0  0  0
 64142  1  0  0  0
 65143  1  0  0  0
 68 78  1  0  0  0
 71 72  1  0  0  0
 71 73  2  0  0  0
 71144  1  0  0  0
 72 74  2  0  0  0
 72145  1  0  0  0
 73 76  1  0  0  0
 73146  1  0  0  0
 74 77  1  0  0  0
 74147  1  0  0  0
 75 76  2  0  0  0
 75 77  1  0  0  0
 75148  1  0  0  0
 76 82  1  0  0  0
 77 81  2  0  0  0
 78 79  2  0  0  0
 78149  1  0  0  0
 79 80  1  0  0  0
 79 84  1  0  0  0
 80 82  1  0  0  0
 80 83  2  0  0  0
 82150  1  0  0  0
 84151  1  0  0  0
M  ISO  4   1 100  68 101  78 101  81 100
M  END
> <chiral flag>
0

> <version>
0

> <s_m_source_file>
/data/baiqing/PycharmProjects/Reinvent-master-3.2/result/LINK_invent/BTK/process_docking_weight1_custom_product_contain_oxygen_bond_distance_aromatic_linkinvent_7_9_3/rearranged_h_0080.sdf

> <i_m_source_file_index>
51

> <r_mmod_Potential_Energy-OPLS-2005>
416.272430419922

> <r_mmod_Stretch_Energy-OPLS-2005>
210.543685913086

> <r_mmod_Bend_Energy-OPLS-2005>
280.402648925781

> <r_mmod_Torsional_Energy-OPLS-2005>
164.696380615234

> <r_mmod_Improper_Torsional_Energy-OPLS-2005>
4.25425720214844

> <r_mmod_Van_der_Waal_Energy-OPLS-2005>
158.79362487793

> <r_mmod_Electrostatic_Energy-OPLS-2005>
-324.710510253906

> <r_mmod_Solvation_Energy-OPLS-2005>
-221.194030761719

> <b_mmod_Minimization_Converged-OPLS-2005>
0

> <r_mmod_RMS_Derivative-OPLS-2005>
4.46852016448975

$$$$
51
                    3D
 Structure written by MMmdl.
156165  0  0  1  0            999 V2000
  -30.5958  -14.6626   20.4941 C   0  0  0  0  0  0
  -30.4451  -12.4016   19.4622 C   0  0  0  0  0  0
  -29.5174  -12.5066   18.2291 C   0  0  0  0  0  0
  -28.0372  -12.3455   18.6350 C   0  0  0  0  0  0
  -27.6534  -13.2149   19.8621 C   0  0  2  0  0  0
  -28.6954  -13.0708   20.9951 C   0  0  0  0  0  0
  -25.2557  -13.8156   20.5661 C   0  0  0  0  0  0
  -24.1822  -13.0427   20.9174 C   0  0  0  0  0  0
  -24.6391  -11.6899   20.8727 C   0  0  0  0  0  0
  -23.9058  -10.4287   21.0400 C   0  0  0  0  0  0
  -24.3605   -9.4201   21.9178 C   0  0  0  0  0  0
  -23.6276   -8.2243   22.0761 C   0  0  0  0  0  0
  -22.4262   -8.0283   21.3549 C   0  0  0  0  0  0
  -21.9893   -9.0257   20.4655 C   0  0  0  0  0  0
  -22.7228  -10.2130   20.3059 C   0  0  0  0  0  0
  -21.6855   -6.0730   22.5277 C   0  0  0  0  0  0
  -21.4021   -6.5636   23.8208 C   0  0  0  0  0  0
  -21.3653   -5.6788   24.9167 C   0  0  0  0  0  0
  -21.6041   -4.3052   24.7219 C   0  0  0  0  0  0
  -21.8818   -3.8144   23.4343 C   0  0  0  0  0  0
  -21.9190   -4.6958   22.3398 C   0  0  0  0  0  0
  -22.7846  -13.5230   21.1833 C   0  0  0  0  0  0
  -22.1658   -4.2146   21.0974 F   0  0  0  0  0  0
  -21.5622   -3.4535   25.7729 F   0  0  0  0  0  0
  -30.0101  -13.4236   20.4364 N   0  0  0  0  0  0
  -26.2982  -12.9334   20.3285 N   0  0  0  0  0  0
  -25.9317  -11.6494   20.5725 N   0  0  0  0  0  0
  -22.0484  -12.8249   22.0403 N   0  0  0  0  0  0
  -25.4248  -15.1881   20.4064 N   0  0  0  0  0  0
  -31.7581  -14.8376   20.1158 O   0  0  0  0  0  0
  -21.6638   -6.8874   21.4241 O   0  0  0  0  0  0
  -22.3534  -14.5529   20.6669 O   0  0  0  0  0  0
  -24.6255  -31.8591   23.2023 C   0  0  0  0  0  0
  -25.9105  -32.4771   23.8353 C   0  0  1  0  0  0
  -27.2307  -27.3262   20.1244 C   0  0  0  0  0  0
  -25.5915  -33.8574   24.2284 N   0  0  0  0  0  0
  -23.4204  -30.4795   21.5439 C   0  0  2  0  0  0
  -24.8697  -28.9285   20.1177 C   0  0  0  0  0  0
  -22.7471  -29.4613   22.4939 C   0  0  0  0  0  0
  -18.0281  -28.1378   22.8484 C   0  0  0  0  0  0
  -24.1488  -36.7300   23.2646 C   0  0  0  0  0  0
  -25.9604  -30.7903   21.3751 C   0  0  0  0  0  0
  -26.0365  -29.4159   20.7217 C   0  0  0  0  0  0
  -27.2227  -28.6255   20.7149 C   0  0  0  0  0  0
  -26.0446  -26.8807   19.5059 C   0  0  0  0  0  0
  -24.8739  -27.6644   19.5025 C   0  0  0  0  0  0
  -23.6375  -29.8088   20.1615 C   0  0  0  0  0  0
  -25.4113  -36.3081   24.0329 C   0  0  1  0  0  0
  -20.5880  -28.3683   23.1283 C   0  0  2  0  0  0
  -20.6768  -26.9406   22.5412 C   0  0  0  0  0  0
  -19.5744  -26.6380   21.5209 C   0  0  0  0  0  0
  -18.1922  -26.7922   22.1620 C   0  0  0  0  0  0
  -19.1535  -28.8847   23.2874 C   0  0  0  0  0  0
  -18.9461  -30.1450   23.8890 C   0  0  0  0  0  0
  -17.6462  -30.6579   24.0560 C   0  0  0  0  0  0
  -25.9046  -34.9447   23.5106 C   0  0  0  0  0  0
  -16.5350  -29.9081   23.6329 C   0  0  0  0  0  0
  -16.7269  -28.6496   23.0351 C   0  0  0  0  0  0
  -26.4503  -31.6590   25.0728 C   0  0  0  0  0  0
  -25.3744  -31.3722   26.1463 C   0  0  0  0  0  0
  -27.0372  -30.3019   24.6200 C   0  0  0  0  0  0
  -27.6061  -32.4339   25.7482 C   0  0  0  0  0  0
  -27.5567  -37.1813   24.8467 C   0  0  0  0  0  0
  -21.4186  -29.3038   22.3685 N   0  0  0  0  0  0
  -26.4296  -37.3772   23.9387 N   0  0  0  0  0  0
  -24.6873  -31.0600   22.0971 N   0  0  0  0  0  0
  -23.4198  -28.8155   23.3022 O   0  0  0  0  0  0
  -28.3543  -26.4911   20.1044 O   0  0  0  0  0  0
  -26.5615  -34.8913   22.4676 O   0  0  0  0  0  0
  -23.5415  -32.1390   23.7342 O   0  0  0  0  0  0
  -28.4861  -19.2996   20.5786 C   0  0  0  0  0  0
  -28.5792  -17.8948   20.8239 C   0  0  0  0  0  0
  -30.8926  -17.9114   20.1946 C   0  0  0  0  0  0
  -29.5999  -20.0631   20.1375 C   0  0  0  0  0  0
  -29.7744  -17.1476   20.6185 C   0  0  0  0  0  0
  -30.8063  -19.3187   19.9609 C   0  0  0  0  0  0
  -27.7599  -24.9360   21.8027 C   0  0  0  0  0  0
  -28.2804  -25.1610   20.5810 C   0  0  0  0  0  0
  -28.9013  -24.0192   19.8358 C   0  0  0  0  0  0
  -27.7304  -23.5900   22.4935 C   0  0  0  0  0  0
  -28.0357  -22.4056   21.5553 C   0  0  0  0  0  0
  -29.5276  -21.5774   19.6634 C   0  0  0  0  0  0
  -28.8389  -22.7347   20.3700 N   0  0  0  0  0  0
  -29.7574  -15.6949   20.8446 N   0  0  0  0  0  0
  -29.4841  -24.2121   18.7638 O   0  0  0  0  0  0
  -31.9157  -19.9558   19.5148 F   0  0  0  0  0  0
  -31.4875  -12.5336   19.1668 H   0  0  0  0  0  0
  -30.3842  -11.4071   19.9065 H   0  0  0  0  0  0
  -29.7851  -11.7499   17.4900 H   0  0  0  0  0  0
  -29.6625  -13.4722   17.7420 H   0  0  0  0  0  0
  -27.8696  -11.2925   18.8638 H   0  0  0  0  0  0
  -27.3880  -12.5798   17.7905 H   0  0  0  0  0  0
  -27.6699  -14.2492   19.5193 H   0  0  0  0  0  0
  -28.7099  -12.0478   21.3733 H   0  0  0  0  0  0
  -28.4355  -13.6973   21.8503 H   0  0  0  0  0  0
  -25.2753   -9.5668   22.4746 H   0  0  0  0  0  0
  -23.9979   -7.4634   22.7485 H   0  0  0  0  0  0
  -21.0818   -8.8783   19.8967 H   0  0  0  0  0  0
  -22.3689  -10.9668   19.6171 H   0  0  0  0  0  0
  -21.2032   -7.6148   23.9711 H   0  0  0  0  0  0
  -21.1472   -6.0519   25.9066 H   0  0  0  0  0  0
  -22.0603   -2.7609   23.2843 H   0  0  0  0  0  0
  -22.4095  -11.9925   22.4822 H   0  0  0  0  0  0
  -21.1111  -13.1311   22.2604 H   0  0  0  0  0  0
  -24.6456  -15.8316   20.4932 H   0  0  0  0  0  0
  -26.2542  -15.6236   20.0251 H   0  0  0  0  0  0
  -26.7167  -32.5446   23.1095 H   0  0  0  0  0  0
  -25.0041  -33.9723   25.0411 H   0  0  0  0  0  0
  -22.7131  -31.2981   21.3963 H   0  0  0  0  0  0
  -23.3731  -35.9659   23.3354 H   0  0  0  0  0  0
  -24.3553  -36.8884   22.2051 H   0  0  0  0  0  0
  -23.7282  -37.6530   23.6648 H   0  0  0  0  0  0
  -26.0914  -31.5524   20.6053 H   0  0  0  0  0  0
  -26.8400  -30.8397   22.0061 H   0  0  0  0  0  0
  -28.1238  -28.9960   21.1833 H   0  0  0  0  0  0
  -26.0242  -25.9099   19.0304 H   0  0  0  0  0  0
  -23.9791  -27.2863   19.0270 H   0  0  0  0  0  0
  -23.7572  -30.5820   19.4022 H   0  0  0  0  0  0
  -22.7595  -29.2361   19.8591 H   0  0  0  0  0  0
  -25.1302  -36.1939   25.0826 H   0  0  0  0  0  0
  -20.9960  -28.3259   24.1408 H   0  0  0  0  0  0
  -20.5661  -26.2289   23.3610 H   0  0  0  0  0  0
  -21.6634  -26.7424   22.1205 H   0  0  0  0  0  0
  -19.6905  -25.6294   21.1228 H   0  0  0  0  0  0
  -19.6683  -27.3195   20.6742 H   0  0  0  0  0  0
  -17.4192  -26.6667   21.4025 H   0  0  0  0  0  0
  -18.0321  -26.0059   22.9012 H   0  0  0  0  0  0
  -19.7938  -30.7263   24.2258 H   0  0  0  0  0  0
  -17.5018  -31.6255   24.5166 H   0  0  0  0  0  0
  -15.5351  -30.2981   23.7660 H   0  0  0  0  0  0
  -15.8663  -28.0813   22.7078 H   0  0  0  0  0  0
  -24.5895  -30.7109   25.7782 H   0  0  0  0  0  0
  -24.8962  -32.2886   26.4932 H   0  0  0  0  0  0
  -25.8063  -30.8851   27.0214 H   0  0  0  0  0  0
  -26.2978  -29.6752   24.1206 H   0  0  0  0  0  0
  -27.4061  -29.7292   25.4720 H   0  0  0  0  0  0
  -27.8840  -30.4317   23.9455 H   0  0  0  0  0  0
  -27.2671  -33.3636   26.2063 H   0  0  0  0  0  0
  -28.3848  -32.6920   25.0294 H   0  0  0  0  0  0
  -28.0761  -31.8467   26.5381 H   0  0  0  0  0  0
  -28.2623  -38.0070   24.7445 H   0  0  0  0  0  0
  -28.1021  -36.2593   24.6382 H   0  0  0  0  0  0
  -27.2260  -37.1573   25.8867 H   0  0  0  0  0  0
  -20.9371  -29.8757   21.6889 H   0  0  0  0  0  0
  -26.0178  -38.2859   24.1355 H   0  0  0  0  0  0
  -27.5255  -19.7780   20.7003 H   0  0  0  0  0  0
  -27.6857  -17.3810   21.1513 H   0  0  0  0  0  0
  -31.8408  -17.4257   20.0199 H   0  0  0  0  0  0
  -27.3778  -25.7663   22.3794 H   0  0  0  0  0  0
  -26.7597  -23.4485   22.9694 H   0  0  0  0  0  0
  -28.4648  -23.6227   23.2994 H   0  0  0  0  0  0
  -27.0908  -21.9974   21.1944 H   0  0  0  0  0  0
  -28.5169  -21.6182   22.1356 H   0  0  0  0  0  0
  -29.0972  -21.5333   18.6621 H   0  0  0  0  0  0
  -30.5550  -21.9059   19.5039 H   0  0  0  0  0  0
  -28.8720  -15.3478   21.1778 H   0  0  0  0  0  0
  1 25  1  0  0  0
  1 30  2  0  0  0
  1 84  1  0  0  0
  2  3  1  0  0  0
  2 25  1  0  0  0
  2 87  1  0  0  0
  2 88  1  0  0  0
  3  4  1  0  0  0
  3 89  1  0  0  0
  3 90  1  0  0  0
  4  5  1  0  0  0
  4 91  1  0  0  0
  4 92  1  0  0  0
  5  6  1  0  0  0
  5 26  1  0  0  0
  5 93  1  0  0  0
  6 25  1  0  0  0
  6 94  1  0  0  0
  6 95  1  0  0  0
  7  8  2  0  0  0
  7 26  1  0  0  0
  7 29  1  0  0  0
  8  9  1  0  0  0
  8 22  1  0  0  0
  9 10  1  0  0  0
  9 27  2  0  0  0
 10 11  2  0  0  0
 10 15  1  0  0  0
 11 12  1  0  0  0
 11 96  1  0  0  0
 12 13  2  0  0  0
 12 97  1  0  0  0
 13 14  1  0  0  0
 13 31  1  0  0  0
 14 15  2  0  0  0
 14 98  1  0  0  0
 15 99  1  0  0  0
 16 17  2  0  0  0
 16 21  1  0  0  0
 16 31  1  0  0  0
 17 18  1  0  0  0
 17100  1  0  0  0
 18 19  2  0  0  0
 18101  1  0  0  0
 19 20  1  0  0  0
 19 24  1  0  0  0
 20 21  2  0  0  0
 20102  1  0  0  0
 21 23  1  0  0  0
 22 28  1  0  0  0
 22 32  2  0  0  0
 26 27  1  0  0  0
 28103  1  0  0  0
 28104  1  0  0  0
 29105  1  0  0  0
 29106  1  0  0  0
 33 34  1  0  0  0
 33 66  1  0  0  0
 33 70  2  0  0  0
 34 36  1  0  0  0
 34 59  1  0  0  0
 34107  1  0  0  0
 35 44  2  0  0  0
 35 45  1  0  0  0
 35 68  1  0  0  0
 36 56  1  0  0  0
 36108  1  0  0  0
 37 39  1  0  0  0
 37 47  1  0  0  0
 37 66  1  0  0  0
 37109  1  0  0  0
 38 43  2  0  0  0
 38 46  1  0  0  0
 38 47  1  0  0  0
 39 64  1  0  0  0
 39 67  2  0  0  0
 40 52  1  0  0  0
 40 53  2  0  0  0
 40 58  1  0  0  0
 41110  1  0  0  0
 41111  1  0  0  0
 41112  1  0  0  0
 41 48  1  0  0  0
 42 43  1  0  0  0
 42 66  1  0  0  0
 42113  1  0  0  0
 42114  1  0  0  0
 43 44  1  0  0  0
 44115  1  0  0  0
 45 46  2  0  0  0
 45116  1  0  0  0
 46117  1  0  0  0
 47118  1  0  0  0
 47119  1  0  0  0
 48 56  1  0  0  0
 48 65  1  0  0  0
 48120  1  0  0  0
 49 50  1  0  0  0
 49 53  1  0  0  0
 49 64  1  0  0  0
 49121  1  0  0  0
 50 51  1  0  0  0
 50122  1  0  0  0
 50123  1  0  0  0
 51 52  1  0  0  0
 51124  1  0  0  0
 51125  1  0  0  0
 52126  1  0  0  0
 52127  1  0  0  0
 53 54  1  0  0  0
 54 55  2  0  0  0
 54128  1  0  0  0
 55 57  1  0  0  0
 55129  1  0  0  0
 56 69  2  0  0  0
 57 58  2  0  0  0
 57130  1  0  0  0
 58131  1  0  0  0
 59 60  1  0  0  0
 59 61  1  0  0  0
 59 62  1  0  0  0
 60132  1  0  0  0
 60133  1  0  0  0
 60134  1  0  0  0
 61135  1  0  0  0
 61136  1  0  0  0
 61137  1  0  0  0
 62138  1  0  0  0
 62139  1  0  0  0
 62140  1  0  0  0
 63 65  1  0  0  0
 63141  1  0  0  0
 63142  1  0  0  0
 63143  1  0  0  0
 64144  1  0  0  0
 65145  1  0  0  0
 68 78  1  0  0  0
 71 72  2  0  0  0
 71 74  1  0  0  0
 71146  1  0  0  0
 72 75  1  0  0  0
 72147  1  0  0  0
 73 75  2  0  0  0
 73 76  1  0  0  0
 73148  1  0  0  0
 74 76  2  0  0  0
 74 82  1  0  0  0
 75 84  1  0  0  0
 76 86  1  0  0  0
 77 78  2  0  0  0
 77 80  1  0  0  0
 77149  1  0  0  0
 78 79  1  0  0  0
 79 83  1  0  0  0
 79 85  2  0  0  0
 80 81  1  0  0  0
 80150  1  0  0  0
 80151  1  0  0  0
 81 83  1  0  0  0
 81152  1  0  0  0
 81153  1  0  0  0
 82 83  1  0  0  0
 82154  1  0  0  0
 82155  1  0  0  0
 84156  1  0  0  0
M  ISO  4   1 100  68 101  78 101  84 100
M  END
> <chiral flag>
0

> <version>
0

> <s_m_source_file>
/data/baiqing/PycharmProjects/Reinvent-master-3.2/result/LINK_invent/BTK/process_docking_weight1_custom_product_contain_oxygen_bond_distance_aromatic_linkinvent_7_9_3/rearranged_h_0080.sdf

> <i_m_source_file_index>
52

> <r_mmod_Potential_Energy-OPLS-2005>
137.101226806641

> <r_mmod_Stretch_Energy-OPLS-2005>
88.0160827636719

> <r_mmod_Bend_Energy-OPLS-2005>
153.886291503906

> <r_mmod_Torsional_Energy-OPLS-2005>
242.229217529297

> <r_mmod_Improper_Torsional_Energy-OPLS-2005>
5.43316698074341

> <r_mmod_Van_der_Waal_Energy-OPLS-2005>
153.381118774414

> <r_mmod_Electrostatic_Energy-OPLS-2005>
-327.541290283203

> <r_mmod_Solvation_Energy-OPLS-2005>
-228.251586914062

> <b_mmod_Minimization_Converged-OPLS-2005>
0

> <r_mmod_RMS_Derivative-OPLS-2005>
1.45613646507263

$$$$
52
                    3D
 Structure written by MMmdl.
155164  0  0  1  0            999 V2000
  -30.6145  -14.6496   20.5000 C   0  0  0  0  0  0
  -30.4409  -12.3985   19.4524 C   0  0  0  0  0  0
  -29.5092  -12.5121   18.2246 C   0  0  0  0  0  0
  -28.0319  -12.3490   18.6354 C   0  0  0  0  0  0
  -27.6543  -13.2167   19.8651 C   0  0  2  0  0  0
  -28.6996  -13.0687   20.9938 C   0  0  0  0  0  0
  -25.2565  -13.8175   20.5685 C   0  0  0  0  0  0
  -24.1828  -13.0442   20.9189 C   0  0  0  0  0  0
  -24.6392  -11.6910   20.8739 C   0  0  0  0  0  0
  -23.9057  -10.4294   21.0406 C   0  0  0  0  0  0
  -24.3609   -9.4209   21.9185 C   0  0  0  0  0  0
  -23.6284   -8.2247   22.0757 C   0  0  0  0  0  0
  -22.4268   -8.0286   21.3547 C   0  0  0  0  0  0
  -21.9898   -9.0258   20.4650 C   0  0  0  0  0  0
  -22.7226  -10.2139   20.3058 C   0  0  0  0  0  0
  -21.6857   -6.0732   22.5278 C   0  0  0  0  0  0
  -21.4015   -6.5635   23.8211 C   0  0  0  0  0  0
  -21.3660   -5.6789   24.9174 C   0  0  0  0  0  0
  -21.6045   -4.3050   24.7225 C   0  0  0  0  0  0
  -21.8820   -3.8142   23.4345 C   0  0  0  0  0  0
  -21.9191   -4.6958   22.3398 C   0  0  0  0  0  0
  -22.7850  -13.5237   21.1852 C   0  0  0  0  0  0
  -22.1661   -4.2142   21.0977 F   0  0  0  0  0  0
  -21.5627   -3.4533   25.7734 F   0  0  0  0  0  0
  -30.0149  -13.4177   20.4328 N   0  0  0  0  0  0
  -26.2992  -12.9352   20.3323 N   0  0  0  0  0  0
  -25.9323  -11.6509   20.5758 N   0  0  0  0  0  0
  -22.0482  -12.8240   22.0409 N   0  0  0  0  0  0
  -25.4283  -15.1901   20.4103 N   0  0  0  0  0  0
  -31.7720  -14.8188   20.1039 O   0  0  0  0  0  0
  -21.6643   -6.8875   21.4240 O   0  0  0  0  0  0
  -22.3536  -14.5542   20.6700 O   0  0  0  0  0  0
  -24.6267  -31.8604   23.2026 C   0  0  0  0  0  0
  -25.9119  -32.4782   23.8352 C   0  0  1  0  0  0
  -27.2238  -27.3135   20.1161 C   0  0  0  0  0  0
  -25.5935  -33.8580   24.2276 N   0  0  0  0  0  0
  -23.4205  -30.4852   21.5455 C   0  0  2  0  0  0
  -24.8671  -28.9426   20.1111 C   0  0  0  0  0  0
  -22.7478  -29.4632   22.4929 C   0  0  0  0  0  0
  -18.0290  -28.1391   22.8485 C   0  0  0  0  0  0
  -24.1489  -36.7292   23.2636 C   0  0  0  0  0  0
  -25.9634  -30.7893   21.3758 C   0  0  0  0  0  0
  -26.0380  -29.4172   20.7163 C   0  0  0  0  0  0
  -27.2190  -28.6148   20.7096 C   0  0  0  0  0  0
  -26.0271  -26.8985   19.4836 C   0  0  0  0  0  0
  -24.8643  -27.6882   19.4865 C   0  0  0  0  0  0
  -23.6355  -29.8228   20.1602 C   0  0  0  0  0  0
  -25.4116  -36.3081   24.0323 C   0  0  1  0  0  0
  -20.5890  -28.3697   23.1281 C   0  0  2  0  0  0
  -20.6780  -26.9419   22.5410 C   0  0  0  0  0  0
  -19.5754  -26.6388   21.5214 C   0  0  0  0  0  0
  -18.1935  -26.7934   22.1625 C   0  0  0  0  0  0
  -19.1541  -28.8861   23.2879 C   0  0  0  0  0  0
  -18.9464  -30.1464   23.8894 C   0  0  0  0  0  0
  -17.6464  -30.6592   24.0568 C   0  0  0  0  0  0
  -25.9060  -34.9456   23.5100 C   0  0  0  0  0  0
  -16.5356  -29.9091   23.6331 C   0  0  0  0  0  0
  -16.7279  -28.6510   23.0350 C   0  0  0  0  0  0
  -26.4498  -31.6592   25.0725 C   0  0  0  0  0  0
  -25.3725  -31.3747   26.1446 C   0  0  0  0  0  0
  -27.0345  -30.3012   24.6194 C   0  0  0  0  0  0
  -27.6051  -32.4333   25.7495 C   0  0  0  0  0  0
  -27.5583  -37.1798   24.8460 C   0  0  0  0  0  0
  -21.4191  -29.3050   22.3668 N   0  0  0  0  0  0
  -26.4290  -37.3779   23.9411 N   0  0  0  0  0  0
  -24.6890  -31.0615   22.0980 N   0  0  0  0  0  0
  -23.4203  -28.8172   23.3008 O   0  0  0  0  0  0
  -28.3343  -26.4494   20.1741 O   0  0  0  0  0  0
  -26.5627  -34.8918   22.4663 O   0  0  0  0  0  0
  -23.5432  -32.1406   23.7353 O   0  0  0  0  0  0
  -30.8475  -19.2959   19.9640 C   0  0  0  0  0  0
  -30.8666  -17.8686   20.0430 C   0  0  0  0  0  0
  -28.8514  -17.9457   21.3430 C   0  0  0  0  0  0
  -29.8400  -20.0996   20.5814 C   0  0  0  0  0  0
  -29.8705  -17.1466   20.7520 C   0  0  0  0  0  0
  -28.8313  -19.3727   21.2713 C   0  0  0  0  0  0
  -30.4197  -24.3523   20.7287 C   0  0  0  0  0  0
  -31.1932  -22.0892   20.9547 C   0  0  0  0  0  0
  -29.1850  -23.9506   20.3630 C   0  0  0  0  0  0
  -31.4659  -23.4029   21.0326 C   0  0  0  0  0  0
  -28.9019  -22.4661   20.2726 C   0  0  0  0  0  0
  -28.0715  -24.9947   20.0096 C   0  0  0  0  0  0
  -29.9272  -21.5775   20.5962 N   0  0  0  0  0  0
  -29.8024  -15.6849   20.8915 N   0  0  0  0  0  0
  -27.8036  -22.0489   19.8904 O   0  0  0  0  0  0
  -32.6867  -23.8169   21.3889 O   0  0  0  0  0  0
  -27.8528  -20.0385   21.9311 F   0  0  0  0  0  0
  -31.4819  -12.5274   19.1510 H   0  0  0  0  0  0
  -30.3786  -11.4019   19.8929 H   0  0  0  0  0  0
  -29.7739  -11.7622   17.4777 H   0  0  0  0  0  0
  -29.6506  -13.4828   17.7455 H   0  0  0  0  0  0
  -27.8673  -11.2951   18.8631 H   0  0  0  0  0  0
  -27.3788  -12.5835   17.7944 H   0  0  0  0  0  0
  -27.6727  -14.2522   19.5254 H   0  0  0  0  0  0
  -28.7140  -12.0443   21.3693 H   0  0  0  0  0  0
  -28.4446  -13.6932   21.8512 H   0  0  0  0  0  0
  -25.2759   -9.5686   22.4750 H   0  0  0  0  0  0
  -23.9994   -7.4640   22.7481 H   0  0  0  0  0  0
  -21.0822   -8.8781   19.8963 H   0  0  0  0  0  0
  -22.3685  -10.9677   19.6164 H   0  0  0  0  0  0
  -21.2015   -7.6144   23.9714 H   0  0  0  0  0  0
  -21.1480   -6.0519   25.9076 H   0  0  0  0  0  0
  -22.0599   -2.7603   23.2854 H   0  0  0  0  0  0
  -22.4080  -11.9895   22.4799 H   0  0  0  0  0  0
  -21.1109  -13.1298   22.2626 H   0  0  0  0  0  0
  -24.6604  -15.8444   20.5140 H   0  0  0  0  0  0
  -26.2723  -15.6255   20.0606 H   0  0  0  0  0  0
  -26.7187  -32.5449   23.1100 H   0  0  0  0  0  0
  -25.0078  -33.9727   25.0417 H   0  0  0  0  0  0
  -22.7140  -31.3058   21.4036 H   0  0  0  0  0  0
  -23.3753  -35.9623   23.3293 H   0  0  0  0  0  0
  -24.3583  -36.8920   22.2052 H   0  0  0  0  0  0
  -23.7238  -37.6488   23.6667 H   0  0  0  0  0  0
  -26.0977  -31.5537   20.6090 H   0  0  0  0  0  0
  -26.8429  -30.8360   22.0066 H   0  0  0  0  0  0
  -28.1148  -28.9733   21.1972 H   0  0  0  0  0  0
  -25.9517  -25.9432   18.9870 H   0  0  0  0  0  0
  -23.9675  -27.3186   19.0079 H   0  0  0  0  0  0
  -23.7555  -30.6007   19.4051 H   0  0  0  0  0  0
  -22.7546  -29.2544   19.8561 H   0  0  0  0  0  0
  -25.1293  -36.1928   25.0815 H   0  0  0  0  0  0
  -20.9985  -28.3279   24.1402 H   0  0  0  0  0  0
  -20.5689  -26.2308   23.3613 H   0  0  0  0  0  0
  -21.6650  -26.7456   22.1201 H   0  0  0  0  0  0
  -19.6920  -25.6301   21.1242 H   0  0  0  0  0  0
  -19.6689  -27.3197   20.6743 H   0  0  0  0  0  0
  -17.4203  -26.6681   21.4029 H   0  0  0  0  0  0
  -18.0336  -26.0079   22.9024 H   0  0  0  0  0  0
  -19.7940  -30.7281   24.2259 H   0  0  0  0  0  0
  -17.5022  -31.6268   24.5176 H   0  0  0  0  0  0
  -15.5359  -30.2995   23.7660 H   0  0  0  0  0  0
  -15.8679  -28.0836   22.7063 H   0  0  0  0  0  0
  -24.5879  -30.7124   25.7768 H   0  0  0  0  0  0
  -24.8948  -32.2930   26.4874 H   0  0  0  0  0  0
  -25.8037  -30.8906   27.0218 H   0  0  0  0  0  0
  -26.2930  -29.6756   24.1212 H   0  0  0  0  0  0
  -27.4027  -29.7272   25.4709 H   0  0  0  0  0  0
  -27.8803  -30.4287   23.9434 H   0  0  0  0  0  0
  -27.2651  -33.3622   26.2083 H   0  0  0  0  0  0
  -28.3856  -32.6914   25.0326 H   0  0  0  0  0  0
  -28.0728  -31.8458   26.5406 H   0  0  0  0  0  0
  -28.2586  -38.0108   24.7527 H   0  0  0  0  0  0
  -28.1091  -36.2642   24.6257 H   0  0  0  0  0  0
  -27.2308  -37.1406   25.8863 H   0  0  0  0  0  0
  -20.9367  -29.8774   21.6878 H   0  0  0  0  0  0
  -26.0167  -38.2847   24.1427 H   0  0  0  0  0  0
  -31.6475  -19.7812   19.4229 H   0  0  0  0  0  0
  -31.6687  -17.3387   19.5493 H   0  0  0  0  0  0
  -28.0589  -17.4637   21.8966 H   0  0  0  0  0  0
  -30.6276  -25.4120   20.7851 H   0  0  0  0  0  0
  -31.9349  -21.3391   21.1877 H   0  0  0  0  0  0
  -27.2007  -24.7277   20.6114 H   0  0  0  0  0  0
  -27.8119  -24.8096   18.9668 H   0  0  0  0  0  0
  -28.9320  -15.3481   21.2731 H   0  0  0  0  0  0
  -32.6887  -24.7668   21.3786 H   0  0  0  0  0  0
  1 25  1  0  0  0
  1 30  2  0  0  0
  1 84  1  0  0  0
  2  3  1  0  0  0
  2 25  1  0  0  0
  2 88  1  0  0  0
  2 89  1  0  0  0
  3  4  1  0  0  0
  3 90  1  0  0  0
  3 91  1  0  0  0
  4  5  1  0  0  0
  4 92  1  0  0  0
  4 93  1  0  0  0
  5  6  1  0  0  0
  5 26  1  0  0  0
  5 94  1  0  0  0
  6 25  1  0  0  0
  6 95  1  0  0  0
  6 96  1  0  0  0
  7  8  2  0  0  0
  7 26  1  0  0  0
  7 29  1  0  0  0
  8  9  1  0  0  0
  8 22  1  0  0  0
  9 10  1  0  0  0
  9 27  2  0  0  0
 10 11  2  0  0  0
 10 15  1  0  0  0
 11 12  1  0  0  0
 11 97  1  0  0  0
 12 13  2  0  0  0
 12 98  1  0  0  0
 13 14  1  0  0  0
 13 31  1  0  0  0
 14 15  2  0  0  0
 14 99  1  0  0  0
 15100  1  0  0  0
 16 17  2  0  0  0
 16 21  1  0  0  0
 16 31  1  0  0  0
 17 18  1  0  0  0
 17101  1  0  0  0
 18 19  2  0  0  0
 18102  1  0  0  0
 19 20  1  0  0  0
 19 24  1  0  0  0
 20 21  2  0  0  0
 20103  1  0  0  0
 21 23  1  0  0  0
 22 28  1  0  0  0
 22 32  2  0  0  0
 26 27  1  0  0  0
 28104  1  0  0  0
 28105  1  0  0  0
 29106  1  0  0  0
 29107  1  0  0  0
 33 34  1  0  0  0
 33 66  1  0  0  0
 33 70  2  0  0  0
 34 36  1  0  0  0
 34 59  1  0  0  0
 34108  1  0  0  0
 35 44  2  0  0  0
 35 45  1  0  0  0
 35 68  1  0  0  0
 36 56  1  0  0  0
 36109  1  0  0  0
 37 39  1  0  0  0
 37 47  1  0  0  0
 37 66  1  0  0  0
 37110  1  0  0  0
 38 43  2  0  0  0
 38 46  1  0  0  0
 38 47  1  0  0  0
 39 64  1  0  0  0
 39 67  2  0  0  0
 40 52  1  0  0  0
 40 53  2  0  0  0
 40 58  1  0  0  0
 41111  1  0  0  0
 41112  1  0  0  0
 41113  1  0  0  0
 41 48  1  0  0  0
 42 43  1  0  0  0
 42 66  1  0  0  0
 42114  1  0  0  0
 42115  1  0  0  0
 43 44  1  0  0  0
 44116  1  0  0  0
 45 46  2  0  0  0
 45117  1  0  0  0
 46118  1  0  0  0
 47119  1  0  0  0
 47120  1  0  0  0
 48 56  1  0  0  0
 48 65  1  0  0  0
 48121  1  0  0  0
 49 50  1  0  0  0
 49 53  1  0  0  0
 49 64  1  0  0  0
 49122  1  0  0  0
 50 51  1  0  0  0
 50123  1  0  0  0
 50124  1  0  0  0
 51 52  1  0  0  0
 51125  1  0  0  0
 51126  1  0  0  0
 52127  1  0  0  0
 52128  1  0  0  0
 53 54  1  0  0  0
 54 55  2  0  0  0
 54129  1  0  0  0
 55 57  1  0  0  0
 55130  1  0  0  0
 56 69  2  0  0  0
 57 58  2  0  0  0
 57131  1  0  0  0
 58132  1  0  0  0
 59 60  1  0  0  0
 59 61  1  0  0  0
 59 62  1  0  0  0
 60133  1  0  0  0
 60134  1  0  0  0
 60135  1  0  0  0
 61136  1  0  0  0
 61137  1  0  0  0
 61138  1  0  0  0
 62139  1  0  0  0
 62140  1  0  0  0
 62141  1  0  0  0
 63 65  1  0  0  0
 63142  1  0  0  0
 63143  1  0  0  0
 63144  1  0  0  0
 64145  1  0  0  0
 65146  1  0  0  0
 68 82  1  0  0  0
 71 72  2  0  0  0
 71 74  1  0  0  0
 71147  1  0  0  0
 72 75  1  0  0  0
 72148  1  0  0  0
 73 75  2  0  0  0
 73 76  1  0  0  0
 73149  1  0  0  0
 74 76  2  0  0  0
 74 83  1  0  0  0
 75 84  1  0  0  0
 76 87  1  0  0  0
 77 79  2  0  0  0
 77 80  1  0  0  0
 77150  1  0  0  0
 78 80  2  0  0  0
 78 83  1  0  0  0
 78151  1  0  0  0
 79 81  1  0  0  0
 79 82  1  0  0  0
 80 86  1  0  0  0
 81 83  1  0  0  0
 81 85  2  0  0  0
 82152  1  0  0  0
 82153  1  0  0  0
 84154  1  0  0  0
 86155  1  0  0  0
M  ISO  4   1 100  68 101  82 101  84 100
M  END
> <chiral flag>
0

> <version>
0

> <s_m_source_file>
/data/baiqing/PycharmProjects/Reinvent-master-3.2/result/LINK_invent/BTK/process_docking_weight1_custom_product_contain_oxygen_bond_distance_aromatic_linkinvent_7_9_3/rearranged_h_0080.sdf

> <i_m_source_file_index>
53

> <r_mmod_Potential_Energy-OPLS-2005>
105.562004089355

> <r_mmod_Stretch_Energy-OPLS-2005>
94.4116897583008

> <r_mmod_Bend_Energy-OPLS-2005>
138.532409667969

> <r_mmod_Torsional_Energy-OPLS-2005>
240.625991821289

> <r_mmod_Improper_Torsional_Energy-OPLS-2005>
4.13002443313599

> <r_mmod_Van_der_Waal_Energy-OPLS-2005>
173.470901489258

> <r_mmod_Electrostatic_Energy-OPLS-2005>
-369.354553222656

> <r_mmod_Solvation_Energy-OPLS-2005>
-228.324035644531

> <b_mmod_Minimization_Converged-OPLS-2005>
0

> <r_mmod_RMS_Derivative-OPLS-2005>
1.01298701763153

$$$$
53
                    3D
 Structure written by MMmdl.
158167  0  0  1  0            999 V2000
  -30.6146  -14.7557   20.5541 C   0  0  0  0  0  0
  -30.4394  -12.4828   19.4775 C   0  0  0  0  0  0
  -29.5146  -12.5258   18.2389 C   0  0  0  0  0  0
  -28.0412  -12.3305   18.6444 C   0  0  0  0  0  0
  -27.6436  -13.2223   19.8475 C   0  0  2  0  0  0
  -28.6764  -13.1150   20.9824 C   0  0  0  0  0  0
  -25.2536  -13.8165   20.5657 C   0  0  0  0  0  0
  -24.1811  -13.0428   20.9158 C   0  0  0  0  0  0
  -24.6381  -11.6902   20.8698 C   0  0  0  0  0  0
  -23.9053  -10.4288   21.0383 C   0  0  0  0  0  0
  -24.3608   -9.4209   21.9172 C   0  0  0  0  0  0
  -23.6283   -8.2247   22.0749 C   0  0  0  0  0  0
  -22.4267   -8.0281   21.3539 C   0  0  0  0  0  0
  -21.9891   -9.0253   20.4647 C   0  0  0  0  0  0
  -22.7212  -10.2132   20.3047 C   0  0  0  0  0  0
  -21.6857   -6.0732   22.5277 C   0  0  0  0  0  0
  -21.4016   -6.5639   23.8208 C   0  0  0  0  0  0
  -21.3661   -5.6792   24.9170 C   0  0  0  0  0  0
  -21.6046   -4.3053   24.7225 C   0  0  0  0  0  0
  -21.8821   -3.8138   23.4348 C   0  0  0  0  0  0
  -21.9193   -4.6957   22.3402 C   0  0  0  0  0  0
  -22.7847  -13.5238   21.1847 C   0  0  0  0  0  0
  -22.1668   -4.2139   21.0985 F   0  0  0  0  0  0
  -21.5617   -3.4543   25.7739 F   0  0  0  0  0  0
  -29.9863  -13.5219   20.4395 N   0  0  0  0  0  0
  -26.2931  -12.9350   20.3205 N   0  0  0  0  0  0
  -25.9304  -11.6504   20.5688 N   0  0  0  0  0  0
  -22.0495  -12.8239   22.0416 N   0  0  0  0  0  0
  -25.4270  -15.1890   20.4155 N   0  0  0  0  0  0
  -31.7334  -14.9031   20.0499 O   0  0  0  0  0  0
  -21.6640   -6.8873   21.4239 O   0  0  0  0  0  0
  -22.3539  -14.5552   20.6702 O   0  0  0  0  0  0
  -24.6320  -31.8548   23.1962 C   0  0  0  0  0  0
  -25.9141  -32.4752   23.8326 C   0  0  1  0  0  0
  -27.2259  -27.2627   20.1310 C   0  0  0  0  0  0
  -25.5931  -33.8551   24.2256 N   0  0  0  0  0  0
  -23.4306  -30.4742   21.5405 C   0  0  2  0  0  0
  -24.8827  -28.9183   20.1134 C   0  0  0  0  0  0
  -22.7510  -29.4591   22.4912 C   0  0  0  0  0  0
  -18.0296  -28.1384   22.8476 C   0  0  0  0  0  0
  -24.1493  -36.7288   23.2636 C   0  0  0  0  0  0
  -25.9768  -30.7661   21.3793 C   0  0  0  0  0  0
  -26.0542  -29.3860   20.7256 C   0  0  0  0  0  0
  -27.2327  -28.5691   20.7282 C   0  0  0  0  0  0
  -26.0362  -26.8593   19.4958 C   0  0  0  0  0  0
  -24.8776  -27.6611   19.4884 C   0  0  0  0  0  0
  -23.6511  -29.8038   20.1586 C   0  0  0  0  0  0
  -25.4117  -36.3067   24.0323 C   0  0  1  0  0  0
  -20.5900  -28.3695   23.1261 C   0  0  2  0  0  0
  -20.6784  -26.9412   22.5400 C   0  0  0  0  0  0
  -19.5761  -26.6381   21.5203 C   0  0  0  0  0  0
  -18.1940  -26.7927   22.1614 C   0  0  0  0  0  0
  -19.1547  -28.8859   23.2860 C   0  0  0  0  0  0
  -18.9469  -30.1460   23.8880 C   0  0  0  0  0  0
  -17.6467  -30.6584   24.0558 C   0  0  0  0  0  0
  -25.9054  -34.9439   23.5093 C   0  0  0  0  0  0
  -16.5360  -29.9074   23.6334 C   0  0  0  0  0  0
  -16.7283  -28.6492   23.0354 C   0  0  0  0  0  0
  -26.4502  -31.6577   25.0722 C   0  0  0  0  0  0
  -25.3717  -31.3767   26.1448 C   0  0  0  0  0  0
  -27.0326  -30.2970   24.6236 C   0  0  0  0  0  0
  -27.6062  -32.4314   25.7478 C   0  0  0  0  0  0
  -27.5583  -37.1803   24.8458 C   0  0  0  0  0  0
  -21.4218  -29.3036   22.3651 N   0  0  0  0  0  0
  -26.4295  -37.3766   23.9400 N   0  0  0  0  0  0
  -24.6986  -31.0499   22.0952 N   0  0  0  0  0  0
  -23.4204  -28.8151   23.3028 O   0  0  0  0  0  0
  -28.2790  -26.3219   20.1198 O   0  0  0  0  0  0
  -26.5627  -34.8910   22.4661 O   0  0  0  0  0  0
  -23.5464  -32.1384   23.7241 O   0  0  0  0  0  0
  -28.6018  -19.3251   20.1428 C   0  0  0  0  0  0
  -30.6230  -19.6309   21.3695 C   0  0  0  0  0  0
  -28.8135  -17.8941   20.1664 C   0  0  0  0  0  0
  -30.8408  -18.2136   21.3810 C   0  0  0  0  0  0
  -29.4765  -20.2530   20.7898 C   0  0  0  0  0  0
  -29.9235  -17.2724   20.8259 C   0  0  0  0  0  0
  -28.5772  -23.9995   21.3124 C   0  0  0  0  0  0
  -28.6064  -23.3921   22.6269 C   0  0  0  0  0  0
  -28.8877  -22.8444   20.3874 C   0  0  0  0  0  0
  -28.2271  -23.9590   23.7901 C   0  0  0  0  0  0
  -29.0899  -16.4263   23.4269 C   0  0  0  0  0  0
  -28.3153  -25.3719   21.1652 C   0  0  0  0  0  0
  -29.7490  -15.6030   22.5883 C   0  0  0  0  0  0
  -29.0775  -21.9724   22.5535 C   0  0  0  0  0  0
  -29.1403  -21.6752   21.1261 N   0  0  0  0  0  0
  -29.9774  -15.8211   21.2107 N   0  0  0  0  0  0
  -28.9142  -22.8923   19.1536 O   0  0  0  0  0  0
  -31.4775  -12.6264   19.1722 H   0  0  0  0  0  0
  -30.4079  -11.4972   19.9451 H   0  0  0  0  0  0
  -29.8052  -11.7557   17.5234 H   0  0  0  0  0  0
  -29.6301  -13.4826   17.7272 H   0  0  0  0  0  0
  -27.9070  -11.2790   18.9060 H   0  0  0  0  0  0
  -27.3836  -12.5165   17.7947 H   0  0  0  0  0  0
  -27.6517  -14.2526   19.4906 H   0  0  0  0  0  0
  -28.7231  -12.0937   21.3635 H   0  0  0  0  0  0
  -28.3376  -13.7166   21.8204 H   0  0  0  0  0  0
  -25.2747   -9.5699   22.4751 H   0  0  0  0  0  0
  -23.9985   -7.4654   22.7481 H   0  0  0  0  0  0
  -21.0805   -8.8776   19.8978 H   0  0  0  0  0  0
  -22.3647  -10.9678   19.6171 H   0  0  0  0  0  0
  -21.2011   -7.6151   23.9709 H   0  0  0  0  0  0
  -21.1481   -6.0523   25.9073 H   0  0  0  0  0  0
  -22.0593   -2.7597   23.2859 H   0  0  0  0  0  0
  -22.4102  -11.9898   22.4810 H   0  0  0  0  0  0
  -21.1130  -13.1297   22.2642 H   0  0  0  0  0  0
  -24.6697  -15.8495   20.5493 H   0  0  0  0  0  0
  -26.2967  -15.6289   20.1440 H   0  0  0  0  0  0
  -26.7211  -32.5412   23.1072 H   0  0  0  0  0  0
  -25.0064  -33.9688   25.0391 H   0  0  0  0  0  0
  -22.7269  -31.2958   21.3919 H   0  0  0  0  0  0
  -23.3749  -35.9627   23.3300 H   0  0  0  0  0  0
  -24.3584  -36.8911   22.2051 H   0  0  0  0  0  0
  -23.7260  -37.6492   23.6667 H   0  0  0  0  0  0
  -26.1167  -31.5264   20.6093 H   0  0  0  0  0  0
  -26.8522  -30.8155   22.0153 H   0  0  0  0  0  0
  -28.1337  -28.9214   21.2116 H   0  0  0  0  0  0
  -25.9992  -25.8888   19.0215 H   0  0  0  0  0  0
  -23.9812  -27.2961   19.0068 H   0  0  0  0  0  0
  -23.7719  -30.5794   19.4015 H   0  0  0  0  0  0
  -22.7696  -29.2351   19.8548 H   0  0  0  0  0  0
  -25.1296  -36.1914   25.0815 H   0  0  0  0  0  0
  -20.9979  -28.3283   24.1388 H   0  0  0  0  0  0
  -20.5676  -26.2307   23.3604 H   0  0  0  0  0  0
  -21.6659  -26.7436   22.1212 H   0  0  0  0  0  0
  -19.6925  -25.6289   21.1236 H   0  0  0  0  0  0
  -19.6701  -27.3191   20.6733 H   0  0  0  0  0  0
  -17.4210  -26.6676   21.4018 H   0  0  0  0  0  0
  -18.0342  -26.0068   22.9006 H   0  0  0  0  0  0
  -19.7941  -30.7282   24.2247 H   0  0  0  0  0  0
  -17.5014  -31.6258   24.5166 H   0  0  0  0  0  0
  -15.5360  -30.2968   23.7659 H   0  0  0  0  0  0
  -15.8687  -28.0802   22.7081 H   0  0  0  0  0  0
  -24.5857  -30.7155   25.7787 H   0  0  0  0  0  0
  -24.8960  -32.2959   26.4875 H   0  0  0  0  0  0
  -25.8015  -30.8930   27.0229 H   0  0  0  0  0  0
  -26.2911  -29.6724   24.1245 H   0  0  0  0  0  0
  -27.3956  -29.7238   25.4779 H   0  0  0  0  0  0
  -27.8818  -30.4207   23.9512 H   0  0  0  0  0  0
  -27.2681  -33.3621   26.2046 H   0  0  0  0  0  0
  -28.3870  -32.6864   25.0300 H   0  0  0  0  0  0
  -28.0734  -31.8451   26.5402 H   0  0  0  0  0  0
  -28.2612  -38.0091   24.7483 H   0  0  0  0  0  0
  -28.1072  -36.2624   24.6301 H   0  0  0  0  0  0
  -27.2303  -37.1462   25.8862 H   0  0  0  0  0  0
  -20.9409  -29.8734   21.6831 H   0  0  0  0  0  0
  -26.0175  -38.2841   24.1392 H   0  0  0  0  0  0
  -27.6880  -19.7005   19.7028 H   0  0  0  0  0  0
  -31.3347  -20.2465   21.9013 H   0  0  0  0  0  0
  -28.0440  -17.2635   19.7446 H   0  0  0  0  0  0
  -31.6953  -17.8400   21.9261 H   0  0  0  0  0  0
  -27.8558  -24.9689   23.8732 H   0  0  0  0  0  0
  -28.2763  -23.3962   24.7112 H   0  0  0  0  0  0
  -28.9774  -16.1667   24.4702 H   0  0  0  0  0  0
  -28.6492  -17.3595   23.1067 H   0  0  0  0  0  0
  -28.1304  -25.9342   22.0664 H   0  0  0  0  0  0
  -30.1642  -14.6776   22.9699 H   0  0  0  0  0  0
  -28.3776  -21.3047   23.0582 H   0  0  0  0  0  0
  -30.0581  -21.8788   23.0209 H   0  0  0  0  0  0
  1 25  1  0  0  0
  1 30  2  0  0  0
  1 86  1  0  0  0
  2  3  1  0  0  0
  2 25  1  0  0  0
  2 88  1  0  0  0
  2 89  1  0  0  0
  3  4  1  0  0  0
  3 90  1  0  0  0
  3 91  1  0  0  0
  4  5  1  0  0  0
  4 92  1  0  0  0
  4 93  1  0  0  0
  5  6  1  0  0  0
  5 26  1  0  0  0
  5 94  1  0  0  0
  6 25  1  0  0  0
  6 95  1  0  0  0
  6 96  1  0  0  0
  7  8  2  0  0  0
  7 26  1  0  0  0
  7 29  1  0  0  0
  8  9  1  0  0  0
  8 22  1  0  0  0
  9 10  1  0  0  0
  9 27  2  0  0  0
 10 11  2  0  0  0
 10 15  1  0  0  0
 11 12  1  0  0  0
 11 97  1  0  0  0
 12 13  2  0  0  0
 12 98  1  0  0  0
 13 14  1  0  0  0
 13 31  1  0  0  0
 14 15  2  0  0  0
 14 99  1  0  0  0
 15100  1  0  0  0
 16 17  2  0  0  0
 16 21  1  0  0  0
 16 31  1  0  0  0
 17 18  1  0  0  0
 17101  1  0  0  0
 18 19  2  0  0  0
 18102  1  0  0  0
 19 20  1  0  0  0
 19 24  1  0  0  0
 20 21  2  0  0  0
 20103  1  0  0  0
 21 23  1  0  0  0
 22 28  1  0  0  0
 22 32  2  0  0  0
 26 27  1  0  0  0
 28104  1  0  0  0
 28105  1  0  0  0
 29106  1  0  0  0
 29107  1  0  0  0
 33 34  1  0  0  0
 33 66  1  0  0  0
 33 70  2  0  0  0
 34 36  1  0  0  0
 34 59  1  0  0  0
 34108  1  0  0  0
 35 44  2  0  0  0
 35 45  1  0  0  0
 35 68  1  0  0  0
 36 56  1  0  0  0
 36109  1  0  0  0
 37 39  1  0  0  0
 37 47  1  0  0  0
 37 66  1  0  0  0
 37110  1  0  0  0
 38 43  2  0  0  0
 38 46  1  0  0  0
 38 47  1  0  0  0
 39 64  1  0  0  0
 39 67  2  0  0  0
 40 52  1  0  0  0
 40 53  2  0  0  0
 40 58  1  0  0  0
 41111  1  0  0  0
 41112  1  0  0  0
 41113  1  0  0  0
 41 48  1  0  0  0
 42 43  1  0  0  0
 42 66  1  0  0  0
 42114  1  0  0  0
 42115  1  0  0  0
 43 44  1  0  0  0
 44116  1  0  0  0
 45 46  2  0  0  0
 45117  1  0  0  0
 46118  1  0  0  0
 47119  1  0  0  0
 47120  1  0  0  0
 48 56  1  0  0  0
 48 65  1  0  0  0
 48121  1  0  0  0
 49 50  1  0  0  0
 49 53  1  0  0  0
 49 64  1  0  0  0
 49122  1  0  0  0
 50 51  1  0  0  0
 50123  1  0  0  0
 50124  1  0  0  0
 51 52  1  0  0  0
 51125  1  0  0  0
 51126  1  0  0  0
 52127  1  0  0  0
 52128  1  0  0  0
 53 54  1  0  0  0
 54 55  2  0  0  0
 54129  1  0  0  0
 55 57  1  0  0  0
 55130  1  0  0  0
 56 69  2  0  0  0
 57 58  2  0  0  0
 57131  1  0  0  0
 58132  1  0  0  0
 59 60  1  0  0  0
 59 61  1  0  0  0
 59 62  1  0  0  0
 60133  1  0  0  0
 60134  1  0  0  0
 60135  1  0  0  0
 61136  1  0  0  0
 61137  1  0  0  0
 61138  1  0  0  0
 62139  1  0  0  0
 62140  1  0  0  0
 62141  1  0  0  0
 63 65  1  0  0  0
 63142  1  0  0  0
 63143  1  0  0  0
 63144  1  0  0  0
 64145  1  0  0  0
 65146  1  0  0  0
 68 82  1  0  0  0
 71 73  2  0  0  0
 71 75  1  0  0  0
 71147  1  0  0  0
 72 74  1  0  0  0
 72 75  2  0  0  0
 72148  1  0  0  0
 73 76  1  0  0  0
 73149  1  0  0  0
 74 76  2  0  0  0
 74150  1  0  0  0
 75 85  1  0  0  0
 76 86  1  0  0  0
 77 78  1  0  0  0
 77 79  1  0  0  0
 77 82  2  0  0  0
 78 80  2  0  0  0
 78 84  1  0  0  0
 79 85  1  0  0  0
 79 87  2  0  0  0
 80151  1  0  0  0
 80152  1  0  0  0
 81 83  2  0  0  0
 81153  1  0  0  0
 81154  1  0  0  0
 82155  1  0  0  0
 83 86  1  0  0  0
 83156  1  0  0  0
 84 85  1  0  0  0
 84157  1  0  0  0
 84158  1  0  0  0
M  ISO  4   1 100  68 101  82 101  86 100
M  END
> <chiral flag>
0

> <version>
0

> <s_m_source_file>
/data/baiqing/PycharmProjects/Reinvent-master-3.2/result/LINK_invent/BTK/process_docking_weight1_custom_product_contain_oxygen_bond_distance_aromatic_linkinvent_7_9_3/rearranged_h_0080.sdf

> <i_m_source_file_index>
54

> <r_mmod_Potential_Energy-OPLS-2005>
607.7763671875

> <r_mmod_Stretch_Energy-OPLS-2005>
132.409851074219

> <r_mmod_Bend_Energy-OPLS-2005>
265.096130371094

> <r_mmod_Torsional_Energy-OPLS-2005>
407.349182128906

> <r_mmod_Improper_Torsional_Energy-OPLS-2005>
7.64939880371094

> <r_mmod_Van_der_Waal_Energy-OPLS-2005>
144.144760131836

> <r_mmod_Electrostatic_Energy-OPLS-2005>
-229.146331787109

> <r_mmod_Solvation_Energy-OPLS-2005>
-207.391464233398

> <b_mmod_Minimization_Converged-OPLS-2005>
0

> <r_mmod_RMS_Derivative-OPLS-2005>
1.60034835338593

$$$$
54
                    3D
 Structure written by MMmdl.
156165  0  0  1  0            999 V2000
  -30.5315  -14.9166   20.4493 C   0  0  0  0  0  0
  -30.4477  -12.5618   19.4977 C   0  0  0  0  0  0
  -29.5242  -12.5452   18.2565 C   0  0  0  0  0  0
  -28.0514  -12.3420   18.6615 C   0  0  0  0  0  0
  -27.6382  -13.2473   19.8515 C   0  0  2  0  0  0
  -28.6858  -13.2217   20.9868 C   0  0  0  0  0  0
  -25.2476  -13.8206   20.5744 C   0  0  0  0  0  0
  -24.1784  -13.0410   20.9232 C   0  0  0  0  0  0
  -24.6412  -11.6912   20.8745 C   0  0  0  0  0  0
  -23.9091  -10.4273   21.0391 C   0  0  0  0  0  0
  -24.3641   -9.4184   21.9170 C   0  0  0  0  0  0
  -23.6296   -8.2223   22.0750 C   0  0  0  0  0  0
  -22.4271   -8.0263   21.3542 C   0  0  0  0  0  0
  -21.9913   -9.0247   20.4654 C   0  0  0  0  0  0
  -22.7256  -10.2122   20.3052 C   0  0  0  0  0  0
  -21.6842   -6.0728   22.5280 C   0  0  0  0  0  0
  -21.4024   -6.5645   23.8214 C   0  0  0  0  0  0
  -21.3669   -5.6803   24.9178 C   0  0  0  0  0  0
  -21.6036   -4.3061   24.7233 C   0  0  0  0  0  0
  -21.8815   -3.8147   23.4358 C   0  0  0  0  0  0
  -21.9198   -4.6960   22.3412 C   0  0  0  0  0  0
  -22.7805  -13.5176   21.1886 C   0  0  0  0  0  0
  -22.1654   -4.2144   21.0985 F   0  0  0  0  0  0
  -21.5625   -3.4543   25.7742 F   0  0  0  0  0  0
  -29.9713  -13.6415   20.4067 N   0  0  0  0  0  0
  -26.2924  -12.9449   20.3298 N   0  0  0  0  0  0
  -25.9353  -11.6574   20.5756 N   0  0  0  0  0  0
  -22.0490  -12.8149   22.0470 N   0  0  0  0  0  0
  -25.4111  -15.1931   20.4203 N   0  0  0  0  0  0
  -31.7195  -15.0401   20.1303 O   0  0  0  0  0  0
  -21.6628   -6.8867   21.4233 O   0  0  0  0  0  0
  -22.3462  -14.5469   20.6736 O   0  0  0  0  0  0
  -24.6450  -31.8433   23.1889 C   0  0  0  0  0  0
  -25.9208  -32.4699   23.8277 C   0  0  1  0  0  0
  -27.2224  -27.1267   20.1448 C   0  0  0  0  0  0
  -25.5945  -33.8505   24.2191 N   0  0  0  0  0  0
  -23.4499  -30.4633   21.5372 C   0  0  2  0  0  0
  -24.8993  -28.8904   20.1092 C   0  0  0  0  0  0
  -22.7569  -29.4547   22.4867 C   0  0  0  0  0  0
  -18.0312  -28.1389   22.8479 C   0  0  0  0  0  0
  -24.1491  -36.7261   23.2646 C   0  0  0  0  0  0
  -26.0076  -30.7090   21.3920 C   0  0  0  0  0  0
  -26.0775  -29.3206   20.7316 C   0  0  0  0  0  0
  -27.2375  -28.4555   20.7348 C   0  0  0  0  0  0
  -26.0164  -26.8045   19.4785 C   0  0  0  0  0  0
  -24.8823  -27.6445   19.4681 C   0  0  0  0  0  0
  -23.6763  -29.7962   20.1547 C   0  0  0  0  0  0
  -25.4124  -36.3049   24.0324 C   0  0  1  0  0  0
  -20.5926  -28.3725   23.1235 C   0  0  2  0  0  0
  -20.6792  -26.9421   22.5417 C   0  0  0  0  0  0
  -19.5768  -26.6371   21.5219 C   0  0  0  0  0  0
  -18.1950  -26.7925   22.1630 C   0  0  0  0  0  0
  -19.1568  -28.8873   23.2852 C   0  0  0  0  0  0
  -18.9481  -30.1467   23.8884 C   0  0  0  0  0  0
  -17.6475  -30.6591   24.0563 C   0  0  0  0  0  0
  -25.9079  -34.9417   23.5080 C   0  0  0  0  0  0
  -16.5368  -29.9090   23.6326 C   0  0  0  0  0  0
  -16.7295  -28.6505   23.0352 C   0  0  0  0  0  0
  -26.4506  -31.6568   25.0726 C   0  0  0  0  0  0
  -25.3680  -31.3769   26.1417 C   0  0  0  0  0  0
  -27.0360  -30.2962   24.6315 C   0  0  0  0  0  0
  -27.6058  -32.4320   25.7504 C   0  0  0  0  0  0
  -27.5582  -37.1789   24.8460 C   0  0  0  0  0  0
  -21.4261  -29.3051   22.3597 N   0  0  0  0  0  0
  -26.4284  -37.3763   23.9414 N   0  0  0  0  0  0
  -24.7214  -31.0258   22.0951 N   0  0  0  0  0  0
  -23.4203  -28.8081   23.3013 O   0  0  0  0  0  0
  -28.2660  -26.1246   20.2310 O   0  0  0  0  0  0
  -26.5676  -34.8920   22.4667 O   0  0  0  0  0  0
  -23.5567  -32.1324   23.7104 O   0  0  0  0  0  0
  -30.2248  -20.0295   20.6220 C   0  0  0  0  0  0
  -30.5390  -18.5983   20.7389 C   0  0  0  0  0  0
  -28.3249  -18.0994   20.1539 C   0  0  0  0  0  0
  -28.9388  -20.5667   20.2409 C   0  0  0  0  0  0
  -27.9909  -19.5036   19.9911 C   0  0  0  0  0  0
  -29.5877  -17.5389   20.5068 C   0  0  0  0  0  0
  -25.2063  -19.4411   18.2741 C   0  0  0  0  0  0
  -25.4508  -19.1679   19.6583 C   0  0  0  0  0  0
  -24.1777  -19.1208   17.4737 C   0  0  0  0  0  0
  -28.8318  -23.2543   20.3307 C   0  0  0  0  0  0
  -26.5510  -20.0945   18.1118 C   0  0  0  0  0  0
  -27.9720  -24.6263   19.8985 C   0  0  0  0  0  0
  -28.4767  -21.9878   20.0207 N   0  0  0  0  0  0
  -26.6775  -19.8295   19.5544 N   0  0  0  0  0  0
  -29.6744  -16.0155   20.6992 N   0  0  0  0  0  0
  -24.8624  -18.4790   20.4647 O   0  0  0  0  0  0
  -31.4828  -12.7204   19.1943 H   0  0  0  0  0  0
  -30.4316  -11.5962   20.0066 H   0  0  0  0  0  0
  -29.8324  -11.7623   17.5618 H   0  0  0  0  0  0
  -29.6261  -13.4912   17.7215 H   0  0  0  0  0  0
  -27.9215  -11.2937   18.9318 H   0  0  0  0  0  0
  -27.3963  -12.5215   17.8078 H   0  0  0  0  0  0
  -27.6126  -14.2630   19.4555 H   0  0  0  0  0  0
  -28.7623  -12.2263   21.4252 H   0  0  0  0  0  0
  -28.3930  -13.8879   21.8001 H   0  0  0  0  0  0
  -25.2786   -9.5645   22.4750 H   0  0  0  0  0  0
  -24.0001   -7.4611   22.7471 H   0  0  0  0  0  0
  -21.0836   -8.8777   19.8967 H   0  0  0  0  0  0
  -22.3706  -10.9670   19.6175 H   0  0  0  0  0  0
  -21.2013   -7.6157   23.9726 H   0  0  0  0  0  0
  -21.1496   -6.0528   25.9086 H   0  0  0  0  0  0
  -22.0584   -2.7605   23.2863 H   0  0  0  0  0  0
  -22.4148  -11.9823   22.4852 H   0  0  0  0  0  0
  -21.1128  -13.1167   22.2745 H   0  0  0  0  0  0
  -24.6508  -15.8510   20.5641 H   0  0  0  0  0  0
  -26.2484  -15.6371   20.0722 H   0  0  0  0  0  0
  -26.7268  -32.5285   23.0999 H   0  0  0  0  0  0
  -25.0016  -33.9604   25.0284 H   0  0  0  0  0  0
  -22.7557  -31.2926   21.3873 H   0  0  0  0  0  0
  -23.3768  -35.9578   23.3297 H   0  0  0  0  0  0
  -24.3575  -36.8896   22.2060 H   0  0  0  0  0  0
  -23.7222  -37.6451   23.6675 H   0  0  0  0  0  0
  -26.1630  -31.4585   20.6157 H   0  0  0  0  0  0
  -26.8788  -30.7598   22.0324 H   0  0  0  0  0  0
  -28.1292  -28.7800   21.2517 H   0  0  0  0  0  0
  -25.9041  -25.8561   18.9770 H   0  0  0  0  0  0
  -23.9851  -27.3069   18.9675 H   0  0  0  0  0  0
  -23.8164  -30.5789   19.4084 H   0  0  0  0  0  0
  -22.7872  -29.2477   19.8372 H   0  0  0  0  0  0
  -25.1310  -36.1895   25.0817 H   0  0  0  0  0  0
  -21.0019  -28.3323   24.1353 H   0  0  0  0  0  0
  -20.5678  -26.2336   23.3642 H   0  0  0  0  0  0
  -21.6656  -26.7410   22.1218 H   0  0  0  0  0  0
  -19.6931  -25.6273   21.1266 H   0  0  0  0  0  0
  -19.6717  -27.3167   20.6738 H   0  0  0  0  0  0
  -17.4217  -26.6668   21.4041 H   0  0  0  0  0  0
  -18.0361  -26.0079   22.9040 H   0  0  0  0  0  0
  -19.7961  -30.7275   24.2260 H   0  0  0  0  0  0
  -17.5037  -31.6262   24.5178 H   0  0  0  0  0  0
  -15.5378  -30.2986   23.7653 H   0  0  0  0  0  0
  -15.8700  -28.0817   22.7073 H   0  0  0  0  0  0
  -24.5866  -30.7113   25.7720 H   0  0  0  0  0  0
  -24.8852  -32.2953   26.4774 H   0  0  0  0  0  0
  -25.7943  -30.8975   27.0237 H   0  0  0  0  0  0
  -26.2970  -29.6704   24.1300 H   0  0  0  0  0  0
  -27.3928  -29.7251   25.4893 H   0  0  0  0  0  0
  -27.8899  -30.4190   23.9656 H   0  0  0  0  0  0
  -27.2668  -33.3636   26.2049 H   0  0  0  0  0  0
  -28.3881  -32.6853   25.0335 H   0  0  0  0  0  0
  -28.0708  -31.8457   26.5441 H   0  0  0  0  0  0
  -28.2597  -38.0090   24.7521 H   0  0  0  0  0  0
  -28.1082  -36.2626   24.6270 H   0  0  0  0  0  0
  -27.2300  -37.1408   25.8861 H   0  0  0  0  0  0
  -20.9470  -29.8756   21.6766 H   0  0  0  0  0  0
  -26.0168  -38.2834   24.1431 H   0  0  0  0  0  0
  -31.0203  -20.7319   20.8279 H   0  0  0  0  0  0
  -31.5370  -18.3262   21.0488 H   0  0  0  0  0  0
  -27.5389  -17.3807   19.9788 H   0  0  0  0  0  0
  -23.3132  -18.5968   17.8573 H   0  0  0  0  0  0
  -24.1971  -19.3668   16.4222 H   0  0  0  0  0  0
  -29.7276  -23.4614   20.9229 H   0  0  0  0  0  0
  -26.5818  -21.1640   17.8994 H   0  0  0  0  0  0
  -27.2910  -19.5632   17.5089 H   0  0  0  0  0  0
  -26.9666  -24.4260   20.2675 H   0  0  0  0  0  0
  -27.8912  -24.5819   18.8114 H   0  0  0  0  0  0
  -28.7717  -15.6303   20.9320 H   0  0  0  0  0  0
  1 25  1  0  0  0
  1 30  2  0  0  0
  1 85  1  0  0  0
  2  3  1  0  0  0
  2 25  1  0  0  0
  2 87  1  0  0  0
  2 88  1  0  0  0
  3  4  1  0  0  0
  3 89  1  0  0  0
  3 90  1  0  0  0
  4  5  1  0  0  0
  4 91  1  0  0  0
  4 92  1  0  0  0
  5  6  1  0  0  0
  5 26  1  0  0  0
  5 93  1  0  0  0
  6 25  1  0  0  0
  6 94  1  0  0  0
  6 95  1  0  0  0
  7  8  2  0  0  0
  7 26  1  0  0  0
  7 29  1  0  0  0
  8  9  1  0  0  0
  8 22  1  0  0  0
  9 10  1  0  0  0
  9 27  2  0  0  0
 10 11  2  0  0  0
 10 15  1  0  0  0
 11 12  1  0  0  0
 11 96  1  0  0  0
 12 13  2  0  0  0
 12 97  1  0  0  0
 13 14  1  0  0  0
 13 31  1  0  0  0
 14 15  2  0  0  0
 14 98  1  0  0  0
 15 99  1  0  0  0
 16 17  2  0  0  0
 16 21  1  0  0  0
 16 31  1  0  0  0
 17 18  1  0  0  0
 17100  1  0  0  0
 18 19  2  0  0  0
 18101  1  0  0  0
 19 20  1  0  0  0
 19 24  1  0  0  0
 20 21  2  0  0  0
 20102  1  0  0  0
 21 23  1  0  0  0
 22 28  1  0  0  0
 22 32  2  0  0  0
 26 27  1  0  0  0
 28103  1  0  0  0
 28104  1  0  0  0
 29105  1  0  0  0
 29106  1  0  0  0
 33 34  1  0  0  0
 33 66  1  0  0  0
 33 70  2  0  0  0
 34 36  1  0  0  0
 34 59  1  0  0  0
 34107  1  0  0  0
 35 44  2  0  0  0
 35 45  1  0  0  0
 35 68  1  0  0  0
 36 56  1  0  0  0
 36108  1  0  0  0
 37 39  1  0  0  0
 37 47  1  0  0  0
 37 66  1  0  0  0
 37109  1  0  0  0
 38 43  2  0  0  0
 38 46  1  0  0  0
 38 47  1  0  0  0
 39 64  1  0  0  0
 39 67  2  0  0  0
 40 52  1  0  0  0
 40 53  2  0  0  0
 40 58  1  0  0  0
 41110  1  0  0  0
 41111  1  0  0  0
 41112  1  0  0  0
 41 48  1  0  0  0
 42 43  1  0  0  0
 42 66  1  0  0  0
 42113  1  0  0  0
 42114  1  0  0  0
 43 44  1  0  0  0
 44115  1  0  0  0
 45 46  2  0  0  0
 45116  1  0  0  0
 46117  1  0  0  0
 47118  1  0  0  0
 47119  1  0  0  0
 48 56  1  0  0  0
 48 65  1  0  0  0
 48120  1  0  0  0
 49 50  1  0  0  0
 49 53  1  0  0  0
 49 64  1  0  0  0
 49121  1  0  0  0
 50 51  1  0  0  0
 50122  1  0  0  0
 50123  1  0  0  0
 51 52  1  0  0  0
 51124  1  0  0  0
 51125  1  0  0  0
 52126  1  0  0  0
 52127  1  0  0  0
 53 54  1  0  0  0
 54 55  2  0  0  0
 54128  1  0  0  0
 55 57  1  0  0  0
 55129  1  0  0  0
 56 69  2  0  0  0
 57 58  2  0  0  0
 57130  1  0  0  0
 58131  1  0  0  0
 59 60  1  0  0  0
 59 61  1  0  0  0
 59 62  1  0  0  0
 60132  1  0  0  0
 60133  1  0  0  0
 60134  1  0  0  0
 61135  1  0  0  0
 61136  1  0  0  0
 61137  1  0  0  0
 62138  1  0  0  0
 62139  1  0  0  0
 62140  1  0  0  0
 63 65  1  0  0  0
 63141  1  0  0  0
 63142  1  0  0  0
 63143  1  0  0  0
 64144  1  0  0  0
 65145  1  0  0  0
 68 82  1  0  0  0
 71 72  2  0  0  0
 71 74  1  0  0  0
 71146  1  0  0  0
 72 76  1  0  0  0
 72147  1  0  0  0
 73 75  1  0  0  0
 73 76  2  0  0  0
 73148  1  0  0  0
 74 75  2  0  0  0
 74 83  1  0  0  0
 75 84  1  0  0  0
 76 85  1  0  0  0
 77 78  1  0  0  0
 77 79  2  0  0  0
 77 81  1  0  0  0
 78 84  1  0  0  0
 78 86  2  0  0  0
 79149  1  0  0  0
 79150  1  0  0  0
 80 82  1  0  0  0
 80 83  2  0  0  0
 80151  1  0  0  0
 81 84  1  0  0  0
 81152  1  0  0  0
 81153  1  0  0  0
 82154  1  0  0  0
 82155  1  0  0  0
 85156  1  0  0  0
M  ISO  4   1 100  68 101  82 101  85 100
M  END
> <chiral flag>
0

> <version>
0

> <s_m_source_file>
/data/baiqing/PycharmProjects/Reinvent-master-3.2/result/LINK_invent/BTK/process_docking_weight1_custom_product_contain_oxygen_bond_distance_aromatic_linkinvent_7_9_3/rearranged_h_0080.sdf

> <i_m_source_file_index>
55

> <r_mmod_Potential_Energy-OPLS-2005>
564.955078125

> <r_mmod_Stretch_Energy-OPLS-2005>
241.208023071289

> <r_mmod_Bend_Energy-OPLS-2005>
368.343597412109

> <r_mmod_Torsional_Energy-OPLS-2005>
257.236541748047

> <r_mmod_Improper_Torsional_Energy-OPLS-2005>
11.8077983856201

> <r_mmod_Van_der_Waal_Energy-OPLS-2005>
126.726982116699

> <r_mmod_Electrostatic_Energy-OPLS-2005>
-393.207580566406

> <r_mmod_Solvation_Energy-OPLS-2005>
-232.523727416992

> <b_mmod_Minimization_Converged-OPLS-2005>
0

> <r_mmod_RMS_Derivative-OPLS-2005>
3.52941799163818

$$$$
55
                    3D
 Structure written by MMmdl.
153162  0  0  1  0            999 V2000
  -30.6290  -14.8427   20.4116 C   0  0  0  0  0  0
  -30.4373  -12.5216   19.4872 C   0  0  0  0  0  0
  -29.5164  -12.5271   18.2479 C   0  0  0  0  0  0
  -28.0446  -12.3416   18.6604 C   0  0  0  0  0  0
  -27.6400  -13.2561   19.8476 C   0  0  2  0  0  0
  -28.6902  -13.2586   20.9822 C   0  0  0  0  0  0
  -25.2484  -13.8259   20.5679 C   0  0  0  0  0  0
  -24.1802  -13.0458   20.9209 C   0  0  0  0  0  0
  -24.6418  -11.6942   20.8738 C   0  0  0  0  0  0
  -23.9085  -10.4295   21.0368 C   0  0  0  0  0  0
  -24.3615   -9.4198   21.9137 C   0  0  0  0  0  0
  -23.6286   -8.2242   22.0714 C   0  0  0  0  0  0
  -22.4278   -8.0275   21.3516 C   0  0  0  0  0  0
  -21.9913   -9.0261   20.4622 C   0  0  0  0  0  0
  -22.7260  -10.2134   20.3006 C   0  0  0  0  0  0
  -21.6842   -6.0725   22.5251 C   0  0  0  0  0  0
  -21.4016   -6.5618   23.8190 C   0  0  0  0  0  0
  -21.3663   -5.6774   24.9159 C   0  0  0  0  0  0
  -21.6058   -4.3038   24.7204 C   0  0  0  0  0  0
  -21.8828   -3.8121   23.4324 C   0  0  0  0  0  0
  -21.9182   -4.6946   22.3374 C   0  0  0  0  0  0
  -22.7811  -13.5194   21.1837 C   0  0  0  0  0  0
  -22.1660   -4.2109   21.0964 F   0  0  0  0  0  0
  -21.5636   -3.4529   25.7724 F   0  0  0  0  0  0
  -29.9848  -13.6171   20.3844 N   0  0  0  0  0  0
  -26.2953  -12.9509   20.3313 N   0  0  0  0  0  0
  -25.9363  -11.6612   20.5766 N   0  0  0  0  0  0
  -22.0444  -12.8218   22.0410 N   0  0  0  0  0  0
  -25.4105  -15.1986   20.4019 N   0  0  0  0  0  0
  -31.8296  -14.8760   20.1294 O   0  0  0  0  0  0
  -21.6633   -6.8882   21.4225 O   0  0  0  0  0  0
  -22.3482  -14.5470   20.6634 O   0  0  0  0  0  0
  -24.6342  -31.8446   23.1898 C   0  0  0  0  0  0
  -25.9148  -32.4705   23.8255 C   0  0  1  0  0  0
  -27.2495  -27.2213   20.1338 C   0  0  0  0  0  0
  -25.5940  -33.8514   24.2208 N   0  0  0  0  0  0
  -23.4323  -30.4621   21.5336 C   0  0  2  0  0  0
  -24.8885  -28.8977   20.1039 C   0  0  0  0  0  0
  -22.7513  -29.4524   22.4899 C   0  0  0  0  0  0
  -18.0294  -28.1355   22.8477 C   0  0  0  0  0  0
  -24.1508  -36.7267   23.2634 C   0  0  0  0  0  0
  -25.9780  -30.7472   21.3708 C   0  0  0  0  0  0
  -26.0564  -29.3618   20.7214 C   0  0  0  0  0  0
  -27.2299  -28.5342   20.7313 C   0  0  0  0  0  0
  -26.0581  -26.8321   19.4792 C   0  0  0  0  0  0
  -24.8983  -27.6432   19.4699 C   0  0  0  0  0  0
  -23.6543  -29.7816   20.1538 C   0  0  0  0  0  0
  -25.4125  -36.3036   24.0331 C   0  0  1  0  0  0
  -20.5898  -28.3656   23.1287 C   0  0  2  0  0  0
  -20.6741  -26.9370   22.5423 C   0  0  0  0  0  0
  -19.5743  -26.6350   21.5198 C   0  0  0  0  0  0
  -18.1923  -26.7916   22.1599 C   0  0  0  0  0  0
  -19.1538  -28.8836   23.2887 C   0  0  0  0  0  0
  -18.9455  -30.1439   23.8892 C   0  0  0  0  0  0
  -17.6461  -30.6566   24.0541 C   0  0  0  0  0  0
  -25.9063  -34.9404   23.5072 C   0  0  0  0  0  0
  -16.5348  -29.9067   23.6321 C   0  0  0  0  0  0
  -16.7277  -28.6476   23.0349 C   0  0  0  0  0  0
  -26.4511  -31.6550   25.0666 C   0  0  0  0  0  0
  -25.3753  -31.3727   26.1424 C   0  0  0  0  0  0
  -27.0271  -30.2935   24.6123 C   0  0  0  0  0  0
  -27.6112  -32.4245   25.7423 C   0  0  0  0  0  0
  -27.5594  -37.1772   24.8454 C   0  0  0  0  0  0
  -21.4216  -29.3011   22.3681 N   0  0  0  0  0  0
  -26.4273  -37.3755   23.9448 N   0  0  0  0  0  0
  -24.7008  -31.0384   22.0879 N   0  0  0  0  0  0
  -23.4222  -28.8075   23.2985 O   0  0  0  0  0  0
  -28.3446  -26.3131   20.2632 O   0  0  0  0  0  0
  -26.5645  -34.8882   22.4646 O   0  0  0  0  0  0
  -23.5494  -32.1270   23.7206 O   0  0  0  0  0  0
  -29.5772  -18.7038   20.5789 C   0  0  0  0  0  0
  -30.9550  -20.0035   19.0982 C   0  0  0  0  0  0
  -31.2631  -17.6837   19.1962 C   0  0  0  0  0  0
  -29.9115  -20.0308   20.0456 C   0  0  0  0  0  0
  -30.2430  -17.4620   20.1522 C   0  0  0  0  0  0
  -28.8141  -23.7528   20.2853 C   0  0  0  0  0  0
  -29.1809  -23.4214   21.6436 C   0  0  0  0  0  0
  -28.9974  -22.4421   19.5607 C   0  0  0  0  0  0
  -29.3233  -24.2990   22.6548 C   0  0  0  0  0  0
  -28.3977  -24.9763   19.7219 C   0  0  0  0  0  0
  -29.4418  -21.9227   21.7828 C   0  0  0  0  0  0
  -31.6077  -18.8919   18.6966 N   0  0  0  0  0  0
  -29.3650  -21.3937   20.4116 N   0  0  0  0  0  0
  -29.9096  -16.0407   20.5648 N   0  0  0  0  0  0
  -28.8498  -22.2788   18.3465 O   0  0  0  0  0  0
  -31.4720  -12.6525   19.1699 H   0  0  0  0  0  0
  -30.4097  -11.5641   20.0114 H   0  0  0  0  0  0
  -29.8132  -11.7445   17.5507 H   0  0  0  0  0  0
  -29.6259  -13.4755   17.7203 H   0  0  0  0  0  0
  -27.9067  -11.2970   18.9356 H   0  0  0  0  0  0
  -27.3872  -12.5268   17.8096 H   0  0  0  0  0  0
  -27.6123  -14.2651   19.4369 H   0  0  0  0  0  0
  -28.7525  -12.2910   21.4802 H   0  0  0  0  0  0
  -28.4098  -13.9838   21.7473 H   0  0  0  0  0  0
  -25.2735   -9.5667   22.4748 H   0  0  0  0  0  0
  -23.9960   -7.4631   22.7454 H   0  0  0  0  0  0
  -21.0813   -8.8792   19.8966 H   0  0  0  0  0  0
  -22.3687  -10.9663   19.6109 H   0  0  0  0  0  0
  -21.2016   -7.6132   23.9684 H   0  0  0  0  0  0
  -21.1493   -6.0502   25.9067 H   0  0  0  0  0  0
  -22.0608   -2.7573   23.2815 H   0  0  0  0  0  0
  -22.4049  -11.9906   22.4841 H   0  0  0  0  0  0
  -21.1033  -13.1201   22.2537 H   0  0  0  0  0  0
  -24.6372  -15.8474   20.4951 H   0  0  0  0  0  0
  -26.2513  -15.6360   20.0450 H   0  0  0  0  0  0
  -26.7223  -32.5332   23.0998 H   0  0  0  0  0  0
  -25.0084  -33.9643   25.0353 H   0  0  0  0  0  0
  -22.7274  -31.2828   21.3821 H   0  0  0  0  0  0
  -23.3765  -35.9601   23.3238 H   0  0  0  0  0  0
  -24.3623  -36.8935   22.2055 H   0  0  0  0  0  0
  -23.7238  -37.6430   23.6709 H   0  0  0  0  0  0
  -26.1021  -31.4951   20.5869 H   0  0  0  0  0  0
  -26.8611  -30.8161   21.9957 H   0  0  0  0  0  0
  -28.1118  -28.8799   21.2523 H   0  0  0  0  0  0
  -25.9947  -25.8620   19.0077 H   0  0  0  0  0  0
  -24.0057  -27.2787   18.9805 H   0  0  0  0  0  0
  -23.7738  -30.5501   19.3903 H   0  0  0  0  0  0
  -22.7737  -29.2076   19.8567 H   0  0  0  0  0  0
  -25.1311  -36.1823   25.0819 H   0  0  0  0  0  0
  -21.0004  -28.3203   24.1407 H   0  0  0  0  0  0
  -20.5537  -26.2282   23.3624 H   0  0  0  0  0  0
  -21.6619  -26.7319   22.1276 H   0  0  0  0  0  0
  -19.6882  -25.6256   21.1232 H   0  0  0  0  0  0
  -19.6697  -27.3164   20.6738 H   0  0  0  0  0  0
  -17.4197  -26.6691   21.3989 H   0  0  0  0  0  0
  -18.0327  -26.0051   22.8986 H   0  0  0  0  0  0
  -19.7941  -30.7239   24.2269 H   0  0  0  0  0  0
  -17.5015  -31.6259   24.5117 H   0  0  0  0  0  0
  -15.5350  -30.2938   23.7644 H   0  0  0  0  0  0
  -15.8698  -28.0780   22.7062 H   0  0  0  0  0  0
  -24.6012  -30.6962   25.7809 H   0  0  0  0  0  0
  -24.8846  -32.2879   26.4725 H   0  0  0  0  0  0
  -25.8101  -30.9029   27.0254 H   0  0  0  0  0  0
  -26.2792  -29.6731   24.1175 H   0  0  0  0  0  0
  -27.3950  -29.7167   25.4607 H   0  0  0  0  0  0
  -27.8708  -30.4150   23.9342 H   0  0  0  0  0  0
  -27.2814  -33.3590   26.1964 H   0  0  0  0  0  0
  -28.3960  -32.6677   25.0263 H   0  0  0  0  0  0
  -28.0755  -31.8349   26.5330 H   0  0  0  0  0  0
  -28.2563  -38.0099   24.7525 H   0  0  0  0  0  0
  -28.1111  -36.2633   24.6226 H   0  0  0  0  0  0
  -27.2349  -37.1368   25.8852 H   0  0  0  0  0  0
  -20.9400  -29.8765   21.6903 H   0  0  0  0  0  0
  -26.0117  -38.2810   24.1448 H   0  0  0  0  0  0
  -28.7973  -18.6350   21.3208 H   0  0  0  0  0  0
  -31.3228  -20.9243   18.6678 H   0  0  0  0  0  0
  -31.8225  -16.8713   18.7603 H   0  0  0  0  0  0
  -29.1573  -25.3571   22.5230 H   0  0  0  0  0  0
  -29.6116  -23.9672   23.6427 H   0  0  0  0  0  0
  -28.1691  -25.0102   18.6642 H   0  0  0  0  0  0
  -28.6965  -21.4570   22.4282 H   0  0  0  0  0  0
  -30.4314  -21.7486   22.2100 H   0  0  0  0  0  0
  -28.9688  -15.9049   20.9028 H   0  0  0  0  0  0
  1 25  1  0  0  0
  1 30  2  0  0  0
  1 84  1  0  0  0
  2  3  1  0  0  0
  2 25  1  0  0  0
  2 86  1  0  0  0
  2 87  1  0  0  0
  3  4  1  0  0  0
  3 88  1  0  0  0
  3 89  1  0  0  0
  4  5  1  0  0  0
  4 90  1  0  0  0
  4 91  1  0  0  0
  5  6  1  0  0  0
  5 26  1  0  0  0
  5 92  1  0  0  0
  6 25  1  0  0  0
  6 93  1  0  0  0
  6 94  1  0  0  0
  7  8  2  0  0  0
  7 26  1  0  0  0
  7 29  1  0  0  0
  8  9  1  0  0  0
  8 22  1  0  0  0
  9 10  1  0  0  0
  9 27  2  0  0  0
 10 11  2  0  0  0
 10 15  1  0  0  0
 11 12  1  0  0  0
 11 95  1  0  0  0
 12 13  2  0  0  0
 12 96  1  0  0  0
 13 14  1  0  0  0
 13 31  1  0  0  0
 14 15  2  0  0  0
 14 97  1  0  0  0
 15 98  1  0  0  0
 16 17  2  0  0  0
 16 21  1  0  0  0
 16 31  1  0  0  0
 17 18  1  0  0  0
 17 99  1  0  0  0
 18 19  2  0  0  0
 18100  1  0  0  0
 19 20  1  0  0  0
 19 24  1  0  0  0
 20 21  2  0  0  0
 20101  1  0  0  0
 21 23  1  0  0  0
 22 28  1  0  0  0
 22 32  2  0  0  0
 26 27  1  0  0  0
 28102  1  0  0  0
 28103  1  0  0  0
 29104  1  0  0  0
 29105  1  0  0  0
 33 34  1  0  0  0
 33 66  1  0  0  0
 33 70  2  0  0  0
 34 36  1  0  0  0
 34 59  1  0  0  0
 34106  1  0  0  0
 35 44  2  0  0  0
 35 45  1  0  0  0
 35 68  1  0  0  0
 36 56  1  0  0  0
 36107  1  0  0  0
 37 39  1  0  0  0
 37 47  1  0  0  0
 37 66  1  0  0  0
 37108  1  0  0  0
 38 43  2  0  0  0
 38 46  1  0  0  0
 38 47  1  0  0  0
 39 64  1  0  0  0
 39 67  2  0  0  0
 40 52  1  0  0  0
 40 53  2  0  0  0
 40 58  1  0  0  0
 41109  1  0  0  0
 41110  1  0  0  0
 41111  1  0  0  0
 41 48  1  0  0  0
 42 43  1  0  0  0
 42 66  1  0  0  0
 42112  1  0  0  0
 42113  1  0  0  0
 43 44  1  0  0  0
 44114  1  0  0  0
 45 46  2  0  0  0
 45115  1  0  0  0
 46116  1  0  0  0
 47117  1  0  0  0
 47118  1  0  0  0
 48 56  1  0  0  0
 48 65  1  0  0  0
 48119  1  0  0  0
 49 50  1  0  0  0
 49 53  1  0  0  0
 49 64  1  0  0  0
 49120  1  0  0  0
 50 51  1  0  0  0
 50121  1  0  0  0
 50122  1  0  0  0
 51 52  1  0  0  0
 51123  1  0  0  0
 51124  1  0  0  0
 52125  1  0  0  0
 52126  1  0  0  0
 53 54  1  0  0  0
 54 55  2  0  0  0
 54127  1  0  0  0
 55 57  1  0  0  0
 55128  1  0  0  0
 56 69  2  0  0  0
 57 58  2  0  0  0
 57129  1  0  0  0
 58130  1  0  0  0
 59 60  1  0  0  0
 59 61  1  0  0  0
 59 62  1  0  0  0
 60131  1  0  0  0
 60132  1  0  0  0
 60133  1  0  0  0
 61134  1  0  0  0
 61135  1  0  0  0
 61136  1  0  0  0
 62137  1  0  0  0
 62138  1  0  0  0
 62139  1  0  0  0
 63 65  1  0  0  0
 63140  1  0  0  0
 63141  1  0  0  0
 63142  1  0  0  0
 64143  1  0  0  0
 65144  1  0  0  0
 68 80  1  0  0  0
 71 74  2  0  0  0
 71 75  1  0  0  0
 71145  1  0  0  0
 72 74  1  0  0  0
 72 82  2  0  0  0
 72146  1  0  0  0
 73 75  2  0  0  0
 73 82  1  0  0  0
 73147  1  0  0  0
 74 83  1  0  0  0
 75 84  1  0  0  0
 76 77  1  0  0  0
 76 78  1  0  0  0
 76 80  2  0  0  0
 77 79  2  0  0  0
 77 81  1  0  0  0
 78 83  1  0  0  0
 78 85  2  0  0  0
 79148  1  0  0  0
 79149  1  0  0  0
 80150  1  0  0  0
 81 83  1  0  0  0
 81151  1  0  0  0
 81152  1  0  0  0
 84153  1  0  0  0
M  ISO  4   1 100  68 101  80 101  84 100
M  END
> <chiral flag>
0

> <version>
0

> <s_m_source_file>
/data/baiqing/PycharmProjects/Reinvent-master-3.2/result/LINK_invent/BTK/process_docking_weight1_custom_product_contain_oxygen_bond_distance_aromatic_linkinvent_7_9_3/rearranged_h_0080.sdf

> <i_m_source_file_index>
56

> <r_mmod_Potential_Energy-OPLS-2005>
213.309494018555

> <r_mmod_Stretch_Energy-OPLS-2005>
160.435974121094

> <r_mmod_Bend_Energy-OPLS-2005>
232.946990966797

> <r_mmod_Torsional_Energy-OPLS-2005>
289.697784423828

> <r_mmod_Improper_Torsional_Energy-OPLS-2005>
5.34333753585815

> <r_mmod_Van_der_Waal_Energy-OPLS-2005>
134.111221313477

> <r_mmod_Electrostatic_Energy-OPLS-2005>
-507.993713378906

> <r_mmod_Solvation_Energy-OPLS-2005>
-228.351348876953

> <b_mmod_Minimization_Converged-OPLS-2005>
0

> <r_mmod_RMS_Derivative-OPLS-2005>
4.50609874725342

$$$$
56
                    3D
 Structure written by MMmdl.
155164  0  0  1  0            999 V2000
  -30.6157  -14.8223   20.4194 C   0  0  0  0  0  0
  -30.4292  -12.4979   19.4961 C   0  0  0  0  0  0
  -29.5203  -12.5093   18.2487 C   0  0  0  0  0  0
  -28.0473  -12.3267   18.6595 C   0  0  0  0  0  0
  -27.6391  -13.2455   19.8427 C   0  0  2  0  0  0
  -28.6816  -13.2385   20.9816 C   0  0  0  0  0  0
  -25.2515  -13.8222   20.5696 C   0  0  0  0  0  0
  -24.1810  -13.0452   20.9190 C   0  0  0  0  0  0
  -24.6413  -11.6932   20.8728 C   0  0  0  0  0  0
  -23.9093  -10.4300   21.0386 C   0  0  0  0  0  0
  -24.3632   -9.4215   21.9174 C   0  0  0  0  0  0
  -23.6294   -8.2254   22.0757 C   0  0  0  0  0  0
  -22.4275   -8.0294   21.3554 C   0  0  0  0  0  0
  -21.9916   -9.0269   20.4661 C   0  0  0  0  0  0
  -22.7255  -10.2137   20.3053 C   0  0  0  0  0  0
  -21.6866   -6.0733   22.5269 C   0  0  0  0  0  0
  -21.4030   -6.5630   23.8202 C   0  0  0  0  0  0
  -21.3657   -5.6783   24.9163 C   0  0  0  0  0  0
  -21.6039   -4.3045   24.7217 C   0  0  0  0  0  0
  -21.8827   -3.8142   23.4337 C   0  0  0  0  0  0
  -21.9198   -4.6961   22.3393 C   0  0  0  0  0  0
  -22.7831  -13.5230   21.1843 C   0  0  0  0  0  0
  -22.1669   -4.2144   21.0973 F   0  0  0  0  0  0
  -21.5621   -3.4532   25.7727 F   0  0  0  0  0  0
  -29.9766  -13.5954   20.3918 N   0  0  0  0  0  0
  -26.2943  -12.9452   20.3257 N   0  0  0  0  0  0
  -25.9352  -11.6580   20.5737 N   0  0  0  0  0  0
  -22.0476  -12.8225   22.0401 N   0  0  0  0  0  0
  -25.4201  -15.1945   20.4101 N   0  0  0  0  0  0
  -31.8196  -14.8404   20.1490 O   0  0  0  0  0  0
  -21.6649   -6.8882   21.4236 O   0  0  0  0  0  0
  -22.3512  -14.5530   20.6679 O   0  0  0  0  0  0
  -24.6375  -31.8500   23.1930 C   0  0  0  0  0  0
  -25.9179  -32.4730   23.8288 C   0  0  1  0  0  0
  -27.2248  -27.2170   20.1189 C   0  0  0  0  0  0
  -25.5952  -33.8529   24.2219 N   0  0  0  0  0  0
  -23.4355  -30.4715   21.5368 C   0  0  2  0  0  0
  -24.8821  -28.9089   20.1073 C   0  0  0  0  0  0
  -22.7532  -29.4574   22.4880 C   0  0  0  0  0  0
  -18.0301  -28.1394   22.8469 C   0  0  0  0  0  0
  -24.1491  -36.7269   23.2636 C   0  0  0  0  0  0
  -25.9851  -30.7496   21.3764 C   0  0  0  0  0  0
  -26.0578  -29.3683   20.7142 C   0  0  0  0  0  0
  -27.2287  -28.5354   20.7062 C   0  0  0  0  0  0
  -26.0150  -26.8276   19.5022 C   0  0  0  0  0  0
  -24.8681  -27.6478   19.4909 C   0  0  0  0  0  0
  -23.6563  -29.8034   20.1537 C   0  0  0  0  0  0
  -25.4118  -36.3048   24.0318 C   0  0  1  0  0  0
  -20.5910  -28.3712   23.1246 C   0  0  2  0  0  0
  -20.6789  -26.9425   22.5400 C   0  0  0  0  0  0
  -19.5766  -26.6381   21.5204 C   0  0  0  0  0  0
  -18.1945  -26.7931   22.1614 C   0  0  0  0  0  0
  -19.1556  -28.8869   23.2853 C   0  0  0  0  0  0
  -18.9474  -30.1465   23.8882 C   0  0  0  0  0  0
  -17.6474  -30.6589   24.0559 C   0  0  0  0  0  0
  -25.9064  -34.9425   23.5069 C   0  0  0  0  0  0
  -16.5365  -29.9084   23.6335 C   0  0  0  0  0  0
  -16.7286  -28.6505   23.0346 C   0  0  0  0  0  0
  -26.4523  -31.6572   25.0703 C   0  0  0  0  0  0
  -25.3724  -31.3760   26.1414 C   0  0  0  0  0  0
  -27.0369  -30.2975   24.6227 C   0  0  0  0  0  0
  -27.6059  -32.4324   25.7496 C   0  0  0  0  0  0
  -27.5581  -37.1788   24.8455 C   0  0  0  0  0  0
  -21.4236  -29.3050   22.3633 N   0  0  0  0  0  0
  -26.4279  -37.3760   23.9415 N   0  0  0  0  0  0
  -24.7055  -31.0427   22.0917 N   0  0  0  0  0  0
  -23.4217  -28.8117   23.2992 O   0  0  0  0  0  0
  -28.3049  -26.2887   20.2251 O   0  0  0  0  0  0
  -26.5634  -34.8918   22.4643 O   0  0  0  0  0  0
  -23.5515  -32.1326   23.7208 O   0  0  0  0  0  0
  -31.5484  -18.8907   18.6643 C   0  0  0  0  0  0
  -30.8418  -20.0483   19.0311 C   0  0  0  0  0  0
  -31.2254  -17.6274   19.1895 C   0  0  0  0  0  0
  -29.4707  -18.6797   20.5032 C   0  0  0  0  0  0
  -29.7723  -20.0189   19.9548 C   0  0  0  0  0  0
  -30.1837  -17.4379   20.1289 C   0  0  0  0  0  0
  -28.6503  -23.7363   20.1042 C   0  0  0  0  0  0
  -28.7601  -23.3824   21.5139 C   0  0  0  0  0  0
  -28.9023  -22.4286   19.3964 C   0  0  0  0  0  0
  -28.3945  -25.0126   19.5511 C   0  0  0  0  0  0
  -29.0014  -21.8630   21.6496 C   0  0  0  0  0  0
  -28.3491  -25.2239   18.0396 C   0  0  0  0  0  0
  -29.1590  -21.3689   20.2735 N   0  0  0  0  0  0
  -29.8864  -16.0196   20.5757 N   0  0  0  0  0  0
  -28.6729  -24.1411   22.4844 O   0  0  0  0  0  0
  -28.8844  -22.2705   18.1695 O   0  0  0  0  0  0
  -31.4743  -12.6030   19.1982 H   0  0  0  0  0  0
  -30.3663  -11.5374   20.0093 H   0  0  0  0  0  0
  -29.8154  -11.7197   17.5555 H   0  0  0  0  0  0
  -29.6444  -13.4510   17.7110 H   0  0  0  0  0  0
  -27.9126  -11.2818   18.9408 H   0  0  0  0  0  0
  -27.3944  -12.4974   17.8032 H   0  0  0  0  0  0
  -27.6170  -14.2558   19.4320 H   0  0  0  0  0  0
  -28.7326  -12.2609   21.4618 H   0  0  0  0  0  0
  -28.4078  -13.9529   21.7594 H   0  0  0  0  0  0
  -25.2776   -9.5685   22.4756 H   0  0  0  0  0  0
  -23.9999   -7.4647   22.7478 H   0  0  0  0  0  0
  -21.0849   -8.8800   19.8963 H   0  0  0  0  0  0
  -22.3719  -10.9679   19.6167 H   0  0  0  0  0  0
  -21.2035   -7.6139   23.9702 H   0  0  0  0  0  0
  -21.1471   -6.0515   25.9063 H   0  0  0  0  0  0
  -22.0607   -2.7605   23.2841 H   0  0  0  0  0  0
  -22.4094  -11.9900   22.4809 H   0  0  0  0  0  0
  -21.1103  -13.1272   22.2598 H   0  0  0  0  0  0
  -24.6491  -15.8467   20.5049 H   0  0  0  0  0  0
  -26.2623  -15.6294   20.0561 H   0  0  0  0  0  0
  -26.7237  -32.5364   23.1016 H   0  0  0  0  0  0
  -25.0119  -33.9640   25.0378 H   0  0  0  0  0  0
  -22.7346  -31.2955   21.3875 H   0  0  0  0  0  0
  -23.3755  -35.9591   23.3268 H   0  0  0  0  0  0
  -24.3586  -36.8926   22.2053 H   0  0  0  0  0  0
  -23.7231  -37.6458   23.6681 H   0  0  0  0  0  0
  -26.1282  -31.5108   20.6081 H   0  0  0  0  0  0
  -26.8609  -30.7997   22.0121 H   0  0  0  0  0  0
  -28.1278  -28.8792   21.1974 H   0  0  0  0  0  0
  -25.9261  -25.8481   19.0560 H   0  0  0  0  0  0
  -23.9629  -27.2830   19.0249 H   0  0  0  0  0  0
  -23.7915  -30.5784   19.3981 H   0  0  0  0  0  0
  -22.7717  -29.2443   19.8438 H   0  0  0  0  0  0
  -25.1296  -36.1878   25.0802 H   0  0  0  0  0  0
  -20.9994  -28.3299   24.1368 H   0  0  0  0  0  0
  -20.5686  -26.2325   23.3608 H   0  0  0  0  0  0
  -21.6658  -26.7444   22.1206 H   0  0  0  0  0  0
  -19.6928  -25.6288   21.1248 H   0  0  0  0  0  0
  -19.6694  -27.3174   20.6719 H   0  0  0  0  0  0
  -17.4211  -26.6661   21.4023 H   0  0  0  0  0  0
  -18.0352  -26.0086   22.9022 H   0  0  0  0  0  0
  -19.7950  -30.7279   24.2247 H   0  0  0  0  0  0
  -17.5030  -31.6267   24.5163 H   0  0  0  0  0  0
  -15.5370  -30.2977   23.7670 H   0  0  0  0  0  0
  -15.8686  -28.0823   22.7065 H   0  0  0  0  0  0
  -24.5883  -30.7128   25.7750 H   0  0  0  0  0  0
  -24.8942  -32.2949   26.4810 H   0  0  0  0  0  0
  -25.8021  -30.8954   27.0208 H   0  0  0  0  0  0
  -26.2962  -29.6718   24.1237 H   0  0  0  0  0  0
  -27.4007  -29.7256   25.4773 H   0  0  0  0  0  0
  -27.8855  -30.4227   23.9500 H   0  0  0  0  0  0
  -27.2644  -33.3617   26.2063 H   0  0  0  0  0  0
  -28.3885  -32.6896   25.0348 H   0  0  0  0  0  0
  -28.0702  -31.8457   26.5431 H   0  0  0  0  0  0
  -28.2571  -38.0117   24.7549 H   0  0  0  0  0  0
  -28.1110  -36.2651   24.6214 H   0  0  0  0  0  0
  -27.2314  -37.1360   25.8862 H   0  0  0  0  0  0
  -20.9431  -29.8772   21.6831 H   0  0  0  0  0  0
  -26.0150  -38.2823   24.1443 H   0  0  0  0  0  0
  -32.3623  -18.9726   17.9570 H   0  0  0  0  0  0
  -31.1616  -20.9851   18.5948 H   0  0  0  0  0  0
  -31.8124  -16.8005   18.8212 H   0  0  0  0  0  0
  -28.6598  -18.6047   21.2148 H   0  0  0  0  0  0
  -28.1519  -21.3830   22.1348 H   0  0  0  0  0  0
  -29.8997  -21.6740   22.2365 H   0  0  0  0  0  0
  -27.5498  -24.6281   17.5955 H   0  0  0  0  0  0
  -29.2929  -24.9224   17.5829 H   0  0  0  0  0  0
  -28.1763  -26.2651   17.7676 H   0  0  0  0  0  0
  -28.9593  -15.8803   20.9490 H   0  0  0  0  0  0
  1 25  1  0  0  0
  1 30  2  0  0  0
  1 84  1  0  0  0
  2  3  1  0  0  0
  2 25  1  0  0  0
  2 87  1  0  0  0
  2 88  1  0  0  0
  3  4  1  0  0  0
  3 89  1  0  0  0
  3 90  1  0  0  0
  4  5  1  0  0  0
  4 91  1  0  0  0
  4 92  1  0  0  0
  5  6  1  0  0  0
  5 26  1  0  0  0
  5 93  1  0  0  0
  6 25  1  0  0  0
  6 94  1  0  0  0
  6 95  1  0  0  0
  7  8  2  0  0  0
  7 26  1  0  0  0
  7 29  1  0  0  0
  8  9  1  0  0  0
  8 22  1  0  0  0
  9 10  1  0  0  0
  9 27  2  0  0  0
 10 11  2  0  0  0
 10 15  1  0  0  0
 11 12  1  0  0  0
 11 96  1  0  0  0
 12 13  2  0  0  0
 12 97  1  0  0  0
 13 14  1  0  0  0
 13 31  1  0  0  0
 14 15  2  0  0  0
 14 98  1  0  0  0
 15 99  1  0  0  0
 16 17  2  0  0  0
 16 21  1  0  0  0
 16 31  1  0  0  0
 17 18  1  0  0  0
 17100  1  0  0  0
 18 19  2  0  0  0
 18101  1  0  0  0
 19 20  1  0  0  0
 19 24  1  0  0  0
 20 21  2  0  0  0
 20102  1  0  0  0
 21 23  1  0  0  0
 22 28  1  0  0  0
 22 32  2  0  0  0
 26 27  1  0  0  0
 28103  1  0  0  0
 28104  1  0  0  0
 29105  1  0  0  0
 29106  1  0  0  0
 33 34  1  0  0  0
 33 66  1  0  0  0
 33 70  2  0  0  0
 34 36  1  0  0  0
 34 59  1  0  0  0
 34107  1  0  0  0
 35 44  2  0  0  0
 35 45  1  0  0  0
 35 68  1  0  0  0
 36 56  1  0  0  0
 36108  1  0  0  0
 37 39  1  0  0  0
 37 47  1  0  0  0
 37 66  1  0  0  0
 37109  1  0  0  0
 38 43  2  0  0  0
 38 46  1  0  0  0
 38 47  1  0  0  0
 39 64  1  0  0  0
 39 67  2  0  0  0
 40 52  1  0  0  0
 40 53  2  0  0  0
 40 58  1  0  0  0
 41110  1  0  0  0
 41111  1  0  0  0
 41112  1  0  0  0
 41 48  1  0  0  0
 42 43  1  0  0  0
 42 66  1  0  0  0
 42113  1  0  0  0
 42114  1  0  0  0
 43 44  1  0  0  0
 44115  1  0  0  0
 45 46  2  0  0  0
 45116  1  0  0  0
 46117  1  0  0  0
 47118  1  0  0  0
 47119  1  0  0  0
 48 56  1  0  0  0
 48 65  1  0  0  0
 48120  1  0  0  0
 49 50  1  0  0  0
 49 53  1  0  0  0
 49 64  1  0  0  0
 49121  1  0  0  0
 50 51  1  0  0  0
 50122  1  0  0  0
 50123  1  0  0  0
 51 52  1  0  0  0
 51124  1  0  0  0
 51125  1  0  0  0
 52126  1  0  0  0
 52127  1  0  0  0
 53 54  1  0  0  0
 54 55  2  0  0  0
 54128  1  0  0  0
 55 57  1  0  0  0
 55129  1  0  0  0
 56 69  2  0  0  0
 57 58  2  0  0  0
 57130  1  0  0  0
 58131  1  0  0  0
 59 60  1  0  0  0
 59 61  1  0  0  0
 59 62  1  0  0  0
 60132  1  0  0  0
 60133  1  0  0  0
 60134  1  0  0  0
 61135  1  0  0  0
 61136  1  0  0  0
 61137  1  0  0  0
 62138  1  0  0  0
 62139  1  0  0  0
 62140  1  0  0  0
 63 65  1  0  0  0
 63141  1  0  0  0
 63142  1  0  0  0
 63143  1  0  0  0
 64144  1  0  0  0
 65145  1  0  0  0
 68 80  1  0  0  0
 71 72  2  0  0  0
 71 73  1  0  0  0
 71146  1  0  0  0
 72 75  1  0  0  0
 72147  1  0  0  0
 73 76  2  0  0  0
 73148  1  0  0  0
 74 75  2  0  0  0
 74 76  1  0  0  0
 74149  1  0  0  0
 75 83  1  0  0  0
 76 84  1  0  0  0
 77 78  1  0  0  0
 77 79  1  0  0  0
 77 80  2  0  0  0
 78 81  1  0  0  0
 78 85  2  0  0  0
 79 83  1  0  0  0
 79 86  2  0  0  0
 80 82  1  0  0  0
 81 83  1  0  0  0
 81150  1  0  0  0
 81151  1  0  0  0
 82152  1  0  0  0
 82153  1  0  0  0
 82154  1  0  0  0
 84155  1  0  0  0
M  ISO  4   1 100  68 101  80 101  84 100
M  END
> <chiral flag>
0

> <version>
0

> <s_m_source_file>
/data/baiqing/PycharmProjects/Reinvent-master-3.2/result/LINK_invent/BTK/process_docking_weight1_custom_product_contain_oxygen_bond_distance_aromatic_linkinvent_7_9_3/rearranged_h_0080.sdf

> <i_m_source_file_index>
57

> <r_mmod_Potential_Energy-OPLS-2005>
394.262725830078

> <r_mmod_Stretch_Energy-OPLS-2005>
169.347457885742

> <r_mmod_Bend_Energy-OPLS-2005>
232.056488037109

> <r_mmod_Torsional_Energy-OPLS-2005>
281.319061279297

> <r_mmod_Improper_Torsional_Energy-OPLS-2005>
4.86860942840576

> <r_mmod_Van_der_Waal_Energy-OPLS-2005>
140.833587646484

> <r_mmod_Electrostatic_Energy-OPLS-2005>
-322.615020751953

> <r_mmod_Solvation_Energy-OPLS-2005>
-233.223236083984

> <b_mmod_Minimization_Converged-OPLS-2005>
0

> <r_mmod_RMS_Derivative-OPLS-2005>
1.99543023109436

$$$$
57
                    3D
 Structure written by MMmdl.
160169  0  0  1  0            999 V2000
  -30.5883  -14.7037   20.4852 C   0  0  0  0  0  0
  -30.4454  -12.4317   19.4589 C   0  0  0  0  0  0
  -29.5126  -12.5159   18.2290 C   0  0  0  0  0  0
  -28.0361  -12.3416   18.6404 C   0  0  0  0  0  0
  -27.6504  -13.2189   19.8606 C   0  0  2  0  0  0
  -28.6963  -13.0966   20.9913 C   0  0  0  0  0  0
  -25.2548  -13.8166   20.5690 C   0  0  0  0  0  0
  -24.1820  -13.0429   20.9191 C   0  0  0  0  0  0
  -24.6394  -11.6903   20.8740 C   0  0  0  0  0  0
  -23.9063  -10.4289   21.0406 C   0  0  0  0  0  0
  -24.3618   -9.4206   21.9183 C   0  0  0  0  0  0
  -23.6294   -8.2240   22.0754 C   0  0  0  0  0  0
  -22.4275   -8.0280   21.3545 C   0  0  0  0  0  0
  -21.9910   -9.0251   20.4645 C   0  0  0  0  0  0
  -22.7236  -10.2129   20.3054 C   0  0  0  0  0  0
  -21.6851   -6.0736   22.5281 C   0  0  0  0  0  0
  -21.4011   -6.5640   23.8214 C   0  0  0  0  0  0
  -21.3660   -5.6791   24.9176 C   0  0  0  0  0  0
  -21.6047   -4.3054   24.7225 C   0  0  0  0  0  0
  -21.8819   -3.8147   23.4346 C   0  0  0  0  0  0
  -21.9193   -4.6964   22.3404 C   0  0  0  0  0  0
  -22.7843  -13.5225   21.1854 C   0  0  0  0  0  0
  -22.1663   -4.2150   21.0980 F   0  0  0  0  0  0
  -21.5631   -3.4537   25.7738 F   0  0  0  0  0  0
  -30.0048  -13.4602   20.4246 N   0  0  0  0  0  0
  -26.2976  -12.9351   20.3309 N   0  0  0  0  0  0
  -25.9323  -11.6506   20.5751 N   0  0  0  0  0  0
  -22.0482  -12.8223   22.0412 N   0  0  0  0  0  0
  -25.4240  -15.1892   20.4131 N   0  0  0  0  0  0
  -31.7583  -14.8723   20.1263 O   0  0  0  0  0  0
  -21.6640   -6.8878   21.4242 O   0  0  0  0  0  0
  -22.3535  -14.5535   20.6704 O   0  0  0  0  0  0
  -24.6291  -31.8564   23.1986 C   0  0  0  0  0  0
  -25.9125  -32.4759   23.8329 C   0  0  1  0  0  0
  -27.2327  -27.2918   20.1097 C   0  0  0  0  0  0
  -25.5928  -33.8561   24.2259 N   0  0  0  0  0  0
  -23.4243  -30.4785   21.5422 C   0  0  2  0  0  0
  -24.8710  -28.9269   20.1108 C   0  0  0  0  0  0
  -22.7489  -29.4606   22.4925 C   0  0  0  0  0  0
  -18.0287  -28.1385   22.8483 C   0  0  0  0  0  0
  -24.1489  -36.7287   23.2638 C   0  0  0  0  0  0
  -25.9674  -30.7787   21.3721 C   0  0  0  0  0  0
  -26.0418  -29.4036   20.7129 C   0  0  0  0  0  0
  -27.2222  -28.5976   20.7018 C   0  0  0  0  0  0
  -26.0257  -26.8633   19.5106 C   0  0  0  0  0  0
  -24.8659  -27.6627   19.5019 C   0  0  0  0  0  0
  -23.6400  -29.8103   20.1588 C   0  0  0  0  0  0
  -25.4114  -36.3072   24.0327 C   0  0  1  0  0  0
  -20.5888  -28.3691   23.1279 C   0  0  2  0  0  0
  -20.6773  -26.9412   22.5411 C   0  0  0  0  0  0
  -19.5751  -26.6383   21.5211 C   0  0  0  0  0  0
  -18.1931  -26.7929   22.1621 C   0  0  0  0  0  0
  -19.1539  -28.8855   23.2876 C   0  0  0  0  0  0
  -18.9460  -30.1457   23.8894 C   0  0  0  0  0  0
  -17.6459  -30.6586   24.0560 C   0  0  0  0  0  0
  -25.9056  -34.9443   23.5096 C   0  0  0  0  0  0
  -16.5351  -29.9084   23.6330 C   0  0  0  0  0  0
  -16.7272  -28.6502   23.0350 C   0  0  0  0  0  0
  -26.4498  -31.6573   25.0712 C   0  0  0  0  0  0
  -25.3724  -31.3719   26.1435 C   0  0  0  0  0  0
  -27.0339  -30.2990   24.6179 C   0  0  0  0  0  0
  -27.6056  -32.4310   25.7486 C   0  0  0  0  0  0
  -27.5582  -37.1794   24.8459 C   0  0  0  0  0  0
  -21.4198  -29.3041   22.3672 N   0  0  0  0  0  0
  -26.4286  -37.3773   23.9414 N   0  0  0  0  0  0
  -24.6928  -31.0551   22.0947 N   0  0  0  0  0  0
  -23.4200  -28.8151   23.3018 O   0  0  0  0  0  0
  -28.3597  -26.4410   20.1767 O   0  0  0  0  0  0
  -26.5631  -34.8918   22.4667 O   0  0  0  0  0  0
  -23.5449  -32.1374   23.7301 O   0  0  0  0  0  0
  -30.1318  -19.4739   21.6564 C   0  0  0  0  0  0
  -30.3038  -18.0527   21.6718 C   0  0  0  0  0  0
  -29.0121  -19.3311   19.5517 C   0  0  0  0  0  0
  -29.1686  -17.9007   19.5647 C   0  0  0  0  0  0
  -29.4621  -20.1786   20.6088 C   0  0  0  0  0  0
  -29.8184  -17.2126   20.6356 C   0  0  0  0  0  0
  -28.7056  -23.9550   20.2958 C   0  0  0  0  0  0
  -28.9761  -23.7830   21.7008 C   0  0  0  0  0  0
  -28.8523  -22.5728   19.7207 C   0  0  0  0  0  0
  -28.8681  -24.7218   22.6582 C   0  0  0  0  0  0
  -28.4131  -25.1356   19.6108 C   0  0  0  0  0  0
  -29.3829  -22.3533   21.9766 C   0  0  0  0  0  0
  -28.5753  -17.1006   18.4185 C   0  0  0  0  0  0
  -28.2935  -25.1979   18.0924 C   0  0  0  0  0  0
  -29.2265  -21.6546   20.6923 N   0  0  0  0  0  0
  -29.7434  -15.7479   20.7956 N   0  0  0  0  0  0
  -28.6738  -22.2620   18.5384 O   0  0  0  0  0  0
  -31.4836  -12.5750   19.1554 H   0  0  0  0  0  0
  -30.3998  -11.4406   19.9128 H   0  0  0  0  0  0
  -29.7878  -11.7584   17.4940 H   0  0  0  0  0  0
  -29.6419  -13.4808   17.7358 H   0  0  0  0  0  0
  -27.8824  -11.2889   18.8806 H   0  0  0  0  0  0
  -27.3800  -12.5587   17.7966 H   0  0  0  0  0  0
  -27.6589  -14.2492   19.5065 H   0  0  0  0  0  0
  -28.7240  -12.0784   21.3820 H   0  0  0  0  0  0
  -28.4334  -13.7326   21.8379 H   0  0  0  0  0  0
  -25.2762   -9.5686   22.4758 H   0  0  0  0  0  0
  -24.0004   -7.4633   22.7473 H   0  0  0  0  0  0
  -21.0840   -8.8769   19.8954 H   0  0  0  0  0  0
  -22.3696  -10.9668   19.6164 H   0  0  0  0  0  0
  -21.2000   -7.6147   23.9718 H   0  0  0  0  0  0
  -21.1485   -6.0520   25.9079 H   0  0  0  0  0  0
  -22.0597   -2.7608   23.2842 H   0  0  0  0  0  0
  -22.4087  -11.9881   22.4802 H   0  0  0  0  0  0
  -21.1101  -13.1258   22.2614 H   0  0  0  0  0  0
  -24.6538  -15.8390   20.5276 H   0  0  0  0  0  0
  -26.2727  -15.6364   20.0944 H   0  0  0  0  0  0
  -26.7193  -32.5416   23.1075 H   0  0  0  0  0  0
  -25.0057  -33.9697   25.0392 H   0  0  0  0  0  0
  -22.7194  -31.2998   21.3966 H   0  0  0  0  0  0
  -23.3757  -35.9612   23.3283 H   0  0  0  0  0  0
  -24.3582  -36.8929   22.2056 H   0  0  0  0  0  0
  -23.7234  -37.6479   23.6674 H   0  0  0  0  0  0
  -26.1014  -31.5411   20.6036 H   0  0  0  0  0  0
  -26.8467  -30.8278   22.0029 H   0  0  0  0  0  0
  -28.1214  -28.9594   21.1806 H   0  0  0  0  0  0
  -25.9486  -25.8833   19.0660 H   0  0  0  0  0  0
  -23.9643  -27.2849   19.0396 H   0  0  0  0  0  0
  -23.7607  -30.5850   19.4006 H   0  0  0  0  0  0
  -22.7595  -29.2403   19.8572 H   0  0  0  0  0  0
  -25.1296  -36.1915   25.0818 H   0  0  0  0  0  0
  -20.9978  -28.3263   24.1401 H   0  0  0  0  0  0
  -20.5663  -26.2303   23.3613 H   0  0  0  0  0  0
  -21.6642  -26.7430   22.1212 H   0  0  0  0  0  0
  -19.6912  -25.6293   21.1243 H   0  0  0  0  0  0
  -19.6693  -27.3190   20.6739 H   0  0  0  0  0  0
  -17.4202  -26.6677   21.4021 H   0  0  0  0  0  0
  -18.0328  -26.0069   22.9015 H   0  0  0  0  0  0
  -19.7936  -30.7271   24.2263 H   0  0  0  0  0  0
  -17.5015  -31.6268   24.5162 H   0  0  0  0  0  0
  -15.5352  -30.2984   23.7659 H   0  0  0  0  0  0
  -15.8673  -28.0820   22.7067 H   0  0  0  0  0  0
  -24.5910  -30.7055   25.7763 H   0  0  0  0  0  0
  -24.8903  -32.2886   26.4843 H   0  0  0  0  0  0
  -25.8048  -30.8911   27.0220 H   0  0  0  0  0  0
  -26.2912  -29.6743   24.1203 H   0  0  0  0  0  0
  -27.4024  -29.7247   25.4689 H   0  0  0  0  0  0
  -27.8789  -30.4264   23.9410 H   0  0  0  0  0  0
  -27.2666  -33.3613   26.2055 H   0  0  0  0  0  0
  -28.3874  -32.6863   25.0320 H   0  0  0  0  0  0
  -28.0715  -31.8439   26.5409 H   0  0  0  0  0  0
  -28.2581  -38.0110   24.7531 H   0  0  0  0  0  0
  -28.1098  -36.2644   24.6248 H   0  0  0  0  0  0
  -27.2309  -37.1396   25.8863 H   0  0  0  0  0  0
  -20.9380  -29.8768   21.6885 H   0  0  0  0  0  0
  -26.0165  -38.2843   24.1429 H   0  0  0  0  0  0
  -30.5113  -20.0198   22.5077 H   0  0  0  0  0  0
  -30.7735  -17.6021   22.5350 H   0  0  0  0  0  0
  -28.4817  -19.7729   18.7208 H   0  0  0  0  0  0
  -28.5614  -25.7355   22.4504 H   0  0  0  0  0  0
  -29.0875  -24.4831   23.6892 H   0  0  0  0  0  0
  -28.7413  -21.9099   22.7394 H   0  0  0  0  0  0
  -30.4188  -22.3212   22.3164 H   0  0  0  0  0  0
  -28.3918  -17.7299   17.5472 H   0  0  0  0  0  0
  -27.6272  -16.6555   18.7183 H   0  0  0  0  0  0
  -29.2487  -16.3003   18.1102 H   0  0  0  0  0  0
  -27.4251  -24.6360   17.7473 H   0  0  0  0  0  0
  -29.1820  -24.7727   17.6249 H   0  0  0  0  0  0
  -28.2039  -26.2237   17.7345 H   0  0  0  0  0  0
  -28.8251  -15.4167   21.0474 H   0  0  0  0  0  0
  1 25  1  0  0  0
  1 30  2  0  0  0
  1 86  1  0  0  0
  2  3  1  0  0  0
  2 25  1  0  0  0
  2 88  1  0  0  0
  2 89  1  0  0  0
  3  4  1  0  0  0
  3 90  1  0  0  0
  3 91  1  0  0  0
  4  5  1  0  0  0
  4 92  1  0  0  0
  4 93  1  0  0  0
  5  6  1  0  0  0
  5 26  1  0  0  0
  5 94  1  0  0  0
  6 25  1  0  0  0
  6 95  1  0  0  0
  6 96  1  0  0  0
  7  8  2  0  0  0
  7 26  1  0  0  0
  7 29  1  0  0  0
  8  9  1  0  0  0
  8 22  1  0  0  0
  9 10  1  0  0  0
  9 27  2  0  0  0
 10 11  2  0  0  0
 10 15  1  0  0  0
 11 12  1  0  0  0
 11 97  1  0  0  0
 12 13  2  0  0  0
 12 98  1  0  0  0
 13 14  1  0  0  0
 13 31  1  0  0  0
 14 15  2  0  0  0
 14 99  1  0  0  0
 15100  1  0  0  0
 16 17  2  0  0  0
 16 21  1  0  0  0
 16 31  1  0  0  0
 17 18  1  0  0  0
 17101  1  0  0  0
 18 19  2  0  0  0
 18102  1  0  0  0
 19 20  1  0  0  0
 19 24  1  0  0  0
 20 21  2  0  0  0
 20103  1  0  0  0
 21 23  1  0  0  0
 22 28  1  0  0  0
 22 32  2  0  0  0
 26 27  1  0  0  0
 28104  1  0  0  0
 28105  1  0  0  0
 29106  1  0  0  0
 29107  1  0  0  0
 33 34  1  0  0  0
 33 66  1  0  0  0
 33 70  2  0  0  0
 34 36  1  0  0  0
 34 59  1  0  0  0
 34108  1  0  0  0
 35 44  2  0  0  0
 35 45  1  0  0  0
 35 68  1  0  0  0
 36 56  1  0  0  0
 36109  1  0  0  0
 37 39  1  0  0  0
 37 47  1  0  0  0
 37 66  1  0  0  0
 37110  1  0  0  0
 38 43  2  0  0  0
 38 46  1  0  0  0
 38 47  1  0  0  0
 39 64  1  0  0  0
 39 67  2  0  0  0
 40 52  1  0  0  0
 40 53  2  0  0  0
 40 58  1  0  0  0
 41111  1  0  0  0
 41112  1  0  0  0
 41113  1  0  0  0
 41 48  1  0  0  0
 42 43  1  0  0  0
 42 66  1  0  0  0
 42114  1  0  0  0
 42115  1  0  0  0
 43 44  1  0  0  0
 44116  1  0  0  0
 45 46  2  0  0  0
 45117  1  0  0  0
 46118  1  0  0  0
 47119  1  0  0  0
 47120  1  0  0  0
 48 56  1  0  0  0
 48 65  1  0  0  0
 48121  1  0  0  0
 49 50  1  0  0  0
 49 53  1  0  0  0
 49 64  1  0  0  0
 49122  1  0  0  0
 50 51  1  0  0  0
 50123  1  0  0  0
 50124  1  0  0  0
 51 52  1  0  0  0
 51125  1  0  0  0
 51126  1  0  0  0
 52127  1  0  0  0
 52128  1  0  0  0
 53 54  1  0  0  0
 54 55  2  0  0  0
 54129  1  0  0  0
 55 57  1  0  0  0
 55130  1  0  0  0
 56 69  2  0  0  0
 57 58  2  0  0  0
 57131  1  0  0  0
 58132  1  0  0  0
 59 60  1  0  0  0
 59 61  1  0  0  0
 59 62  1  0  0  0
 60133  1  0  0  0
 60134  1  0  0  0
 60135  1  0  0  0
 61136  1  0  0  0
 61137  1  0  0  0
 61138  1  0  0  0
 62139  1  0  0  0
 62140  1  0  0  0
 62141  1  0  0  0
 63 65  1  0  0  0
 63142  1  0  0  0
 63143  1  0  0  0
 63144  1  0  0  0
 64145  1  0  0  0
 65146  1  0  0  0
 68 81  1  0  0  0
 71 72  2  0  0  0
 71 75  1  0  0  0
 71147  1  0  0  0
 72 76  1  0  0  0
 72148  1  0  0  0
 73 74  1  0  0  0
 73 75  2  0  0  0
 73149  1  0  0  0
 74 76  2  0  0  0
 74 83  1  0  0  0
 75 85  1  0  0  0
 76 86  1  0  0  0
 77 78  1  0  0  0
 77 79  1  0  0  0
 77 81  2  0  0  0
 78 80  2  0  0  0
 78 82  1  0  0  0
 79 85  1  0  0  0
 79 87  2  0  0  0
 80150  1  0  0  0
 80151  1  0  0  0
 81 84  1  0  0  0
 82 85  1  0  0  0
 82152  1  0  0  0
 82153  1  0  0  0
 83154  1  0  0  0
 83155  1  0  0  0
 83156  1  0  0  0
 84157  1  0  0  0
 84158  1  0  0  0
 84159  1  0  0  0
 86160  1  0  0  0
M  ISO  4   1 100  68 101  81 101  86 100
M  END
> <chiral flag>
0

> <version>
0

> <s_m_source_file>
/data/baiqing/PycharmProjects/Reinvent-master-3.2/result/LINK_invent/BTK/process_docking_weight1_custom_product_contain_oxygen_bond_distance_aromatic_linkinvent_7_9_3/rearranged_h_0080.sdf

> <i_m_source_file_index>
58

> <r_mmod_Potential_Energy-OPLS-2005>
281.049255371094

> <r_mmod_Stretch_Energy-OPLS-2005>
104.302909851074

> <r_mmod_Bend_Energy-OPLS-2005>
196.94792175293

> <r_mmod_Torsional_Energy-OPLS-2005>
290.743682861328

> <r_mmod_Improper_Torsional_Energy-OPLS-2005>
6.37019920349121

> <r_mmod_Van_der_Waal_Energy-OPLS-2005>
140.049774169922

> <r_mmod_Electrostatic_Energy-OPLS-2005>
-316.169403076172

> <r_mmod_Solvation_Energy-OPLS-2005>
-207.588989257812

> <b_mmod_Minimization_Converged-OPLS-2005>
0

> <r_mmod_RMS_Derivative-OPLS-2005>
0.447094589471817

$$$$
58
                    3D
 Structure written by MMmdl.
149157  0  0  1  0            999 V2000
  -30.5023  -14.9514   20.4286 C   0  0  0  0  0  0
  -30.4564  -12.5886   19.4943 C   0  0  0  0  0  0
  -29.5278  -12.5365   18.2564 C   0  0  0  0  0  0
  -28.0600  -12.3179   18.6733 C   0  0  0  0  0  0
  -27.6372  -13.2403   19.8453 C   0  0  2  0  0  0
  -28.6821  -13.2390   20.9827 C   0  0  0  0  0  0
  -25.2496  -13.8194   20.5691 C   0  0  0  0  0  0
  -24.1805  -13.0433   20.9234 C   0  0  0  0  0  0
  -24.6407  -11.6914   20.8761 C   0  0  0  0  0  0
  -23.9084  -10.4288   21.0413 C   0  0  0  0  0  0
  -24.3628   -9.4201   21.9190 C   0  0  0  0  0  0
  -23.6297   -8.2240   22.0758 C   0  0  0  0  0  0
  -22.4281   -8.0282   21.3546 C   0  0  0  0  0  0
  -21.9919   -9.0260   20.4651 C   0  0  0  0  0  0
  -22.7255  -10.2135   20.3062 C   0  0  0  0  0  0
  -21.6853   -6.0735   22.5278 C   0  0  0  0  0  0
  -21.4014   -6.5641   23.8211 C   0  0  0  0  0  0
  -21.3659   -5.6794   24.9173 C   0  0  0  0  0  0
  -21.6044   -4.3057   24.7225 C   0  0  0  0  0  0
  -21.8819   -3.8148   23.4347 C   0  0  0  0  0  0
  -21.9192   -4.6963   22.3402 C   0  0  0  0  0  0
  -22.7825  -13.5214   21.1883 C   0  0  0  0  0  0
  -22.1662   -4.2149   21.0979 F   0  0  0  0  0  0
  -21.5628   -3.4541   25.7737 F   0  0  0  0  0  0
  -29.9612  -13.6663   20.3956 N   0  0  0  0  0  0
  -26.2922  -12.9409   20.3255 N   0  0  0  0  0  0
  -25.9339  -11.6550   20.5749 N   0  0  0  0  0  0
  -22.0466  -12.8202   22.0434 N   0  0  0  0  0  0
  -25.4155  -15.1915   20.4044 N   0  0  0  0  0  0
  -31.6949  -15.0833   20.1286 O   0  0  0  0  0  0
  -21.6642   -6.8880   21.4241 O   0  0  0  0  0  0
  -22.3510  -14.5515   20.6720 O   0  0  0  0  0  0
  -24.6436  -31.8433   23.1880 C   0  0  0  0  0  0
  -25.9203  -32.4695   23.8274 C   0  0  1  0  0  0
  -27.2236  -27.1358   20.1575 C   0  0  0  0  0  0
  -25.5947  -33.8501   24.2187 N   0  0  0  0  0  0
  -23.4494  -30.4612   21.5336 C   0  0  2  0  0  0
  -24.9028  -28.8862   20.1137 C   0  0  0  0  0  0
  -22.7577  -29.4540   22.4862 C   0  0  0  0  0  0
  -18.0306  -28.1396   22.8476 C   0  0  0  0  0  0
  -24.1491  -36.7257   23.2642 C   0  0  0  0  0  0
  -26.0057  -30.7162   21.3890 C   0  0  0  0  0  0
  -26.0803  -29.3256   20.7346 C   0  0  0  0  0  0
  -27.2446  -28.4664   20.7417 C   0  0  0  0  0  0
  -26.0247  -26.8000   19.4943 C   0  0  0  0  0  0
  -24.8873  -27.6357   19.4778 C   0  0  0  0  0  0
  -23.6781  -29.7880   20.1543 C   0  0  0  0  0  0
  -25.4123  -36.3031   24.0315 C   0  0  1  0  0  0
  -20.5917  -28.3723   23.1238 C   0  0  2  0  0  0
  -20.6791  -26.9428   22.5404 C   0  0  0  0  0  0
  -19.5766  -26.6383   21.5211 C   0  0  0  0  0  0
  -18.1947  -26.7936   22.1622 C   0  0  0  0  0  0
  -19.1561  -28.8879   23.2847 C   0  0  0  0  0  0
  -18.9474  -30.1474   23.8872 C   0  0  0  0  0  0
  -17.6469  -30.6591   24.0557 C   0  0  0  0  0  0
  -25.9072  -34.9407   23.5060 C   0  0  0  0  0  0
  -16.5361  -29.9082   23.6334 C   0  0  0  0  0  0
  -16.7289  -28.6501   23.0355 C   0  0  0  0  0  0
  -26.4522  -31.6565   25.0718 C   0  0  0  0  0  0
  -25.3707  -31.3753   26.1414 C   0  0  0  0  0  0
  -27.0392  -30.2960   24.6303 C   0  0  0  0  0  0
  -27.6048  -32.4338   25.7507 C   0  0  0  0  0  0
  -27.5575  -37.1787   24.8467 C   0  0  0  0  0  0
  -21.4265  -29.3051   22.3614 N   0  0  0  0  0  0
  -26.4288  -37.3745   23.9407 N   0  0  0  0  0  0
  -24.7195  -31.0280   22.0922 N   0  0  0  0  0  0
  -23.4217  -28.8079   23.3009 O   0  0  0  0  0  0
  -28.2442  -26.1098   20.1840 O   0  0  0  0  0  0
  -26.5661  -34.8903   22.4641 O   0  0  0  0  0  0
  -23.5552  -32.1313   23.7089 O   0  0  0  0  0  0
  -27.9231  -19.5822   20.6693 C   0  0  0  0  0  0
  -30.2075  -20.0746   20.4400 C   0  0  0  0  0  0
  -28.2126  -18.1664   20.6499 C   0  0  0  0  0  0
  -30.5035  -18.6276   20.4131 C   0  0  0  0  0  0
  -28.8830  -20.6457   20.5809 C   0  0  0  0  0  0
  -29.5129  -17.5786   20.5411 C   0  0  0  0  0  0
  -28.4110  -22.1550   20.9371 C   0  0  0  0  0  0
  -27.9969  -24.7913   20.7204 C   0  0  0  0  0  0
  -29.6138  -16.0419   20.6263 N   0  0  0  0  0  0
  -28.6453  -23.5624   20.3195 N   0  0  0  0  0  0
  -27.0852  -24.8136   21.7106 N   0  3  0  0  0  0
  -27.6348  -22.1675   21.9025 O   0  0  0  0  0  0
  -31.4851  -12.7700   19.1797 H   0  0  0  0  0  0
  -30.4677  -11.6289   20.0132 H   0  0  0  0  0  0
  -29.8463  -11.7447   17.5771 H   0  0  0  0  0  0
  -29.6122  -13.4704   17.6982 H   0  0  0  0  0  0
  -27.9550  -11.2742   18.9717 H   0  0  0  0  0  0
  -27.3963  -12.4592   17.8193 H   0  0  0  0  0  0
  -27.6076  -14.2476   19.4296 H   0  0  0  0  0  0
  -28.7698  -12.2494   21.4330 H   0  0  0  0  0  0
  -28.3799  -13.9125   21.7862 H   0  0  0  0  0  0
  -25.2771   -9.5674   22.4768 H   0  0  0  0  0  0
  -24.0004   -7.4630   22.7477 H   0  0  0  0  0  0
  -21.0851   -8.8782   19.8954 H   0  0  0  0  0  0
  -22.3716  -10.9677   19.6173 H   0  0  0  0  0  0
  -21.2006   -7.6149   23.9714 H   0  0  0  0  0  0
  -21.1482   -6.0524   25.9076 H   0  0  0  0  0  0
  -22.0598   -2.7610   23.2847 H   0  0  0  0  0  0
  -22.4085  -11.9865   22.4821 H   0  0  0  0  0  0
  -21.1081  -13.1220   22.2636 H   0  0  0  0  0  0
  -24.6318  -15.8305   20.4836 H   0  0  0  0  0  0
  -26.2248  -15.6126   19.9692 H   0  0  0  0  0  0
  -26.7273  -32.5302   23.1008 H   0  0  0  0  0  0
  -25.0075  -33.9622   25.0322 H   0  0  0  0  0  0
  -22.7523  -31.2869   21.3769 H   0  0  0  0  0  0
  -23.3756  -35.9586   23.3294 H   0  0  0  0  0  0
  -24.3574  -36.8900   22.2059 H   0  0  0  0  0  0
  -23.7245  -37.6449   23.6687 H   0  0  0  0  0  0
  -26.1595  -31.4685   20.6142 H   0  0  0  0  0  0
  -26.8766  -30.7706   22.0306 H   0  0  0  0  0  0
  -28.1417  -28.7974   21.2457 H   0  0  0  0  0  0
  -25.9478  -25.8366   19.0101 H   0  0  0  0  0  0
  -23.9902  -27.2945   18.9798 H   0  0  0  0  0  0
  -23.8149  -30.5615   19.3979 H   0  0  0  0  0  0
  -22.7937  -29.2293   19.8424 H   0  0  0  0  0  0
  -25.1313  -36.1862   25.0809 H   0  0  0  0  0  0
  -21.0009  -28.3315   24.1359 H   0  0  0  0  0  0
  -20.5689  -26.2336   23.3623 H   0  0  0  0  0  0
  -21.6655  -26.7444   22.1193 H   0  0  0  0  0  0
  -19.6930  -25.6287   21.1258 H   0  0  0  0  0  0
  -19.6698  -27.3178   20.6728 H   0  0  0  0  0  0
  -17.4214  -26.6674   21.4028 H   0  0  0  0  0  0
  -18.0352  -26.0085   22.9025 H   0  0  0  0  0  0
  -19.7946  -30.7300   24.2231 H   0  0  0  0  0  0
  -17.5018  -31.6268   24.5165 H   0  0  0  0  0  0
  -15.5359  -30.2973   23.7672 H   0  0  0  0  0  0
  -15.8690  -28.0810   22.7087 H   0  0  0  0  0  0
  -24.5892  -30.7095   25.7734 H   0  0  0  0  0  0
  -24.8889  -32.2935   26.4784 H   0  0  0  0  0  0
  -25.7991  -30.8963   27.0228 H   0  0  0  0  0  0
  -26.3012  -29.6685   24.1296 H   0  0  0  0  0  0
  -27.3988  -29.7260   25.4879 H   0  0  0  0  0  0
  -27.8926  -30.4196   23.9634 H   0  0  0  0  0  0
  -27.2633  -33.3657   26.2024 H   0  0  0  0  0  0
  -28.3889  -32.6872   25.0359 H   0  0  0  0  0  0
  -28.0683  -31.8507   26.5475 H   0  0  0  0  0  0
  -28.2587  -38.0087   24.7507 H   0  0  0  0  0  0
  -28.1075  -36.2616   24.6303 H   0  0  0  0  0  0
  -27.2290  -37.1443   25.8869 H   0  0  0  0  0  0
  -20.9481  -29.8761   21.6788 H   0  0  0  0  0  0
  -26.0152  -38.2814   24.1407 H   0  0  0  0  0  0
  -26.8882  -19.8585   20.8198 H   0  0  0  0  0  0
  -31.0469  -20.7554   20.4108 H   0  0  0  0  0  0
  -27.3667  -17.5027   20.7607 H   0  0  0  0  0  0
  -31.5402  -18.3303   20.3331 H   0  0  0  0  0  0
  -28.7139  -15.6428   20.8432 H   0  0  0  0  0  0
  -29.2746  -23.6792   19.5446 H   0  0  0  0  0  0
  -26.8649  -23.9509   22.1955 H   0  0  0  0  0  0
  -26.6508  -25.6734   22.0035 H   0  0  0  0  0  0
  1 25  1  0  0  0
  1 30  2  0  0  0
  1 79  1  0  0  0
  2  3  1  0  0  0
  2 25  1  0  0  0
  2 83  1  0  0  0
  2 84  1  0  0  0
  3  4  1  0  0  0
  3 85  1  0  0  0
  3 86  1  0  0  0
  4  5  1  0  0  0
  4 87  1  0  0  0
  4 88  1  0  0  0
  5  6  1  0  0  0
  5 26  1  0  0  0
  5 89  1  0  0  0
  6 25  1  0  0  0
  6 90  1  0  0  0
  6 91  1  0  0  0
  7  8  2  0  0  0
  7 26  1  0  0  0
  7 29  1  0  0  0
  8  9  1  0  0  0
  8 22  1  0  0  0
  9 10  1  0  0  0
  9 27  2  0  0  0
 10 11  2  0  0  0
 10 15  1  0  0  0
 11 12  1  0  0  0
 11 92  1  0  0  0
 12 13  2  0  0  0
 12 93  1  0  0  0
 13 14  1  0  0  0
 13 31  1  0  0  0
 14 15  2  0  0  0
 14 94  1  0  0  0
 15 95  1  0  0  0
 16 17  2  0  0  0
 16 21  1  0  0  0
 16 31  1  0  0  0
 17 18  1  0  0  0
 17 96  1  0  0  0
 18 19  2  0  0  0
 18 97  1  0  0  0
 19 20  1  0  0  0
 19 24  1  0  0  0
 20 21  2  0  0  0
 20 98  1  0  0  0
 21 23  1  0  0  0
 22 28  1  0  0  0
 22 32  2  0  0  0
 26 27  1  0  0  0
 28 99  1  0  0  0
 28100  1  0  0  0
 29101  1  0  0  0
 29102  1  0  0  0
 33 34  1  0  0  0
 33 66  1  0  0  0
 33 70  2  0  0  0
 34 36  1  0  0  0
 34 59  1  0  0  0
 34103  1  0  0  0
 35 44  2  0  0  0
 35 45  1  0  0  0
 35 68  1  0  0  0
 36 56  1  0  0  0
 36104  1  0  0  0
 37 39  1  0  0  0
 37 47  1  0  0  0
 37 66  1  0  0  0
 37105  1  0  0  0
 38 43  2  0  0  0
 38 46  1  0  0  0
 38 47  1  0  0  0
 39 64  1  0  0  0
 39 67  2  0  0  0
 40 52  1  0  0  0
 40 53  2  0  0  0
 40 58  1  0  0  0
 41106  1  0  0  0
 41107  1  0  0  0
 41108  1  0  0  0
 41 48  1  0  0  0
 42 43  1  0  0  0
 42 66  1  0  0  0
 42109  1  0  0  0
 42110  1  0  0  0
 43 44  1  0  0  0
 44111  1  0  0  0
 45 46  2  0  0  0
 45112  1  0  0  0
 46113  1  0  0  0
 47114  1  0  0  0
 47115  1  0  0  0
 48 56  1  0  0  0
 48 65  1  0  0  0
 48116  1  0  0  0
 49 50  1  0  0  0
 49 53  1  0  0  0
 49 64  1  0  0  0
 49117  1  0  0  0
 50 51  1  0  0  0
 50118  1  0  0  0
 50119  1  0  0  0
 51 52  1  0  0  0
 51120  1  0  0  0
 51121  1  0  0  0
 52122  1  0  0  0
 52123  1  0  0  0
 53 54  1  0  0  0
 54 55  2  0  0  0
 54124  1  0  0  0
 55 57  1  0  0  0
 55125  1  0  0  0
 56 69  2  0  0  0
 57 58  2  0  0  0
 57126  1  0  0  0
 58127  1  0  0  0
 59 60  1  0  0  0
 59 61  1  0  0  0
 59 62  1  0  0  0
 60128  1  0  0  0
 60129  1  0  0  0
 60130  1  0  0  0
 61131  1  0  0  0
 61132  1  0  0  0
 61133  1  0  0  0
 62134  1  0  0  0
 62135  1  0  0  0
 62136  1  0  0  0
 63 65  1  0  0  0
 63137  1  0  0  0
 63138  1  0  0  0
 63139  1  0  0  0
 64140  1  0  0  0
 65141  1  0  0  0
 68 78  1  0  0  0
 71 73  2  0  0  0
 71 75  1  0  0  0
 71142  1  0  0  0
 72 74  1  0  0  0
 72 75  2  0  0  0
 72143  1  0  0  0
 73 76  1  0  0  0
 73144  1  0  0  0
 74 76  2  0  0  0
 74145  1  0  0  0
 75 77  1  0  0  0
 76 79  1  0  0  0
 77 80  1  0  0  0
 77 82  2  0  0  0
 78 80  1  0  0  0
 78 81  2  0  0  0
 79146  1  0  0  0
 80147  1  0  0  0
 81148  1  0  0  0
 81149  1  0  0  0
M  CHG  1  81   1
M  ISO  4   1 100  68 101  78 101  79 100
M  END
> <chiral flag>
0

> <version>
0

> <s_m_source_file>
/data/baiqing/PycharmProjects/Reinvent-master-3.2/result/LINK_invent/BTK/process_docking_weight1_custom_product_contain_oxygen_bond_distance_aromatic_linkinvent_7_9_3/rearranged_h_0080.sdf

> <i_m_source_file_index>
59

> <r_mmod_Potential_Energy-OPLS-2005>
331.941497802734

> <r_mmod_Stretch_Energy-OPLS-2005>
234.862258911133

> <r_mmod_Bend_Energy-OPLS-2005>
299.300445556641

> <r_mmod_Torsional_Energy-OPLS-2005>
241.822021484375

> <r_mmod_Improper_Torsional_Energy-OPLS-2005>
7.42000198364258

> <r_mmod_Van_der_Waal_Energy-OPLS-2005>
143.470031738281

> <r_mmod_Electrostatic_Energy-OPLS-2005>
-330.339416503906

> <r_mmod_Solvation_Energy-OPLS-2005>
-464.676055908203

> <b_mmod_Minimization_Converged-OPLS-2005>
0

> <r_mmod_RMS_Derivative-OPLS-2005>
0.593178451061249

$$$$
59
                    3D
 Structure written by MMmdl.
155163  0  0  1  0            999 V2000
  -30.7096  -14.5181   20.5375 C   0  0  0  0  0  0
  -30.4134  -12.3231   19.4461 C   0  0  0  0  0  0
  -29.4982  -12.5014   18.2185 C   0  0  0  0  0  0
  -28.0185  -12.3615   18.6252 C   0  0  0  0  0  0
  -27.6553  -13.2193   19.8676 C   0  0  2  0  0  0
  -28.6960  -13.0504   20.9979 C   0  0  0  0  0  0
  -25.2543  -13.8194   20.5681 C   0  0  0  0  0  0
  -24.1812  -13.0444   20.9177 C   0  0  0  0  0  0
  -24.6381  -11.6919   20.8716 C   0  0  0  0  0  0
  -23.9053  -10.4298   21.0387 C   0  0  0  0  0  0
  -24.3603   -9.4213   21.9166 C   0  0  0  0  0  0
  -23.6279   -8.2247   22.0744 C   0  0  0  0  0  0
  -22.4256   -8.0280   21.3543 C   0  0  0  0  0  0
  -21.9885   -9.0252   20.4644 C   0  0  0  0  0  0
  -22.7217  -10.2130   20.3043 C   0  0  0  0  0  0
  -21.6863   -6.0724   22.5270 C   0  0  0  0  0  0
  -21.4028   -6.5628   23.8206 C   0  0  0  0  0  0
  -21.3653   -5.6779   24.9168 C   0  0  0  0  0  0
  -21.6033   -4.3042   24.7219 C   0  0  0  0  0  0
  -21.8825   -3.8136   23.4342 C   0  0  0  0  0  0
  -21.9200   -4.6953   22.3395 C   0  0  0  0  0  0
  -22.7830  -13.5225   21.1834 C   0  0  0  0  0  0
  -22.1665   -4.2137   21.0975 F   0  0  0  0  0  0
  -21.5617   -3.4527   25.7734 F   0  0  0  0  0  0
  -30.0236  -13.3431   20.4377 N   0  0  0  0  0  0
  -26.2991  -12.9383   20.3333 N   0  0  0  0  0  0
  -25.9312  -11.6529   20.5738 N   0  0  0  0  0  0
  -22.0478  -12.8232   22.0404 N   0  0  0  0  0  0
  -25.4265  -15.1911   20.4100 N   0  0  0  0  0  0
  -31.8544  -14.6203   20.0899 O   0  0  0  0  0  0
  -21.6637   -6.8863   21.4233 O   0  0  0  0  0  0
  -22.3505  -14.5527   20.6681 O   0  0  0  0  0  0
  -24.6181  -31.8663   23.2094 C   0  0  0  0  0  0
  -25.9067  -32.4807   23.8393 C   0  0  1  0  0  0
  -27.2212  -27.4075   20.0960 C   0  0  0  0  0  0
  -25.5906  -33.8603   24.2322 N   0  0  0  0  0  0
  -23.4059  -30.4912   21.5515 C   0  0  2  0  0  0
  -24.8517  -28.9614   20.1085 C   0  0  0  0  0  0
  -22.7419  -29.4649   22.4984 C   0  0  0  0  0  0
  -18.0264  -28.1371   22.8480 C   0  0  0  0  0  0
  -24.1482  -36.7309   23.2635 C   0  0  0  0  0  0
  -25.9393  -30.8228   21.3684 C   0  0  0  0  0  0
  -26.0166  -29.4588   20.7087 C   0  0  0  0  0  0
  -27.2087  -28.6896   20.6996 C   0  0  0  0  0  0
  -26.0429  -26.9426   19.4713 C   0  0  0  0  0  0
  -24.8614  -27.7043   19.4834 C   0  0  0  0  0  0
  -23.6133  -29.8287   20.1647 C   0  0  0  0  0  0
  -25.4099  -36.3093   24.0333 C   0  0  1  0  0  0
  -20.5857  -28.3663   23.1304 C   0  0  2  0  0  0
  -20.6752  -26.9397   22.5412 C   0  0  0  0  0  0
  -19.5743  -26.6382   21.5194 C   0  0  0  0  0  0
  -18.1916  -26.7922   22.1598 C   0  0  0  0  0  0
  -19.1512  -28.8832   23.2891 C   0  0  0  0  0  0
  -18.9448  -30.1430   23.8915 C   0  0  0  0  0  0
  -17.6454  -30.6582   24.0554 C   0  0  0  0  0  0
  -25.9034  -34.9461   23.5122 C   0  0  0  0  0  0
  -16.5344  -29.9082   23.6318 C   0  0  0  0  0  0
  -16.7253  -28.6489   23.0356 C   0  0  0  0  0  0
  -26.4480  -31.6591   25.0733 C   0  0  0  0  0  0
  -25.3742  -31.3734   26.1485 C   0  0  0  0  0  0
  -27.0290  -30.3009   24.6148 C   0  0  0  0  0  0
  -27.6058  -32.4310   25.7490 C   0  0  0  0  0  0
  -27.5573  -37.1805   24.8461 C   0  0  0  0  0  0
  -21.4144  -29.3029   22.3718 N   0  0  0  0  0  0
  -26.4285  -37.3779   23.9405 N   0  0  0  0  0  0
  -24.6728  -31.0743   22.1010 N   0  0  0  0  0  0
  -23.4182  -28.8184   23.3031 O   0  0  0  0  0  0
  -28.3237  -26.5712   20.1459 O   0  0  0  0  0  0
  -26.5597  -34.8916   22.4684 O   0  0  0  0  0  0
  -23.5371  -32.1425   23.7481 O   0  0  0  0  0  0
  -31.1410  -19.7478   20.7523 C   0  0  0  0  0  0
  -29.4237  -18.0316   20.8992 C   0  0  0  0  0  0
  -31.7705  -17.3999   20.9424 C   0  0  0  0  0  0
  -29.7638  -19.4234   20.7928 C   0  0  0  0  0  0
  -32.1322  -18.7555   20.8365 C   0  0  0  0  0  0
  -30.4107  -17.0008   20.9386 C   0  0  0  0  0  0
  -28.7371  -24.1612   20.3927 C   0  0  0  0  0  0
  -28.0649  -25.3100   20.6664 C   0  0  0  0  0  0
  -28.7576  -20.5634   20.7551 C   0  0  0  0  0  0
  -28.2908  -22.8891   20.9871 C   0  0  0  0  0  0
  -27.2891  -20.1152   20.7472 C   0  0  0  0  0  0
  -29.1449  -21.8086   20.7142 N   0  0  0  0  0  0
  -33.4787  -19.1166   20.8153 N   0  0  0  0  0  0
  -30.0211  -15.6015   20.9902 N   0  0  0  0  0  0
  -27.2736  -22.8254   21.6836 O   0  0  0  0  0  0
  -31.4613  -12.3976   19.1476 H   0  0  0  0  0  0
  -30.2988  -11.3251   19.8702 H   0  0  0  0  0  0
  -29.7475  -11.7677   17.4503 H   0  0  0  0  0  0
  -29.6684  -13.4827   17.7733 H   0  0  0  0  0  0
  -27.8309  -11.3084   18.8346 H   0  0  0  0  0  0
  -27.3735  -12.6254   17.7860 H   0  0  0  0  0  0
  -27.6857  -14.2598   19.5434 H   0  0  0  0  0  0
  -28.6756  -12.0311   21.3861 H   0  0  0  0  0  0
  -28.4581  -13.6939   21.8460 H   0  0  0  0  0  0
  -25.2751   -9.5692   22.4730 H   0  0  0  0  0  0
  -24.0000   -7.4636   22.7455 H   0  0  0  0  0  0
  -21.0820   -8.8764   19.8946 H   0  0  0  0  0  0
  -22.3672  -10.9659   19.6141 H   0  0  0  0  0  0
  -21.2035   -7.6138   23.9710 H   0  0  0  0  0  0
  -21.1457   -6.0506   25.9068 H   0  0  0  0  0  0
  -22.0611   -2.7597   23.2856 H   0  0  0  0  0  0
  -22.4086  -11.9898   22.4811 H   0  0  0  0  0  0
  -21.1097  -13.1268   22.2599 H   0  0  0  0  0  0
  -24.6600  -15.8474   20.5104 H   0  0  0  0  0  0
  -26.2774  -15.6251   20.0748 H   0  0  0  0  0  0
  -26.7134  -32.5503   23.1150 H   0  0  0  0  0  0
  -25.0046  -33.9758   25.0456 H   0  0  0  0  0  0
  -22.6962  -31.3098   21.4159 H   0  0  0  0  0  0
  -23.3729  -35.9660   23.3331 H   0  0  0  0  0  0
  -24.3581  -36.8892   22.2045 H   0  0  0  0  0  0
  -23.7261  -37.6528   23.6643 H   0  0  0  0  0  0
  -26.0596  -31.5909   20.6034 H   0  0  0  0  0  0
  -26.8233  -30.8704   21.9920 H   0  0  0  0  0  0
  -28.1046  -29.0595   21.1781 H   0  0  0  0  0  0
  -26.0299  -25.9724   18.9949 H   0  0  0  0  0  0
  -23.9671  -27.3175   19.0140 H   0  0  0  0  0  0
  -23.7193  -30.6059   19.4074 H   0  0  0  0  0  0
  -22.7350  -29.2515   19.8694 H   0  0  0  0  0  0
  -25.1272  -36.1956   25.0828 H   0  0  0  0  0  0
  -20.9936  -28.3230   24.1429 H   0  0  0  0  0  0
  -20.5611  -26.2276   23.3604 H   0  0  0  0  0  0
  -21.6632  -26.7425   22.1237 H   0  0  0  0  0  0
  -19.6915  -25.6293   21.1225 H   0  0  0  0  0  0
  -19.6685  -27.3181   20.6716 H   0  0  0  0  0  0
  -17.4185  -26.6656   21.4001 H   0  0  0  0  0  0
  -18.0331  -26.0054   22.8986 H   0  0  0  0  0  0
  -19.7933  -30.7222   24.2312 H   0  0  0  0  0  0
  -17.5020  -31.6269   24.5147 H   0  0  0  0  0  0
  -15.5345  -30.2991   23.7642 H   0  0  0  0  0  0
  -15.8645  -28.0797   22.7104 H   0  0  0  0  0  0
  -24.5903  -30.7086   25.7844 H   0  0  0  0  0  0
  -24.8949  -32.2906   26.4913 H   0  0  0  0  0  0
  -25.8086  -30.8922   27.0255 H   0  0  0  0  0  0
  -26.2831  -29.6794   24.1182 H   0  0  0  0  0  0
  -27.3994  -29.7234   25.4630 H   0  0  0  0  0  0
  -27.8707  -30.4285   23.9337 H   0  0  0  0  0  0
  -27.2680  -33.3609   26.2077 H   0  0  0  0  0  0
  -28.3853  -32.6870   25.0303 H   0  0  0  0  0  0
  -28.0742  -31.8434   26.5396 H   0  0  0  0  0  0
  -28.2604  -38.0085   24.7475 H   0  0  0  0  0  0
  -28.1047  -36.2617   24.6308 H   0  0  0  0  0  0
  -27.2306  -37.1492   25.8869 H   0  0  0  0  0  0
  -20.9319  -29.8759   21.6939 H   0  0  0  0  0  0
  -26.0176  -38.2858   24.1396 H   0  0  0  0  0  0
  -31.4484  -20.7812   20.6732 H   0  0  0  0  0  0
  -28.3891  -17.7284   20.9456 H   0  0  0  0  0  0
  -32.5613  -16.6709   21.0268 H   0  0  0  0  0  0
  -29.5876  -24.1807   19.7267 H   0  0  0  0  0  0
  -27.2178  -25.3272   21.3424 H   0  0  0  0  0  0
  -27.1488  -19.2393   20.1170 H   0  0  0  0  0  0
  -26.6225  -20.8634   20.3224 H   0  0  0  0  0  0
  -26.9589  -19.8813   21.7590 H   0  0  0  0  0  0
  -33.7255  -20.0426   20.4756 H   0  0  0  0  0  0
  -34.1621  -18.4125   20.5516 H   0  0  0  0  0  0
  -29.0681  -15.4098   21.2589 H   0  0  0  0  0  0
  1 25  1  0  0  0
  1 30  2  0  0  0
  1 84  1  0  0  0
  2  3  1  0  0  0
  2 25  1  0  0  0
  2 86  1  0  0  0
  2 87  1  0  0  0
  3  4  1  0  0  0
  3 88  1  0  0  0
  3 89  1  0  0  0
  4  5  1  0  0  0
  4 90  1  0  0  0
  4 91  1  0  0  0
  5  6  1  0  0  0
  5 26  1  0  0  0
  5 92  1  0  0  0
  6 25  1  0  0  0
  6 93  1  0  0  0
  6 94  1  0  0  0
  7  8  2  0  0  0
  7 26  1  0  0  0
  7 29  1  0  0  0
  8  9  1  0  0  0
  8 22  1  0  0  0
  9 10  1  0  0  0
  9 27  2  0  0  0
 10 11  2  0  0  0
 10 15  1  0  0  0
 11 12  1  0  0  0
 11 95  1  0  0  0
 12 13  2  0  0  0
 12 96  1  0  0  0
 13 14  1  0  0  0
 13 31  1  0  0  0
 14 15  2  0  0  0
 14 97  1  0  0  0
 15 98  1  0  0  0
 16 17  2  0  0  0
 16 21  1  0  0  0
 16 31  1  0  0  0
 17 18  1  0  0  0
 17 99  1  0  0  0
 18 19  2  0  0  0
 18100  1  0  0  0
 19 20  1  0  0  0
 19 24  1  0  0  0
 20 21  2  0  0  0
 20101  1  0  0  0
 21 23  1  0  0  0
 22 28  1  0  0  0
 22 32  2  0  0  0
 26 27  1  0  0  0
 28102  1  0  0  0
 28103  1  0  0  0
 29104  1  0  0  0
 29105  1  0  0  0
 33 34  1  0  0  0
 33 66  1  0  0  0
 33 70  2  0  0  0
 34 36  1  0  0  0
 34 59  1  0  0  0
 34106  1  0  0  0
 35 44  2  0  0  0
 35 45  1  0  0  0
 35 68  1  0  0  0
 36 56  1  0  0  0
 36107  1  0  0  0
 37 39  1  0  0  0
 37 47  1  0  0  0
 37 66  1  0  0  0
 37108  1  0  0  0
 38 43  2  0  0  0
 38 46  1  0  0  0
 38 47  1  0  0  0
 39 64  1  0  0  0
 39 67  2  0  0  0
 40 52  1  0  0  0
 40 53  2  0  0  0
 40 58  1  0  0  0
 41109  1  0  0  0
 41110  1  0  0  0
 41111  1  0  0  0
 41 48  1  0  0  0
 42 43  1  0  0  0
 42 66  1  0  0  0
 42112  1  0  0  0
 42113  1  0  0  0
 43 44  1  0  0  0
 44114  1  0  0  0
 45 46  2  0  0  0
 45115  1  0  0  0
 46116  1  0  0  0
 47117  1  0  0  0
 47118  1  0  0  0
 48 56  1  0  0  0
 48 65  1  0  0  0
 48119  1  0  0  0
 49 50  1  0  0  0
 49 53  1  0  0  0
 49 64  1  0  0  0
 49120  1  0  0  0
 50 51  1  0  0  0
 50121  1  0  0  0
 50122  1  0  0  0
 51 52  1  0  0  0
 51123  1  0  0  0
 51124  1  0  0  0
 52125  1  0  0  0
 52126  1  0  0  0
 53 54  1  0  0  0
 54 55  2  0  0  0
 54127  1  0  0  0
 55 57  1  0  0  0
 55128  1  0  0  0
 56 69  2  0  0  0
 57 58  2  0  0  0
 57129  1  0  0  0
 58130  1  0  0  0
 59 60  1  0  0  0
 59 61  1  0  0  0
 59 62  1  0  0  0
 60131  1  0  0  0
 60132  1  0  0  0
 60133  1  0  0  0
 61134  1  0  0  0
 61135  1  0  0  0
 61136  1  0  0  0
 62137  1  0  0  0
 62138  1  0  0  0
 62139  1  0  0  0
 63 65  1  0  0  0
 63140  1  0  0  0
 63141  1  0  0  0
 63142  1  0  0  0
 64143  1  0  0  0
 65144  1  0  0  0
 68 78  1  0  0  0
 71 74  2  0  0  0
 71 75  1  0  0  0
 71145  1  0  0  0
 72 74  1  0  0  0
 72 76  2  0  0  0
 72146  1  0  0  0
 73 75  2  0  0  0
 73 76  1  0  0  0
 73147  1  0  0  0
 74 79  1  0  0  0
 75 83  1  0  0  0
 76 84  1  0  0  0
 77 78  2  0  0  0
 77 80  1  0  0  0
 77148  1  0  0  0
 78149  1  0  0  0
 79 81  1  0  0  0
 79 82  2  0  0  0
 80 82  1  0  0  0
 80 85  2  0  0  0
 81150  1  0  0  0
 81151  1  0  0  0
 81152  1  0  0  0
 83153  1  0  0  0
 83154  1  0  0  0
 84155  1  0  0  0
M  ISO  4   1 100  68 101  78 101  84 100
M  END
> <chiral flag>
0

> <version>
0

> <s_m_source_file>
/data/baiqing/PycharmProjects/Reinvent-master-3.2/result/LINK_invent/BTK/process_docking_weight1_custom_product_contain_oxygen_bond_distance_aromatic_linkinvent_7_9_3/rearranged_h_0080.sdf

> <i_m_source_file_index>
60

> <r_mmod_Potential_Energy-OPLS-2005>
-3.56123661994934

> <r_mmod_Stretch_Energy-OPLS-2005>
56.5696792602539

> <r_mmod_Bend_Energy-OPLS-2005>
118.466697692871

> <r_mmod_Torsional_Energy-OPLS-2005>
230.497528076172

> <r_mmod_Improper_Torsional_Energy-OPLS-2005>
7.50721216201782

> <r_mmod_Van_der_Waal_Energy-OPLS-2005>
184.486938476562

> <r_mmod_Electrostatic_Energy-OPLS-2005>
-404.572265625

> <r_mmod_Solvation_Energy-OPLS-2005>
-219.818054199219

> <b_mmod_Minimization_Converged-OPLS-2005>
0

> <r_mmod_RMS_Derivative-OPLS-2005>
1.74109482765198

$$$$
60
                    3D
 Structure written by MMmdl.
156165  0  0  1  0            999 V2000
  -30.6074  -14.6475   20.5108 C   0  0  0  0  0  0
  -30.4426  -12.3992   19.4499 C   0  0  0  0  0  0
  -29.5084  -12.5096   18.2231 C   0  0  0  0  0  0
  -28.0303  -12.3481   18.6342 C   0  0  0  0  0  0
  -27.6544  -13.2133   19.8661 C   0  0  2  0  0  0
  -28.6991  -13.0555   20.9938 C   0  0  0  0  0  0
  -25.2572  -13.8156   20.5668 C   0  0  0  0  0  0
  -24.1839  -13.0434   20.9204 C   0  0  0  0  0  0
  -24.6398  -11.6902   20.8749 C   0  0  0  0  0  0
  -23.9064  -10.4288   21.0414 C   0  0  0  0  0  0
  -24.3614   -9.4205   21.9194 C   0  0  0  0  0  0
  -23.6298   -8.2237   22.0751 C   0  0  0  0  0  0
  -22.4282   -8.0277   21.3545 C   0  0  0  0  0  0
  -21.9916   -9.0249   20.4645 C   0  0  0  0  0  0
  -22.7237  -10.2134   20.3061 C   0  0  0  0  0  0
  -21.6853   -6.0738   22.5283 C   0  0  0  0  0  0
  -21.4009   -6.5641   23.8216 C   0  0  0  0  0  0
  -21.3664   -5.6794   24.9180 C   0  0  0  0  0  0
  -21.6041   -4.3056   24.7228 C   0  0  0  0  0  0
  -21.8824   -3.8151   23.4351 C   0  0  0  0  0  0
  -21.9194   -4.6967   22.3406 C   0  0  0  0  0  0
  -22.7862  -13.5233   21.1871 C   0  0  0  0  0  0
  -22.1665   -4.2150   21.0984 F   0  0  0  0  0  0
  -21.5632   -3.4539   25.7742 F   0  0  0  0  0  0
  -30.0148  -13.4125   20.4358 N   0  0  0  0  0  0
  -26.2997  -12.9328   20.3328 N   0  0  0  0  0  0
  -25.9325  -11.6491   20.5764 N   0  0  0  0  0  0
  -22.0506  -12.8215   22.0419 N   0  0  0  0  0  0
  -25.4288  -15.1868   20.4009 N   0  0  0  0  0  0
  -31.7620  -14.8304   20.1110 O   0  0  0  0  0  0
  -21.6646   -6.8879   21.4244 O   0  0  0  0  0  0
  -22.3558  -14.5553   20.6734 O   0  0  0  0  0  0
  -24.6253  -31.8601   23.2025 C   0  0  0  0  0  0
  -25.9101  -32.4772   23.8353 C   0  0  1  0  0  0
  -27.2116  -27.3129   20.1184 C   0  0  0  0  0  0
  -25.5916  -33.8575   24.2278 N   0  0  0  0  0  0
  -23.4190  -30.4852   21.5444 C   0  0  2  0  0  0
  -24.8659  -28.9455   20.1033 C   0  0  0  0  0  0
  -22.7469  -29.4620   22.4904 C   0  0  0  0  0  0
  -18.0298  -28.1389   22.8481 C   0  0  0  0  0  0
  -24.1486  -36.7289   23.2643 C   0  0  0  0  0  0
  -25.9613  -30.7885   21.3730 C   0  0  0  0  0  0
  -26.0354  -29.4166   20.7149 C   0  0  0  0  0  0
  -27.2137  -28.6111   20.7179 C   0  0  0  0  0  0
  -26.0305  -26.9108   19.4572 C   0  0  0  0  0  0
  -24.8671  -27.6990   19.4632 C   0  0  0  0  0  0
  -23.6334  -29.8246   20.1578 C   0  0  0  0  0  0
  -25.4101  -36.3076   24.0334 C   0  0  1  0  0  0
  -20.5898  -28.3678   23.1282 C   0  0  2  0  0  0
  -20.6783  -26.9397   22.5407 C   0  0  0  0  0  0
  -19.5758  -26.6383   21.5208 C   0  0  0  0  0  0
  -18.1939  -26.7937   22.1616 C   0  0  0  0  0  0
  -19.1552  -28.8849   23.2891 C   0  0  0  0  0  0
  -18.9476  -30.1459   23.8882 C   0  0  0  0  0  0
  -17.6485  -30.6592   24.0562 C   0  0  0  0  0  0
  -25.9037  -34.9452   23.5105 C   0  0  0  0  0  0
  -16.5374  -29.9091   23.6335 C   0  0  0  0  0  0
  -16.7285  -28.6513   23.0334 C   0  0  0  0  0  0
  -26.4490  -31.6570   25.0713 C   0  0  0  0  0  0
  -25.3730  -31.3720   26.1447 C   0  0  0  0  0  0
  -27.0321  -30.2993   24.6144 C   0  0  0  0  0  0
  -27.6049  -32.4294   25.7500 C   0  0  0  0  0  0
  -27.5566  -37.1796   24.8471 C   0  0  0  0  0  0
  -21.4184  -29.3041   22.3671 N   0  0  0  0  0  0
  -26.4286  -37.3766   23.9414 N   0  0  0  0  0  0
  -24.6878  -31.0609   22.0967 N   0  0  0  0  0  0
  -23.4208  -28.8144   23.2968 O   0  0  0  0  0  0
  -28.2831  -26.4074   20.1889 O   0  0  0  0  0  0
  -26.5616  -34.8934   22.4680 O   0  0  0  0  0  0
  -23.5417  -32.1397   23.7331 O   0  0  0  0  0  0
  -28.4684  -19.2428   20.9362 C   0  0  0  0  0  0
  -30.7488  -19.3549   20.2126 C   0  0  0  0  0  0
  -28.5871  -17.8274   21.0576 C   0  0  0  0  0  0
  -30.8691  -17.9318   20.3308 C   0  0  0  0  0  0
  -29.5460  -20.0694   20.5101 C   0  0  0  0  0  0
  -29.7827  -17.1216   20.7577 C   0  0  0  0  0  0
  -30.0303  -23.7607   19.8630 C   0  0  0  0  0  0
  -28.8316  -23.8195   20.4425 C   0  0  0  0  0  0
  -28.4499  -22.4164   20.7468 C   0  0  0  0  0  0
  -30.5369  -22.3381   19.7679 C   0  0  0  0  0  0
  -27.8420  -25.2774   22.2950 C   0  0  0  0  0  0
  -27.9445  -25.0774   20.7719 C   0  0  1  0  0  0
  -29.4541  -21.5462   20.3694 N   0  0  0  0  0  0
  -29.7827  -15.6645   20.9190 N   0  0  0  0  0  0
  -27.3838  -22.0769   21.2674 O   0  0  0  0  0  0
  -31.4821  -12.5362   19.1463 H   0  0  0  0  0  0
  -30.3880  -11.4003   19.8855 H   0  0  0  0  0  0
  -29.7707  -11.7531   17.4819 H   0  0  0  0  0  0
  -29.6488  -13.4767   17.7367 H   0  0  0  0  0  0
  -27.8651  -11.2943   18.8617 H   0  0  0  0  0  0
  -27.3758  -12.5822   17.7932 H   0  0  0  0  0  0
  -27.6763  -14.2505   19.5319 H   0  0  0  0  0  0
  -28.7134  -12.0279   21.3579 H   0  0  0  0  0  0
  -28.4392  -13.6674   21.8589 H   0  0  0  0  0  0
  -25.2755   -9.5689   22.4776 H   0  0  0  0  0  0
  -24.0015   -7.4626   22.7453 H   0  0  0  0  0  0
  -21.0853   -8.8764   19.8938 H   0  0  0  0  0  0
  -22.3694  -10.9680   19.6172 H   0  0  0  0  0  0
  -21.1993   -7.6147   23.9723 H   0  0  0  0  0  0
  -21.1481   -6.0524   25.9087 H   0  0  0  0  0  0
  -22.0597   -2.7612   23.2853 H   0  0  0  0  0  0
  -22.4119  -11.9867   22.4790 H   0  0  0  0  0  0
  -21.1125  -13.1230   22.2621 H   0  0  0  0  0  0
  -24.6497  -15.8321   20.4680 H   0  0  0  0  0  0
  -26.2572  -15.6082   20.0016 H   0  0  0  0  0  0
  -26.7148  -32.5443   23.1074 H   0  0  0  0  0  0
  -25.0074  -33.9714   25.0437 H   0  0  0  0  0  0
  -22.7151  -31.3087   21.4027 H   0  0  0  0  0  0
  -23.3761  -35.9609   23.3312 H   0  0  0  0  0  0
  -24.3586  -36.8892   22.2059 H   0  0  0  0  0  0
  -23.7245  -37.6491   23.6656 H   0  0  0  0  0  0
  -26.0941  -31.5503   20.6040 H   0  0  0  0  0  0
  -26.8425  -30.8383   21.9999 H   0  0  0  0  0  0
  -28.1049  -28.9585   21.2211 H   0  0  0  0  0  0
  -25.9873  -25.9630   18.9415 H   0  0  0  0  0  0
  -23.9735  -27.3383   18.9726 H   0  0  0  0  0  0
  -23.7486  -30.6026   19.4043 H   0  0  0  0  0  0
  -22.7535  -29.2560   19.8525 H   0  0  0  0  0  0
  -25.1288  -36.1904   25.0821 H   0  0  0  0  0  0
  -20.9994  -28.3226   24.1400 H   0  0  0  0  0  0
  -20.5677  -26.2265   23.3592 H   0  0  0  0  0  0
  -21.6654  -26.7427   22.1199 H   0  0  0  0  0  0
  -19.6926  -25.6301   21.1219 H   0  0  0  0  0  0
  -19.6710  -27.3217   20.6759 H   0  0  0  0  0  0
  -17.4212  -26.6677   21.4027 H   0  0  0  0  0  0
  -18.0345  -26.0102   22.9027 H   0  0  0  0  0  0
  -19.7962  -30.7280   24.2230 H   0  0  0  0  0  0
  -17.5049  -31.6267   24.5172 H   0  0  0  0  0  0
  -15.5377  -30.2985   23.7691 H   0  0  0  0  0  0
  -15.8682  -28.0847   22.7020 H   0  0  0  0  0  0
  -24.5925  -30.7030   25.7803 H   0  0  0  0  0  0
  -24.8920  -32.2895   26.4838 H   0  0  0  0  0  0
  -25.8076  -30.8947   27.0240 H   0  0  0  0  0  0
  -26.2884  -29.6756   24.1166 H   0  0  0  0  0  0
  -27.4045  -29.7210   25.4613 H   0  0  0  0  0  0
  -27.8737  -30.4308   23.9345 H   0  0  0  0  0  0
  -27.2659  -33.3616   26.2035 H   0  0  0  0  0  0
  -28.3888  -32.6794   25.0337 H   0  0  0  0  0  0
  -28.0661  -31.8430   26.5452 H   0  0  0  0  0  0
  -28.2583  -38.0092   24.7511 H   0  0  0  0  0  0
  -28.1067  -36.2630   24.6306 H   0  0  0  0  0  0
  -27.2304  -37.1447   25.8880 H   0  0  0  0  0  0
  -20.9341  -29.8775   21.6900 H   0  0  0  0  0  0
  -26.0166  -38.2828   24.1439 H   0  0  0  0  0  0
  -27.5087  -19.6734   21.1775 H   0  0  0  0  0  0
  -31.6237  -19.8978   19.8843 H   0  0  0  0  0  0
  -27.7182  -17.2752   21.3886 H   0  0  0  0  0  0
  -31.8177  -17.4709   20.0923 H   0  0  0  0  0  0
  -30.6004  -24.6074   19.5079 H   0  0  0  0  0  0
  -31.4669  -22.2288   20.3253 H   0  0  0  0  0  0
  -30.7030  -22.0567   18.7273 H   0  0  0  0  0  0
  -27.5058  -24.3701   22.7980 H   0  0  0  0  0  0
  -27.1264  -26.0595   22.5498 H   0  0  0  0  0  0
  -28.8067  -25.5522   22.7202 H   0  0  0  0  0  0
  -26.9587  -24.7662   20.4319 H   0  0  0  0  0  0
  -28.9119  -15.2999   21.2728 H   0  0  0  0  0  0
  1 25  1  0  0  0
  1 30  2  0  0  0
  1 84  1  0  0  0
  2  3  1  0  0  0
  2 25  1  0  0  0
  2 86  1  0  0  0
  2 87  1  0  0  0
  3  4  1  0  0  0
  3 88  1  0  0  0
  3 89  1  0  0  0
  4  5  1  0  0  0
  4 90  1  0  0  0
  4 91  1  0  0  0
  5  6  1  0  0  0
  5 26  1  0  0  0
  5 92  1  0  0  0
  6 25  1  0  0  0
  6 93  1  0  0  0
  6 94  1  0  0  0
  7  8  2  0  0  0
  7 26  1  0  0  0
  7 29  1  0  0  0
  8  9  1  0  0  0
  8 22  1  0  0  0
  9 10  1  0  0  0
  9 27  2  0  0  0
 10 11  2  0  0  0
 10 15  1  0  0  0
 11 12  1  0  0  0
 11 95  1  0  0  0
 12 13  2  0  0  0
 12 96  1  0  0  0
 13 14  1  0  0  0
 13 31  1  0  0  0
 14 15  2  0  0  0
 14 97  1  0  0  0
 15 98  1  0  0  0
 16 17  2  0  0  0
 16 21  1  0  0  0
 16 31  1  0  0  0
 17 18  1  0  0  0
 17 99  1  0  0  0
 18 19  2  0  0  0
 18100  1  0  0  0
 19 20  1  0  0  0
 19 24  1  0  0  0
 20 21  2  0  0  0
 20101  1  0  0  0
 21 23  1  0  0  0
 22 28  1  0  0  0
 22 32  2  0  0  0
 26 27  1  0  0  0
 28102  1  0  0  0
 28103  1  0  0  0
 29104  1  0  0  0
 29105  1  0  0  0
 33 34  1  0  0  0
 33 66  1  0  0  0
 33 70  2  0  0  0
 34 36  1  0  0  0
 34 59  1  0  0  0
 34106  1  0  0  0
 35 44  2  0  0  0
 35 45  1  0  0  0
 35 68  1  0  0  0
 36 56  1  0  0  0
 36107  1  0  0  0
 37 39  1  0  0  0
 37 47  1  0  0  0
 37 66  1  0  0  0
 37108  1  0  0  0
 38 43  2  0  0  0
 38 46  1  0  0  0
 38 47  1  0  0  0
 39 64  1  0  0  0
 39 67  2  0  0  0
 40 52  1  0  0  0
 40 53  2  0  0  0
 40 58  1  0  0  0
 41109  1  0  0  0
 41110  1  0  0  0
 41111  1  0  0  0
 41 48  1  0  0  0
 42 43  1  0  0  0
 42 66  1  0  0  0
 42112  1  0  0  0
 42113  1  0  0  0
 43 44  1  0  0  0
 44114  1  0  0  0
 45 46  2  0  0  0
 45115  1  0  0  0
 46116  1  0  0  0
 47117  1  0  0  0
 47118  1  0  0  0
 48 56  1  0  0  0
 48 65  1  0  0  0
 48119  1  0  0  0
 49 50  1  0  0  0
 49 53  1  0  0  0
 49 64  1  0  0  0
 49120  1  0  0  0
 50 51  1  0  0  0
 50121  1  0  0  0
 50122  1  0  0  0
 51 52  1  0  0  0
 51123  1  0  0  0
 51124  1  0  0  0
 52125  1  0  0  0
 52126  1  0  0  0
 53 54  1  0  0  0
 54 55  2  0  0  0
 54127  1  0  0  0
 55 57  1  0  0  0
 55128  1  0  0  0
 56 69  2  0  0  0
 57 58  2  0  0  0
 57129  1  0  0  0
 58130  1  0  0  0
 59 60  1  0  0  0
 59 61  1  0  0  0
 59 62  1  0  0  0
 60131  1  0  0  0
 60132  1  0  0  0
 60133  1  0  0  0
 61134  1  0  0  0
 61135  1  0  0  0
 61136  1  0  0  0
 62137  1  0  0  0
 62138  1  0  0  0
 62139  1  0  0  0
 63 65  1  0  0  0
 63140  1  0  0  0
 63141  1  0  0  0
 63142  1  0  0  0
 64143  1  0  0  0
 65144  1  0  0  0
 68 82  1  0  0  0
 71 73  2  0  0  0
 71 75  1  0  0  0
 71145  1  0  0  0
 72 74  1  0  0  0
 72 75  2  0  0  0
 72146  1  0  0  0
 73 76  1  0  0  0
 73147  1  0  0  0
 74 76  2  0  0  0
 74148  1  0  0  0
 75 83  1  0  0  0
 76 84  1  0  0  0
 77 78  2  0  0  0
 77 80  1  0  0  0
 77149  1  0  0  0
 78 79  1  0  0  0
 78 82  1  0  0  0
 79 83  1  0  0  0
 79 85  2  0  0  0
 80 83  1  0  0  0
 80150  1  0  0  0
 80151  1  0  0  0
 81152  1  0  0  0
 81153  1  0  0  0
 81154  1  0  0  0
 81 82  1  0  0  0
 82155  1  0  0  0
 84156  1  0  0  0
M  ISO  4   1 100  68 101  82 101  84 100
M  END
> <chiral flag>
0

> <version>
0

> <s_m_source_file>
/data/baiqing/PycharmProjects/Reinvent-master-3.2/result/LINK_invent/BTK/process_docking_weight1_custom_product_contain_oxygen_bond_distance_aromatic_linkinvent_7_9_3/rearranged_h_0080.sdf

> <i_m_source_file_index>
61

> <r_mmod_Potential_Energy-OPLS-2005>
168.639221191406

> <r_mmod_Stretch_Energy-OPLS-2005>
87.0212631225586

> <r_mmod_Bend_Energy-OPLS-2005>
187.868911743164

> <r_mmod_Torsional_Energy-OPLS-2005>
245.885147094727

> <r_mmod_Improper_Torsional_Energy-OPLS-2005>
4.19291877746582

> <r_mmod_Van_der_Waal_Energy-OPLS-2005>
143.019287109375

> <r_mmod_Electrostatic_Energy-OPLS-2005>
-346.480072021484

> <r_mmod_Solvation_Energy-OPLS-2005>
-208.884002685547

> <b_mmod_Minimization_Converged-OPLS-2005>
0

> <r_mmod_RMS_Derivative-OPLS-2005>
2.27462267875671

$$$$
61
                    3D
 Structure written by MMmdl.
153161  0  0  1  0            999 V2000
  -30.6501  -14.5055   20.5864 C   0  0  0  0  0  0
  -30.4398  -12.3338   19.4145 C   0  0  0  0  0  0
  -29.4981  -12.5115   18.2036 C   0  0  0  0  0  0
  -28.0202  -12.3555   18.6190 C   0  0  0  0  0  0
  -27.6626  -13.1944   19.8742 C   0  0  2  0  0  0
  -28.7040  -12.9584   20.9915 C   0  0  0  0  0  0
  -25.2605  -13.8136   20.5646 C   0  0  0  0  0  0
  -24.1854  -13.0439   20.9179 C   0  0  0  0  0  0
  -24.6384  -11.6899   20.8735 C   0  0  0  0  0  0
  -23.9053  -10.4293   21.0417 C   0  0  0  0  0  0
  -24.3609   -9.4212   21.9197 C   0  0  0  0  0  0
  -23.6286   -8.2245   22.0768 C   0  0  0  0  0  0
  -22.4268   -8.0279   21.3553 C   0  0  0  0  0  0
  -21.9905   -9.0250   20.4651 C   0  0  0  0  0  0
  -22.7229  -10.2133   20.3063 C   0  0  0  0  0  0
  -21.6851   -6.0728   22.5272 C   0  0  0  0  0  0
  -21.4008   -6.5629   23.8202 C   0  0  0  0  0  0
  -21.3660   -5.6785   24.9169 C   0  0  0  0  0  0
  -21.6043   -4.3050   24.7221 C   0  0  0  0  0  0
  -21.8821   -3.8144   23.4340 C   0  0  0  0  0  0
  -21.9196   -4.6959   22.3391 C   0  0  0  0  0  0
  -22.7880  -13.5245   21.1833 C   0  0  0  0  0  0
  -22.1681   -4.2146   21.0970 F   0  0  0  0  0  0
  -21.5632   -3.4541   25.7739 F   0  0  0  0  0  0
  -30.0313  -13.2997   20.4455 N   0  0  0  0  0  0
  -26.3022  -12.9275   20.3340 N   0  0  0  0  0  0
  -25.9301  -11.6448   20.5751 N   0  0  0  0  0  0
  -22.0509  -12.8233   22.0372 N   0  0  0  0  0  0
  -25.4337  -15.1852   20.3997 N   0  0  0  0  0  0
  -31.7813  -14.7329   20.1428 O   0  0  0  0  0  0
  -21.6640   -6.8873   21.4234 O   0  0  0  0  0  0
  -22.3580  -14.5550   20.6668 O   0  0  0  0  0  0
  -24.6148  -31.8687   23.2094 C   0  0  0  0  0  0
  -25.9037  -32.4831   23.8392 C   0  0  1  0  0  0
  -27.2373  -27.4292   20.1074 C   0  0  0  0  0  0
  -25.5888  -33.8629   24.2326 N   0  0  0  0  0  0
  -23.4040  -30.4902   21.5503 C   0  0  2  0  0  0
  -24.8528  -28.9478   20.1253 C   0  0  0  0  0  0
  -22.7404  -29.4669   22.4995 C   0  0  0  0  0  0
  -18.0270  -28.1389   22.8492 C   0  0  0  0  0  0
  -24.1474  -36.7302   23.2633 C   0  0  0  0  0  0
  -25.9324  -30.8323   21.3630 C   0  0  0  0  0  0
  -26.0129  -29.4612   20.7209 C   0  0  0  0  0  0
  -27.2125  -28.7091   20.7096 C   0  0  0  0  0  0
  -26.0628  -26.9267   19.5148 C   0  0  0  0  0  0
  -24.8713  -27.6774   19.5219 C   0  0  0  0  0  0
  -23.6152  -29.8172   20.1678 C   0  0  0  0  0  0
  -25.4102  -36.3111   24.0330 C   0  0  1  0  0  0
  -20.5858  -28.3683   23.1319 C   0  0  2  0  0  0
  -20.6757  -26.9422   22.5413 C   0  0  0  0  0  0
  -19.5737  -26.6409   21.5201 C   0  0  0  0  0  0
  -18.1914  -26.7939   22.1617 C   0  0  0  0  0  0
  -19.1519  -28.8851   23.2899 C   0  0  0  0  0  0
  -18.9453  -30.1450   23.8920 C   0  0  0  0  0  0
  -17.6460  -30.6594   24.0577 C   0  0  0  0  0  0
  -25.9038  -34.9481   23.5128 C   0  0  0  0  0  0
  -16.5348  -29.9101   23.6327 C   0  0  0  0  0  0
  -16.7262  -28.6510   23.0360 C   0  0  0  0  0  0
  -26.4463  -31.6609   25.0722 C   0  0  0  0  0  0
  -25.3728  -31.3685   26.1462 C   0  0  0  0  0  0
  -27.0324  -30.3065   24.6098 C   0  0  0  0  0  0
  -27.6033  -32.4331   25.7492 C   0  0  0  0  0  0
  -27.5586  -37.1803   24.8452 C   0  0  0  0  0  0
  -21.4133  -29.3048   22.3722 N   0  0  0  0  0  0
  -26.4280  -37.3806   23.9418 N   0  0  0  0  0  0
  -24.6685  -31.0788   22.0995 N   0  0  0  0  0  0
  -23.4160  -28.8216   23.3053 O   0  0  0  0  0  0
  -28.3897  -26.6829   20.0126 O   0  0  0  0  0  0
  -26.5613  -34.8931   22.4693 O   0  0  0  0  0  0
  -23.5338  -32.1449   23.7470 O   0  0  0  0  0  0
  -28.8307  -19.0496   21.4871 C   0  0  0  0  0  0
  -31.2550  -18.9528   21.5871 C   0  0  0  0  0  0
  -28.7961  -17.6503   21.2775 C   0  0  0  0  0  0
  -31.2202  -17.5551   21.3527 C   0  0  0  0  0  0
  -30.0622  -19.7143   21.6743 C   0  0  0  0  0  0
  -29.9833  -16.8803   21.2183 C   0  0  0  0  0  0
  -28.9814  -24.4521   20.6906 C   0  0  0  0  0  0
  -28.6353  -25.7319   20.9759 C   0  0  0  0  0  0
  -30.1036  -21.1378   22.0848 C   0  0  0  0  0  0
  -29.3658  -23.5292   21.7588 C   0  0  0  0  0  0
  -29.8482  -15.4585   21.1115 N   0  0  0  0  0  0
  -29.5025  -22.1342   21.3759 N   0  0  0  0  0  0
  -30.7739  -21.3914   23.2157 N   0  3  0  0  0  0
  -29.6168  -23.8830   22.9191 O   0  0  0  0  0  0
  -31.4782  -12.4684   19.1070 H   0  0  0  0  0  0
  -30.3733  -11.3183   19.8059 H   0  0  0  0  0  0
  -29.7472  -11.7886   17.4256 H   0  0  0  0  0  0
  -29.6482  -13.4984   17.7631 H   0  0  0  0  0  0
  -27.8424  -11.2980   18.8205 H   0  0  0  0  0  0
  -27.3646  -12.6210   17.7893 H   0  0  0  0  0  0
  -27.7092  -14.2427   19.5784 H   0  0  0  0  0  0
  -28.6936  -11.9125   21.3014 H   0  0  0  0  0  0
  -28.4547  -13.5224   21.8915 H   0  0  0  0  0  0
  -25.2763   -9.5688   22.4759 H   0  0  0  0  0  0
  -24.0001   -7.4638   22.7490 H   0  0  0  0  0  0
  -21.0845   -8.8754   19.8950 H   0  0  0  0  0  0
  -22.3692  -10.9666   19.6160 H   0  0  0  0  0  0
  -21.1996   -7.6137   23.9695 H   0  0  0  0  0  0
  -21.1487   -6.0528   25.9072 H   0  0  0  0  0  0
  -22.0599   -2.7605   23.2838 H   0  0  0  0  0  0
  -22.4110  -11.9872   22.4733 H   0  0  0  0  0  0
  -21.1122  -13.1250   22.2570 H   0  0  0  0  0  0
  -24.6510  -15.8270   20.4667 H   0  0  0  0  0  0
  -26.2513  -15.6033   19.9759 H   0  0  0  0  0  0
  -26.7108  -32.5552   23.1166 H   0  0  0  0  0  0
  -25.0016  -33.9788   25.0457 H   0  0  0  0  0  0
  -22.6919  -31.3055   21.4062 H   0  0  0  0  0  0
  -23.3757  -35.9608   23.3263 H   0  0  0  0  0  0
  -24.3570  -36.8970   22.2055 H   0  0  0  0  0  0
  -23.7202  -37.6478   23.6690 H   0  0  0  0  0  0
  -26.0398  -31.5914   20.5869 H   0  0  0  0  0  0
  -26.8220  -30.8947   21.9774 H   0  0  0  0  0  0
  -28.1153  -29.1075   21.1505 H   0  0  0  0  0  0
  -26.0797  -25.9553   19.0413 H   0  0  0  0  0  0
  -23.9796  -27.2745   19.0615 H   0  0  0  0  0  0
  -23.7240  -30.5846   19.4006 H   0  0  0  0  0  0
  -22.7395  -29.2352   19.8772 H   0  0  0  0  0  0
  -25.1262  -36.1974   25.0823 H   0  0  0  0  0  0
  -20.9966  -28.3272   24.1437 H   0  0  0  0  0  0
  -20.5674  -26.2286   23.3593 H   0  0  0  0  0  0
  -21.6634  -26.7479   22.1224 H   0  0  0  0  0  0
  -19.6897  -25.6331   21.1213 H   0  0  0  0  0  0
  -19.6664  -27.3223   20.6729 H   0  0  0  0  0  0
  -17.4191  -26.6705   21.4009 H   0  0  0  0  0  0
  -18.0291  -26.0076   22.9002 H   0  0  0  0  0  0
  -19.7934  -30.7241   24.2316 H   0  0  0  0  0  0
  -17.5025  -31.6275   24.5186 H   0  0  0  0  0  0
  -15.5351  -30.3019   23.7634 H   0  0  0  0  0  0
  -15.8659  -28.0825   22.7093 H   0  0  0  0  0  0
  -24.5907  -30.7035   25.7785 H   0  0  0  0  0  0
  -24.8897  -32.2819   26.4932 H   0  0  0  0  0  0
  -25.8078  -30.8834   27.0207 H   0  0  0  0  0  0
  -26.2879  -29.6800   24.1169 H   0  0  0  0  0  0
  -27.4143  -29.7324   25.4550 H   0  0  0  0  0  0
  -27.8679  -30.4415   23.9222 H   0  0  0  0  0  0
  -27.2674  -33.3667   26.2021 H   0  0  0  0  0  0
  -28.3868  -32.6837   25.0331 H   0  0  0  0  0  0
  -28.0660  -31.8478   26.5453 H   0  0  0  0  0  0
  -28.2562  -38.0142   24.7602 H   0  0  0  0  0  0
  -28.1134  -36.2687   24.6167 H   0  0  0  0  0  0
  -27.2302  -37.1335   25.8849 H   0  0  0  0  0  0
  -20.9295  -29.8757   21.6932 H   0  0  0  0  0  0
  -26.0161  -38.2867   24.1485 H   0  0  0  0  0  0
  -27.9000  -19.5956   21.5709 H   0  0  0  0  0  0
  -32.2118  -19.4348   21.7372 H   0  0  0  0  0  0
  -27.8323  -17.1677   21.1922 H   0  0  0  0  0  0
  -32.1504  -17.0067   21.3266 H   0  0  0  0  0  0
  -29.0084  -24.1254   19.6614 H   0  0  0  0  0  0
  -28.5581  -26.1351   21.9788 H   0  0  0  0  0  0
  -28.9349  -15.1039   21.3480 H   0  0  0  0  0  0
  -29.2090  -21.8130   20.4671 H   0  0  0  0  0  0
  -31.1595  -20.6356   23.7604 H   0  0  0  0  0  0
  -30.7497  -22.3287   23.5982 H   0  0  0  0  0  0
  1 25  1  0  0  0
  1 30  2  0  0  0
  1 81  1  0  0  0
  2  3  1  0  0  0
  2 25  1  0  0  0
  2 85  1  0  0  0
  2 86  1  0  0  0
  3  4  1  0  0  0
  3 87  1  0  0  0
  3 88  1  0  0  0
  4  5  1  0  0  0
  4 89  1  0  0  0
  4 90  1  0  0  0
  5  6  1  0  0  0
  5 26  1  0  0  0
  5 91  1  0  0  0
  6 25  1  0  0  0
  6 92  1  0  0  0
  6 93  1  0  0  0
  7  8  2  0  0  0
  7 26  1  0  0  0
  7 29  1  0  0  0
  8  9  1  0  0  0
  8 22  1  0  0  0
  9 10  1  0  0  0
  9 27  2  0  0  0
 10 11  2  0  0  0
 10 15  1  0  0  0
 11 12  1  0  0  0
 11 94  1  0  0  0
 12 13  2  0  0  0
 12 95  1  0  0  0
 13 14  1  0  0  0
 13 31  1  0  0  0
 14 15  2  0  0  0
 14 96  1  0  0  0
 15 97  1  0  0  0
 16 17  2  0  0  0
 16 21  1  0  0  0
 16 31  1  0  0  0
 17 18  1  0  0  0
 17 98  1  0  0  0
 18 19  2  0  0  0
 18 99  1  0  0  0
 19 20  1  0  0  0
 19 24  1  0  0  0
 20 21  2  0  0  0
 20100  1  0  0  0
 21 23  1  0  0  0
 22 28  1  0  0  0
 22 32  2  0  0  0
 26 27  1  0  0  0
 28101  1  0  0  0
 28102  1  0  0  0
 29103  1  0  0  0
 29104  1  0  0  0
 33 34  1  0  0  0
 33 66  1  0  0  0
 33 70  2  0  0  0
 34 36  1  0  0  0
 34 59  1  0  0  0
 34105  1  0  0  0
 35 44  2  0  0  0
 35 45  1  0  0  0
 35 68  1  0  0  0
 36 56  1  0  0  0
 36106  1  0  0  0
 37 39  1  0  0  0
 37 47  1  0  0  0
 37 66  1  0  0  0
 37107  1  0  0  0
 38 43  2  0  0  0
 38 46  1  0  0  0
 38 47  1  0  0  0
 39 64  1  0  0  0
 39 67  2  0  0  0
 40 52  1  0  0  0
 40 53  2  0  0  0
 40 58  1  0  0  0
 41108  1  0  0  0
 41109  1  0  0  0
 41110  1  0  0  0
 41 48  1  0  0  0
 42 43  1  0  0  0
 42 66  1  0  0  0
 42111  1  0  0  0
 42112  1  0  0  0
 43 44  1  0  0  0
 44113  1  0  0  0
 45 46  2  0  0  0
 45114  1  0  0  0
 46115  1  0  0  0
 47116  1  0  0  0
 47117  1  0  0  0
 48 56  1  0  0  0
 48 65  1  0  0  0
 48118  1  0  0  0
 49 50  1  0  0  0
 49 53  1  0  0  0
 49 64  1  0  0  0
 49119  1  0  0  0
 50 51  1  0  0  0
 50120  1  0  0  0
 50121  1  0  0  0
 51 52  1  0  0  0
 51122  1  0  0  0
 51123  1  0  0  0
 52124  1  0  0  0
 52125  1  0  0  0
 53 54  1  0  0  0
 54 55  2  0  0  0
 54126  1  0  0  0
 55 57  1  0  0  0
 55127  1  0  0  0
 56 69  2  0  0  0
 57 58  2  0  0  0
 57128  1  0  0  0
 58129  1  0  0  0
 59 60  1  0  0  0
 59 61  1  0  0  0
 59 62  1  0  0  0
 60130  1  0  0  0
 60131  1  0  0  0
 60132  1  0  0  0
 61133  1  0  0  0
 61134  1  0  0  0
 61135  1  0  0  0
 62136  1  0  0  0
 62137  1  0  0  0
 62138  1  0  0  0
 63 65  1  0  0  0
 63139  1  0  0  0
 63140  1  0  0  0
 63141  1  0  0  0
 64142  1  0  0  0
 65143  1  0  0  0
 68 78  1  0  0  0
 71 73  2  0  0  0
 71 75  1  0  0  0
 71144  1  0  0  0
 72 74  1  0  0  0
 72 75  2  0  0  0
 72145  1  0  0  0
 73 76  1  0  0  0
 73146  1  0  0  0
 74 76  2  0  0  0
 74147  1  0  0  0
 75 79  1  0  0  0
 76 81  1  0  0  0
 77 78  2  0  0  0
 77 80  1  0  0  0
 77148  1  0  0  0
 78149  1  0  0  0
 79 82  1  0  0  0
 79 83  2  0  0  0
 80 82  1  0  0  0
 80 84  2  0  0  0
 81150  1  0  0  0
 82151  1  0  0  0
 83152  1  0  0  0
 83153  1  0  0  0
M  CHG  1  83   1
M  ISO  4   1 100  68 101  78 101  81 100
M  END
> <chiral flag>
0

> <version>
0

> <s_m_source_file>
/data/baiqing/PycharmProjects/Reinvent-master-3.2/result/LINK_invent/BTK/process_docking_weight1_custom_product_contain_oxygen_bond_distance_aromatic_linkinvent_7_9_3/rearranged_h_0080.sdf

> <i_m_source_file_index>
62

> <r_mmod_Potential_Energy-OPLS-2005>
-306.989715576172

> <r_mmod_Stretch_Energy-OPLS-2005>
40.2303695678711

> <r_mmod_Bend_Energy-OPLS-2005>
110.760200500488

> <r_mmod_Torsional_Energy-OPLS-2005>
238.029724121094

> <r_mmod_Improper_Torsional_Energy-OPLS-2005>
6.03558015823364

> <r_mmod_Van_der_Waal_Energy-OPLS-2005>
159.960098266602

> <r_mmod_Electrostatic_Energy-OPLS-2005>
-433.643676757812

> <r_mmod_Solvation_Energy-OPLS-2005>
-442.910858154297

> <b_mmod_Minimization_Converged-OPLS-2005>
0

> <r_mmod_RMS_Derivative-OPLS-2005>
1.81829357147217

$$$$
62
                    3D
 Structure written by MMmdl.
150158  0  0  1  0            999 V2000
  -30.6068  -14.6767   20.4859 C   0  0  0  0  0  0
  -30.4403  -12.4122   19.4593 C   0  0  0  0  0  0
  -29.5106  -12.5080   18.2285 C   0  0  0  0  0  0
  -28.0338  -12.3410   18.6395 C   0  0  0  0  0  0
  -27.6511  -13.2185   19.8608 C   0  0  2  0  0  0
  -28.6960  -13.0917   20.9924 C   0  0  0  0  0  0
  -25.2554  -13.8173   20.5683 C   0  0  0  0  0  0
  -24.1826  -13.0438   20.9196 C   0  0  0  0  0  0
  -24.6396  -11.6908   20.8743 C   0  0  0  0  0  0
  -23.9064  -10.4291   21.0407 C   0  0  0  0  0  0
  -24.3616   -9.4207   21.9184 C   0  0  0  0  0  0
  -23.6290   -8.2243   22.0754 C   0  0  0  0  0  0
  -22.4273   -8.0281   21.3543 C   0  0  0  0  0  0
  -21.9908   -9.0256   20.4647 C   0  0  0  0  0  0
  -22.7236  -10.2135   20.3057 C   0  0  0  0  0  0
  -21.6854   -6.0735   22.5278 C   0  0  0  0  0  0
  -21.4016   -6.5639   23.8211 C   0  0  0  0  0  0
  -21.3659   -5.6791   24.9173 C   0  0  0  0  0  0
  -21.6043   -4.3054   24.7224 C   0  0  0  0  0  0
  -21.8819   -3.8146   23.4345 C   0  0  0  0  0  0
  -21.9193   -4.6962   22.3401 C   0  0  0  0  0  0
  -22.7848  -13.5230   21.1856 C   0  0  0  0  0  0
  -22.1661   -4.2148   21.0978 F   0  0  0  0  0  0
  -21.5628   -3.4538   25.7737 F   0  0  0  0  0  0
  -30.0074  -13.4426   20.4260 N   0  0  0  0  0  0
  -26.2979  -12.9355   20.3306 N   0  0  0  0  0  0
  -25.9324  -11.6510   20.5756 N   0  0  0  0  0  0
  -22.0488  -12.8225   22.0413 N   0  0  0  0  0  0
  -25.4263  -15.1897   20.4085 N   0  0  0  0  0  0
  -31.7770  -14.8269   20.1216 O   0  0  0  0  0  0
  -21.6639   -6.8878   21.4240 O   0  0  0  0  0  0
  -22.3534  -14.5535   20.6701 O   0  0  0  0  0  0
  -24.6279  -31.8583   23.2013 C   0  0  0  0  0  0
  -25.9118  -32.4771   23.8346 C   0  0  1  0  0  0
  -27.2233  -27.3013   20.1185 C   0  0  0  0  0  0
  -25.5926  -33.8572   24.2272 N   0  0  0  0  0  0
  -23.4224  -30.4821   21.5443 C   0  0  2  0  0  0
  -24.8689  -28.9355   20.1105 C   0  0  0  0  0  0
  -22.7483  -29.4617   22.4927 C   0  0  0  0  0  0
  -18.0288  -28.1385   22.8486 C   0  0  0  0  0  0
  -24.1489  -36.7292   23.2639 C   0  0  0  0  0  0
  -25.9655  -30.7838   21.3751 C   0  0  0  0  0  0
  -26.0393  -29.4103   20.7158 C   0  0  0  0  0  0
  -27.2195  -28.6055   20.7085 C   0  0  0  0  0  0
  -26.0280  -26.8849   19.4874 C   0  0  0  0  0  0
  -24.8664  -27.6793   19.4868 C   0  0  0  0  0  0
  -23.6379  -29.8177   20.1596 C   0  0  0  0  0  0
  -25.4114  -36.3079   24.0328 C   0  0  1  0  0  0
  -20.5890  -28.3691   23.1278 C   0  0  2  0  0  0
  -20.6776  -26.9412   22.5409 C   0  0  0  0  0  0
  -19.5751  -26.6383   21.5212 C   0  0  0  0  0  0
  -18.1932  -26.7927   22.1626 C   0  0  0  0  0  0
  -19.1541  -28.8855   23.2878 C   0  0  0  0  0  0
  -18.9463  -30.1457   23.8895 C   0  0  0  0  0  0
  -17.6462  -30.6587   24.0563 C   0  0  0  0  0  0
  -25.9052  -34.9448   23.5101 C   0  0  0  0  0  0
  -16.5354  -29.9085   23.6329 C   0  0  0  0  0  0
  -16.7275  -28.6503   23.0351 C   0  0  0  0  0  0
  -26.4495  -31.6587   25.0724 C   0  0  0  0  0  0
  -25.3724  -31.3732   26.1449 C   0  0  0  0  0  0
  -27.0341  -30.3007   24.6192 C   0  0  0  0  0  0
  -27.6050  -32.4327   25.7497 C   0  0  0  0  0  0
  -27.5579  -37.1801   24.8464 C   0  0  0  0  0  0
  -21.4195  -29.3044   22.3670 N   0  0  0  0  0  0
  -26.4291  -37.3774   23.9407 N   0  0  0  0  0  0
  -24.6909  -31.0582   22.0970 N   0  0  0  0  0  0
  -23.4200  -28.8155   23.3011 O   0  0  0  0  0  0
  -28.3346  -26.4386   20.1737 O   0  0  0  0  0  0
  -26.5622  -34.8918   22.4669 O   0  0  0  0  0  0
  -23.5438  -32.1387   23.7332 O   0  0  0  0  0  0
  -31.0735  -19.3280   20.1619 C   0  0  0  0  0  0
  -28.8199  -19.4610   20.9662 C   0  0  0  0  0  0
  -31.0390  -17.9004   20.2188 C   0  0  0  0  0  0
  -28.7843  -18.0277   21.0253 C   0  0  0  0  0  0
  -29.9793  -20.1639   20.5416 C   0  0  0  0  0  0
  -29.8924  -17.1981   20.6727 C   0  0  0  0  0  0
  -30.1830  -21.7020   20.6515 C   0  0  0  0  0  0
  -29.3055  -24.0265   20.4400 C   0  0  0  0  0  0
  -28.1051  -24.9690   20.0188 C   0  0  0  0  0  0
  -29.7812  -15.7336   20.8002 N   0  0  0  0  0  0
  -29.2078  -22.6402   20.3729 N   0  0  0  0  0  0
  -31.3264  -22.0403   20.9800 O   0  0  0  0  0  0
  -30.3264  -24.6080   20.8290 O   0  0  0  0  0  0
  -31.4808  -12.5424   19.1569 H   0  0  0  0  0  0
  -30.3822  -11.4208   19.9114 H   0  0  0  0  0  0
  -29.7809  -11.7508   17.4914 H   0  0  0  0  0  0
  -29.6475  -13.4737   17.7388 H   0  0  0  0  0  0
  -27.8758  -11.2886   18.8782 H   0  0  0  0  0  0
  -27.3792  -12.5619   17.7955 H   0  0  0  0  0  0
  -27.6629  -14.2502   19.5094 H   0  0  0  0  0  0
  -28.7157  -12.0742   21.3857 H   0  0  0  0  0  0
  -28.4372  -13.7320   21.8371 H   0  0  0  0  0  0
  -25.2763   -9.5681   22.4757 H   0  0  0  0  0  0
  -23.9999   -7.4635   22.7474 H   0  0  0  0  0  0
  -21.0838   -8.8777   19.8954 H   0  0  0  0  0  0
  -22.3696  -10.9675   19.6166 H   0  0  0  0  0  0
  -21.2011   -7.6147   23.9714 H   0  0  0  0  0  0
  -21.1480   -6.0522   25.9076 H   0  0  0  0  0  0
  -22.0599   -2.7608   23.2847 H   0  0  0  0  0  0
  -22.4103  -11.9889   22.4805 H   0  0  0  0  0  0
  -21.1107  -13.1257   22.2617 H   0  0  0  0  0  0
  -24.6543  -15.8401   20.5078 H   0  0  0  0  0  0
  -26.2636  -15.6250   20.0439 H   0  0  0  0  0  0
  -26.7186  -32.5435   23.1093 H   0  0  0  0  0  0
  -25.0067  -33.9712   25.0412 H   0  0  0  0  0  0
  -22.7170  -31.3033   21.4009 H   0  0  0  0  0  0
  -23.3749  -35.9627   23.3302 H   0  0  0  0  0  0
  -24.3580  -36.8914   22.2054 H   0  0  0  0  0  0
  -23.7245  -37.6495   23.6662 H   0  0  0  0  0  0
  -26.1000  -31.5474   20.6076 H   0  0  0  0  0  0
  -26.8447  -30.8314   22.0061 H   0  0  0  0  0  0
  -28.1166  -28.9648   21.1932 H   0  0  0  0  0  0
  -25.9595  -25.9267   18.9951 H   0  0  0  0  0  0
  -23.9699  -27.3109   19.0072 H   0  0  0  0  0  0
  -23.7587  -30.5946   19.4038 H   0  0  0  0  0  0
  -22.7572  -29.2488   19.8561 H   0  0  0  0  0  0
  -25.1295  -36.1930   25.0820 H   0  0  0  0  0  0
  -20.9983  -28.3268   24.1398 H   0  0  0  0  0  0
  -20.5678  -26.2301   23.3610 H   0  0  0  0  0  0
  -21.6645  -26.7440   22.1202 H   0  0  0  0  0  0
  -19.6912  -25.6294   21.1242 H   0  0  0  0  0  0
  -19.6687  -27.3192   20.6742 H   0  0  0  0  0  0
  -17.4199  -26.6671   21.4032 H   0  0  0  0  0  0
  -18.0336  -26.0071   22.9026 H   0  0  0  0  0  0
  -19.7938  -30.7274   24.2263 H   0  0  0  0  0  0
  -17.5016  -31.6266   24.5165 H   0  0  0  0  0  0
  -15.5354  -30.2987   23.7653 H   0  0  0  0  0  0
  -15.8676  -28.0821   22.7067 H   0  0  0  0  0  0
  -24.5895  -30.7087   25.7777 H   0  0  0  0  0  0
  -24.8923  -32.2903   26.4872 H   0  0  0  0  0  0
  -25.8044  -30.8908   27.0225 H   0  0  0  0  0  0
  -26.2921  -29.6756   24.1209 H   0  0  0  0  0  0
  -27.4025  -29.7265   25.4703 H   0  0  0  0  0  0
  -27.8796  -30.4288   23.9429 H   0  0  0  0  0  0
  -27.2653  -33.3625   26.2072 H   0  0  0  0  0  0
  -28.3860  -32.6892   25.0327 H   0  0  0  0  0  0
  -28.0717  -31.8456   26.5416 H   0  0  0  0  0  0
  -28.2594  -38.0101   24.7513 H   0  0  0  0  0  0
  -28.1079  -36.2632   24.6286 H   0  0  0  0  0  0
  -27.2298  -37.1445   25.8867 H   0  0  0  0  0  0
  -20.9373  -29.8771   21.6884 H   0  0  0  0  0  0
  -26.0172  -38.2849   24.1409 H   0  0  0  0  0  0
  -31.9968  -19.7957   19.8482 H   0  0  0  0  0  0
  -27.9556  -20.0182   21.2998 H   0  0  0  0  0  0
  -31.9261  -17.3565   19.9275 H   0  0  0  0  0  0
  -27.8748  -17.5622   21.3794 H   0  0  0  0  0  0
  -27.2398  -24.6693   20.6114 H   0  0  0  0  0  0
  -27.8774  -24.7506   18.9752 H   0  0  0  0  0  0
  -28.8733  -15.4168   21.1032 H   0  0  0  0  0  0
  -28.3231  -22.2684   20.0655 H   0  0  0  0  0  0
  1 25  1  0  0  0
  1 30  2  0  0  0
  1 80  1  0  0  0
  2  3  1  0  0  0
  2 25  1  0  0  0
  2 84  1  0  0  0
  2 85  1  0  0  0
  3  4  1  0  0  0
  3 86  1  0  0  0
  3 87  1  0  0  0
  4  5  1  0  0  0
  4 88  1  0  0  0
  4 89  1  0  0  0
  5  6  1  0  0  0
  5 26  1  0  0  0
  5 90  1  0  0  0
  6 25  1  0  0  0
  6 91  1  0  0  0
  6 92  1  0  0  0
  7  8  2  0  0  0
  7 26  1  0  0  0
  7 29  1  0  0  0
  8  9  1  0  0  0
  8 22  1  0  0  0
  9 10  1  0  0  0
  9 27  2  0  0  0
 10 11  2  0  0  0
 10 15  1  0  0  0
 11 12  1  0  0  0
 11 93  1  0  0  0
 12 13  2  0  0  0
 12 94  1  0  0  0
 13 14  1  0  0  0
 13 31  1  0  0  0
 14 15  2  0  0  0
 14 95  1  0  0  0
 15 96  1  0  0  0
 16 17  2  0  0  0
 16 21  1  0  0  0
 16 31  1  0  0  0
 17 18  1  0  0  0
 17 97  1  0  0  0
 18 19  2  0  0  0
 18 98  1  0  0  0
 19 20  1  0  0  0
 19 24  1  0  0  0
 20 21  2  0  0  0
 20 99  1  0  0  0
 21 23  1  0  0  0
 22 28  1  0  0  0
 22 32  2  0  0  0
 26 27  1  0  0  0
 28100  1  0  0  0
 28101  1  0  0  0
 29102  1  0  0  0
 29103  1  0  0  0
 33 34  1  0  0  0
 33 66  1  0  0  0
 33 70  2  0  0  0
 34 36  1  0  0  0
 34 59  1  0  0  0
 34104  1  0  0  0
 35 44  2  0  0  0
 35 45  1  0  0  0
 35 68  1  0  0  0
 36 56  1  0  0  0
 36105  1  0  0  0
 37 39  1  0  0  0
 37 47  1  0  0  0
 37 66  1  0  0  0
 37106  1  0  0  0
 38 43  2  0  0  0
 38 46  1  0  0  0
 38 47  1  0  0  0
 39 64  1  0  0  0
 39 67  2  0  0  0
 40 52  1  0  0  0
 40 53  2  0  0  0
 40 58  1  0  0  0
 41107  1  0  0  0
 41108  1  0  0  0
 41109  1  0  0  0
 41 48  1  0  0  0
 42 43  1  0  0  0
 42 66  1  0  0  0
 42110  1  0  0  0
 42111  1  0  0  0
 43 44  1  0  0  0
 44112  1  0  0  0
 45 46  2  0  0  0
 45113  1  0  0  0
 46114  1  0  0  0
 47115  1  0  0  0
 47116  1  0  0  0
 48 56  1  0  0  0
 48 65  1  0  0  0
 48117  1  0  0  0
 49 50  1  0  0  0
 49 53  1  0  0  0
 49 64  1  0  0  0
 49118  1  0  0  0
 50 51  1  0  0  0
 50119  1  0  0  0
 50120  1  0  0  0
 51 52  1  0  0  0
 51121  1  0  0  0
 51122  1  0  0  0
 52123  1  0  0  0
 52124  1  0  0  0
 53 54  1  0  0  0
 54 55  2  0  0  0
 54125  1  0  0  0
 55 57  1  0  0  0
 55126  1  0  0  0
 56 69  2  0  0  0
 57 58  2  0  0  0
 57127  1  0  0  0
 58128  1  0  0  0
 59 60  1  0  0  0
 59 61  1  0  0  0
 59 62  1  0  0  0
 60129  1  0  0  0
 60130  1  0  0  0
 60131  1  0  0  0
 61132  1  0  0  0
 61133  1  0  0  0
 61134  1  0  0  0
 62135  1  0  0  0
 62136  1  0  0  0
 62137  1  0  0  0
 63 65  1  0  0  0
 63138  1  0  0  0
 63139  1  0  0  0
 63140  1  0  0  0
 64141  1  0  0  0
 65142  1  0  0  0
 68 79  1  0  0  0
 71 73  2  0  0  0
 71 75  1  0  0  0
 71143  1  0  0  0
 72 74  1  0  0  0
 72 75  2  0  0  0
 72144  1  0  0  0
 73 76  1  0  0  0
 73145  1  0  0  0
 74 76  2  0  0  0
 74146  1  0  0  0
 75 77  1  0  0  0
 76 80  1  0  0  0
 77 81  1  0  0  0
 77 82  2  0  0  0
 78 79  1  0  0  0
 78 81  1  0  0  0
 78 83  2  0  0  0
 79147  1  0  0  0
 79148  1  0  0  0
 80149  1  0  0  0
 81150  1  0  0  0
M  ISO  4   1 100  68 101  79 101  80 100
M  END
> <chiral flag>
0

> <version>
0

> <s_m_source_file>
/data/baiqing/PycharmProjects/Reinvent-master-3.2/result/LINK_invent/BTK/process_docking_weight1_custom_product_contain_oxygen_bond_distance_aromatic_linkinvent_7_9_3/rearranged_h_0080.sdf

> <i_m_source_file_index>
63

> <r_mmod_Potential_Energy-OPLS-2005>
-55.1184234619141

> <r_mmod_Stretch_Energy-OPLS-2005>
92.2701950073242

> <r_mmod_Bend_Energy-OPLS-2005>
148.72624206543

> <r_mmod_Torsional_Energy-OPLS-2005>
220.304656982422

> <r_mmod_Improper_Torsional_Energy-OPLS-2005>
5.15767621994019

> <r_mmod_Van_der_Waal_Energy-OPLS-2005>
152.321136474609

> <r_mmod_Electrostatic_Energy-OPLS-2005>
-438.132751464844

> <r_mmod_Solvation_Energy-OPLS-2005>
-295.065979003906

> <b_mmod_Minimization_Converged-OPLS-2005>
0

> <r_mmod_RMS_Derivative-OPLS-2005>
0.221084013581276

$$$$
63
                    3D
 Structure written by MMmdl.
150159  0  0  1  0            999 V2000
  -30.5729  -14.7439   20.4846 C   0  0  0  0  0  0
  -30.4506  -12.4572   19.4680 C   0  0  0  0  0  0
  -29.5163  -12.5185   18.2365 C   0  0  0  0  0  0
  -28.0410  -12.3387   18.6486 C   0  0  0  0  0  0
  -27.6511  -13.2227   19.8625 C   0  0  2  0  0  0
  -28.6967  -13.1104   20.9949 C   0  0  0  0  0  0
  -25.2544  -13.8170   20.5678 C   0  0  0  0  0  0
  -24.1818  -13.0431   20.9182 C   0  0  0  0  0  0
  -24.6402  -11.6908   20.8743 C   0  0  0  0  0  0
  -23.9073  -10.4290   21.0407 C   0  0  0  0  0  0
  -24.3622   -9.4205   21.9183 C   0  0  0  0  0  0
  -23.6295   -8.2241   22.0754 C   0  0  0  0  0  0
  -22.4276   -8.0281   21.3546 C   0  0  0  0  0  0
  -21.9913   -9.0257   20.4649 C   0  0  0  0  0  0
  -22.7245  -10.2134   20.3059 C   0  0  0  0  0  0
  -21.6853   -6.0733   22.5279 C   0  0  0  0  0  0
  -21.4013   -6.5637   23.8211 C   0  0  0  0  0  0
  -21.3659   -5.6792   24.9175 C   0  0  0  0  0  0
  -21.6045   -4.3054   24.7227 C   0  0  0  0  0  0
  -21.8821   -3.8146   23.4349 C   0  0  0  0  0  0
  -21.9193   -4.6961   22.3404 C   0  0  0  0  0  0
  -22.7841  -13.5223   21.1847 C   0  0  0  0  0  0
  -22.1658   -4.2144   21.0983 F   0  0  0  0  0  0
  -21.5636   -3.4538   25.7742 F   0  0  0  0  0  0
  -30.0028  -13.4897   20.4304 N   0  0  0  0  0  0
  -26.2985  -12.9366   20.3328 N   0  0  0  0  0  0
  -25.9337  -11.6516   20.5772 N   0  0  0  0  0  0
  -22.0491  -12.8218   22.0413 N   0  0  0  0  0  0
  -25.4238  -15.1887   20.4079 N   0  0  0  0  0  0
  -31.7307  -14.9218   20.0917 O   0  0  0  0  0  0
  -21.6643   -6.8876   21.4241 O   0  0  0  0  0  0
  -22.3518  -14.5524   20.6694 O   0  0  0  0  0  0
  -24.6312  -31.8552   23.1981 C   0  0  0  0  0  0
  -25.9133  -32.4756   23.8332 C   0  0  1  0  0  0
  -27.2254  -27.2666   20.1305 C   0  0  0  0  0  0
  -25.5925  -33.8558   24.2251 N   0  0  0  0  0  0
  -23.4299  -30.4766   21.5411 C   0  0  2  0  0  0
  -24.8814  -28.9256   20.1086 C   0  0  0  0  0  0
  -22.7508  -29.4596   22.4906 C   0  0  0  0  0  0
  -18.0296  -28.1381   22.8488 C   0  0  0  0  0  0
  -24.1489  -36.7288   23.2640 C   0  0  0  0  0  0
  -25.9760  -30.7680   21.3805 C   0  0  0  0  0  0
  -26.0526  -29.3912   20.7222 C   0  0  0  0  0  0
  -27.2300  -28.5729   20.7259 C   0  0  0  0  0  0
  -26.0365  -26.8730   19.4798 C   0  0  0  0  0  0
  -24.8778  -27.6733   19.4756 C   0  0  0  0  0  0
  -23.6499  -29.8102   20.1576 C   0  0  0  0  0  0
  -25.4116  -36.3072   24.0324 C   0  0  1  0  0  0
  -20.5899  -28.3698   23.1263 C   0  0  2  0  0  0
  -20.6780  -26.9414   22.5406 C   0  0  0  0  0  0
  -19.5753  -26.6379   21.5212 C   0  0  0  0  0  0
  -18.1937  -26.7921   22.1632 C   0  0  0  0  0  0
  -19.1550  -28.8857   23.2869 C   0  0  0  0  0  0
  -18.9470  -30.1459   23.8886 C   0  0  0  0  0  0
  -17.6468  -30.6585   24.0562 C   0  0  0  0  0  0
  -25.9055  -34.9441   23.5092 C   0  0  0  0  0  0
  -16.5359  -29.9082   23.6329 C   0  0  0  0  0  0
  -16.7282  -28.6498   23.0354 C   0  0  0  0  0  0
  -26.4499  -31.6580   25.0723 C   0  0  0  0  0  0
  -25.3722  -31.3746   26.1445 C   0  0  0  0  0  0
  -27.0342  -30.2990   24.6221 C   0  0  0  0  0  0
  -27.6045  -32.4328   25.7501 C   0  0  0  0  0  0
  -27.5579  -37.1799   24.8466 C   0  0  0  0  0  0
  -21.4213  -29.3045   22.3650 N   0  0  0  0  0  0
  -26.4293  -37.3768   23.9407 N   0  0  0  0  0  0
  -24.6978  -31.0512   22.0961 N   0  0  0  0  0  0
  -23.4203  -28.8140   23.3013 O   0  0  0  0  0  0
  -28.2755  -26.3192   20.1831 O   0  0  0  0  0  0
  -26.5635  -34.8917   22.4666 O   0  0  0  0  0  0
  -23.5459  -32.1376   23.7270 O   0  0  0  0  0  0
  -30.3145  -19.5787   20.0086 C   0  0  0  0  0  0
  -30.5504  -18.1502   20.0558 C   0  0  0  0  0  0
  -28.3987  -19.3223   21.3474 C   0  0  0  0  0  0
  -29.2225  -20.2587   20.6507 C   0  0  0  0  0  0
  -29.6892  -17.2567   20.7605 C   0  0  0  0  0  0
  -28.6057  -17.9086   21.4006 C   0  0  0  0  0  0
  -28.4365  -23.7433   20.6153 C   0  0  0  0  0  0
  -27.9263  -22.5486   21.2796 C   0  0  0  0  0  0
  -27.9439  -25.0446   20.7333 C   0  0  0  0  0  0
  -29.5123  -22.8520   19.9215 C   0  0  0  0  0  0
  -28.8910  -21.7178   20.6722 N   0  0  0  0  0  0
  -29.7381  -15.7750   20.8724 N   0  0  0  0  0  0
  -26.9982  -22.4039   22.0491 O   0  0  0  0  0  0
  -27.7206  -17.1472   22.0893 F   0  0  0  0  0  0
  -31.4870  -12.6091   19.1613 H   0  0  0  0  0  0
  -30.4182  -11.4692   19.9296 H   0  0  0  0  0  0
  -29.7977  -11.7532   17.5117 H   0  0  0  0  0  0
  -29.6392  -13.4774   17.7308 H   0  0  0  0  0  0
  -27.8952  -11.2872   18.8979 H   0  0  0  0  0  0
  -27.3831  -12.5438   17.8033 H   0  0  0  0  0  0
  -27.6575  -14.2525   19.5042 H   0  0  0  0  0  0
  -28.7333  -12.0916   21.3832 H   0  0  0  0  0  0
  -28.4234  -13.7411   21.8422 H   0  0  0  0  0  0
  -25.2768   -9.5677   22.4757 H   0  0  0  0  0  0
  -24.0004   -7.4632   22.7473 H   0  0  0  0  0  0
  -21.0844   -8.8778   19.8955 H   0  0  0  0  0  0
  -22.3704  -10.9674   19.6171 H   0  0  0  0  0  0
  -21.2001   -7.6143   23.9713 H   0  0  0  0  0  0
  -21.1480   -6.0522   25.9078 H   0  0  0  0  0  0
  -22.0599   -2.7606   23.2853 H   0  0  0  0  0  0
  -22.4114  -11.9884   22.4802 H   0  0  0  0  0  0
  -21.1115  -13.1246   22.2635 H   0  0  0  0  0  0
  -24.6615  -15.8447   20.5357 H   0  0  0  0  0  0
  -26.2880  -15.6369   20.1328 H   0  0  0  0  0  0
  -26.7203  -32.5410   23.1078 H   0  0  0  0  0  0
  -25.0051  -33.9694   25.0382 H   0  0  0  0  0  0
  -22.7265  -31.2988   21.3937 H   0  0  0  0  0  0
  -23.3748  -35.9625   23.3305 H   0  0  0  0  0  0
  -24.3576  -36.8910   22.2054 H   0  0  0  0  0  0
  -23.7250  -37.6493   23.6663 H   0  0  0  0  0  0
  -26.1156  -31.5286   20.6111 H   0  0  0  0  0  0
  -26.8523  -30.8172   22.0149 H   0  0  0  0  0  0
  -28.1233  -28.9176   21.2275 H   0  0  0  0  0  0
  -25.9923  -25.9065   18.9975 H   0  0  0  0  0  0
  -23.9827  -27.3111   18.9883 H   0  0  0  0  0  0
  -23.7723  -30.5864   19.4013 H   0  0  0  0  0  0
  -22.7695  -29.2415   19.8526 H   0  0  0  0  0  0
  -25.1300  -36.1918   25.0817 H   0  0  0  0  0  0
  -20.9995  -28.3277   24.1382 H   0  0  0  0  0  0
  -20.5676  -26.2312   23.3615 H   0  0  0  0  0  0
  -21.6647  -26.7430   22.1201 H   0  0  0  0  0  0
  -19.6914  -25.6288   21.1247 H   0  0  0  0  0  0
  -19.6683  -27.3186   20.6740 H   0  0  0  0  0  0
  -17.4201  -26.6662   21.4041 H   0  0  0  0  0  0
  -18.0349  -26.0063   22.9032 H   0  0  0  0  0  0
  -19.7947  -30.7278   24.2245 H   0  0  0  0  0  0
  -17.5024  -31.6263   24.5169 H   0  0  0  0  0  0
  -15.5359  -30.2983   23.7654 H   0  0  0  0  0  0
  -15.8683  -28.0814   22.7072 H   0  0  0  0  0  0
  -24.5856  -30.7150   25.7767 H   0  0  0  0  0  0
  -24.8970  -32.2933   26.4897 H   0  0  0  0  0  0
  -25.8023  -30.8883   27.0209 H   0  0  0  0  0  0
  -26.2930  -29.6739   24.1226 H   0  0  0  0  0  0
  -27.3995  -29.7251   25.4750 H   0  0  0  0  0  0
  -27.8825  -30.4253   23.9487 H   0  0  0  0  0  0
  -27.2630  -33.3619   26.2078 H   0  0  0  0  0  0
  -28.3852  -32.6907   25.0332 H   0  0  0  0  0  0
  -28.0715  -31.8461   26.5420 H   0  0  0  0  0  0
  -28.2598  -38.0093   24.7499 H   0  0  0  0  0  0
  -28.1070  -36.2622   24.6306 H   0  0  0  0  0  0
  -27.2294  -37.1467   25.8869 H   0  0  0  0  0  0
  -20.9401  -29.8775   21.6860 H   0  0  0  0  0  0
  -26.0171  -38.2845   24.1396 H   0  0  0  0  0  0
  -31.0171  -20.1776   19.4465 H   0  0  0  0  0  0
  -31.4023  -17.7474   19.5268 H   0  0  0  0  0  0
  -27.5371  -19.6972   21.8789 H   0  0  0  0  0  0
  -27.1021  -25.1664   21.4035 H   0  0  0  0  0  0
  -30.5540  -23.0043   20.2088 H   0  0  0  0  0  0
  -29.4314  -22.7135   18.8421 H   0  0  0  0  0  0
  -28.8870  -15.4125   21.2766 H   0  0  0  0  0  0
  1 25  1  0  0  0
  1 30  2  0  0  0
  1 82  1  0  0  0
  2  3  1  0  0  0
  2 25  1  0  0  0
  2 85  1  0  0  0
  2 86  1  0  0  0
  3  4  1  0  0  0
  3 87  1  0  0  0
  3 88  1  0  0  0
  4  5  1  0  0  0
  4 89  1  0  0  0
  4 90  1  0  0  0
  5  6  1  0  0  0
  5 26  1  0  0  0
  5 91  1  0  0  0
  6 25  1  0  0  0
  6 92  1  0  0  0
  6 93  1  0  0  0
  7  8  2  0  0  0
  7 26  1  0  0  0
  7 29  1  0  0  0
  8  9  1  0  0  0
  8 22  1  0  0  0
  9 10  1  0  0  0
  9 27  2  0  0  0
 10 11  2  0  0  0
 10 15  1  0  0  0
 11 12  1  0  0  0
 11 94  1  0  0  0
 12 13  2  0  0  0
 12 95  1  0  0  0
 13 14  1  0  0  0
 13 31  1  0  0  0
 14 15  2  0  0  0
 14 96  1  0  0  0
 15 97  1  0  0  0
 16 17  2  0  0  0
 16 21  1  0  0  0
 16 31  1  0  0  0
 17 18  1  0  0  0
 17 98  1  0  0  0
 18 19  2  0  0  0
 18 99  1  0  0  0
 19 20  1  0  0  0
 19 24  1  0  0  0
 20 21  2  0  0  0
 20100  1  0  0  0
 21 23  1  0  0  0
 22 28  1  0  0  0
 22 32  2  0  0  0
 26 27  1  0  0  0
 28101  1  0  0  0
 28102  1  0  0  0
 29103  1  0  0  0
 29104  1  0  0  0
 33 34  1  0  0  0
 33 66  1  0  0  0
 33 70  2  0  0  0
 34 36  1  0  0  0
 34 59  1  0  0  0
 34105  1  0  0  0
 35 44  2  0  0  0
 35 45  1  0  0  0
 35 68  1  0  0  0
 36 56  1  0  0  0
 36106  1  0  0  0
 37 39  1  0  0  0
 37 47  1  0  0  0
 37 66  1  0  0  0
 37107  1  0  0  0
 38 43  2  0  0  0
 38 46  1  0  0  0
 38 47  1  0  0  0
 39 64  1  0  0  0
 39 67  2  0  0  0
 40 52  1  0  0  0
 40 53  2  0  0  0
 40 58  1  0  0  0
 41108  1  0  0  0
 41109  1  0  0  0
 41110  1  0  0  0
 41 48  1  0  0  0
 42 43  1  0  0  0
 42 66  1  0  0  0
 42111  1  0  0  0
 42112  1  0  0  0
 43 44  1  0  0  0
 44113  1  0  0  0
 45 46  2  0  0  0
 45114  1  0  0  0
 46115  1  0  0  0
 47116  1  0  0  0
 47117  1  0  0  0
 48 56  1  0  0  0
 48 65  1  0  0  0
 48118  1  0  0  0
 49 50  1  0  0  0
 49 53  1  0  0  0
 49 64  1  0  0  0
 49119  1  0  0  0
 50 51  1  0  0  0
 50120  1  0  0  0
 50121  1  0  0  0
 51 52  1  0  0  0
 51122  1  0  0  0
 51123  1  0  0  0
 52124  1  0  0  0
 52125  1  0  0  0
 53 54  1  0  0  0
 54 55  2  0  0  0
 54126  1  0  0  0
 55 57  1  0  0  0
 55127  1  0  0  0
 56 69  2  0  0  0
 57 58  2  0  0  0
 57128  1  0  0  0
 58129  1  0  0  0
 59 60  1  0  0  0
 59 61  1  0  0  0
 59 62  1  0  0  0
 60130  1  0  0  0
 60131  1  0  0  0
 60132  1  0  0  0
 61133  1  0  0  0
 61134  1  0  0  0
 61135  1  0  0  0
 62136  1  0  0  0
 62137  1  0  0  0
 62138  1  0  0  0
 63 65  1  0  0  0
 63139  1  0  0  0
 63140  1  0  0  0
 63141  1  0  0  0
 64142  1  0  0  0
 65143  1  0  0  0
 68 79  1  0  0  0
 71 72  2  0  0  0
 71 74  1  0  0  0
 71144  1  0  0  0
 72 75  1  0  0  0
 72145  1  0  0  0
 73 74  2  0  0  0
 73 76  1  0  0  0
 73146  1  0  0  0
 74 81  1  0  0  0
 75 76  2  0  0  0
 75 82  1  0  0  0
 76 84  1  0  0  0
 77 78  1  0  0  0
 77 79  2  0  0  0
 77 80  1  0  0  0
 78 81  1  0  0  0
 78 83  2  0  0  0
 79147  1  0  0  0
 80 81  1  0  0  0
 80148  1  0  0  0
 80149  1  0  0  0
 82150  1  0  0  0
M  ISO  4   1 100  68 101  79 101  82 100
M  END
> <chiral flag>
0

> <version>
0

> <s_m_source_file>
/data/baiqing/PycharmProjects/Reinvent-master-3.2/result/LINK_invent/BTK/process_docking_weight1_custom_product_contain_oxygen_bond_distance_aromatic_linkinvent_7_9_3/rearranged_h_0080.sdf

> <i_m_source_file_index>
64

> <r_mmod_Potential_Energy-OPLS-2005>
198.142578125

> <r_mmod_Stretch_Energy-OPLS-2005>
106.317687988281

> <r_mmod_Bend_Energy-OPLS-2005>
271.832885742188

> <r_mmod_Torsional_Energy-OPLS-2005>
219.378356933594

> <r_mmod_Improper_Torsional_Energy-OPLS-2005>
3.23730540275574

> <r_mmod_Van_der_Waal_Energy-OPLS-2005>
133.984222412109

> <r_mmod_Electrostatic_Energy-OPLS-2005>
-415.522491455078

> <r_mmod_Solvation_Energy-OPLS-2005>
-209.682037353516

> <b_mmod_Minimization_Converged-OPLS-2005>
0

> <r_mmod_RMS_Derivative-OPLS-2005>
0.625052928924561

$$$$
64
                    3D
 Structure written by MMmdl.
156165  0  0  1  0            999 V2000
  -30.6637  -14.6308   20.4953 C   0  0  0  0  0  0
  -30.4242  -12.3915   19.4458 C   0  0  0  0  0  0
  -29.4984  -12.4974   18.2167 C   0  0  0  0  0  0
  -28.0241  -12.3353   18.6356 C   0  0  0  0  0  0
  -27.6447  -13.2219   19.8522 C   0  0  2  0  0  0
  -28.6919  -13.1164   20.9823 C   0  0  0  0  0  0
  -25.2525  -13.8183   20.5683 C   0  0  0  0  0  0
  -24.1813  -13.0431   20.9202 C   0  0  0  0  0  0
  -24.6398  -11.6910   20.8744 C   0  0  0  0  0  0
  -23.9076  -10.4288   21.0400 C   0  0  0  0  0  0
  -24.3629   -9.4206   21.9178 C   0  0  0  0  0  0
  -23.6304   -8.2242   22.0747 C   0  0  0  0  0  0
  -22.4282   -8.0281   21.3542 C   0  0  0  0  0  0
  -21.9921   -9.0252   20.4637 C   0  0  0  0  0  0
  -22.7249  -10.2132   20.3049 C   0  0  0  0  0  0
  -21.6860   -6.0734   22.5278 C   0  0  0  0  0  0
  -21.4011   -6.5638   23.8208 C   0  0  0  0  0  0
  -21.3662   -5.6796   24.9176 C   0  0  0  0  0  0
  -21.6048   -4.3057   24.7228 C   0  0  0  0  0  0
  -21.8819   -3.8145   23.4348 C   0  0  0  0  0  0
  -21.9189   -4.6961   22.3402 C   0  0  0  0  0  0
  -22.7835  -13.5220   21.1880 C   0  0  0  0  0  0
  -22.1661   -4.2149   21.0981 F   0  0  0  0  0  0
  -21.5645   -3.4538   25.7740 F   0  0  0  0  0  0
  -30.0000  -13.4371   20.3978 N   0  0  0  0  0  0
  -26.2950  -12.9377   20.3282 N   0  0  0  0  0  0
  -25.9323  -11.6527   20.5746 N   0  0  0  0  0  0
  -22.0481  -12.8191   22.0420 N   0  0  0  0  0  0
  -25.4179  -15.1914   20.4105 N   0  0  0  0  0  0
  -31.8631  -14.6927   20.2111 O   0  0  0  0  0  0
  -21.6645   -6.8877   21.4238 O   0  0  0  0  0  0
  -22.3509  -14.5521   20.6735 O   0  0  0  0  0  0
  -24.6213  -31.8633   23.2046 C   0  0  0  0  0  0
  -25.9079  -32.4799   23.8364 C   0  0  1  0  0  0
  -27.2205  -27.3541   20.1268 C   0  0  0  0  0  0
  -25.5902  -33.8598   24.2292 N   0  0  0  0  0  0
  -23.4139  -30.4866   21.5455 C   0  0  2  0  0  0
  -24.8633  -28.9423   20.1154 C   0  0  0  0  0  0
  -22.7440  -29.4645   22.4944 C   0  0  0  0  0  0
  -18.0288  -28.1360   22.8506 C   0  0  0  0  0  0
  -24.1490  -36.7310   23.2642 C   0  0  0  0  0  0
  -25.9517  -30.8043   21.3715 C   0  0  0  0  0  0
  -26.0280  -29.4303   20.7248 C   0  0  0  0  0  0
  -27.2134  -28.6430   20.7312 C   0  0  0  0  0  0
  -26.0444  -26.9037   19.4998 C   0  0  0  0  0  0
  -24.8699  -27.6800   19.4979 C   0  0  0  0  0  0
  -23.6299  -29.8198   20.1611 C   0  0  0  0  0  0
  -25.4113  -36.3095   24.0334 C   0  0  1  0  0  0
  -20.5889  -28.3675   23.1278 C   0  0  2  0  0  0
  -20.6792  -26.9404   22.5396 C   0  0  0  0  0  0
  -19.5750  -26.6366   21.5219 C   0  0  0  0  0  0
  -18.1932  -26.7908   22.1647 C   0  0  0  0  0  0
  -19.1544  -28.8831   23.2887 C   0  0  0  0  0  0
  -18.9468  -30.1436   23.8899 C   0  0  0  0  0  0
  -17.6471  -30.6579   24.0552 C   0  0  0  0  0  0
  -25.9040  -34.9464   23.5113 C   0  0  0  0  0  0
  -16.5360  -29.9084   23.6318 C   0  0  0  0  0  0
  -16.7279  -28.6490   23.0363 C   0  0  0  0  0  0
  -26.4480  -31.6593   25.0725 C   0  0  0  0  0  0
  -25.3726  -31.3724   26.1462 C   0  0  0  0  0  0
  -27.0317  -30.3021   24.6144 C   0  0  0  0  0  0
  -27.6040  -32.4323   25.7505 C   0  0  0  0  0  0
  -27.5581  -37.1811   24.8466 C   0  0  0  0  0  0
  -21.4162  -29.3045   22.3677 N   0  0  0  0  0  0
  -26.4295  -37.3784   23.9405 N   0  0  0  0  0  0
  -24.6812  -31.0676   22.0983 N   0  0  0  0  0  0
  -23.4179  -28.8176   23.3002 O   0  0  0  0  0  0
  -28.3091  -26.4909   20.1027 O   0  0  0  0  0  0
  -26.5610  -34.8926   22.4679 O   0  0  0  0  0  0
  -23.5384  -32.1411   23.7399 O   0  0  0  0  0  0
  -27.6351  -19.1000   18.8995 C   0  0  0  0  0  0
  -28.4019  -18.0206   19.3829 C   0  0  0  0  0  0
  -27.8421  -20.4128   19.3683 C   0  0  0  0  0  0
  -29.5796  -19.5709   20.8446 C   0  0  0  0  0  0
  -29.3981  -18.2227   20.3641 C   0  0  0  0  0  0
  -28.8121  -20.6915   20.3587 C   0  0  0  0  0  0
  -28.7056  -24.3368   21.3403 C   0  0  0  0  0  0
  -29.0067  -23.6603   22.5781 C   0  0  0  0  0  0
  -28.6610  -23.2737   20.3135 C   0  0  0  0  0  0
  -28.9817  -24.2031   23.8103 C   0  0  0  0  0  0
  -28.5176  -25.6970   21.2246 C   0  0  0  0  0  0
  -30.3269  -17.0609   20.7640 C   0  0  0  0  0  0
  -29.3063  -22.2135   22.3090 C   0  0  0  0  0  0
  -28.9394  -22.0495   20.9040 N   0  0  0  0  0  0
  -29.8979  -15.7617   20.6454 N   0  0  0  0  0  0
  -28.4195  -23.4395   19.1130 O   0  0  0  0  0  0
  -31.4486  -17.3567   21.1937 O   0  0  0  0  0  0
  -31.4670  -12.4992   19.1419 H   0  0  0  0  0  0
  -30.3472  -11.4050   19.9053 H   0  0  0  0  0  0
  -29.7642  -11.7410   17.4778 H   0  0  0  0  0  0
  -29.6410  -13.4627   17.7285 H   0  0  0  0  0  0
  -27.8680  -11.2843   18.8816 H   0  0  0  0  0  0
  -27.3676  -12.5479   17.7912 H   0  0  0  0  0  0
  -27.6494  -14.2498   19.4905 H   0  0  0  0  0  0
  -28.7057  -12.1123   21.4088 H   0  0  0  0  0  0
  -28.4470  -13.7921   21.8034 H   0  0  0  0  0  0
  -25.2772   -9.5694   22.4749 H   0  0  0  0  0  0
  -24.0015   -7.4637   22.7468 H   0  0  0  0  0  0
  -21.0854   -8.8778   19.8938 H   0  0  0  0  0  0
  -22.3708  -10.9678   19.6163 H   0  0  0  0  0  0
  -21.1990   -7.6143   23.9715 H   0  0  0  0  0  0
  -21.1495   -6.0522   25.9083 H   0  0  0  0  0  0
  -22.0589   -2.7602   23.2849 H   0  0  0  0  0  0
  -22.4116  -11.9858   22.4809 H   0  0  0  0  0  0
  -21.1094  -13.1193   22.2624 H   0  0  0  0  0  0
  -24.6419  -15.8365   20.5172 H   0  0  0  0  0  0
  -26.2542  -15.6402   20.0635 H   0  0  0  0  0  0
  -26.7149  -32.5494   23.1120 H   0  0  0  0  0  0
  -25.0049  -33.9742   25.0434 H   0  0  0  0  0  0
  -22.7063  -31.3058   21.4020 H   0  0  0  0  0  0
  -23.3743  -35.9651   23.3305 H   0  0  0  0  0  0
  -24.3583  -36.8931   22.2057 H   0  0  0  0  0  0
  -23.7250  -37.6521   23.6655 H   0  0  0  0  0  0
  -26.0737  -31.5636   20.5978 H   0  0  0  0  0  0
  -26.8360  -30.8596   21.9940 H   0  0  0  0  0  0
  -28.1089  -29.0113   21.2111 H   0  0  0  0  0  0
  -26.0373  -25.9311   19.0280 H   0  0  0  0  0  0
  -23.9774  -27.2973   19.0217 H   0  0  0  0  0  0
  -23.7477  -30.5961   19.4044 H   0  0  0  0  0  0
  -22.7501  -29.2483   19.8597 H   0  0  0  0  0  0
  -25.1287  -36.1957   25.0826 H   0  0  0  0  0  0
  -20.9988  -28.3249   24.1400 H   0  0  0  0  0  0
  -20.5712  -26.2282   23.3595 H   0  0  0  0  0  0
  -21.6653  -26.7453   22.1164 H   0  0  0  0  0  0
  -19.6898  -25.6272   21.1246 H   0  0  0  0  0  0
  -19.6666  -27.3179   20.6746 H   0  0  0  0  0  0
  -17.4191  -26.6637   21.4061 H   0  0  0  0  0  0
  -18.0341  -26.0049   22.9049 H   0  0  0  0  0  0
  -19.7945  -30.7253   24.2264 H   0  0  0  0  0  0
  -17.5038  -31.6273   24.5132 H   0  0  0  0  0  0
  -15.5361  -30.2994   23.7635 H   0  0  0  0  0  0
  -15.8681  -28.0799   22.7086 H   0  0  0  0  0  0
  -24.5884  -30.7090   25.7798 H   0  0  0  0  0  0
  -24.8945  -32.2899   26.4904 H   0  0  0  0  0  0
  -25.8068  -30.8892   27.0223 H   0  0  0  0  0  0
  -26.2884  -29.6788   24.1164 H   0  0  0  0  0  0
  -27.4026  -29.7253   25.4625 H   0  0  0  0  0  0
  -27.8740  -30.4321   23.9347 H   0  0  0  0  0  0
  -27.2629  -33.3602   26.2101 H   0  0  0  0  0  0
  -28.3845  -32.6916   25.0343 H   0  0  0  0  0  0
  -28.0702  -31.8440   26.5415 H   0  0  0  0  0  0
  -28.2599  -38.0108   24.7498 H   0  0  0  0  0  0
  -28.1070  -36.2635   24.6293 H   0  0  0  0  0  0
  -27.2296  -37.1469   25.8869 H   0  0  0  0  0  0
  -20.9317  -29.8773   21.6914 H   0  0  0  0  0  0
  -26.0180  -38.2863   24.1388 H   0  0  0  0  0  0
  -26.8759  -18.9178   18.1514 H   0  0  0  0  0  0
  -28.2330  -17.0383   18.9646 H   0  0  0  0  0  0
  -27.2158  -21.2000   18.9715 H   0  0  0  0  0  0
  -30.3466  -19.7463   21.5867 H   0  0  0  0  0  0
  -29.2052  -23.6029   24.6807 H   0  0  0  0  0  0
  -28.7399  -25.2410   23.9881 H   0  0  0  0  0  0
  -28.5795  -26.3309   22.0972 H   0  0  0  0  0  0
  -28.7163  -21.5585   22.9516 H   0  0  0  0  0  0
  -30.3668  -22.0112   22.4617 H   0  0  0  0  0  0
  -28.9054  -15.6321   20.5613 H   0  0  0  0  0  0
  1 25  1  0  0  0
  1 30  2  0  0  0
  1 85  1  0  0  0
  2  3  1  0  0  0
  2 25  1  0  0  0
  2 88  1  0  0  0
  2 89  1  0  0  0
  3  4  1  0  0  0
  3 90  1  0  0  0
  3 91  1  0  0  0
  4  5  1  0  0  0
  4 92  1  0  0  0
  4 93  1  0  0  0
  5  6  1  0  0  0
  5 26  1  0  0  0
  5 94  1  0  0  0
  6 25  1  0  0  0
  6 95  1  0  0  0
  6 96  1  0  0  0
  7  8  2  0  0  0
  7 26  1  0  0  0
  7 29  1  0  0  0
  8  9  1  0  0  0
  8 22  1  0  0  0
  9 10  1  0  0  0
  9 27  2  0  0  0
 10 11  2  0  0  0
 10 15  1  0  0  0
 11 12  1  0  0  0
 11 97  1  0  0  0
 12 13  2  0  0  0
 12 98  1  0  0  0
 13 14  1  0  0  0
 13 31  1  0  0  0
 14 15  2  0  0  0
 14 99  1  0  0  0
 15100  1  0  0  0
 16 17  2  0  0  0
 16 21  1  0  0  0
 16 31  1  0  0  0
 17 18  1  0  0  0
 17101  1  0  0  0
 18 19  2  0  0  0
 18102  1  0  0  0
 19 20  1  0  0  0
 19 24  1  0  0  0
 20 21  2  0  0  0
 20103  1  0  0  0
 21 23  1  0  0  0
 22 28  1  0  0  0
 22 32  2  0  0  0
 26 27  1  0  0  0
 28104  1  0  0  0
 28105  1  0  0  0
 29106  1  0  0  0
 29107  1  0  0  0
 33 34  1  0  0  0
 33 66  1  0  0  0
 33 70  2  0  0  0
 34 36  1  0  0  0
 34 59  1  0  0  0
 34108  1  0  0  0
 35 44  2  0  0  0
 35 45  1  0  0  0
 35 68  1  0  0  0
 36 56  1  0  0  0
 36109  1  0  0  0
 37 39  1  0  0  0
 37 47  1  0  0  0
 37 66  1  0  0  0
 37110  1  0  0  0
 38 43  2  0  0  0
 38 46  1  0  0  0
 38 47  1  0  0  0
 39 64  1  0  0  0
 39 67  2  0  0  0
 40 52  1  0  0  0
 40 53  2  0  0  0
 40 58  1  0  0  0
 41111  1  0  0  0
 41112  1  0  0  0
 41113  1  0  0  0
 41 48  1  0  0  0
 42 43  1  0  0  0
 42 66  1  0  0  0
 42114  1  0  0  0
 42115  1  0  0  0
 43 44  1  0  0  0
 44116  1  0  0  0
 45 46  2  0  0  0
 45117  1  0  0  0
 46118  1  0  0  0
 47119  1  0  0  0
 47120  1  0  0  0
 48 56  1  0  0  0
 48 65  1  0  0  0
 48121  1  0  0  0
 49 50  1  0  0  0
 49 53  1  0  0  0
 49 64  1  0  0  0
 49122  1  0  0  0
 50 51  1  0  0  0
 50123  1  0  0  0
 50124  1  0  0  0
 51 52  1  0  0  0
 51125  1  0  0  0
 51126  1  0  0  0
 52127  1  0  0  0
 52128  1  0  0  0
 53 54  1  0  0  0
 54 55  2  0  0  0
 54129  1  0  0  0
 55 57  1  0  0  0
 55130  1  0  0  0
 56 69  2  0  0  0
 57 58  2  0  0  0
 57131  1  0  0  0
 58132  1  0  0  0
 59 60  1  0  0  0
 59 61  1  0  0  0
 59 62  1  0  0  0
 60133  1  0  0  0
 60134  1  0  0  0
 60135  1  0  0  0
 61136  1  0  0  0
 61137  1  0  0  0
 61138  1  0  0  0
 62139  1  0  0  0
 62140  1  0  0  0
 62141  1  0  0  0
 63 65  1  0  0  0
 63142  1  0  0  0
 63143  1  0  0  0
 63144  1  0  0  0
 64145  1  0  0  0
 65146  1  0  0  0
 68 81  1  0  0  0
 71 72  2  0  0  0
 71 73  1  0  0  0
 71147  1  0  0  0
 72 75  1  0  0  0
 72148  1  0  0  0
 73 76  2  0  0  0
 73149  1  0  0  0
 74 75  2  0  0  0
 74 76  1  0  0  0
 74150  1  0  0  0
 75 82  1  0  0  0
 76 84  1  0  0  0
 77 78  1  0  0  0
 77 79  1  0  0  0
 77 81  2  0  0  0
 78 80  2  0  0  0
 78 83  1  0  0  0
 79 84  1  0  0  0
 79 86  2  0  0  0
 80151  1  0  0  0
 80152  1  0  0  0
 81153  1  0  0  0
 82 85  1  0  0  0
 82 87  2  0  0  0
 83 84  1  0  0  0
 83154  1  0  0  0
 83155  1  0  0  0
 85156  1  0  0  0
M  ISO  4   1 100  68 101  81 101  85 100
M  END
> <chiral flag>
0

> <version>
0

> <s_m_source_file>
/data/baiqing/PycharmProjects/Reinvent-master-3.2/result/LINK_invent/BTK/process_docking_weight1_custom_product_contain_oxygen_bond_distance_aromatic_linkinvent_7_9_3/rearranged_h_0080.sdf

> <i_m_source_file_index>
65

> <r_mmod_Potential_Energy-OPLS-2005>
138.477096557617

> <r_mmod_Stretch_Energy-OPLS-2005>
71.7891006469727

> <r_mmod_Bend_Energy-OPLS-2005>
178.136917114258

> <r_mmod_Torsional_Energy-OPLS-2005>
292.836151123047

> <r_mmod_Improper_Torsional_Energy-OPLS-2005>
7.13942623138428

> <r_mmod_Van_der_Waal_Energy-OPLS-2005>
141.674560546875

> <r_mmod_Electrostatic_Energy-OPLS-2005>
-366.961975097656

> <r_mmod_Solvation_Energy-OPLS-2005>
-231.754653930664

> <b_mmod_Minimization_Converged-OPLS-2005>
0

> <r_mmod_RMS_Derivative-OPLS-2005>
1.84472501277924

$$$$
65
                    3D
 Structure written by MMmdl.
157166  0  0  1  0            999 V2000
  -30.6126  -14.7069   20.4790 C   0  0  0  0  0  0
  -30.4418  -12.4345   19.4637 C   0  0  0  0  0  0
  -29.5141  -12.5122   18.2299 C   0  0  0  0  0  0
  -28.0401  -12.3369   18.6422 C   0  0  0  0  0  0
  -27.6508  -13.2242   19.8561 C   0  0  2  0  0  0
  -28.6961  -13.1184   20.9893 C   0  0  0  0  0  0
  -25.2562  -13.8172   20.5706 C   0  0  0  0  0  0
  -24.1835  -13.0434   20.9202 C   0  0  0  0  0  0
  -24.6405  -11.6903   20.8720 C   0  0  0  0  0  0
  -23.9066  -10.4296   21.0385 C   0  0  0  0  0  0
  -24.3620   -9.4216   21.9173 C   0  0  0  0  0  0
  -23.6289   -8.2251   22.0745 C   0  0  0  0  0  0
  -22.4266   -8.0285   21.3547 C   0  0  0  0  0  0
  -21.9902   -9.0261   20.4656 C   0  0  0  0  0  0
  -22.7229  -10.2137   20.3045 C   0  0  0  0  0  0
  -21.6863   -6.0730   22.5278 C   0  0  0  0  0  0
  -21.4028   -6.5628   23.8209 C   0  0  0  0  0  0
  -21.3655   -5.6781   24.9167 C   0  0  0  0  0  0
  -21.6037   -4.3049   24.7216 C   0  0  0  0  0  0
  -21.8824   -3.8142   23.4343 C   0  0  0  0  0  0
  -21.9207   -4.6962   22.3402 C   0  0  0  0  0  0
  -22.7851  -13.5230   21.1840 C   0  0  0  0  0  0
  -22.1677   -4.2150   21.0979 F   0  0  0  0  0  0
  -21.5620   -3.4532   25.7729 F   0  0  0  0  0  0
  -30.0053  -13.4739   20.4215 N   0  0  0  0  0  0
  -26.2980  -12.9366   20.3282 N   0  0  0  0  0  0
  -25.9333  -11.6512   20.5716 N   0  0  0  0  0  0
  -22.0489  -12.8233   22.0400 N   0  0  0  0  0  0
  -25.4251  -15.1900   20.4156 N   0  0  0  0  0  0
  -31.7845  -14.8397   20.1177 O   0  0  0  0  0  0
  -21.6633   -6.8874   21.4245 O   0  0  0  0  0  0
  -22.3526  -14.5525   20.6675 O   0  0  0  0  0  0
  -24.6289  -31.8575   23.1992 C   0  0  0  0  0  0
  -25.9119  -32.4764   23.8339 C   0  0  1  0  0  0
  -27.2426  -27.3044   20.1292 C   0  0  0  0  0  0
  -25.5920  -33.8567   24.2272 N   0  0  0  0  0  0
  -23.4248  -30.4769   21.5427 C   0  0  2  0  0  0
  -24.8764  -28.9238   20.1134 C   0  0  0  0  0  0
  -22.7484  -29.4608   22.4949 C   0  0  0  0  0  0
  -18.0290  -28.1390   22.8480 C   0  0  0  0  0  0
  -24.1489  -36.7284   23.2647 C   0  0  0  0  0  0
  -25.9644  -30.7840   21.3719 C   0  0  0  0  0  0
  -26.0428  -29.4067   20.7205 C   0  0  0  0  0  0
  -27.2269  -28.6078   20.7193 C   0  0  0  0  0  0
  -26.0563  -26.8774   19.4929 C   0  0  0  0  0  0
  -24.8850  -27.6641   19.4901 C   0  0  0  0  0  0
  -23.6426  -29.8046   20.1602 C   0  0  0  0  0  0
  -25.4105  -36.3086   24.0353 C   0  0  1  0  0  0
  -20.5885  -28.3690   23.1294 C   0  0  2  0  0  0
  -20.6770  -26.9415   22.5425 C   0  0  0  0  0  0
  -19.5753  -26.6398   21.5206 C   0  0  0  0  0  0
  -18.1933  -26.7935   22.1620 C   0  0  0  0  0  0
  -19.1540  -28.8860   23.2880 C   0  0  0  0  0  0
  -18.9466  -30.1460   23.8906 C   0  0  0  0  0  0
  -17.6461  -30.6577   24.0571 C   0  0  0  0  0  0
  -25.9043  -34.9450   23.5115 C   0  0  0  0  0  0
  -16.5352  -29.9078   23.6323 C   0  0  0  0  0  0
  -16.7275  -28.6499   23.0335 C   0  0  0  0  0  0
  -26.4480  -31.6572   25.0718 C   0  0  0  0  0  0
  -25.3705  -31.3719   26.1445 C   0  0  0  0  0  0
  -27.0302  -30.2992   24.6177 C   0  0  0  0  0  0
  -27.6078  -32.4283   25.7459 C   0  0  0  0  0  0
  -27.5579  -37.1804   24.8464 C   0  0  0  0  0  0
  -21.4197  -29.3029   22.3670 N   0  0  0  0  0  0
  -26.4286  -37.3777   23.9423 N   0  0  0  0  0  0
  -24.6913  -31.0563   22.0952 N   0  0  0  0  0  0
  -23.4194  -28.8180   23.3065 O   0  0  0  0  0  0
  -28.3717  -26.4635   20.1403 O   0  0  0  0  0  0
  -26.5606  -34.8928   22.4683 O   0  0  0  0  0  0
  -23.5448  -32.1381   23.7308 O   0  0  0  0  0  0
  -29.1709  -19.5367   21.4042 C   0  0  0  0  0  0
  -29.1815  -18.1074   21.5364 C   0  0  0  0  0  0
  -30.6437  -19.3396   19.5315 C   0  0  0  0  0  0
  -29.9083  -20.2170   20.3940 C   0  0  0  0  0  0
  -29.9264  -17.2422   20.6788 C   0  0  0  0  0  0
  -30.6498  -17.9117   19.6519 C   0  0  0  0  0  0
  -29.2174  -24.1035   20.1589 C   0  0  0  0  0  0
  -28.9581  -22.6254   20.4052 C   0  0  0  0  0  0
  -31.6487  -23.6255   20.1949 C   0  0  0  0  0  0
  -32.7415  -24.0581   20.8469 C   0  0  0  0  0  0
  -28.2400  -25.0635   20.3474 C   0  0  0  0  0  0
  -30.5857  -24.5524   19.6737 C   0  0  0  0  0  0
  -31.3661  -22.1657   19.9069 C   0  0  0  0  0  0
  -30.0085  -21.7048   20.2730 N   0  0  0  0  0  0
  -29.8169  -15.7746   20.8413 N   0  0  0  0  0  0
  -27.8290  -22.2241   20.7084 O   0  0  0  0  0  0
  -31.3373  -17.1958   18.7309 F   0  0  0  0  0  0
  -31.4820  -12.5650   19.1588 H   0  0  0  0  0  0
  -30.3846  -11.4496   19.9283 H   0  0  0  0  0  0
  -29.7941  -11.7531   17.4986 H   0  0  0  0  0  0
  -29.6439  -13.4756   17.7328 H   0  0  0  0  0  0
  -27.8922  -11.2857   18.8939 H   0  0  0  0  0  0
  -27.3840  -12.5441   17.7956 H   0  0  0  0  0  0
  -27.6567  -14.2526   19.4935 H   0  0  0  0  0  0
  -28.7242  -12.1062   21.3953 H   0  0  0  0  0  0
  -28.4286  -13.7683   21.8233 H   0  0  0  0  0  0
  -25.2772   -9.5691   22.4737 H   0  0  0  0  0  0
  -24.0015   -7.4639   22.7451 H   0  0  0  0  0  0
  -21.0828   -8.8784   19.8959 H   0  0  0  0  0  0
  -22.3693  -10.9669   19.6143 H   0  0  0  0  0  0
  -21.2021   -7.6139   23.9711 H   0  0  0  0  0  0
  -21.1460   -6.0507   25.9069 H   0  0  0  0  0  0
  -22.0603   -2.7608   23.2846 H   0  0  0  0  0  0
  -22.4094  -11.9913   22.4830 H   0  0  0  0  0  0
  -21.1110  -13.1271   22.2582 H   0  0  0  0  0  0
  -24.6573  -15.8422   20.5334 H   0  0  0  0  0  0
  -26.2723  -15.6358   20.0889 H   0  0  0  0  0  0
  -26.7212  -32.5433   23.1105 H   0  0  0  0  0  0
  -25.0004  -33.9685   25.0383 H   0  0  0  0  0  0
  -22.7194  -31.2966   21.3954 H   0  0  0  0  0  0
  -23.3735  -35.9634   23.3356 H   0  0  0  0  0  0
  -24.3575  -36.8828   22.2046 H   0  0  0  0  0  0
  -23.7262  -37.6525   23.6613 H   0  0  0  0  0  0
  -26.0927  -31.5453   20.6006 H   0  0  0  0  0  0
  -26.8457  -30.8423   21.9985 H   0  0  0  0  0  0
  -28.1244  -28.9774   21.1953 H   0  0  0  0  0  0
  -26.0304  -25.9149   19.0021 H   0  0  0  0  0  0
  -23.9939  -27.2887   19.0067 H   0  0  0  0  0  0
  -23.7577  -30.5770   19.3986 H   0  0  0  0  0  0
  -22.7633  -29.2293   19.8656 H   0  0  0  0  0  0
  -25.1279  -36.1940   25.0843 H   0  0  0  0  0  0
  -20.9966  -28.3272   24.1420 H   0  0  0  0  0  0
  -20.5643  -26.2297   23.3622 H   0  0  0  0  0  0
  -21.6651  -26.7436   22.1250 H   0  0  0  0  0  0
  -19.6907  -25.6310   21.1236 H   0  0  0  0  0  0
  -19.6676  -27.3206   20.6731 H   0  0  0  0  0  0
  -17.4201  -26.6688   21.4024 H   0  0  0  0  0  0
  -18.0319  -26.0074   22.9014 H   0  0  0  0  0  0
  -19.7939  -30.7280   24.2283 H   0  0  0  0  0  0
  -17.5011  -31.6250   24.5185 H   0  0  0  0  0  0
  -15.5356  -30.2974   23.7643 H   0  0  0  0  0  0
  -15.8680  -28.0821   22.7039 H   0  0  0  0  0  0
  -24.5879  -30.7061   25.7778 H   0  0  0  0  0  0
  -24.8863  -32.2872   26.4855 H   0  0  0  0  0  0
  -25.8011  -30.8914   27.0235 H   0  0  0  0  0  0
  -26.2856  -29.6762   24.1205 H   0  0  0  0  0  0
  -27.3989  -29.7241   25.4679 H   0  0  0  0  0  0
  -27.8731  -30.4263   23.9382 H   0  0  0  0  0  0
  -27.2737  -33.3589   26.2051 H   0  0  0  0  0  0
  -28.3838  -32.6828   25.0233 H   0  0  0  0  0  0
  -28.0790  -31.8387   26.5328 H   0  0  0  0  0  0
  -28.2636  -38.0071   24.7500 H   0  0  0  0  0  0
  -28.1035  -36.2607   24.6282 H   0  0  0  0  0  0
  -27.2318  -37.1475   25.8878 H   0  0  0  0  0  0
  -20.9376  -29.8698   21.6832 H   0  0  0  0  0  0
  -26.0171  -38.2867   24.1383 H   0  0  0  0  0  0
  -28.5990  -20.1149   22.1182 H   0  0  0  0  0  0
  -28.5968  -17.6717   22.3340 H   0  0  0  0  0  0
  -31.2269  -19.7536   18.7231 H   0  0  0  0  0  0
  -32.9063  -25.1101   21.0314 H   0  0  0  0  0  0
  -33.4959  -23.3696   21.2025 H   0  0  0  0  0  0
  -27.2528  -24.7986   20.7008 H   0  0  0  0  0  0
  -30.7884  -25.5815   19.9759 H   0  0  0  0  0  0
  -30.5963  -24.5261   18.5826 H   0  0  0  0  0  0
  -32.1129  -21.5605   20.4258 H   0  0  0  0  0  0
  -31.5152  -22.0082   18.8377 H   0  0  0  0  0  0
  -28.9406  -15.4746   21.2375 H   0  0  0  0  0  0
  1 25  1  0  0  0
  1 30  2  0  0  0
  1 85  1  0  0  0
  2  3  1  0  0  0
  2 25  1  0  0  0
  2 88  1  0  0  0
  2 89  1  0  0  0
  3  4  1  0  0  0
  3 90  1  0  0  0
  3 91  1  0  0  0
  4  5  1  0  0  0
  4 92  1  0  0  0
  4 93  1  0  0  0
  5  6  1  0  0  0
  5 26  1  0  0  0
  5 94  1  0  0  0
  6 25  1  0  0  0
  6 95  1  0  0  0
  6 96  1  0  0  0
  7  8  2  0  0  0
  7 26  1  0  0  0
  7 29  1  0  0  0
  8  9  1  0  0  0
  8 22  1  0  0  0
  9 10  1  0  0  0
  9 27  2  0  0  0
 10 11  2  0  0  0
 10 15  1  0  0  0
 11 12  1  0  0  0
 11 97  1  0  0  0
 12 13  2  0  0  0
 12 98  1  0  0  0
 13 14  1  0  0  0
 13 31  1  0  0  0
 14 15  2  0  0  0
 14 99  1  0  0  0
 15100  1  0  0  0
 16 17  2  0  0  0
 16 21  1  0  0  0
 16 31  1  0  0  0
 17 18  1  0  0  0
 17101  1  0  0  0
 18 19  2  0  0  0
 18102  1  0  0  0
 19 20  1  0  0  0
 19 24  1  0  0  0
 20 21  2  0  0  0
 20103  1  0  0  0
 21 23  1  0  0  0
 22 28  1  0  0  0
 22 32  2  0  0  0
 26 27  1  0  0  0
 28104  1  0  0  0
 28105  1  0  0  0
 29106  1  0  0  0
 29107  1  0  0  0
 33 34  1  0  0  0
 33 66  1  0  0  0
 33 70  2  0  0  0
 34 36  1  0  0  0
 34 59  1  0  0  0
 34108  1  0  0  0
 35 44  2  0  0  0
 35 45  1  0  0  0
 35 68  1  0  0  0
 36 56  1  0  0  0
 36109  1  0  0  0
 37 39  1  0  0  0
 37 47  1  0  0  0
 37 66  1  0  0  0
 37110  1  0  0  0
 38 43  2  0  0  0
 38 46  1  0  0  0
 38 47  1  0  0  0
 39 64  1  0  0  0
 39 67  2  0  0  0
 40 52  1  0  0  0
 40 53  2  0  0  0
 40 58  1  0  0  0
 41111  1  0  0  0
 41112  1  0  0  0
 41113  1  0  0  0
 41 48  1  0  0  0
 42 43  1  0  0  0
 42 66  1  0  0  0
 42114  1  0  0  0
 42115  1  0  0  0
 43 44  1  0  0  0
 44116  1  0  0  0
 45 46  2  0  0  0
 45117  1  0  0  0
 46118  1  0  0  0
 47119  1  0  0  0
 47120  1  0  0  0
 48 56  1  0  0  0
 48 65  1  0  0  0
 48121  1  0  0  0
 49 50  1  0  0  0
 49 53  1  0  0  0
 49 64  1  0  0  0
 49122  1  0  0  0
 50 51  1  0  0  0
 50123  1  0  0  0
 50124  1  0  0  0
 51 52  1  0  0  0
 51125  1  0  0  0
 51126  1  0  0  0
 52127  1  0  0  0
 52128  1  0  0  0
 53 54  1  0  0  0
 54 55  2  0  0  0
 54129  1  0  0  0
 55 57  1  0  0  0
 55130  1  0  0  0
 56 69  2  0  0  0
 57 58  2  0  0  0
 57131  1  0  0  0
 58132  1  0  0  0
 59 60  1  0  0  0
 59 61  1  0  0  0
 59 62  1  0  0  0
 60133  1  0  0  0
 60134  1  0  0  0
 60135  1  0  0  0
 61136  1  0  0  0
 61137  1  0  0  0
 61138  1  0  0  0
 62139  1  0  0  0
 62140  1  0  0  0
 62141  1  0  0  0
 63 65  1  0  0  0
 63142  1  0  0  0
 63143  1  0  0  0
 63144  1  0  0  0
 64145  1  0  0  0
 65146  1  0  0  0
 68 81  1  0  0  0
 71 72  2  0  0  0
 71 74  1  0  0  0
 71147  1  0  0  0
 72 75  1  0  0  0
 72148  1  0  0  0
 73 74  2  0  0  0
 73 76  1  0  0  0
 73149  1  0  0  0
 74 84  1  0  0  0
 75 76  2  0  0  0
 75 85  1  0  0  0
 76 87  1  0  0  0
 77 78  1  0  0  0
 77 81  2  0  0  0
 77 82  1  0  0  0
 78 84  1  0  0  0
 78 86  2  0  0  0
 79 80  2  0  0  0
 79 82  1  0  0  0
 79 83  1  0  0  0
 80150  1  0  0  0
 80151  1  0  0  0
 81152  1  0  0  0
 82153  1  0  0  0
 82154  1  0  0  0
 83 84  1  0  0  0
 83155  1  0  0  0
 83156  1  0  0  0
 85157  1  0  0  0
M  ISO  4   1 100  68 101  81 101  85 100
M  END
> <chiral flag>
0

> <version>
0

> <s_m_source_file>
/data/baiqing/PycharmProjects/Reinvent-master-3.2/result/LINK_invent/BTK/process_docking_weight1_custom_product_contain_oxygen_bond_distance_aromatic_linkinvent_7_9_3/rearranged_h_0080.sdf

> <i_m_source_file_index>
66

> <r_mmod_Potential_Energy-OPLS-2005>
169.046646118164

> <r_mmod_Stretch_Energy-OPLS-2005>
108.403533935547

> <r_mmod_Bend_Energy-OPLS-2005>
151.176452636719

> <r_mmod_Torsional_Energy-OPLS-2005>
259.977355957031

> <r_mmod_Improper_Torsional_Energy-OPLS-2005>
3.43099594116211

> <r_mmod_Van_der_Waal_Energy-OPLS-2005>
159.234634399414

> <r_mmod_Electrostatic_Energy-OPLS-2005>
-362.006286621094

> <r_mmod_Solvation_Energy-OPLS-2005>
-213.49853515625

> <b_mmod_Minimization_Converged-OPLS-2005>
0

> <r_mmod_RMS_Derivative-OPLS-2005>
2.51332974433899

$$$$
66
                    3D
 Structure written by MMmdl.
154163  0  0  1  0            999 V2000
  -30.6553  -14.7741   20.4862 C   0  0  0  0  0  0
  -30.4366  -12.4904   19.4680 C   0  0  0  0  0  0
  -29.5071  -12.5265   18.2311 C   0  0  0  0  0  0
  -28.0298  -12.3492   18.6377 C   0  0  0  0  0  0
  -27.6445  -13.2329   19.8519 C   0  0  2  0  0  0
  -28.6925  -13.1007   20.9682 C   0  0  0  0  0  0
  -25.2531  -13.8189   20.5708 C   0  0  0  0  0  0
  -24.1803  -13.0424   20.9190 C   0  0  0  0  0  0
  -24.6406  -11.6903   20.8751 C   0  0  0  0  0  0
  -23.9101  -10.4281   21.0424 C   0  0  0  0  0  0
  -24.3655   -9.4196   21.9219 C   0  0  0  0  0  0
  -23.6317   -8.2238   22.0779 C   0  0  0  0  0  0
  -22.4300   -8.0291   21.3560 C   0  0  0  0  0  0
  -21.9941   -9.0265   20.4657 C   0  0  0  0  0  0
  -22.7279  -10.2134   20.3064 C   0  0  0  0  0  0
  -21.6856   -6.0738   22.5275 C   0  0  0  0  0  0
  -21.4005   -6.5642   23.8209 C   0  0  0  0  0  0
  -21.3662   -5.6801   24.9175 C   0  0  0  0  0  0
  -21.6056   -4.3061   24.7206 C   0  0  0  0  0  0
  -21.8830   -3.8148   23.4328 C   0  0  0  0  0  0
  -21.9195   -4.6969   22.3390 C   0  0  0  0  0  0
  -22.7840  -13.5222   21.1827 C   0  0  0  0  0  0
  -22.1677   -4.2156   21.0967 F   0  0  0  0  0  0
  -21.5622   -3.4547   25.7714 F   0  0  0  0  0  0
  -29.9909  -13.5476   20.4264 N   0  0  0  0  0  0
  -26.2959  -12.9396   20.3313 N   0  0  0  0  0  0
  -25.9340  -11.6540   20.5757 N   0  0  0  0  0  0
  -22.0484  -12.8230   22.0372 N   0  0  0  0  0  0
  -25.4248  -15.1913   20.4139 N   0  0  0  0  0  0
  -31.8248  -14.7493   20.0972 O   0  0  0  0  0  0
  -21.6659   -6.8887   21.4237 O   0  0  0  0  0  0
  -22.3560  -14.5559   20.6687 O   0  0  0  0  0  0
  -24.6322  -31.8531   23.2003 C   0  0  0  0  0  0
  -25.9152  -32.4729   23.8341 C   0  0  1  0  0  0
  -27.2229  -27.2577   20.1081 C   0  0  0  0  0  0
  -25.5946  -33.8539   24.2257 N   0  0  0  0  0  0
  -23.4277  -30.4810   21.5401 C   0  0  2  0  0  0
  -24.8750  -28.9227   20.1139 C   0  0  0  0  0  0
  -22.7469  -29.4598   22.4857 C   0  0  0  0  0  0
  -18.0311  -28.1335   22.8483 C   0  0  0  0  0  0
  -24.1495  -36.7281   23.2639 C   0  0  0  0  0  0
  -25.9788  -30.7561   21.3912 C   0  0  0  0  0  0
  -26.0471  -29.3836   20.7253 C   0  0  0  0  0  0
  -27.2204  -28.5609   20.7149 C   0  0  0  0  0  0
  -26.0150  -26.8558   19.4939 C   0  0  0  0  0  0
  -24.8637  -27.6648   19.4961 C   0  0  0  0  0  0
  -23.6534  -29.8186   20.1555 C   0  0  0  0  0  0
  -25.4121  -36.3046   24.0307 C   0  0  1  0  0  0
  -20.5905  -28.3712   23.1254 C   0  0  2  0  0  0
  -20.6812  -26.9451   22.5375 C   0  0  0  0  0  0
  -19.5820  -26.6390   21.5154 C   0  0  0  0  0  0
  -18.1989  -26.7881   22.1588 C   0  0  0  0  0  0
  -19.1558  -28.8817   23.2871 C   0  0  0  0  0  0
  -18.9483  -30.1429   23.8898 C   0  0  0  0  0  0
  -17.6489  -30.6563   24.0545 C   0  0  0  0  0  0
  -25.9058  -34.9410   23.5080 C   0  0  0  0  0  0
  -16.5377  -29.9061   23.6298 C   0  0  0  0  0  0
  -16.7294  -28.6454   23.0365 C   0  0  0  0  0  0
  -26.4540  -31.6575   25.0750 C   0  0  0  0  0  0
  -25.3769  -31.3765   26.1478 C   0  0  0  0  0  0
  -27.0442  -30.2979   24.6311 C   0  0  0  0  0  0
  -27.6043  -32.4382   25.7541 C   0  0  0  0  0  0
  -27.5568  -37.1796   24.8452 C   0  0  0  0  0  0
  -21.4176  -29.3111   22.3652 N   0  0  0  0  0  0
  -26.4292  -37.3740   23.9376 N   0  0  0  0  0  0
  -24.6978  -31.0482   22.0993 N   0  0  0  0  0  0
  -23.4155  -28.8082   23.2939 O   0  0  0  0  0  0
  -28.3312  -26.3767   20.1782 O   0  0  0  0  0  0
  -26.5621  -34.8891   22.4635 O   0  0  0  0  0  0
  -23.5471  -32.1348   23.7291 O   0  0  0  0  0  0
  -32.0585  -18.9495   19.2070 C   0  0  0  0  0  0
  -31.6113  -17.6905   19.6402 C   0  0  0  0  0  0
  -31.2939  -20.1087   19.3904 C   0  0  0  0  0  0
  -29.5831  -18.7446   20.4237 C   0  0  0  0  0  0
  -30.3660  -17.5054   20.2874 C   0  0  0  0  0  0
  -30.0076  -20.0836   19.9878 C   0  0  0  0  0  0
  -27.8516  -23.0325   20.9087 C   0  0  0  0  0  0
  -28.6050  -23.6601   20.0003 C   0  0  0  0  0  0
  -28.2644  -21.6336   21.0322 C   0  0  0  0  0  0
  -29.5008  -22.5998   19.4896 C   0  0  0  0  0  0
  -29.1676  -16.1394   21.9749 C   0  0  0  0  0  0
  -30.0111  -16.1068   20.9221 C   0  0  0  0  0  0
  -28.4441  -25.1170   19.3632 C   0  0  0  0  0  0
  -29.2644  -21.3985   20.1449 N   0  0  0  0  0  0
  -27.7794  -20.8084   21.8144 O   0  0  0  0  0  0
  -30.3144  -22.7696   18.5746 O   0  0  0  0  0  0
  -31.4682  -12.6161   19.1346 H   0  0  0  0  0  0
  -30.4179  -11.5043   19.9397 H   0  0  0  0  0  0
  -29.7865  -11.7385   17.5315 H   0  0  0  0  0  0
  -29.6315  -13.4692   17.6943 H   0  0  0  0  0  0
  -27.8767  -11.2974   18.8846 H   0  0  0  0  0  0
  -27.3722  -12.5566   17.7926 H   0  0  0  0  0  0
  -27.6578  -14.2682   19.5084 H   0  0  0  0  0  0
  -28.7651  -12.0554   21.2751 H   0  0  0  0  0  0
  -28.3628  -13.5942   21.8684 H   0  0  0  0  0  0
  -25.2791   -9.5655   22.4819 H   0  0  0  0  0  0
  -24.0008   -7.4616   22.7503 H   0  0  0  0  0  0
  -21.0878   -8.8791   19.8967 H   0  0  0  0  0  0
  -22.3761  -10.9683   19.6176 H   0  0  0  0  0  0
  -21.2005   -7.6155   23.9705 H   0  0  0  0  0  0
  -21.1488   -6.0537   25.9083 H   0  0  0  0  0  0
  -22.0608   -2.7605   23.2825 H   0  0  0  0  0  0
  -22.4089  -11.9894   22.4777 H   0  0  0  0  0  0
  -21.1091  -13.1250   22.2509 H   0  0  0  0  0  0
  -24.6636  -15.8504   20.5342 H   0  0  0  0  0  0
  -26.2968  -15.6330   20.1511 H   0  0  0  0  0  0
  -26.7210  -32.5394   23.1068 H   0  0  0  0  0  0
  -25.0132  -33.9686   25.0430 H   0  0  0  0  0  0
  -22.7290  -31.3084   21.3940 H   0  0  0  0  0  0
  -23.3744  -35.9633   23.3298 H   0  0  0  0  0  0
  -24.3574  -36.8921   22.2058 H   0  0  0  0  0  0
  -23.7295  -37.6487   23.6694 H   0  0  0  0  0  0
  -26.1366  -31.5282   20.6373 H   0  0  0  0  0  0
  -26.8448  -30.7889   22.0389 H   0  0  0  0  0  0
  -28.1233  -28.9069   21.1994 H   0  0  0  0  0  0
  -25.9016  -25.8850   19.0401 H   0  0  0  0  0  0
  -23.9618  -27.2978   19.0277 H   0  0  0  0  0  0
  -23.8047  -30.5977   19.4080 H   0  0  0  0  0  0
  -22.7683  -29.2660   19.8372 H   0  0  0  0  0  0
  -25.1324  -36.1862   25.0806 H   0  0  0  0  0  0
  -21.0012  -28.3264   24.1363 H   0  0  0  0  0  0
  -20.5726  -26.2399   23.3603 H   0  0  0  0  0  0
  -21.6733  -26.7464   22.1282 H   0  0  0  0  0  0
  -19.7100  -25.6328   21.1151 H   0  0  0  0  0  0
  -19.6719  -27.3217   20.6704 H   0  0  0  0  0  0
  -17.4243  -26.6683   21.3982 H   0  0  0  0  0  0
  -18.0408  -25.9984   22.8971 H   0  0  0  0  0  0
  -19.7962  -30.7221   24.2332 H   0  0  0  0  0  0
  -17.5063  -31.6253   24.5103 H   0  0  0  0  0  0
  -15.5400  -30.3016   23.7595 H   0  0  0  0  0  0
  -15.8686  -28.0772   22.7056 H   0  0  0  0  0  0
  -24.5863  -30.7197   25.7823 H   0  0  0  0  0  0
  -24.9076  -32.2985   26.4925 H   0  0  0  0  0  0
  -25.8078  -30.8906   27.0238 H   0  0  0  0  0  0
  -26.3050  -29.6629   24.1411 H   0  0  0  0  0  0
  -27.4184  -29.7340   25.4865 H   0  0  0  0  0  0
  -27.8902  -30.4228   23.9548 H   0  0  0  0  0  0
  -27.2535  -33.3630   26.2135 H   0  0  0  0  0  0
  -28.3841  -32.7037   25.0388 H   0  0  0  0  0  0
  -28.0734  -31.8532   26.5462 H   0  0  0  0  0  0
  -28.2590  -38.0085   24.7469 H   0  0  0  0  0  0
  -28.1068  -36.2614   24.6334 H   0  0  0  0  0  0
  -27.2277  -37.1505   25.8855 H   0  0  0  0  0  0
  -20.9305  -29.8971   21.6997 H   0  0  0  0  0  0
  -26.0161  -38.2808   24.1370 H   0  0  0  0  0  0
  -33.0332  -19.0323   18.7483 H   0  0  0  0  0  0
  -32.3102  -16.8833   19.4896 H   0  0  0  0  0  0
  -31.7644  -21.0239   19.0665 H   0  0  0  0  0  0
  -28.6152  -18.6626   20.8955 H   0  0  0  0  0  0
  -27.0113  -23.4693   21.4239 H   0  0  0  0  0  0
  -28.9239  -15.2955   22.5848 H   0  0  0  0  0  0
  -28.7162  -17.0628   22.3015 H   0  0  0  0  0  0
  -27.6986  -25.0506   18.5756 H   0  0  0  0  0  0
  -29.3605  -25.2705   18.7926 H   0  0  0  0  0  0
  1 25  1  0  0  0
  1 30  2  0  0  0
  1 82  1  0  0  0
  2  3  1  0  0  0
  2 25  1  0  0  0
  2 87  1  0  0  0
  2 88  1  0  0  0
  3  4  1  0  0  0
  3 89  1  0  0  0
  3 90  1  0  0  0
  4  5  1  0  0  0
  4 91  1  0  0  0
  4 92  1  0  0  0
  5  6  1  0  0  0
  5 26  1  0  0  0
  5 93  1  0  0  0
  6 25  1  0  0  0
  6 94  1  0  0  0
  6 95  1  0  0  0
  7  8  2  0  0  0
  7 26  1  0  0  0
  7 29  1  0  0  0
  8  9  1  0  0  0
  8 22  1  0  0  0
  9 10  1  0  0  0
  9 27  2  0  0  0
 10 11  2  0  0  0
 10 15  1  0  0  0
 11 12  1  0  0  0
 11 96  1  0  0  0
 12 13  2  0  0  0
 12 97  1  0  0  0
 13 14  1  0  0  0
 13 31  1  0  0  0
 14 15  2  0  0  0
 14 98  1  0  0  0
 15 99  1  0  0  0
 16 17  2  0  0  0
 16 21  1  0  0  0
 16 31  1  0  0  0
 17 18  1  0  0  0
 17100  1  0  0  0
 18 19  2  0  0  0
 18101  1  0  0  0
 19 20  1  0  0  0
 19 24  1  0  0  0
 20 21  2  0  0  0
 20102  1  0  0  0
 21 23  1  0  0  0
 22 28  1  0  0  0
 22 32  2  0  0  0
 26 27  1  0  0  0
 28103  1  0  0  0
 28104  1  0  0  0
 29105  1  0  0  0
 29106  1  0  0  0
 33 34  1  0  0  0
 33 66  1  0  0  0
 33 70  2  0  0  0
 34 36  1  0  0  0
 34 59  1  0  0  0
 34107  1  0  0  0
 35 44  2  0  0  0
 35 45  1  0  0  0
 35 68  1  0  0  0
 36 56  1  0  0  0
 36108  1  0  0  0
 37 39  1  0  0  0
 37 47  1  0  0  0
 37 66  1  0  0  0
 37109  1  0  0  0
 38 43  2  0  0  0
 38 46  1  0  0  0
 38 47  1  0  0  0
 39 64  1  0  0  0
 39 67  2  0  0  0
 40 52  1  0  0  0
 40 53  2  0  0  0
 40 58  1  0  0  0
 41110  1  0  0  0
 41111  1  0  0  0
 41112  1  0  0  0
 41 48  1  0  0  0
 42 43  1  0  0  0
 42 66  1  0  0  0
 42113  1  0  0  0
 42114  1  0  0  0
 43 44  1  0  0  0
 44115  1  0  0  0
 45 46  2  0  0  0
 45116  1  0  0  0
 46117  1  0  0  0
 47118  1  0  0  0
 47119  1  0  0  0
 48 56  1  0  0  0
 48 65  1  0  0  0
 48120  1  0  0  0
 49 50  1  0  0  0
 49 53  1  0  0  0
 49 64  1  0  0  0
 49121  1  0  0  0
 50 51  1  0  0  0
 50122  1  0  0  0
 50123  1  0  0  0
 51 52  1  0  0  0
 51124  1  0  0  0
 51125  1  0  0  0
 52126  1  0  0  0
 52127  1  0  0  0
 53 54  1  0  0  0
 54 55  2  0  0  0
 54128  1  0  0  0
 55 57  1  0  0  0
 55129  1  0  0  0
 56 69  2  0  0  0
 57 58  2  0  0  0
 57130  1  0  0  0
 58131  1  0  0  0
 59 60  1  0  0  0
 59 61  1  0  0  0
 59 62  1  0  0  0
 60132  1  0  0  0
 60133  1  0  0  0
 60134  1  0  0  0
 61135  1  0  0  0
 61136  1  0  0  0
 61137  1  0  0  0
 62138  1  0  0  0
 62139  1  0  0  0
 62140  1  0  0  0
 63 65  1  0  0  0
 63141  1  0  0  0
 63142  1  0  0  0
 63143  1  0  0  0
 64144  1  0  0  0
 65145  1  0  0  0
 68 83  1  0  0  0
 71 72  2  0  0  0
 71 73  1  0  0  0
 71146  1  0  0  0
 72 75  1  0  0  0
 72147  1  0  0  0
 73 76  2  0  0  0
 73148  1  0  0  0
 74 75  2  0  0  0
 74 76  1  0  0  0
 74149  1  0  0  0
 75 82  1  0  0  0
 76 84  1  0  0  0
 77 78  2  0  0  0
 77 79  1  0  0  0
 77150  1  0  0  0
 78 80  1  0  0  0
 78 83  1  0  0  0
 79 84  1  0  0  0
 79 85  2  0  0  0
 80 84  1  0  0  0
 80 86  2  0  0  0
 81 82  2  0  0  0
 81151  1  0  0  0
 81152  1  0  0  0
 83153  1  0  0  0
 83154  1  0  0  0
M  ISO  4   1 100  68 101  82 100  83 101
M  END
> <chiral flag>
0

> <version>
0

> <s_m_source_file>
/data/baiqing/PycharmProjects/Reinvent-master-3.2/result/LINK_invent/BTK/process_docking_weight1_custom_product_contain_oxygen_bond_distance_aromatic_linkinvent_7_9_3/rearranged_h_0080.sdf

> <i_m_source_file_index>
67

> <r_mmod_Potential_Energy-OPLS-2005>
346.807403564453

> <r_mmod_Stretch_Energy-OPLS-2005>
158.613555908203

> <r_mmod_Bend_Energy-OPLS-2005>
255.978485107422

> <r_mmod_Torsional_Energy-OPLS-2005>
212.393402099609

> <r_mmod_Improper_Torsional_Energy-OPLS-2005>
4.83712959289551

> <r_mmod_Van_der_Waal_Energy-OPLS-2005>
172.201690673828

> <r_mmod_Electrostatic_Energy-OPLS-2005>
-324.088012695312

> <r_mmod_Solvation_Energy-OPLS-2005>
-217.178726196289

> <b_mmod_Minimization_Converged-OPLS-2005>
0

> <r_mmod_RMS_Derivative-OPLS-2005>
4.47928619384766

$$$$
67
                    3D
 Structure written by MMmdl.
158167  0  0  1  0            999 V2000
  -30.5756  -14.7517   20.4006 C   0  0  0  0  0  0
  -30.4482  -12.4422   19.4865 C   0  0  0  0  0  0
  -29.5278  -12.4955   18.2436 C   0  0  0  0  0  0
  -28.0491  -12.3189   18.6492 C   0  0  0  0  0  0
  -27.6439  -13.2277   19.8397 C   0  0  2  0  0  0
  -28.6841  -13.1675   20.9770 C   0  0  0  0  0  0
  -25.2561  -13.8188   20.5676 C   0  0  0  0  0  0
  -24.1841  -13.0438   20.9185 C   0  0  0  0  0  0
  -24.6404  -11.6908   20.8718 C   0  0  0  0  0  0
  -23.9079  -10.4291   21.0405 C   0  0  0  0  0  0
  -24.3638   -9.4208   21.9178 C   0  0  0  0  0  0
  -23.6304   -8.2249   22.0752 C   0  0  0  0  0  0
  -22.4274   -8.0292   21.3551 C   0  0  0  0  0  0
  -21.9919   -9.0265   20.4645 C   0  0  0  0  0  0
  -22.7256  -10.2138   20.3049 C   0  0  0  0  0  0
  -21.6852   -6.0736   22.5281 C   0  0  0  0  0  0
  -21.4008   -6.5642   23.8215 C   0  0  0  0  0  0
  -21.3661   -5.6797   24.9179 C   0  0  0  0  0  0
  -21.6047   -4.3059   24.7222 C   0  0  0  0  0  0
  -21.8825   -3.8146   23.4345 C   0  0  0  0  0  0
  -21.9193   -4.6963   22.3403 C   0  0  0  0  0  0
  -22.7861  -13.5221   21.1850 C   0  0  0  0  0  0
  -22.1666   -4.2153   21.0981 F   0  0  0  0  0  0
  -21.5627   -3.4540   25.7737 F   0  0  0  0  0  0
  -30.0015  -13.5008   20.4180 N   0  0  0  0  0  0
  -26.2956  -12.9371   20.3205 N   0  0  0  0  0  0
  -25.9325  -11.6517   20.5710 N   0  0  0  0  0  0
  -22.0514  -12.8214   22.0423 N   0  0  0  0  0  0
  -25.4280  -15.1909   20.4111 N   0  0  0  0  0  0
  -31.7884  -14.8430   20.2056 O   0  0  0  0  0  0
  -21.6642   -6.8879   21.4238 O   0  0  0  0  0  0
  -22.3533  -14.5537   20.6729 O   0  0  0  0  0  0
  -24.6299  -31.8574   23.2001 C   0  0  0  0  0  0
  -25.9129  -32.4775   23.8360 C   0  0  1  0  0  0
  -27.2258  -27.2657   20.1517 C   0  0  0  0  0  0
  -25.5934  -33.8580   24.2281 N   0  0  0  0  0  0
  -23.4277  -30.4769   21.5439 C   0  0  2  0  0  0
  -24.8789  -28.9158   20.1252 C   0  0  0  0  0  0
  -22.7506  -29.4603   22.4932 C   0  0  0  0  0  0
  -18.0287  -28.1393   22.8482 C   0  0  0  0  0  0
  -24.1481  -36.7276   23.2629 C   0  0  0  0  0  0
  -25.9722  -30.7691   21.3834 C   0  0  0  0  0  0
  -26.0488  -29.3863   20.7377 C   0  0  0  0  0  0
  -27.2272  -28.5716   20.7450 C   0  0  0  0  0  0
  -26.0360  -26.8532   19.5208 C   0  0  0  0  0  0
  -24.8748  -27.6545   19.5066 C   0  0  0  0  0  0
  -23.6493  -29.8055   20.1626 C   0  0  0  0  0  0
  -25.4107  -36.3074   24.0328 C   0  0  1  0  0  0
  -20.5892  -28.3708   23.1281 C   0  0  2  0  0  0
  -20.6776  -26.9425   22.5420 C   0  0  0  0  0  0
  -19.5755  -26.6378   21.5219 C   0  0  0  0  0  0
  -18.1934  -26.7932   22.1628 C   0  0  0  0  0  0
  -19.1540  -28.8867   23.2871 C   0  0  0  0  0  0
  -18.9463  -30.1471   23.8889 C   0  0  0  0  0  0
  -17.6463  -30.6597   24.0559 C   0  0  0  0  0  0
  -25.9064  -34.9452   23.5114 C   0  0  0  0  0  0
  -16.5354  -29.9091   23.6328 C   0  0  0  0  0  0
  -16.7270  -28.6503   23.0348 C   0  0  0  0  0  0
  -26.4486  -31.6598   25.0752 C   0  0  0  0  0  0
  -25.3693  -31.3781   26.1471 C   0  0  0  0  0  0
  -27.0316  -30.2992   24.6253 C   0  0  0  0  0  0
  -27.6035  -32.4340   25.7528 C   0  0  0  0  0  0
  -27.5585  -37.1782   24.8448 C   0  0  0  0  0  0
  -21.4214  -29.3045   22.3668 N   0  0  0  0  0  0
  -26.4276  -37.3778   23.9426 N   0  0  0  0  0  0
  -24.6947  -31.0535   22.0983 N   0  0  0  0  0  0
  -23.4210  -28.8172   23.3046 O   0  0  0  0  0  0
  -28.3190  -26.3813   20.0695 O   0  0  0  0  0  0
  -26.5622  -34.8910   22.4674 O   0  0  0  0  0  0
  -23.5450  -32.1401   23.7298 O   0  0  0  0  0  0
  -28.9399  -19.5442   20.0146 C   0  0  0  0  0  0
  -28.9405  -18.1664   19.9716 C   0  0  0  0  0  0
  -30.5167  -20.0875   21.6550 C   0  0  0  0  0  0
  -31.0359  -17.6783   21.3390 C   0  0  0  0  0  0
  -29.5644  -20.4967   20.7717 C   0  0  0  0  0  0
  -31.1505  -18.9041   21.9413 C   0  0  0  0  0  0
  -29.8955  -17.1419   20.5500 C   0  0  0  0  0  0
  -28.7637  -23.9635   20.8452 C   0  0  0  0  0  0
  -28.8177  -22.9703   19.7713 C   0  0  0  0  0  0
  -28.4894  -25.3236   20.9966 C   0  0  0  0  0  0
  -32.6537  -18.1219   23.8082 C   0  0  0  0  0  0
  -29.1839  -22.8575   21.8287 C   0  0  0  0  0  0
  -33.5355  -18.6678   24.9272 C   0  0  0  0  0  0
  -29.6601  -15.8585   20.3167 N   0  0  0  0  0  0
  -29.2464  -21.9328   20.6667 N   0  0  0  0  0  0
  -32.0522  -19.0440   23.0250 N   0  0  0  0  0  0
  -28.5683  -23.0609   18.5895 O   0  0  0  0  0  0
  -32.5274  -16.8995   23.6973 O   0  0  0  0  0  0
  -31.4892  -12.5700   19.1865 H   0  0  0  0  0  0
  -30.3954  -11.4641   19.9688 H   0  0  0  0  0  0
  -29.8155  -11.7215   17.5303 H   0  0  0  0  0  0
  -29.6588  -13.4487   17.7278 H   0  0  0  0  0  0
  -27.9106  -11.2716   18.9246 H   0  0  0  0  0  0
  -27.3974  -12.4977   17.7930 H   0  0  0  0  0  0
  -27.6340  -14.2457   19.4525 H   0  0  0  0  0  0
  -28.7046  -12.1787   21.4395 H   0  0  0  0  0  0
  -28.4212  -13.8694   21.7702 H   0  0  0  0  0  0
  -25.2778   -9.5682   22.4755 H   0  0  0  0  0  0
  -24.0006   -7.4636   22.7481 H   0  0  0  0  0  0
  -21.0844   -8.8788   19.8959 H   0  0  0  0  0  0
  -22.3715  -10.9680   19.6163 H   0  0  0  0  0  0
  -21.2001   -7.6149   23.9720 H   0  0  0  0  0  0
  -21.1473   -6.0522   25.9085 H   0  0  0  0  0  0
  -22.0605   -2.7604   23.2845 H   0  0  0  0  0  0
  -22.4134  -11.9854   22.4789 H   0  0  0  0  0  0
  -21.1132  -13.1249   22.2658 H   0  0  0  0  0  0
  -24.6731  -15.8565   20.5343 H   0  0  0  0  0  0
  -26.2998  -15.6213   20.1275 H   0  0  0  0  0  0
  -26.7205  -32.5430   23.1123 H   0  0  0  0  0  0
  -25.0066  -33.9716   25.0412 H   0  0  0  0  0  0
  -22.7234  -31.2973   21.3965 H   0  0  0  0  0  0
  -23.3752  -35.9594   23.3269 H   0  0  0  0  0  0
  -24.3570  -36.8921   22.2044 H   0  0  0  0  0  0
  -23.7223  -37.6466   23.6670 H   0  0  0  0  0  0
  -26.1044  -31.5240   20.6061 H   0  0  0  0  0  0
  -26.8509  -30.8259   22.0166 H   0  0  0  0  0  0
  -28.1273  -28.9283   21.2235 H   0  0  0  0  0  0
  -26.0063  -25.8840   19.0423 H   0  0  0  0  0  0
  -23.9795  -27.2906   19.0216 H   0  0  0  0  0  0
  -23.7748  -30.5795   19.4053 H   0  0  0  0  0  0
  -22.7692  -29.2398   19.8564 H   0  0  0  0  0  0
  -25.1275  -36.1903   25.0816 H   0  0  0  0  0  0
  -20.9970  -28.3291   24.1413 H   0  0  0  0  0  0
  -20.5699  -26.2306   23.3621 H   0  0  0  0  0  0
  -21.6638  -26.7463   22.1209 H   0  0  0  0  0  0
  -19.6929  -25.6284   21.1258 H   0  0  0  0  0  0
  -19.6695  -27.3181   20.6743 H   0  0  0  0  0  0
  -17.4197  -26.6657   21.4038 H   0  0  0  0  0  0
  -18.0349  -26.0086   22.9040 H   0  0  0  0  0  0
  -19.7938  -30.7287   24.2258 H   0  0  0  0  0  0
  -17.5010  -31.6275   24.5164 H   0  0  0  0  0  0
  -15.5352  -30.2994   23.7660 H   0  0  0  0  0  0
  -15.8660  -28.0826   22.7075 H   0  0  0  0  0  0
  -24.5822  -30.7192   25.7804 H   0  0  0  0  0  0
  -24.8939  -32.2969   26.4914 H   0  0  0  0  0  0
  -25.7983  -30.8930   27.0245 H   0  0  0  0  0  0
  -26.2917  -29.6775   24.1200 H   0  0  0  0  0  0
  -27.3875  -29.7228   25.4801 H   0  0  0  0  0  0
  -27.8851  -30.4225   23.9580 H   0  0  0  0  0  0
  -27.2630  -33.3632   26.2105 H   0  0  0  0  0  0
  -28.3856  -32.6920   25.0382 H   0  0  0  0  0  0
  -28.0683  -31.8465   26.5452 H   0  0  0  0  0  0
  -28.2545  -38.0133   24.7576 H   0  0  0  0  0  0
  -28.1139  -36.2675   24.6166 H   0  0  0  0  0  0
  -27.2319  -37.1299   25.8848 H   0  0  0  0  0  0
  -20.9419  -29.8732   21.6831 H   0  0  0  0  0  0
  -26.0146  -38.2834   24.1487 H   0  0  0  0  0  0
  -28.2231  -19.9647   19.3251 H   0  0  0  0  0  0
  -28.1893  -17.7438   19.3196 H   0  0  0  0  0  0
  -30.9487  -20.9208   22.1901 H   0  0  0  0  0  0
  -31.9084  -17.0464   21.3721 H   0  0  0  0  0  0
  -28.5317  -25.7429   21.9919 H   0  0  0  0  0  0
  -28.4433  -22.5301   22.5593 H   0  0  0  0  0  0
  -30.1517  -22.9934   22.3151 H   0  0  0  0  0  0
  -33.3391  -19.7254   25.1072 H   0  0  0  0  0  0
  -34.5899  -18.5503   24.6774 H   0  0  0  0  0  0
  -33.3465  -18.1279   25.8560 H   0  0  0  0  0  0
  -32.2468  -19.9983   23.2925 H   0  0  0  0  0  0
  1 25  1  0  0  0
  1 30  2  0  0  0
  1 84  1  0  0  0
  2  3  1  0  0  0
  2 25  1  0  0  0
  2 89  1  0  0  0
  2 90  1  0  0  0
  3  4  1  0  0  0
  3 91  1  0  0  0
  3 92  1  0  0  0
  4  5  1  0  0  0
  4 93  1  0  0  0
  4 94  1  0  0  0
  5  6  1  0  0  0
  5 26  1  0  0  0
  5 95  1  0  0  0
  6 25  1  0  0  0
  6 96  1  0  0  0
  6 97  1  0  0  0
  7  8  2  0  0  0
  7 26  1  0  0  0
  7 29  1  0  0  0
  8  9  1  0  0  0
  8 22  1  0  0  0
  9 10  1  0  0  0
  9 27  2  0  0  0
 10 11  2  0  0  0
 10 15  1  0  0  0
 11 12  1  0  0  0
 11 98  1  0  0  0
 12 13  2  0  0  0
 12 99  1  0  0  0
 13 14  1  0  0  0
 13 31  1  0  0  0
 14 15  2  0  0  0
 14100  1  0  0  0
 15101  1  0  0  0
 16 17  2  0  0  0
 16 21  1  0  0  0
 16 31  1  0  0  0
 17 18  1  0  0  0
 17102  1  0  0  0
 18 19  2  0  0  0
 18103  1  0  0  0
 19 20  1  0  0  0
 19 24  1  0  0  0
 20 21  2  0  0  0
 20104  1  0  0  0
 21 23  1  0  0  0
 22 28  1  0  0  0
 22 32  2  0  0  0
 26 27  1  0  0  0
 28105  1  0  0  0
 28106  1  0  0  0
 29107  1  0  0  0
 29108  1  0  0  0
 33 34  1  0  0  0
 33 66  1  0  0  0
 33 70  2  0  0  0
 34 36  1  0  0  0
 34 59  1  0  0  0
 34109  1  0  0  0
 35 44  2  0  0  0
 35 45  1  0  0  0
 35 68  1  0  0  0
 36 56  1  0  0  0
 36110  1  0  0  0
 37 39  1  0  0  0
 37 47  1  0  0  0
 37 66  1  0  0  0
 37111  1  0  0  0
 38 43  2  0  0  0
 38 46  1  0  0  0
 38 47  1  0  0  0
 39 64  1  0  0  0
 39 67  2  0  0  0
 40 52  1  0  0  0
 40 53  2  0  0  0
 40 58  1  0  0  0
 41112  1  0  0  0
 41113  1  0  0  0
 41114  1  0  0  0
 41 48  1  0  0  0
 42 43  1  0  0  0
 42 66  1  0  0  0
 42115  1  0  0  0
 42116  1  0  0  0
 43 44  1  0  0  0
 44117  1  0  0  0
 45 46  2  0  0  0
 45118  1  0  0  0
 46119  1  0  0  0
 47120  1  0  0  0
 47121  1  0  0  0
 48 56  1  0  0  0
 48 65  1  0  0  0
 48122  1  0  0  0
 49 50  1  0  0  0
 49 53  1  0  0  0
 49 64  1  0  0  0
 49123  1  0  0  0
 50 51  1  0  0  0
 50124  1  0  0  0
 50125  1  0  0  0
 51 52  1  0  0  0
 51126  1  0  0  0
 51127  1  0  0  0
 52128  1  0  0  0
 52129  1  0  0  0
 53 54  1  0  0  0
 54 55  2  0  0  0
 54130  1  0  0  0
 55 57  1  0  0  0
 55131  1  0  0  0
 56 69  2  0  0  0
 57 58  2  0  0  0
 57132  1  0  0  0
 58133  1  0  0  0
 59 60  1  0  0  0
 59 61  1  0  0  0
 59 62  1  0  0  0
 60134  1  0  0  0
 60135  1  0  0  0
 60136  1  0  0  0
 61137  1  0  0  0
 61138  1  0  0  0
 61139  1  0  0  0
 62140  1  0  0  0
 62141  1  0  0  0
 62142  1  0  0  0
 63 65  1  0  0  0
 63143  1  0  0  0
 63144  1  0  0  0
 63145  1  0  0  0
 64146  1  0  0  0
 65147  1  0  0  0
 68 80  1  0  0  0
 71 72  2  0  0  0
 71 75  1  0  0  0
 71148  1  0  0  0
 72 77  1  0  0  0
 72149  1  0  0  0
 73 75  2  0  0  0
 73 76  1  0  0  0
 73150  1  0  0  0
 74 76  2  0  0  0
 74 77  1  0  0  0
 74151  1  0  0  0
 75 85  1  0  0  0
 76 86  1  0  0  0
 77 84  2  0  0  0
 78 79  1  0  0  0
 78 80  2  0  0  0
 78 82  1  0  0  0
 79 85  1  0  0  0
 79 87  2  0  0  0
 80152  1  0  0  0
 81 83  1  0  0  0
 81 86  1  0  0  0
 81 88  2  0  0  0
 82 85  1  0  0  0
 82153  1  0  0  0
 82154  1  0  0  0
 83155  1  0  0  0
 83156  1  0  0  0
 83157  1  0  0  0
 86158  1  0  0  0
M  ISO  4   1 100  68 101  80 101  84 100
M  END
> <chiral flag>
0

> <version>
0

> <s_m_source_file>
/data/baiqing/PycharmProjects/Reinvent-master-3.2/result/LINK_invent/BTK/process_docking_weight1_custom_product_contain_oxygen_bond_distance_aromatic_linkinvent_7_9_3/rearranged_h_0080.sdf

> <i_m_source_file_index>
68

> <r_mmod_Potential_Energy-OPLS-2005>
229.157272338867

> <r_mmod_Stretch_Energy-OPLS-2005>
109.414573669434

> <r_mmod_Bend_Energy-OPLS-2005>
274.320373535156

> <r_mmod_Torsional_Energy-OPLS-2005>
207.763885498047

> <r_mmod_Improper_Torsional_Energy-OPLS-2005>
8.20064163208008

> <r_mmod_Van_der_Waal_Energy-OPLS-2005>
138.366607666016

> <r_mmod_Electrostatic_Energy-OPLS-2005>
-363.424591064453

> <r_mmod_Solvation_Energy-OPLS-2005>
-232.578598022461

> <b_mmod_Minimization_Converged-OPLS-2005>
0

> <r_mmod_RMS_Derivative-OPLS-2005>
3.31392931938171

$$$$
68
                    3D
 Structure written by MMmdl.
149157  0  0  1  0            999 V2000
  -30.1682  -15.9596   20.2933 C   0  0  0  0  0  0
  -30.4042  -13.3033   19.5820 C   0  0  0  0  0  0
  -29.5712  -12.7522   18.3767 C   0  0  0  0  0  0
  -28.1667  -12.3241   18.8177 C   0  0  0  0  0  0
  -27.5885  -13.3485   19.8139 C   0  0  2  0  0  0
  -28.5726  -13.8063   20.9255 C   0  0  0  0  0  0
  -25.2275  -13.8354   20.5831 C   0  0  0  0  0  0
  -24.1700  -13.0449   20.9290 C   0  0  0  0  0  0
  -24.6451  -11.6976   20.8740 C   0  0  0  0  0  0
  -23.9159  -10.4305   21.0373 C   0  0  0  0  0  0
  -24.3680   -9.4218   21.9166 C   0  0  0  0  0  0
  -23.6330   -8.2264   22.0750 C   0  0  0  0  0  0
  -22.4309   -8.0301   21.3544 C   0  0  0  0  0  0
  -21.9962   -9.0276   20.4640 C   0  0  0  0  0  0
  -22.7315  -10.2142   20.3037 C   0  0  0  0  0  0
  -21.6866   -6.0749   22.5279 C   0  0  0  0  0  0
  -21.4025   -6.5648   23.8213 C   0  0  0  0  0  0
  -21.3663   -5.6797   24.9173 C   0  0  0  0  0  0
  -21.6044   -4.3059   24.7222 C   0  0  0  0  0  0
  -21.8817   -3.8154   23.4342 C   0  0  0  0  0  0
  -21.9197   -4.6974   22.3400 C   0  0  0  0  0  0
  -22.7703  -13.5147   21.1926 C   0  0  0  0  0  0
  -22.1663   -4.2158   21.0978 F   0  0  0  0  0  0
  -21.5625   -3.4541   25.7733 F   0  0  0  0  0  0
  -29.7233  -14.5169   20.2895 N   0  0  0  0  0  0
  -26.2766  -12.9761   20.3260 N   0  0  0  0  0  0
  -25.9414  -11.6786   20.5660 N   0  0  0  0  0  0
  -22.0383  -12.8111   22.0479 N   0  0  0  0  0  0
  -25.3832  -15.2106   20.4315 N   0  0  0  0  0  0
  -31.3909  -15.8267   20.0400 O   0  0  0  0  0  0
  -21.6660   -6.8902   21.4245 O   0  0  0  0  0  0
  -22.3364  -14.5442   20.6766 O   0  0  0  0  0  0
  -24.7044  -31.7730   23.1316 C   0  0  0  0  0  0
  -25.9520  -32.4328   23.7947 C   0  0  1  0  0  0
  -27.2399  -26.4772   20.2327 C   0  0  0  0  0  0
  -25.6009  -33.8167   24.1813 N   0  0  0  0  0  0
  -23.5417  -30.3633   21.4895 C   0  0  2  0  0  0
  -25.0039  -28.6574   20.1172 C   0  0  0  0  0  0
  -22.7864  -29.4166   22.4635 C   0  0  0  0  0  0
  -18.0353  -28.1435   22.8441 C   0  0  0  0  0  0
  -24.1497  -36.7095   23.2659 C   0  0  0  0  0  0
  -26.1299  -30.4296   21.4320 C   0  0  0  0  0  0
  -26.1923  -28.9697   20.7856 C   0  0  0  0  0  0
  -27.2785  -27.9118   20.8105 C   0  0  0  0  0  0
  -26.0224  -26.4352   19.4895 C   0  0  0  0  0  0
  -24.9718  -27.4196   19.4445 C   0  0  0  0  0  0
  -23.8086  -29.6386   20.1336 C   0  0  0  0  0  0
  -25.4155  -36.2814   24.0264 C   0  0  1  0  0  0
  -20.6000  -28.3804   23.1100 C   0  0  2  0  0  0
  -20.6808  -26.9441   22.5411 C   0  0  0  0  0  0
  -19.5789  -26.6363   21.5221 C   0  0  0  0  0  0
  -18.1970  -26.7958   22.1614 C   0  0  0  0  0  0
  -19.1625  -28.8948   23.2744 C   0  0  0  0  0  0
  -18.9529  -30.1525   23.8800 C   0  0  0  0  0  0
  -17.6516  -30.6611   24.0546 C   0  0  0  0  0  0
  -25.9150  -34.9211   23.4893 C   0  0  0  0  0  0
  -16.5403  -29.9090   23.6357 C   0  0  0  0  0  0
  -16.7332  -28.6514   23.0370 C   0  0  0  0  0  0
  -26.4628  -31.6463   25.0666 C   0  0  0  0  0  0
  -25.3634  -31.3849   26.1238 C   0  0  0  0  0  0
  -27.0597  -30.2774   24.6737 C   0  0  0  0  0  0
  -27.6032  -32.4380   25.7497 C   0  0  0  0  0  0
  -27.5554  -37.1701   24.8467 C   0  0  0  0  0  0
  -21.4489  -29.3002   22.3388 N   0  0  0  0  0  0
  -26.4260  -37.3601   23.9407 N   0  0  0  0  0  0
  -24.8178  -30.8948   22.0694 N   0  0  0  0  0  0
  -23.4202  -28.7808   23.3087 O   0  0  0  0  0  0
  -28.1704  -25.1592   20.3754 O   0  0  0  0  0  0
  -26.5823  -34.8835   22.4533 O   0  0  0  0  0  0
  -23.6016  -32.0914   23.6127 O   0  0  0  0  0  0
  -30.2137  -18.5155   21.7545 C   0  0  0  0  0  0
  -29.9064  -21.1152   21.4719 C   0  0  0  0  0  0
  -26.5460  -20.1342   21.4175 C   0  0  0  0  0  0
  -27.4132  -21.1633   21.4003 C   0  0  0  0  0  0
  -28.9910  -19.5456   19.7978 C   0  0  0  0  0  0
  -29.4296  -17.8035   20.5788 C   0  0  1  0  0  0
  -28.6603  -21.3393   20.5362 C   0  0  2  0  0  0
  -28.2984  -23.3242   19.9710 C   0  0  0  0  0  0
  -30.3693  -19.8906   21.9601 N   0  0  0  0  0  0
  -30.7619  -17.7824   22.5802 O   0  0  0  0  0  0
  -30.4907  -22.1319   21.8505 O   0  0  0  0  0  0
  -31.3861  -13.5826   19.1998 H   0  0  0  0  0  0
  -30.6142  -12.5041   20.2950 H   0  0  0  0  0  0
  -30.0885  -11.9171   17.9028 H   0  0  0  0  0  0
  -29.4892  -13.5329   17.6193 H   0  0  0  0  0  0
  -28.2449  -11.3500   19.3024 H   0  0  0  0  0  0
  -27.5090  -12.1943   17.9573 H   0  0  0  0  0  0
  -27.4151  -14.2316   19.1971 H   0  0  0  0  0  0
  -28.8821  -12.9741   21.5598 H   0  0  0  0  0  0
  -28.0728  -14.5136   21.5886 H   0  0  0  0  0  0
  -25.2817   -9.5691   22.4754 H   0  0  0  0  0  0
  -24.0025   -7.4661   22.7483 H   0  0  0  0  0  0
  -21.0887   -8.8809   19.8951 H   0  0  0  0  0  0
  -22.3770  -10.9682   19.6148 H   0  0  0  0  0  0
  -21.2022   -7.6157   23.9719 H   0  0  0  0  0  0
  -21.1484   -6.0527   25.9077 H   0  0  0  0  0  0
  -22.0591   -2.7615   23.2840 H   0  0  0  0  0  0
  -22.4040  -11.9792   22.4871 H   0  0  0  0  0  0
  -21.0985  -13.1090   22.2680 H   0  0  0  0  0  0
  -24.6103  -15.8564   20.5501 H   0  0  0  0  0  0
  -26.2292  -15.6604   20.1068 H   0  0  0  0  0  0
  -26.7624  -32.4741   23.0669 H   0  0  0  0  0  0
  -25.0034  -33.9167   24.9886 H   0  0  0  0  0  0
  -22.8795  -31.2059   21.2794 H   0  0  0  0  0  0
  -23.3780  -35.9401   23.3253 H   0  0  0  0  0  0
  -24.3555  -36.8841   22.2087 H   0  0  0  0  0  0
  -23.7241  -37.6239   23.6801 H   0  0  0  0  0  0
  -26.3568  -31.1390   20.6350 H   0  0  0  0  0  0
  -26.9728  -30.5057   22.1061 H   0  0  0  0  0  0
  -28.1604  -28.1602   21.3841 H   0  0  0  0  0  0
  -25.8215  -25.5112   18.9657 H   0  0  0  0  0  0
  -24.0823  -27.1690   18.8827 H   0  0  0  0  0  0
  -24.0000  -30.3898   19.3666 H   0  0  0  0  0  0
  -22.9092  -29.1151   19.8052 H   0  0  0  0  0  0
  -25.1376  -36.1538   25.0751 H   0  0  0  0  0  0
  -21.0074  -28.3452   24.1230 H   0  0  0  0  0  0
  -20.5652  -26.2433   23.3693 H   0  0  0  0  0  0
  -21.6667  -26.7348   22.1241 H   0  0  0  0  0  0
  -19.6942  -25.6249   21.1313 H   0  0  0  0  0  0
  -19.6744  -27.3121   20.6710 H   0  0  0  0  0  0
  -17.4243  -26.6704   21.4014 H   0  0  0  0  0  0
  -18.0345  -26.0125   22.9032 H   0  0  0  0  0  0
  -19.8006  -30.7364   24.2128 H   0  0  0  0  0  0
  -17.5068  -31.6279   24.5169 H   0  0  0  0  0  0
  -15.5400  -30.2963   23.7736 H   0  0  0  0  0  0
  -15.8733  -28.0802   22.7138 H   0  0  0  0  0  0
  -24.5863  -30.7154   25.7531 H   0  0  0  0  0  0
  -24.8777  -32.3091   26.4378 H   0  0  0  0  0  0
  -25.7755  -30.9199   27.0202 H   0  0  0  0  0  0
  -26.3356  -29.6314   24.1764 H   0  0  0  0  0  0
  -27.3967  -29.7316   25.5560 H   0  0  0  0  0  0
  -27.9357  -30.3847   24.0339 H   0  0  0  0  0  0
  -27.2545  -33.3783   26.1777 H   0  0  0  0  0  0
  -28.3990  -32.6777   25.0432 H   0  0  0  0  0  0
  -28.0539  -31.8715   26.5656 H   0  0  0  0  0  0
  -28.2523  -38.0038   24.7508 H   0  0  0  0  0  0
  -28.1096  -36.2554   24.6299 H   0  0  0  0  0  0
  -27.2267  -37.1338   25.8868 H   0  0  0  0  0  0
  -20.9845  -29.8622   21.6390 H   0  0  0  0  0  0
  -26.0064  -38.2636   24.1425 H   0  0  0  0  0  0
  -25.7041  -20.1494   22.0955 H   0  0  0  0  0  0
  -26.6319  -19.2678   20.7810 H   0  0  0  0  0  0
  -27.2280  -21.9828   22.0818 H   0  0  0  0  0  0
  -28.1364  -19.3461   19.1528 H   0  0  0  0  0  0
  -29.7876  -19.7046   19.0698 H   0  0  0  0  0  0
  -28.4779  -17.5226   21.0289 H   0  0  0  0  0  0
  -27.3410  -23.2089   19.4630 H   0  0  0  0  0  0
  -29.0043  -23.4058   19.1448 H   0  0  0  0  0  0
  -31.0485  -20.0503   22.6857 H   0  0  0  0  0  0
  1 25  1  0  0  0
  1 30  2  0  0  0
  1 76  1  0  0  0
  2  3  1  0  0  0
  2 25  1  0  0  0
  2 82  1  0  0  0
  2 83  1  0  0  0
  3  4  1  0  0  0
  3 84  1  0  0  0
  3 85  1  0  0  0
  4  5  1  0  0  0
  4 86  1  0  0  0
  4 87  1  0  0  0
  5  6  1  0  0  0
  5 26  1  0  0  0
  5 88  1  0  0  0
  6 25  1  0  0  0
  6 89  1  0  0  0
  6 90  1  0  0  0
  7  8  2  0  0  0
  7 26  1  0  0  0
  7 29  1  0  0  0
  8  9  1  0  0  0
  8 22  1  0  0  0
  9 10  1  0  0  0
  9 27  2  0  0  0
 10 11  2  0  0  0
 10 15  1  0  0  0
 11 12  1  0  0  0
 11 91  1  0  0  0
 12 13  2  0  0  0
 12 92  1  0  0  0
 13 14  1  0  0  0
 13 31  1  0  0  0
 14 15  2  0  0  0
 14 93  1  0  0  0
 15 94  1  0  0  0
 16 17  2  0  0  0
 16 21  1  0  0  0
 16 31  1  0  0  0
 17 18  1  0  0  0
 17 95  1  0  0  0
 18 19  2  0  0  0
 18 96  1  0  0  0
 19 20  1  0  0  0
 19 24  1  0  0  0
 20 21  2  0  0  0
 20 97  1  0  0  0
 21 23  1  0  0  0
 22 28  1  0  0  0
 22 32  2  0  0  0
 26 27  1  0  0  0
 28 98  1  0  0  0
 28 99  1  0  0  0
 29100  1  0  0  0
 29101  1  0  0  0
 33 34  1  0  0  0
 33 66  1  0  0  0
 33 70  2  0  0  0
 34 36  1  0  0  0
 34 59  1  0  0  0
 34102  1  0  0  0
 35 44  2  0  0  0
 35 45  1  0  0  0
 35 68  1  0  0  0
 36 56  1  0  0  0
 36103  1  0  0  0
 37 39  1  0  0  0
 37 47  1  0  0  0
 37 66  1  0  0  0
 37104  1  0  0  0
 38 43  2  0  0  0
 38 46  1  0  0  0
 38 47  1  0  0  0
 39 64  1  0  0  0
 39 67  2  0  0  0
 40 52  1  0  0  0
 40 53  2  0  0  0
 40 58  1  0  0  0
 41105  1  0  0  0
 41106  1  0  0  0
 41107  1  0  0  0
 41 48  1  0  0  0
 42 43  1  0  0  0
 42 66  1  0  0  0
 42108  1  0  0  0
 42109  1  0  0  0
 43 44  1  0  0  0
 44110  1  0  0  0
 45 46  2  0  0  0
 45111  1  0  0  0
 46112  1  0  0  0
 47113  1  0  0  0
 47114  1  0  0  0
 48 56  1  0  0  0
 48 65  1  0  0  0
 48115  1  0  0  0
 49 50  1  0  0  0
 49 53  1  0  0  0
 49 64  1  0  0  0
 49116  1  0  0  0
 50 51  1  0  0  0
 50117  1  0  0  0
 50118  1  0  0  0
 51 52  1  0  0  0
 51119  1  0  0  0
 51120  1  0  0  0
 52121  1  0  0  0
 52122  1  0  0  0
 53 54  1  0  0  0
 54 55  2  0  0  0
 54123  1  0  0  0
 55 57  1  0  0  0
 55124  1  0  0  0
 56 69  2  0  0  0
 57 58  2  0  0  0
 57125  1  0  0  0
 58126  1  0  0  0
 59 60  1  0  0  0
 59 61  1  0  0  0
 59 62  1  0  0  0
 60127  1  0  0  0
 60128  1  0  0  0
 60129  1  0  0  0
 61130  1  0  0  0
 61131  1  0  0  0
 61132  1  0  0  0
 62133  1  0  0  0
 62134  1  0  0  0
 62135  1  0  0  0
 63 65  1  0  0  0
 63136  1  0  0  0
 63137  1  0  0  0
 63138  1  0  0  0
 64139  1  0  0  0
 65140  1  0  0  0
 68 78  1  0  0  0
 71 76  1  0  0  0
 71 79  1  0  0  0
 71 80  2  0  0  0
 72 77  1  0  0  0
 72 79  1  0  0  0
 72 81  2  0  0  0
 73 74  2  0  0  0
 73141  1  0  0  0
 73142  1  0  0  0
 74143  1  0  0  0
 74 77  1  0  0  0
 75 76  1  0  0  0
 75 77  1  0  0  0
 75144  1  0  0  0
 75145  1  0  0  0
 76146  1  0  0  0
 77 78  1  0  0  0
 78147  1  0  0  0
 78148  1  0  0  0
 79149  1  0  0  0
M  ISO  4   1 100  68 101  76 100  78 101
M  END
> <chiral flag>
0

> <version>
0

> <s_m_source_file>
/data/baiqing/PycharmProjects/Reinvent-master-3.2/result/LINK_invent/BTK/process_docking_weight1_custom_product_contain_oxygen_bond_distance_aromatic_linkinvent_7_9_3/rearranged_h_0080.sdf

> <i_m_source_file_index>
69

> <r_mmod_Potential_Energy-OPLS-2005>
3847.67846679688

> <r_mmod_Stretch_Energy-OPLS-2005>
1754.36291503906

> <r_mmod_Bend_Energy-OPLS-2005>
950.168823242188

> <r_mmod_Torsional_Energy-OPLS-2005>
184.70149230957

> <r_mmod_Improper_Torsional_Energy-OPLS-2005>
1.95530128479004

> <r_mmod_Van_der_Waal_Energy-OPLS-2005>
125.675720214844

> <r_mmod_Electrostatic_Energy-OPLS-2005>
-368.461334228516

> <r_mmod_Solvation_Energy-OPLS-2005>
-240.676315307617

> <b_mmod_Minimization_Converged-OPLS-2005>
0

> <r_mmod_RMS_Derivative-OPLS-2005>
0.269505172967911

$$$$
69
                    3D
 Structure written by MMmdl.
148156  0  0  1  0            999 V2000
  -30.6140  -14.6772   20.4855 C   0  0  0  0  0  0
  -30.4401  -12.4130   19.4594 C   0  0  0  0  0  0
  -29.5100  -12.5069   18.2288 C   0  0  0  0  0  0
  -28.0339  -12.3392   18.6413 C   0  0  0  0  0  0
  -27.6514  -13.2194   19.8607 C   0  0  2  0  0  0
  -28.6971  -13.0968   20.9922 C   0  0  0  0  0  0
  -25.2556  -13.8174   20.5688 C   0  0  0  0  0  0
  -24.1828  -13.0437   20.9200 C   0  0  0  0  0  0
  -24.6398  -11.6909   20.8745 C   0  0  0  0  0  0
  -23.9067  -10.4292   21.0407 C   0  0  0  0  0  0
  -24.3618   -9.4207   21.9185 C   0  0  0  0  0  0
  -23.6293   -8.2242   22.0753 C   0  0  0  0  0  0
  -22.4275   -8.0281   21.3543 C   0  0  0  0  0  0
  -21.9911   -9.0255   20.4646 C   0  0  0  0  0  0
  -22.7238  -10.2135   20.3056 C   0  0  0  0  0  0
  -21.6853   -6.0736   22.5279 C   0  0  0  0  0  0
  -21.4015   -6.5640   23.8212 C   0  0  0  0  0  0
  -21.3659   -5.6793   24.9174 C   0  0  0  0  0  0
  -21.6044   -4.3056   24.7225 C   0  0  0  0  0  0
  -21.8820   -3.8147   23.4346 C   0  0  0  0  0  0
  -21.9193   -4.6964   22.3402 C   0  0  0  0  0  0
  -22.7850  -13.5229   21.1860 C   0  0  0  0  0  0
  -22.1661   -4.2149   21.0980 F   0  0  0  0  0  0
  -21.5628   -3.4540   25.7738 F   0  0  0  0  0  0
  -30.0087  -13.4457   20.4247 N   0  0  0  0  0  0
  -26.2983  -12.9358   20.3311 N   0  0  0  0  0  0
  -25.9328  -11.6511   20.5760 N   0  0  0  0  0  0
  -22.0492  -12.8221   22.0415 N   0  0  0  0  0  0
  -25.4263  -15.1895   20.4087 N   0  0  0  0  0  0
  -31.7846  -14.8211   20.1205 O   0  0  0  0  0  0
  -21.6639   -6.8878   21.4240 O   0  0  0  0  0  0
  -22.3536  -14.5536   20.6706 O   0  0  0  0  0  0
  -24.6291  -31.8584   23.2017 C   0  0  0  0  0  0
  -25.9128  -32.4771   23.8351 C   0  0  1  0  0  0
  -27.2249  -27.2959   20.1005 C   0  0  0  0  0  0
  -25.5934  -33.8572   24.2275 N   0  0  0  0  0  0
  -23.4231  -30.4843   21.5454 C   0  0  2  0  0  0
  -24.8681  -28.9429   20.1063 C   0  0  0  0  0  0
  -22.7492  -29.4619   22.4922 C   0  0  0  0  0  0
  -18.0290  -28.1388   22.8482 C   0  0  0  0  0  0
  -24.1490  -36.7290   23.2640 C   0  0  0  0  0  0
  -25.9684  -30.7820   21.3767 C   0  0  0  0  0  0
  -26.0407  -29.4105   20.7111 C   0  0  0  0  0  0
  -27.2178  -28.5988   20.7007 C   0  0  0  0  0  0
  -26.0145  -26.8879   19.4864 C   0  0  0  0  0  0
  -24.8585  -27.6874   19.4861 C   0  0  0  0  0  0
  -23.6378  -29.8251   20.1590 C   0  0  0  0  0  0
  -25.4115  -36.3078   24.0329 C   0  0  1  0  0  0
  -20.5894  -28.3694   23.1275 C   0  0  2  0  0  0
  -20.6779  -26.9415   22.5406 C   0  0  0  0  0  0
  -19.5753  -26.6384   21.5210 C   0  0  0  0  0  0
  -18.1933  -26.7928   22.1625 C   0  0  0  0  0  0
  -19.1544  -28.8857   23.2873 C   0  0  0  0  0  0
  -18.9466  -30.1458   23.8890 C   0  0  0  0  0  0
  -17.6466  -30.6587   24.0562 C   0  0  0  0  0  0
  -25.9054  -34.9448   23.5101 C   0  0  0  0  0  0
  -16.5356  -29.9085   23.6333 C   0  0  0  0  0  0
  -16.7277  -28.6505   23.0349 C   0  0  0  0  0  0
  -26.4500  -31.6585   25.0730 C   0  0  0  0  0  0
  -25.3727  -31.3731   26.1454 C   0  0  0  0  0  0
  -27.0346  -30.3005   24.6202 C   0  0  0  0  0  0
  -27.6056  -32.4325   25.7502 C   0  0  0  0  0  0
  -27.5576  -37.1805   24.8468 C   0  0  0  0  0  0
  -21.4201  -29.3046   22.3668 N   0  0  0  0  0  0
  -26.4293  -37.3772   23.9404 N   0  0  0  0  0  0
  -24.6927  -31.0579   22.0978 N   0  0  0  0  0  0
  -23.4210  -28.8150   23.2998 O   0  0  0  0  0  0
  -28.3291  -26.4201   20.2113 O   0  0  0  0  0  0
  -26.5622  -34.8916   22.4668 O   0  0  0  0  0  0
  -23.5449  -32.1392   23.7332 O   0  0  0  0  0  0
  -28.8674  -19.4760   20.9512 C   0  0  0  0  0  0
  -31.1214  -19.3241   20.1564 C   0  0  0  0  0  0
  -28.8200  -18.0437   21.0190 C   0  0  0  0  0  0
  -31.0760  -17.8966   20.2206 C   0  0  0  0  0  0
  -30.0316  -20.1709   20.5256 C   0  0  0  0  0  0
  -29.9220  -17.2042   20.6722 C   0  0  0  0  0  0
  -30.2288  -21.7131   20.6059 C   0  0  0  0  0  0
  -29.1859  -23.9637   20.5704 C   0  0  0  0  0  0
  -28.3837  -25.0626   19.6804 C   0  0  0  0  0  0
  -29.1897  -22.5847   20.3184 N   0  5  0  0  0  0
  -29.7969  -15.7403   20.8008 N   0  0  0  0  0  0
  -31.3846  -22.0618   20.8674 O   0  0  0  0  0  0
  -29.7846  -24.4636   21.5343 O   0  0  0  0  0  0
  -27.8747  -24.7229   18.6055 O   0  0  0  0  0  0
  -31.4804  -12.5414   19.1557 H   0  0  0  0  0  0
  -30.3818  -11.4227   19.9133 H   0  0  0  0  0  0
  -29.7800  -11.7480   17.4932 H   0  0  0  0  0  0
  -29.6461  -13.4715   17.7372 H   0  0  0  0  0  0
  -27.8782  -11.2873   18.8835 H   0  0  0  0  0  0
  -27.3778  -12.5564   17.7975 H   0  0  0  0  0  0
  -27.6625  -14.2505   19.5068 H   0  0  0  0  0  0
  -28.7170  -12.0808   21.3893 H   0  0  0  0  0  0
  -28.4388  -13.7410   21.8342 H   0  0  0  0  0  0
  -25.2763   -9.5684   22.4759 H   0  0  0  0  0  0
  -24.0003   -7.4634   22.7473 H   0  0  0  0  0  0
  -21.0842   -8.8775   19.8952 H   0  0  0  0  0  0
  -22.3698  -10.9675   19.6167 H   0  0  0  0  0  0
  -21.2007   -7.6148   23.9716 H   0  0  0  0  0  0
  -21.1480   -6.0523   25.9077 H   0  0  0  0  0  0
  -22.0599   -2.7609   23.2846 H   0  0  0  0  0  0
  -22.4110  -11.9885   22.4806 H   0  0  0  0  0  0
  -21.1111  -13.1247   22.2621 H   0  0  0  0  0  0
  -24.6548  -15.8404   20.5084 H   0  0  0  0  0  0
  -26.2642  -15.6251   20.0453 H   0  0  0  0  0  0
  -26.7195  -32.5428   23.1095 H   0  0  0  0  0  0
  -25.0078  -33.9717   25.0417 H   0  0  0  0  0  0
  -22.7177  -31.3059   21.4044 H   0  0  0  0  0  0
  -23.3746  -35.9630   23.3318 H   0  0  0  0  0  0
  -24.3575  -36.8895   22.2051 H   0  0  0  0  0  0
  -23.7254  -37.6501   23.6654 H   0  0  0  0  0  0
  -26.1061  -31.5482   20.6124 H   0  0  0  0  0  0
  -26.8465  -30.8257   22.0094 H   0  0  0  0  0  0
  -28.1129  -28.9504   21.1942 H   0  0  0  0  0  0
  -25.9027  -25.9202   19.0263 H   0  0  0  0  0  0
  -23.9563  -27.3171   19.0190 H   0  0  0  0  0  0
  -23.7588  -30.6050   19.4063 H   0  0  0  0  0  0
  -22.7563  -29.2585   19.8536 H   0  0  0  0  0  0
  -25.1298  -36.1930   25.0823 H   0  0  0  0  0  0
  -20.9986  -28.3269   24.1395 H   0  0  0  0  0  0
  -20.5681  -26.2304   23.3608 H   0  0  0  0  0  0
  -21.6647  -26.7441   22.1198 H   0  0  0  0  0  0
  -19.6915  -25.6295   21.1241 H   0  0  0  0  0  0
  -19.6688  -27.3192   20.6739 H   0  0  0  0  0  0
  -17.4201  -26.6672   21.4030 H   0  0  0  0  0  0
  -18.0336  -26.0073   22.9025 H   0  0  0  0  0  0
  -19.7943  -30.7276   24.2255 H   0  0  0  0  0  0
  -17.5021  -31.6267   24.5165 H   0  0  0  0  0  0
  -15.5357  -30.2986   23.7662 H   0  0  0  0  0  0
  -15.8677  -28.0825   22.7064 H   0  0  0  0  0  0
  -24.5904  -30.7077   25.7782 H   0  0  0  0  0  0
  -24.8917  -32.2899   26.4871 H   0  0  0  0  0  0
  -25.8047  -30.8913   27.0235 H   0  0  0  0  0  0
  -26.2928  -29.6753   24.1219 H   0  0  0  0  0  0
  -27.4026  -29.7265   25.4717 H   0  0  0  0  0  0
  -27.8806  -30.4282   23.9445 H   0  0  0  0  0  0
  -27.2663  -33.3629   26.2067 H   0  0  0  0  0  0
  -28.3871  -32.6880   25.0334 H   0  0  0  0  0  0
  -28.0717  -31.8458   26.5428 H   0  0  0  0  0  0
  -28.2607  -38.0088   24.7491 H   0  0  0  0  0  0
  -28.1059  -36.2618   24.6327 H   0  0  0  0  0  0
  -27.2292  -37.1494   25.8872 H   0  0  0  0  0  0
  -20.9380  -29.8780   21.6888 H   0  0  0  0  0  0
  -26.0174  -38.2851   24.1390 H   0  0  0  0  0  0
  -28.0076  -20.0493   21.2690 H   0  0  0  0  0  0
  -32.0464  -19.7863   19.8408 H   0  0  0  0  0  0
  -27.9051  -17.5875   21.3709 H   0  0  0  0  0  0
  -31.9601  -17.3457   19.9335 H   0  0  0  0  0  0
  -28.8861  -15.4321   21.1043 H   0  0  0  0  0  0
  1 25  1  0  0  0
  1 30  2  0  0  0
  1 81  1  0  0  0
  2  3  1  0  0  0
  2 25  1  0  0  0
  2 85  1  0  0  0
  2 86  1  0  0  0
  3  4  1  0  0  0
  3 87  1  0  0  0
  3 88  1  0  0  0
  4  5  1  0  0  0
  4 89  1  0  0  0
  4 90  1  0  0  0
  5  6  1  0  0  0
  5 26  1  0  0  0
  5 91  1  0  0  0
  6 25  1  0  0  0
  6 92  1  0  0  0
  6 93  1  0  0  0
  7  8  2  0  0  0
  7 26  1  0  0  0
  7 29  1  0  0  0
  8  9  1  0  0  0
  8 22  1  0  0  0
  9 10  1  0  0  0
  9 27  2  0  0  0
 10 11  2  0  0  0
 10 15  1  0  0  0
 11 12  1  0  0  0
 11 94  1  0  0  0
 12 13  2  0  0  0
 12 95  1  0  0  0
 13 14  1  0  0  0
 13 31  1  0  0  0
 14 15  2  0  0  0
 14 96  1  0  0  0
 15 97  1  0  0  0
 16 17  2  0  0  0
 16 21  1  0  0  0
 16 31  1  0  0  0
 17 18  1  0  0  0
 17 98  1  0  0  0
 18 19  2  0  0  0
 18 99  1  0  0  0
 19 20  1  0  0  0
 19 24  1  0  0  0
 20 21  2  0  0  0
 20100  1  0  0  0
 21 23  1  0  0  0
 22 28  1  0  0  0
 22 32  2  0  0  0
 26 27  1  0  0  0
 28101  1  0  0  0
 28102  1  0  0  0
 29103  1  0  0  0
 29104  1  0  0  0
 33 34  1  0  0  0
 33 66  1  0  0  0
 33 70  2  0  0  0
 34 36  1  0  0  0
 34 59  1  0  0  0
 34105  1  0  0  0
 35 44  2  0  0  0
 35 45  1  0  0  0
 35 68  1  0  0  0
 36 56  1  0  0  0
 36106  1  0  0  0
 37 39  1  0  0  0
 37 47  1  0  0  0
 37 66  1  0  0  0
 37107  1  0  0  0
 38 43  2  0  0  0
 38 46  1  0  0  0
 38 47  1  0  0  0
 39 64  1  0  0  0
 39 67  2  0  0  0
 40 52  1  0  0  0
 40 53  2  0  0  0
 40 58  1  0  0  0
 41108  1  0  0  0
 41109  1  0  0  0
 41110  1  0  0  0
 41 48  1  0  0  0
 42 43  1  0  0  0
 42 66  1  0  0  0
 42111  1  0  0  0
 42112  1  0  0  0
 43 44  1  0  0  0
 44113  1  0  0  0
 45 46  2  0  0  0
 45114  1  0  0  0
 46115  1  0  0  0
 47116  1  0  0  0
 47117  1  0  0  0
 48 56  1  0  0  0
 48 65  1  0  0  0
 48118  1  0  0  0
 49 50  1  0  0  0
 49 53  1  0  0  0
 49 64  1  0  0  0
 49119  1  0  0  0
 50 51  1  0  0  0
 50120  1  0  0  0
 50121  1  0  0  0
 51 52  1  0  0  0
 51122  1  0  0  0
 51123  1  0  0  0
 52124  1  0  0  0
 52125  1  0  0  0
 53 54  1  0  0  0
 54 55  2  0  0  0
 54126  1  0  0  0
 55 57  1  0  0  0
 55127  1  0  0  0
 56 69  2  0  0  0
 57 58  2  0  0  0
 57128  1  0  0  0
 58129  1  0  0  0
 59 60  1  0  0  0
 59 61  1  0  0  0
 59 62  1  0  0  0
 60130  1  0  0  0
 60131  1  0  0  0
 60132  1  0  0  0
 61133  1  0  0  0
 61134  1  0  0  0
 61135  1  0  0  0
 62136  1  0  0  0
 62137  1  0  0  0
 62138  1  0  0  0
 63 65  1  0  0  0
 63139  1  0  0  0
 63140  1  0  0  0
 63141  1  0  0  0
 64142  1  0  0  0
 65143  1  0  0  0
 68 79  1  0  0  0
 71 73  2  0  0  0
 71 75  1  0  0  0
 71144  1  0  0  0
 72 74  1  0  0  0
 72 75  2  0  0  0
 72145  1  0  0  0
 73 76  1  0  0  0
 73146  1  0  0  0
 74 76  2  0  0  0
 74147  1  0  0  0
 75 77  1  0  0  0
 76 81  1  0  0  0
 77 80  1  0  0  0
 77 82  2  0  0  0
 78 79  1  0  0  0
 78 80  1  0  0  0
 78 83  2  0  0  0
 79 84  2  0  0  0
 81148  1  0  0  0
M  CHG  1  80  -1
M  ISO  4   1 100  68 101  79 101  81 100
M  END
> <chiral flag>
0

> <version>
0

> <s_m_source_file>
/data/baiqing/PycharmProjects/Reinvent-master-3.2/result/LINK_invent/BTK/process_docking_weight1_custom_product_contain_oxygen_bond_distance_aromatic_linkinvent_7_9_3/rearranged_h_0080.sdf

> <i_m_source_file_index>
70

> <r_mmod_Potential_Energy-OPLS-2005>
-9.06050872802734

> <r_mmod_Stretch_Energy-OPLS-2005>
105.302368164062

> <r_mmod_Bend_Energy-OPLS-2005>
158.746185302734

> <r_mmod_Torsional_Energy-OPLS-2005>
241.00700378418

> <r_mmod_Improper_Torsional_Energy-OPLS-2005>
5.69881248474121

> <r_mmod_Van_der_Waal_Energy-OPLS-2005>
153.025390625

> <r_mmod_Electrostatic_Energy-OPLS-2005>
-220.018432617188

> <r_mmod_Solvation_Energy-OPLS-2005>
-515.527099609375

> <b_mmod_Minimization_Converged-OPLS-2005>
0

> <r_mmod_RMS_Derivative-OPLS-2005>
0.235645517706871

$$$$
70
                    3D
 Structure written by MMmdl.
154162  0  0  1  0            999 V2000
  -30.6108  -14.6619   20.5169 C   0  0  0  0  0  0
  -30.4548  -12.4222   19.4355 C   0  0  0  0  0  0
  -29.4966  -12.4806   18.2228 C   0  0  0  0  0  0
  -28.0277  -12.3130   18.6555 C   0  0  0  0  0  0
  -27.6522  -13.2084   19.8629 C   0  0  2  0  0  0
  -28.7090  -13.0648   20.9850 C   0  0  0  0  0  0
  -25.2585  -13.8156   20.5759 C   0  0  0  0  0  0
  -24.1840  -13.0429   20.9219 C   0  0  0  0  0  0
  -24.6373  -11.6892   20.8763 C   0  0  0  0  0  0
  -23.9031  -10.4290   21.0391 C   0  0  0  0  0  0
  -24.3584   -9.4226   21.9170 C   0  0  0  0  0  0
  -23.6279   -8.2252   22.0741 C   0  0  0  0  0  0
  -22.4279   -8.0274   21.3530 C   0  0  0  0  0  0
  -21.9889   -9.0241   20.4651 C   0  0  0  0  0  0
  -22.7194  -10.2133   20.3059 C   0  0  0  0  0  0
  -21.6863   -6.0745   22.5285 C   0  0  0  0  0  0
  -21.4000   -6.5650   23.8208 C   0  0  0  0  0  0
  -21.3634   -5.6799   24.9163 C   0  0  0  0  0  0
  -21.6054   -4.3066   24.7210 C   0  0  0  0  0  0
  -21.8839   -3.8167   23.4330 C   0  0  0  0  0  0
  -21.9203   -4.6980   22.3392 C   0  0  0  0  0  0
  -22.7866  -13.5214   21.1849 C   0  0  0  0  0  0
  -22.1692   -4.2161   21.0966 F   0  0  0  0  0  0
  -21.5608   -3.4557   25.7719 F   0  0  0  0  0  0
  -30.0132  -13.4343   20.4133 N   0  0  0  0  0  0
  -26.2988  -12.9312   20.3377 N   0  0  0  0  0  0
  -25.9315  -11.6485   20.5851 N   0  0  0  0  0  0
  -22.0511  -12.8219   22.0411 N   0  0  0  0  0  0
  -25.4264  -15.1876   20.4144 N   0  0  0  0  0  0
  -31.7897  -14.8405   20.1875 O   0  0  0  0  0  0
  -21.6659   -6.8878   21.4240 O   0  0  0  0  0  0
  -22.3555  -14.5516   20.6695 O   0  0  0  0  0  0
  -24.6162  -31.8627   23.2059 C   0  0  0  0  0  0
  -25.9030  -32.4812   23.8374 C   0  0  1  0  0  0
  -27.2382  -27.3719   20.1132 C   0  0  0  0  0  0
  -25.5849  -33.8611   24.2320 N   0  0  0  0  0  0
  -23.4072  -30.4831   21.5501 C   0  0  2  0  0  0
  -24.8628  -28.9520   20.1131 C   0  0  0  0  0  0
  -22.7442  -29.4553   22.4966 C   0  0  0  0  0  0
  -18.0341  -28.1423   22.8424 C   0  0  0  0  0  0
  -24.1475  -36.7287   23.2648 C   0  0  0  0  0  0
  -25.9458  -30.8058   21.3794 C   0  0  0  0  0  0
  -26.0244  -29.4366   20.7292 C   0  0  0  0  0  0
  -27.2100  -28.6485   20.7421 C   0  0  0  0  0  0
  -26.0687  -26.9547   19.4294 C   0  0  0  0  0  0
  -24.8830  -27.7084   19.4613 C   0  0  0  0  0  0
  -23.6227  -29.8195   20.1658 C   0  0  0  0  0  0
  -25.4091  -36.3119   24.0351 C   0  0  1  0  0  0
  -20.5958  -28.3465   23.1204 C   0  0  2  0  0  0
  -20.6662  -26.9233   22.5211 C   0  0  0  0  0  0
  -19.5574  -26.6362   21.5057 C   0  0  0  0  0  0
  -18.1790  -26.8023   22.1485 C   0  0  0  0  0  0
  -19.1669  -28.8762   23.2839 C   0  0  0  0  0  0
  -18.9776  -30.1362   23.8933 C   0  0  0  0  0  0
  -17.6854  -30.6696   24.0599 C   0  0  0  0  0  0
  -25.9026  -34.9477   23.5142 C   0  0  0  0  0  0
  -16.5666  -29.9290   23.6350 C   0  0  0  0  0  0
  -16.7380  -28.6681   23.0349 C   0  0  0  0  0  0
  -26.4478  -31.6590   25.0709 C   0  0  0  0  0  0
  -25.3717  -31.3688   26.1443 C   0  0  0  0  0  0
  -27.0338  -30.3016   24.6109 C   0  0  0  0  0  0
  -27.6049  -32.4322   25.7465 C   0  0  0  0  0  0
  -27.5578  -37.1789   24.8475 C   0  0  0  0  0  0
  -21.4191  -29.2795   22.3536 N   0  0  0  0  0  0
  -26.4305  -37.3778   23.9404 N   0  0  0  0  0  0
  -24.6746  -31.0626   22.1041 N   0  0  0  0  0  0
  -23.4188  -28.8216   23.3147 O   0  0  0  0  0  0
  -28.3710  -26.5498   20.1807 O   0  0  0  0  0  0
  -26.5615  -34.8903   22.4719 O   0  0  0  0  0  0
  -23.5334  -32.1439   23.7381 O   0  0  0  0  0  0
  -28.7379  -19.2256   19.9261 C   0  0  0  0  0  0
  -30.6869  -19.3809   21.3345 C   0  0  0  0  0  0
  -28.8435  -17.8100   19.9461 C   0  0  0  0  0  0
  -30.7891  -17.9547   21.3549 C   0  0  0  0  0  0
  -29.6456  -20.0614   20.6397 C   0  0  0  0  0  0
  -29.8513  -17.1317   20.6783 C   0  0  0  0  0  0
  -26.2786  -21.8127   20.6794 C   0  0  0  0  0  0
  -29.4461  -21.5667   20.7512 C   0  0  0  0  0  0
  -27.1982  -22.6567   21.1598 C   0  0  0  0  0  0
  -28.6233  -22.6824   20.8030 C   0  0  0  0  0  0
  -29.1413  -24.0833   20.5149 C   0  0  0  0  0  0
  -28.1926  -25.1344   19.8220 C   0  0  0  0  0  0
  -29.7531  -15.6859   20.8202 N   0  0  0  0  0  0
  -30.2914  -24.4223   20.8058 O   0  0  0  0  0  0
  -31.4789  -12.6071   19.1038 H   0  0  0  0  0  0
  -30.4584  -11.4347   19.8938 H   0  0  0  0  0  0
  -29.7526  -11.6990   17.5047 H   0  0  0  0  0  0
  -29.6114  -13.4304   17.7010 H   0  0  0  0  0  0
  -27.8854  -11.2666   18.9300 H   0  0  0  0  0  0
  -27.3557  -12.4960   17.8186 H   0  0  0  0  0  0
  -27.6737  -14.2331   19.4944 H   0  0  0  0  0  0
  -28.7428  -12.0354   21.3430 H   0  0  0  0  0  0
  -28.4584  -13.6781   21.8551 H   0  0  0  0  0  0
  -25.2704   -9.5764   22.4765 H   0  0  0  0  0  0
  -24.0021   -7.4667   22.7467 H   0  0  0  0  0  0
  -21.0814   -8.8743   19.8964 H   0  0  0  0  0  0
  -22.3595  -10.9677   19.6204 H   0  0  0  0  0  0
  -21.2007   -7.6162   23.9702 H   0  0  0  0  0  0
  -21.1412   -6.0528   25.9048 H   0  0  0  0  0  0
  -22.0636   -2.7631   23.2833 H   0  0  0  0  0  0
  -22.4093  -11.9844   22.4758 H   0  0  0  0  0  0
  -21.1144  -13.1278   22.2649 H   0  0  0  0  0  0
  -24.6548  -15.8379   20.5319 H   0  0  0  0  0  0
  -26.2592  -15.6242   20.0400 H   0  0  0  0  0  0
  -26.7091  -32.5517   23.1125 H   0  0  0  0  0  0
  -24.9991  -33.9805   25.0465 H   0  0  0  0  0  0
  -22.6988  -31.3041   21.4029 H   0  0  0  0  0  0
  -23.3760  -35.9609   23.3340 H   0  0  0  0  0  0
  -24.3588  -36.8865   22.2071 H   0  0  0  0  0  0
  -23.7207  -37.6476   23.6650 H   0  0  0  0  0  0
  -26.0716  -31.5648   20.6044 H   0  0  0  0  0  0
  -26.8311  -30.8606   22.0026 H   0  0  0  0  0  0
  -28.0871  -29.0041   21.2688 H   0  0  0  0  0  0
  -26.0351  -26.0398   18.8502 H   0  0  0  0  0  0
  -23.9992  -27.3297   18.9613 H   0  0  0  0  0  0
  -23.7225  -30.5916   19.4017 H   0  0  0  0  0  0
  -22.7487  -29.2355   19.8774 H   0  0  0  0  0  0
  -25.1288  -36.2010   25.0855 H   0  0  0  0  0  0
  -21.0000  -28.2942   24.1339 H   0  0  0  0  0  0
  -20.5555  -26.2075   23.3426 H   0  0  0  0  0  0
  -21.6392  -26.7220   22.0703 H   0  0  0  0  0  0
  -19.6657  -25.6245   21.1072 H   0  0  0  0  0  0
  -19.6578  -27.3161   20.6574 H   0  0  0  0  0  0
  -17.4108  -26.7119   21.3791 H   0  0  0  0  0  0
  -17.9939  -26.0172   22.8825 H   0  0  0  0  0  0
  -19.8397  -30.6972   24.2352 H   0  0  0  0  0  0
  -17.5611  -31.6407   24.5205 H   0  0  0  0  0  0
  -15.5726  -30.3366   23.7685 H   0  0  0  0  0  0
  -15.8664  -28.1153   22.7044 H   0  0  0  0  0  0
  -24.5883  -30.7063   25.7764 H   0  0  0  0  0  0
  -24.8923  -32.2847   26.4904 H   0  0  0  0  0  0
  -25.8057  -30.8835   27.0189 H   0  0  0  0  0  0
  -26.2923  -29.6726   24.1163 H   0  0  0  0  0  0
  -27.4129  -29.7304   25.4603 H   0  0  0  0  0  0
  -27.8751  -30.4350   23.9289 H   0  0  0  0  0  0
  -27.2665  -33.3599   26.2060 H   0  0  0  0  0  0
  -28.3820  -32.6878   25.0268 H   0  0  0  0  0  0
  -28.0726  -31.8408   26.5340 H   0  0  0  0  0  0
  -28.2626  -38.0057   24.7492 H   0  0  0  0  0  0
  -28.1034  -36.2586   24.6351 H   0  0  0  0  0  0
  -27.2280  -37.1489   25.8873 H   0  0  0  0  0  0
  -20.9333  -29.8126   21.6440 H   0  0  0  0  0  0
  -26.0210  -38.2870   24.1367 H   0  0  0  0  0  0
  -27.9309  -19.6508   19.3502 H   0  0  0  0  0  0
  -31.4100  -19.9545   21.9061 H   0  0  0  0  0  0
  -28.1056  -17.2376   19.4033 H   0  0  0  0  0  0
  -31.5552  -17.5000   21.9659 H   0  0  0  0  0  0
  -25.2542  -21.8873   21.0205 H   0  0  0  0  0  0
  -26.5005  -21.0442   19.9532 H   0  0  0  0  0  0
  -28.7560  -21.1519   21.4613 H   0  0  0  0  0  0
  -26.8626  -23.3919   21.8788 H   0  0  0  0  0  0
  -27.1673  -24.8449   20.0395 H   0  0  0  0  0  0
  -28.3446  -25.0478   18.7444 H   0  0  0  0  0  0
  -28.8161  -15.3507   20.9613 H   0  0  0  0  0  0
  1 25  1  0  0  0
  1 30  2  0  0  0
  1 83  1  0  0  0
  2  3  1  0  0  0
  2 25  1  0  0  0
  2 85  1  0  0  0
  2 86  1  0  0  0
  3  4  1  0  0  0
  3 87  1  0  0  0
  3 88  1  0  0  0
  4  5  1  0  0  0
  4 89  1  0  0  0
  4 90  1  0  0  0
  5  6  1  0  0  0
  5 26  1  0  0  0
  5 91  1  0  0  0
  6 25  1  0  0  0
  6 92  1  0  0  0
  6 93  1  0  0  0
  7  8  2  0  0  0
  7 26  1  0  0  0
  7 29  1  0  0  0
  8  9  1  0  0  0
  8 22  1  0  0  0
  9 10  1  0  0  0
  9 27  2  0  0  0
 10 11  2  0  0  0
 10 15  1  0  0  0
 11 12  1  0  0  0
 11 94  1  0  0  0
 12 13  2  0  0  0
 12 95  1  0  0  0
 13 14  1  0  0  0
 13 31  1  0  0  0
 14 15  2  0  0  0
 14 96  1  0  0  0
 15 97  1  0  0  0
 16 17  2  0  0  0
 16 21  1  0  0  0
 16 31  1  0  0  0
 17 18  1  0  0  0
 17 98  1  0  0  0
 18 19  2  0  0  0
 18 99  1  0  0  0
 19 20  1  0  0  0
 19 24  1  0  0  0
 20 21  2  0  0  0
 20100  1  0  0  0
 21 23  1  0  0  0
 22 28  1  0  0  0
 22 32  2  0  0  0
 26 27  1  0  0  0
 28101  1  0  0  0
 28102  1  0  0  0
 29103  1  0  0  0
 29104  1  0  0  0
 33 34  1  0  0  0
 33 66  1  0  0  0
 33 70  2  0  0  0
 34 36  1  0  0  0
 34 59  1  0  0  0
 34105  1  0  0  0
 35 44  2  0  0  0
 35 45  1  0  0  0
 35 68  1  0  0  0
 36 56  1  0  0  0
 36106  1  0  0  0
 37 39  1  0  0  0
 37 47  1  0  0  0
 37 66  1  0  0  0
 37107  1  0  0  0
 38 43  2  0  0  0
 38 46  1  0  0  0
 38 47  1  0  0  0
 39 64  1  0  0  0
 39 67  2  0  0  0
 40 52  1  0  0  0
 40 53  2  0  0  0
 40 58  1  0  0  0
 41108  1  0  0  0
 41109  1  0  0  0
 41110  1  0  0  0
 41 48  1  0  0  0
 42 43  1  0  0  0
 42 66  1  0  0  0
 42111  1  0  0  0
 42112  1  0  0  0
 43 44  1  0  0  0
 44113  1  0  0  0
 45 46  2  0  0  0
 45114  1  0  0  0
 46115  1  0  0  0
 47116  1  0  0  0
 47117  1  0  0  0
 48 56  1  0  0  0
 48 65  1  0  0  0
 48118  1  0  0  0
 49 50  1  0  0  0
 49 53  1  0  0  0
 49 64  1  0  0  0
 49119  1  0  0  0
 50 51  1  0  0  0
 50120  1  0  0  0
 50121  1  0  0  0
 51 52  1  0  0  0
 51122  1  0  0  0
 51123  1  0  0  0
 52124  1  0  0  0
 52125  1  0  0  0
 53 54  1  0  0  0
 54 55  2  0  0  0
 54126  1  0  0  0
 55 57  1  0  0  0
 55127  1  0  0  0
 56 69  2  0  0  0
 57 58  2  0  0  0
 57128  1  0  0  0
 58129  1  0  0  0
 59 60  1  0  0  0
 59 61  1  0  0  0
 59 62  1  0  0  0
 60130  1  0  0  0
 60131  1  0  0  0
 60132  1  0  0  0
 61133  1  0  0  0
 61134  1  0  0  0
 61135  1  0  0  0
 62136  1  0  0  0
 62137  1  0  0  0
 62138  1  0  0  0
 63 65  1  0  0  0
 63139  1  0  0  0
 63140  1  0  0  0
 63141  1  0  0  0
 64142  1  0  0  0
 65143  1  0  0  0
 68 82  1  0  0  0
 71 73  2  0  0  0
 71 75  1  0  0  0
 71144  1  0  0  0
 72 74  1  0  0  0
 72 75  2  0  0  0
 72145  1  0  0  0
 73 76  1  0  0  0
 73146  1  0  0  0
 74 76  2  0  0  0
 74147  1  0  0  0
 75 78  1  0  0  0
 76 83  1  0  0  0
 77 79  2  0  0  0
 77148  1  0  0  0
 77149  1  0  0  0
 78 80  2  0  0  0
 78150  1  0  0  0
 79 80  1  0  0  0
 79151  1  0  0  0
 80 81  1  0  0  0
 81 82  1  0  0  0
 81 84  2  0  0  0
 82152  1  0  0  0
 82153  1  0  0  0
 83154  1  0  0  0
M  ISO  4   1 100  68 101  82 101  83 100
M  END
> <chiral flag>
0

> <version>
0

> <s_m_source_file>
/data/baiqing/PycharmProjects/Reinvent-master-3.2/result/LINK_invent/BTK/process_docking_weight1_custom_product_contain_oxygen_bond_distance_aromatic_linkinvent_7_9_3/rearranged_h_0080.sdf

> <i_m_source_file_index>
71

> <r_mmod_Potential_Energy-OPLS-2005>
383.682586669922

> <r_mmod_Stretch_Energy-OPLS-2005>
73.5567855834961

> <r_mmod_Bend_Energy-OPLS-2005>
323.014953613281

> <r_mmod_Torsional_Energy-OPLS-2005>
297.166717529297

> <r_mmod_Improper_Torsional_Energy-OPLS-2005>
22.3273162841797

> <r_mmod_Van_der_Waal_Energy-OPLS-2005>
162.775024414062

> <r_mmod_Electrostatic_Energy-OPLS-2005>
-312.365997314453

> <r_mmod_Solvation_Energy-OPLS-2005>
-231.343399047852

> <b_mmod_Minimization_Converged-OPLS-2005>
0

> <r_mmod_RMS_Derivative-OPLS-2005>
9.88962268829346

$$$$
71
                    3D
 Structure written by MMmdl.
156164  0  0  1  0            999 V2000
  -30.6164  -14.7497   20.4443 C   0  0  0  0  0  0
  -30.4308  -12.4515   19.4894 C   0  0  0  0  0  0
  -29.5160  -12.5072   18.2462 C   0  0  0  0  0  0
  -28.0402  -12.3358   18.6528 C   0  0  0  0  0  0
  -27.6438  -13.2361   19.8539 C   0  0  2  0  0  0
  -28.6856  -13.1746   20.9936 C   0  0  0  0  0  0
  -25.2514  -13.8213   20.5695 C   0  0  0  0  0  0
  -24.1806  -13.0451   20.9200 C   0  0  0  0  0  0
  -24.6400  -11.6931   20.8740 C   0  0  0  0  0  0
  -23.9079  -10.4302   21.0396 C   0  0  0  0  0  0
  -24.3629   -9.4217   21.9172 C   0  0  0  0  0  0
  -23.6305   -8.2253   22.0744 C   0  0  0  0  0  0
  -22.4287   -8.0285   21.3539 C   0  0  0  0  0  0
  -21.9923   -9.0257   20.4641 C   0  0  0  0  0  0
  -22.7250  -10.2137   20.3047 C   0  0  0  0  0  0
  -21.6857   -6.0737   22.5280 C   0  0  0  0  0  0
  -21.4017   -6.5641   23.8212 C   0  0  0  0  0  0
  -21.3662   -5.6793   24.9174 C   0  0  0  0  0  0
  -21.6044   -4.3054   24.7225 C   0  0  0  0  0  0
  -21.8819   -3.8146   23.4347 C   0  0  0  0  0  0
  -21.9193   -4.6963   22.3403 C   0  0  0  0  0  0
  -22.7824  -13.5224   21.1863 C   0  0  0  0  0  0
  -22.1660   -4.2150   21.0979 F   0  0  0  0  0  0
  -21.5631   -3.4534   25.7736 F   0  0  0  0  0  0
  -29.9921  -13.5202   20.4197 N   0  0  0  0  0  0
  -26.2947  -12.9427   20.3288 N   0  0  0  0  0  0
  -25.9333  -11.6565   20.5755 N   0  0  0  0  0  0
  -22.0474  -12.8214   22.0424 N   0  0  0  0  0  0
  -25.4212  -15.1936   20.4126 N   0  0  0  0  0  0
  -31.7982  -14.8316   20.0960 O   0  0  0  0  0  0
  -21.6648   -6.8880   21.4241 O   0  0  0  0  0  0
  -22.3504  -14.5525   20.6703 O   0  0  0  0  0  0
  -24.6324  -31.8553   23.1998 C   0  0  0  0  0  0
  -25.9152  -32.4752   23.8340 C   0  0  1  0  0  0
  -27.2149  -27.2451   20.1234 C   0  0  0  0  0  0
  -25.5948  -33.8556   24.2260 N   0  0  0  0  0  0
  -23.4299  -30.4797   21.5434 C   0  0  2  0  0  0
  -24.8778  -28.9312   20.1070 C   0  0  0  0  0  0
  -22.7508  -29.4601   22.4900 C   0  0  0  0  0  0
  -18.0292  -28.1384   22.8484 C   0  0  0  0  0  0
  -24.1491  -36.7283   23.2637 C   0  0  0  0  0  0
  -25.9789  -30.7589   21.3885 C   0  0  0  0  0  0
  -26.0486  -29.3811   20.7301 C   0  0  0  0  0  0
  -27.2156  -28.5461   20.7396 C   0  0  0  0  0  0
  -26.0282  -26.8917   19.4397 C   0  0  0  0  0  0
  -24.8730  -27.6936   19.4514 C   0  0  0  0  0  0
  -23.6497  -29.8195   20.1580 C   0  0  0  0  0  0
  -25.4118  -36.3068   24.0325 C   0  0  1  0  0  0
  -20.5900  -28.3701   23.1264 C   0  0  2  0  0  0
  -20.6783  -26.9416   22.5407 C   0  0  0  0  0  0
  -19.5756  -26.6380   21.5214 C   0  0  0  0  0  0
  -18.1937  -26.7927   22.1626 C   0  0  0  0  0  0
  -19.1548  -28.8859   23.2870 C   0  0  0  0  0  0
  -18.9468  -30.1459   23.8890 C   0  0  0  0  0  0
  -17.6467  -30.6587   24.0558 C   0  0  0  0  0  0
  -25.9063  -34.9438   23.5093 C   0  0  0  0  0  0
  -16.5357  -29.9082   23.6327 C   0  0  0  0  0  0
  -16.7280  -28.6497   23.0354 C   0  0  0  0  0  0
  -26.4508  -31.6579   25.0737 C   0  0  0  0  0  0
  -25.3721  -31.3740   26.1451 C   0  0  0  0  0  0
  -27.0360  -30.2988   24.6251 C   0  0  0  0  0  0
  -27.6055  -32.4326   25.7514 C   0  0  0  0  0  0
  -27.5578  -37.1798   24.8462 C   0  0  0  0  0  0
  -21.4213  -29.3048   22.3648 N   0  0  0  0  0  0
  -26.4290  -37.3769   23.9405 N   0  0  0  0  0  0
  -24.6990  -31.0497   22.0994 N   0  0  0  0  0  0
  -23.4203  -28.8129   23.2993 O   0  0  0  0  0  0
  -28.2867  -26.3131   20.2011 O   0  0  0  0  0  0
  -26.5629  -34.8914   22.4660 O   0  0  0  0  0  0
  -23.5470  -32.1391   23.7281 O   0  0  0  0  0  0
  -30.6839  -18.6860   18.2447 C   0  0  0  0  0  0
  -30.2509  -19.8663   18.8825 C   0  0  0  0  0  0
  -30.5737  -17.4249   18.8649 C   0  0  0  0  0  0
  -29.5607  -18.5131   20.7867 C   0  0  0  0  0  0
  -29.6745  -19.8367   20.1716 C   0  0  0  0  0  0
  -30.0160  -17.2757   20.1563 C   0  0  0  0  0  0
  -29.3426  -21.1932   20.8765 C   0  0  0  0  0  0
  -28.0965  -24.8299   20.2654 C   0  0  0  0  0  0
  -30.4658  -24.3541   19.4918 C   0  0  0  0  0  0
  -29.8802  -24.0952   21.9037 C   0  0  0  0  0  0
  -29.3687  -23.8732   20.4635 C   0  0  0  0  0  0
  -29.8721  -15.8966   20.7096 N   0  0  0  0  0  0
  -29.1717  -22.3676   20.1511 N   0  0  0  0  0  0
  -29.2784  -21.1905   22.1068 O   0  0  0  0  0  0
  -26.9932  -24.2782   20.2403 O   0  0  0  0  0  0
  -31.4749  -12.5618   19.1915 H   0  0  0  0  0  0
  -30.3643  -11.4761   19.9734 H   0  0  0  0  0  0
  -29.8004  -11.7322   17.5334 H   0  0  0  0  0  0
  -29.6481  -13.4606   17.7323 H   0  0  0  0  0  0
  -27.8920  -11.2875   18.9143 H   0  0  0  0  0  0
  -27.3873  -12.5298   17.8013 H   0  0  0  0  0  0
  -27.6388  -14.2582   19.4735 H   0  0  0  0  0  0
  -28.7158  -12.1797   21.4396 H   0  0  0  0  0  0
  -28.4179  -13.8612   21.7980 H   0  0  0  0  0  0
  -25.2769   -9.5695   22.4752 H   0  0  0  0  0  0
  -24.0009   -7.4647   22.7467 H   0  0  0  0  0  0
  -21.0849   -8.8778   19.8957 H   0  0  0  0  0  0
  -22.3698  -10.9674   19.6162 H   0  0  0  0  0  0
  -21.2009   -7.6147   23.9716 H   0  0  0  0  0  0
  -21.1483   -6.0521   25.9077 H   0  0  0  0  0  0
  -22.0596   -2.7609   23.2846 H   0  0  0  0  0  0
  -22.4093  -11.9886   22.4831 H   0  0  0  0  0  0
  -21.1082  -13.1225   22.2608 H   0  0  0  0  0  0
  -24.6559  -15.8491   20.5279 H   0  0  0  0  0  0
  -26.2716  -15.6331   20.0842 H   0  0  0  0  0  0
  -26.7212  -32.5392   23.1073 H   0  0  0  0  0  0
  -25.0086  -33.9692   25.0398 H   0  0  0  0  0  0
  -22.7270  -31.3026   21.3987 H   0  0  0  0  0  0
  -23.3757  -35.9613   23.3296 H   0  0  0  0  0  0
  -24.3576  -36.8908   22.2050 H   0  0  0  0  0  0
  -23.7246  -37.6483   23.6666 H   0  0  0  0  0  0
  -26.1252  -31.5191   20.6199 H   0  0  0  0  0  0
  -26.8541  -30.8052   22.0245 H   0  0  0  0  0  0
  -28.1051  -28.8780   21.2563 H   0  0  0  0  0  0
  -25.9618  -25.9631   18.8940 H   0  0  0  0  0  0
  -23.9831  -27.3506   18.9418 H   0  0  0  0  0  0
  -23.7761  -30.5989   19.4058 H   0  0  0  0  0  0
  -22.7673  -29.2562   19.8498 H   0  0  0  0  0  0
  -25.1302  -36.1910   25.0819 H   0  0  0  0  0  0
  -20.9998  -28.3281   24.1383 H   0  0  0  0  0  0
  -20.5686  -26.2309   23.3611 H   0  0  0  0  0  0
  -21.6648  -26.7437   22.1197 H   0  0  0  0  0  0
  -19.6917  -25.6289   21.1246 H   0  0  0  0  0  0
  -19.6694  -27.3185   20.6741 H   0  0  0  0  0  0
  -17.4206  -26.6672   21.4029 H   0  0  0  0  0  0
  -18.0338  -26.0071   22.9024 H   0  0  0  0  0  0
  -19.7944  -30.7275   24.2258 H   0  0  0  0  0  0
  -17.5021  -31.6267   24.5158 H   0  0  0  0  0  0
  -15.5358  -30.2981   23.7658 H   0  0  0  0  0  0
  -15.8679  -28.0812   22.7080 H   0  0  0  0  0  0
  -24.5902  -30.7083   25.7779 H   0  0  0  0  0  0
  -24.8909  -32.2914   26.4852 H   0  0  0  0  0  0
  -25.8031  -30.8932   27.0242 H   0  0  0  0  0  0
  -26.2957  -29.6727   24.1256 H   0  0  0  0  0  0
  -27.3997  -29.7261   25.4793 H   0  0  0  0  0  0
  -27.8859  -30.4242   23.9539 H   0  0  0  0  0  0
  -27.2658  -33.3629   26.2077 H   0  0  0  0  0  0
  -28.3880  -32.6879   25.0357 H   0  0  0  0  0  0
  -28.0712  -31.8462   26.5443 H   0  0  0  0  0  0
  -28.2594  -38.0096   24.7512 H   0  0  0  0  0  0
  -28.1078  -36.2628   24.6291 H   0  0  0  0  0  0
  -27.2294  -37.1451   25.8864 H   0  0  0  0  0  0
  -20.9393  -29.8773   21.6857 H   0  0  0  0  0  0
  -26.0167  -38.2842   24.1407 H   0  0  0  0  0  0
  -31.1224  -18.7493   17.2582 H   0  0  0  0  0  0
  -30.3982  -20.8080   18.3723 H   0  0  0  0  0  0
  -30.9177  -16.5617   18.3127 H   0  0  0  0  0  0
  -29.1329  -18.4577   21.7783 H   0  0  0  0  0  0
  -30.7232  -25.4020   19.6527 H   0  0  0  0  0  0
  -30.1530  -24.2549   18.4515 H   0  0  0  0  0  0
  -31.3848  -23.7797   19.6136 H   0  0  0  0  0  0
  -30.1022  -25.1466   22.0928 H   0  0  0  0  0  0
  -30.7963  -23.5366   22.0971 H   0  0  0  0  0  0
  -29.1384  -23.7877   22.6416 H   0  0  0  0  0  0
  -29.0089  -15.7238   21.2029 H   0  0  0  0  0  0
  -29.0648  -22.1967   19.1617 H   0  0  0  0  0  0
  1 25  1  0  0  0
  1 30  2  0  0  0
  1 82  1  0  0  0
  2  3  1  0  0  0
  2 25  1  0  0  0
  2 86  1  0  0  0
  2 87  1  0  0  0
  3  4  1  0  0  0
  3 88  1  0  0  0
  3 89  1  0  0  0
  4  5  1  0  0  0
  4 90  1  0  0  0
  4 91  1  0  0  0
  5  6  1  0  0  0
  5 26  1  0  0  0
  5 92  1  0  0  0
  6 25  1  0  0  0
  6 93  1  0  0  0
  6 94  1  0  0  0
  7  8  2  0  0  0
  7 26  1  0  0  0
  7 29  1  0  0  0
  8  9  1  0  0  0
  8 22  1  0  0  0
  9 10  1  0  0  0
  9 27  2  0  0  0
 10 11  2  0  0  0
 10 15  1  0  0  0
 11 12  1  0  0  0
 11 95  1  0  0  0
 12 13  2  0  0  0
 12 96  1  0  0  0
 13 14  1  0  0  0
 13 31  1  0  0  0
 14 15  2  0  0  0
 14 97  1  0  0  0
 15 98  1  0  0  0
 16 17  2  0  0  0
 16 21  1  0  0  0
 16 31  1  0  0  0
 17 18  1  0  0  0
 17 99  1  0  0  0
 18 19  2  0  0  0
 18100  1  0  0  0
 19 20  1  0  0  0
 19 24  1  0  0  0
 20 21  2  0  0  0
 20101  1  0  0  0
 21 23  1  0  0  0
 22 28  1  0  0  0
 22 32  2  0  0  0
 26 27  1  0  0  0
 28102  1  0  0  0
 28103  1  0  0  0
 29104  1  0  0  0
 29105  1  0  0  0
 33 34  1  0  0  0
 33 66  1  0  0  0
 33 70  2  0  0  0
 34 36  1  0  0  0
 34 59  1  0  0  0
 34106  1  0  0  0
 35 44  2  0  0  0
 35 45  1  0  0  0
 35 68  1  0  0  0
 36 56  1  0  0  0
 36107  1  0  0  0
 37 39  1  0  0  0
 37 47  1  0  0  0
 37 66  1  0  0  0
 37108  1  0  0  0
 38 43  2  0  0  0
 38 46  1  0  0  0
 38 47  1  0  0  0
 39 64  1  0  0  0
 39 67  2  0  0  0
 40 52  1  0  0  0
 40 53  2  0  0  0
 40 58  1  0  0  0
 41109  1  0  0  0
 41110  1  0  0  0
 41111  1  0  0  0
 41 48  1  0  0  0
 42 43  1  0  0  0
 42 66  1  0  0  0
 42112  1  0  0  0
 42113  1  0  0  0
 43 44  1  0  0  0
 44114  1  0  0  0
 45 46  2  0  0  0
 45115  1  0  0  0
 46116  1  0  0  0
 47117  1  0  0  0
 47118  1  0  0  0
 48 56  1  0  0  0
 48 65  1  0  0  0
 48119  1  0  0  0
 49 50  1  0  0  0
 49 53  1  0  0  0
 49 64  1  0  0  0
 49120  1  0  0  0
 50 51  1  0  0  0
 50121  1  0  0  0
 50122  1  0  0  0
 51 52  1  0  0  0
 51123  1  0  0  0
 51124  1  0  0  0
 52125  1  0  0  0
 52126  1  0  0  0
 53 54  1  0  0  0
 54 55  2  0  0  0
 54127  1  0  0  0
 55 57  1  0  0  0
 55128  1  0  0  0
 56 69  2  0  0  0
 57 58  2  0  0  0
 57129  1  0  0  0
 58130  1  0  0  0
 59 60  1  0  0  0
 59 61  1  0  0  0
 59 62  1  0  0  0
 60131  1  0  0  0
 60132  1  0  0  0
 60133  1  0  0  0
 61134  1  0  0  0
 61135  1  0  0  0
 61136  1  0  0  0
 62137  1  0  0  0
 62138  1  0  0  0
 62139  1  0  0  0
 63 65  1  0  0  0
 63140  1  0  0  0
 63141  1  0  0  0
 63142  1  0  0  0
 64143  1  0  0  0
 65144  1  0  0  0
 68 78  1  0  0  0
 71 72  2  0  0  0
 71 73  1  0  0  0
 71145  1  0  0  0
 72 75  1  0  0  0
 72146  1  0  0  0
 73 76  2  0  0  0
 73147  1  0  0  0
 74 75  2  0  0  0
 74 76  1  0  0  0
 74148  1  0  0  0
 75 77  1  0  0  0
 76 82  1  0  0  0
 77 83  1  0  0  0
 77 84  2  0  0  0
 78 81  1  0  0  0
 78 85  2  0  0  0
 79149  1  0  0  0
 79150  1  0  0  0
 79151  1  0  0  0
 79 81  1  0  0  0
 80 81  1  0  0  0
 80152  1  0  0  0
 80153  1  0  0  0
 80154  1  0  0  0
 81 83  1  0  0  0
 82155  1  0  0  0
 83156  1  0  0  0
M  ISO  4   1 100  68 101  78 101  82 100
M  END
> <chiral flag>
0

> <version>
0

> <s_m_source_file>
/data/baiqing/PycharmProjects/Reinvent-master-3.2/result/LINK_invent/BTK/process_docking_weight1_custom_product_contain_oxygen_bond_distance_aromatic_linkinvent_7_9_3/rearranged_h_0080.sdf

> <i_m_source_file_index>
72

> <r_mmod_Potential_Energy-OPLS-2005>
121.443176269531

> <r_mmod_Stretch_Energy-OPLS-2005>
146.319519042969

> <r_mmod_Bend_Energy-OPLS-2005>
161.376724243164

> <r_mmod_Torsional_Energy-OPLS-2005>
240.597152709961

> <r_mmod_Improper_Torsional_Energy-OPLS-2005>
5.34789228439331

> <r_mmod_Van_der_Waal_Energy-OPLS-2005>
147.645156860352

> <r_mmod_Electrostatic_Energy-OPLS-2005>
-439.529479980469

> <r_mmod_Solvation_Energy-OPLS-2005>
-234.485504150391

> <b_mmod_Minimization_Converged-OPLS-2005>
0

> <r_mmod_RMS_Derivative-OPLS-2005>
0.754038989543915

$$$$
72
                    3D
 Structure written by MMmdl.
156165  0  0  1  0            999 V2000
  -30.5868  -14.9821   20.3939 C   0  0  0  0  0  0
  -30.4254  -12.6083   19.5126 C   0  0  0  0  0  0
  -29.5185  -12.5212   18.2648 C   0  0  0  0  0  0
  -28.0556  -12.2960   18.6859 C   0  0  0  0  0  0
  -27.6194  -13.2550   19.8231 C   0  0  2  0  0  0
  -28.6572  -13.3536   20.9590 C   0  0  0  0  0  0
  -25.2445  -13.8233   20.5742 C   0  0  0  0  0  0
  -24.1759  -13.0440   20.9202 C   0  0  0  0  0  0
  -24.6384  -11.6930   20.8736 C   0  0  0  0  0  0
  -23.9071  -10.4297   21.0395 C   0  0  0  0  0  0
  -24.3623   -9.4216   21.9174 C   0  0  0  0  0  0
  -23.6297   -8.2253   22.0750 C   0  0  0  0  0  0
  -22.4276   -8.0293   21.3543 C   0  0  0  0  0  0
  -21.9905   -9.0263   20.4643 C   0  0  0  0  0  0
  -22.7243  -10.2137   20.3049 C   0  0  0  0  0  0
  -21.6853   -6.0735   22.5277 C   0  0  0  0  0  0
  -21.4023   -6.5638   23.8214 C   0  0  0  0  0  0
  -21.3663   -5.6797   24.9177 C   0  0  0  0  0  0
  -21.6044   -4.3059   24.7226 C   0  0  0  0  0  0
  -21.8817   -3.8145   23.4348 C   0  0  0  0  0  0
  -21.9195   -4.6961   22.3406 C   0  0  0  0  0  0
  -22.7784  -13.5204   21.1889 C   0  0  0  0  0  0
  -22.1659   -4.2147   21.0980 F   0  0  0  0  0  0
  -21.5626   -3.4544   25.7738 F   0  0  0  0  0  0
  -29.9378  -13.7431   20.3576 N   0  0  0  0  0  0
  -26.2850  -12.9473   20.3215 N   0  0  0  0  0  0
  -25.9314  -11.6592   20.5721 N   0  0  0  0  0  0
  -22.0455  -12.8174   22.0448 N   0  0  0  0  0  0
  -25.4150  -15.1970   20.4313 N   0  0  0  0  0  0
  -31.8020  -14.9411   20.1739 O   0  0  0  0  0  0
  -21.6643   -6.8882   21.4242 O   0  0  0  0  0  0
  -22.3456  -14.5516   20.6764 O   0  0  0  0  0  0
  -24.6456  -31.8425   23.1861 C   0  0  0  0  0  0
  -25.9219  -32.4686   23.8262 C   0  0  1  0  0  0
  -27.2215  -27.1178   20.1633 C   0  0  0  0  0  0
  -25.5956  -33.8492   24.2181 N   0  0  0  0  0  0
  -23.4526  -30.4594   21.5310 C   0  0  2  0  0  0
  -24.9074  -28.8834   20.1115 C   0  0  0  0  0  0
  -22.7579  -29.4535   22.4836 C   0  0  0  0  0  0
  -18.0315  -28.1395   22.8467 C   0  0  0  0  0  0
  -24.1490  -36.7258   23.2642 C   0  0  0  0  0  0
  -26.0095  -30.7103   21.3898 C   0  0  0  0  0  0
  -26.0859  -29.3178   20.7353 C   0  0  0  0  0  0
  -27.2465  -28.4500   20.7478 C   0  0  0  0  0  0
  -26.0222  -26.7905   19.4998 C   0  0  0  0  0  0
  -24.8889  -27.6317   19.4784 C   0  0  0  0  0  0
  -23.6843  -29.7881   20.1515 C   0  0  0  0  0  0
  -25.4121  -36.3028   24.0311 C   0  0  1  0  0  0
  -20.5932  -28.3738   23.1224 C   0  0  2  0  0  0
  -20.6806  -26.9432   22.5417 C   0  0  0  0  0  0
  -19.5789  -26.6354   21.5229 C   0  0  0  0  0  0
  -18.1966  -26.7920   22.1634 C   0  0  0  0  0  0
  -19.1573  -28.8879   23.2836 C   0  0  0  0  0  0
  -18.9481  -30.1470   23.8871 C   0  0  0  0  0  0
  -17.6479  -30.6590   24.0552 C   0  0  0  0  0  0
  -25.9067  -34.9404   23.5059 C   0  0  0  0  0  0
  -16.5371  -29.9084   23.6326 C   0  0  0  0  0  0
  -16.7298  -28.6502   23.0348 C   0  0  0  0  0  0
  -26.4531  -31.6561   25.0715 C   0  0  0  0  0  0
  -25.3708  -31.3772   26.1406 C   0  0  0  0  0  0
  -27.0388  -30.2943   24.6320 C   0  0  0  0  0  0
  -27.6048  -32.4339   25.7514 C   0  0  0  0  0  0
  -27.5568  -37.1789   24.8467 C   0  0  0  0  0  0
  -21.4270  -29.3058   22.3578 N   0  0  0  0  0  0
  -26.4286  -37.3738   23.9399 N   0  0  0  0  0  0
  -24.7222  -31.0254   22.0911 N   0  0  0  0  0  0
  -23.4194  -28.8079   23.3003 O   0  0  0  0  0  0
  -28.2187  -26.0684   20.1966 O   0  0  0  0  0  0
  -26.5658  -34.8902   22.4638 O   0  0  0  0  0  0
  -23.5568  -32.1316   23.7054 O   0  0  0  0  0  0
  -28.8656  -17.0167   19.7617 C   0  0  0  0  0  0
  -28.4672  -18.4221   19.7570 C   0  0  0  0  0  0
  -30.6381  -17.5612   21.1938 C   0  0  0  0  0  0
  -29.9678  -16.4762   20.5116 C   0  0  0  0  0  0
  -29.1240  -19.4988   20.4649 C   0  0  0  0  0  0
  -30.2478  -18.9713   21.1899 C   0  0  0  0  0  0
  -27.5896  -22.9318   22.3729 C   0  0  0  0  0  0
  -28.1431  -23.4416   21.1053 C   0  0  0  0  0  0
  -26.8867  -21.6578   22.3468 C   0  0  0  0  0  0
  -28.8989  -22.2718   20.3761 C   0  0  0  0  0  0
  -27.8783  -23.5452   23.5447 C   0  0  0  0  0  0
  -26.1364  -21.2045   23.3692 C   0  0  0  0  0  0
  -27.9331  -24.8674   20.9780 C   0  0  0  0  0  0
  -27.1129  -20.7914   21.1315 C   0  0  0  0  0  0
  -28.4977  -20.9065   20.6514 N   0  0  0  0  0  0
  -29.8333  -22.4858   19.5982 O   0  0  0  0  0  0
  -30.9628  -19.8286   21.9571 F   0  0  0  0  0  0
  -31.4629  -12.7370   19.2004 H   0  0  0  0  0  0
  -30.4019  -11.6743   20.0765 H   0  0  0  0  0  0
  -29.8502  -11.7120   17.6120 H   0  0  0  0  0  0
  -29.5988  -13.4419   17.6860 H   0  0  0  0  0  0
  -27.9709  -11.2624   19.0250 H   0  0  0  0  0  0
  -27.3900  -12.3915   17.8273 H   0  0  0  0  0  0
  -27.5592  -14.2374   19.3568 H   0  0  0  0  0  0
  -28.7470  -12.4085   21.4968 H   0  0  0  0  0  0
  -28.3490  -14.1006   21.6922 H   0  0  0  0  0  0
  -25.2767   -9.5687   22.4751 H   0  0  0  0  0  0
  -24.0003   -7.4636   22.7466 H   0  0  0  0  0  0
  -21.0838   -8.8782   19.8938 H   0  0  0  0  0  0
  -22.3710  -10.9669   19.6156 H   0  0  0  0  0  0
  -21.2024   -7.6148   23.9718 H   0  0  0  0  0  0
  -21.1479   -6.0523   25.9078 H   0  0  0  0  0  0
  -22.0587   -2.7602   23.2852 H   0  0  0  0  0  0
  -22.4091  -11.9835   22.4814 H   0  0  0  0  0  0
  -21.1077  -13.1181   22.2682 H   0  0  0  0  0  0
  -24.6554  -15.8526   20.5796 H   0  0  0  0  0  0
  -26.2972  -15.6500   20.2289 H   0  0  0  0  0  0
  -26.7291  -32.5296   23.0995 H   0  0  0  0  0  0
  -25.0069  -33.9616   25.0306 H   0  0  0  0  0  0
  -22.7570  -31.2857   21.3729 H   0  0  0  0  0  0
  -23.3749  -35.9595   23.3311 H   0  0  0  0  0  0
  -24.3564  -36.8886   22.2056 H   0  0  0  0  0  0
  -23.7259  -37.6459   23.6678 H   0  0  0  0  0  0
  -26.1639  -31.4634   20.6150 H   0  0  0  0  0  0
  -26.8788  -30.7645   22.0334 H   0  0  0  0  0  0
  -28.1424  -28.7749   21.2582 H   0  0  0  0  0  0
  -25.9457  -25.8231   19.0239 H   0  0  0  0  0  0
  -23.9910  -27.2898   18.9829 H   0  0  0  0  0  0
  -23.8244  -30.5627   19.3964 H   0  0  0  0  0  0
  -22.7993  -29.2317   19.8383 H   0  0  0  0  0  0
  -25.1313  -36.1854   25.0803 H   0  0  0  0  0  0
  -21.0025  -28.3350   24.1345 H   0  0  0  0  0  0
  -20.5697  -26.2366   23.3660 H   0  0  0  0  0  0
  -21.6675  -26.7427   22.1224 H   0  0  0  0  0  0
  -19.6963  -25.6244   21.1317 H   0  0  0  0  0  0
  -19.6725  -27.3117   20.6724 H   0  0  0  0  0  0
  -17.4232  -26.6635   21.4047 H   0  0  0  0  0  0
  -18.0366  -26.0089   22.9058 H   0  0  0  0  0  0
  -19.7952  -30.7289   24.2239 H   0  0  0  0  0  0
  -17.5029  -31.6271   24.5156 H   0  0  0  0  0  0
  -15.5371  -30.2979   23.7656 H   0  0  0  0  0  0
  -15.8703  -28.0810   22.7088 H   0  0  0  0  0  0
  -24.5889  -30.7113   25.7734 H   0  0  0  0  0  0
  -24.8896  -32.2966   26.4755 H   0  0  0  0  0  0
  -25.7985  -30.8999   27.0233 H   0  0  0  0  0  0
  -26.3011  -29.6668   24.1301 H   0  0  0  0  0  0
  -27.3950  -29.7244   25.4913 H   0  0  0  0  0  0
  -27.8945  -30.4155   23.9673 H   0  0  0  0  0  0
  -27.2616  -33.3649   26.2040 H   0  0  0  0  0  0
  -28.3889  -32.6890   25.0373 H   0  0  0  0  0  0
  -28.0682  -31.8503   26.5481 H   0  0  0  0  0  0
  -28.2595  -38.0073   24.7466 H   0  0  0  0  0  0
  -28.1054  -36.2597   24.6351 H   0  0  0  0  0  0
  -27.2277  -37.1503   25.8869 H   0  0  0  0  0  0
  -20.9487  -29.8772   21.6753 H   0  0  0  0  0  0
  -26.0156  -38.2810   24.1383 H   0  0  0  0  0  0
  -28.3063  -16.3417   19.1315 H   0  0  0  0  0  0
  -27.5892  -18.6767   19.1793 H   0  0  0  0  0  0
  -31.5219  -17.3080   21.7620 H   0  0  0  0  0  0
  -28.4756  -24.4452   23.5793 H   0  0  0  0  0  0
  -27.5624  -23.1579   24.5009 H   0  0  0  0  0  0
  -25.9605  -21.7793   24.2660 H   0  0  0  0  0  0
  -25.6635  -20.2338   23.3220 H   0  0  0  0  0  0
  -27.3168  -25.2593   21.7758 H   0  0  0  0  0  0
  -26.4316  -21.1028   20.3390 H   0  0  0  0  0  0
  -26.8519  -19.7608   21.3755 H   0  0  0  0  0  0
  1 25  1  0  0  0
  1 30  2  0  0  0
  1 74  1  0  0  0
  2  3  1  0  0  0
  2 25  1  0  0  0
  2 88  1  0  0  0
  2 89  1  0  0  0
  3  4  1  0  0  0
  3 90  1  0  0  0
  3 91  1  0  0  0
  4  5  1  0  0  0
  4 92  1  0  0  0
  4 93  1  0  0  0
  5  6  1  0  0  0
  5 26  1  0  0  0
  5 94  1  0  0  0
  6 25  1  0  0  0
  6 95  1  0  0  0
  6 96  1  0  0  0
  7  8  2  0  0  0
  7 26  1  0  0  0
  7 29  1  0  0  0
  8  9  1  0  0  0
  8 22  1  0  0  0
  9 10  1  0  0  0
  9 27  2  0  0  0
 10 11  2  0  0  0
 10 15  1  0  0  0
 11 12  1  0  0  0
 11 97  1  0  0  0
 12 13  2  0  0  0
 12 98  1  0  0  0
 13 14  1  0  0  0
 13 31  1  0  0  0
 14 15  2  0  0  0
 14 99  1  0  0  0
 15100  1  0  0  0
 16 17  2  0  0  0
 16 21  1  0  0  0
 16 31  1  0  0  0
 17 18  1  0  0  0
 17101  1  0  0  0
 18 19  2  0  0  0
 18102  1  0  0  0
 19 20  1  0  0  0
 19 24  1  0  0  0
 20 21  2  0  0  0
 20103  1  0  0  0
 21 23  1  0  0  0
 22 28  1  0  0  0
 22 32  2  0  0  0
 26 27  1  0  0  0
 28104  1  0  0  0
 28105  1  0  0  0
 29106  1  0  0  0
 29107  1  0  0  0
 33 34  1  0  0  0
 33 66  1  0  0  0
 33 70  2  0  0  0
 34 36  1  0  0  0
 34 59  1  0  0  0
 34108  1  0  0  0
 35 44  2  0  0  0
 35 45  1  0  0  0
 35 68  1  0  0  0
 36 56  1  0  0  0
 36109  1  0  0  0
 37 39  1  0  0  0
 37 47  1  0  0  0
 37 66  1  0  0  0
 37110  1  0  0  0
 38 43  2  0  0  0
 38 46  1  0  0  0
 38 47  1  0  0  0
 39 64  1  0  0  0
 39 67  2  0  0  0
 40 52  1  0  0  0
 40 53  2  0  0  0
 40 58  1  0  0  0
 41111  1  0  0  0
 41112  1  0  0  0
 41113  1  0  0  0
 41 48  1  0  0  0
 42 43  1  0  0  0
 42 66  1  0  0  0
 42114  1  0  0  0
 42115  1  0  0  0
 43 44  1  0  0  0
 44116  1  0  0  0
 45 46  2  0  0  0
 45117  1  0  0  0
 46118  1  0  0  0
 47119  1  0  0  0
 47120  1  0  0  0
 48 56  1  0  0  0
 48 65  1  0  0  0
 48121  1  0  0  0
 49 50  1  0  0  0
 49 53  1  0  0  0
 49 64  1  0  0  0
 49122  1  0  0  0
 50 51  1  0  0  0
 50123  1  0  0  0
 50124  1  0  0  0
 51 52  1  0  0  0
 51125  1  0  0  0
 51126  1  0  0  0
 52127  1  0  0  0
 52128  1  0  0  0
 53 54  1  0  0  0
 54 55  2  0  0  0
 54129  1  0  0  0
 55 57  1  0  0  0
 55130  1  0  0  0
 56 69  2  0  0  0
 57 58  2  0  0  0
 57131  1  0  0  0
 58132  1  0  0  0
 59 60  1  0  0  0
 59 61  1  0  0  0
 59 62  1  0  0  0
 60133  1  0  0  0
 60134  1  0  0  0
 60135  1  0  0  0
 61136  1  0  0  0
 61137  1  0  0  0
 61138  1  0  0  0
 62139  1  0  0  0
 62140  1  0  0  0
 62141  1  0  0  0
 63 65  1  0  0  0
 63142  1  0  0  0
 63143  1  0  0  0
 63144  1  0  0  0
 64145  1  0  0  0
 65146  1  0  0  0
 68 83  1  0  0  0
 71 72  2  0  0  0
 71 74  1  0  0  0
 71147  1  0  0  0
 72 75  1  0  0  0
 72148  1  0  0  0
 73 74  2  0  0  0
 73 76  1  0  0  0
 73149  1  0  0  0
 75 76  2  0  0  0
 75 85  1  0  0  0
 76 87  1  0  0  0
 77 78  1  0  0  0
 77 79  1  0  0  0
 77 81  2  0  0  0
 78 80  1  0  0  0
 78 83  2  0  0  0
 79 82  2  0  0  0
 79 84  1  0  0  0
 80 85  1  0  0  0
 80 86  2  0  0  0
 81150  1  0  0  0
 81151  1  0  0  0
 82152  1  0  0  0
 82153  1  0  0  0
 83154  1  0  0  0
 84 85  1  0  0  0
 84155  1  0  0  0
 84156  1  0  0  0
M  ISO  4   1 100  68 101  74 100  83 101
M  END
> <chiral flag>
0

> <version>
0

> <s_m_source_file>
/data/baiqing/PycharmProjects/Reinvent-master-3.2/result/LINK_invent/BTK/process_docking_weight1_custom_product_contain_oxygen_bond_distance_aromatic_linkinvent_7_9_3/rearranged_h_0080.sdf

> <i_m_source_file_index>
73

> <r_mmod_Potential_Energy-OPLS-2005>
850.232543945312

> <r_mmod_Stretch_Energy-OPLS-2005>
259.995300292969

> <r_mmod_Bend_Energy-OPLS-2005>
365.007629394531

> <r_mmod_Torsional_Energy-OPLS-2005>
331.037841796875

> <r_mmod_Improper_Torsional_Energy-OPLS-2005>
7.19779872894287

> <r_mmod_Van_der_Waal_Energy-OPLS-2005>
162.670852661133

> <r_mmod_Electrostatic_Energy-OPLS-2005>
-294.312927246094

> <r_mmod_Solvation_Energy-OPLS-2005>
-204.193099975586

> <b_mmod_Minimization_Converged-OPLS-2005>
0

> <r_mmod_RMS_Derivative-OPLS-2005>
1.79621076583862

$$$$
73
                    3D
 Structure written by MMmdl.
154163  0  0  1  0            999 V2000
  -30.5937  -14.6869   20.4966 C   0  0  0  0  0  0
  -30.4457  -12.4209   19.4629 C   0  0  0  0  0  0
  -29.5156  -12.5150   18.2318 C   0  0  0  0  0  0
  -28.0379  -12.3437   18.6404 C   0  0  0  0  0  0
  -27.6533  -13.2176   19.8637 C   0  0  2  0  0  0
  -28.6969  -13.0819   20.9955 C   0  0  0  0  0  0
  -25.2563  -13.8173   20.5685 C   0  0  0  0  0  0
  -24.1828  -13.0441   20.9185 C   0  0  0  0  0  0
  -24.6392  -11.6912   20.8732 C   0  0  0  0  0  0
  -23.9060  -10.4296   21.0401 C   0  0  0  0  0  0
  -24.3613   -9.4211   21.9178 C   0  0  0  0  0  0
  -23.6287   -8.2248   22.0755 C   0  0  0  0  0  0
  -22.4268   -8.0285   21.3548 C   0  0  0  0  0  0
  -21.9901   -9.0258   20.4649 C   0  0  0  0  0  0
  -22.7231  -10.2134   20.3053 C   0  0  0  0  0  0
  -21.6858   -6.0733   22.5275 C   0  0  0  0  0  0
  -21.4018   -6.5635   23.8210 C   0  0  0  0  0  0
  -21.3660   -5.6786   24.9171 C   0  0  0  0  0  0
  -21.6043   -4.3049   24.7222 C   0  0  0  0  0  0
  -21.8820   -3.8143   23.4342 C   0  0  0  0  0  0
  -21.9195   -4.6960   22.3397 C   0  0  0  0  0  0
  -22.7849  -13.5238   21.1848 C   0  0  0  0  0  0
  -22.1663   -4.2148   21.0974 F   0  0  0  0  0  0
  -21.5627   -3.4531   25.7735 F   0  0  0  0  0  0
  -30.0091  -13.4445   20.4356 N   0  0  0  0  0  0
  -26.2985  -12.9350   20.3306 N   0  0  0  0  0  0
  -25.9322  -11.6505   20.5743 N   0  0  0  0  0  0
  -22.0484  -12.8240   22.0403 N   0  0  0  0  0  0
  -25.4283  -15.1894   20.4109 N   0  0  0  0  0  0
  -31.7518  -14.8608   20.1032 O   0  0  0  0  0  0
  -21.6640   -6.8876   21.4239 O   0  0  0  0  0  0
  -22.3538  -14.5548   20.6695 O   0  0  0  0  0  0
  -24.6280  -31.8580   23.2012 C   0  0  0  0  0  0
  -25.9119  -32.4770   23.8347 C   0  0  1  0  0  0
  -27.2250  -27.2997   20.1263 C   0  0  0  0  0  0
  -25.5922  -33.8573   24.2269 N   0  0  0  0  0  0
  -23.4235  -30.4802   21.5438 C   0  0  2  0  0  0
  -24.8721  -28.9318   20.1110 C   0  0  0  0  0  0
  -22.7487  -29.4612   22.4929 C   0  0  0  0  0  0
  -18.0291  -28.1382   22.8487 C   0  0  0  0  0  0
  -24.1487  -36.7296   23.2637 C   0  0  0  0  0  0
  -25.9658  -30.7811   21.3771 C   0  0  0  0  0  0
  -26.0407  -29.4059   20.7221 C   0  0  0  0  0  0
  -27.2207  -28.6000   20.7237 C   0  0  0  0  0  0
  -26.0387  -26.8879   19.4797 C   0  0  0  0  0  0
  -24.8732  -27.6778   19.4808 C   0  0  0  0  0  0
  -23.6401  -29.8137   20.1596 C   0  0  0  0  0  0
  -25.4108  -36.3080   24.0328 C   0  0  1  0  0  0
  -20.5892  -28.3691   23.1278 C   0  0  2  0  0  0
  -20.6782  -26.9413   22.5405 C   0  0  0  0  0  0
  -19.5754  -26.6380   21.5213 C   0  0  0  0  0  0
  -18.1934  -26.7924   22.1628 C   0  0  0  0  0  0
  -19.1543  -28.8854   23.2876 C   0  0  0  0  0  0
  -18.9464  -30.1456   23.8891 C   0  0  0  0  0  0
  -17.6464  -30.6585   24.0559 C   0  0  0  0  0  0
  -25.9047  -34.9449   23.5100 C   0  0  0  0  0  0
  -16.5356  -29.9080   23.6329 C   0  0  0  0  0  0
  -16.7278  -28.6498   23.0351 C   0  0  0  0  0  0
  -26.4492  -31.6592   25.0730 C   0  0  0  0  0  0
  -25.3718  -31.3748   26.1456 C   0  0  0  0  0  0
  -27.0344  -30.3012   24.6209 C   0  0  0  0  0  0
  -27.6046  -32.4331   25.7504 C   0  0  0  0  0  0
  -27.5581  -37.1794   24.8455 C   0  0  0  0  0  0
  -21.4198  -29.3044   22.3672 N   0  0  0  0  0  0
  -26.4283  -37.3778   23.9413 N   0  0  0  0  0  0
  -24.6912  -31.0569   22.0974 N   0  0  0  0  0  0
  -23.4199  -28.8153   23.3019 O   0  0  0  0  0  0
  -28.3171  -26.4129   20.1582 O   0  0  0  0  0  0
  -26.5618  -34.8922   22.4669 O   0  0  0  0  0  0
  -23.5438  -32.1389   23.7326 O   0  0  0  0  0  0
  -28.5738  -19.3587   21.0983 C   0  0  0  0  0  0
  -30.6724  -19.3915   19.9566 C   0  0  0  0  0  0
  -28.6813  -17.9380   21.2258 C   0  0  0  0  0  0
  -30.7823  -17.9658   20.0834 C   0  0  0  0  0  0
  -29.5644  -20.1527   20.4518 C   0  0  0  0  0  0
  -29.7807  -17.1864   20.7242 C   0  0  0  0  0  0
  -28.8670  -23.9310   20.2720 C   0  0  0  0  0  0
  -30.1820  -23.8284   19.7056 C   0  0  0  0  0  0
  -28.4868  -22.5343   20.6300 C   0  0  0  0  0  0
  -30.9410  -24.8539   19.2820 C   0  0  0  0  0  0
  -28.0703  -25.0478   20.4636 C   0  0  0  0  0  0
  -30.6089  -22.3770   19.6777 C   0  0  0  0  0  0
  -29.4919  -21.6375   20.2925 N   0  0  0  0  0  0
  -29.7677  -15.7195   20.8819 N   0  0  0  0  0  0
  -27.4147  -22.2150   21.1542 O   0  0  0  0  0  0
  -31.4860  -12.5568   19.1624 H   0  0  0  0  0  0
  -30.3926  -11.4276   19.9111 H   0  0  0  0  0  0
  -29.7893  -11.7597   17.4939 H   0  0  0  0  0  0
  -29.6508  -13.4813   17.7439 H   0  0  0  0  0  0
  -27.8808  -11.2906   18.8760 H   0  0  0  0  0  0
  -27.3850  -12.5670   17.7958 H   0  0  0  0  0  0
  -27.6681  -14.2511   19.5175 H   0  0  0  0  0  0
  -28.7190  -12.0590   21.3746 H   0  0  0  0  0  0
  -28.4320  -13.7070   21.8496 H   0  0  0  0  0  0
  -25.2760   -9.5692   22.4748 H   0  0  0  0  0  0
  -24.0003   -7.4640   22.7475 H   0  0  0  0  0  0
  -21.0833   -8.8774   19.8953 H   0  0  0  0  0  0
  -22.3689  -10.9673   19.6159 H   0  0  0  0  0  0
  -21.2013   -7.6144   23.9714 H   0  0  0  0  0  0
  -21.1479   -6.0514   25.9074 H   0  0  0  0  0  0
  -22.0599   -2.7606   23.2843 H   0  0  0  0  0  0
  -22.4093  -11.9903   22.4801 H   0  0  0  0  0  0
  -21.1107  -13.1282   22.2608 H   0  0  0  0  0  0
  -24.6596  -15.8430   20.5138 H   0  0  0  0  0  0
  -26.2718  -15.6257   20.0604 H   0  0  0  0  0  0
  -26.7193  -32.5430   23.1098 H   0  0  0  0  0  0
  -25.0059  -33.9716   25.0408 H   0  0  0  0  0  0
  -22.7187  -31.3015   21.3991 H   0  0  0  0  0  0
  -23.3751  -35.9626   23.3286 H   0  0  0  0  0  0
  -24.3584  -36.8931   22.2054 H   0  0  0  0  0  0
  -23.7243  -37.6494   23.6670 H   0  0  0  0  0  0
  -26.0987  -31.5420   20.6068 H   0  0  0  0  0  0
  -26.8459  -30.8321   22.0066 H   0  0  0  0  0  0
  -28.1157  -28.9540   21.2151 H   0  0  0  0  0  0
  -26.0014  -25.9259   18.9878 H   0  0  0  0  0  0
  -23.9798  -27.3100   18.9947 H   0  0  0  0  0  0
  -23.7595  -30.5895   19.4025 H   0  0  0  0  0  0
  -22.7598  -29.2437   19.8565 H   0  0  0  0  0  0
  -25.1288  -36.1924   25.0820 H   0  0  0  0  0  0
  -20.9985  -28.3266   24.1399 H   0  0  0  0  0  0
  -20.5689  -26.2299   23.3606 H   0  0  0  0  0  0
  -21.6650  -26.7442   22.1195 H   0  0  0  0  0  0
  -19.6912  -25.6289   21.1250 H   0  0  0  0  0  0
  -19.6685  -27.3187   20.6739 H   0  0  0  0  0  0
  -17.4201  -26.6670   21.4034 H   0  0  0  0  0  0
  -18.0332  -26.0064   22.9023 H   0  0  0  0  0  0
  -19.7938  -30.7275   24.2256 H   0  0  0  0  0  0
  -17.5016  -31.6267   24.5159 H   0  0  0  0  0  0
  -15.5356  -30.2978   23.7655 H   0  0  0  0  0  0
  -15.8679  -28.0814   22.7071 H   0  0  0  0  0  0
  -24.5855  -30.7144   25.7779 H   0  0  0  0  0  0
  -24.8957  -32.2930   26.4908 H   0  0  0  0  0  0
  -25.8024  -30.8886   27.0219 H   0  0  0  0  0  0
  -26.2935  -29.6756   24.1219 H   0  0  0  0  0  0
  -27.4020  -29.7277   25.4730 H   0  0  0  0  0  0
  -27.8811  -30.4299   23.9462 H   0  0  0  0  0  0
  -27.2645  -33.3617   26.2102 H   0  0  0  0  0  0
  -28.3845  -32.6917   25.0329 H   0  0  0  0  0  0
  -28.0729  -31.8448   26.5406 H   0  0  0  0  0  0
  -28.2575  -38.0115   24.7537 H   0  0  0  0  0  0
  -28.1103  -36.2650   24.6230 H   0  0  0  0  0  0
  -27.2308  -37.1381   25.8858 H   0  0  0  0  0  0
  -20.9378  -29.8765   21.6878 H   0  0  0  0  0  0
  -26.0162  -38.2849   24.1427 H   0  0  0  0  0  0
  -27.6947  -19.8228   21.5192 H   0  0  0  0  0  0
  -31.4812  -19.8985   19.4508 H   0  0  0  0  0  0
  -27.8770  -17.4185   21.7279 H   0  0  0  0  0  0
  -31.6526  -17.4774   19.6680 H   0  0  0  0  0  0
  -30.5999  -25.8776   19.3309 H   0  0  0  0  0  0
  -31.9287  -24.6833   18.8782 H   0  0  0  0  0  0
  -27.0987  -24.9246   20.9244 H   0  0  0  0  0  0
  -31.5281  -22.2385   20.2487 H   0  0  0  0  0  0
  -30.7724  -22.0521   18.6492 H   0  0  0  0  0  0
  -28.9002  -15.3650   21.2552 H   0  0  0  0  0  0
  1 25  1  0  0  0
  1 30  2  0  0  0
  1 84  1  0  0  0
  2  3  1  0  0  0
  2 25  1  0  0  0
  2 86  1  0  0  0
  2 87  1  0  0  0
  3  4  1  0  0  0
  3 88  1  0  0  0
  3 89  1  0  0  0
  4  5  1  0  0  0
  4 90  1  0  0  0
  4 91  1  0  0  0
  5  6  1  0  0  0
  5 26  1  0  0  0
  5 92  1  0  0  0
  6 25  1  0  0  0
  6 93  1  0  0  0
  6 94  1  0  0  0
  7  8  2  0  0  0
  7 26  1  0  0  0
  7 29  1  0  0  0
  8  9  1  0  0  0
  8 22  1  0  0  0
  9 10  1  0  0  0
  9 27  2  0  0  0
 10 11  2  0  0  0
 10 15  1  0  0  0
 11 12  1  0  0  0
 11 95  1  0  0  0
 12 13  2  0  0  0
 12 96  1  0  0  0
 13 14  1  0  0  0
 13 31  1  0  0  0
 14 15  2  0  0  0
 14 97  1  0  0  0
 15 98  1  0  0  0
 16 17  2  0  0  0
 16 21  1  0  0  0
 16 31  1  0  0  0
 17 18  1  0  0  0
 17 99  1  0  0  0
 18 19  2  0  0  0
 18100  1  0  0  0
 19 20  1  0  0  0
 19 24  1  0  0  0
 20 21  2  0  0  0
 20101  1  0  0  0
 21 23  1  0  0  0
 22 28  1  0  0  0
 22 32  2  0  0  0
 26 27  1  0  0  0
 28102  1  0  0  0
 28103  1  0  0  0
 29104  1  0  0  0
 29105  1  0  0  0
 33 34  1  0  0  0
 33 66  1  0  0  0
 33 70  2  0  0  0
 34 36  1  0  0  0
 34 59  1  0  0  0
 34106  1  0  0  0
 35 44  2  0  0  0
 35 45  1  0  0  0
 35 68  1  0  0  0
 36 56  1  0  0  0
 36107  1  0  0  0
 37 39  1  0  0  0
 37 47  1  0  0  0
 37 66  1  0  0  0
 37108  1  0  0  0
 38 43  2  0  0  0
 38 46  1  0  0  0
 38 47  1  0  0  0
 39 64  1  0  0  0
 39 67  2  0  0  0
 40 52  1  0  0  0
 40 53  2  0  0  0
 40 58  1  0  0  0
 41109  1  0  0  0
 41110  1  0  0  0
 41111  1  0  0  0
 41 48  1  0  0  0
 42 43  1  0  0  0
 42 66  1  0  0  0
 42112  1  0  0  0
 42113  1  0  0  0
 43 44  1  0  0  0
 44114  1  0  0  0
 45 46  2  0  0  0
 45115  1  0  0  0
 46116  1  0  0  0
 47117  1  0  0  0
 47118  1  0  0  0
 48 56  1  0  0  0
 48 65  1  0  0  0
 48119  1  0  0  0
 49 50  1  0  0  0
 49 53  1  0  0  0
 49 64  1  0  0  0
 49120  1  0  0  0
 50 51  1  0  0  0
 50121  1  0  0  0
 50122  1  0  0  0
 51 52  1  0  0  0
 51123  1  0  0  0
 51124  1  0  0  0
 52125  1  0  0  0
 52126  1  0  0  0
 53 54  1  0  0  0
 54 55  2  0  0  0
 54127  1  0  0  0
 55 57  1  0  0  0
 55128  1  0  0  0
 56 69  2  0  0  0
 57 58  2  0  0  0
 57129  1  0  0  0
 58130  1  0  0  0
 59 60  1  0  0  0
 59 61  1  0  0  0
 59 62  1  0  0  0
 60131  1  0  0  0
 60132  1  0  0  0
 60133  1  0  0  0
 61134  1  0  0  0
 61135  1  0  0  0
 61136  1  0  0  0
 62137  1  0  0  0
 62138  1  0  0  0
 62139  1  0  0  0
 63 65  1  0  0  0
 63140  1  0  0  0
 63141  1  0  0  0
 63142  1  0  0  0
 64143  1  0  0  0
 65144  1  0  0  0
 68 81  1  0  0  0
 71 73  2  0  0  0
 71 75  1  0  0  0
 71145  1  0  0  0
 72 74  1  0  0  0
 72 75  2  0  0  0
 72146  1  0  0  0
 73 76  1  0  0  0
 73147  1  0  0  0
 74 76  2  0  0  0
 74148  1  0  0  0
 75 83  1  0  0  0
 76 84  1  0  0  0
 77 78  1  0  0  0
 77 79  1  0  0  0
 77 81  2  0  0  0
 78 80  2  0  0  0
 78 82  1  0  0  0
 79 83  1  0  0  0
 79 85  2  0  0  0
 80149  1  0  0  0
 80150  1  0  0  0
 81151  1  0  0  0
 82 83  1  0  0  0
 82152  1  0  0  0
 82153  1  0  0  0
 84154  1  0  0  0
M  ISO  4   1 100  68 101  81 101  84 100
M  END
> <chiral flag>
0

> <version>
0

> <s_m_source_file>
/data/baiqing/PycharmProjects/Reinvent-master-3.2/result/LINK_invent/BTK/process_docking_weight1_custom_product_contain_oxygen_bond_distance_aromatic_linkinvent_7_9_3/rearranged_h_0080.sdf

> <i_m_source_file_index>
74

> <r_mmod_Potential_Energy-OPLS-2005>
213.749710083008

> <r_mmod_Stretch_Energy-OPLS-2005>
94.9645385742188

> <r_mmod_Bend_Energy-OPLS-2005>
196.454376220703

> <r_mmod_Torsional_Energy-OPLS-2005>
246.572250366211

> <r_mmod_Improper_Torsional_Energy-OPLS-2005>
3.60927796363831

> <r_mmod_Van_der_Waal_Energy-OPLS-2005>
143.749618530273

> <r_mmod_Electrostatic_Energy-OPLS-2005>
-326.163909912109

> <r_mmod_Solvation_Energy-OPLS-2005>
-208.378356933594

> <b_mmod_Minimization_Converged-OPLS-2005>
0

> <r_mmod_RMS_Derivative-OPLS-2005>
0.686327934265137

$$$$
74
                    3D
 Structure written by MMmdl.
161170  0  0  1  0            999 V2000
  -30.5828  -14.8409   20.3663 C   0  0  0  0  0  0
  -30.4305  -12.5007   19.4903 C   0  0  0  0  0  0
  -29.5211  -12.5194   18.2415 C   0  0  0  0  0  0
  -28.0457  -12.3312   18.6463 C   0  0  0  0  0  0
  -27.6354  -13.2462   19.8321 C   0  0  2  0  0  0
  -28.6799  -13.2379   20.9709 C   0  0  0  0  0  0
  -25.2471  -13.8219   20.5646 C   0  0  0  0  0  0
  -24.1766  -13.0445   20.9143 C   0  0  0  0  0  0
  -24.6396  -11.6935   20.8700 C   0  0  0  0  0  0
  -23.9084  -10.4297   21.0380 C   0  0  0  0  0  0
  -24.3611   -9.4212   21.9169 C   0  0  0  0  0  0
  -23.6271   -8.2267   22.0763 C   0  0  0  0  0  0
  -22.4241   -8.0312   21.3563 C   0  0  0  0  0  0
  -21.9885   -9.0286   20.4648 C   0  0  0  0  0  0
  -22.7249  -10.2155   20.3056 C   0  0  0  0  0  0
  -21.6858   -6.0740   22.5253 C   0  0  0  0  0  0
  -21.4022   -6.5625   23.8202 C   0  0  0  0  0  0
  -21.3654   -5.6767   24.9147 C   0  0  0  0  0  0
  -21.6036   -4.3034   24.7171 C   0  0  0  0  0  0
  -21.8834   -3.8150   23.4277 C   0  0  0  0  0  0
  -21.9193   -4.6972   22.3347 C   0  0  0  0  0  0
  -22.7796  -13.5237   21.1807 C   0  0  0  0  0  0
  -22.1679   -4.2169   21.0920 F   0  0  0  0  0  0
  -21.5610   -3.4522   25.7674 F   0  0  0  0  0  0
  -29.9772  -13.5969   20.3835 N   0  0  0  0  0  0
  -26.2899  -12.9454   20.3180 N   0  0  0  0  0  0
  -25.9318  -11.6591   20.5671 N   0  0  0  0  0  0
  -22.0418  -12.8288   22.0358 N   0  0  0  0  0  0
  -25.4128  -15.1947   20.4018 N   0  0  0  0  0  0
  -31.7773  -14.9036   20.0624 O   0  0  0  0  0  0
  -21.6638   -6.8892   21.4223 O   0  0  0  0  0  0
  -22.3498  -14.5564   20.6664 O   0  0  0  0  0  0
  -24.6380  -31.8513   23.1905 C   0  0  0  0  0  0
  -25.9192  -32.4733   23.8264 C   0  0  1  0  0  0
  -27.2329  -27.2220   20.1224 C   0  0  0  0  0  0
  -25.5959  -33.8535   24.2219 N   0  0  0  0  0  0
  -23.4387  -30.4735   21.5322 C   0  0  2  0  0  0
  -24.8927  -28.9105   20.1072 C   0  0  0  0  0  0
  -22.7533  -29.4623   22.4827 C   0  0  0  0  0  0
  -18.0306  -28.1438   22.8478 C   0  0  0  0  0  0
  -24.1487  -36.7265   23.2628 C   0  0  0  0  0  0
  -25.9888  -30.7540   21.3767 C   0  0  0  0  0  0
  -26.0675  -29.3696   20.7215 C   0  0  0  0  0  0
  -27.2441  -28.5373   20.7193 C   0  0  0  0  0  0
  -26.0316  -26.8392   19.4950 C   0  0  0  0  0  0
  -24.8821  -27.6532   19.4859 C   0  0  0  0  0  0
  -23.6634  -29.8018   20.1516 C   0  0  0  0  0  0
  -25.4116  -36.3053   24.0320 C   0  0  1  0  0  0
  -20.5909  -28.3770   23.1216 C   0  0  2  0  0  0
  -20.6806  -26.9469   22.5399 C   0  0  0  0  0  0
  -19.5775  -26.6415   21.5208 C   0  0  0  0  0  0
  -18.1955  -26.7982   22.1613 C   0  0  0  0  0  0
  -19.1568  -28.8907   23.2854 C   0  0  0  0  0  0
  -18.9495  -30.1499   23.8897 C   0  0  0  0  0  0
  -17.6496  -30.6631   24.0576 C   0  0  0  0  0  0
  -25.9082  -34.9432   23.5076 C   0  0  0  0  0  0
  -16.5386  -29.9139   23.6331 C   0  0  0  0  0  0
  -16.7293  -28.6554   23.0351 C   0  0  0  0  0  0
  -26.4528  -31.6557   25.0659 C   0  0  0  0  0  0
  -25.3715  -31.3789   26.1360 C   0  0  0  0  0  0
  -27.0370  -30.2943   24.6213 C   0  0  0  0  0  0
  -27.6086  -32.4270   25.7469 C   0  0  0  0  0  0
  -27.5586  -37.1788   24.8450 C   0  0  0  0  0  0
  -21.4225  -29.3095   22.3573 N   0  0  0  0  0  0
  -26.4273  -37.3769   23.9417 N   0  0  0  0  0  0
  -24.7077  -31.0448   22.0899 N   0  0  0  0  0  0
  -23.4190  -28.8168   23.2956 O   0  0  0  0  0  0
  -28.2743  -26.2515   20.0985 O   0  0  0  0  0  0
  -26.5653  -34.8921   22.4641 O   0  0  0  0  0  0
  -23.5519  -32.1356   23.7171 O   0  0  0  0  0  0
  -29.2698  -18.6128   20.4758 C   0  0  0  0  0  0
  -30.1372  -20.0196   18.7101 C   0  0  0  0  0  0
  -30.7304  -17.6231   18.8256 C   0  0  0  0  0  0
  -29.3707  -19.9772   19.9016 C   0  0  0  0  0  0
  -29.9550  -17.4087   19.9870 C   0  0  0  0  0  0
  -30.7852  -18.8761   18.1693 C   0  0  0  0  0  0
  -28.3707  -23.7344   21.0395 C   0  0  0  0  0  0
  -28.0974  -23.1775   22.3459 C   0  0  0  0  0  0
  -28.8464  -22.6325   20.0754 C   0  0  0  0  0  0
  -28.7023  -23.6268   23.4602 C   0  0  0  0  0  0
  -28.1508  -25.1328   20.9814 C   0  0  0  0  0  0
  -27.1563  -22.0217   22.3728 C   0  0  0  0  0  0
  -27.8013  -20.8858   21.5845 C   0  0  0  0  0  0
  -31.0589  -19.8357   15.9903 C   0  0  0  0  0  0
  -28.7171  -21.2449   20.4695 N   0  0  0  0  0  0
  -29.8160  -16.0042   20.5386 N   0  0  0  0  0  0
  -29.3389  -22.9439   18.9892 O   0  0  0  0  0  0
  -31.4926  -18.9104   16.9847 O   0  0  0  0  0  0
  -31.4758  -12.6052   19.1958 H   0  0  0  0  0  0
  -30.3634  -11.5422   20.0052 H   0  0  0  0  0  0
  -29.8299  -11.7503   17.5308 H   0  0  0  0  0  0
  -29.6286  -13.4710   17.7192 H   0  0  0  0  0  0
  -27.8936  -11.2846   18.9141 H   0  0  0  0  0  0
  -27.4060  -12.5275   17.7841 H   0  0  0  0  0  0
  -27.6078  -14.2545   19.4189 H   0  0  0  0  0  0
  -28.7282  -12.2576   21.4426 H   0  0  0  0  0  0
  -28.3965  -13.9469   21.7494 H   0  0  0  0  0  0
  -25.2771   -9.5660   22.4746 H   0  0  0  0  0  0
  -23.9964   -7.4657   22.7506 H   0  0  0  0  0  0
  -21.0829   -8.8838   19.8934 H   0  0  0  0  0  0
  -22.3735  -10.9692   19.6167 H   0  0  0  0  0  0
  -21.2048   -7.6134   23.9708 H   0  0  0  0  0  0
  -21.1466   -6.0485   25.9061 H   0  0  0  0  0  0
  -22.0620   -2.7606   23.2779 H   0  0  0  0  0  0
  -22.4001  -11.9958   22.4794 H   0  0  0  0  0  0
  -21.1071  -13.1414   22.2553 H   0  0  0  0  0  0
  -24.6337  -15.8395   20.4861 H   0  0  0  0  0  0
  -26.2410  -15.6273   20.0164 H   0  0  0  0  0  0
  -26.7266  -32.5394   23.1022 H   0  0  0  0  0  0
  -25.0084  -33.9627   25.0344 H   0  0  0  0  0  0
  -22.7402  -31.2996   21.3814 H   0  0  0  0  0  0
  -23.3757  -35.9588   23.3256 H   0  0  0  0  0  0
  -24.3573  -36.8906   22.2045 H   0  0  0  0  0  0
  -23.7245  -37.6451   23.6683 H   0  0  0  0  0  0
  -26.1249  -31.5173   20.6084 H   0  0  0  0  0  0
  -26.8642  -30.8096   22.0112 H   0  0  0  0  0  0
  -28.1437  -28.8857   21.2063 H   0  0  0  0  0  0
  -25.9826  -25.8648   19.0295 H   0  0  0  0  0  0
  -23.9845  -27.2925   19.0029 H   0  0  0  0  0  0
  -23.7923  -30.5745   19.3936 H   0  0  0  0  0  0
  -22.7822  -29.2376   19.8407 H   0  0  0  0  0  0
  -25.1303  -36.1881   25.0816 H   0  0  0  0  0  0
  -21.0019  -28.3401   24.1321 H   0  0  0  0  0  0
  -20.5697  -26.2383   23.3620 H   0  0  0  0  0  0
  -21.6689  -26.7518   22.1204 H   0  0  0  0  0  0
  -19.6930  -25.6311   21.1264 H   0  0  0  0  0  0
  -19.6705  -27.3197   20.6708 H   0  0  0  0  0  0
  -17.4224  -26.6712   21.4024 H   0  0  0  0  0  0
  -18.0349  -26.0147   22.9019 H   0  0  0  0  0  0
  -19.7974  -30.7310   24.2278 H   0  0  0  0  0  0
  -17.5065  -31.6307   24.5191 H   0  0  0  0  0  0
  -15.5389  -30.3046   23.7668 H   0  0  0  0  0  0
  -15.8680  -28.0883   22.7080 H   0  0  0  0  0  0
  -24.5857  -30.7171   25.7691 H   0  0  0  0  0  0
  -24.8945  -32.3003   26.4719 H   0  0  0  0  0  0
  -25.7959  -30.8995   27.0183 H   0  0  0  0  0  0
  -26.2973  -29.6665   24.1237 H   0  0  0  0  0  0
  -27.3991  -29.7259   25.4785 H   0  0  0  0  0  0
  -27.8863  -30.4147   23.9492 H   0  0  0  0  0  0
  -27.2734  -33.3594   26.2027 H   0  0  0  0  0  0
  -28.3938  -32.6763   25.0324 H   0  0  0  0  0  0
  -28.0688  -31.8374   26.5405 H   0  0  0  0  0  0
  -28.2592  -38.0101   24.7543 H   0  0  0  0  0  0
  -28.1098  -36.2642   24.6222 H   0  0  0  0  0  0
  -27.2306  -37.1380   25.8847 H   0  0  0  0  0  0
  -20.9414  -29.8813   21.6769 H   0  0  0  0  0  0
  -26.0145  -38.2825   24.1444 H   0  0  0  0  0  0
  -28.6408  -18.4552   21.3369 H   0  0  0  0  0  0
  -30.2379  -20.9485   18.1767 H   0  0  0  0  0  0
  -31.2569  -16.8011   18.3644 H   0  0  0  0  0  0
  -29.4200  -24.4359   23.4241 H   0  0  0  0  0  0
  -28.5137  -23.1714   24.4219 H   0  0  0  0  0  0
  -27.7859  -25.5647   21.9042 H   0  0  0  0  0  0
  -26.2153  -22.3224   21.9087 H   0  0  0  0  0  0
  -26.9179  -21.7169   23.3915 H   0  0  0  0  0  0
  -27.0184  -20.2194   21.2184 H   0  0  0  0  0  0
  -28.3853  -20.3257   22.3122 H   0  0  0  0  0  0
  -31.5344  -19.5934   15.0404 H   0  0  0  0  0  0
  -31.3394  -20.8614   16.2349 H   0  0  0  0  0  0
  -29.9785  -19.7806   15.8335 H   0  0  0  0  0  0
  -28.9458  -15.8279   21.0190 H   0  0  0  0  0  0
  1 25  1  0  0  0
  1 30  2  0  0  0
  1 86  1  0  0  0
  2  3  1  0  0  0
  2 25  1  0  0  0
  2 89  1  0  0  0
  2 90  1  0  0  0
  3  4  1  0  0  0
  3 91  1  0  0  0
  3 92  1  0  0  0
  4  5  1  0  0  0
  4 93  1  0  0  0
  4 94  1  0  0  0
  5  6  1  0  0  0
  5 26  1  0  0  0
  5 95  1  0  0  0
  6 25  1  0  0  0
  6 96  1  0  0  0
  6 97  1  0  0  0
  7  8  2  0  0  0
  7 26  1  0  0  0
  7 29  1  0  0  0
  8  9  1  0  0  0
  8 22  1  0  0  0
  9 10  1  0  0  0
  9 27  2  0  0  0
 10 11  2  0  0  0
 10 15  1  0  0  0
 11 12  1  0  0  0
 11 98  1  0  0  0
 12 13  2  0  0  0
 12 99  1  0  0  0
 13 14  1  0  0  0
 13 31  1  0  0  0
 14 15  2  0  0  0
 14100  1  0  0  0
 15101  1  0  0  0
 16 17  2  0  0  0
 16 21  1  0  0  0
 16 31  1  0  0  0
 17 18  1  0  0  0
 17102  1  0  0  0
 18 19  2  0  0  0
 18103  1  0  0  0
 19 20  1  0  0  0
 19 24  1  0  0  0
 20 21  2  0  0  0
 20104  1  0  0  0
 21 23  1  0  0  0
 22 28  1  0  0  0
 22 32  2  0  0  0
 26 27  1  0  0  0
 28105  1  0  0  0
 28106  1  0  0  0
 29107  1  0  0  0
 29108  1  0  0  0
 33 34  1  0  0  0
 33 66  1  0  0  0
 33 70  2  0  0  0
 34 36  1  0  0  0
 34 59  1  0  0  0
 34109  1  0  0  0
 35 44  2  0  0  0
 35 45  1  0  0  0
 35 68  1  0  0  0
 36 56  1  0  0  0
 36110  1  0  0  0
 37 39  1  0  0  0
 37 47  1  0  0  0
 37 66  1  0  0  0
 37111  1  0  0  0
 38 43  2  0  0  0
 38 46  1  0  0  0
 38 47  1  0  0  0
 39 64  1  0  0  0
 39 67  2  0  0  0
 40 52  1  0  0  0
 40 53  2  0  0  0
 40 58  1  0  0  0
 41112  1  0  0  0
 41113  1  0  0  0
 41114  1  0  0  0
 41 48  1  0  0  0
 42 43  1  0  0  0
 42 66  1  0  0  0
 42115  1  0  0  0
 42116  1  0  0  0
 43 44  1  0  0  0
 44117  1  0  0  0
 45 46  2  0  0  0
 45118  1  0  0  0
 46119  1  0  0  0
 47120  1  0  0  0
 47121  1  0  0  0
 48 56  1  0  0  0
 48 65  1  0  0  0
 48122  1  0  0  0
 49 50  1  0  0  0
 49 53  1  0  0  0
 49 64  1  0  0  0
 49123  1  0  0  0
 50 51  1  0  0  0
 50124  1  0  0  0
 50125  1  0  0  0
 51 52  1  0  0  0
 51126  1  0  0  0
 51127  1  0  0  0
 52128  1  0  0  0
 52129  1  0  0  0
 53 54  1  0  0  0
 54 55  2  0  0  0
 54130  1  0  0  0
 55 57  1  0  0  0
 55131  1  0  0  0
 56 69  2  0  0  0
 57 58  2  0  0  0
 57132  1  0  0  0
 58133  1  0  0  0
 59 60  1  0  0  0
 59 61  1  0  0  0
 59 62  1  0  0  0
 60134  1  0  0  0
 60135  1  0  0  0
 60136  1  0  0  0
 61137  1  0  0  0
 61138  1  0  0  0
 61139  1  0  0  0
 62140  1  0  0  0
 62141  1  0  0  0
 62142  1  0  0  0
 63 65  1  0  0  0
 63143  1  0  0  0
 63144  1  0  0  0
 63145  1  0  0  0
 64146  1  0  0  0
 65147  1  0  0  0
 68 81  1  0  0  0
 71 74  2  0  0  0
 71 75  1  0  0  0
 71148  1  0  0  0
 72 74  1  0  0  0
 72 76  2  0  0  0
 72149  1  0  0  0
 73 75  2  0  0  0
 73 76  1  0  0  0
 73150  1  0  0  0
 74 85  1  0  0  0
 75 86  1  0  0  0
 76 88  1  0  0  0
 77 78  1  0  0  0
 77 79  1  0  0  0
 77 81  2  0  0  0
 78 80  2  0  0  0
 78 82  1  0  0  0
 79 85  1  0  0  0
 79 87  2  0  0  0
 80151  1  0  0  0
 80152  1  0  0  0
 81153  1  0  0  0
 82 83  1  0  0  0
 82154  1  0  0  0
 82155  1  0  0  0
 83 85  1  0  0  0
 83156  1  0  0  0
 83157  1  0  0  0
 84 88  1  0  0  0
 84158  1  0  0  0
 84159  1  0  0  0
 84160  1  0  0  0
 86161  1  0  0  0
M  ISO  4   1 100  68 101  81 101  86 100
M  END
> <chiral flag>
0

> <version>
0

> <s_m_source_file>
/data/baiqing/PycharmProjects/Reinvent-master-3.2/result/LINK_invent/BTK/process_docking_weight1_custom_product_contain_oxygen_bond_distance_aromatic_linkinvent_7_9_3/rearranged_h_0080.sdf

> <i_m_source_file_index>
75

> <r_mmod_Potential_Energy-OPLS-2005>
574.320739746094

> <r_mmod_Stretch_Energy-OPLS-2005>
197.658279418945

> <r_mmod_Bend_Energy-OPLS-2005>
281.007293701172

> <r_mmod_Torsional_Energy-OPLS-2005>
309.474273681641

> <r_mmod_Improper_Torsional_Energy-OPLS-2005>
4.30887842178345

> <r_mmod_Van_der_Waal_Energy-OPLS-2005>
167.690063476562

> <r_mmod_Electrostatic_Energy-OPLS-2005>
-289.206512451172

> <r_mmod_Solvation_Energy-OPLS-2005>
-225.594619750977

> <b_mmod_Minimization_Converged-OPLS-2005>
0

> <r_mmod_RMS_Derivative-OPLS-2005>
5.06331634521484

$$$$
75
                    3D
 Structure written by MMmdl.
155164  0  0  1  0            999 V2000
  -30.6125  -14.6509   20.5026 C   0  0  0  0  0  0
  -30.4434  -12.3989   19.4540 C   0  0  0  0  0  0
  -29.5114  -12.5090   18.2255 C   0  0  0  0  0  0
  -28.0340  -12.3422   18.6359 C   0  0  0  0  0  0
  -27.6546  -13.2131   19.8627 C   0  0  2  0  0  0
  -28.6991  -13.0655   20.9928 C   0  0  0  0  0  0
  -25.2575  -13.8160   20.5678 C   0  0  0  0  0  0
  -24.1833  -13.0436   20.9182 C   0  0  0  0  0  0
  -24.6392  -11.6902   20.8733 C   0  0  0  0  0  0
  -23.9058  -10.4290   21.0403 C   0  0  0  0  0  0
  -24.3612   -9.4209   21.9184 C   0  0  0  0  0  0
  -23.6291   -8.2244   22.0755 C   0  0  0  0  0  0
  -22.4273   -8.0282   21.3546 C   0  0  0  0  0  0
  -21.9906   -9.0251   20.4647 C   0  0  0  0  0  0
  -22.7230  -10.2132   20.3054 C   0  0  0  0  0  0
  -21.6853   -6.0739   22.5284 C   0  0  0  0  0  0
  -21.4012   -6.5642   23.8218 C   0  0  0  0  0  0
  -21.3658   -5.6794   24.9180 C   0  0  0  0  0  0
  -21.6043   -4.3056   24.7228 C   0  0  0  0  0  0
  -21.8818   -3.8149   23.4347 C   0  0  0  0  0  0
  -21.9191   -4.6967   22.3405 C   0  0  0  0  0  0
  -22.7858  -13.5243   21.1842 C   0  0  0  0  0  0
  -22.1661   -4.2153   21.0981 F   0  0  0  0  0  0
  -21.5627   -3.4540   25.7739 F   0  0  0  0  0  0
  -30.0149  -13.4174   20.4333 N   0  0  0  0  0  0
  -26.2995  -12.9330   20.3307 N   0  0  0  0  0  0
  -25.9320  -11.6490   20.5744 N   0  0  0  0  0  0
  -22.0487  -12.8243   22.0396 N   0  0  0  0  0  0
  -25.4301  -15.1883   20.4094 N   0  0  0  0  0  0
  -31.7708  -14.8237   20.1104 O   0  0  0  0  0  0
  -21.6639   -6.8879   21.4244 O   0  0  0  0  0  0
  -22.3547  -14.5554   20.6694 O   0  0  0  0  0  0
  -24.6297  -31.8600   23.2043 C   0  0  0  0  0  0
  -25.9143  -32.4779   23.8364 C   0  0  1  0  0  0
  -27.2144  -27.3005   20.1112 C   0  0  0  0  0  0
  -25.5956  -33.8578   24.2291 N   0  0  0  0  0  0
  -23.4227  -30.4898   21.5465 C   0  0  2  0  0  0
  -24.8665  -28.9504   20.1081 C   0  0  0  0  0  0
  -22.7484  -29.4653   22.4903 C   0  0  0  0  0  0
  -18.0293  -28.1403   22.8488 C   0  0  0  0  0  0
  -24.1491  -36.7291   23.2633 C   0  0  0  0  0  0
  -25.9683  -30.7855   21.3793 C   0  0  0  0  0  0
  -26.0399  -29.4139   20.7170 C   0  0  0  0  0  0
  -27.2172  -28.6016   20.7103 C   0  0  0  0  0  0
  -26.0136  -26.9078   19.4676 C   0  0  0  0  0  0
  -24.8571  -27.7027   19.4747 C   0  0  0  0  0  0
  -23.6381  -29.8350   20.1589 C   0  0  0  0  0  0
  -25.4110  -36.3079   24.0330 C   0  0  1  0  0  0
  -20.5897  -28.3721   23.1262 C   0  0  2  0  0  0
  -20.6792  -26.9441   22.5398 C   0  0  0  0  0  0
  -19.5760  -26.6395   21.5214 C   0  0  0  0  0  0
  -18.1937  -26.7944   22.1625 C   0  0  0  0  0  0
  -19.1547  -28.8872   23.2878 C   0  0  0  0  0  0
  -18.9474  -30.1467   23.8905 C   0  0  0  0  0  0
  -17.6477  -30.6605   24.0570 C   0  0  0  0  0  0
  -25.9056  -34.9454   23.5105 C   0  0  0  0  0  0
  -16.5367  -29.9108   23.6333 C   0  0  0  0  0  0
  -16.7280  -28.6523   23.0356 C   0  0  0  0  0  0
  -26.4515  -31.6582   25.0733 C   0  0  0  0  0  0
  -25.3743  -31.3735   26.1455 C   0  0  0  0  0  0
  -27.0354  -30.2998   24.6199 C   0  0  0  0  0  0
  -27.6076  -32.4305   25.7510 C   0  0  0  0  0  0
  -27.5589  -37.1785   24.8454 C   0  0  0  0  0  0
  -21.4192  -29.3083   22.3652 N   0  0  0  0  0  0
  -26.4282  -37.3780   23.9430 N   0  0  0  0  0  0
  -24.6928  -31.0609   22.1002 N   0  0  0  0  0  0
  -23.4202  -28.8169   23.2968 O   0  0  0  0  0  0
  -28.3063  -26.4066   20.1739 O   0  0  0  0  0  0
  -26.5610  -34.8926   22.4661 O   0  0  0  0  0  0
  -23.5456  -32.1402   23.7363 O   0  0  0  0  0  0
  -30.8371  -19.3332   20.0983 C   0  0  0  0  0  0
  -28.6622  -19.3201   21.1083 C   0  0  0  0  0  0
  -30.9018  -17.9053   20.1893 C   0  0  0  0  0  0
  -28.7271  -17.8985   21.2018 C   0  0  0  0  0  0
  -29.7184  -20.0975   20.5577 C   0  0  0  0  0  0
  -29.8426  -17.1421   20.7512 C   0  0  0  0  0  0
  -30.2681  -23.7792   20.6293 C   0  0  0  0  0  0
  -28.9759  -23.7874   20.2810 C   0  0  0  0  0  0
  -30.7152  -22.3980   20.7772 C   0  0  0  0  0  0
  -28.5836  -22.3661   20.2034 C   0  0  0  0  0  0
  -31.2017  -24.9605   20.8301 C   0  0  0  0  0  0
  -27.9897  -24.9664   19.9477 C   0  0  0  0  0  0
  -29.6674  -21.5834   20.5011 N   0  0  0  0  0  0
  -29.7933  -15.6815   20.8873 N   0  0  0  0  0  0
  -31.8491  -22.0302   21.1094 O   0  0  0  0  0  0
  -27.4637  -21.9358   19.9020 O   0  0  0  0  0  0
  -31.4837  -12.5313   19.1528 H   0  0  0  0  0  0
  -30.3852  -11.4023   19.8951 H   0  0  0  0  0  0
  -29.7800  -11.7582   17.4812 H   0  0  0  0  0  0
  -29.6490  -13.4786   17.7439 H   0  0  0  0  0  0
  -27.8741  -11.2886   18.8685 H   0  0  0  0  0  0
  -27.3796  -12.5678   17.7930 H   0  0  0  0  0  0
  -27.6730  -14.2482   19.5208 H   0  0  0  0  0  0
  -28.7129  -12.0406   21.3670 H   0  0  0  0  0  0
  -28.4392  -13.6881   21.8498 H   0  0  0  0  0  0
  -25.2756   -9.5692   22.4759 H   0  0  0  0  0  0
  -24.0005   -7.4637   22.7472 H   0  0  0  0  0  0
  -21.0838   -8.8763   19.8949 H   0  0  0  0  0  0
  -22.3686  -10.9670   19.6162 H   0  0  0  0  0  0
  -21.2005   -7.6150   23.9726 H   0  0  0  0  0  0
  -21.1481   -6.0523   25.9084 H   0  0  0  0  0  0
  -22.0596   -2.7612   23.2848 H   0  0  0  0  0  0
  -22.4090  -11.9905   22.4795 H   0  0  0  0  0  0
  -21.1109  -13.1284   22.2589 H   0  0  0  0  0  0
  -24.6601  -15.8408   20.5076 H   0  0  0  0  0  0
  -26.2764  -15.6256   20.0677 H   0  0  0  0  0  0
  -26.7209  -32.5439   23.1108 H   0  0  0  0  0  0
  -25.0127  -33.9718   25.0453 H   0  0  0  0  0  0
  -22.7189  -31.3131   21.4072 H   0  0  0  0  0  0
  -23.3768  -35.9605   23.3248 H   0  0  0  0  0  0
  -24.3603  -36.8951   22.2059 H   0  0  0  0  0  0
  -23.7221  -37.6472   23.6675 H   0  0  0  0  0  0
  -26.1037  -31.5510   20.6137 H   0  0  0  0  0  0
  -26.8479  -30.8294   22.0101 H   0  0  0  0  0  0
  -28.1138  -28.9517   21.2027 H   0  0  0  0  0  0
  -25.9190  -25.9629   18.9562 H   0  0  0  0  0  0
  -23.9606  -27.3423   18.9887 H   0  0  0  0  0  0
  -23.7651  -30.6188   19.4109 H   0  0  0  0  0  0
  -22.7548  -29.2744   19.8472 H   0  0  0  0  0  0
  -25.1281  -36.1920   25.0818 H   0  0  0  0  0  0
  -21.0002  -28.3307   24.1379 H   0  0  0  0  0  0
  -20.5717  -26.2336   23.3604 H   0  0  0  0  0  0
  -21.6655  -26.7479   22.1178 H   0  0  0  0  0  0
  -19.6930  -25.6302   21.1258 H   0  0  0  0  0  0
  -19.6701  -27.3196   20.6736 H   0  0  0  0  0  0
  -17.4209  -26.6697   21.4026 H   0  0  0  0  0  0
  -18.0336  -26.0083   22.9019 H   0  0  0  0  0  0
  -19.7953  -30.7278   24.2280 H   0  0  0  0  0  0
  -17.5041  -31.6290   24.5167 H   0  0  0  0  0  0
  -15.5371  -30.3029   23.7651 H   0  0  0  0  0  0
  -15.8673  -28.0853   22.7073 H   0  0  0  0  0  0
  -24.5924  -30.7069   25.7794 H   0  0  0  0  0  0
  -24.8935  -32.2912   26.4855 H   0  0  0  0  0  0
  -25.8069  -30.8939   27.0244 H   0  0  0  0  0  0
  -26.2935  -29.6745   24.1219 H   0  0  0  0  0  0
  -27.4038  -29.7253   25.4711 H   0  0  0  0  0  0
  -27.8812  -30.4269   23.9436 H   0  0  0  0  0  0
  -27.2694  -33.3608   26.2081 H   0  0  0  0  0  0
  -28.3906  -32.6847   25.0354 H   0  0  0  0  0  0
  -28.0718  -31.8424   26.5437 H   0  0  0  0  0  0
  -28.2543  -38.0144   24.7578 H   0  0  0  0  0  0
  -28.1145  -36.2679   24.6165 H   0  0  0  0  0  0
  -27.2324  -37.1289   25.8856 H   0  0  0  0  0  0
  -20.9354  -29.8841   21.6904 H   0  0  0  0  0  0
  -26.0155  -38.2838   24.1484 H   0  0  0  0  0  0
  -31.6845  -19.8432   19.6611 H   0  0  0  0  0  0
  -27.7779  -19.8127   21.4882 H   0  0  0  0  0  0
  -31.7852  -17.4055   19.8179 H   0  0  0  0  0  0
  -27.8836  -17.3834   21.6403 H   0  0  0  0  0  0
  -30.6924  -25.9129   20.6967 H   0  0  0  0  0  0
  -32.0260  -24.9128   20.1182 H   0  0  0  0  0  0
  -31.6213  -24.9387   21.8360 H   0  0  0  0  0  0
  -27.0828  -24.7299   20.5078 H   0  0  0  0  0  0
  -27.7535  -24.8380   18.8907 H   0  0  0  0  0  0
  -28.9124  -15.3361   21.2361 H   0  0  0  0  0  0
  1 25  1  0  0  0
  1 30  2  0  0  0
  1 84  1  0  0  0
  2  3  1  0  0  0
  2 25  1  0  0  0
  2 87  1  0  0  0
  2 88  1  0  0  0
  3  4  1  0  0  0
  3 89  1  0  0  0
  3 90  1  0  0  0
  4  5  1  0  0  0
  4 91  1  0  0  0
  4 92  1  0  0  0
  5  6  1  0  0  0
  5 26  1  0  0  0
  5 93  1  0  0  0
  6 25  1  0  0  0
  6 94  1  0  0  0
  6 95  1  0  0  0
  7  8  2  0  0  0
  7 26  1  0  0  0
  7 29  1  0  0  0
  8  9  1  0  0  0
  8 22  1  0  0  0
  9 10  1  0  0  0
  9 27  2  0  0  0
 10 11  2  0  0  0
 10 15  1  0  0  0
 11 12  1  0  0  0
 11 96  1  0  0  0
 12 13  2  0  0  0
 12 97  1  0  0  0
 13 14  1  0  0  0
 13 31  1  0  0  0
 14 15  2  0  0  0
 14 98  1  0  0  0
 15 99  1  0  0  0
 16 17  2  0  0  0
 16 21  1  0  0  0
 16 31  1  0  0  0
 17 18  1  0  0  0
 17100  1  0  0  0
 18 19  2  0  0  0
 18101  1  0  0  0
 19 20  1  0  0  0
 19 24  1  0  0  0
 20 21  2  0  0  0
 20102  1  0  0  0
 21 23  1  0  0  0
 22 28  1  0  0  0
 22 32  2  0  0  0
 26 27  1  0  0  0
 28103  1  0  0  0
 28104  1  0  0  0
 29105  1  0  0  0
 29106  1  0  0  0
 33 34  1  0  0  0
 33 66  1  0  0  0
 33 70  2  0  0  0
 34 36  1  0  0  0
 34 59  1  0  0  0
 34107  1  0  0  0
 35 44  2  0  0  0
 35 45  1  0  0  0
 35 68  1  0  0  0
 36 56  1  0  0  0
 36108  1  0  0  0
 37 39  1  0  0  0
 37 47  1  0  0  0
 37 66  1  0  0  0
 37109  1  0  0  0
 38 43  2  0  0  0
 38 46  1  0  0  0
 38 47  1  0  0  0
 39 64  1  0  0  0
 39 67  2  0  0  0
 40 52  1  0  0  0
 40 53  2  0  0  0
 40 58  1  0  0  0
 41110  1  0  0  0
 41111  1  0  0  0
 41112  1  0  0  0
 41 48  1  0  0  0
 42 43  1  0  0  0
 42 66  1  0  0  0
 42113  1  0  0  0
 42114  1  0  0  0
 43 44  1  0  0  0
 44115  1  0  0  0
 45 46  2  0  0  0
 45116  1  0  0  0
 46117  1  0  0  0
 47118  1  0  0  0
 47119  1  0  0  0
 48 56  1  0  0  0
 48 65  1  0  0  0
 48120  1  0  0  0
 49 50  1  0  0  0
 49 53  1  0  0  0
 49 64  1  0  0  0
 49121  1  0  0  0
 50 51  1  0  0  0
 50122  1  0  0  0
 50123  1  0  0  0
 51 52  1  0  0  0
 51124  1  0  0  0
 51125  1  0  0  0
 52126  1  0  0  0
 52127  1  0  0  0
 53 54  1  0  0  0
 54 55  2  0  0  0
 54128  1  0  0  0
 55 57  1  0  0  0
 55129  1  0  0  0
 56 69  2  0  0  0
 57 58  2  0  0  0
 57130  1  0  0  0
 58131  1  0  0  0
 59 60  1  0  0  0
 59 61  1  0  0  0
 59 62  1  0  0  0
 60132  1  0  0  0
 60133  1  0  0  0
 60134  1  0  0  0
 61135  1  0  0  0
 61136  1  0  0  0
 61137  1  0  0  0
 62138  1  0  0  0
 62139  1  0  0  0
 62140  1  0  0  0
 63 65  1  0  0  0
 63141  1  0  0  0
 63142  1  0  0  0
 63143  1  0  0  0
 64144  1  0  0  0
 65145  1  0  0  0
 68 82  1  0  0  0
 71 73  2  0  0  0
 71 75  1  0  0  0
 71146  1  0  0  0
 72 74  1  0  0  0
 72 75  2  0  0  0
 72147  1  0  0  0
 73 76  1  0  0  0
 73148  1  0  0  0
 74 76  2  0  0  0
 74149  1  0  0  0
 75 83  1  0  0  0
 76 84  1  0  0  0
 77 78  2  0  0  0
 77 79  1  0  0  0
 77 81  1  0  0  0
 78 80  1  0  0  0
 78 82  1  0  0  0
 79 83  1  0  0  0
 79 85  2  0  0  0
 80 83  1  0  0  0
 80 86  2  0  0  0
 81150  1  0  0  0
 81151  1  0  0  0
 81152  1  0  0  0
 82153  1  0  0  0
 82154  1  0  0  0
 84155  1  0  0  0
M  ISO  4   1 100  68 101  82 101  84 100
M  END
> <chiral flag>
0

> <version>
0

> <s_m_source_file>
/data/baiqing/PycharmProjects/Reinvent-master-3.2/result/LINK_invent/BTK/process_docking_weight1_custom_product_contain_oxygen_bond_distance_aromatic_linkinvent_7_9_3/rearranged_h_0080.sdf

> <i_m_source_file_index>
76

> <r_mmod_Potential_Energy-OPLS-2005>
120.74308013916

> <r_mmod_Stretch_Energy-OPLS-2005>
87.6622848510742

> <r_mmod_Bend_Energy-OPLS-2005>
191.86701965332

> <r_mmod_Torsional_Energy-OPLS-2005>
229.122512817383

> <r_mmod_Improper_Torsional_Energy-OPLS-2005>
3.83277416229248

> <r_mmod_Van_der_Waal_Energy-OPLS-2005>
147.978134155273

> <r_mmod_Electrostatic_Energy-OPLS-2005>
-366.893981933594

> <r_mmod_Solvation_Energy-OPLS-2005>
-230.043518066406

> <b_mmod_Minimization_Converged-OPLS-2005>
0

> <r_mmod_RMS_Derivative-OPLS-2005>
0.836747407913208

$$$$
76
                    3D
 Structure written by MMmdl.
156165  0  0  1  0            999 V2000
  -30.4444  -15.1090   20.3310 C   0  0  0  0  0  0
  -30.4328  -12.6728   19.5392 C   0  0  0  0  0  0
  -29.5294  -12.5418   18.2910 C   0  0  0  0  0  0
  -28.0607  -12.3360   18.6938 C   0  0  0  0  0  0
  -27.6197  -13.2712   19.8452 C   0  0  2  0  0  0
  -28.6549  -13.3523   20.9854 C   0  0  0  0  0  0
  -25.2413  -13.8255   20.5751 C   0  0  0  0  0  0
  -24.1766  -13.0436   20.9287 C   0  0  0  0  0  0
  -24.6416  -11.6944   20.8856 C   0  0  0  0  0  0
  -23.9111  -10.4311   21.0492 C   0  0  0  0  0  0
  -24.3646   -9.4198   21.9255 C   0  0  0  0  0  0
  -23.6317   -8.2222   22.0773 C   0  0  0  0  0  0
  -22.4296   -8.0294   21.3552 C   0  0  0  0  0  0
  -21.9944   -9.0294   20.4685 C   0  0  0  0  0  0
  -22.7288  -10.2157   20.3136 C   0  0  0  0  0  0
  -21.6858   -6.0793   22.5310 C   0  0  0  0  0  0
  -21.4035   -6.5691   23.8256 C   0  0  0  0  0  0
  -21.3653   -5.6821   24.9209 C   0  0  0  0  0  0
  -21.6013   -4.3076   24.7234 C   0  0  0  0  0  0
  -21.8802   -3.8188   23.4354 C   0  0  0  0  0  0
  -21.9184   -4.7019   22.3425 C   0  0  0  0  0  0
  -22.7777  -13.5192   21.1913 C   0  0  0  0  0  0
  -22.1673   -4.2211   21.0993 F   0  0  0  0  0  0
  -21.5608   -3.4545   25.7740 F   0  0  0  0  0  0
  -29.9151  -13.8033   20.3821 N   0  0  0  0  0  0
  -26.2847  -12.9521   20.3281 N   0  0  0  0  0  0
  -25.9344  -11.6634   20.5789 N   0  0  0  0  0  0
  -22.0402  -12.8229   22.0489 N   0  0  0  0  0  0
  -25.3910  -15.2015   20.4202 N   0  0  0  0  0  0
  -31.6355  -15.1721   19.9991 O   0  0  0  0  0  0
  -21.6605   -6.8921   21.4271 O   0  0  0  0  0  0
  -22.3455  -14.5487   20.6716 O   0  0  0  0  0  0
  -24.6535  -31.8358   23.1833 C   0  0  0  0  0  0
  -25.9280  -32.4645   23.8248 C   0  0  1  0  0  0
  -27.1682  -27.0106   20.1464 C   0  0  0  0  0  0
  -25.6000  -33.8447   24.2151 N   0  0  0  0  0  0
  -23.4627  -30.4534   21.5346 C   0  0  2  0  0  0
  -24.9010  -28.8665   20.1085 C   0  0  0  0  0  0
  -22.7619  -29.4507   22.4836 C   0  0  0  0  0  0
  -18.0325  -28.1392   22.8485 C   0  0  0  0  0  0
  -24.1502  -36.7222   23.2645 C   0  0  0  0  0  0
  -26.0250  -30.6622   21.4047 C   0  0  0  0  0  0
  -26.0871  -29.2629   20.7392 C   0  0  0  0  0  0
  -27.2220  -28.3523   20.7449 C   0  0  0  0  0  0
  -25.9660  -26.7461   19.4667 C   0  0  0  0  0  0
  -24.8601  -27.6214   19.4562 C   0  0  0  0  0  0
  -23.6933  -29.7922   20.1516 C   0  0  0  0  0  0
  -25.4136  -36.2986   24.0304 C   0  0  1  0  0  0
  -20.5938  -28.3733   23.1237 C   0  0  2  0  0  0
  -20.6798  -26.9428   22.5407 C   0  0  0  0  0  0
  -19.5763  -26.6383   21.5223 C   0  0  0  0  0  0
  -18.1955  -26.7935   22.1639 C   0  0  0  0  0  0
  -19.1579  -28.8883   23.2850 C   0  0  0  0  0  0
  -18.9477  -30.1481   23.8868 C   0  0  0  0  0  0
  -17.6469  -30.6583   24.0577 C   0  0  0  0  0  0
  -25.9107  -34.9368   23.5051 C   0  0  0  0  0  0
  -16.5377  -29.9080   23.6343 C   0  0  0  0  0  0
  -16.7297  -28.6508   23.0350 C   0  0  0  0  0  0
  -26.4514  -31.6554   25.0745 C   0  0  0  0  0  0
  -25.3663  -31.3759   26.1417 C   0  0  0  0  0  0
  -27.0406  -30.2946   24.6422 C   0  0  0  0  0  0
  -27.6045  -32.4307   25.7502 C   0  0  0  0  0  0
  -27.5571  -37.1772   24.8453 C   0  0  0  0  0  0
  -21.4281  -29.3056   22.3593 N   0  0  0  0  0  0
  -26.4283  -37.3715   23.9399 N   0  0  0  0  0  0
  -24.7353  -31.0078   22.0967 N   0  0  0  0  0  0
  -23.4188  -28.8085   23.3062 O   0  0  0  0  0  0
  -28.1610  -25.9393   20.1600 O   0  0  0  0  0  0
  -26.5704  -34.8886   22.4630 O   0  0  0  0  0  0
  -23.5644  -32.1320   23.6978 O   0  0  0  0  0  0
  -29.3117  -19.1349   17.8967 C   0  0  0  0  0  0
  -29.0383  -20.3624   18.5687 C   0  0  0  0  0  0
  -29.5661  -17.9024   18.5608 C   0  0  0  0  0  0
  -29.1895  -19.0960   20.6259 C   0  0  0  0  0  0
  -28.9712  -20.4652   19.9766 C   0  0  0  0  0  0
  -29.5226  -17.7681   19.9703 C   0  0  0  0  0  0
  -30.1513  -23.6919   20.1012 C   0  0  0  0  0  0
  -30.8124  -22.8996   21.0917 C   0  0  0  0  0  0
  -28.7711  -23.3199   20.1831 C   0  0  0  0  0  0
  -30.6872  -24.5687   19.2307 C   0  0  0  0  0  0
  -32.0830  -23.0515   21.5074 C   0  0  0  0  0  0
  -27.8760  -24.4576   20.2227 C   0  0  0  0  0  0
  -29.8396  -21.8603   21.6095 C   0  0  0  0  0  0
  -28.7484  -21.8404   20.6141 N   0  0  0  0  0  0
  -29.6521  -16.3089   20.5688 N   0  0  0  0  0  0
  -31.4670  -12.8409   19.2326 H   0  0  0  0  0  0
  -30.4403  -11.7363   20.1033 H   0  0  0  0  0  0
  -29.8568  -11.7060   17.6702 H   0  0  0  0  0  0
  -29.6294  -13.4456   17.6906 H   0  0  0  0  0  0
  -27.9607  -11.2941   18.9977 H   0  0  0  0  0  0
  -27.4002  -12.4729   17.8407 H   0  0  0  0  0  0
  -27.5581  -14.2667   19.4006 H   0  0  0  0  0  0
  -28.7728  -12.3904   21.4908 H   0  0  0  0  0  0
  -28.3215  -14.0596   21.7466 H   0  0  0  0  0  0
  -25.2784   -9.5633   22.4853 H   0  0  0  0  0  0
  -24.0014   -7.4595   22.7479 H   0  0  0  0  0  0
  -21.0866   -8.8836   19.9006 H   0  0  0  0  0  0
  -22.3760  -10.9720   19.6284 H   0  0  0  0  0  0
  -21.2044   -7.6198   23.9790 H   0  0  0  0  0  0
  -21.1491   -6.0549   25.9109 H   0  0  0  0  0  0
  -22.0562   -2.7655   23.2832 H   0  0  0  0  0  0
  -22.3955  -11.9887   22.4890 H   0  0  0  0  0  0
  -21.1038  -13.1329   22.2683 H   0  0  0  0  0  0
  -24.5957  -15.8239   20.5352 H   0  0  0  0  0  0
  -26.1964  -15.6613   20.0178 H   0  0  0  0  0  0
  -26.7340  -32.5166   23.0953 H   0  0  0  0  0  0
  -25.0044  -33.9544   25.0238 H   0  0  0  0  0  0
  -22.7727  -31.2810   21.3779 H   0  0  0  0  0  0
  -23.3780  -35.9547   23.3268 H   0  0  0  0  0  0
  -24.3605  -36.8903   22.2078 H   0  0  0  0  0  0
  -23.7243  -37.6390   23.6722 H   0  0  0  0  0  0
  -26.2004  -31.4149   20.6358 H   0  0  0  0  0  0
  -26.8882  -30.7049   22.0559 H   0  0  0  0  0  0
  -28.1224  -28.6484   21.2610 H   0  0  0  0  0  0
  -25.8573  -25.7978   18.9552 H   0  0  0  0  0  0
  -23.9588  -27.3141   18.9439 H   0  0  0  0  0  0
  -23.8554  -30.5761   19.4097 H   0  0  0  0  0  0
  -22.7977  -29.2597   19.8231 H   0  0  0  0  0  0
  -25.1327  -36.1790   25.0797 H   0  0  0  0  0  0
  -21.0007  -28.3295   24.1374 H   0  0  0  0  0  0
  -20.5722  -26.2319   23.3622 H   0  0  0  0  0  0
  -21.6652  -26.7424   22.1189 H   0  0  0  0  0  0
  -19.6936  -25.6288   21.1260 H   0  0  0  0  0  0
  -19.6718  -27.3176   20.6744 H   0  0  0  0  0  0
  -17.4233  -26.6697   21.4051 H   0  0  0  0  0  0
  -18.0349  -26.0079   22.9025 H   0  0  0  0  0  0
  -19.7933  -30.7326   24.2215 H   0  0  0  0  0  0
  -17.5004  -31.6249   24.5186 H   0  0  0  0  0  0
  -15.5368  -30.2971   23.7661 H   0  0  0  0  0  0
  -15.8703  -28.0819   22.7054 H   0  0  0  0  0  0
  -24.5846  -30.7126   25.7675 H   0  0  0  0  0  0
  -24.8879  -32.2965   26.4776 H   0  0  0  0  0  0
  -25.7931  -30.8922   27.0219 H   0  0  0  0  0  0
  -26.3071  -29.6621   24.1438 H   0  0  0  0  0  0
  -27.3952  -29.7276   25.5025 H   0  0  0  0  0  0
  -27.8975  -30.4118   23.9801 H   0  0  0  0  0  0
  -27.2671  -33.3621   26.2012 H   0  0  0  0  0  0
  -28.3884  -32.6836   25.0369 H   0  0  0  0  0  0
  -28.0690  -31.8500   26.5468 H   0  0  0  0  0  0
  -28.2544  -38.0100   24.7516 H   0  0  0  0  0  0
  -28.1099  -36.2638   24.6242 H   0  0  0  0  0  0
  -27.2299  -37.1337   25.8852 H   0  0  0  0  0  0
  -20.9504  -29.8724   21.6726 H   0  0  0  0  0  0
  -26.0129  -38.2763   24.1434 H   0  0  0  0  0  0
  -29.3293  -19.1408   16.8124 H   0  0  0  0  0  0
  -28.8820  -21.2443   17.9624 H   0  0  0  0  0  0
  -29.7480  -17.0331   17.9381 H   0  0  0  0  0  0
  -29.1048  -19.0570   21.7012 H   0  0  0  0  0  0
  -31.7435  -24.7808   19.2085 H   0  0  0  0  0  0
  -30.0637  -25.0822   18.5090 H   0  0  0  0  0  0
  -32.7090  -23.8384   21.1150 H   0  0  0  0  0  0
  -32.5001  -22.4167   22.2741 H   0  0  0  0  0  0
  -26.8332  -24.2991   20.4689 H   0  0  0  0  0  0
  -29.4335  -22.1823   22.5682 H   0  0  0  0  0  0
  -30.3714  -20.9278   21.8092 H   0  0  0  0  0  0
  -28.8836  -16.0858   21.1807 H   0  0  0  0  0  0
  1 25  1  0  0  0
  1 30  2  0  0  0
  1 85  1  0  0  0
  2  3  1  0  0  0
  2 25  1  0  0  0
  2 86  1  0  0  0
  2 87  1  0  0  0
  3  4  1  0  0  0
  3 88  1  0  0  0
  3 89  1  0  0  0
  4  5  1  0  0  0
  4 90  1  0  0  0
  4 91  1  0  0  0
  5  6  1  0  0  0
  5 26  1  0  0  0
  5 92  1  0  0  0
  6 25  1  0  0  0
  6 93  1  0  0  0
  6 94  1  0  0  0
  7  8  2  0  0  0
  7 26  1  0  0  0
  7 29  1  0  0  0
  8  9  1  0  0  0
  8 22  1  0  0  0
  9 10  1  0  0  0
  9 27  2  0  0  0
 10 11  2  0  0  0
 10 15  1  0  0  0
 11 12  1  0  0  0
 11 95  1  0  0  0
 12 13  2  0  0  0
 12 96  1  0  0  0
 13 14  1  0  0  0
 13 31  1  0  0  0
 14 15  2  0  0  0
 14 97  1  0  0  0
 15 98  1  0  0  0
 16 17  2  0  0  0
 16 21  1  0  0  0
 16 31  1  0  0  0
 17 18  1  0  0  0
 17 99  1  0  0  0
 18 19  2  0  0  0
 18100  1  0  0  0
 19 20  1  0  0  0
 19 24  1  0  0  0
 20 21  2  0  0  0
 20101  1  0  0  0
 21 23  1  0  0  0
 22 28  1  0  0  0
 22 32  2  0  0  0
 26 27  1  0  0  0
 28102  1  0  0  0
 28103  1  0  0  0
 29104  1  0  0  0
 29105  1  0  0  0
 33 34  1  0  0  0
 33 66  1  0  0  0
 33 70  2  0  0  0
 34 36  1  0  0  0
 34 59  1  0  0  0
 34106  1  0  0  0
 35 44  2  0  0  0
 35 45  1  0  0  0
 35 68  1  0  0  0
 36 56  1  0  0  0
 36107  1  0  0  0
 37 39  1  0  0  0
 37 47  1  0  0  0
 37 66  1  0  0  0
 37108  1  0  0  0
 38 43  2  0  0  0
 38 46  1  0  0  0
 38 47  1  0  0  0
 39 64  1  0  0  0
 39 67  2  0  0  0
 40 52  1  0  0  0
 40 53  2  0  0  0
 40 58  1  0  0  0
 41109  1  0  0  0
 41110  1  0  0  0
 41111  1  0  0  0
 41 48  1  0  0  0
 42 43  1  0  0  0
 42 66  1  0  0  0
 42112  1  0  0  0
 42113  1  0  0  0
 43 44  1  0  0  0
 44114  1  0  0  0
 45 46  2  0  0  0
 45115  1  0  0  0
 46116  1  0  0  0
 47117  1  0  0  0
 47118  1  0  0  0
 48 56  1  0  0  0
 48 65  1  0  0  0
 48119  1  0  0  0
 49 50  1  0  0  0
 49 53  1  0  0  0
 49 64  1  0  0  0
 49120  1  0  0  0
 50 51  1  0  0  0
 50121  1  0  0  0
 50122  1  0  0  0
 51 52  1  0  0  0
 51123  1  0  0  0
 51124  1  0  0  0
 52125  1  0  0  0
 52126  1  0  0  0
 53 54  1  0  0  0
 54 55  2  0  0  0
 54127  1  0  0  0
 55 57  1  0  0  0
 55128  1  0  0  0
 56 69  2  0  0  0
 57 58  2  0  0  0
 57129  1  0  0  0
 58130  1  0  0  0
 59 60  1  0  0  0
 59 61  1  0  0  0
 59 62  1  0  0  0
 60131  1  0  0  0
 60132  1  0  0  0
 60133  1  0  0  0
 61134  1  0  0  0
 61135  1  0  0  0
 61136  1  0  0  0
 62137  1  0  0  0
 62138  1  0  0  0
 62139  1  0  0  0
 63 65  1  0  0  0
 63140  1  0  0  0
 63141  1  0  0  0
 63142  1  0  0  0
 64143  1  0  0  0
 65144  1  0  0  0
 68 82  1  0  0  0
 71 72  2  0  0  0
 71 73  1  0  0  0
 71145  1  0  0  0
 72 75  1  0  0  0
 72146  1  0  0  0
 73 76  2  0  0  0
 73147  1  0  0  0
 74 75  2  0  0  0
 74 76  1  0  0  0
 74148  1  0  0  0
 75 84  1  0  0  0
 76 85  1  0  0  0
 77 78  1  0  0  0
 77 79  1  0  0  0
 77 80  2  0  0  0
 78 81  2  0  0  0
 78 83  1  0  0  0
 79 82  2  0  0  0
 79 84  1  0  0  0
 80149  1  0  0  0
 80150  1  0  0  0
 81151  1  0  0  0
 81152  1  0  0  0
 82153  1  0  0  0
 83 84  1  0  0  0
 83154  1  0  0  0
 83155  1  0  0  0
 85156  1  0  0  0
M  ISO  4   1 100  68 101  82 101  85 100
M  END
> <chiral flag>
0

> <version>
0

> <s_m_source_file>
/data/baiqing/PycharmProjects/Reinvent-master-3.2/result/LINK_invent/BTK/process_docking_weight1_custom_product_contain_oxygen_bond_distance_aromatic_linkinvent_7_9_3/rearranged_h_0080.sdf

> <i_m_source_file_index>
77

> <r_mmod_Potential_Energy-OPLS-2005>
998.385192871094

> <r_mmod_Stretch_Energy-OPLS-2005>
380.142547607422

> <r_mmod_Bend_Energy-OPLS-2005>
408.308776855469

> <r_mmod_Torsional_Energy-OPLS-2005>
320.182678222656

> <r_mmod_Improper_Torsional_Energy-OPLS-2005>
11.7337799072266

> <r_mmod_Van_der_Waal_Energy-OPLS-2005>
134.723083496094

> <r_mmod_Electrostatic_Energy-OPLS-2005>
-376.697204589844

> <r_mmod_Solvation_Energy-OPLS-2005>
-209.603881835938

> <b_mmod_Minimization_Converged-OPLS-2005>
0

> <r_mmod_RMS_Derivative-OPLS-2005>
7.31510353088379

$$$$
77
                    3D
 Structure written by MMmdl.
156165  0  0  1  0            999 V2000
  -30.5249  -15.0280   20.4115 C   0  0  0  0  0  0
  -30.4582  -12.6416   19.5127 C   0  0  0  0  0  0
  -29.5357  -12.5380   18.2726 C   0  0  0  0  0  0
  -28.0694  -12.3161   18.6869 C   0  0  0  0  0  0
  -27.6368  -13.2556   19.8413 C   0  0  2  0  0  0
  -28.6827  -13.3075   20.9791 C   0  0  0  0  0  0
  -25.2515  -13.8242   20.5733 C   0  0  0  0  0  0
  -24.1809  -13.0437   20.9218 C   0  0  0  0  0  0
  -24.6438  -11.6936   20.8748 C   0  0  0  0  0  0
  -23.9111  -10.4289   21.0398 C   0  0  0  0  0  0
  -24.3652   -9.4201   21.9172 C   0  0  0  0  0  0
  -23.6310   -8.2250   22.0754 C   0  0  0  0  0  0
  -22.4293   -8.0281   21.3546 C   0  0  0  0  0  0
  -21.9936   -9.0264   20.4652 C   0  0  0  0  0  0
  -22.7282  -10.2130   20.3048 C   0  0  0  0  0  0
  -21.6853   -6.0736   22.5272 C   0  0  0  0  0  0
  -21.4025   -6.5642   23.8205 C   0  0  0  0  0  0
  -21.3660   -5.6794   24.9164 C   0  0  0  0  0  0
  -21.6035   -4.3060   24.7223 C   0  0  0  0  0  0
  -21.8824   -3.8151   23.4350 C   0  0  0  0  0  0
  -21.9197   -4.6964   22.3397 C   0  0  0  0  0  0
  -22.7822  -13.5205   21.1836 C   0  0  0  0  0  0
  -22.1659   -4.2147   21.0979 F   0  0  0  0  0  0
  -21.5618   -3.4536   25.7735 F   0  0  0  0  0  0
  -29.9561  -13.7454   20.3855 N   0  0  0  0  0  0
  -26.2947  -12.9482   20.3274 N   0  0  0  0  0  0
  -25.9387  -11.6613   20.5765 N   0  0  0  0  0  0
  -22.0477  -12.8185   22.0407 N   0  0  0  0  0  0
  -25.4150  -15.1963   20.4136 N   0  0  0  0  0  0
  -31.7168  -15.1101   20.0907 O   0  0  0  0  0  0
  -21.6650   -6.8888   21.4239 O   0  0  0  0  0  0
  -22.3481  -14.5471   20.6646 O   0  0  0  0  0  0
  -24.6451  -31.8436   23.1895 C   0  0  0  0  0  0
  -25.9221  -32.4697   23.8277 C   0  0  1  0  0  0
  -27.2121  -27.1240   20.1374 C   0  0  0  0  0  0
  -25.5969  -33.8510   24.2178 N   0  0  0  0  0  0
  -23.4446  -30.4600   21.5422 C   0  0  2  0  0  0
  -24.8907  -28.8845   20.1015 C   0  0  0  0  0  0
  -22.7539  -29.4530   22.4945 C   0  0  0  0  0  0
  -18.0256  -28.1400   22.8462 C   0  0  0  0  0  0
  -24.1481  -36.7236   23.2642 C   0  0  0  0  0  0
  -26.0004  -30.7113   21.3877 C   0  0  0  0  0  0
  -26.0677  -29.3225   20.7216 C   0  0  0  0  0  0
  -27.2245  -28.4553   20.7263 C   0  0  0  0  0  0
  -26.0099  -26.7829   19.4820 C   0  0  0  0  0  0
  -24.8741  -27.6283   19.4676 C   0  0  0  0  0  0
  -23.6632  -29.7862   20.1587 C   0  0  0  0  0  0
  -25.4132  -36.3038   24.0304 C   0  0  1  0  0  0
  -20.5873  -28.3723   23.1258 C   0  0  2  0  0  0
  -20.6749  -26.9436   22.5438 C   0  0  0  0  0  0
  -19.5741  -26.6389   21.5227 C   0  0  0  0  0  0
  -18.1902  -26.7939   22.1616 C   0  0  0  0  0  0
  -19.1511  -28.8884   23.2835 C   0  0  0  0  0  0
  -18.9433  -30.1460   23.8874 C   0  0  0  0  0  0
  -17.6439  -30.6601   24.0543 C   0  0  0  0  0  0
  -25.9092  -34.9416   23.5046 C   0  0  0  0  0  0
  -16.5331  -29.9089   23.6350 C   0  0  0  0  0  0
  -16.7240  -28.6512   23.0376 C   0  0  0  0  0  0
  -26.4569  -31.6568   25.0723 C   0  0  0  0  0  0
  -25.3754  -31.3723   26.1399 C   0  0  0  0  0  0
  -27.0422  -30.2947   24.6318 C   0  0  0  0  0  0
  -27.6111  -32.4338   25.7499 C   0  0  0  0  0  0
  -27.5568  -37.1772   24.8459 C   0  0  0  0  0  0
  -21.4249  -29.3018   22.3632 N   0  0  0  0  0  0
  -26.4286  -37.3758   23.9395 N   0  0  0  0  0  0
  -24.7176  -31.0251   22.0949 N   0  0  0  0  0  0
  -23.4171  -28.8104   23.3116 O   0  0  0  0  0  0
  -28.2759  -26.1563   20.2458 O   0  0  0  0  0  0
  -26.5687  -34.8919   22.4635 O   0  0  0  0  0  0
  -23.5571  -32.1337   23.7103 O   0  0  0  0  0  0
  -28.5772  -20.0521   20.8777 C   0  0  0  0  0  0
  -30.6151  -20.0337   19.7478 C   0  0  0  0  0  0
  -28.6681  -18.5884   20.9882 C   0  0  0  0  0  0
  -30.7234  -18.5783   19.8790 C   0  0  0  0  0  0
  -29.5535  -20.8977   20.2470 C   0  0  0  0  0  0
  -29.7425  -17.7378   20.5065 C   0  0  0  0  0  0
  -29.2592  -23.9570   21.9080 C   0  0  0  0  0  0
  -30.6022  -23.4783   22.0026 C   0  0  0  0  0  0
  -28.8426  -23.6386   20.5696 C   0  0  0  0  0  0
  -28.5143  -24.5713   22.8486 C   0  0  0  0  0  0
  -31.4387  -23.6229   23.0445 C   0  0  0  0  0  0
  -28.2834  -24.7330   19.8532 C   0  0  0  0  0  0
  -30.9165  -22.7647   20.7037 C   0  0  0  0  0  0
  -29.5962  -22.4124   20.1275 N   0  0  0  0  0  0
  -29.7130  -16.1859   20.6570 N   0  0  0  0  0  0
  -31.4857  -12.8180   19.1888 H   0  0  0  0  0  0
  -30.4821  -11.6995   20.0634 H   0  0  0  0  0  0
  -29.8661  -11.7242   17.6258 H   0  0  0  0  0  0
  -29.6111  -13.4514   17.6805 H   0  0  0  0  0  0
  -27.9690  -11.2759   19.0028 H   0  0  0  0  0  0
  -27.4081  -12.4392   17.8293 H   0  0  0  0  0  0
  -27.5930  -14.2521   19.4010 H   0  0  0  0  0  0
  -28.7913  -12.3354   21.4609 H   0  0  0  0  0  0
  -28.3695  -14.0019   21.7603 H   0  0  0  0  0  0
  -25.2807   -9.5649   22.4741 H   0  0  0  0  0  0
  -23.9994   -7.4643   22.7479 H   0  0  0  0  0  0
  -21.0863   -8.8807   19.8967 H   0  0  0  0  0  0
  -22.3758  -10.9673   19.6150 H   0  0  0  0  0  0
  -21.2033   -7.6154   23.9707 H   0  0  0  0  0  0
  -21.1464   -6.0527   25.9064 H   0  0  0  0  0  0
  -22.0608   -2.7614   23.2851 H   0  0  0  0  0  0
  -22.4149  -11.9900   22.4856 H   0  0  0  0  0  0
  -21.1071  -13.1159   22.2557 H   0  0  0  0  0  0
  -24.6454  -15.8469   20.5303 H   0  0  0  0  0  0
  -26.2486  -15.6389   20.0489 H   0  0  0  0  0  0
  -26.7288  -32.5296   23.1010 H   0  0  0  0  0  0
  -25.0101  -33.9643   25.0307 H   0  0  0  0  0  0
  -22.7468  -31.2868   21.3956 H   0  0  0  0  0  0
  -23.3776  -35.9537   23.3320 H   0  0  0  0  0  0
  -24.3532  -36.8842   22.2047 H   0  0  0  0  0  0
  -23.7176  -37.6414   23.6667 H   0  0  0  0  0  0
  -26.1535  -31.4743   20.6233 H   0  0  0  0  0  0
  -26.8690  -30.7560   22.0332 H   0  0  0  0  0  0
  -28.1190  -28.7780   21.2398 H   0  0  0  0  0  0
  -25.9194  -25.8142   19.0127 H   0  0  0  0  0  0
  -23.9713  -27.2883   18.9769 H   0  0  0  0  0  0
  -23.7749  -30.5652   19.4042 H   0  0  0  0  0  0
  -22.7745  -29.2254   19.8632 H   0  0  0  0  0  0
  -25.1319  -36.1889   25.0797 H   0  0  0  0  0  0
  -20.9901  -28.3315   24.1397 H   0  0  0  0  0  0
  -20.5625  -26.2351   23.3656 H   0  0  0  0  0  0
  -21.6626  -26.7462   22.1236 H   0  0  0  0  0  0
  -19.6938  -25.6301   21.1249 H   0  0  0  0  0  0
  -19.6676  -27.3213   20.6764 H   0  0  0  0  0  0
  -17.4176  -26.6646   21.4004 H   0  0  0  0  0  0
  -18.0304  -26.0101   22.9038 H   0  0  0  0  0  0
  -19.7910  -30.7227   24.2301 H   0  0  0  0  0  0
  -17.5008  -31.6298   24.5114 H   0  0  0  0  0  0
  -15.5337  -30.2982   23.7702 H   0  0  0  0  0  0
  -15.8630  -28.0796   22.7173 H   0  0  0  0  0  0
  -24.5974  -30.7054   25.7657 H   0  0  0  0  0  0
  -24.8937  -32.2883   26.4822 H   0  0  0  0  0  0
  -25.8049  -30.8875   27.0175 H   0  0  0  0  0  0
  -26.3031  -29.6669   24.1330 H   0  0  0  0  0  0
  -27.3966  -29.7256   25.4926 H   0  0  0  0  0  0
  -27.8977  -30.4130   23.9667 H   0  0  0  0  0  0
  -27.2724  -33.3634   26.2089 H   0  0  0  0  0  0
  -28.3931  -32.6905   25.0338 H   0  0  0  0  0  0
  -28.0812  -31.8481   26.5407 H   0  0  0  0  0  0
  -28.2619  -38.0055   24.7535 H   0  0  0  0  0  0
  -28.1040  -36.2581   24.6289 H   0  0  0  0  0  0
  -27.2271  -37.1403   25.8862 H   0  0  0  0  0  0
  -20.9494  -29.8654   21.6717 H   0  0  0  0  0  0
  -26.0172  -38.2819   24.1446 H   0  0  0  0  0  0
  -27.7164  -20.5348   21.3171 H   0  0  0  0  0  0
  -31.4419  -20.5139   19.2415 H   0  0  0  0  0  0
  -27.8428  -18.1012   21.4862 H   0  0  0  0  0  0
  -31.6036  -18.1036   19.4692 H   0  0  0  0  0  0
  -28.8791  -24.7872   23.8421 H   0  0  0  0  0  0
  -27.4979  -24.8735   22.6273 H   0  0  0  0  0  0
  -31.1498  -24.1460   23.9449 H   0  0  0  0  0  0
  -32.4448  -23.2324   23.0062 H   0  0  0  0  0  0
  -28.1217  -24.6488   18.7859 H   0  0  0  0  0  0
  -31.6224  -21.9577   20.8970 H   0  0  0  0  0  0
  -31.4164  -23.4774   20.0432 H   0  0  0  0  0  0
  -28.8226  -15.8734   21.0132 H   0  0  0  0  0  0
  1 25  1  0  0  0
  1 30  2  0  0  0
  1 85  1  0  0  0
  2  3  1  0  0  0
  2 25  1  0  0  0
  2 86  1  0  0  0
  2 87  1  0  0  0
  3  4  1  0  0  0
  3 88  1  0  0  0
  3 89  1  0  0  0
  4  5  1  0  0  0
  4 90  1  0  0  0
  4 91  1  0  0  0
  5  6  1  0  0  0
  5 26  1  0  0  0
  5 92  1  0  0  0
  6 25  1  0  0  0
  6 93  1  0  0  0
  6 94  1  0  0  0
  7  8  2  0  0  0
  7 26  1  0  0  0
  7 29  1  0  0  0
  8  9  1  0  0  0
  8 22  1  0  0  0
  9 10  1  0  0  0
  9 27  2  0  0  0
 10 11  2  0  0  0
 10 15  1  0  0  0
 11 12  1  0  0  0
 11 95  1  0  0  0
 12 13  2  0  0  0
 12 96  1  0  0  0
 13 14  1  0  0  0
 13 31  1  0  0  0
 14 15  2  0  0  0
 14 97  1  0  0  0
 15 98  1  0  0  0
 16 17  2  0  0  0
 16 21  1  0  0  0
 16 31  1  0  0  0
 17 18  1  0  0  0
 17 99  1  0  0  0
 18 19  2  0  0  0
 18100  1  0  0  0
 19 20  1  0  0  0
 19 24  1  0  0  0
 20 21  2  0  0  0
 20101  1  0  0  0
 21 23  1  0  0  0
 22 28  1  0  0  0
 22 32  2  0  0  0
 26 27  1  0  0  0
 28102  1  0  0  0
 28103  1  0  0  0
 29104  1  0  0  0
 29105  1  0  0  0
 33 34  1  0  0  0
 33 66  1  0  0  0
 33 70  2  0  0  0
 34 36  1  0  0  0
 34 59  1  0  0  0
 34106  1  0  0  0
 35 44  2  0  0  0
 35 45  1  0  0  0
 35 68  1  0  0  0
 36 56  1  0  0  0
 36107  1  0  0  0
 37 39  1  0  0  0
 37 47  1  0  0  0
 37 66  1  0  0  0
 37108  1  0  0  0
 38 43  2  0  0  0
 38 46  1  0  0  0
 38 47  1  0  0  0
 39 64  1  0  0  0
 39 67  2  0  0  0
 40 52  1  0  0  0
 40 53  2  0  0  0
 40 58  1  0  0  0
 41109  1  0  0  0
 41110  1  0  0  0
 41111  1  0  0  0
 41 48  1  0  0  0
 42 43  1  0  0  0
 42 66  1  0  0  0
 42112  1  0  0  0
 42113  1  0  0  0
 43 44  1  0  0  0
 44114  1  0  0  0
 45 46  2  0  0  0
 45115  1  0  0  0
 46116  1  0  0  0
 47117  1  0  0  0
 47118  1  0  0  0
 48 56  1  0  0  0
 48 65  1  0  0  0
 48119  1  0  0  0
 49 50  1  0  0  0
 49 53  1  0  0  0
 49 64  1  0  0  0
 49120  1  0  0  0
 50 51  1  0  0  0
 50121  1  0  0  0
 50122  1  0  0  0
 51 52  1  0  0  0
 51123  1  0  0  0
 51124  1  0  0  0
 52125  1  0  0  0
 52126  1  0  0  0
 53 54  1  0  0  0
 54 55  2  0  0  0
 54127  1  0  0  0
 55 57  1  0  0  0
 55128  1  0  0  0
 56 69  2  0  0  0
 57 58  2  0  0  0
 57129  1  0  0  0
 58130  1  0  0  0
 59 60  1  0  0  0
 59 61  1  0  0  0
 59 62  1  0  0  0
 60131  1  0  0  0
 60132  1  0  0  0
 60133  1  0  0  0
 61134  1  0  0  0
 61135  1  0  0  0
 61136  1  0  0  0
 62137  1  0  0  0
 62138  1  0  0  0
 62139  1  0  0  0
 63 65  1  0  0  0
 63140  1  0  0  0
 63141  1  0  0  0
 63142  1  0  0  0
 64143  1  0  0  0
 65144  1  0  0  0
 68 82  1  0  0  0
 71 73  2  0  0  0
 71 75  1  0  0  0
 71145  1  0  0  0
 72 74  1  0  0  0
 72 75  2  0  0  0
 72146  1  0  0  0
 73 76  1  0  0  0
 73147  1  0  0  0
 74 76  2  0  0  0
 74148  1  0  0  0
 75 84  1  0  0  0
 76 85  1  0  0  0
 77 78  1  0  0  0
 77 79  1  0  0  0
 77 80  2  0  0  0
 78 81  2  0  0  0
 78 83  1  0  0  0
 79 82  2  0  0  0
 79 84  1  0  0  0
 80149  1  0  0  0
 80150  1  0  0  0
 81151  1  0  0  0
 81152  1  0  0  0
 82153  1  0  0  0
 83 84  1  0  0  0
 83154  1  0  0  0
 83155  1  0  0  0
 85156  1  0  0  0
M  ISO  4   1 100  68 101  82 101  85 100
M  END
> <chiral flag>
0

> <version>
0

> <s_m_source_file>
/data/baiqing/PycharmProjects/Reinvent-master-3.2/result/LINK_invent/BTK/process_docking_weight1_custom_product_contain_oxygen_bond_distance_aromatic_linkinvent_7_9_3/rearranged_h_0080.sdf

> <i_m_source_file_index>
78

> <r_mmod_Potential_Energy-OPLS-2005>
743.95166015625

> <r_mmod_Stretch_Energy-OPLS-2005>
262.684143066406

> <r_mmod_Bend_Energy-OPLS-2005>
408.831420898438

> <r_mmod_Torsional_Energy-OPLS-2005>
317.0283203125

> <r_mmod_Improper_Torsional_Energy-OPLS-2005>
12.1758365631104

> <r_mmod_Van_der_Waal_Energy-OPLS-2005>
135.680892944336

> <r_mmod_Electrostatic_Energy-OPLS-2005>
-411.36279296875

> <r_mmod_Solvation_Energy-OPLS-2005>
-207.852478027344

> <b_mmod_Minimization_Converged-OPLS-2005>
0

> <r_mmod_RMS_Derivative-OPLS-2005>
4.81962442398071

$$$$
78
                    3D
 Structure written by MMmdl.
157166  0  0  1  0            999 V2000
  -30.5844  -14.7038   20.4715 C   0  0  0  0  0  0
  -30.4486  -12.4283   19.4579 C   0  0  0  0  0  0
  -29.5149  -12.5084   18.2284 C   0  0  0  0  0  0
  -28.0382  -12.3335   18.6400 C   0  0  0  0  0  0
  -27.6501  -13.2153   19.8558 C   0  0  2  0  0  0
  -28.6964  -13.0995   20.9878 C   0  0  0  0  0  0
  -25.2558  -13.8163   20.5677 C   0  0  0  0  0  0
  -24.1825  -13.0431   20.9178 C   0  0  0  0  0  0
  -24.6392  -11.6899   20.8730 C   0  0  0  0  0  0
  -23.9056  -10.4291   21.0400 C   0  0  0  0  0  0
  -24.3607   -9.4209   21.9175 C   0  0  0  0  0  0
  -23.6288   -8.2245   22.0751 C   0  0  0  0  0  0
  -22.4267   -8.0282   21.3547 C   0  0  0  0  0  0
  -21.9899   -9.0254   20.4649 C   0  0  0  0  0  0
  -22.7228  -10.2134   20.3055 C   0  0  0  0  0  0
  -21.6856   -6.0732   22.5277 C   0  0  0  0  0  0
  -21.4020   -6.5631   23.8210 C   0  0  0  0  0  0
  -21.3657   -5.6779   24.9170 C   0  0  0  0  0  0
  -21.6044   -4.3047   24.7217 C   0  0  0  0  0  0
  -21.8821   -3.8141   23.4338 C   0  0  0  0  0  0
  -21.9196   -4.6960   22.3396 C   0  0  0  0  0  0
  -22.7851  -13.5234   21.1843 C   0  0  0  0  0  0
  -22.1664   -4.2148   21.0974 F   0  0  0  0  0  0
  -21.5624   -3.4528   25.7731 F   0  0  0  0  0  0
  -30.0048  -13.4592   20.4176 N   0  0  0  0  0  0
  -26.2974  -12.9337   20.3278 N   0  0  0  0  0  0
  -25.9317  -11.6495   20.5727 N   0  0  0  0  0  0
  -22.0487  -12.8238   22.0409 N   0  0  0  0  0  0
  -25.4265  -15.1886   20.4102 N   0  0  0  0  0  0
  -31.7666  -14.8713   20.1530 O   0  0  0  0  0  0
  -21.6640   -6.8876   21.4241 O   0  0  0  0  0  0
  -22.3543  -14.5547   20.6699 O   0  0  0  0  0  0
  -24.6303  -31.8578   23.1973 C   0  0  0  0  0  0
  -25.9130  -32.4763   23.8329 C   0  0  1  0  0  0
  -27.2265  -27.2820   20.1139 C   0  0  0  0  0  0
  -25.5932  -33.8563   24.2264 N   0  0  0  0  0  0
  -23.4256  -30.4812   21.5416 C   0  0  2  0  0  0
  -24.8702  -28.9279   20.1144 C   0  0  0  0  0  0
  -22.7504  -29.4622   22.4912 C   0  0  0  0  0  0
  -18.0303  -28.1388   22.8469 C   0  0  0  0  0  0
  -24.1514  -36.7310   23.2626 C   0  0  0  0  0  0
  -25.9701  -30.7796   21.3682 C   0  0  0  0  0  0
  -26.0438  -29.4016   20.7138 C   0  0  0  0  0  0
  -27.2221  -28.5908   20.7023 C   0  0  0  0  0  0
  -26.0119  -26.8555   19.5279 C   0  0  0  0  0  0
  -24.8573  -27.6603   19.5151 C   0  0  0  0  0  0
  -23.6424  -29.8155   20.1580 C   0  0  0  0  0  0
  -25.4121  -36.3073   24.0329 C   0  0  1  0  0  0
  -20.5906  -28.3698   23.1277 C   0  0  2  0  0  0
  -20.6794  -26.9416   22.5410 C   0  0  0  0  0  0
  -19.5771  -26.6385   21.5208 C   0  0  0  0  0  0
  -18.1950  -26.7925   22.1617 C   0  0  0  0  0  0
  -19.1552  -28.8858   23.2867 C   0  0  0  0  0  0
  -18.9464  -30.1457   23.8889 C   0  0  0  0  0  0
  -17.6461  -30.6581   24.0560 C   0  0  0  0  0  0
  -25.9057  -34.9447   23.5099 C   0  0  0  0  0  0
  -16.5354  -29.9074   23.6325 C   0  0  0  0  0  0
  -16.7288  -28.6500   23.0327 C   0  0  0  0  0  0
  -26.4490  -31.6550   25.0699 C   0  0  0  0  0  0
  -25.3707  -31.3719   26.1420 C   0  0  0  0  0  0
  -27.0264  -30.2945   24.6137 C   0  0  0  0  0  0
  -27.6083  -32.4231   25.7472 C   0  0  0  0  0  0
  -27.5600  -37.1805   24.8447 C   0  0  0  0  0  0
  -21.4210  -29.3054   22.3667 N   0  0  0  0  0  0
  -26.4294  -37.3767   23.9412 N   0  0  0  0  0  0
  -24.6956  -31.0572   22.0932 N   0  0  0  0  0  0
  -23.4215  -28.8158   23.2994 O   0  0  0  0  0  0
  -28.3497  -26.4228   20.1706 O   0  0  0  0  0  0
  -26.5625  -34.8920   22.4669 O   0  0  0  0  0  0
  -23.5455  -32.1385   23.7279 O   0  0  0  0  0  0
  -28.6390  -19.3161   19.7578 C   0  0  0  0  0  0
  -30.5152  -19.4901   21.2352 C   0  0  0  0  0  0
  -28.7646  -17.8902   19.7894 C   0  0  0  0  0  0
  -30.6635  -18.0618   21.2393 C   0  0  0  0  0  0
  -29.4912  -20.1748   20.5076 C   0  0  0  0  0  0
  -29.7720  -17.2105   20.5324 C   0  0  0  0  0  0
  -28.7251  -23.9362   20.2629 C   0  0  0  0  0  0
  -29.0990  -23.7590   21.6444 C   0  0  0  0  0  0
  -28.8300  -22.5563   19.6778 C   0  0  0  0  0  0
  -28.9955  -24.6754   22.6234 C   0  0  0  0  0  0
  -28.3844  -25.1170   19.5992 C   0  0  0  0  0  0
  -29.5820  -22.3424   21.8741 C   0  0  0  0  0  0
  -28.1793  -25.1718   18.0883 C   0  0  0  0  0  0
  -29.2911  -21.6467   20.6157 N   0  0  0  0  0  0
  -29.7084  -15.7460   20.6808 N   0  0  0  0  0  0
  -28.5550  -22.2332   18.5174 O   0  0  0  0  0  0
  -31.4871  -12.5719   19.1527 H   0  0  0  0  0  0
  -30.4032  -11.4391   19.9152 H   0  0  0  0  0  0
  -29.7910  -11.7503   17.4940 H   0  0  0  0  0  0
  -29.6458  -13.4720   17.7332 H   0  0  0  0  0  0
  -27.8850  -11.2810   18.8834 H   0  0  0  0  0  0
  -27.3842  -12.5472   17.7937 H   0  0  0  0  0  0
  -27.6571  -14.2431   19.4934 H   0  0  0  0  0  0
  -28.7228  -12.0847   21.3874 H   0  0  0  0  0  0
  -28.4335  -13.7451   21.8276 H   0  0  0  0  0  0
  -25.2754   -9.5690   22.4741 H   0  0  0  0  0  0
  -24.0000   -7.4638   22.7465 H   0  0  0  0  0  0
  -21.0828   -8.8769   19.8955 H   0  0  0  0  0  0
  -22.3677  -10.9667   19.6164 H   0  0  0  0  0  0
  -21.2018   -7.6140   23.9714 H   0  0  0  0  0  0
  -21.1475   -6.0509   25.9072 H   0  0  0  0  0  0
  -22.0604   -2.7605   23.2838 H   0  0  0  0  0  0
  -22.4081  -11.9886   22.4796 H   0  0  0  0  0  0
  -21.1124  -13.1300   22.2624 H   0  0  0  0  0  0
  -24.6581  -15.8408   20.5224 H   0  0  0  0  0  0
  -26.2695  -15.6315   20.0711 H   0  0  0  0  0  0
  -26.7197  -32.5431   23.1076 H   0  0  0  0  0  0
  -25.0066  -33.9709   25.0400 H   0  0  0  0  0  0
  -22.7194  -31.3017   21.3964 H   0  0  0  0  0  0
  -23.3766  -35.9648   23.3233 H   0  0  0  0  0  0
  -24.3631  -36.8976   22.2052 H   0  0  0  0  0  0
  -23.7276  -37.6507   23.6677 H   0  0  0  0  0  0
  -26.0956  -31.5361   20.5921 H   0  0  0  0  0  0
  -26.8537  -30.8386   21.9919 H   0  0  0  0  0  0
  -28.1242  -28.9515   21.1763 H   0  0  0  0  0  0
  -25.9184  -25.8701   19.0988 H   0  0  0  0  0  0
  -23.9513  -27.2805   19.0639 H   0  0  0  0  0  0
  -23.7698  -30.5917   19.4023 H   0  0  0  0  0  0
  -22.7602  -29.2510   19.8518 H   0  0  0  0  0  0
  -25.1285  -36.1924   25.0814 H   0  0  0  0  0  0
  -20.9992  -28.3275   24.1401 H   0  0  0  0  0  0
  -20.5701  -26.2300   23.3606 H   0  0  0  0  0  0
  -21.6668  -26.7451   22.1209 H   0  0  0  0  0  0
  -19.6937  -25.6293   21.1250 H   0  0  0  0  0  0
  -19.6711  -27.3186   20.6729 H   0  0  0  0  0  0
  -17.4221  -26.6654   21.4024 H   0  0  0  0  0  0
  -18.0349  -26.0073   22.9022 H   0  0  0  0  0  0
  -19.7936  -30.7275   24.2258 H   0  0  0  0  0  0
  -17.5012  -31.6262   24.5157 H   0  0  0  0  0  0
  -15.5352  -30.2965   23.7657 H   0  0  0  0  0  0
  -15.8689  -28.0828   22.7023 H   0  0  0  0  0  0
  -24.5922  -30.7007   25.7772 H   0  0  0  0  0  0
  -24.8844  -32.2887   26.4772 H   0  0  0  0  0  0
  -25.8026  -30.8978   27.0243 H   0  0  0  0  0  0
  -26.2797  -29.6752   24.1150 H   0  0  0  0  0  0
  -27.3905  -29.7157   25.4635 H   0  0  0  0  0  0
  -27.8713  -30.4170   23.9353 H   0  0  0  0  0  0
  -27.2738  -33.3537   26.2070 H   0  0  0  0  0  0
  -28.3904  -32.6755   25.0299 H   0  0  0  0  0  0
  -28.0728  -31.8311   26.5369 H   0  0  0  0  0  0
  -28.2565  -38.0150   24.7525 H   0  0  0  0  0  0
  -28.1149  -36.2685   24.6206 H   0  0  0  0  0  0
  -27.2340  -37.1367   25.8851 H   0  0  0  0  0  0
  -20.9386  -29.8771   21.6879 H   0  0  0  0  0  0
  -26.0177  -38.2850   24.1381 H   0  0  0  0  0  0
  -27.8265  -19.7443   19.1871 H   0  0  0  0  0  0
  -31.2081  -20.0642   21.8332 H   0  0  0  0  0  0
  -28.0367  -17.3083   19.2420 H   0  0  0  0  0  0
  -31.4410  -17.6229   21.8489 H   0  0  0  0  0  0
  -28.6184  -25.6716   22.4491 H   0  0  0  0  0  0
  -29.2836  -24.4317   23.6365 H   0  0  0  0  0  0
  -29.0495  -21.8765   22.7047 H   0  0  0  0  0  0
  -30.6514  -22.3387   22.0876 H   0  0  0  0  0  0
  -29.0606  -24.7878   17.5747 H   0  0  0  0  0  0
  -28.0235  -26.1898   17.7311 H   0  0  0  0  0  0
  -27.3217  -24.5689   17.7877 H   0  0  0  0  0  0
  -28.7715  -15.3981   20.8122 H   0  0  0  0  0  0
  1 25  1  0  0  0
  1 30  2  0  0  0
  1 85  1  0  0  0
  2  3  1  0  0  0
  2 25  1  0  0  0
  2 87  1  0  0  0
  2 88  1  0  0  0
  3  4  1  0  0  0
  3 89  1  0  0  0
  3 90  1  0  0  0
  4  5  1  0  0  0
  4 91  1  0  0  0
  4 92  1  0  0  0
  5  6  1  0  0  0
  5 26  1  0  0  0
  5 93  1  0  0  0
  6 25  1  0  0  0
  6 94  1  0  0  0
  6 95  1  0  0  0
  7  8  2  0  0  0
  7 26  1  0  0  0
  7 29  1  0  0  0
  8  9  1  0  0  0
  8 22  1  0  0  0
  9 10  1  0  0  0
  9 27  2  0  0  0
 10 11  2  0  0  0
 10 15  1  0  0  0
 11 12  1  0  0  0
 11 96  1  0  0  0
 12 13  2  0  0  0
 12 97  1  0  0  0
 13 14  1  0  0  0
 13 31  1  0  0  0
 14 15  2  0  0  0
 14 98  1  0  0  0
 15 99  1  0  0  0
 16 17  2  0  0  0
 16 21  1  0  0  0
 16 31  1  0  0  0
 17 18  1  0  0  0
 17100  1  0  0  0
 18 19  2  0  0  0
 18101  1  0  0  0
 19 20  1  0  0  0
 19 24  1  0  0  0
 20 21  2  0  0  0
 20102  1  0  0  0
 21 23  1  0  0  0
 22 28  1  0  0  0
 22 32  2  0  0  0
 26 27  1  0  0  0
 28103  1  0  0  0
 28104  1  0  0  0
 29105  1  0  0  0
 29106  1  0  0  0
 33 34  1  0  0  0
 33 66  1  0  0  0
 33 70  2  0  0  0
 34 36  1  0  0  0
 34 59  1  0  0  0
 34107  1  0  0  0
 35 44  2  0  0  0
 35 45  1  0  0  0
 35 68  1  0  0  0
 36 56  1  0  0  0
 36108  1  0  0  0
 37 39  1  0  0  0
 37 47  1  0  0  0
 37 66  1  0  0  0
 37109  1  0  0  0
 38 43  2  0  0  0
 38 46  1  0  0  0
 38 47  1  0  0  0
 39 64  1  0  0  0
 39 67  2  0  0  0
 40 52  1  0  0  0
 40 53  2  0  0  0
 40 58  1  0  0  0
 41110  1  0  0  0
 41111  1  0  0  0
 41112  1  0  0  0
 41 48  1  0  0  0
 42 43  1  0  0  0
 42 66  1  0  0  0
 42113  1  0  0  0
 42114  1  0  0  0
 43 44  1  0  0  0
 44115  1  0  0  0
 45 46  2  0  0  0
 45116  1  0  0  0
 46117  1  0  0  0
 47118  1  0  0  0
 47119  1  0  0  0
 48 56  1  0  0  0
 48 65  1  0  0  0
 48120  1  0  0  0
 49 50  1  0  0  0
 49 53  1  0  0  0
 49 64  1  0  0  0
 49121  1  0  0  0
 50 51  1  0  0  0
 50122  1  0  0  0
 50123  1  0  0  0
 51 52  1  0  0  0
 51124  1  0  0  0
 51125  1  0  0  0
 52126  1  0  0  0
 52127  1  0  0  0
 53 54  1  0  0  0
 54 55  2  0  0  0
 54128  1  0  0  0
 55 57  1  0  0  0
 55129  1  0  0  0
 56 69  2  0  0  0
 57 58  2  0  0  0
 57130  1  0  0  0
 58131  1  0  0  0
 59 60  1  0  0  0
 59 61  1  0  0  0
 59 62  1  0  0  0
 60132  1  0  0  0
 60133  1  0  0  0
 60134  1  0  0  0
 61135  1  0  0  0
 61136  1  0  0  0
 61137  1  0  0  0
 62138  1  0  0  0
 62139  1  0  0  0
 62140  1  0  0  0
 63 65  1  0  0  0
 63141  1  0  0  0
 63142  1  0  0  0
 63143  1  0  0  0
 64144  1  0  0  0
 65145  1  0  0  0
 68 81  1  0  0  0
 71 73  2  0  0  0
 71 75  1  0  0  0
 71146  1  0  0  0
 72 74  1  0  0  0
 72 75  2  0  0  0
 72147  1  0  0  0
 73 76  1  0  0  0
 73148  1  0  0  0
 74 76  2  0  0  0
 74149  1  0  0  0
 75 84  1  0  0  0
 76 85  1  0  0  0
 77 78  1  0  0  0
 77 79  1  0  0  0
 77 81  2  0  0  0
 78 80  2  0  0  0
 78 82  1  0  0  0
 79 84  1  0  0  0
 79 86  2  0  0  0
 80150  1  0  0  0
 80151  1  0  0  0
 81 83  1  0  0  0
 82 84  1  0  0  0
 82152  1  0  0  0
 82153  1  0  0  0
 83154  1  0  0  0
 83155  1  0  0  0
 83156  1  0  0  0
 85157  1  0  0  0
M  ISO  4   1 100  68 101  81 101  85 100
M  END
> <chiral flag>
0

> <version>
0

> <s_m_source_file>
/data/baiqing/PycharmProjects/Reinvent-master-3.2/result/LINK_invent/BTK/process_docking_weight1_custom_product_contain_oxygen_bond_distance_aromatic_linkinvent_7_9_3/rearranged_h_0080.sdf

> <i_m_source_file_index>
79

> <r_mmod_Potential_Energy-OPLS-2005>
301.31689453125

> <r_mmod_Stretch_Energy-OPLS-2005>
100.55078125

> <r_mmod_Bend_Energy-OPLS-2005>
197.038452148438

> <r_mmod_Torsional_Energy-OPLS-2005>
289.120208740234

> <r_mmod_Improper_Torsional_Energy-OPLS-2005>
6.97273349761963

> <r_mmod_Van_der_Waal_Energy-OPLS-2005>
141.710571289062

> <r_mmod_Electrostatic_Energy-OPLS-2005>
-294.971588134766

> <r_mmod_Solvation_Energy-OPLS-2005>
-208.983749389648

> <b_mmod_Minimization_Converged-OPLS-2005>
0

> <r_mmod_RMS_Derivative-OPLS-2005>
1.41329073905945

$$$$
79
                    3D
 Structure written by MMmdl.
151160  0  0  1  0            999 V2000
  -30.5072  -14.8830   20.4492 C   0  0  0  0  0  0
  -30.4571  -12.5430   19.4836 C   0  0  0  0  0  0
  -29.5258  -12.5368   18.2463 C   0  0  0  0  0  0
  -28.0543  -12.3266   18.6585 C   0  0  0  0  0  0
  -27.6417  -13.2309   19.8492 C   0  0  2  0  0  0
  -28.6869  -13.1803   20.9858 C   0  0  0  0  0  0
  -25.2530  -13.8192   20.5703 C   0  0  0  0  0  0
  -24.1817  -13.0444   20.9219 C   0  0  0  0  0  0
  -24.6399  -11.6915   20.8746 C   0  0  0  0  0  0
  -23.9070  -10.4295   21.0416 C   0  0  0  0  0  0
  -24.3624   -9.4205   21.9187 C   0  0  0  0  0  0
  -23.6292   -8.2244   22.0758 C   0  0  0  0  0  0
  -22.4276   -8.0281   21.3547 C   0  0  0  0  0  0
  -21.9909   -9.0261   20.4657 C   0  0  0  0  0  0
  -22.7240  -10.2141   20.3065 C   0  0  0  0  0  0
  -21.6850   -6.0733   22.5276 C   0  0  0  0  0  0
  -21.4015   -6.5639   23.8212 C   0  0  0  0  0  0
  -21.3665   -5.6788   24.9173 C   0  0  0  0  0  0
  -21.6044   -4.3050   24.7223 C   0  0  0  0  0  0
  -21.8818   -3.8141   23.4345 C   0  0  0  0  0  0
  -21.9194   -4.6958   22.3401 C   0  0  0  0  0  0
  -22.7840  -13.5231   21.1878 C   0  0  0  0  0  0
  -22.1658   -4.2142   21.0981 F   0  0  0  0  0  0
  -21.5633   -3.4536   25.7737 F   0  0  0  0  0  0
  -29.9767  -13.5986   20.4118 N   0  0  0  0  0  0
  -26.2938  -12.9381   20.3247 N   0  0  0  0  0  0
  -25.9325  -11.6529   20.5723 N   0  0  0  0  0  0
  -22.0481  -12.8232   22.0441 N   0  0  0  0  0  0
  -25.4225  -15.1923   20.4146 N   0  0  0  0  0  0
  -31.6828  -15.0546   20.1080 O   0  0  0  0  0  0
  -21.6640   -6.8876   21.4238 O   0  0  0  0  0  0
  -22.3531  -14.5537   20.6725 O   0  0  0  0  0  0
  -24.6385  -31.8469   23.1909 C   0  0  0  0  0  0
  -25.9170  -32.4711   23.8294 C   0  0  1  0  0  0
  -27.2294  -27.1792   20.1487 C   0  0  0  0  0  0
  -25.5927  -33.8520   24.2203 N   0  0  0  0  0  0
  -23.4420  -30.4664   21.5348 C   0  0  2  0  0  0
  -24.8962  -28.8981   20.1111 C   0  0  0  0  0  0
  -22.7545  -29.4566   22.4861 C   0  0  0  0  0  0
  -18.0303  -28.1391   22.8483 C   0  0  0  0  0  0
  -24.1497  -36.7283   23.2643 C   0  0  0  0  0  0
  -25.9950  -30.7315   21.3887 C   0  0  0  0  0  0
  -26.0694  -29.3455   20.7330 C   0  0  0  0  0  0
  -27.2366  -28.4996   20.7418 C   0  0  0  0  0  0
  -26.0354  -26.8258   19.4828 C   0  0  0  0  0  0
  -24.8891  -27.6484   19.4721 C   0  0  0  0  0  0
  -23.6687  -29.7940   20.1547 C   0  0  0  0  0  0
  -25.4127  -36.3050   24.0314 C   0  0  1  0  0  0
  -20.5914  -28.3722   23.1236 C   0  0  2  0  0  0
  -20.6788  -26.9423   22.5410 C   0  0  0  0  0  0
  -19.5764  -26.6375   21.5217 C   0  0  0  0  0  0
  -18.1946  -26.7927   22.1630 C   0  0  0  0  0  0
  -19.1557  -28.8873   23.2855 C   0  0  0  0  0  0
  -18.9472  -30.1467   23.8883 C   0  0  0  0  0  0
  -17.6471  -30.6587   24.0567 C   0  0  0  0  0  0
  -25.9060  -34.9416   23.5064 C   0  0  0  0  0  0
  -16.5362  -29.9087   23.6331 C   0  0  0  0  0  0
  -16.7289  -28.6501   23.0356 C   0  0  0  0  0  0
  -26.4498  -31.6571   25.0724 C   0  0  0  0  0  0
  -25.3691  -31.3795   26.1432 C   0  0  0  0  0  0
  -27.0332  -30.2951   24.6304 C   0  0  0  0  0  0
  -27.6043  -32.4324   25.7493 C   0  0  0  0  0  0
  -27.5578  -37.1801   24.8462 C   0  0  0  0  0  0
  -21.4242  -29.3049   22.3604 N   0  0  0  0  0  0
  -26.4306  -37.3744   23.9382 N   0  0  0  0  0  0
  -24.7109  -31.0354   22.0936 N   0  0  0  0  0  0
  -23.4197  -28.8117   23.3007 O   0  0  0  0  0  0
  -28.2888  -26.2121   20.1781 O   0  0  0  0  0  0
  -26.5653  -34.8903   22.4646 O   0  0  0  0  0  0
  -23.5508  -32.1333   23.7143 O   0  0  0  0  0  0
  -29.9992  -18.6835   20.2451 C   0  0  0  0  0  0
  -28.2434  -17.8983   21.3508 C   0  0  0  0  0  0
  -29.3868  -17.4294   20.7513 C   0  0  0  0  0  0
  -29.1597  -19.7892   20.5784 C   0  0  0  0  0  0
  -28.7505  -23.6076   20.2787 C   0  0  0  0  0  0
  -30.0807  -23.3749   19.7702 C   0  0  0  0  0  0
  -28.2897  -22.2079   20.6316 C   0  0  0  0  0  0
  -30.9348  -24.3405   19.3907 C   0  0  0  0  0  0
  -28.0099  -24.8058   20.4354 C   0  0  0  0  0  0
  -30.4107  -21.8758   19.7567 C   0  0  0  0  0  0
  -29.2375  -21.2064   20.3451 N   0  0  0  0  0  0
  -29.6005  -15.9183   20.7426 N   0  0  0  0  0  0
  -27.1835  -21.9625   21.1223 O   0  0  0  0  0  0
  -28.0973  -19.2655   21.2605 O   0  0  0  0  0  0
  -31.4896  -12.7200   19.1768 H   0  0  0  0  0  0
  -30.4517  -11.5690   19.9754 H   0  0  0  0  0  0
  -29.8324  -11.7594   17.5456 H   0  0  0  0  0  0
  -29.6213  -13.4836   17.7122 H   0  0  0  0  0  0
  -27.9376  -11.2780   18.9341 H   0  0  0  0  0  0
  -27.3916  -12.4913   17.8078 H   0  0  0  0  0  0
  -27.6252  -14.2475   19.4564 H   0  0  0  0  0  0
  -28.7567  -12.1753   21.4042 H   0  0  0  0  0  0
  -28.3918  -13.8283   21.8132 H   0  0  0  0  0  0
  -25.2781   -9.5679   22.4746 H   0  0  0  0  0  0
  -23.9997   -7.4637   22.7482 H   0  0  0  0  0  0
  -21.0834   -8.8790   19.8971 H   0  0  0  0  0  0
  -22.3700  -10.9685   19.6174 H   0  0  0  0  0  0
  -21.2003   -7.6144   23.9716 H   0  0  0  0  0  0
  -21.1489   -6.0518   25.9079 H   0  0  0  0  0  0
  -22.0592   -2.7600   23.2845 H   0  0  0  0  0  0
  -22.4089  -11.9893   22.4836 H   0  0  0  0  0  0
  -21.1110  -13.1280   22.2663 H   0  0  0  0  0  0
  -24.6494  -15.8396   20.5252 H   0  0  0  0  0  0
  -26.2481  -15.6289   20.0254 H   0  0  0  0  0  0
  -26.7244  -32.5331   23.1039 H   0  0  0  0  0  0
  -25.0035  -33.9638   25.0323 H   0  0  0  0  0  0
  -22.7439  -31.2918   21.3808 H   0  0  0  0  0  0
  -23.3733  -35.9644   23.3336 H   0  0  0  0  0  0
  -24.3576  -36.8879   22.2050 H   0  0  0  0  0  0
  -23.7291  -37.6509   23.6655 H   0  0  0  0  0  0
  -26.1466  -31.4872   20.6169 H   0  0  0  0  0  0
  -26.8665  -30.7812   22.0299 H   0  0  0  0  0  0
  -28.1309  -28.8345   21.2482 H   0  0  0  0  0  0
  -25.9741  -25.8692   18.9833 H   0  0  0  0  0  0
  -23.9962  -27.3019   18.9701 H   0  0  0  0  0  0
  -23.8007  -30.5687   19.3985 H   0  0  0  0  0  0
  -22.7863  -29.2310   19.8451 H   0  0  0  0  0  0
  -25.1325  -36.1894   25.0812 H   0  0  0  0  0  0
  -21.0013  -28.3322   24.1352 H   0  0  0  0  0  0
  -20.5680  -26.2338   23.3633 H   0  0  0  0  0  0
  -21.6654  -26.7425   22.1209 H   0  0  0  0  0  0
  -19.6927  -25.6279   21.1260 H   0  0  0  0  0  0
  -19.6704  -27.3177   20.6741 H   0  0  0  0  0  0
  -17.4212  -26.6670   21.4037 H   0  0  0  0  0  0
  -18.0356  -26.0074   22.9036 H   0  0  0  0  0  0
  -19.7948  -30.7289   24.2248 H   0  0  0  0  0  0
  -17.5022  -31.6264   24.5177 H   0  0  0  0  0  0
  -15.5364  -30.2990   23.7647 H   0  0  0  0  0  0
  -15.8693  -28.0816   22.7075 H   0  0  0  0  0  0
  -24.5830  -30.7189   25.7756 H   0  0  0  0  0  0
  -24.8934  -32.3003   26.4821 H   0  0  0  0  0  0
  -25.7961  -30.8975   27.0235 H   0  0  0  0  0  0
  -26.2934  -29.6693   24.1296 H   0  0  0  0  0  0
  -27.3899  -29.7239   25.4885 H   0  0  0  0  0  0
  -27.8875  -30.4152   23.9638 H   0  0  0  0  0  0
  -27.2631  -33.3618   26.2066 H   0  0  0  0  0  0
  -28.3853  -32.6896   25.0325 H   0  0  0  0  0  0
  -28.0718  -31.8461   26.5413 H   0  0  0  0  0  0
  -28.2626  -38.0063   24.7437 H   0  0  0  0  0  0
  -28.1041  -36.2588   24.6382 H   0  0  0  0  0  0
  -27.2282  -37.1563   25.8862 H   0  0  0  0  0  0
  -20.9438  -29.8762   21.6792 H   0  0  0  0  0  0
  -26.0182  -38.2825   24.1341 H   0  0  0  0  0  0
  -30.9223  -18.7667   19.6881 H   0  0  0  0  0  0
  -27.4284  -17.4123   21.8695 H   0  0  0  0  0  0
  -30.6651  -25.3865   19.4357 H   0  0  0  0  0  0
  -31.9260  -24.1000   19.0327 H   0  0  0  0  0  0
  -27.0189  -24.7128   20.8592 H   0  0  0  0  0  0
  -31.3057  -21.6725   20.3454 H   0  0  0  0  0  0
  -30.5768  -21.5308   18.7356 H   0  0  0  0  0  0
  -28.7596  -15.4551   21.0516 H   0  0  0  0  0  0
  1 25  1  0  0  0
  1 30  2  0  0  0
  1 82  1  0  0  0
  2  3  1  0  0  0
  2 25  1  0  0  0
  2 85  1  0  0  0
  2 86  1  0  0  0
  3  4  1  0  0  0
  3 87  1  0  0  0
  3 88  1  0  0  0
  4  5  1  0  0  0
  4 89  1  0  0  0
  4 90  1  0  0  0
  5  6  1  0  0  0
  5 26  1  0  0  0
  5 91  1  0  0  0
  6 25  1  0  0  0
  6 92  1  0  0  0
  6 93  1  0  0  0
  7  8  2  0  0  0
  7 26  1  0  0  0
  7 29  1  0  0  0
  8  9  1  0  0  0
  8 22  1  0  0  0
  9 10  1  0  0  0
  9 27  2  0  0  0
 10 11  2  0  0  0
 10 15  1  0  0  0
 11 12  1  0  0  0
 11 94  1  0  0  0
 12 13  2  0  0  0
 12 95  1  0  0  0
 13 14  1  0  0  0
 13 31  1  0  0  0
 14 15  2  0  0  0
 14 96  1  0  0  0
 15 97  1  0  0  0
 16 17  2  0  0  0
 16 21  1  0  0  0
 16 31  1  0  0  0
 17 18  1  0  0  0
 17 98  1  0  0  0
 18 19  2  0  0  0
 18 99  1  0  0  0
 19 20  1  0  0  0
 19 24  1  0  0  0
 20 21  2  0  0  0
 20100  1  0  0  0
 21 23  1  0  0  0
 22 28  1  0  0  0
 22 32  2  0  0  0
 26 27  1  0  0  0
 28101  1  0  0  0
 28102  1  0  0  0
 29103  1  0  0  0
 29104  1  0  0  0
 33 34  1  0  0  0
 33 66  1  0  0  0
 33 70  2  0  0  0
 34 36  1  0  0  0
 34 59  1  0  0  0
 34105  1  0  0  0
 35 44  2  0  0  0
 35 45  1  0  0  0
 35 68  1  0  0  0
 36 56  1  0  0  0
 36106  1  0  0  0
 37 39  1  0  0  0
 37 47  1  0  0  0
 37 66  1  0  0  0
 37107  1  0  0  0
 38 43  2  0  0  0
 38 46  1  0  0  0
 38 47  1  0  0  0
 39 64  1  0  0  0
 39 67  2  0  0  0
 40 52  1  0  0  0
 40 53  2  0  0  0
 40 58  1  0  0  0
 41108  1  0  0  0
 41109  1  0  0  0
 41110  1  0  0  0
 41 48  1  0  0  0
 42 43  1  0  0  0
 42 66  1  0  0  0
 42111  1  0  0  0
 42112  1  0  0  0
 43 44  1  0  0  0
 44113  1  0  0  0
 45 46  2  0  0  0
 45114  1  0  0  0
 46115  1  0  0  0
 47116  1  0  0  0
 47117  1  0  0  0
 48 56  1  0  0  0
 48 65  1  0  0  0
 48118  1  0  0  0
 49 50  1  0  0  0
 49 53  1  0  0  0
 49 64  1  0  0  0
 49119  1  0  0  0
 50 51  1  0  0  0
 50120  1  0  0  0
 50121  1  0  0  0
 51 52  1  0  0  0
 51122  1  0  0  0
 51123  1  0  0  0
 52124  1  0  0  0
 52125  1  0  0  0
 53 54  1  0  0  0
 54 55  2  0  0  0
 54126  1  0  0  0
 55 57  1  0  0  0
 55127  1  0  0  0
 56 69  2  0  0  0
 57 58  2  0  0  0
 57128  1  0  0  0
 58129  1  0  0  0
 59 60  1  0  0  0
 59 61  1  0  0  0
 59 62  1  0  0  0
 60130  1  0  0  0
 60131  1  0  0  0
 60132  1  0  0  0
 61133  1  0  0  0
 61134  1  0  0  0
 61135  1  0  0  0
 62136  1  0  0  0
 62137  1  0  0  0
 62138  1  0  0  0
 63 65  1  0  0  0
 63139  1  0  0  0
 63140  1  0  0  0
 63141  1  0  0  0
 64142  1  0  0  0
 65143  1  0  0  0
 68 79  1  0  0  0
 71 73  1  0  0  0
 71 74  2  0  0  0
 71144  1  0  0  0
 72 73  2  0  0  0
 72 84  1  0  0  0
 72145  1  0  0  0
 73 82  1  0  0  0
 74 81  1  0  0  0
 74 84  1  0  0  0
 75 76  1  0  0  0
 75 77  1  0  0  0
 75 79  2  0  0  0
 76 78  2  0  0  0
 76 80  1  0  0  0
 77 81  1  0  0  0
 77 83  2  0  0  0
 78146  1  0  0  0
 78147  1  0  0  0
 79148  1  0  0  0
 80 81  1  0  0  0
 80149  1  0  0  0
 80150  1  0  0  0
 82151  1  0  0  0
M  ISO  4   1 100  68 101  79 101  82 100
M  END
> <chiral flag>
0

> <version>
0

> <s_m_source_file>
/data/baiqing/PycharmProjects/Reinvent-master-3.2/result/LINK_invent/BTK/process_docking_weight1_custom_product_contain_oxygen_bond_distance_aromatic_linkinvent_7_9_3/rearranged_h_0080.sdf

> <i_m_source_file_index>
80

> <r_mmod_Potential_Energy-OPLS-2005>
461.037933349609

> <r_mmod_Stretch_Energy-OPLS-2005>
174.592437744141

> <r_mmod_Bend_Energy-OPLS-2005>
317.171447753906

> <r_mmod_Torsional_Energy-OPLS-2005>
239.986541748047

> <r_mmod_Improper_Torsional_Energy-OPLS-2005>
3.7021164894104

> <r_mmod_Van_der_Waal_Energy-OPLS-2005>
110.367141723633

> <r_mmod_Electrostatic_Energy-OPLS-2005>
-318.086181640625

> <r_mmod_Solvation_Energy-OPLS-2005>
-221.177108764648

> <b_mmod_Minimization_Converged-OPLS-2005>
0

> <r_mmod_RMS_Derivative-OPLS-2005>
1.31521058082581

$$$$
80
                    3D
 Structure written by MMmdl.
155163  0  0  1  0            999 V2000
  -30.5462  -14.6236   20.5504 C   0  0  0  0  0  0
  -30.4624  -12.4016   19.4510 C   0  0  0  0  0  0
  -29.5190  -12.5038   18.2303 C   0  0  0  0  0  0
  -28.0397  -12.3191   18.6411 C   0  0  0  0  0  0
  -27.6510  -13.1894   19.8627 C   0  0  2  0  0  0
  -28.6810  -13.0003   20.9976 C   0  0  0  0  0  0
  -25.2555  -13.8109   20.5670 C   0  0  0  0  0  0
  -24.1797  -13.0426   20.9194 C   0  0  0  0  0  0
  -24.6322  -11.6878   20.8723 C   0  0  0  0  0  0
  -23.8986  -10.4299   21.0411 C   0  0  0  0  0  0
  -24.3564   -9.4217   21.9181 C   0  0  0  0  0  0
  -23.6276   -8.2225   22.0723 C   0  0  0  0  0  0
  -22.4247   -8.0269   21.3526 C   0  0  0  0  0  0
  -21.9881   -9.0230   20.4617 C   0  0  0  0  0  0
  -22.7178  -10.2134   20.3037 C   0  0  0  0  0  0
  -21.6858   -6.0727   22.5282 C   0  0  0  0  0  0
  -21.4026   -6.5635   23.8220 C   0  0  0  0  0  0
  -21.3651   -5.6761   24.9176 C   0  0  0  0  0  0
  -21.6020   -4.3022   24.7205 C   0  0  0  0  0  0
  -21.8827   -3.8144   23.4330 C   0  0  0  0  0  0
  -21.9208   -4.6963   22.3400 C   0  0  0  0  0  0
  -22.7835  -13.5259   21.1872 C   0  0  0  0  0  0
  -22.1674   -4.2166   21.0966 F   0  0  0  0  0  0
  -21.5618   -3.4497   25.7708 F   0  0  0  0  0  0
  -30.0012  -13.3756   20.4538 N   0  0  0  0  0  0
  -26.2918  -12.9214   20.3226 N   0  0  0  0  0  0
  -25.9226  -11.6410   20.5679 N   0  0  0  0  0  0
  -22.0445  -12.8229   22.0407 N   0  0  0  0  0  0
  -25.4374  -15.1806   20.4147 N   0  0  0  0  0  0
  -31.6950  -14.8743   20.1752 O   0  0  0  0  0  0
  -21.6611   -6.8862   21.4239 O   0  0  0  0  0  0
  -22.3545  -14.5588   20.6732 O   0  0  0  0  0  0
  -24.6136  -31.8714   23.2077 C   0  0  0  0  0  0
  -25.9003  -32.4880   23.8401 C   0  0  1  0  0  0
  -27.2135  -27.3970   20.0703 C   0  0  0  0  0  0
  -25.5794  -33.8659   24.2325 N   0  0  0  0  0  0
  -23.4023  -30.5070   21.5480 C   0  0  2  0  0  0
  -24.8410  -28.9693   20.1145 C   0  0  0  0  0  0
  -22.7399  -29.4767   22.4942 C   0  0  0  0  0  0
  -18.0255  -28.1478   22.8544 C   0  0  0  0  0  0
  -24.1435  -36.7313   23.2655 C   0  0  0  0  0  0
  -25.9349  -30.8349   21.3560 C   0  0  0  0  0  0
  -26.0118  -29.4627   20.7015 C   0  0  0  0  0  0
  -27.2001  -28.6835   20.6790 C   0  0  0  0  0  0
  -26.0029  -26.9247   19.5048 C   0  0  0  0  0  0
  -24.8305  -27.6989   19.5193 C   0  0  0  0  0  0
  -23.6093  -29.8467   20.1627 C   0  0  0  0  0  0
  -25.4081  -36.3174   24.0363 C   0  0  1  0  0  0
  -20.5848  -28.3731   23.1337 C   0  0  2  0  0  0
  -20.6730  -26.9466   22.5459 C   0  0  0  0  0  0
  -19.5697  -26.6478   21.5246 C   0  0  0  0  0  0
  -18.1882  -26.8045   22.1667 C   0  0  0  0  0  0
  -19.1525  -28.8902   23.2949 C   0  0  0  0  0  0
  -18.9465  -30.1516   23.8978 C   0  0  0  0  0  0
  -17.6489  -30.6687   24.0627 C   0  0  0  0  0  0
  -25.9031  -34.9538   23.5178 C   0  0  0  0  0  0
  -16.5383  -29.9246   23.6357 C   0  0  0  0  0  0
  -16.7260  -28.6644   23.0411 C   0  0  0  0  0  0
  -26.4414  -31.6671   25.0745 C   0  0  0  0  0  0
  -25.3613  -31.3793   26.1443 C   0  0  0  0  0  0
  -27.0217  -30.3121   24.6106 C   0  0  0  0  0  0
  -27.6033  -32.4322   25.7456 C   0  0  0  0  0  0
  -27.5564  -37.1827   24.8473 C   0  0  0  0  0  0
  -21.4106  -29.3120   22.3718 N   0  0  0  0  0  0
  -26.4270  -37.3870   23.9453 N   0  0  0  0  0  0
  -24.6711  -31.0852   22.0952 N   0  0  0  0  0  0
  -23.4164  -28.8292   23.2984 O   0  0  0  0  0  0
  -28.3664  -26.6102   20.0868 O   0  0  0  0  0  0
  -26.5677  -34.8984   22.4794 O   0  0  0  0  0  0
  -23.5352  -32.1444   23.7484 O   0  0  0  0  0  0
  -29.4074  -18.6499   22.9892 C   0  0  0  0  0  0
  -29.1620  -19.6542   22.0323 C   0  0  0  0  0  0
  -29.6457  -17.3179   22.5873 C   0  0  0  0  0  0
  -29.4394  -18.0027   20.2535 C   0  0  0  0  0  0
  -29.1514  -19.3542   20.6456 C   0  0  0  0  0  0
  -29.6754  -16.9714   21.2154 C   0  0  0  0  0  0
  -28.7820  -20.4274   19.6576 C   0  0  0  0  0  0
  -28.6482  -24.3069   19.8867 C   0  0  0  0  0  0
  -28.5591  -22.9331   19.1754 C   0  0  0  0  0  0
  -29.1733  -24.2598   21.3176 C   0  0  0  0  0  0
  -28.2817  -25.4045   19.3071 N   0  0  0  0  0  0
  -29.6211  -15.5718   20.8870 N   0  0  0  0  0  0
  -28.8786  -21.7531   19.9802 N   0  0  0  0  0  0
  -28.3093  -20.0585   18.4571 N   0  3  0  0  0  0
  -28.2229  -22.8301   17.9852 O   0  0  0  0  0  0
  -31.4926  -12.6008   19.1446 H   0  0  0  0  0  0
  -30.4625  -11.3979   19.8784 H   0  0  0  0  0  0
  -29.8009  -11.7601   17.4832 H   0  0  0  0  0  0
  -29.6429  -13.4748   17.7489 H   0  0  0  0  0  0
  -27.8912  -11.2665   18.8883 H   0  0  0  0  0  0
  -27.3819  -12.5284   17.7963 H   0  0  0  0  0  0
  -27.6793  -14.2233   19.5218 H   0  0  0  0  0  0
  -28.6887  -11.9636   21.3339 H   0  0  0  0  0  0
  -28.4037  -13.5853   21.8772 H   0  0  0  0  0  0
  -25.2718   -9.5703   22.4734 H   0  0  0  0  0  0
  -24.0016   -7.4602   22.7425 H   0  0  0  0  0  0
  -21.0828   -8.8742   19.8909 H   0  0  0  0  0  0
  -22.3661  -10.9656   19.6123 H   0  0  0  0  0  0
  -21.2029   -7.6133   23.9738 H   0  0  0  0  0  0
  -21.1452   -6.0470   25.9071 H   0  0  0  0  0  0
  -22.0620   -2.7612   23.2797 H   0  0  0  0  0  0
  -22.4019  -11.9903   22.4814 H   0  0  0  0  0  0
  -21.1046  -13.1259   22.2540 H   0  0  0  0  0  0
  -24.6800  -15.8444   20.5313 H   0  0  0  0  0  0
  -26.2763  -15.6125   20.0482 H   0  0  0  0  0  0
  -26.7049  -32.5628   23.1176 H   0  0  0  0  0  0
  -24.9660  -33.9753   25.0264 H   0  0  0  0  0  0
  -22.6952  -31.3280   21.4183 H   0  0  0  0  0  0
  -23.3723  -35.9606   23.3365 H   0  0  0  0  0  0
  -24.3492  -36.8905   22.2051 H   0  0  0  0  0  0
  -23.7121  -37.6510   23.6624 H   0  0  0  0  0  0
  -26.0349  -31.6009   20.5858 H   0  0  0  0  0  0
  -26.8235  -30.9038   21.9684 H   0  0  0  0  0  0
  -28.1009  -29.0686   21.1339 H   0  0  0  0  0  0
  -25.9263  -25.9467   19.0517 H   0  0  0  0  0  0
  -23.9173  -27.3166   19.0874 H   0  0  0  0  0  0
  -23.7259  -30.6204   19.4043 H   0  0  0  0  0  0
  -22.7235  -29.2840   19.8606 H   0  0  0  0  0  0
  -25.1265  -36.2071   25.0855 H   0  0  0  0  0  0
  -20.9995  -28.3348   24.1427 H   0  0  0  0  0  0
  -20.5609  -26.2387   23.3681 H   0  0  0  0  0  0
  -21.6630  -26.7527   22.1295 H   0  0  0  0  0  0
  -19.6833  -25.6372   21.1304 H   0  0  0  0  0  0
  -19.6631  -27.3264   20.6753 H   0  0  0  0  0  0
  -17.4163  -26.6831   21.4042 H   0  0  0  0  0  0
  -18.0246  -26.0180   22.9058 H   0  0  0  0  0  0
  -19.7953  -30.7302   24.2404 H   0  0  0  0  0  0
  -17.5088  -31.6377   24.5252 H   0  0  0  0  0  0
  -15.5406  -30.3235   23.7608 H   0  0  0  0  0  0
  -15.8651  -28.0994   22.7155 H   0  0  0  0  0  0
  -24.5808  -30.7126   25.7794 H   0  0  0  0  0  0
  -24.8710  -32.2909   26.4837 H   0  0  0  0  0  0
  -25.7890  -30.9015   27.0258 H   0  0  0  0  0  0
  -26.2766  -29.6918   24.1117 H   0  0  0  0  0  0
  -27.3942  -29.7376   25.4610 H   0  0  0  0  0  0
  -27.8622  -30.4494   23.9295 H   0  0  0  0  0  0
  -27.2771  -33.3675   26.2005 H   0  0  0  0  0  0
  -28.3818  -32.6786   25.0221 H   0  0  0  0  0  0
  -28.0670  -31.8395   26.5352 H   0  0  0  0  0  0
  -28.2707  -38.0037   24.7585 H   0  0  0  0  0  0
  -28.0974  -36.2609   24.6265 H   0  0  0  0  0  0
  -27.2294  -37.1472   25.8885 H   0  0  0  0  0  0
  -20.9237  -29.8912   21.7003 H   0  0  0  0  0  0
  -26.0188  -38.2959   24.1483 H   0  0  0  0  0  0
  -29.3653  -18.8935   24.0452 H   0  0  0  0  0  0
  -28.9493  -20.6507   22.3996 H   0  0  0  0  0  0
  -29.7447  -16.5590   23.3514 H   0  0  0  0  0  0
  -29.3983  -17.7362   19.2059 H   0  0  0  0  0  0
  -30.2224  -23.9622   21.3117 H   0  0  0  0  0  0
  -28.5994  -23.5443   21.9095 H   0  0  0  0  0  0
  -29.1049  -25.2186   21.8259 H   0  0  0  0  0  0
  -28.7387  -15.1440   21.1261 H   0  0  0  0  0  0
  -29.1731  -21.8774   20.9356 H   0  0  0  0  0  0
  -28.0802  -19.0968   18.2581 H   0  0  0  0  0  0
  -28.1250  -20.7674   17.7558 H   0  0  0  0  0  0
  1 25  1  0  0  0
  1 30  2  0  0  0
  1 82  1  0  0  0
  2  3  1  0  0  0
  2 25  1  0  0  0
  2 86  1  0  0  0
  2 87  1  0  0  0
  3  4  1  0  0  0
  3 88  1  0  0  0
  3 89  1  0  0  0
  4  5  1  0  0  0
  4 90  1  0  0  0
  4 91  1  0  0  0
  5  6  1  0  0  0
  5 26  1  0  0  0
  5 92  1  0  0  0
  6 25  1  0  0  0
  6 93  1  0  0  0
  6 94  1  0  0  0
  7  8  2  0  0  0
  7 26  1  0  0  0
  7 29  1  0  0  0
  8  9  1  0  0  0
  8 22  1  0  0  0
  9 10  1  0  0  0
  9 27  2  0  0  0
 10 11  2  0  0  0
 10 15  1  0  0  0
 11 12  1  0  0  0
 11 95  1  0  0  0
 12 13  2  0  0  0
 12 96  1  0  0  0
 13 14  1  0  0  0
 13 31  1  0  0  0
 14 15  2  0  0  0
 14 97  1  0  0  0
 15 98  1  0  0  0
 16 17  2  0  0  0
 16 21  1  0  0  0
 16 31  1  0  0  0
 17 18  1  0  0  0
 17 99  1  0  0  0
 18 19  2  0  0  0
 18100  1  0  0  0
 19 20  1  0  0  0
 19 24  1  0  0  0
 20 21  2  0  0  0
 20101  1  0  0  0
 21 23  1  0  0  0
 22 28  1  0  0  0
 22 32  2  0  0  0
 26 27  1  0  0  0
 28102  1  0  0  0
 28103  1  0  0  0
 29104  1  0  0  0
 29105  1  0  0  0
 33 34  1  0  0  0
 33 66  1  0  0  0
 33 70  2  0  0  0
 34 36  1  0  0  0
 34 59  1  0  0  0
 34106  1  0  0  0
 35 44  2  0  0  0
 35 45  1  0  0  0
 35 68  1  0  0  0
 36 56  1  0  0  0
 36107  1  0  0  0
 37 39  1  0  0  0
 37 47  1  0  0  0
 37 66  1  0  0  0
 37108  1  0  0  0
 38 43  2  0  0  0
 38 46  1  0  0  0
 38 47  1  0  0  0
 39 64  1  0  0  0
 39 67  2  0  0  0
 40 52  1  0  0  0
 40 53  2  0  0  0
 40 58  1  0  0  0
 41109  1  0  0  0
 41110  1  0  0  0
 41111  1  0  0  0
 41 48  1  0  0  0
 42 43  1  0  0  0
 42 66  1  0  0  0
 42112  1  0  0  0
 42113  1  0  0  0
 43 44  1  0  0  0
 44114  1  0  0  0
 45 46  2  0  0  0
 45115  1  0  0  0
 46116  1  0  0  0
 47117  1  0  0  0
 47118  1  0  0  0
 48 56  1  0  0  0
 48 65  1  0  0  0
 48119  1  0  0  0
 49 50  1  0  0  0
 49 53  1  0  0  0
 49 64  1  0  0  0
 49120  1  0  0  0
 50 51  1  0  0  0
 50121  1  0  0  0
 50122  1  0  0  0
 51 52  1  0  0  0
 51123  1  0  0  0
 51124  1  0  0  0
 52125  1  0  0  0
 52126  1  0  0  0
 53 54  1  0  0  0
 54 55  2  0  0  0
 54127  1  0  0  0
 55 57  1  0  0  0
 55128  1  0  0  0
 56 69  2  0  0  0
 57 58  2  0  0  0
 57129  1  0  0  0
 58130  1  0  0  0
 59 60  1  0  0  0
 59 61  1  0  0  0
 59 62  1  0  0  0
 60131  1  0  0  0
 60132  1  0  0  0
 60133  1  0  0  0
 61134  1  0  0  0
 61135  1  0  0  0
 61136  1  0  0  0
 62137  1  0  0  0
 62138  1  0  0  0
 62139  1  0  0  0
 63 65  1  0  0  0
 63140  1  0  0  0
 63141  1  0  0  0
 63142  1  0  0  0
 64143  1  0  0  0
 65144  1  0  0  0
 68 81  1  0  0  0
 71 72  2  0  0  0
 71 73  1  0  0  0
 71145  1  0  0  0
 72 75  1  0  0  0
 72146  1  0  0  0
 73 76  2  0  0  0
 73147  1  0  0  0
 74 75  2  0  0  0
 74 76  1  0  0  0
 74148  1  0  0  0
 75 77  1  0  0  0
 76 82  1  0  0  0
 77 83  1  0  0  0
 77 84  2  0  0  0
 78 79  1  0  0  0
 78 80  1  0  0  0
 78 81  2  0  0  0
 79 83  1  0  0  0
 79 85  2  0  0  0
 80149  1  0  0  0
 80150  1  0  0  0
 80151  1  0  0  0
 82152  1  0  0  0
 83153  1  0  0  0
 84154  1  0  0  0
 84155  1  0  0  0
M  CHG  1  84   1
M  ISO  4   1 100  68 101  81 101  82 100
M  END
> <chiral flag>
0

> <version>
0

> <s_m_source_file>
/data/baiqing/PycharmProjects/Reinvent-master-3.2/result/LINK_invent/BTK/process_docking_weight1_custom_product_contain_oxygen_bond_distance_aromatic_linkinvent_7_9_3/rearranged_h_0080.sdf

> <i_m_source_file_index>
81

> <r_mmod_Potential_Energy-OPLS-2005>
-256.354370117188

> <r_mmod_Stretch_Energy-OPLS-2005>
61.321102142334

> <r_mmod_Bend_Energy-OPLS-2005>
131.329788208008

> <r_mmod_Torsional_Energy-OPLS-2005>
240.496002197266

> <r_mmod_Improper_Torsional_Energy-OPLS-2005>
8.5515193939209

> <r_mmod_Van_der_Waal_Energy-OPLS-2005>
172.269836425781

> <r_mmod_Electrostatic_Energy-OPLS-2005>
-421.313446044922

> <r_mmod_Solvation_Energy-OPLS-2005>
-488.766235351562

> <b_mmod_Minimization_Converged-OPLS-2005>
0

> <r_mmod_RMS_Derivative-OPLS-2005>
7.04738998413086

$$$$
81
                    3D
 Structure written by MMmdl.
164173  0  0  1  0            999 V2000
  -30.6353  -14.7077   20.3614 C   0  0  0  0  0  0
  -30.4100  -12.4086   19.4389 C   0  0  0  0  0  0
  -29.4694  -12.4245   18.2115 C   0  0  0  0  0  0
  -27.9970  -12.3054   18.6413 C   0  0  0  0  0  0
  -27.6261  -13.2287   19.8328 C   0  0  2  0  0  0
  -28.6875  -13.1891   20.9527 C   0  0  0  0  0  0
  -25.2444  -13.8210   20.5735 C   0  0  0  0  0  0
  -24.1732  -13.0447   20.9216 C   0  0  0  0  0  0
  -24.6323  -11.6924   20.8760 C   0  0  0  0  0  0
  -23.9019  -10.4287   21.0424 C   0  0  0  0  0  0
  -24.3588   -9.4195   21.9188 C   0  0  0  0  0  0
  -23.6292   -8.2222   22.0746 C   0  0  0  0  0  0
  -22.4280   -8.0252   21.3531 C   0  0  0  0  0  0
  -21.9899   -9.0216   20.4633 C   0  0  0  0  0  0
  -22.7203  -10.2111   20.3058 C   0  0  0  0  0  0
  -21.6849   -6.0718   22.5269 C   0  0  0  0  0  0
  -21.4012   -6.5638   23.8199 C   0  0  0  0  0  0
  -21.3668   -5.6794   24.9165 C   0  0  0  0  0  0
  -21.6043   -4.3056   24.7221 C   0  0  0  0  0  0
  -21.8820   -3.8138   23.4347 C   0  0  0  0  0  0
  -21.9187   -4.6946   22.3398 C   0  0  0  0  0  0
  -22.7759  -13.5215   21.1905 C   0  0  0  0  0  0
  -22.1652   -4.2129   21.0981 F   0  0  0  0  0  0
  -21.5629   -3.4556   25.7749 F   0  0  0  0  0  0
  -29.9755  -13.5031   20.3281 N   0  0  0  0  0  0
  -26.2863  -12.9411   20.3328 N   0  0  0  0  0  0
  -25.9254  -11.6547   20.5806 N   0  0  0  0  0  0
  -22.0442  -12.8161   22.0467 N   0  0  0  0  0  0
  -25.4211  -15.1934   20.4184 N   0  0  0  0  0  0
  -31.8681  -14.7244   20.3939 O   0  0  0  0  0  0
  -21.6639   -6.8851   21.4222 O   0  0  0  0  0  0
  -22.3403  -14.5525   20.6778 O   0  0  0  0  0  0
  -24.6309  -31.8580   23.2004 C   0  0  0  0  0  0
  -25.9152  -32.4767   23.8340 C   0  0  1  0  0  0
  -27.1893  -27.2627   20.1596 C   0  0  0  0  0  0
  -25.5974  -33.8580   24.2268 N   0  0  0  0  0  0
  -23.4241  -30.4800   21.5484 C   0  0  2  0  0  0
  -24.8608  -28.9168   20.1271 C   0  0  0  0  0  0
  -22.7496  -29.4625   22.5011 C   0  0  0  0  0  0
  -18.0283  -28.1379   22.8498 C   0  0  0  0  0  0
  -24.1485  -36.7267   23.2646 C   0  0  0  0  0  0
  -25.9682  -30.7685   21.3801 C   0  0  0  0  0  0
  -26.0325  -29.3875   20.7341 C   0  0  0  0  0  0
  -27.2062  -28.5702   20.7379 C   0  0  0  0  0  0
  -26.0064  -26.8521   19.5198 C   0  0  0  0  0  0
  -24.8490  -27.6538   19.5124 C   0  0  0  0  0  0
  -23.6353  -29.8076   20.1673 C   0  0  0  0  0  0
  -25.4112  -36.3088   24.0329 C   0  0  1  0  0  0
  -20.5886  -28.3692   23.1297 C   0  0  2  0  0  0
  -20.6773  -26.9406   22.5428 C   0  0  0  0  0  0
  -19.5749  -26.6365   21.5239 C   0  0  0  0  0  0
  -18.1925  -26.7942   22.1622 C   0  0  0  0  0  0
  -19.1539  -28.8863   23.2890 C   0  0  0  0  0  0
  -18.9461  -30.1476   23.8881 C   0  0  0  0  0  0
  -17.6457  -30.6598   24.0571 C   0  0  0  0  0  0
  -25.9057  -34.9459   23.5093 C   0  0  0  0  0  0
  -16.5346  -29.9061   23.6370 C   0  0  0  0  0  0
  -16.7272  -28.6484   23.0382 C   0  0  0  0  0  0
  -26.4497  -31.6616   25.0747 C   0  0  0  0  0  0
  -25.3688  -31.3774   26.1460 C   0  0  0  0  0  0
  -27.0383  -30.3041   24.6261 C   0  0  0  0  0  0
  -27.6071  -32.4365   25.7494 C   0  0  0  0  0  0
  -27.5584  -37.1779   24.8466 C   0  0  0  0  0  0
  -21.4225  -29.3028   22.3712 N   0  0  0  0  0  0
  -26.4288  -37.3782   23.9436 N   0  0  0  0  0  0
  -24.6943  -31.0551   22.0984 N   0  0  0  0  0  0
  -23.4209  -28.8168   23.3110 O   0  0  0  0  0  0
  -28.2866  -26.3933   20.1017 O   0  0  0  0  0  0
  -26.5612  -34.8935   22.4648 O   0  0  0  0  0  0
  -23.5458  -32.1416   23.7295 O   0  0  0  0  0  0
  -27.7207  -18.7770   19.7885 C   0  0  0  0  0  0
  -28.1861  -17.4425   19.6501 C   0  0  0  0  0  0
  -30.0481  -17.9571   21.0495 C   0  0  0  0  0  0
  -29.5545  -19.3028   21.2290 C   0  0  0  0  0  0
  -28.3723  -19.7882   20.5633 C   0  0  0  0  0  0
  -29.3918  -16.9878   20.2329 C   0  0  0  0  0  0
  -26.3839  -23.7148   20.8238 C   0  0  0  0  0  0
  -27.7190  -23.8093   20.7153 C   0  0  0  0  0  0
  -31.2146  -15.3307   17.5328 C   0  0  0  0  0  0
  -30.3842  -16.0195   18.3436 C   0  0  0  0  0  0
  -25.6230  -22.4060   20.8183 C   0  0  0  0  0  0
  -28.5585  -22.4584   20.6532 C   0  0  0  0  0  0
  -26.4038  -21.2397   20.2043 C   0  0  0  0  0  0
  -30.3424  -20.2018   22.1677 C   0  0  0  0  0  0
  -28.4009  -25.2140   21.0078 C   0  0  0  0  0  0
  -27.8054  -21.1381   20.6513 N   0  0  0  0  0  0
  -30.0081  -15.7581   19.6942 N   0  0  0  0  0  0
  -31.4475  -12.5242   19.1209 H   0  0  0  0  0  0
  -30.3528  -11.4474   19.9521 H   0  0  0  0  0  0
  -29.7214  -11.6125   17.5301 H   0  0  0  0  0  0
  -29.5881  -13.3352   17.6334 H   0  0  0  0  0  0
  -27.8240  -11.2637   18.9096 H   0  0  0  0  0  0
  -27.3408  -12.5065   17.7928 H   0  0  0  0  0  0
  -27.6098  -14.2435   19.4351 H   0  0  0  0  0  0
  -28.7123  -12.2089   21.4294 H   0  0  0  0  0  0
  -28.4490  -13.9143   21.7327 H   0  0  0  0  0  0
  -25.2740   -9.5682   22.4754 H   0  0  0  0  0  0
  -24.0006   -7.4615   22.7453 H   0  0  0  0  0  0
  -21.0843   -8.8699   19.8938 H   0  0  0  0  0  0
  -22.3649  -10.9635   19.6153 H   0  0  0  0  0  0
  -21.2009   -7.6157   23.9699 H   0  0  0  0  0  0
  -21.1493   -6.0539   25.9074 H   0  0  0  0  0  0
  -22.0599   -2.7603   23.2859 H   0  0  0  0  0  0
  -22.4087  -11.9814   22.4804 H   0  0  0  0  0  0
  -21.1046  -13.1105   22.2686 H   0  0  0  0  0  0
  -24.6742  -15.8650   20.5587 H   0  0  0  0  0  0
  -26.3058  -15.6286   20.1917 H   0  0  0  0  0  0
  -26.7211  -32.5385   23.1068 H   0  0  0  0  0  0
  -25.0236  -33.9715   25.0492 H   0  0  0  0  0  0
  -22.7234  -31.3042   21.4010 H   0  0  0  0  0  0
  -23.3796  -35.9549   23.3284 H   0  0  0  0  0  0
  -24.3605  -36.8924   22.2071 H   0  0  0  0  0  0
  -23.7164  -37.6425   23.6678 H   0  0  0  0  0  0
  -26.1100  -31.5231   20.6052 H   0  0  0  0  0  0
  -26.8479  -30.8149   22.0113 H   0  0  0  0  0  0
  -28.1128  -28.9210   21.2094 H   0  0  0  0  0  0
  -25.9717  -25.8843   19.0388 H   0  0  0  0  0  0
  -23.9483  -27.2839   19.0425 H   0  0  0  0  0  0
  -23.7566  -30.5779   19.4057 H   0  0  0  0  0  0
  -22.7524  -29.2410   19.8643 H   0  0  0  0  0  0
  -25.1280  -36.1940   25.0810 H   0  0  0  0  0  0
  -20.9952  -28.3233   24.1429 H   0  0  0  0  0  0
  -20.5768  -26.2263   23.3619 H   0  0  0  0  0  0
  -21.6615  -26.7489   22.1146 H   0  0  0  0  0  0
  -19.6924  -25.6284   21.1251 H   0  0  0  0  0  0
  -19.6671  -27.3185   20.6782 H   0  0  0  0  0  0
  -17.4196  -26.6759   21.3993 H   0  0  0  0  0  0
  -18.0264  -26.0062   22.8981 H   0  0  0  0  0  0
  -19.7943  -30.7327   24.2189 H   0  0  0  0  0  0
  -17.4994  -31.6287   24.5156 H   0  0  0  0  0  0
  -15.5340  -30.2945   23.7727 H   0  0  0  0  0  0
  -15.8679  -28.0803   22.7098 H   0  0  0  0  0  0
  -24.5841  -30.7169   25.7756 H   0  0  0  0  0  0
  -24.8893  -32.2947   26.4891 H   0  0  0  0  0  0
  -25.7946  -30.8912   27.0244 H   0  0  0  0  0  0
  -26.2988  -29.6765   24.1264 H   0  0  0  0  0  0
  -27.4076  -29.7343   25.4808 H   0  0  0  0  0  0
  -27.8854  -30.4390   23.9527 H   0  0  0  0  0  0
  -27.2721  -33.3722   26.1979 H   0  0  0  0  0  0
  -28.3877  -32.6842   25.0283 H   0  0  0  0  0  0
  -28.0717  -31.8540   26.5455 H   0  0  0  0  0  0
  -28.2562  -38.0125   24.7599 H   0  0  0  0  0  0
  -28.1121  -36.2660   24.6168 H   0  0  0  0  0  0
  -27.2321  -37.1261   25.8874 H   0  0  0  0  0  0
  -20.9438  -29.8722   21.6878 H   0  0  0  0  0  0
  -26.0183  -38.2862   24.1468 H   0  0  0  0  0  0
  -26.8375  -18.9961   19.2089 H   0  0  0  0  0  0
  -27.6449  -16.7865   18.9857 H   0  0  0  0  0  0
  -30.9932  -17.6856   21.5010 H   0  0  0  0  0  0
  -25.7922  -24.5955   21.0191 H   0  0  0  0  0  0
  -31.3913  -15.6743   16.5248 H   0  0  0  0  0  0
  -31.7325  -14.4351   17.8393 H   0  0  0  0  0  0
  -29.9383  -16.9087   17.9220 H   0  0  0  0  0  0
  -24.6737  -22.5278   20.2930 H   0  0  0  0  0  0
  -25.3628  -22.1640   21.8493 H   0  0  0  0  0  0
  -29.1980  -22.4851   21.5322 H   0  0  0  0  0  0
  -29.2223  -22.4983   19.7893 H   0  0  0  0  0  0
  -26.3960  -21.3317   19.1172 H   0  0  0  0  0  0
  -25.8272  -20.3456   20.4516 H   0  0  0  0  0  0
  -30.9234  -19.6143   22.8781 H   0  0  0  0  0  0
  -29.6761  -20.8236   22.7631 H   0  0  0  0  0  0
  -31.0320  -20.8398   21.6126 H   0  0  0  0  0  0
  -29.4687  -25.0176   21.0995 H   0  0  0  0  0  0
  -28.0960  -25.5259   22.0076 H   0  0  0  0  0  0
  1 25  1  0  0  0
  1 30  2  0  0  0
  1 87  1  0  0  0
  2  3  1  0  0  0
  2 25  1  0  0  0
  2 88  1  0  0  0
  2 89  1  0  0  0
  3  4  1  0  0  0
  3 90  1  0  0  0
  3 91  1  0  0  0
  4  5  1  0  0  0
  4 92  1  0  0  0
  4 93  1  0  0  0
  5  6  1  0  0  0
  5 26  1  0  0  0
  5 94  1  0  0  0
  6 25  1  0  0  0
  6 95  1  0  0  0
  6 96  1  0  0  0
  7  8  2  0  0  0
  7 26  1  0  0  0
  7 29  1  0  0  0
  8  9  1  0  0  0
  8 22  1  0  0  0
  9 10  1  0  0  0
  9 27  2  0  0  0
 10 11  2  0  0  0
 10 15  1  0  0  0
 11 12  1  0  0  0
 11 97  1  0  0  0
 12 13  2  0  0  0
 12 98  1  0  0  0
 13 14  1  0  0  0
 13 31  1  0  0  0
 14 15  2  0  0  0
 14 99  1  0  0  0
 15100  1  0  0  0
 16 17  2  0  0  0
 16 21  1  0  0  0
 16 31  1  0  0  0
 17 18  1  0  0  0
 17101  1  0  0  0
 18 19  2  0  0  0
 18102  1  0  0  0
 19 20  1  0  0  0
 19 24  1  0  0  0
 20 21  2  0  0  0
 20103  1  0  0  0
 21 23  1  0  0  0
 22 28  1  0  0  0
 22 32  2  0  0  0
 26 27  1  0  0  0
 28104  1  0  0  0
 28105  1  0  0  0
 29106  1  0  0  0
 29107  1  0  0  0
 33 34  1  0  0  0
 33 66  1  0  0  0
 33 70  2  0  0  0
 34 36  1  0  0  0
 34 59  1  0  0  0
 34108  1  0  0  0
 35 44  2  0  0  0
 35 45  1  0  0  0
 35 68  1  0  0  0
 36 56  1  0  0  0
 36109  1  0  0  0
 37 39  1  0  0  0
 37 47  1  0  0  0
 37 66  1  0  0  0
 37110  1  0  0  0
 38 43  2  0  0  0
 38 46  1  0  0  0
 38 47  1  0  0  0
 39 64  1  0  0  0
 39 67  2  0  0  0
 40 52  1  0  0  0
 40 53  2  0  0  0
 40 58  1  0  0  0
 41111  1  0  0  0
 41112  1  0  0  0
 41113  1  0  0  0
 41 48  1  0  0  0
 42 43  1  0  0  0
 42 66  1  0  0  0
 42114  1  0  0  0
 42115  1  0  0  0
 43 44  1  0  0  0
 44116  1  0  0  0
 45 46  2  0  0  0
 45117  1  0  0  0
 46118  1  0  0  0
 47119  1  0  0  0
 47120  1  0  0  0
 48 56  1  0  0  0
 48 65  1  0  0  0
 48121  1  0  0  0
 49 50  1  0  0  0
 49 53  1  0  0  0
 49 64  1  0  0  0
 49122  1  0  0  0
 50 51  1  0  0  0
 50123  1  0  0  0
 50124  1  0  0  0
 51 52  1  0  0  0
 51125  1  0  0  0
 51126  1  0  0  0
 52127  1  0  0  0
 52128  1  0  0  0
 53 54  1  0  0  0
 54 55  2  0  0  0
 54129  1  0  0  0
 55 57  1  0  0  0
 55130  1  0  0  0
 56 69  2  0  0  0
 57 58  2  0  0  0
 57131  1  0  0  0
 58132  1  0  0  0
 59 60  1  0  0  0
 59 61  1  0  0  0
 59 62  1  0  0  0
 60133  1  0  0  0
 60134  1  0  0  0
 60135  1  0  0  0
 61136  1  0  0  0
 61137  1  0  0  0
 61138  1  0  0  0
 62139  1  0  0  0
 62140  1  0  0  0
 62141  1  0  0  0
 63 65  1  0  0  0
 63142  1  0  0  0
 63143  1  0  0  0
 63144  1  0  0  0
 64145  1  0  0  0
 65146  1  0  0  0
 68 85  1  0  0  0
 71 72  2  0  0  0
 71 75  1  0  0  0
 71147  1  0  0  0
 72 76  1  0  0  0
 72148  1  0  0  0
 73 74  1  0  0  0
 73 76  2  0  0  0
 73149  1  0  0  0
 74 75  2  0  0  0
 74 84  1  0  0  0
 75 86  1  0  0  0
 76 87  1  0  0  0
 77 78  2  0  0  0
 77 81  1  0  0  0
 77150  1  0  0  0
 78 82  1  0  0  0
 78 85  1  0  0  0
 79 80  2  0  0  0
 79151  1  0  0  0
 79152  1  0  0  0
 80 87  1  0  0  0
 80153  1  0  0  0
 81 83  1  0  0  0
 81154  1  0  0  0
 81155  1  0  0  0
 82 86  1  0  0  0
 82156  1  0  0  0
 82157  1  0  0  0
 83 86  1  0  0  0
 83158  1  0  0  0
 83159  1  0  0  0
 84160  1  0  0  0
 84161  1  0  0  0
 84162  1  0  0  0
 85163  1  0  0  0
 85164  1  0  0  0
M  ISO  4   1 100  68 101  85 101  87 100
M  END
> <chiral flag>
0

> <version>
0

> <s_m_source_file>
/data/baiqing/PycharmProjects/Reinvent-master-3.2/result/LINK_invent/BTK/process_docking_weight1_custom_product_contain_oxygen_bond_distance_aromatic_linkinvent_7_9_3/rearranged_h_0080.sdf

> <i_m_source_file_index>
82

> <r_mmod_Potential_Energy-OPLS-2005>
450.06787109375

> <r_mmod_Stretch_Energy-OPLS-2005>
113.976119995117

> <r_mmod_Bend_Energy-OPLS-2005>
204.116683959961

> <r_mmod_Torsional_Energy-OPLS-2005>
359.210113525391

> <r_mmod_Improper_Torsional_Energy-OPLS-2005>
31.8358783721924

> <r_mmod_Van_der_Waal_Energy-OPLS-2005>
159.056457519531

> <r_mmod_Electrostatic_Energy-OPLS-2005>
-306.692565917969

> <r_mmod_Solvation_Energy-OPLS-2005>
-205.839126586914

> <b_mmod_Minimization_Converged-OPLS-2005>
0

> <r_mmod_RMS_Derivative-OPLS-2005>
4.25339126586914

$$$$
82
                    3D
 Structure written by MMmdl.
151159  0  0  1  0            999 V2000
  -30.6689  -14.5349   20.5259 C   0  0  0  0  0  0
  -30.4284  -12.3294   19.4411 C   0  0  0  0  0  0
  -29.5016  -12.4969   18.2171 C   0  0  0  0  0  0
  -28.0230  -12.3503   18.6286 C   0  0  0  0  0  0
  -27.6589  -13.2084   19.8698 C   0  0  2  0  0  0
  -28.7008  -13.0187   20.9958 C   0  0  0  0  0  0
  -25.2592  -13.8160   20.5698 C   0  0  0  0  0  0
  -24.1842  -13.0437   20.9186 C   0  0  0  0  0  0
  -24.6398  -11.6903   20.8743 C   0  0  0  0  0  0
  -23.9073  -10.4290   21.0417 C   0  0  0  0  0  0
  -24.3619   -9.4198   21.9194 C   0  0  0  0  0  0
  -23.6281   -8.2239   22.0759 C   0  0  0  0  0  0
  -22.4262   -8.0291   21.3550 C   0  0  0  0  0  0
  -21.9910   -9.0272   20.4650 C   0  0  0  0  0  0
  -22.7253  -10.2140   20.3058 C   0  0  0  0  0  0
  -21.6846   -6.0750   22.5289 C   0  0  0  0  0  0
  -21.4010   -6.5655   23.8226 C   0  0  0  0  0  0
  -21.3650   -5.6802   24.9190 C   0  0  0  0  0  0
  -21.6037   -4.3064   24.7233 C   0  0  0  0  0  0
  -21.8815   -3.8158   23.4353 C   0  0  0  0  0  0
  -21.9187   -4.6978   22.3410 C   0  0  0  0  0  0
  -22.7867  -13.5241   21.1844 C   0  0  0  0  0  0
  -22.1654   -4.2166   21.0985 F   0  0  0  0  0  0
  -21.5625   -3.4540   25.7741 F   0  0  0  0  0  0
  -30.0280  -13.3328   20.4420 N   0  0  0  0  0  0
  -26.3015  -12.9328   20.3344 N   0  0  0  0  0  0
  -25.9324  -11.6492   20.5762 N   0  0  0  0  0  0
  -22.0487  -12.8245   22.0390 N   0  0  0  0  0  0
  -25.4348  -15.1880   20.4165 N   0  0  0  0  0  0
  -31.8199  -14.6855   20.1085 O   0  0  0  0  0  0
  -21.6623   -6.8892   21.4249 O   0  0  0  0  0  0
  -22.3565  -14.5559   20.6703 O   0  0  0  0  0  0
  -24.6196  -31.8644   23.2067 C   0  0  0  0  0  0
  -25.9078  -32.4797   23.8376 C   0  0  1  0  0  0
  -27.2334  -27.4043   20.1034 C   0  0  0  0  0  0
  -25.5926  -33.8595   24.2316 N   0  0  0  0  0  0
  -23.4104  -30.4877   21.5466 C   0  0  2  0  0  0
  -24.8598  -28.9498   20.1099 C   0  0  0  0  0  0
  -22.7444  -29.4645   22.4961 C   0  0  0  0  0  0
  -18.0270  -28.1382   22.8483 C   0  0  0  0  0  0
  -24.1489  -36.7302   23.2637 C   0  0  0  0  0  0
  -25.9425  -30.8215   21.3639 C   0  0  0  0  0  0
  -26.0221  -29.4538   20.7103 C   0  0  0  0  0  0
  -27.2158  -28.6881   20.7060 C   0  0  0  0  0  0
  -26.0585  -26.9256   19.4903 C   0  0  0  0  0  0
  -24.8739  -27.6860   19.4951 C   0  0  0  0  0  0
  -23.6217  -29.8191   20.1612 C   0  0  0  0  0  0
  -25.4105  -36.3095   24.0343 C   0  0  1  0  0  0
  -20.5870  -28.3673   23.1305 C   0  0  2  0  0  0
  -20.6760  -26.9403   22.5417 C   0  0  0  0  0  0
  -19.5736  -26.6385   21.5216 C   0  0  0  0  0  0
  -18.1914  -26.7920   22.1622 C   0  0  0  0  0  0
  -19.1523  -28.8842   23.2889 C   0  0  0  0  0  0
  -18.9451  -30.1452   23.8892 C   0  0  0  0  0  0
  -17.6453  -30.6585   24.0563 C   0  0  0  0  0  0
  -25.9046  -34.9467   23.5125 C   0  0  0  0  0  0
  -16.5340  -29.9086   23.6333 C   0  0  0  0  0  0
  -16.7261  -28.6511   23.0335 C   0  0  0  0  0  0
  -26.4487  -31.6570   25.0712 C   0  0  0  0  0  0
  -25.3762  -31.3694   26.1478 C   0  0  0  0  0  0
  -27.0295  -30.2999   24.6094 C   0  0  0  0  0  0
  -27.6074  -32.4275   25.7464 C   0  0  0  0  0  0
  -27.5584  -37.1793   24.8457 C   0  0  0  0  0  0
  -21.4165  -29.3036   22.3707 N   0  0  0  0  0  0
  -26.4275  -37.3797   23.9437 N   0  0  0  0  0  0
  -24.6760  -31.0723   22.0975 N   0  0  0  0  0  0
  -23.4202  -28.8185   23.3015 O   0  0  0  0  0  0
  -28.3283  -26.5623   20.1520 O   0  0  0  0  0  0
  -26.5607  -34.8926   22.4685 O   0  0  0  0  0  0
  -23.5383  -32.1406   23.7445 O   0  0  0  0  0  0
  -31.0743  -18.9923   19.7286 C   0  0  0  0  0  0
  -28.8673  -19.2010   20.6882 C   0  0  0  0  0  0
  -31.1021  -17.6147   20.0547 C   0  0  0  0  0  0
  -28.8927  -17.8172   21.0144 C   0  0  0  0  0  0
  -29.9567  -19.8125   20.0205 C   0  0  0  0  0  0
  -29.9951  -16.9880   20.6819 C   0  0  0  0  0  0
  -28.5811  -24.2691   21.0933 C   0  0  0  0  0  0
  -28.2349  -25.5868   21.1319 C   0  0  0  0  0  0
  -29.9159  -21.2453   19.4966 C   0  0  0  0  0  0
  -29.1644  -23.5324   19.9708 C   0  0  0  0  0  0
  -29.9087  -15.5711   20.9663 N   0  0  0  0  0  0
  -29.3317  -22.2081   20.2543 N   0  0  0  0  0  0
  -30.4657  -21.4678   18.4110 O   0  0  0  0  0  0
  -29.4673  -24.0608   18.8949 O   0  0  0  0  0  0
  -31.4735  -12.4289   19.1435 H   0  0  0  0  0  0
  -30.3348  -11.3262   19.8598 H   0  0  0  0  0  0
  -29.7505  -11.7586   17.4536 H   0  0  0  0  0  0
  -29.6612  -13.4749   17.7604 H   0  0  0  0  0  0
  -27.8487  -11.2966   18.8474 H   0  0  0  0  0  0
  -27.3698  -12.5968   17.7912 H   0  0  0  0  0  0
  -27.6931  -14.2508   19.5521 H   0  0  0  0  0  0
  -28.6855  -11.9877   21.3526 H   0  0  0  0  0  0
  -28.4569  -13.6326   21.8640 H   0  0  0  0  0  0
  -25.2770   -9.5661   22.4770 H   0  0  0  0  0  0
  -23.9984   -7.4625   22.7480 H   0  0  0  0  0  0
  -21.0840   -8.8807   19.8954 H   0  0  0  0  0  0
  -22.3734  -10.9684   19.6158 H   0  0  0  0  0  0
  -21.1999   -7.6163   23.9739 H   0  0  0  0  0  0
  -21.1475   -6.0532   25.9095 H   0  0  0  0  0  0
  -22.0597   -2.7622   23.2851 H   0  0  0  0  0  0
  -22.4066  -11.9885   22.4761 H   0  0  0  0  0  0
  -21.1114  -13.1301   22.2598 H   0  0  0  0  0  0
  -24.6752  -15.8480   20.5400 H   0  0  0  0  0  0
  -26.2931  -15.6258   20.1058 H   0  0  0  0  0  0
  -26.7151  -32.5496   23.1140 H   0  0  0  0  0  0
  -25.0105  -33.9736   25.0482 H   0  0  0  0  0  0
  -22.7014  -31.3065   21.4047 H   0  0  0  0  0  0
  -23.3766  -35.9612   23.3243 H   0  0  0  0  0  0
  -24.3618  -36.8973   22.2064 H   0  0  0  0  0  0
  -23.7206  -37.6479   23.6681 H   0  0  0  0  0  0
  -26.0596  -31.5847   20.5935 H   0  0  0  0  0  0
  -26.8301  -30.8756   21.9821 H   0  0  0  0  0  0
  -28.1085  -29.0617   21.1885 H   0  0  0  0  0  0
  -26.0588  -25.9468   19.0313 H   0  0  0  0  0  0
  -23.9810  -27.2890   19.0319 H   0  0  0  0  0  0
  -23.7324  -30.5942   19.4020 H   0  0  0  0  0  0
  -22.7452  -29.2408   19.8629 H   0  0  0  0  0  0
  -25.1270  -36.1944   25.0830 H   0  0  0  0  0  0
  -20.9956  -28.3229   24.1429 H   0  0  0  0  0  0
  -20.5661  -26.2278   23.3607 H   0  0  0  0  0  0
  -21.6626  -26.7437   22.1207 H   0  0  0  0  0  0
  -19.6898  -25.6304   21.1223 H   0  0  0  0  0  0
  -19.6673  -27.3213   20.6761 H   0  0  0  0  0  0
  -17.4190  -26.6676   21.4015 H   0  0  0  0  0  0
  -18.0304  -26.0058   22.9011 H   0  0  0  0  0  0
  -19.7939  -30.7264   24.2241 H   0  0  0  0  0  0
  -17.5022  -31.6261   24.5168 H   0  0  0  0  0  0
  -15.5347  -30.2990   23.7671 H   0  0  0  0  0  0
  -15.8655  -28.0851   22.7024 H   0  0  0  0  0  0
  -24.5904  -30.7066   25.7838 H   0  0  0  0  0  0
  -24.8991  -32.2852   26.4972 H   0  0  0  0  0  0
  -25.8131  -30.8833   27.0209 H   0  0  0  0  0  0
  -26.2821  -29.6764   24.1170 H   0  0  0  0  0  0
  -27.4077  -29.7235   25.4549 H   0  0  0  0  0  0
  -27.8665  -30.4298   23.9231 H   0  0  0  0  0  0
  -27.2721  -33.3599   26.2014 H   0  0  0  0  0  0
  -28.3900  -32.6779   25.0289 H   0  0  0  0  0  0
  -28.0710  -31.8397   26.5395 H   0  0  0  0  0  0
  -28.2562  -38.0132   24.7574 H   0  0  0  0  0  0
  -28.1119  -36.2672   24.6172 H   0  0  0  0  0  0
  -27.2329  -37.1306   25.8864 H   0  0  0  0  0  0
  -20.9326  -29.8792   21.6954 H   0  0  0  0  0  0
  -26.0154  -38.2863   24.1476 H   0  0  0  0  0  0
  -31.9247  -19.4172   19.2132 H   0  0  0  0  0  0
  -27.9814  -19.7769   20.9163 H   0  0  0  0  0  0
  -31.9854  -17.0576   19.7815 H   0  0  0  0  0  0
  -28.0268  -17.3877   21.4996 H   0  0  0  0  0  0
  -28.3957  -23.7183   22.0040 H   0  0  0  0  0  0
  -27.8091  -25.9957   22.0388 H   0  0  0  0  0  0
  -29.0314  -15.2718   21.3632 H   0  0  0  0  0  0
  -29.0002  -21.8979   21.1530 H   0  0  0  0  0  0
  1 25  1  0  0  0
  1 30  2  0  0  0
  1 81  1  0  0  0
  2  3  1  0  0  0
  2 25  1  0  0  0
  2 85  1  0  0  0
  2 86  1  0  0  0
  3  4  1  0  0  0
  3 87  1  0  0  0
  3 88  1  0  0  0
  4  5  1  0  0  0
  4 89  1  0  0  0
  4 90  1  0  0  0
  5  6  1  0  0  0
  5 26  1  0  0  0
  5 91  1  0  0  0
  6 25  1  0  0  0
  6 92  1  0  0  0
  6 93  1  0  0  0
  7  8  2  0  0  0
  7 26  1  0  0  0
  7 29  1  0  0  0
  8  9  1  0  0  0
  8 22  1  0  0  0
  9 10  1  0  0  0
  9 27  2  0  0  0
 10 11  2  0  0  0
 10 15  1  0  0  0
 11 12  1  0  0  0
 11 94  1  0  0  0
 12 13  2  0  0  0
 12 95  1  0  0  0
 13 14  1  0  0  0
 13 31  1  0  0  0
 14 15  2  0  0  0
 14 96  1  0  0  0
 15 97  1  0  0  0
 16 17  2  0  0  0
 16 21  1  0  0  0
 16 31  1  0  0  0
 17 18  1  0  0  0
 17 98  1  0  0  0
 18 19  2  0  0  0
 18 99  1  0  0  0
 19 20  1  0  0  0
 19 24  1  0  0  0
 20 21  2  0  0  0
 20100  1  0  0  0
 21 23  1  0  0  0
 22 28  1  0  0  0
 22 32  2  0  0  0
 26 27  1  0  0  0
 28101  1  0  0  0
 28102  1  0  0  0
 29103  1  0  0  0
 29104  1  0  0  0
 33 34  1  0  0  0
 33 66  1  0  0  0
 33 70  2  0  0  0
 34 36  1  0  0  0
 34 59  1  0  0  0
 34105  1  0  0  0
 35 44  2  0  0  0
 35 45  1  0  0  0
 35 68  1  0  0  0
 36 56  1  0  0  0
 36106  1  0  0  0
 37 39  1  0  0  0
 37 47  1  0  0  0
 37 66  1  0  0  0
 37107  1  0  0  0
 38 43  2  0  0  0
 38 46  1  0  0  0
 38 47  1  0  0  0
 39 64  1  0  0  0
 39 67  2  0  0  0
 40 52  1  0  0  0
 40 53  2  0  0  0
 40 58  1  0  0  0
 41108  1  0  0  0
 41109  1  0  0  0
 41110  1  0  0  0
 41 48  1  0  0  0
 42 43  1  0  0  0
 42 66  1  0  0  0
 42111  1  0  0  0
 42112  1  0  0  0
 43 44  1  0  0  0
 44113  1  0  0  0
 45 46  2  0  0  0
 45114  1  0  0  0
 46115  1  0  0  0
 47116  1  0  0  0
 47117  1  0  0  0
 48 56  1  0  0  0
 48 65  1  0  0  0
 48118  1  0  0  0
 49 50  1  0  0  0
 49 53  1  0  0  0
 49 64  1  0  0  0
 49119  1  0  0  0
 50 51  1  0  0  0
 50120  1  0  0  0
 50121  1  0  0  0
 51 52  1  0  0  0
 51122  1  0  0  0
 51123  1  0  0  0
 52124  1  0  0  0
 52125  1  0  0  0
 53 54  1  0  0  0
 54 55  2  0  0  0
 54126  1  0  0  0
 55 57  1  0  0  0
 55127  1  0  0  0
 56 69  2  0  0  0
 57 58  2  0  0  0
 57128  1  0  0  0
 58129  1  0  0  0
 59 60  1  0  0  0
 59 61  1  0  0  0
 59 62  1  0  0  0
 60130  1  0  0  0
 60131  1  0  0  0
 60132  1  0  0  0
 61133  1  0  0  0
 61134  1  0  0  0
 61135  1  0  0  0
 62136  1  0  0  0
 62137  1  0  0  0
 62138  1  0  0  0
 63 65  1  0  0  0
 63139  1  0  0  0
 63140  1  0  0  0
 63141  1  0  0  0
 64142  1  0  0  0
 65143  1  0  0  0
 68 78  1  0  0  0
 71 73  2  0  0  0
 71 75  1  0  0  0
 71144  1  0  0  0
 72 74  1  0  0  0
 72 75  2  0  0  0
 72145  1  0  0  0
 73 76  1  0  0  0
 73146  1  0  0  0
 74 76  2  0  0  0
 74147  1  0  0  0
 75 79  1  0  0  0
 76 81  1  0  0  0
 77 78  2  0  0  0
 77 80  1  0  0  0
 77148  1  0  0  0
 78149  1  0  0  0
 79 82  1  0  0  0
 79 83  2  0  0  0
 80 82  1  0  0  0
 80 84  2  0  0  0
 81150  1  0  0  0
 82151  1  0  0  0
M  ISO  4   1 100  68 101  78 101  81 100
M  END
> <chiral flag>
0

> <version>
0

> <s_m_source_file>
/data/baiqing/PycharmProjects/Reinvent-master-3.2/result/LINK_invent/BTK/process_docking_weight1_custom_product_contain_oxygen_bond_distance_aromatic_linkinvent_7_9_3/rearranged_h_0080.sdf

> <i_m_source_file_index>
83

> <r_mmod_Potential_Energy-OPLS-2005>
-126.637298583984

> <r_mmod_Stretch_Energy-OPLS-2005>
47.7020263671875

> <r_mmod_Bend_Energy-OPLS-2005>
122.66480255127

> <r_mmod_Torsional_Energy-OPLS-2005>
235.770004272461

> <r_mmod_Improper_Torsional_Energy-OPLS-2005>
4.65158271789551

> <r_mmod_Van_der_Waal_Energy-OPLS-2005>
154.391845703125

> <r_mmod_Electrostatic_Energy-OPLS-2005>
-436.145172119141

> <r_mmod_Solvation_Energy-OPLS-2005>
-279.576538085938

> <b_mmod_Minimization_Converged-OPLS-2005>
0

> <r_mmod_RMS_Derivative-OPLS-2005>
1.27324020862579

$$$$
