0
                    3D
 Structure written by MMmdl.
159167  0  0  1  0            999 V2000
  -30.6556  -14.4952   20.5859 C   0  0  0  0  0  0
  -30.4366  -12.3229   19.4144 C   0  0  0  0  0  0
  -29.5007  -12.5079   18.1990 C   0  0  0  0  0  0
  -28.0224  -12.3498   18.6109 C   0  0  0  0  0  0
  -27.6627  -13.1910   19.8669 C   0  0  2  0  0  0
  -28.7023  -12.9538   20.9856 C   0  0  0  0  0  0
  -25.2604  -13.8125   20.5634 C   0  0  0  0  0  0
  -24.1847  -13.0399   20.9144 C   0  0  0  0  0  0
  -24.6385  -11.6879   20.8688 C   0  0  0  0  0  0
  -23.9048  -10.4271   21.0387 C   0  0  0  0  0  0
  -24.3613   -9.4193   21.9165 C   0  0  0  0  0  0
  -23.6283   -8.2241   22.0746 C   0  0  0  0  0  0
  -22.4263   -8.0275   21.3541 C   0  0  0  0  0  0
  -21.9900   -9.0245   20.4644 C   0  0  0  0  0  0
  -22.7222  -10.2118   20.3037 C   0  0  0  0  0  0
  -21.6843   -6.0732   22.5279 C   0  0  0  0  0  0
  -21.4006   -6.5635   23.8208 C   0  0  0  0  0  0
  -21.3669   -5.6779   24.9174 C   0  0  0  0  0  0
  -21.6048   -4.3047   24.7207 C   0  0  0  0  0  0
  -21.8823   -3.8143   23.4331 C   0  0  0  0  0  0
  -21.9196   -4.6969   22.3388 C   0  0  0  0  0  0
  -22.7883  -13.5238   21.1810 C   0  0  0  0  0  0
  -22.1658   -4.2163   21.0962 F   0  0  0  0  0  0
  -21.5640   -3.4519   25.7721 F   0  0  0  0  0  0
  -30.0336  -13.2893   20.4513 N   0  0  0  0  0  0
  -26.3016  -12.9260   20.3299 N   0  0  0  0  0  0
  -25.9297  -11.6419   20.5673 N   0  0  0  0  0  0
  -22.0527  -12.8233   22.0391 N   0  0  0  0  0  0
  -25.4247  -15.1840   20.4100 N   0  0  0  0  0  0
  -31.7493  -14.7482   20.0695 O   0  0  0  0  0  0
  -21.6617   -6.8882   21.4243 O   0  0  0  0  0  0
  -22.3577  -14.5545   20.6676 O   0  0  0  0  0  0
  -24.6203  -31.8661   23.2001 C   0  0  0  0  0  0
  -25.9054  -32.4805   23.8334 C   0  0  1  0  0  0
  -27.2315  -27.4237   20.0916 C   0  0  0  0  0  0
  -25.5877  -33.8590   24.2273 N   0  0  0  0  0  0
  -23.4033  -30.4937   21.5438 C   0  0  2  0  0  0
  -24.8501  -28.9454   20.1151 C   0  0  0  0  0  0
  -22.7401  -29.4767   22.5022 C   0  0  0  0  0  0
  -18.0302  -28.1430   22.8506 C   0  0  0  0  0  0
  -24.1499  -36.7327   23.2648 C   0  0  0  0  0  0
  -25.9311  -30.8287   21.3458 C   0  0  0  0  0  0
  -26.0121  -29.4585   20.7060 C   0  0  0  0  0  0
  -27.2097  -28.7032   20.6978 C   0  0  0  0  0  0
  -26.0578  -26.9271   19.4889 C   0  0  0  0  0  0
  -24.8682  -27.6778   19.5079 C   0  0  0  0  0  0
  -23.6050  -29.8047   20.1681 C   0  0  0  0  0  0
  -25.4114  -36.3127   24.0358 C   0  0  1  0  0  0
  -20.5884  -28.3746   23.1277 C   0  0  2  0  0  0
  -20.6891  -26.9524   22.5244 C   0  0  0  0  0  0
  -19.5746  -26.6403   21.5182 C   0  0  0  0  0  0
  -18.1933  -26.7975   22.1616 C   0  0  0  0  0  0
  -19.1553  -28.8898   23.2909 C   0  0  0  0  0  0
  -18.9518  -30.1507   23.8938 C   0  0  0  0  0  0
  -17.6534  -30.6680   24.0532 C   0  0  0  0  0  0
  -25.9030  -34.9481   23.5120 C   0  0  0  0  0  0
  -16.5420  -29.9179   23.6315 C   0  0  0  0  0  0
  -16.7312  -28.6560   23.0394 C   0  0  0  0  0  0
  -26.4420  -31.6598   25.0688 C   0  0  0  0  0  0
  -25.3637  -31.3720   26.1411 C   0  0  0  0  0  0
  -27.0252  -30.3077   24.5996 C   0  0  0  0  0  0
  -27.6024  -32.4298   25.7428 C   0  0  0  0  0  0
  -27.5587  -37.1820   24.8475 C   0  0  0  0  0  0
  -21.4126  -29.3226   22.3802 N   0  0  0  0  0  0
  -26.4309  -37.3812   23.9411 N   0  0  0  0  0  0
  -24.6723  -31.0756   22.0897 N   0  0  0  0  0  0
  -23.4163  -28.8288   23.3070 O   0  0  0  0  0  0
  -28.3468  -26.6171   20.1247 O   0  0  0  0  0  0
  -26.5627  -34.8940   22.4695 O   0  0  0  0  0  0
  -23.5403  -32.1461   23.7366 O   0  0  0  0  0  0
  -28.4721  -18.4510   19.6556 C   0  0  0  0  0  0
  -28.8768  -17.1147   19.8740 C   0  0  0  0  0  0
  -30.2377  -17.8344   21.7499 C   0  0  0  0  0  0
  -28.9330  -19.4976   20.4884 C   0  0  0  0  0  0
  -29.7424  -16.7838   20.9412 C   0  0  0  0  0  0
  -29.8564  -19.1768   21.5112 C   0  0  0  0  0  0
  -27.1897  -20.9682   22.4519 C   0  0  0  0  0  0
  -28.4219  -20.9395   20.2771 C   0  0  0  0  0  0
  -28.5444  -24.1286   20.6593 C   0  0  0  0  0  0
  -27.5893  -23.0961   21.3304 C   0  0  0  0  0  0
  -28.2311  -25.5820   21.1215 C   0  0  0  0  0  0
  -29.9595  -15.4130   21.2894 N   0  0  0  0  0  0
  -28.0971  -21.6982   21.5254 N   0  3  1  0  0  0
  -30.3304  -20.1649   22.3076 F   0  0  0  0  0  0
  -31.4786  -12.4532   19.1138 H   0  0  0  0  0  0
  -30.3631  -11.3037   19.8002 H   0  0  0  0  0  0
  -29.7510  -11.7828   17.4230 H   0  0  0  0  0  0
  -29.6553  -13.4930   17.7576 H   0  0  0  0  0  0
  -27.8524  -11.2908   18.8109 H   0  0  0  0  0  0
  -27.3679  -12.6091   17.7774 H   0  0  0  0  0  0
  -27.7049  -14.2376   19.5685 H   0  0  0  0  0  0
  -28.6905  -11.9059   21.2872 H   0  0  0  0  0  0
  -28.4439  -13.5101   21.8862 H   0  0  0  0  0  0
  -25.2777   -9.5659   22.4712 H   0  0  0  0  0  0
  -24.0000   -7.4629   22.7463 H   0  0  0  0  0  0
  -21.0835   -8.8751   19.8948 H   0  0  0  0  0  0
  -22.3694  -10.9649   19.6125 H   0  0  0  0  0  0
  -21.1968   -7.6134   23.9716 H   0  0  0  0  0  0
  -21.1500   -6.0499   25.9078 H   0  0  0  0  0  0
  -22.0597   -2.7611   23.2802 H   0  0  0  0  0  0
  -22.4135  -11.9912   22.4810 H   0  0  0  0  0  0
  -21.1124  -13.1260   22.2559 H   0  0  0  0  0  0
  -24.6422  -15.8159   20.5301 H   0  0  0  0  0  0
  -26.2721  -15.6576   20.1307 H   0  0  0  0  0  0
  -26.7125  -32.5566   23.1111 H   0  0  0  0  0  0
  -24.9980  -33.9719   25.0384 H   0  0  0  0  0  0
  -22.6977  -31.3129   21.3946 H   0  0  0  0  0  0
  -23.3748  -35.9673   23.3327 H   0  0  0  0  0  0
  -24.3609  -36.8910   22.2062 H   0  0  0  0  0  0
  -23.7227  -37.6537   23.6622 H   0  0  0  0  0  0
  -26.0198  -31.5718   20.5544 H   0  0  0  0  0  0
  -26.8262  -30.9052   21.9485 H   0  0  0  0  0  0
  -28.1007  -29.0897   21.1736 H   0  0  0  0  0  0
  -26.0628  -25.9485   19.0281 H   0  0  0  0  0  0
  -23.9753  -27.2683   19.0580 H   0  0  0  0  0  0
  -23.6952  -30.5603   19.3892 H   0  0  0  0  0  0
  -22.7287  -29.2128   19.8959 H   0  0  0  0  0  0
  -25.1271  -36.2016   25.0858 H   0  0  0  0  0  0
  -20.9955  -28.3229   24.1389 H   0  0  0  0  0  0
  -20.6035  -26.2302   23.3349 H   0  0  0  0  0  0
  -21.6752  -26.7738   22.0930 H   0  0  0  0  0  0
  -19.6857  -25.6300   21.1280 H   0  0  0  0  0  0
  -19.6579  -27.3091   20.6632 H   0  0  0  0  0  0
  -17.4295  -26.6837   21.3908 H   0  0  0  0  0  0
  -18.0164  -26.0041   22.8888 H   0  0  0  0  0  0
  -19.8023  -30.7304   24.2324 H   0  0  0  0  0  0
  -17.5170  -31.6380   24.5118 H   0  0  0  0  0  0
  -15.5418  -30.3050   23.7635 H   0  0  0  0  0  0
  -15.8694  -28.0879   22.7166 H   0  0  0  0  0  0
  -24.5814  -30.7067   25.7698 H   0  0  0  0  0  0
  -24.8822  -32.2906   26.4819 H   0  0  0  0  0  0
  -25.7955  -30.8900   27.0194 H   0  0  0  0  0  0
  -26.2795  -29.6868   24.1018 H   0  0  0  0  0  0
  -27.4060  -29.7267   25.4395 H   0  0  0  0  0  0
  -27.8585  -30.4468   23.9096 H   0  0  0  0  0  0
  -27.2654  -33.3584   26.2037 H   0  0  0  0  0  0
  -28.3778  -32.6871   25.0192 H   0  0  0  0  0  0
  -28.0725  -31.8398   26.5309 H   0  0  0  0  0  0
  -28.2636  -38.0096   24.7504 H   0  0  0  0  0  0
  -28.1057  -36.2625   24.6313 H   0  0  0  0  0  0
  -27.2313  -37.1467   25.8887 H   0  0  0  0  0  0
  -20.9282  -29.9173   21.7237 H   0  0  0  0  0  0
  -26.0216  -38.2914   24.1351 H   0  0  0  0  0  0
  -27.7820  -18.6598   18.8483 H   0  0  0  0  0  0
  -28.4784  -16.3442   19.2313 H   0  0  0  0  0  0
  -30.8876  -17.6240   22.5850 H   0  0  0  0  0  0
  -27.5668  -19.9896   22.7433 H   0  0  0  0  0  0
  -26.1974  -20.8283   22.0240 H   0  0  0  0  0  0
  -27.0657  -21.5269   23.3796 H   0  0  0  0  0  0
  -27.5296  -20.9081   19.6514 H   0  0  0  0  0  0
  -29.1721  -21.4824   19.7040 H   0  0  0  0  0  0
  -28.4596  -24.0525   19.5736 H   0  0  0  0  0  0
  -29.5801  -23.8951   20.9166 H   0  0  0  0  0  0
  -26.6411  -23.0789   20.7894 H   0  0  0  0  0  0
  -27.3530  -23.4756   22.3280 H   0  0  0  0  0  0
  -27.2374  -25.6002   21.5785 H   0  0  0  0  0  0
  -28.9112  -25.8437   21.9331 H   0  0  0  0  0  0
  -29.1884  -14.9899   21.7828 H   0  0  0  0  0  0
  -28.9789  -21.7551   22.0149 H   0  0  0  0  0  0
  1 25  1  0  0  0
  1 30  2  0  0  0
  1 82  1  0  0  0
  2  3  1  0  0  0
  2 25  1  0  0  0
  2 85  1  0  0  0
  2 86  1  0  0  0
  3  4  1  0  0  0
  3 87  1  0  0  0
  3 88  1  0  0  0
  4  5  1  0  0  0
  4 89  1  0  0  0
  4 90  1  0  0  0
  5  6  1  0  0  0
  5 26  1  0  0  0
  5 91  1  0  0  0
  6 25  1  0  0  0
  6 92  1  0  0  0
  6 93  1  0  0  0
  7  8  2  0  0  0
  7 26  1  0  0  0
  7 29  1  0  0  0
  8  9  1  0  0  0
  8 22  1  0  0  0
  9 10  1  0  0  0
  9 27  2  0  0  0
 10 11  2  0  0  0
 10 15  1  0  0  0
 11 12  1  0  0  0
 11 94  1  0  0  0
 12 13  2  0  0  0
 12 95  1  0  0  0
 13 14  1  0  0  0
 13 31  1  0  0  0
 14 15  2  0  0  0
 14 96  1  0  0  0
 15 97  1  0  0  0
 16 17  2  0  0  0
 16 21  1  0  0  0
 16 31  1  0  0  0
 17 18  1  0  0  0
 17 98  1  0  0  0
 18 19  2  0  0  0
 18 99  1  0  0  0
 19 20  1  0  0  0
 19 24  1  0  0  0
 20 21  2  0  0  0
 20100  1  0  0  0
 21 23  1  0  0  0
 22 28  1  0  0  0
 22 32  2  0  0  0
 26 27  1  0  0  0
 28101  1  0  0  0
 28102  1  0  0  0
 29103  1  0  0  0
 29104  1  0  0  0
 33 34  1  0  0  0
 33 66  1  0  0  0
 33 70  2  0  0  0
 34 36  1  0  0  0
 34 59  1  0  0  0
 34105  1  0  0  0
 35 44  2  0  0  0
 35 45  1  0  0  0
 35 68  1  0  0  0
 36 56  1  0  0  0
 36106  1  0  0  0
 37 39  1  0  0  0
 37 47  1  0  0  0
 37 66  1  0  0  0
 37107  1  0  0  0
 38 43  2  0  0  0
 38 46  1  0  0  0
 38 47  1  0  0  0
 39 64  1  0  0  0
 39 67  2  0  0  0
 40 52  1  0  0  0
 40 53  2  0  0  0
 40 58  1  0  0  0
 41108  1  0  0  0
 41109  1  0  0  0
 41110  1  0  0  0
 41 48  1  0  0  0
 42 43  1  0  0  0
 42 66  1  0  0  0
 42111  1  0  0  0
 42112  1  0  0  0
 43 44  1  0  0  0
 44113  1  0  0  0
 45 46  2  0  0  0
 45114  1  0  0  0
 46115  1  0  0  0
 47116  1  0  0  0
 47117  1  0  0  0
 48 56  1  0  0  0
 48 65  1  0  0  0
 48118  1  0  0  0
 49 50  1  0  0  0
 49 53  1  0  0  0
 49 64  1  0  0  0
 49119  1  0  0  0
 50 51  1  0  0  0
 50120  1  0  0  0
 50121  1  0  0  0
 51 52  1  0  0  0
 51122  1  0  0  0
 51123  1  0  0  0
 52124  1  0  0  0
 52125  1  0  0  0
 53 54  1  0  0  0
 54 55  2  0  0  0
 54126  1  0  0  0
 55 57  1  0  0  0
 55127  1  0  0  0
 56 69  2  0  0  0
 57 58  2  0  0  0
 57128  1  0  0  0
 58129  1  0  0  0
 59 60  1  0  0  0
 59 61  1  0  0  0
 59 62  1  0  0  0
 60130  1  0  0  0
 60131  1  0  0  0
 60132  1  0  0  0
 61133  1  0  0  0
 61134  1  0  0  0
 61135  1  0  0  0
 62136  1  0  0  0
 62137  1  0  0  0
 62138  1  0  0  0
 63 65  1  0  0  0
 63139  1  0  0  0
 63140  1  0  0  0
 63141  1  0  0  0
 64142  1  0  0  0
 65143  1  0  0  0
 68 81  1  0  0  0
 71 72  2  0  0  0
 71 74  1  0  0  0
 71144  1  0  0  0
 72 75  1  0  0  0
 72145  1  0  0  0
 73 75  2  0  0  0
 73 76  1  0  0  0
 73146  1  0  0  0
 74 76  2  0  0  0
 74 78  1  0  0  0
 75 82  1  0  0  0
 76 84  1  0  0  0
 77147  1  0  0  0
 77148  1  0  0  0
 77149  1  0  0  0
 77 83  1  0  0  0
 78 83  1  0  0  0
 78150  1  0  0  0
 78151  1  0  0  0
 79 80  1  0  0  0
 79 81  1  0  0  0
 79152  1  0  0  0
 79153  1  0  0  0
 80 83  1  0  0  0
 80154  1  0  0  0
 80155  1  0  0  0
 81156  1  0  0  0
 81157  1  0  0  0
 82158  1  0  0  0
 83159  1  0  0  0
M  CHG  1  83   1
M  ISO  4   1 100  68 101  81 101  82 100
M  END
> <chiral flag>
0

> <version>
0

> <s_m_source_file>
/data/baiqing/PycharmProjects/Reinvent-master-3.2/result/LINK_invent/BTK/process_docking_weight1_custom_product_contain_oxygen_bond_distance_aromatic_linkinvent_7_9_3/rearranged_h_0018.sdf

> <i_m_source_file_index>
1

> <r_mmod_Potential_Energy-OPLS-2005>
-123.312965393066

> <r_mmod_Stretch_Energy-OPLS-2005>
41.7686157226562

> <r_mmod_Bend_Energy-OPLS-2005>
103.873176574707

> <r_mmod_Torsional_Energy-OPLS-2005>
282.567504882812

> <r_mmod_Improper_Torsional_Energy-OPLS-2005>
5.60172033309937

> <r_mmod_Van_der_Waal_Energy-OPLS-2005>
149.639495849609

> <r_mmod_Electrostatic_Energy-OPLS-2005>
-279.183563232422

> <r_mmod_Solvation_Energy-OPLS-2005>
-444.560119628906

> <b_mmod_Minimization_Converged-OPLS-2005>
0

> <r_mmod_RMS_Derivative-OPLS-2005>
5.4221625328064

$$$$
1
                    3D
 Structure written by MMmdl.
158166  0  0  1  0            999 V2000
  -30.6582  -14.6932   20.3736 C   0  0  0  0  0  0
  -30.4331  -12.3919   19.4633 C   0  0  0  0  0  0
  -29.5059  -12.4029   18.2303 C   0  0  0  0  0  0
  -28.0195  -12.3151   18.6442 C   0  0  0  0  0  0
  -27.6363  -13.2160   19.8542 C   0  0  2  0  0  0
  -28.7023  -13.1748   20.9703 C   0  0  0  0  0  0
  -25.2465  -13.8109   20.5697 C   0  0  0  0  0  0
  -24.1771  -13.0381   20.9250 C   0  0  0  0  0  0
  -24.6369  -11.6866   20.8816 C   0  0  0  0  0  0
  -23.9051  -10.4261   21.0439 C   0  0  0  0  0  0
  -24.3606   -9.4175   21.9206 C   0  0  0  0  0  0
  -23.6279   -8.2219   22.0766 C   0  0  0  0  0  0
  -22.4264   -8.0269   21.3549 C   0  0  0  0  0  0
  -21.9899   -9.0243   20.4649 C   0  0  0  0  0  0
  -22.7235  -10.2122   20.3066 C   0  0  0  0  0  0
  -21.6843   -6.0730   22.5284 C   0  0  0  0  0  0
  -21.4014   -6.5635   23.8219 C   0  0  0  0  0  0
  -21.3660   -5.6789   24.9178 C   0  0  0  0  0  0
  -21.6038   -4.3052   24.7228 C   0  0  0  0  0  0
  -21.8818   -3.8142   23.4351 C   0  0  0  0  0  0
  -21.9189   -4.6958   22.3405 C   0  0  0  0  0  0
  -22.7793  -13.5180   21.1871 C   0  0  0  0  0  0
  -22.1658   -4.2144   21.0983 F   0  0  0  0  0  0
  -21.5624   -3.4538   25.7744 F   0  0  0  0  0  0
  -29.9991  -13.4864   20.3529 N   0  0  0  0  0  0
  -26.2925  -12.9299   20.3404 N   0  0  0  0  0  0
  -25.9308  -11.6468   20.5905 N   0  0  0  0  0  0
  -22.0422  -12.8196   22.0428 N   0  0  0  0  0  0
  -25.4029  -15.1816   20.3948 N   0  0  0  0  0  0
  -31.8838  -14.7336   20.2412 O   0  0  0  0  0  0
  -21.6626   -6.8875   21.4248 O   0  0  0  0  0  0
  -22.3492  -14.5489   20.6706 O   0  0  0  0  0  0
  -24.6240  -31.8610   23.2050 C   0  0  0  0  0  0
  -25.9086  -32.4788   23.8383 C   0  0  1  0  0  0
  -27.2272  -27.3293   20.1270 C   0  0  0  0  0  0
  -25.5905  -33.8590   24.2308 N   0  0  0  0  0  0
  -23.4182  -30.4833   21.5484 C   0  0  2  0  0  0
  -24.8658  -28.9413   20.1180 C   0  0  0  0  0  0
  -22.7465  -29.4625   22.4963 C   0  0  0  0  0  0
  -18.0272  -28.1385   22.8485 C   0  0  0  0  0  0
  -24.1481  -36.7283   23.2642 C   0  0  0  0  0  0
  -25.9581  -30.7967   21.3755 C   0  0  0  0  0  0
  -26.0349  -29.4243   20.7197 C   0  0  0  0  0  0
  -27.2186  -28.6309   20.7140 C   0  0  0  0  0  0
  -26.0367  -26.9029   19.4935 C   0  0  0  0  0  0
  -24.8681  -27.6841   19.4966 C   0  0  0  0  0  0
  -23.6325  -29.8162   20.1656 C   0  0  0  0  0  0
  -25.4106  -36.3086   24.0336 C   0  0  1  0  0  0
  -20.5873  -28.3685   23.1287 C   0  0  2  0  0  0
  -20.6761  -26.9414   22.5409 C   0  0  0  0  0  0
  -19.5744  -26.6391   21.5202 C   0  0  0  0  0  0
  -18.1920  -26.7928   22.1617 C   0  0  0  0  0  0
  -19.1526  -28.8854   23.2876 C   0  0  0  0  0  0
  -18.9452  -30.1457   23.8893 C   0  0  0  0  0  0
  -17.6451  -30.6593   24.0561 C   0  0  0  0  0  0
  -25.9040  -34.9454   23.5119 C   0  0  0  0  0  0
  -16.5344  -29.9089   23.6340 C   0  0  0  0  0  0
  -16.7255  -28.6503   23.0363 C   0  0  0  0  0  0
  -26.4484  -31.6591   25.0741 C   0  0  0  0  0  0
  -25.3716  -31.3709   26.1460 C   0  0  0  0  0  0
  -27.0336  -30.3023   24.6187 C   0  0  0  0  0  0
  -27.6060  -32.4320   25.7491 C   0  0  0  0  0  0
  -27.5572  -37.1791   24.8471 C   0  0  0  0  0  0
  -21.4184  -29.3028   22.3684 N   0  0  0  0  0  0
  -26.4287  -37.3778   23.9408 N   0  0  0  0  0  0
  -24.6855  -31.0631   22.1001 N   0  0  0  0  0  0
  -23.4185  -28.8171   23.3049 O   0  0  0  0  0  0
  -28.3492  -26.4883   20.1647 O   0  0  0  0  0  0
  -26.5614  -34.8910   22.4695 O   0  0  0  0  0  0
  -23.5403  -32.1410   23.7375 O   0  0  0  0  0  0
  -31.2203  -19.3700   20.1255 C   0  0  0  0  0  0
  -31.2109  -17.9483   20.0767 C   0  0  0  0  0  0
  -29.0024  -19.3678   21.0413 C   0  0  0  0  0  0
  -28.9864  -17.9363   21.0022 C   0  0  0  0  0  0
  -30.1014  -20.1237   20.5619 C   0  0  0  0  0  0
  -30.0817  -17.1856   20.4750 C   0  0  0  0  0  0
  -27.7251  -17.2439   21.4705 C   0  0  0  0  0  0
  -29.6490  -15.8649   18.5441 C   0  0  0  0  0  0
  -29.3195  -24.0292   20.3444 C   0  0  0  0  0  0
  -29.0060  -22.4989   20.6651 C   0  0  0  0  0  0
  -28.1141  -25.0544   20.4513 C   0  0  0  0  0  0
  -30.1447  -21.5540   20.4792 N   0  0  0  0  0  0
  -29.9228  -15.8085   19.9946 N   0  0  0  0  0  0
  -31.4731  -12.4977   19.1511 H   0  0  0  0  0  0
  -30.3724  -11.4348   19.9841 H   0  0  0  0  0  0
  -29.7482  -11.5581   17.5840 H   0  0  0  0  0  0
  -29.6956  -13.2815   17.6191 H   0  0  0  0  0  0
  -27.8270  -11.2715   18.8963 H   0  0  0  0  0  0
  -27.3776  -12.5378   17.7916 H   0  0  0  0  0  0
  -27.5924  -14.2351   19.4918 H   0  0  0  0  0  0
  -28.7308  -12.1951   21.4493 H   0  0  0  0  0  0
  -28.4689  -13.8981   21.7511 H   0  0  0  0  0  0
  -25.2750   -9.5650   22.4781 H   0  0  0  0  0  0
  -23.9984   -7.4603   22.7478 H   0  0  0  0  0  0
  -21.0834   -8.8761   19.8949 H   0  0  0  0  0  0
  -22.3700  -10.9663   19.6176 H   0  0  0  0  0  0
  -21.2015   -7.6145   23.9725 H   0  0  0  0  0  0
  -21.1478   -6.0517   25.9082 H   0  0  0  0  0  0
  -22.0595   -2.7605   23.2852 H   0  0  0  0  0  0
  -22.4030  -11.9865   22.4837 H   0  0  0  0  0  0
  -21.1034  -13.1239   22.2609 H   0  0  0  0  0  0
  -24.6248  -15.8252   20.4860 H   0  0  0  0  0  0
  -26.2414  -15.6177   20.0345 H   0  0  0  0  0  0
  -26.7153  -32.5460   23.1137 H   0  0  0  0  0  0
  -25.0030  -33.9758   25.0433 H   0  0  0  0  0  0
  -22.7104  -31.3019   21.4041 H   0  0  0  0  0  0
  -23.3746  -35.9613   23.3330 H   0  0  0  0  0  0
  -24.3566  -36.8876   22.2049 H   0  0  0  0  0  0
  -23.7224  -37.6487   23.6652 H   0  0  0  0  0  0
  -26.0853  -31.5610   20.6081 H   0  0  0  0  0  0
  -26.8394  -30.8484   22.0029 H   0  0  0  0  0  0
  -28.1147  -28.9980   21.1950 H   0  0  0  0  0  0
  -25.9818  -25.9546   18.9828 H   0  0  0  0  0  0
  -23.9726  -27.3094   19.0195 H   0  0  0  0  0  0
  -23.7466  -30.5898   19.4053 H   0  0  0  0  0  0
  -22.7557  -29.2392   19.8678 H   0  0  0  0  0  0
  -25.1287  -36.1949   25.0828 H   0  0  0  0  0  0
  -20.9953  -28.3248   24.1414 H   0  0  0  0  0  0
  -20.5653  -26.2293   23.3602 H   0  0  0  0  0  0
  -21.6629  -26.7439   22.1216 H   0  0  0  0  0  0
  -19.6915  -25.6305   21.1227 H   0  0  0  0  0  0
  -19.6688  -27.3205   20.6738 H   0  0  0  0  0  0
  -17.4194  -26.6662   21.4026 H   0  0  0  0  0  0
  -18.0337  -26.0074   22.9020 H   0  0  0  0  0  0
  -19.7925  -30.7267   24.2274 H   0  0  0  0  0  0
  -17.5007  -31.6279   24.5150 H   0  0  0  0  0  0
  -15.5347  -30.2988   23.7679 H   0  0  0  0  0  0
  -15.8647  -28.0817   22.7103 H   0  0  0  0  0  0
  -24.5904  -30.7059   25.7762 H   0  0  0  0  0  0
  -24.8888  -32.2864   26.4887 H   0  0  0  0  0  0
  -25.8022  -30.8870   27.0232 H   0  0  0  0  0  0
  -26.2925  -29.6764   24.1208 H   0  0  0  0  0  0
  -27.4042  -29.7278   25.4684 H   0  0  0  0  0  0
  -27.8784  -30.4323   23.9418 H   0  0  0  0  0  0
  -27.2705  -33.3626   26.2075 H   0  0  0  0  0  0
  -28.3854  -32.6861   25.0297 H   0  0  0  0  0  0
  -28.0757  -31.8440   26.5387 H   0  0  0  0  0  0
  -28.2608  -38.0070   24.7501 H   0  0  0  0  0  0
  -28.1051  -36.2599   24.6332 H   0  0  0  0  0  0
  -27.2288  -37.1481   25.8876 H   0  0  0  0  0  0
  -20.9373  -29.8701   21.6843 H   0  0  0  0  0  0
  -26.0177  -38.2855   24.1408 H   0  0  0  0  0  0
  -32.0971  -19.8820   19.7556 H   0  0  0  0  0  0
  -32.0563  -17.4454   19.6290 H   0  0  0  0  0  0
  -28.1306  -19.8876   21.4105 H   0  0  0  0  0  0
  -27.8360  -16.1620   21.5239 H   0  0  0  0  0  0
  -26.9069  -17.4816   20.7912 H   0  0  0  0  0  0
  -27.4504  -17.5951   22.4648 H   0  0  0  0  0  0
  -29.2921  -16.8479   18.2295 H   0  0  0  0  0  0
  -28.8798  -15.1770   18.2150 H   0  0  0  0  0  0
  -30.5495  -15.6647   17.9600 H   0  0  0  0  0  0
  -29.7192  -24.0982   19.3325 H   0  0  0  0  0  0
  -30.1179  -24.3692   21.0044 H   0  0  0  0  0  0
  -28.1745  -22.1677   20.0409 H   0  0  0  0  0  0
  -28.6616  -22.4166   21.6977 H   0  0  0  0  0  0
  -27.7109  -24.9931   21.4627 H   0  0  0  0  0  0
  -27.3428  -24.6511   19.7990 H   0  0  0  0  0  0
  -30.9917  -21.9561   20.0817 H   0  0  0  0  0  0
  1 25  1  0  0  0
  1 30  2  0  0  0
  1 83  1  0  0  0
  2  3  1  0  0  0
  2 25  1  0  0  0
  2 84  1  0  0  0
  2 85  1  0  0  0
  3  4  1  0  0  0
  3 86  1  0  0  0
  3 87  1  0  0  0
  4  5  1  0  0  0
  4 88  1  0  0  0
  4 89  1  0  0  0
  5  6  1  0  0  0
  5 26  1  0  0  0
  5 90  1  0  0  0
  6 25  1  0  0  0
  6 91  1  0  0  0
  6 92  1  0  0  0
  7  8  2  0  0  0
  7 26  1  0  0  0
  7 29  1  0  0  0
  8  9  1  0  0  0
  8 22  1  0  0  0
  9 10  1  0  0  0
  9 27  2  0  0  0
 10 11  2  0  0  0
 10 15  1  0  0  0
 11 12  1  0  0  0
 11 93  1  0  0  0
 12 13  2  0  0  0
 12 94  1  0  0  0
 13 14  1  0  0  0
 13 31  1  0  0  0
 14 15  2  0  0  0
 14 95  1  0  0  0
 15 96  1  0  0  0
 16 17  2  0  0  0
 16 21  1  0  0  0
 16 31  1  0  0  0
 17 18  1  0  0  0
 17 97  1  0  0  0
 18 19  2  0  0  0
 18 98  1  0  0  0
 19 20  1  0  0  0
 19 24  1  0  0  0
 20 21  2  0  0  0
 20 99  1  0  0  0
 21 23  1  0  0  0
 22 28  1  0  0  0
 22 32  2  0  0  0
 26 27  1  0  0  0
 28100  1  0  0  0
 28101  1  0  0  0
 29102  1  0  0  0
 29103  1  0  0  0
 33 34  1  0  0  0
 33 66  1  0  0  0
 33 70  2  0  0  0
 34 36  1  0  0  0
 34 59  1  0  0  0
 34104  1  0  0  0
 35 44  2  0  0  0
 35 45  1  0  0  0
 35 68  1  0  0  0
 36 56  1  0  0  0
 36105  1  0  0  0
 37 39  1  0  0  0
 37 47  1  0  0  0
 37 66  1  0  0  0
 37106  1  0  0  0
 38 43  2  0  0  0
 38 46  1  0  0  0
 38 47  1  0  0  0
 39 64  1  0  0  0
 39 67  2  0  0  0
 40 52  1  0  0  0
 40 53  2  0  0  0
 40 58  1  0  0  0
 41107  1  0  0  0
 41108  1  0  0  0
 41109  1  0  0  0
 41 48  1  0  0  0
 42 43  1  0  0  0
 42 66  1  0  0  0
 42110  1  0  0  0
 42111  1  0  0  0
 43 44  1  0  0  0
 44112  1  0  0  0
 45 46  2  0  0  0
 45113  1  0  0  0
 46114  1  0  0  0
 47115  1  0  0  0
 47116  1  0  0  0
 48 56  1  0  0  0
 48 65  1  0  0  0
 48117  1  0  0  0
 49 50  1  0  0  0
 49 53  1  0  0  0
 49 64  1  0  0  0
 49118  1  0  0  0
 50 51  1  0  0  0
 50119  1  0  0  0
 50120  1  0  0  0
 51 52  1  0  0  0
 51121  1  0  0  0
 51122  1  0  0  0
 52123  1  0  0  0
 52124  1  0  0  0
 53 54  1  0  0  0
 54 55  2  0  0  0
 54125  1  0  0  0
 55 57  1  0  0  0
 55126  1  0  0  0
 56 69  2  0  0  0
 57 58  2  0  0  0
 57127  1  0  0  0
 58128  1  0  0  0
 59 60  1  0  0  0
 59 61  1  0  0  0
 59 62  1  0  0  0
 60129  1  0  0  0
 60130  1  0  0  0
 60131  1  0  0  0
 61132  1  0  0  0
 61133  1  0  0  0
 61134  1  0  0  0
 62135  1  0  0  0
 62136  1  0  0  0
 62137  1  0  0  0
 63 65  1  0  0  0
 63138  1  0  0  0
 63139  1  0  0  0
 63140  1  0  0  0
 64141  1  0  0  0
 65142  1  0  0  0
 68 81  1  0  0  0
 71 72  2  0  0  0
 71 75  1  0  0  0
 71143  1  0  0  0
 72 76  1  0  0  0
 72144  1  0  0  0
 73 74  1  0  0  0
 73 75  2  0  0  0
 73145  1  0  0  0
 74 76  2  0  0  0
 74 77  1  0  0  0
 75 82  1  0  0  0
 76 83  1  0  0  0
 77146  1  0  0  0
 77147  1  0  0  0
 77148  1  0  0  0
 78 83  1  0  0  0
 78149  1  0  0  0
 78150  1  0  0  0
 78151  1  0  0  0
 79 80  1  0  0  0
 79 81  1  0  0  0
 79152  1  0  0  0
 79153  1  0  0  0
 80 82  1  0  0  0
 80154  1  0  0  0
 80155  1  0  0  0
 81156  1  0  0  0
 81157  1  0  0  0
 82158  1  0  0  0
M  ISO  4   1 100  68 101  81 101  83 100
M  END
> <chiral flag>
0

> <version>
0

> <s_m_source_file>
/data/baiqing/PycharmProjects/Reinvent-master-3.2/result/LINK_invent/BTK/process_docking_weight1_custom_product_contain_oxygen_bond_distance_aromatic_linkinvent_7_9_3/rearranged_h_0018.sdf

> <i_m_source_file_index>
2

> <r_mmod_Potential_Energy-OPLS-2005>
291.137115478516

> <r_mmod_Stretch_Energy-OPLS-2005>
78.2944717407227

> <r_mmod_Bend_Energy-OPLS-2005>
155.27668762207

> <r_mmod_Torsional_Energy-OPLS-2005>
333.347473144531

> <r_mmod_Improper_Torsional_Energy-OPLS-2005>
25.5940723419189

> <r_mmod_Van_der_Waal_Energy-OPLS-2005>
146.414047241211

> <r_mmod_Electrostatic_Energy-OPLS-2005>
-314.309692382812

> <r_mmod_Solvation_Energy-OPLS-2005>
-201.3076171875

> <b_mmod_Minimization_Converged-OPLS-2005>
0

> <r_mmod_RMS_Derivative-OPLS-2005>
1.86263227462769

$$$$
2
                    3D
 Structure written by MMmdl.
155164  0  0  1  0            999 V2000
  -30.6500  -14.6910   20.5755 C   0  0  0  0  0  0
  -30.4347  -12.4479   19.4665 C   0  0  0  0  0  0
  -29.5097  -12.5313   18.2325 C   0  0  0  0  0  0
  -28.0358  -12.3477   18.6405 C   0  0  0  0  0  0
  -27.6488  -13.2261   19.8576 C   0  0  2  0  0  0
  -28.6862  -13.1051   20.9914 C   0  0  0  0  0  0
  -25.2538  -13.8189   20.5683 C   0  0  0  0  0  0
  -24.1815  -13.0440   20.9179 C   0  0  0  0  0  0
  -24.6397  -11.6915   20.8724 C   0  0  0  0  0  0
  -23.9072  -10.4295   21.0395 C   0  0  0  0  0  0
  -24.3621   -9.4211   21.9176 C   0  0  0  0  0  0
  -23.6295   -8.2247   22.0751 C   0  0  0  0  0  0
  -22.4275   -8.0284   21.3545 C   0  0  0  0  0  0
  -21.9910   -9.0257   20.4648 C   0  0  0  0  0  0
  -22.7239  -10.2135   20.3052 C   0  0  0  0  0  0
  -21.6855   -6.0737   22.5280 C   0  0  0  0  0  0
  -21.4016   -6.5640   23.8213 C   0  0  0  0  0  0
  -21.3660   -5.6793   24.9176 C   0  0  0  0  0  0
  -21.6043   -4.3055   24.7227 C   0  0  0  0  0  0
  -21.8818   -3.8148   23.4347 C   0  0  0  0  0  0
  -21.9194   -4.6965   22.3403 C   0  0  0  0  0  0
  -22.7838  -13.5226   21.1854 C   0  0  0  0  0  0
  -22.1661   -4.2150   21.0980 F   0  0  0  0  0  0
  -21.5628   -3.4539   25.7739 F   0  0  0  0  0  0
  -30.0031  -13.4759   20.4456 N   0  0  0  0  0  0
  -26.2963  -12.9385   20.3277 N   0  0  0  0  0  0
  -25.9325  -11.6530   20.5722 N   0  0  0  0  0  0
  -22.0492  -12.8219   22.0420 N   0  0  0  0  0  0
  -25.4250  -15.1911   20.4130 N   0  0  0  0  0  0
  -31.7432  -14.8638   20.0264 O   0  0  0  0  0  0
  -21.6640   -6.8880   21.4242 O   0  0  0  0  0  0
  -22.3516  -14.5531   20.6706 O   0  0  0  0  0  0
  -24.6315  -31.8559   23.1998 C   0  0  0  0  0  0
  -25.9145  -32.4757   23.8338 C   0  0  1  0  0  0
  -27.2184  -27.2663   20.1205 C   0  0  0  0  0  0
  -25.5943  -33.8560   24.2261 N   0  0  0  0  0  0
  -23.4274  -30.4806   21.5433 C   0  0  2  0  0  0
  -24.8739  -28.9324   20.1084 C   0  0  0  0  0  0
  -22.7503  -29.4609   22.4911 C   0  0  0  0  0  0
  -18.0293  -28.1387   22.8483 C   0  0  0  0  0  0
  -24.1493  -36.7284   23.2637 C   0  0  0  0  0  0
  -25.9746  -30.7693   21.3813 C   0  0  0  0  0  0
  -26.0464  -29.3940   20.7199 C   0  0  0  0  0  0
  -27.2203  -28.5729   20.7169 C   0  0  0  0  0  0
  -26.0217  -26.8803   19.4708 C   0  0  0  0  0  0
  -24.8668  -27.6831   19.4736 C   0  0  0  0  0  0
  -23.6450  -29.8188   20.1583 C   0  0  0  0  0  0
  -25.4118  -36.3069   24.0326 C   0  0  1  0  0  0
  -20.5898  -28.3700   23.1266 C   0  0  2  0  0  0
  -20.6781  -26.9416   22.5408 C   0  0  0  0  0  0
  -19.5756  -26.6380   21.5214 C   0  0  0  0  0  0
  -18.1936  -26.7928   22.1626 C   0  0  0  0  0  0
  -19.1547  -28.8861   23.2869 C   0  0  0  0  0  0
  -18.9468  -30.1462   23.8887 C   0  0  0  0  0  0
  -17.6466  -30.6586   24.0562 C   0  0  0  0  0  0
  -25.9058  -34.9441   23.5094 C   0  0  0  0  0  0
  -16.5357  -29.9083   23.6331 C   0  0  0  0  0  0
  -16.7279  -28.6502   23.0350 C   0  0  0  0  0  0
  -26.4506  -31.6582   25.0730 C   0  0  0  0  0  0
  -25.3727  -31.3752   26.1452 C   0  0  0  0  0  0
  -27.0346  -30.2989   24.6233 C   0  0  0  0  0  0
  -27.6060  -32.4325   25.7498 C   0  0  0  0  0  0
  -27.5582  -37.1792   24.8461 C   0  0  0  0  0  0
  -21.4210  -29.3048   22.3654 N   0  0  0  0  0  0
  -26.4290  -37.3770   23.9412 N   0  0  0  0  0  0
  -24.6968  -31.0529   22.0975 N   0  0  0  0  0  0
  -23.4205  -28.8143   23.3004 O   0  0  0  0  0  0
  -28.3089  -26.3636   20.1917 O   0  0  0  0  0  0
  -26.5625  -34.8915   22.4661 O   0  0  0  0  0  0
  -23.5466  -32.1382   23.7295 O   0  0  0  0  0  0
  -30.1773  -19.2962   19.8050 C   0  0  0  0  0  0
  -30.3797  -17.8757   19.9658 C   0  0  0  0  0  0
  -28.8007  -19.3344   21.7057 C   0  0  0  0  0  0
  -29.4026  -20.1227   20.6844 C   0  0  0  0  0  0
  -29.8159  -17.1273   21.0429 C   0  0  0  0  0  0
  -28.9760  -17.9266   21.8811 C   0  0  0  0  0  0
  -28.5562  -22.6128   21.3327 C   0  0  0  0  0  0
  -29.3438  -22.4327   19.4270 C   0  0  0  0  0  0
  -29.0835  -23.7153   20.3213 C   0  0  1  0  0  0
  -30.1940  -15.3755   22.8043 C   0  0  0  0  0  0
  -28.0662  -24.9016   19.9190 C   0  0  0  0  0  0
  -29.2516  -21.6042   20.6369 N   0  0  0  0  0  0
  -30.0879  -15.6859   21.3650 N   0  0  0  0  0  0
  -27.8093  -22.5582   22.2879 O   0  0  0  0  0  0
  -28.3002  -17.3554   22.9070 F   0  0  0  0  0  0
  -31.4750  -12.5755   19.1632 H   0  0  0  0  0  0
  -30.3827  -11.4558   19.9177 H   0  0  0  0  0  0
  -29.7908  -11.7760   17.4974 H   0  0  0  0  0  0
  -29.6372  -13.4981   17.7429 H   0  0  0  0  0  0
  -27.8885  -11.2947   18.8840 H   0  0  0  0  0  0
  -27.3790  -12.5594   17.7957 H   0  0  0  0  0  0
  -27.6622  -14.2596   19.5107 H   0  0  0  0  0  0
  -28.7132  -12.0878   21.3842 H   0  0  0  0  0  0
  -28.3810  -13.7341   21.8236 H   0  0  0  0  0  0
  -25.2768   -9.5688   22.4746 H   0  0  0  0  0  0
  -24.0007   -7.4640   22.7471 H   0  0  0  0  0  0
  -21.0840   -8.8776   19.8956 H   0  0  0  0  0  0
  -22.3695  -10.9672   19.6160 H   0  0  0  0  0  0
  -21.2007   -7.6149   23.9718 H   0  0  0  0  0  0
  -21.1482   -6.0523   25.9080 H   0  0  0  0  0  0
  -22.0596   -2.7610   23.2848 H   0  0  0  0  0  0
  -22.4115  -11.9881   22.4805 H   0  0  0  0  0  0
  -21.1114  -13.1245   22.2638 H   0  0  0  0  0  0
  -24.6659  -15.8510   20.5425 H   0  0  0  0  0  0
  -26.2906  -15.6332   20.1305 H   0  0  0  0  0  0
  -26.7209  -32.5402   23.1076 H   0  0  0  0  0  0
  -25.0094  -33.9696   25.0409 H   0  0  0  0  0  0
  -22.7240  -31.3034   21.3998 H   0  0  0  0  0  0
  -23.3755  -35.9615   23.3296 H   0  0  0  0  0  0
  -24.3584  -36.8912   22.2052 H   0  0  0  0  0  0
  -23.7246  -37.6485   23.6665 H   0  0  0  0  0  0
  -26.1179  -31.5326   20.6151 H   0  0  0  0  0  0
  -26.8501  -30.8130   22.0174 H   0  0  0  0  0  0
  -28.1151  -28.9196   21.2145 H   0  0  0  0  0  0
  -25.9387  -25.9320   18.9626 H   0  0  0  0  0  0
  -23.9709  -27.3264   18.9843 H   0  0  0  0  0  0
  -23.7709  -30.5971   19.4048 H   0  0  0  0  0  0
  -22.7631  -29.2539   19.8509 H   0  0  0  0  0  0
  -25.1301  -36.1912   25.0819 H   0  0  0  0  0  0
  -20.9993  -28.3279   24.1386 H   0  0  0  0  0  0
  -20.5678  -26.2312   23.3614 H   0  0  0  0  0  0
  -21.6650  -26.7435   22.1206 H   0  0  0  0  0  0
  -19.6916  -25.6289   21.1250 H   0  0  0  0  0  0
  -19.6693  -27.3185   20.6737 H   0  0  0  0  0  0
  -17.4207  -26.6674   21.4027 H   0  0  0  0  0  0
  -18.0336  -26.0072   22.9024 H   0  0  0  0  0  0
  -19.7943  -30.7282   24.2250 H   0  0  0  0  0  0
  -17.5019  -31.6266   24.5167 H   0  0  0  0  0  0
  -15.5357  -30.2982   23.7658 H   0  0  0  0  0  0
  -15.8679  -28.0818   22.7068 H   0  0  0  0  0  0
  -24.5899  -30.7100   25.7789 H   0  0  0  0  0  0
  -24.8925  -32.2933   26.4847 H   0  0  0  0  0  0
  -25.8040  -30.8951   27.0245 H   0  0  0  0  0  0
  -26.2932  -29.6736   24.1244 H   0  0  0  0  0  0
  -27.3993  -29.7255   25.4766 H   0  0  0  0  0  0
  -27.8830  -30.4243   23.9503 H   0  0  0  0  0  0
  -27.2665  -33.3627   26.2066 H   0  0  0  0  0  0
  -28.3870  -32.6882   25.0327 H   0  0  0  0  0  0
  -28.0728  -31.8461   26.5422 H   0  0  0  0  0  0
  -28.2592  -38.0095   24.7519 H   0  0  0  0  0  0
  -28.1087  -36.2629   24.6274 H   0  0  0  0  0  0
  -27.2306  -37.1429   25.8865 H   0  0  0  0  0  0
  -20.9392  -29.8773   21.6863 H   0  0  0  0  0  0
  -26.0168  -38.2844   24.1418 H   0  0  0  0  0  0
  -30.6846  -19.7752   18.9794 H   0  0  0  0  0  0
  -31.0269  -17.3739   19.2609 H   0  0  0  0  0  0
  -28.1713  -19.8329   22.4276 H   0  0  0  0  0  0
  -30.3235  -22.4106   18.9474 H   0  0  0  0  0  0
  -28.5440  -22.2216   18.7127 H   0  0  0  0  0  0
  -30.0429  -24.1261   20.6366 H   0  0  0  0  0  0
  -30.6687  -16.1987   23.3397 H   0  0  0  0  0  0
  -30.7936  -14.4879   23.0233 H   0  0  0  0  0  0
  -29.2148  -15.2088   23.2514 H   0  0  0  0  0  0
  -27.1064  -24.6517   20.3734 H   0  0  0  0  0  0
  -27.9004  -24.8273   18.8438 H   0  0  0  0  0  0
  1 25  1  0  0  0
  1 30  2  0  0  0
  1 83  1  0  0  0
  2  3  1  0  0  0
  2 25  1  0  0  0
  2 86  1  0  0  0
  2 87  1  0  0  0
  3  4  1  0  0  0
  3 88  1  0  0  0
  3 89  1  0  0  0
  4  5  1  0  0  0
  4 90  1  0  0  0
  4 91  1  0  0  0
  5  6  1  0  0  0
  5 26  1  0  0  0
  5 92  1  0  0  0
  6 25  1  0  0  0
  6 93  1  0  0  0
  6 94  1  0  0  0
  7  8  2  0  0  0
  7 26  1  0  0  0
  7 29  1  0  0  0
  8  9  1  0  0  0
  8 22  1  0  0  0
  9 10  1  0  0  0
  9 27  2  0  0  0
 10 11  2  0  0  0
 10 15  1  0  0  0
 11 12  1  0  0  0
 11 95  1  0  0  0
 12 13  2  0  0  0
 12 96  1  0  0  0
 13 14  1  0  0  0
 13 31  1  0  0  0
 14 15  2  0  0  0
 14 97  1  0  0  0
 15 98  1  0  0  0
 16 17  2  0  0  0
 16 21  1  0  0  0
 16 31  1  0  0  0
 17 18  1  0  0  0
 17 99  1  0  0  0
 18 19  2  0  0  0
 18100  1  0  0  0
 19 20  1  0  0  0
 19 24  1  0  0  0
 20 21  2  0  0  0
 20101  1  0  0  0
 21 23  1  0  0  0
 22 28  1  0  0  0
 22 32  2  0  0  0
 26 27  1  0  0  0
 28102  1  0  0  0
 28103  1  0  0  0
 29104  1  0  0  0
 29105  1  0  0  0
 33 34  1  0  0  0
 33 66  1  0  0  0
 33 70  2  0  0  0
 34 36  1  0  0  0
 34 59  1  0  0  0
 34106  1  0  0  0
 35 44  2  0  0  0
 35 45  1  0  0  0
 35 68  1  0  0  0
 36 56  1  0  0  0
 36107  1  0  0  0
 37 39  1  0  0  0
 37 47  1  0  0  0
 37 66  1  0  0  0
 37108  1  0  0  0
 38 43  2  0  0  0
 38 46  1  0  0  0
 38 47  1  0  0  0
 39 64  1  0  0  0
 39 67  2  0  0  0
 40 52  1  0  0  0
 40 53  2  0  0  0
 40 58  1  0  0  0
 41109  1  0  0  0
 41110  1  0  0  0
 41111  1  0  0  0
 41 48  1  0  0  0
 42 43  1  0  0  0
 42 66  1  0  0  0
 42112  1  0  0  0
 42113  1  0  0  0
 43 44  1  0  0  0
 44114  1  0  0  0
 45 46  2  0  0  0
 45115  1  0  0  0
 46116  1  0  0  0
 47117  1  0  0  0
 47118  1  0  0  0
 48 56  1  0  0  0
 48 65  1  0  0  0
 48119  1  0  0  0
 49 50  1  0  0  0
 49 53  1  0  0  0
 49 64  1  0  0  0
 49120  1  0  0  0
 50 51  1  0  0  0
 50121  1  0  0  0
 50122  1  0  0  0
 51 52  1  0  0  0
 51123  1  0  0  0
 51124  1  0  0  0
 52125  1  0  0  0
 52126  1  0  0  0
 53 54  1  0  0  0
 54 55  2  0  0  0
 54127  1  0  0  0
 55 57  1  0  0  0
 55128  1  0  0  0
 56 69  2  0  0  0
 57 58  2  0  0  0
 57129  1  0  0  0
 58130  1  0  0  0
 59 60  1  0  0  0
 59 61  1  0  0  0
 59 62  1  0  0  0
 60131  1  0  0  0
 60132  1  0  0  0
 60133  1  0  0  0
 61134  1  0  0  0
 61135  1  0  0  0
 61136  1  0  0  0
 62137  1  0  0  0
 62138  1  0  0  0
 62139  1  0  0  0
 63 65  1  0  0  0
 63140  1  0  0  0
 63141  1  0  0  0
 63142  1  0  0  0
 64143  1  0  0  0
 65144  1  0  0  0
 68 81  1  0  0  0
 71 72  2  0  0  0
 71 74  1  0  0  0
 71145  1  0  0  0
 72 75  1  0  0  0
 72146  1  0  0  0
 73 74  2  0  0  0
 73 76  1  0  0  0
 73147  1  0  0  0
 74 82  1  0  0  0
 75 76  2  0  0  0
 75 83  1  0  0  0
 76 85  1  0  0  0
 77 79  1  0  0  0
 77 82  1  0  0  0
 77 84  2  0  0  0
 78 79  1  0  0  0
 78 82  1  0  0  0
 78148  1  0  0  0
 78149  1  0  0  0
 79 81  1  0  0  0
 79150  1  0  0  0
 80 83  1  0  0  0
 80151  1  0  0  0
 80152  1  0  0  0
 80153  1  0  0  0
 81154  1  0  0  0
 81155  1  0  0  0
M  ISO  4   1 100  68 101  81 101  83 100
M  END
> <chiral flag>
0

> <version>
0

> <s_m_source_file>
/data/baiqing/PycharmProjects/Reinvent-master-3.2/result/LINK_invent/BTK/process_docking_weight1_custom_product_contain_oxygen_bond_distance_aromatic_linkinvent_7_9_3/rearranged_h_0018.sdf

> <i_m_source_file_index>
3

> <r_mmod_Potential_Energy-OPLS-2005>
304.565155029297

> <r_mmod_Stretch_Energy-OPLS-2005>
118.70386505127

> <r_mmod_Bend_Energy-OPLS-2005>
202.110305786133

> <r_mmod_Torsional_Energy-OPLS-2005>
288.956390380859

> <r_mmod_Improper_Torsional_Energy-OPLS-2005>
4.88110399246216

> <r_mmod_Van_der_Waal_Energy-OPLS-2005>
152.730270385742

> <r_mmod_Electrostatic_Energy-OPLS-2005>
-330.493041992188

> <r_mmod_Solvation_Energy-OPLS-2005>
-203.926773071289

> <b_mmod_Minimization_Converged-OPLS-2005>
0

> <r_mmod_RMS_Derivative-OPLS-2005>
0.480326026678085

$$$$
3
                    3D
 Structure written by MMmdl.
167175  0  0  1  0            999 V2000
  -30.6302  -14.6254   20.5173 C   0  0  0  0  0  0
  -30.4406  -12.3873   19.4522 C   0  0  0  0  0  0
  -29.5083  -12.5106   18.2262 C   0  0  0  0  0  0
  -28.0311  -12.3494   18.6374 C   0  0  0  0  0  0
  -27.6575  -13.2148   19.8702 C   0  0  2  0  0  0
  -28.7016  -13.0569   20.9989 C   0  0  0  0  0  0
  -25.2579  -13.8169   20.5695 C   0  0  0  0  0  0
  -24.1834  -13.0439   20.9178 C   0  0  0  0  0  0
  -24.6398  -11.6906   20.8726 C   0  0  0  0  0  0
  -23.9060  -10.4293   21.0396 C   0  0  0  0  0  0
  -24.3607   -9.4211   21.9180 C   0  0  0  0  0  0
  -23.6286   -8.2245   22.0754 C   0  0  0  0  0  0
  -22.4270   -8.0281   21.3541 C   0  0  0  0  0  0
  -21.9901   -9.0250   20.4641 C   0  0  0  0  0  0
  -22.7227  -10.2133   20.3049 C   0  0  0  0  0  0
  -21.6855   -6.0730   22.5275 C   0  0  0  0  0  0
  -21.4014   -6.5633   23.8206 C   0  0  0  0  0  0
  -21.3658   -5.6790   24.9168 C   0  0  0  0  0  0
  -21.6045   -4.3052   24.7223 C   0  0  0  0  0  0
  -21.8821   -3.8141   23.4345 C   0  0  0  0  0  0
  -21.9192   -4.6959   22.3399 C   0  0  0  0  0  0
  -22.7854  -13.5236   21.1840 C   0  0  0  0  0  0
  -22.1662   -4.2141   21.0979 F   0  0  0  0  0  0
  -21.5628   -3.4540   25.7738 F   0  0  0  0  0  0
  -30.0206  -13.4001   20.4416 N   0  0  0  0  0  0
  -26.3011  -12.9346   20.3352 N   0  0  0  0  0  0
  -25.9330  -11.6501   20.5763 N   0  0  0  0  0  0
  -22.0494  -12.8226   22.0392 N   0  0  0  0  0  0
  -25.4303  -15.1891   20.4133 N   0  0  0  0  0  0
  -31.7751  -14.8000   20.0884 O   0  0  0  0  0  0
  -21.6639   -6.8874   21.4237 O   0  0  0  0  0  0
  -22.3540  -14.5544   20.6690 O   0  0  0  0  0  0
  -24.6254  -31.8603   23.2041 C   0  0  0  0  0  0
  -25.9106  -32.4785   23.8365 C   0  0  1  0  0  0
  -27.2247  -27.3277   20.1103 C   0  0  0  0  0  0
  -25.5919  -33.8587   24.2288 N   0  0  0  0  0  0
  -23.4182  -30.4856   21.5464 C   0  0  2  0  0  0
  -24.8640  -28.9438   20.1118 C   0  0  0  0  0  0
  -22.7468  -29.4625   22.4940 C   0  0  0  0  0  0
  -18.0280  -28.1373   22.8476 C   0  0  0  0  0  0
  -24.1483  -36.7289   23.2636 C   0  0  0  0  0  0
  -25.9593  -30.7950   21.3727 C   0  0  0  0  0  0
  -26.0340  -29.4237   20.7135 C   0  0  0  0  0  0
  -27.2173  -28.6280   20.7015 C   0  0  0  0  0  0
  -26.0271  -26.8991   19.4886 C   0  0  0  0  0  0
  -24.8621  -27.6865   19.4918 C   0  0  0  0  0  0
  -23.6316  -29.8225   20.1614 C   0  0  0  0  0  0
  -25.4105  -36.3083   24.0330 C   0  0  1  0  0  0
  -20.5883  -28.3674   23.1279 C   0  0  2  0  0  0
  -20.6767  -26.9396   22.5406 C   0  0  0  0  0  0
  -19.5747  -26.6372   21.5203 C   0  0  0  0  0  0
  -18.1922  -26.7914   22.1610 C   0  0  0  0  0  0
  -19.1536  -28.8839   23.2871 C   0  0  0  0  0  0
  -18.9468  -30.1441   23.8890 C   0  0  0  0  0  0
  -17.6469  -30.6577   24.0560 C   0  0  0  0  0  0
  -25.9050  -34.9456   23.5108 C   0  0  0  0  0  0
  -16.5358  -29.9078   23.6333 C   0  0  0  0  0  0
  -16.7270  -28.6498   23.0348 C   0  0  0  0  0  0
  -26.4490  -31.6593   25.0733 C   0  0  0  0  0  0
  -25.3718  -31.3727   26.1459 C   0  0  0  0  0  0
  -27.0340  -30.3022   24.6179 C   0  0  0  0  0  0
  -27.6054  -32.4321   25.7500 C   0  0  0  0  0  0
  -27.5580  -37.1788   24.8454 C   0  0  0  0  0  0
  -21.4184  -29.3042   22.3688 N   0  0  0  0  0  0
  -26.4275  -37.3785   23.9423 N   0  0  0  0  0  0
  -24.6867  -31.0627   22.0986 N   0  0  0  0  0  0
  -23.4194  -28.8153   23.3008 O   0  0  0  0  0  0
  -28.3470  -26.4851   20.1573 O   0  0  0  0  0  0
  -26.5626  -34.8923   22.4679 O   0  0  0  0  0  0
  -23.5420  -32.1396   23.7376 O   0  0  0  0  0  0
  -30.7216  -17.7904   19.8806 C   0  0  0  0  0  0
  -30.7042  -19.2126   19.7866 C   0  0  0  0  0  0
  -29.1527  -17.9277   21.6934 C   0  0  0  0  0  0
  -29.1644  -19.3588   21.6418 C   0  0  0  0  0  0
  -29.9425  -17.1062   20.8460 C   0  0  0  0  0  0
  -29.9358  -20.0436   20.6509 C   0  0  0  0  0  0
  -28.5415  -19.5910   24.1348 C   0  0  0  0  0  0
  -32.8592  -22.7203   22.9219 C   0  0  0  0  0  0
  -28.3730  -20.1274   22.7029 C   0  0  0  0  0  0
  -31.5050  -22.1418   22.5017 C   0  0  0  0  0  0
  -29.2922  -24.0160   20.3689 C   0  0  0  0  0  0
  -31.4063  -21.9431   20.9812 C   0  0  0  0  0  0
  -28.9662  -22.4490   20.2961 C   0  0  0  0  0  0
  -28.1210  -25.0279   20.0266 C   0  0  0  0  0  0
  -29.8551  -15.6528   20.9829 N   0  0  0  0  0  0
  -30.0813  -21.4755   20.5681 N   0  0  0  0  0  0
  -31.4810  -12.5147   19.1480 H   0  0  0  0  0  0
  -30.3778  -11.3885   19.8864 H   0  0  0  0  0  0
  -29.7705  -11.7623   17.4769 H   0  0  0  0  0  0
  -29.6511  -13.4823   17.7506 H   0  0  0  0  0  0
  -27.8648  -11.2952   18.8627 H   0  0  0  0  0  0
  -27.3771  -12.5867   17.7973 H   0  0  0  0  0  0
  -27.6806  -14.2530   19.5387 H   0  0  0  0  0  0
  -28.7104  -12.0314   21.3712 H   0  0  0  0  0  0
  -28.4451  -13.6776   21.8582 H   0  0  0  0  0  0
  -25.2753   -9.5694   22.4752 H   0  0  0  0  0  0
  -23.9994   -7.4645   22.7481 H   0  0  0  0  0  0
  -21.0830   -8.8763   19.8951 H   0  0  0  0  0  0
  -22.3679  -10.9666   19.6157 H   0  0  0  0  0  0
  -21.2005   -7.6143   23.9705 H   0  0  0  0  0  0
  -21.1478   -6.0521   25.9071 H   0  0  0  0  0  0
  -22.0600   -2.7603   23.2848 H   0  0  0  0  0  0
  -22.4105  -11.9885   22.4777 H   0  0  0  0  0  0
  -21.1113  -13.1255   22.2599 H   0  0  0  0  0  0
  -24.6656  -15.8455   20.5270 H   0  0  0  0  0  0
  -26.2842  -15.6294   20.0939 H   0  0  0  0  0  0
  -26.7175  -32.5454   23.1116 H   0  0  0  0  0  0
  -25.0071  -33.9737   25.0435 H   0  0  0  0  0  0
  -22.7112  -31.3058   21.4041 H   0  0  0  0  0  0
  -23.3762  -35.9601   23.3269 H   0  0  0  0  0  0
  -24.3578  -36.8941   22.2055 H   0  0  0  0  0  0
  -23.7219  -37.6472   23.6681 H   0  0  0  0  0  0
  -26.0888  -31.5591   20.6049 H   0  0  0  0  0  0
  -26.8409  -30.8428   22.0007 H   0  0  0  0  0  0
  -28.1160  -28.9922   21.1799 H   0  0  0  0  0  0
  -25.9576  -25.9395   19.0001 H   0  0  0  0  0  0
  -23.9647  -27.3127   19.0183 H   0  0  0  0  0  0
  -23.7483  -30.5993   19.4046 H   0  0  0  0  0  0
  -22.7518  -29.2508   19.8599 H   0  0  0  0  0  0
  -25.1282  -36.1929   25.0822 H   0  0  0  0  0  0
  -20.9974  -28.3243   24.1398 H   0  0  0  0  0  0
  -20.5643  -26.2287   23.3605 H   0  0  0  0  0  0
  -21.6641  -26.7402   22.1216 H   0  0  0  0  0  0
  -19.6913  -25.6283   21.1228 H   0  0  0  0  0  0
  -19.6693  -27.3185   20.6735 H   0  0  0  0  0  0
  -17.4195  -26.6664   21.4006 H   0  0  0  0  0  0
  -18.0318  -26.0043   22.8995 H   0  0  0  0  0  0
  -19.7947  -30.7251   24.2254 H   0  0  0  0  0  0
  -17.5028  -31.6257   24.5160 H   0  0  0  0  0  0
  -15.5359  -30.2982   23.7663 H   0  0  0  0  0  0
  -15.8664  -28.0822   22.7067 H   0  0  0  0  0  0
  -24.5917  -30.7045   25.7795 H   0  0  0  0  0  0
  -24.8883  -32.2889   26.4861 H   0  0  0  0  0  0
  -25.8042  -30.8934   27.0253 H   0  0  0  0  0  0
  -26.2923  -29.6766   24.1200 H   0  0  0  0  0  0
  -27.4051  -29.7281   25.4681 H   0  0  0  0  0  0
  -27.8775  -30.4323   23.9395 H   0  0  0  0  0  0
  -27.2689  -33.3641   26.2054 H   0  0  0  0  0  0
  -28.3879  -32.6846   25.0332 H   0  0  0  0  0  0
  -28.0700  -31.8454   26.5435 H   0  0  0  0  0  0
  -28.2561  -38.0121   24.7565 H   0  0  0  0  0  0
  -28.1115  -36.2661   24.6196 H   0  0  0  0  0  0
  -27.2310  -37.1337   25.8856 H   0  0  0  0  0  0
  -20.9358  -29.8790   21.6926 H   0  0  0  0  0  0
  -26.0153  -38.2845   24.1478 H   0  0  0  0  0  0
  -31.3371  -17.2351   19.1871 H   0  0  0  0  0  0
  -31.3233  -19.6759   19.0318 H   0  0  0  0  0  0
  -28.5337  -17.4398   22.4316 H   0  0  0  0  0  0
  -28.0243  -20.2358   24.8461 H   0  0  0  0  0  0
  -29.5929  -19.5642   24.4232 H   0  0  0  0  0  0
  -28.1307  -18.5896   24.2588 H   0  0  0  0  0  0
  -32.9101  -22.8470   24.0035 H   0  0  0  0  0  0
  -33.0286  -23.6954   22.4641 H   0  0  0  0  0  0
  -33.6777  -22.0636   22.6252 H   0  0  0  0  0  0
  -27.3197  -20.1295   22.4211 H   0  0  0  0  0  0
  -28.6865  -21.1686   22.7315 H   0  0  0  0  0  0
  -30.7119  -22.8031   22.8513 H   0  0  0  0  0  0
  -31.3529  -21.1871   23.0071 H   0  0  0  0  0  0
  -30.1149  -24.2396   19.6904 H   0  0  0  0  0  0
  -29.6506  -24.2555   21.3695 H   0  0  0  0  0  0
  -32.1754  -21.2373   20.6628 H   0  0  0  0  0  0
  -31.6538  -22.8715   20.4675 H   0  0  0  0  0  0
  -28.5935  -22.2290   19.2946 H   0  0  0  0  0  0
  -28.1267  -22.2386   20.9571 H   0  0  0  0  0  0
  -27.2728  -24.7575   20.6574 H   0  0  0  0  0  0
  -27.8212  -24.8224   18.9986 H   0  0  0  0  0  0
  -29.0138  -15.3253   21.4330 H   0  0  0  0  0  0
  1 25  1  0  0  0
  1 30  2  0  0  0
  1 85  1  0  0  0
  2  3  1  0  0  0
  2 25  1  0  0  0
  2 87  1  0  0  0
  2 88  1  0  0  0
  3  4  1  0  0  0
  3 89  1  0  0  0
  3 90  1  0  0  0
  4  5  1  0  0  0
  4 91  1  0  0  0
  4 92  1  0  0  0
  5  6  1  0  0  0
  5 26  1  0  0  0
  5 93  1  0  0  0
  6 25  1  0  0  0
  6 94  1  0  0  0
  6 95  1  0  0  0
  7  8  2  0  0  0
  7 26  1  0  0  0
  7 29  1  0  0  0
  8  9  1  0  0  0
  8 22  1  0  0  0
  9 10  1  0  0  0
  9 27  2  0  0  0
 10 11  2  0  0  0
 10 15  1  0  0  0
 11 12  1  0  0  0
 11 96  1  0  0  0
 12 13  2  0  0  0
 12 97  1  0  0  0
 13 14  1  0  0  0
 13 31  1  0  0  0
 14 15  2  0  0  0
 14 98  1  0  0  0
 15 99  1  0  0  0
 16 17  2  0  0  0
 16 21  1  0  0  0
 16 31  1  0  0  0
 17 18  1  0  0  0
 17100  1  0  0  0
 18 19  2  0  0  0
 18101  1  0  0  0
 19 20  1  0  0  0
 19 24  1  0  0  0
 20 21  2  0  0  0
 20102  1  0  0  0
 21 23  1  0  0  0
 22 28  1  0  0  0
 22 32  2  0  0  0
 26 27  1  0  0  0
 28103  1  0  0  0
 28104  1  0  0  0
 29105  1  0  0  0
 29106  1  0  0  0
 33 34  1  0  0  0
 33 66  1  0  0  0
 33 70  2  0  0  0
 34 36  1  0  0  0
 34 59  1  0  0  0
 34107  1  0  0  0
 35 44  2  0  0  0
 35 45  1  0  0  0
 35 68  1  0  0  0
 36 56  1  0  0  0
 36108  1  0  0  0
 37 39  1  0  0  0
 37 47  1  0  0  0
 37 66  1  0  0  0
 37109  1  0  0  0
 38 43  2  0  0  0
 38 46  1  0  0  0
 38 47  1  0  0  0
 39 64  1  0  0  0
 39 67  2  0  0  0
 40 52  1  0  0  0
 40 53  2  0  0  0
 40 58  1  0  0  0
 41110  1  0  0  0
 41111  1  0  0  0
 41112  1  0  0  0
 41 48  1  0  0  0
 42 43  1  0  0  0
 42 66  1  0  0  0
 42113  1  0  0  0
 42114  1  0  0  0
 43 44  1  0  0  0
 44115  1  0  0  0
 45 46  2  0  0  0
 45116  1  0  0  0
 46117  1  0  0  0
 47118  1  0  0  0
 47119  1  0  0  0
 48 56  1  0  0  0
 48 65  1  0  0  0
 48120  1  0  0  0
 49 50  1  0  0  0
 49 53  1  0  0  0
 49 64  1  0  0  0
 49121  1  0  0  0
 50 51  1  0  0  0
 50122  1  0  0  0
 50123  1  0  0  0
 51 52  1  0  0  0
 51124  1  0  0  0
 51125  1  0  0  0
 52126  1  0  0  0
 52127  1  0  0  0
 53 54  1  0  0  0
 54 55  2  0  0  0
 54128  1  0  0  0
 55 57  1  0  0  0
 55129  1  0  0  0
 56 69  2  0  0  0
 57 58  2  0  0  0
 57130  1  0  0  0
 58131  1  0  0  0
 59 60  1  0  0  0
 59 61  1  0  0  0
 59 62  1  0  0  0
 60132  1  0  0  0
 60133  1  0  0  0
 60134  1  0  0  0
 61135  1  0  0  0
 61136  1  0  0  0
 61137  1  0  0  0
 62138  1  0  0  0
 62139  1  0  0  0
 62140  1  0  0  0
 63 65  1  0  0  0
 63141  1  0  0  0
 63142  1  0  0  0
 63143  1  0  0  0
 64144  1  0  0  0
 65145  1  0  0  0
 68 84  1  0  0  0
 71 72  2  0  0  0
 71 75  1  0  0  0
 71146  1  0  0  0
 72 76  1  0  0  0
 72147  1  0  0  0
 73 74  1  0  0  0
 73 75  2  0  0  0
 73148  1  0  0  0
 74 76  2  0  0  0
 74 79  1  0  0  0
 75 85  1  0  0  0
 76 86  1  0  0  0
 77 79  1  0  0  0
 77149  1  0  0  0
 77150  1  0  0  0
 77151  1  0  0  0
 78 80  1  0  0  0
 78152  1  0  0  0
 78153  1  0  0  0
 78154  1  0  0  0
 79155  1  0  0  0
 79156  1  0  0  0
 80 82  1  0  0  0
 80157  1  0  0  0
 80158  1  0  0  0
 81 83  1  0  0  0
 81 84  1  0  0  0
 81159  1  0  0  0
 81160  1  0  0  0
 82 86  1  0  0  0
 82161  1  0  0  0
 82162  1  0  0  0
 83 86  1  0  0  0
 83163  1  0  0  0
 83164  1  0  0  0
 84165  1  0  0  0
 84166  1  0  0  0
 85167  1  0  0  0
M  ISO  4   1 100  68 101  84 101  85 100
M  END
> <chiral flag>
0

> <version>
0

> <s_m_source_file>
/data/baiqing/PycharmProjects/Reinvent-master-3.2/result/LINK_invent/BTK/process_docking_weight1_custom_product_contain_oxygen_bond_distance_aromatic_linkinvent_7_9_3/rearranged_h_0018.sdf

> <i_m_source_file_index>
4

> <r_mmod_Potential_Energy-OPLS-2005>
52.8103523254395

> <r_mmod_Stretch_Energy-OPLS-2005>
79.7931518554688

> <r_mmod_Bend_Energy-OPLS-2005>
146.764358520508

> <r_mmod_Torsional_Energy-OPLS-2005>
245.338150024414

> <r_mmod_Improper_Torsional_Energy-OPLS-2005>
3.76953101158142

> <r_mmod_Van_der_Waal_Energy-OPLS-2005>
147.848205566406

> <r_mmod_Electrostatic_Energy-OPLS-2005>
-405.104125976562

> <r_mmod_Solvation_Energy-OPLS-2005>
-209.288909912109

> <b_mmod_Minimization_Converged-OPLS-2005>
0

> <r_mmod_RMS_Derivative-OPLS-2005>
0.877171635627747

$$$$
4
                    3D
 Structure written by MMmdl.
155163  0  0  1  0            999 V2000
  -30.6735  -14.6392   20.5893 C   0  0  0  0  0  0
  -30.4332  -12.4265   19.4477 C   0  0  0  0  0  0
  -29.5064  -12.5531   18.2216 C   0  0  0  0  0  0
  -28.0294  -12.3833   18.6266 C   0  0  0  0  0  0
  -27.6554  -13.2327   19.8699 C   0  0  2  0  0  0
  -28.6985  -13.0827   20.9978 C   0  0  0  0  0  0
  -25.2527  -13.8193   20.5638 C   0  0  0  0  0  0
  -24.1819  -13.0441   20.9152 C   0  0  0  0  0  0
  -24.6419  -11.6915   20.8731 C   0  0  0  0  0  0
  -23.9088  -10.4278   21.0383 C   0  0  0  0  0  0
  -24.3619   -9.4197   21.9175 C   0  0  0  0  0  0
  -23.6278   -8.2246   22.0759 C   0  0  0  0  0  0
  -22.4262   -8.0276   21.3557 C   0  0  0  0  0  0
  -21.9907   -9.0260   20.4668 C   0  0  0  0  0  0
  -22.7250  -10.2120   20.3056 C   0  0  0  0  0  0
  -21.6862   -6.0722   22.5287 C   0  0  0  0  0  0
  -21.4021   -6.5624   23.8218 C   0  0  0  0  0  0
  -21.3670   -5.6778   24.9186 C   0  0  0  0  0  0
  -21.6038   -4.3041   24.7232 C   0  0  0  0  0  0
  -21.8814   -3.8129   23.4358 C   0  0  0  0  0  0
  -21.9185   -4.6950   22.3411 C   0  0  0  0  0  0
  -22.7834  -13.5240   21.1817 C   0  0  0  0  0  0
  -22.1651   -4.2126   21.0987 F   0  0  0  0  0  0
  -21.5633   -3.4522   25.7750 F   0  0  0  0  0  0
  -30.0164  -13.4371   20.4469 N   0  0  0  0  0  0
  -26.3011  -12.9417   20.3356 N   0  0  0  0  0  0
  -25.9367  -11.6557   20.5783 N   0  0  0  0  0  0
  -22.0438  -12.8265   22.0376 N   0  0  0  0  0  0
  -25.4121  -15.1914   20.4012 N   0  0  0  0  0  0
  -31.7654  -14.8233   20.0416 O   0  0  0  0  0  0
  -21.6645   -6.8858   21.4240 O   0  0  0  0  0  0
  -22.3533  -14.5532   20.6632 O   0  0  0  0  0  0
  -24.6228  -31.8637   23.2023 C   0  0  0  0  0  0
  -25.9093  -32.4795   23.8348 C   0  0  1  0  0  0
  -27.2183  -27.3144   20.1089 C   0  0  0  0  0  0
  -25.5904  -33.8597   24.2269 N   0  0  0  0  0  0
  -23.4127  -30.4887   21.5500 C   0  0  2  0  0  0
  -24.8558  -28.9461   20.1076 C   0  0  0  0  0  0
  -22.7421  -29.4672   22.4981 C   0  0  0  0  0  0
  -18.0281  -28.1373   22.8511 C   0  0  0  0  0  0
  -24.1486  -36.7275   23.2642 C   0  0  0  0  0  0
  -25.9560  -30.7887   21.3767 C   0  0  0  0  0  0
  -26.0267  -29.4204   20.7103 C   0  0  0  0  0  0
  -27.2069  -28.6171   20.7008 C   0  0  0  0  0  0
  -26.0206  -26.9018   19.4752 C   0  0  0  0  0  0
  -24.8552  -27.6911   19.4833 C   0  0  0  0  0  0
  -23.6203  -29.8226   20.1653 C   0  0  0  0  0  0
  -25.4123  -36.3091   24.0331 C   0  0  1  0  0  0
  -20.5867  -28.3680   23.1302 C   0  0  2  0  0  0
  -20.6772  -26.9415   22.5419 C   0  0  0  0  0  0
  -19.5753  -26.6376   21.5224 C   0  0  0  0  0  0
  -18.1929  -26.7923   22.1634 C   0  0  0  0  0  0
  -19.1523  -28.8844   23.2906 C   0  0  0  0  0  0
  -18.9465  -30.1449   23.8920 C   0  0  0  0  0  0
  -17.6461  -30.6596   24.0559 C   0  0  0  0  0  0
  -25.9068  -34.9471   23.5098 C   0  0  0  0  0  0
  -16.5356  -29.9098   23.6316 C   0  0  0  0  0  0
  -16.7261  -28.6499   23.0372 C   0  0  0  0  0  0
  -26.4436  -31.6602   25.0731 C   0  0  0  0  0  0
  -25.3628  -31.3796   26.1420 C   0  0  0  0  0  0
  -27.0276  -30.3014   24.6220 C   0  0  0  0  0  0
  -27.5996  -32.4338   25.7501 C   0  0  0  0  0  0
  -27.5590  -37.1797   24.8471 C   0  0  0  0  0  0
  -21.4148  -29.3040   22.3703 N   0  0  0  0  0  0
  -26.4306  -37.3778   23.9404 N   0  0  0  0  0  0
  -24.6831  -31.0634   22.0995 N   0  0  0  0  0  0
  -23.4152  -28.8231   23.3065 O   0  0  0  0  0  0
  -28.3524  -26.4797   20.1855 O   0  0  0  0  0  0
  -26.5668  -34.8919   22.4684 O   0  0  0  0  0  0
  -23.5389  -32.1477   23.7340 O   0  0  0  0  0  0
  -30.4093  -19.2887   20.1844 C   0  0  0  0  0  0
  -30.6091  -17.8666   20.2506 C   0  0  0  0  0  0
  -28.5473  -19.0841   21.6779 C   0  0  0  0  0  0
  -29.4014  -19.9443   20.9442 C   0  0  0  0  0  0
  -29.8082  -17.0188   21.0718 C   0  0  0  0  0  0
  -28.7265  -17.6722   21.7300 C   0  0  0  0  0  0
  -30.3391  -15.3702   22.8343 C   0  0  0  0  0  0
  -29.0400  -23.9358   20.6597 C   0  0  0  0  0  0
  -29.1200  -22.4339   20.0923 C   0  0  0  0  0  0
  -28.2958  -25.0459   19.7901 C   0  0  0  0  0  0
  -29.2822  -21.3695   21.1291 N   0  0  0  0  0  0
  -30.1175  -15.6087   21.3983 N   0  0  0  0  0  0
  -27.8481  -16.9502   22.4679 F   0  0  0  0  0  0
  -31.4739  -12.5492   19.1434 H   0  0  0  0  0  0
  -30.3716  -11.4237   19.8744 H   0  0  0  0  0  0
  -29.7762  -11.8198   17.4605 H   0  0  0  0  0  0
  -29.6467  -13.5349   17.7645 H   0  0  0  0  0  0
  -27.8545  -11.3266   18.8328 H   0  0  0  0  0  0
  -27.3828  -12.6472   17.7870 H   0  0  0  0  0  0
  -27.6735  -14.2754   19.5509 H   0  0  0  0  0  0
  -28.7198  -12.0585   21.3768 H   0  0  0  0  0  0
  -28.4217  -13.7103   21.8446 H   0  0  0  0  0  0
  -25.2766   -9.5674   22.4748 H   0  0  0  0  0  0
  -23.9994   -7.4632   22.7485 H   0  0  0  0  0  0
  -21.0841   -8.8778   19.8972 H   0  0  0  0  0  0
  -22.3719  -10.9649   19.6152 H   0  0  0  0  0  0
  -21.2012   -7.6124   23.9730 H   0  0  0  0  0  0
  -21.1507   -6.0496   25.9082 H   0  0  0  0  0  0
  -22.0581   -2.7590   23.2869 H   0  0  0  0  0  0
  -22.4037  -11.9999   22.4904 H   0  0  0  0  0  0
  -21.1039  -13.1311   22.2493 H   0  0  0  0  0  0
  -24.6244  -15.8243   20.4853 H   0  0  0  0  0  0
  -26.2818  -15.6618   20.1850 H   0  0  0  0  0  0
  -26.7157  -32.5434   23.1086 H   0  0  0  0  0  0
  -24.9939  -33.9746   25.0333 H   0  0  0  0  0  0
  -22.7069  -31.3117   21.4147 H   0  0  0  0  0  0
  -23.3769  -35.9587   23.3314 H   0  0  0  0  0  0
  -24.3568  -36.8875   22.2051 H   0  0  0  0  0  0
  -23.7208  -37.6469   23.6650 H   0  0  0  0  0  0
  -26.0975  -31.5609   20.6194 H   0  0  0  0  0  0
  -26.8314  -30.8236   22.0134 H   0  0  0  0  0  0
  -28.1029  -28.9851   21.1795 H   0  0  0  0  0  0
  -25.9361  -25.9569   18.9641 H   0  0  0  0  0  0
  -23.9543  -27.3237   19.0104 H   0  0  0  0  0  0
  -23.7181  -30.5993   19.4056 H   0  0  0  0  0  0
  -22.7382  -29.2438   19.8809 H   0  0  0  0  0  0
  -25.1305  -36.1948   25.0829 H   0  0  0  0  0  0
  -20.9973  -28.3259   24.1418 H   0  0  0  0  0  0
  -20.5670  -26.2305   23.3626 H   0  0  0  0  0  0
  -21.6647  -26.7460   22.1223 H   0  0  0  0  0  0
  -19.6909  -25.6279   21.1286 H   0  0  0  0  0  0
  -19.6686  -27.3161   20.6741 H   0  0  0  0  0  0
  -17.4202  -26.6674   21.4032 H   0  0  0  0  0  0
  -18.0337  -26.0060   22.9029 H   0  0  0  0  0  0
  -19.7942  -30.7261   24.2292 H   0  0  0  0  0  0
  -17.5026  -31.6283   24.5158 H   0  0  0  0  0  0
  -15.5355  -30.3016   23.7623 H   0  0  0  0  0  0
  -15.8666  -28.0816   22.7089 H   0  0  0  0  0  0
  -24.5770  -30.7212   25.7695 H   0  0  0  0  0  0
  -24.8864  -32.3004   26.4808 H   0  0  0  0  0  0
  -25.7862  -30.8943   27.0215 H   0  0  0  0  0  0
  -26.2868  -29.6795   24.1176 H   0  0  0  0  0  0
  -27.3866  -29.7246   25.4758 H   0  0  0  0  0  0
  -27.8785  -30.4280   23.9516 H   0  0  0  0  0  0
  -27.2595  -33.3621   26.2116 H   0  0  0  0  0  0
  -28.3780  -32.6945   25.0313 H   0  0  0  0  0  0
  -28.0697  -31.8450   26.5393 H   0  0  0  0  0  0
  -28.2619  -38.0088   24.7520 H   0  0  0  0  0  0
  -28.1079  -36.2618   24.6299 H   0  0  0  0  0  0
  -27.2313  -37.1442   25.8879 H   0  0  0  0  0  0
  -20.9310  -29.8743   21.6915 H   0  0  0  0  0  0
  -26.0194  -38.2857   24.1396 H   0  0  0  0  0  0
  -31.1022  -19.8820   19.6061 H   0  0  0  0  0  0
  -31.4477  -17.4442   19.7176 H   0  0  0  0  0  0
  -27.7419  -19.5077   22.2594 H   0  0  0  0  0  0
  -29.4195  -15.4602   23.4098 H   0  0  0  0  0  0
  -31.0514  -16.1033   23.2206 H   0  0  0  0  0  0
  -30.7534  -14.3853   23.0594 H   0  0  0  0  0  0
  -30.0534  -24.2767   20.8764 H   0  0  0  0  0  0
  -28.5363  -23.9159   21.6265 H   0  0  0  0  0  0
  -29.9374  -22.3627   19.3709 H   0  0  0  0  0  0
  -28.2072  -22.2186   19.5343 H   0  0  0  0  0  0
  -27.2725  -24.6856   19.7697 H   0  0  0  0  0  0
  -28.6658  -24.9845   18.7659 H   0  0  0  0  0  0
  -28.8108  -21.6195   21.9955 H   0  0  0  0  0  0
  1 25  1  0  0  0
  1 30  2  0  0  0
  1 82  1  0  0  0
  2  3  1  0  0  0
  2 25  1  0  0  0
  2 84  1  0  0  0
  2 85  1  0  0  0
  3  4  1  0  0  0
  3 86  1  0  0  0
  3 87  1  0  0  0
  4  5  1  0  0  0
  4 88  1  0  0  0
  4 89  1  0  0  0
  5  6  1  0  0  0
  5 26  1  0  0  0
  5 90  1  0  0  0
  6 25  1  0  0  0
  6 91  1  0  0  0
  6 92  1  0  0  0
  7  8  2  0  0  0
  7 26  1  0  0  0
  7 29  1  0  0  0
  8  9  1  0  0  0
  8 22  1  0  0  0
  9 10  1  0  0  0
  9 27  2  0  0  0
 10 11  2  0  0  0
 10 15  1  0  0  0
 11 12  1  0  0  0
 11 93  1  0  0  0
 12 13  2  0  0  0
 12 94  1  0  0  0
 13 14  1  0  0  0
 13 31  1  0  0  0
 14 15  2  0  0  0
 14 95  1  0  0  0
 15 96  1  0  0  0
 16 17  2  0  0  0
 16 21  1  0  0  0
 16 31  1  0  0  0
 17 18  1  0  0  0
 17 97  1  0  0  0
 18 19  2  0  0  0
 18 98  1  0  0  0
 19 20  1  0  0  0
 19 24  1  0  0  0
 20 21  2  0  0  0
 20 99  1  0  0  0
 21 23  1  0  0  0
 22 28  1  0  0  0
 22 32  2  0  0  0
 26 27  1  0  0  0
 28100  1  0  0  0
 28101  1  0  0  0
 29102  1  0  0  0
 29103  1  0  0  0
 33 34  1  0  0  0
 33 66  1  0  0  0
 33 70  2  0  0  0
 34 36  1  0  0  0
 34 59  1  0  0  0
 34104  1  0  0  0
 35 44  2  0  0  0
 35 45  1  0  0  0
 35 68  1  0  0  0
 36 56  1  0  0  0
 36105  1  0  0  0
 37 39  1  0  0  0
 37 47  1  0  0  0
 37 66  1  0  0  0
 37106  1  0  0  0
 38 43  2  0  0  0
 38 46  1  0  0  0
 38 47  1  0  0  0
 39 64  1  0  0  0
 39 67  2  0  0  0
 40 52  1  0  0  0
 40 53  2  0  0  0
 40 58  1  0  0  0
 41107  1  0  0  0
 41108  1  0  0  0
 41109  1  0  0  0
 41 48  1  0  0  0
 42 43  1  0  0  0
 42 66  1  0  0  0
 42110  1  0  0  0
 42111  1  0  0  0
 43 44  1  0  0  0
 44112  1  0  0  0
 45 46  2  0  0  0
 45113  1  0  0  0
 46114  1  0  0  0
 47115  1  0  0  0
 47116  1  0  0  0
 48 56  1  0  0  0
 48 65  1  0  0  0
 48117  1  0  0  0
 49 50  1  0  0  0
 49 53  1  0  0  0
 49 64  1  0  0  0
 49118  1  0  0  0
 50 51  1  0  0  0
 50119  1  0  0  0
 50120  1  0  0  0
 51 52  1  0  0  0
 51121  1  0  0  0
 51122  1  0  0  0
 52123  1  0  0  0
 52124  1  0  0  0
 53 54  1  0  0  0
 54 55  2  0  0  0
 54125  1  0  0  0
 55 57  1  0  0  0
 55126  1  0  0  0
 56 69  2  0  0  0
 57 58  2  0  0  0
 57127  1  0  0  0
 58128  1  0  0  0
 59 60  1  0  0  0
 59 61  1  0  0  0
 59 62  1  0  0  0
 60129  1  0  0  0
 60130  1  0  0  0
 60131  1  0  0  0
 61132  1  0  0  0
 61133  1  0  0  0
 61134  1  0  0  0
 62135  1  0  0  0
 62136  1  0  0  0
 62137  1  0  0  0
 63 65  1  0  0  0
 63138  1  0  0  0
 63139  1  0  0  0
 63140  1  0  0  0
 64141  1  0  0  0
 65142  1  0  0  0
 68 80  1  0  0  0
 71 72  2  0  0  0
 71 74  1  0  0  0
 71143  1  0  0  0
 72 75  1  0  0  0
 72144  1  0  0  0
 73 74  2  0  0  0
 73 76  1  0  0  0
 73145  1  0  0  0
 74 81  1  0  0  0
 75 76  2  0  0  0
 75 82  1  0  0  0
 76 83  1  0  0  0
 77 82  1  0  0  0
 77146  1  0  0  0
 77147  1  0  0  0
 77148  1  0  0  0
 78 79  1  0  0  0
 78 80  1  0  0  0
 78149  1  0  0  0
 78150  1  0  0  0
 79 81  1  0  0  0
 79151  1  0  0  0
 79152  1  0  0  0
 80153  1  0  0  0
 80154  1  0  0  0
 81155  1  0  0  0
M  ISO  4   1 100  68 101  80 101  82 100
M  END
> <chiral flag>
0

> <version>
0

> <s_m_source_file>
/data/baiqing/PycharmProjects/Reinvent-master-3.2/result/LINK_invent/BTK/process_docking_weight1_custom_product_contain_oxygen_bond_distance_aromatic_linkinvent_7_9_3/rearranged_h_0018.sdf

> <i_m_source_file_index>
5

> <r_mmod_Potential_Energy-OPLS-2005>
265.430145263672

> <r_mmod_Stretch_Energy-OPLS-2005>
90.0171661376953

> <r_mmod_Bend_Energy-OPLS-2005>
164.235290527344

> <r_mmod_Torsional_Energy-OPLS-2005>
310.385864257812

> <r_mmod_Improper_Torsional_Energy-OPLS-2005>
7.0911922454834

> <r_mmod_Van_der_Waal_Energy-OPLS-2005>
147.394409179688

> <r_mmod_Electrostatic_Energy-OPLS-2005>
-305.629791259766

> <r_mmod_Solvation_Energy-OPLS-2005>
-195.973190307617

> <b_mmod_Minimization_Converged-OPLS-2005>
0

> <r_mmod_RMS_Derivative-OPLS-2005>
3.26814246177673

$$$$
5
                    3D
 Structure written by MMmdl.
169178  0  0  1  0            999 V2000
  -30.7929  -14.3531   20.7049 C   0  0  0  0  0  0
  -30.4140  -12.3098   19.3717 C   0  0  0  0  0  0
  -29.4730  -12.5421   18.1773 C   0  0  0  0  0  0
  -28.0004  -12.3950   18.6027 C   0  0  0  0  0  0
  -27.6649  -13.2092   19.8798 C   0  0  2  0  0  0
  -28.7082  -12.9473   20.9868 C   0  0  0  0  0  0
  -25.2604  -13.8181   20.5702 C   0  0  0  0  0  0
  -24.1849  -13.0446   20.9183 C   0  0  0  0  0  0
  -24.6407  -11.6922   20.8738 C   0  0  0  0  0  0
  -23.9073  -10.4303   21.0415 C   0  0  0  0  0  0
  -24.3627   -9.4219   21.9189 C   0  0  0  0  0  0
  -23.6301   -8.2253   22.0752 C   0  0  0  0  0  0
  -22.4278   -8.0293   21.3547 C   0  0  0  0  0  0
  -21.9920   -9.0270   20.4645 C   0  0  0  0  0  0
  -22.7249  -10.2151   20.3060 C   0  0  0  0  0  0
  -21.6856   -6.0749   22.5283 C   0  0  0  0  0  0
  -21.4013   -6.5647   23.8221 C   0  0  0  0  0  0
  -21.3657   -5.6798   24.9178 C   0  0  0  0  0  0
  -21.6047   -4.3063   24.7226 C   0  0  0  0  0  0
  -21.8821   -3.8155   23.4344 C   0  0  0  0  0  0
  -21.9193   -4.6974   22.3403 C   0  0  0  0  0  0
  -22.7868  -13.5248   21.1840 C   0  0  0  0  0  0
  -22.1661   -4.2160   21.0984 F   0  0  0  0  0  0
  -21.5631   -3.4543   25.7737 F   0  0  0  0  0  0
  -30.0456  -13.2467   20.4431 N   0  0  0  0  0  0
  -26.3054  -12.9358   20.3411 N   0  0  0  0  0  0
  -25.9337  -11.6514   20.5772 N   0  0  0  0  0  0
  -22.0502  -12.8240   22.0396 N   0  0  0  0  0  0
  -25.4318  -15.1890   20.4137 N   0  0  0  0  0  0
  -31.8013  -14.6555   20.0557 O   0  0  0  0  0  0
  -21.6645   -6.8891   21.4245 O   0  0  0  0  0  0
  -22.3556  -14.5553   20.6690 O   0  0  0  0  0  0
  -24.6111  -31.8698   23.2101 C   0  0  0  0  0  0
  -25.9000  -32.4832   23.8410 C   0  0  1  0  0  0
  -27.2312  -27.4504   20.1006 C   0  0  0  0  0  0
  -25.5846  -33.8628   24.2331 N   0  0  0  0  0  0
  -23.4000  -30.4923   21.5518 C   0  0  2  0  0  0
  -24.8428  -28.9543   20.1225 C   0  0  0  0  0  0
  -22.7402  -29.4676   22.5006 C   0  0  0  0  0  0
  -18.0268  -28.1377   22.8487 C   0  0  0  0  0  0
  -24.1485  -36.7324   23.2649 C   0  0  0  0  0  0
  -25.9262  -30.8420   21.3594 C   0  0  0  0  0  0
  -26.0040  -29.4766   20.7069 C   0  0  0  0  0  0
  -27.2030  -28.7329   20.6877 C   0  0  0  0  0  0
  -26.0532  -26.9301   19.5243 C   0  0  0  0  0  0
  -24.8602  -27.6769   19.5333 C   0  0  0  0  0  0
  -23.6058  -29.8220   20.1679 C   0  0  0  0  0  0
  -25.4101  -36.3125   24.0360 C   0  0  1  0  0  0
  -20.5856  -28.3673   23.1316 C   0  0  2  0  0  0
  -20.6760  -26.9414   22.5425 C   0  0  0  0  0  0
  -19.5743  -26.6390   21.5207 C   0  0  0  0  0  0
  -18.1916  -26.7923   22.1609 C   0  0  0  0  0  0
  -19.1522  -28.8837   23.2897 C   0  0  0  0  0  0
  -18.9457  -30.1436   23.8916 C   0  0  0  0  0  0
  -17.6465  -30.6587   24.0563 C   0  0  0  0  0  0
  -25.9020  -34.9486   23.5149 C   0  0  0  0  0  0
  -16.5344  -29.9101   23.6332 C   0  0  0  0  0  0
  -16.7262  -28.6510   23.0354 C   0  0  0  0  0  0
  -26.4450  -31.6612   25.0734 C   0  0  0  0  0  0
  -25.3731  -31.3673   26.1485 C   0  0  0  0  0  0
  -27.0321  -30.3071   24.6117 C   0  0  0  0  0  0
  -27.6049  -32.4331   25.7469 C   0  0  0  0  0  0
  -27.5589  -37.1803   24.8474 C   0  0  0  0  0  0
  -21.4136  -29.3034   22.3718 N   0  0  0  0  0  0
  -26.4297  -37.3801   23.9428 N   0  0  0  0  0  0
  -24.6641  -31.0832   22.0981 N   0  0  0  0  0  0
  -23.4161  -28.8212   23.3057 O   0  0  0  0  0  0
  -28.4088  -26.7444   20.0779 O   0  0  0  0  0  0
  -26.5621  -34.8936   22.4733 O   0  0  0  0  0  0
  -23.5310  -32.1428   23.7508 O   0  0  0  0  0  0
  -27.7901  -17.3001   23.1259 C   0  0  0  0  0  0
  -28.3546  -18.0070   20.8767 C   0  0  0  0  0  0
  -28.7137  -16.2440   23.0260 C   0  0  0  0  0  0
  -29.2725  -16.9400   20.7690 C   0  0  0  0  0  0
  -27.6122  -18.2153   22.0613 C   0  0  0  0  0  0
  -29.4818  -16.0602   21.8578 C   0  0  0  0  0  0
  -27.6573  -21.3832   20.9436 C   0  0  0  0  0  0
  -25.0552  -20.6728   23.1107 C   0  0  0  0  0  0
  -26.3546  -21.4783   23.1256 C   0  0  0  0  0  0
  -25.5654  -19.2407   23.0229 C   0  0  0  0  0  0
  -27.3424  -20.6566   22.2709 C   0  0  1  0  0  0
  -31.4459  -14.9690   22.9263 C   0  0  0  0  0  0
  -28.4206  -24.3487   19.4748 C   0  0  0  0  0  0
  -29.1711  -23.0525   19.8549 C   0  0  0  0  0  0
  -28.3707  -25.4097   20.5923 C   0  0  0  0  0  0
  -26.7361  -19.3197   22.1537 N   0  0  0  0  0  0
  -28.6007  -22.3337   20.9958 N   0  0  0  0  0  0
  -30.4699  -15.0263   21.8303 N   0  0  0  0  0  0
  -27.0614  -21.0933   19.9032 O   0  0  0  0  0  0
  -31.4520  -12.4256   19.0548 H   0  0  0  0  0  0
  -30.3268  -11.2853   19.7349 H   0  0  0  0  0  0
  -29.7018  -11.8402   17.3738 H   0  0  0  0  0  0
  -29.6377  -13.5395   17.7659 H   0  0  0  0  0  0
  -27.8050  -11.3355   18.7734 H   0  0  0  0  0  0
  -27.3434  -12.6960   17.7856 H   0  0  0  0  0  0
  -27.7208  -14.2655   19.6150 H   0  0  0  0  0  0
  -28.6743  -11.9026   21.2989 H   0  0  0  0  0  0
  -28.4580  -13.5206   21.8789 H   0  0  0  0  0  0
  -25.2776   -9.5702   22.4758 H   0  0  0  0  0  0
  -24.0019   -7.4648   22.7471 H   0  0  0  0  0  0
  -21.0852   -8.8798   19.8945 H   0  0  0  0  0  0
  -22.3713  -10.9700   19.6172 H   0  0  0  0  0  0
  -21.2001   -7.6156   23.9727 H   0  0  0  0  0  0
  -21.1474   -6.0525   25.9086 H   0  0  0  0  0  0
  -22.0596   -2.7613   23.2845 H   0  0  0  0  0  0
  -22.4119  -11.9917   22.4804 H   0  0  0  0  0  0
  -21.1116  -13.1267   22.2570 H   0  0  0  0  0  0
  -24.6687  -15.8456   20.5354 H   0  0  0  0  0  0
  -26.3030  -15.6360   20.1575 H   0  0  0  0  0  0
  -26.7074  -32.5533   23.1182 H   0  0  0  0  0  0
  -24.9992  -33.9797   25.0476 H   0  0  0  0  0  0
  -22.6870  -31.3058   21.4138 H   0  0  0  0  0  0
  -23.3753  -35.9644   23.3312 H   0  0  0  0  0  0
  -24.3581  -36.8936   22.2064 H   0  0  0  0  0  0
  -23.7241  -37.6530   23.6666 H   0  0  0  0  0  0
  -26.0388  -31.6111   20.5932 H   0  0  0  0  0  0
  -26.8127  -30.8899   21.9809 H   0  0  0  0  0  0
  -28.1028  -29.1357   21.1306 H   0  0  0  0  0  0
  -26.0563  -25.9527   19.0658 H   0  0  0  0  0  0
  -23.9612  -27.2628   19.0971 H   0  0  0  0  0  0
  -23.7125  -30.5941   19.4049 H   0  0  0  0  0  0
  -22.7287  -29.2410   19.8767 H   0  0  0  0  0  0
  -25.1273  -36.2007   25.0858 H   0  0  0  0  0  0
  -20.9940  -28.3262   24.1432 H   0  0  0  0  0  0
  -20.5677  -26.2297   23.3620 H   0  0  0  0  0  0
  -21.6641  -26.7465   22.1217 H   0  0  0  0  0  0
  -19.6934  -25.6303   21.1236 H   0  0  0  0  0  0
  -19.6700  -27.3214   20.6743 H   0  0  0  0  0  0
  -17.4208  -26.6694   21.3991 H   0  0  0  0  0  0
  -18.0286  -26.0065   22.9002 H   0  0  0  0  0  0
  -19.7948  -30.7224   24.2310 H   0  0  0  0  0  0
  -17.5039  -31.6275   24.5158 H   0  0  0  0  0  0
  -15.5342  -30.3009   23.7660 H   0  0  0  0  0  0
  -15.8653  -28.0824   22.7068 H   0  0  0  0  0  0
  -24.5940  -30.6989   25.7810 H   0  0  0  0  0  0
  -24.8866  -32.2787   26.4955 H   0  0  0  0  0  0
  -25.8096  -30.8846   27.0235 H   0  0  0  0  0  0
  -26.2881  -29.6764   24.1240 H   0  0  0  0  0  0
  -27.4202  -29.7364   25.4566 H   0  0  0  0  0  0
  -27.8637  -30.4434   23.9206 H   0  0  0  0  0  0
  -27.2733  -33.3671   26.2010 H   0  0  0  0  0  0
  -28.3836  -32.6807   25.0249 H   0  0  0  0  0  0
  -28.0726  -31.8476   26.5398 H   0  0  0  0  0  0
  -28.2603  -38.0103   24.7511 H   0  0  0  0  0  0
  -28.1099  -36.2640   24.6308 H   0  0  0  0  0  0
  -27.2308  -37.1429   25.8874 H   0  0  0  0  0  0
  -20.9315  -29.8760   21.6926 H   0  0  0  0  0  0
  -26.0206  -38.2892   24.1405 H   0  0  0  0  0  0
  -27.2528  -17.3956   24.0551 H   0  0  0  0  0  0
  -28.2285  -18.6701   20.0322 H   0  0  0  0  0  0
  -28.8320  -15.5751   23.8664 H   0  0  0  0  0  0
  -29.8360  -16.8384   19.8528 H   0  0  0  0  0  0
  -24.4628  -20.9188   22.2275 H   0  0  0  0  0  0
  -24.4362  -20.8521   23.9907 H   0  0  0  0  0  0
  -26.7323  -21.5459   24.1466 H   0  0  0  0  0  0
  -26.2030  -22.5011   22.7753 H   0  0  0  0  0  0
  -24.8089  -18.5594   22.6300 H   0  0  0  0  0  0
  -25.8209  -18.9124   24.0303 H   0  0  0  0  0  0
  -28.2814  -20.5657   22.8232 H   0  0  0  0  0  0
  -31.0807  -15.4094   23.8528 H   0  0  0  0  0  0
  -32.3591  -15.5000   22.6531 H   0  0  0  0  0  0
  -31.7145  -13.9334   23.1455 H   0  0  0  0  0  0
  -27.4121  -24.1086   19.1392 H   0  0  0  0  0  0
  -28.9238  -24.7759   18.6061 H   0  0  0  0  0  0
  -30.2053  -23.2931   20.1056 H   0  0  0  0  0  0
  -29.2294  -22.3884   18.9907 H   0  0  0  0  0  0
  -29.2526  -25.3076   21.2242 H   0  0  0  0  0  0
  -27.5133  -25.2357   21.2465 H   0  0  0  0  0  0
  -29.0241  -22.5037   21.8995 H   0  0  0  0  0  0
  1 25  1  0  0  0
  1 30  2  0  0  0
  1 88  1  0  0  0
  2  3  1  0  0  0
  2 25  1  0  0  0
  2 90  1  0  0  0
  2 91  1  0  0  0
  3  4  1  0  0  0
  3 92  1  0  0  0
  3 93  1  0  0  0
  4  5  1  0  0  0
  4 94  1  0  0  0
  4 95  1  0  0  0
  5  6  1  0  0  0
  5 26  1  0  0  0
  5 96  1  0  0  0
  6 25  1  0  0  0
  6 97  1  0  0  0
  6 98  1  0  0  0
  7  8  2  0  0  0
  7 26  1  0  0  0
  7 29  1  0  0  0
  8  9  1  0  0  0
  8 22  1  0  0  0
  9 10  1  0  0  0
  9 27  2  0  0  0
 10 11  2  0  0  0
 10 15  1  0  0  0
 11 12  1  0  0  0
 11 99  1  0  0  0
 12 13  2  0  0  0
 12100  1  0  0  0
 13 14  1  0  0  0
 13 31  1  0  0  0
 14 15  2  0  0  0
 14101  1  0  0  0
 15102  1  0  0  0
 16 17  2  0  0  0
 16 21  1  0  0  0
 16 31  1  0  0  0
 17 18  1  0  0  0
 17103  1  0  0  0
 18 19  2  0  0  0
 18104  1  0  0  0
 19 20  1  0  0  0
 19 24  1  0  0  0
 20 21  2  0  0  0
 20105  1  0  0  0
 21 23  1  0  0  0
 22 28  1  0  0  0
 22 32  2  0  0  0
 26 27  1  0  0  0
 28106  1  0  0  0
 28107  1  0  0  0
 29108  1  0  0  0
 29109  1  0  0  0
 33 34  1  0  0  0
 33 66  1  0  0  0
 33 70  2  0  0  0
 34 36  1  0  0  0
 34 59  1  0  0  0
 34110  1  0  0  0
 35 44  2  0  0  0
 35 45  1  0  0  0
 35 68  1  0  0  0
 36 56  1  0  0  0
 36111  1  0  0  0
 37 39  1  0  0  0
 37 47  1  0  0  0
 37 66  1  0  0  0
 37112  1  0  0  0
 38 43  2  0  0  0
 38 46  1  0  0  0
 38 47  1  0  0  0
 39 64  1  0  0  0
 39 67  2  0  0  0
 40 52  1  0  0  0
 40 53  2  0  0  0
 40 58  1  0  0  0
 41113  1  0  0  0
 41114  1  0  0  0
 41115  1  0  0  0
 41 48  1  0  0  0
 42 43  1  0  0  0
 42 66  1  0  0  0
 42116  1  0  0  0
 42117  1  0  0  0
 43 44  1  0  0  0
 44118  1  0  0  0
 45 46  2  0  0  0
 45119  1  0  0  0
 46120  1  0  0  0
 47121  1  0  0  0
 47122  1  0  0  0
 48 56  1  0  0  0
 48 65  1  0  0  0
 48123  1  0  0  0
 49 50  1  0  0  0
 49 53  1  0  0  0
 49 64  1  0  0  0
 49124  1  0  0  0
 50 51  1  0  0  0
 50125  1  0  0  0
 50126  1  0  0  0
 51 52  1  0  0  0
 51127  1  0  0  0
 51128  1  0  0  0
 52129  1  0  0  0
 52130  1  0  0  0
 53 54  1  0  0  0
 54 55  2  0  0  0
 54131  1  0  0  0
 55 57  1  0  0  0
 55132  1  0  0  0
 56 69  2  0  0  0
 57 58  2  0  0  0
 57133  1  0  0  0
 58134  1  0  0  0
 59 60  1  0  0  0
 59 61  1  0  0  0
 59 62  1  0  0  0
 60135  1  0  0  0
 60136  1  0  0  0
 60137  1  0  0  0
 61138  1  0  0  0
 61139  1  0  0  0
 61140  1  0  0  0
 62141  1  0  0  0
 62142  1  0  0  0
 62143  1  0  0  0
 63 65  1  0  0  0
 63144  1  0  0  0
 63145  1  0  0  0
 63146  1  0  0  0
 64147  1  0  0  0
 65148  1  0  0  0
 68 85  1  0  0  0
 71 73  2  0  0  0
 71 75  1  0  0  0
 71149  1  0  0  0
 72 74  1  0  0  0
 72 75  2  0  0  0
 72150  1  0  0  0
 73 76  1  0  0  0
 73151  1  0  0  0
 74 76  2  0  0  0
 74152  1  0  0  0
 75 86  1  0  0  0
 76 88  1  0  0  0
 77 87  1  0  0  0
 77 89  2  0  0  0
 77 81  1  0  0  0
 78 79  1  0  0  0
 78 80  1  0  0  0
 78153  1  0  0  0
 78154  1  0  0  0
 79 81  1  0  0  0
 79155  1  0  0  0
 79156  1  0  0  0
 80 86  1  0  0  0
 80157  1  0  0  0
 80158  1  0  0  0
 81 86  1  0  0  0
 81159  1  0  0  0
 82 88  1  0  0  0
 82160  1  0  0  0
 82161  1  0  0  0
 82162  1  0  0  0
 83 84  1  0  0  0
 83 85  1  0  0  0
 83163  1  0  0  0
 83164  1  0  0  0
 84 87  1  0  0  0
 84165  1  0  0  0
 84166  1  0  0  0
 85167  1  0  0  0
 85168  1  0  0  0
 87169  1  0  0  0
M  ISO  4   1 100  68 101  85 101  88 100
M  END
> <chiral flag>
0

> <version>
0

> <s_m_source_file>
/data/baiqing/PycharmProjects/Reinvent-master-3.2/result/LINK_invent/BTK/process_docking_weight1_custom_product_contain_oxygen_bond_distance_aromatic_linkinvent_7_9_3/rearranged_h_0018.sdf

> <i_m_source_file_index>
6

> <r_mmod_Potential_Energy-OPLS-2005>
133.034072875977

> <r_mmod_Stretch_Energy-OPLS-2005>
36.9515113830566

> <r_mmod_Bend_Energy-OPLS-2005>
129.835403442383

> <r_mmod_Torsional_Energy-OPLS-2005>
374.207366943359

> <r_mmod_Improper_Torsional_Energy-OPLS-2005>
8.06811141967773

> <r_mmod_Van_der_Waal_Energy-OPLS-2005>
146.499481201172

> <r_mmod_Electrostatic_Energy-OPLS-2005>
-345.510986328125

> <r_mmod_Solvation_Energy-OPLS-2005>
-224.86848449707

> <b_mmod_Minimization_Converged-OPLS-2005>
0

> <r_mmod_RMS_Derivative-OPLS-2005>
2.611811876297

$$$$
6
                    3D
 Structure written by MMmdl.
165174  0  0  1  0            999 V2000
  -30.3310  -15.5940   20.3449 C   0  0  0  0  0  0
  -30.4236  -13.0513   19.5352 C   0  0  0  0  0  0
  -29.5394  -12.6480   18.3226 C   0  0  0  0  0  0
  -28.1205  -12.2867   18.7771 C   0  0  0  0  0  0
  -27.5980  -13.2980   19.8241 C   0  0  2  0  0  0
  -28.6164  -13.6080   20.9456 C   0  0  0  0  0  0
  -25.2242  -13.8132   20.5817 C   0  0  0  0  0  0
  -24.1647  -13.0313   20.9296 C   0  0  0  0  0  0
  -24.6379  -11.6836   20.8760 C   0  0  0  0  0  0
  -23.9106  -10.4189   21.0378 C   0  0  0  0  0  0
  -24.3653   -9.4107   21.9169 C   0  0  0  0  0  0
  -23.6298   -8.2161   22.0757 C   0  0  0  0  0  0
  -22.4275   -8.0210   21.3548 C   0  0  0  0  0  0
  -21.9915   -9.0175   20.4640 C   0  0  0  0  0  0
  -22.7264  -10.2037   20.3024 C   0  0  0  0  0  0
  -21.6819   -6.0681   22.5278 C   0  0  0  0  0  0
  -21.3988   -6.5605   23.8205 C   0  0  0  0  0  0
  -21.3669   -5.6775   24.9185 C   0  0  0  0  0  0
  -21.6053   -4.3036   24.7242 C   0  0  0  0  0  0
  -21.8826   -3.8105   23.4369 C   0  0  0  0  0  0
  -21.9190   -4.6911   22.3410 C   0  0  0  0  0  0
  -22.7658  -13.5036   21.1941 C   0  0  0  0  0  0
  -22.1680   -4.2099   21.0987 F   0  0  0  0  0  0
  -21.5651   -3.4533   25.7765 F   0  0  0  0  0  0
  -29.7967  -14.2304   20.2997 N   0  0  0  0  0  0
  -26.2742  -12.9529   20.3257 N   0  0  0  0  0  0
  -25.9328  -11.6597   20.5677 N   0  0  0  0  0  0
  -22.0393  -12.7991   22.0525 N   0  0  0  0  0  0
  -25.3681  -15.1811   20.4327 N   0  0  0  0  0  0
  -31.5548  -15.5199   20.1257 O   0  0  0  0  0  0
  -21.6620   -6.8812   21.4239 O   0  0  0  0  0  0
  -22.3281  -14.5314   20.6755 O   0  0  0  0  0  0
  -24.6807  -31.8048   23.1548 C   0  0  0  0  0  0
  -25.9378  -32.4520   23.8120 C   0  0  1  0  0  0
  -27.2427  -26.7530   20.2086 C   0  0  0  0  0  0
  -25.5947  -33.8342   24.2000 N   0  0  0  0  0  0
  -23.5120  -30.4062   21.5000 C   0  0  2  0  0  0
  -24.9753  -28.7516   20.1219 C   0  0  0  0  0  0
  -22.7793  -29.4359   22.4674 C   0  0  0  0  0  0
  -18.0377  -28.1494   22.8279 C   0  0  0  0  0  0
  -24.1483  -36.7179   23.2657 C   0  0  0  0  0  0
  -26.0897  -30.5603   21.4109 C   0  0  0  0  0  0
  -26.1622  -29.1252   20.7632 C   0  0  0  0  0  0
  -27.2857  -28.1518   20.7710 C   0  0  0  0  0  0
  -26.0187  -26.5732   19.5190 C   0  0  0  0  0  0
  -24.9398  -27.5042   19.4754 C   0  0  0  0  0  0
  -23.7686  -29.6967   20.1397 C   0  0  0  0  0  0
  -25.4130  -36.2931   24.0295 C   0  0  1  0  0  0
  -20.5996  -28.3794   23.1108 C   0  0  2  0  0  0
  -20.6781  -26.9442   22.5383 C   0  0  0  0  0  0
  -19.5907  -26.6518   21.5008 C   0  0  0  0  0  0
  -18.1998  -26.8139   22.1187 C   0  0  0  0  0  0
  -19.1631  -28.8929   23.2774 C   0  0  0  0  0  0
  -18.9513  -30.1460   23.8931 C   0  0  0  0  0  0
  -17.6492  -30.6528   24.0686 C   0  0  0  0  0  0
  -25.9093  -34.9314   23.4982 C   0  0  0  0  0  0
  -16.5399  -29.9065   23.6377 C   0  0  0  0  0  0
  -16.7345  -28.6588   23.0172 C   0  0  0  0  0  0
  -26.4578  -31.6531   25.0711 C   0  0  0  0  0  0
  -25.3664  -31.3802   26.1334 C   0  0  0  0  0  0
  -27.0497  -30.2874   24.6563 C   0  0  0  0  0  0
  -27.6024  -32.4380   25.7538 C   0  0  0  0  0  0
  -27.5566  -37.1743   24.8468 C   0  0  0  0  0  0
  -21.4435  -29.3061   22.3435 N   0  0  0  0  0  0
  -26.4273  -37.3672   23.9405 N   0  0  0  0  0  0
  -24.7830  -30.9558   22.0751 N   0  0  0  0  0  0
  -23.4267  -28.7973   23.3009 O   0  0  0  0  0  0
  -28.2312  -25.5727   20.2579 O   0  0  0  0  0  0
  -26.5738  -34.8873   22.4599 O   0  0  0  0  0  0
  -23.5815  -32.1068   23.6501 O   0  0  0  0  0  0
  -26.1446  -18.1586   20.7483 C   0  0  0  0  0  0
  -26.9678  -17.6036   22.9672 C   0  0  0  0  0  0
  -27.2856  -17.5576   20.1838 C   0  0  0  0  0  0
  -28.1346  -17.0330   22.4101 C   0  0  0  0  0  0
  -25.9870  -18.2312   22.1554 C   0  0  0  0  0  0
  -28.3103  -17.0403   21.0080 C   0  0  0  0  0  0
  -23.3134  -20.7383   22.7384 C   0  0  0  0  0  0
  -23.9536  -20.6271   24.1186 C   0  0  0  0  0  0
  -23.7926  -19.4851   21.9859 C   0  0  0  0  0  0
  -25.2390  -19.8438   23.8478 C   0  0  0  0  0  0
  -28.9016  -20.3347   20.2943 C   0  0  0  0  0  0
  -29.0939  -22.2416   20.1897 C   0  0  0  0  0  0
  -29.9276  -18.7010   20.2242 C   0  0  0  0  0  0
  -28.0426  -23.8439   20.2218 C   0  0  0  0  0  0
  -24.9140  -18.9304   22.7562 N   0  0  0  0  0  0
  -29.6072  -16.9864   20.4556 N   0  0  0  0  0  0
  -31.4108  -13.3063   19.1468 H   0  0  0  0  0  0
  -30.5955  -12.1946   20.1882 H   0  0  0  0  0  0
  -29.9891  -11.8083   17.7904 H   0  0  0  0  0  0
  -29.4992  -13.4765   17.6126 H   0  0  0  0  0  0
  -28.1611  -11.2899   19.2242 H   0  0  0  0  0  0
  -27.4444  -12.2178   17.9240 H   0  0  0  0  0  0
  -27.4758  -14.2288   19.2684 H   0  0  0  0  0  0
  -28.8669  -12.7168   21.5228 H   0  0  0  0  0  0
  -28.1765  -14.3116   21.6514 H   0  0  0  0  0  0
  -25.2794   -9.5555   22.4774 H   0  0  0  0  0  0
  -23.9972   -7.4532   22.7479 H   0  0  0  0  0  0
  -21.0839   -8.8652   19.8966 H   0  0  0  0  0  0
  -22.3690  -10.9565   19.6131 H   0  0  0  0  0  0
  -21.1966   -7.6111   23.9693 H   0  0  0  0  0  0
  -21.1499   -6.0511   25.9090 H   0  0  0  0  0  0
  -22.0602   -2.7567   23.2879 H   0  0  0  0  0  0
  -22.4046  -11.9627   22.4848 H   0  0  0  0  0  0
  -21.1002  -13.0912   22.2774 H   0  0  0  0  0  0
  -24.6224  -15.8238   20.6731 H   0  0  0  0  0  0
  -26.2309  -15.6607   20.2154 H   0  0  0  0  0  0
  -26.7478  -32.5042   23.0865 H   0  0  0  0  0  0
  -25.0048  -33.9431   25.0123 H   0  0  0  0  0  0
  -22.8384  -31.2427   21.2990 H   0  0  0  0  0  0
  -23.3770  -35.9484   23.3270 H   0  0  0  0  0  0
  -24.3559  -36.8881   22.2084 H   0  0  0  0  0  0
  -23.7229  -37.6337   23.6756 H   0  0  0  0  0  0
  -26.2768  -31.2906   20.6222 H   0  0  0  0  0  0
  -26.9462  -30.6391   22.0686 H   0  0  0  0  0  0
  -28.1846  -28.4469   21.2947 H   0  0  0  0  0  0
  -25.8650  -25.6235   19.0233 H   0  0  0  0  0  0
  -24.0456  -27.2203   18.9370 H   0  0  0  0  0  0
  -23.9388  -30.4447   19.3633 H   0  0  0  0  0  0
  -22.8820  -29.1449   19.8226 H   0  0  0  0  0  0
  -25.1335  -36.1713   25.0787 H   0  0  0  0  0  0
  -21.0103  -28.3421   24.1206 H   0  0  0  0  0  0
  -20.5316  -26.2406   23.3591 H   0  0  0  0  0  0
  -21.6710  -26.7273   22.1406 H   0  0  0  0  0  0
  -19.7108  -25.6440   21.1014 H   0  0  0  0  0  0
  -19.7051  -27.3344   20.6568 H   0  0  0  0  0  0
  -17.4428  -26.7263   21.3380 H   0  0  0  0  0  0
  -18.0137  -26.0113   22.8304 H   0  0  0  0  0  0
  -19.7971  -30.7274   24.2347 H   0  0  0  0  0  0
  -17.4998  -31.6156   24.5396 H   0  0  0  0  0  0
  -15.5394  -30.2897   23.7805 H   0  0  0  0  0  0
  -15.8759  -28.1009   22.6702 H   0  0  0  0  0  0
  -24.5859  -30.7154   25.7623 H   0  0  0  0  0  0
  -24.8865  -32.3008   26.4651 H   0  0  0  0  0  0
  -25.7879  -30.9035   27.0193 H   0  0  0  0  0  0
  -26.3188  -29.6504   24.1572 H   0  0  0  0  0  0
  -27.3939  -29.7310   25.5295 H   0  0  0  0  0  0
  -27.9170  -30.4006   24.0060 H   0  0  0  0  0  0
  -27.2547  -33.3718   26.1969 H   0  0  0  0  0  0
  -28.3924  -32.6885   25.0448 H   0  0  0  0  0  0
  -28.0594  -31.8616   26.5589 H   0  0  0  0  0  0
  -28.2534  -38.0077   24.7498 H   0  0  0  0  0  0
  -28.1102  -36.2594   24.6299 H   0  0  0  0  0  0
  -27.2277  -37.1379   25.8868 H   0  0  0  0  0  0
  -20.9776  -29.8701   21.6467 H   0  0  0  0  0  0
  -26.0111  -38.2720   24.1423 H   0  0  0  0  0  0
  -25.4432  -18.6038   20.0607 H   0  0  0  0  0  0
  -26.8703  -17.6129   24.0457 H   0  0  0  0  0  0
  -27.4278  -17.6247   19.1134 H   0  0  0  0  0  0
  -28.9230  -16.6985   23.0778 H   0  0  0  0  0  0
  -23.6926  -21.6301   22.2390 H   0  0  0  0  0  0
  -22.2228  -20.8269   22.7799 H   0  0  0  0  0  0
  -23.2969  -20.0775   24.7962 H   0  0  0  0  0  0
  -24.1528  -21.5998   24.5706 H   0  0  0  0  0  0
  -24.0288  -19.7562   20.9559 H   0  0  0  0  0  0
  -22.9925  -18.7444   21.9529 H   0  0  0  0  0  0
  -25.5867  -19.3355   24.7477 H   0  0  0  0  0  0
  -26.0352  -20.5136   23.5156 H   0  0  0  0  0  0
  -28.3674  -20.2403   21.2384 H   0  0  0  0  0  0
  -28.1317  -20.1546   19.5417 H   0  0  0  0  0  0
  -29.6659  -22.3751   19.2694 H   0  0  0  0  0  0
  -29.8319  -22.4484   20.9668 H   0  0  0  0  0  0
  -30.4131  -18.7158   19.2505 H   0  0  0  0  0  0
  -30.7613  -18.8805   20.9027 H   0  0  0  0  0  0
  -27.3734  -23.7056   19.3708 H   0  0  0  0  0  0
  -27.3862  -23.6885   21.0823 H   0  0  0  0  0  0
  1 25  1  0  0  0
  1 30  2  0  0  0
  1 86  1  0  0  0
  2  3  1  0  0  0
  2 25  1  0  0  0
  2 87  1  0  0  0
  2 88  1  0  0  0
  3  4  1  0  0  0
  3 89  1  0  0  0
  3 90  1  0  0  0
  4  5  1  0  0  0
  4 91  1  0  0  0
  4 92  1  0  0  0
  5  6  1  0  0  0
  5 26  1  0  0  0
  5 93  1  0  0  0
  6 25  1  0  0  0
  6 94  1  0  0  0
  6 95  1  0  0  0
  7  8  2  0  0  0
  7 26  1  0  0  0
  7 29  1  0  0  0
  8  9  1  0  0  0
  8 22  1  0  0  0
  9 10  1  0  0  0
  9 27  2  0  0  0
 10 11  2  0  0  0
 10 15  1  0  0  0
 11 12  1  0  0  0
 11 96  1  0  0  0
 12 13  2  0  0  0
 12 97  1  0  0  0
 13 14  1  0  0  0
 13 31  1  0  0  0
 14 15  2  0  0  0
 14 98  1  0  0  0
 15 99  1  0  0  0
 16 17  2  0  0  0
 16 21  1  0  0  0
 16 31  1  0  0  0
 17 18  1  0  0  0
 17100  1  0  0  0
 18 19  2  0  0  0
 18101  1  0  0  0
 19 20  1  0  0  0
 19 24  1  0  0  0
 20 21  2  0  0  0
 20102  1  0  0  0
 21 23  1  0  0  0
 22 28  1  0  0  0
 22 32  2  0  0  0
 26 27  1  0  0  0
 28103  1  0  0  0
 28104  1  0  0  0
 29105  1  0  0  0
 29106  1  0  0  0
 33 34  1  0  0  0
 33 66  1  0  0  0
 33 70  2  0  0  0
 34 36  1  0  0  0
 34 59  1  0  0  0
 34107  1  0  0  0
 35 44  2  0  0  0
 35 45  1  0  0  0
 35 68  1  0  0  0
 36 56  1  0  0  0
 36108  1  0  0  0
 37 39  1  0  0  0
 37 47  1  0  0  0
 37 66  1  0  0  0
 37109  1  0  0  0
 38 43  2  0  0  0
 38 46  1  0  0  0
 38 47  1  0  0  0
 39 64  1  0  0  0
 39 67  2  0  0  0
 40 52  1  0  0  0
 40 53  2  0  0  0
 40 58  1  0  0  0
 41110  1  0  0  0
 41111  1  0  0  0
 41112  1  0  0  0
 41 48  1  0  0  0
 42 43  1  0  0  0
 42 66  1  0  0  0
 42113  1  0  0  0
 42114  1  0  0  0
 43 44  1  0  0  0
 44115  1  0  0  0
 45 46  2  0  0  0
 45116  1  0  0  0
 46117  1  0  0  0
 47118  1  0  0  0
 47119  1  0  0  0
 48 56  1  0  0  0
 48 65  1  0  0  0
 48120  1  0  0  0
 49 50  1  0  0  0
 49 53  1  0  0  0
 49 64  1  0  0  0
 49121  1  0  0  0
 50 51  1  0  0  0
 50122  1  0  0  0
 50123  1  0  0  0
 51 52  1  0  0  0
 51124  1  0  0  0
 51125  1  0  0  0
 52126  1  0  0  0
 52127  1  0  0  0
 53 54  1  0  0  0
 54 55  2  0  0  0
 54128  1  0  0  0
 55 57  1  0  0  0
 55129  1  0  0  0
 56 69  2  0  0  0
 57 58  2  0  0  0
 57130  1  0  0  0
 58131  1  0  0  0
 59 60  1  0  0  0
 59 61  1  0  0  0
 59 62  1  0  0  0
 60132  1  0  0  0
 60133  1  0  0  0
 60134  1  0  0  0
 61135  1  0  0  0
 61136  1  0  0  0
 61137  1  0  0  0
 62138  1  0  0  0
 62139  1  0  0  0
 62140  1  0  0  0
 63 65  1  0  0  0
 63141  1  0  0  0
 63142  1  0  0  0
 63143  1  0  0  0
 64144  1  0  0  0
 65145  1  0  0  0
 68 84  1  0  0  0
 71 73  2  0  0  0
 71 75  1  0  0  0
 71146  1  0  0  0
 72 74  1  0  0  0
 72 75  2  0  0  0
 72147  1  0  0  0
 73 76  1  0  0  0
 73148  1  0  0  0
 74 76  2  0  0  0
 74149  1  0  0  0
 75 85  1  0  0  0
 76 86  1  0  0  0
 77 78  1  0  0  0
 77 79  1  0  0  0
 77150  1  0  0  0
 77151  1  0  0  0
 78 80  1  0  0  0
 78152  1  0  0  0
 78153  1  0  0  0
 79 85  1  0  0  0
 79154  1  0  0  0
 79155  1  0  0  0
 80 85  1  0  0  0
 80156  1  0  0  0
 80157  1  0  0  0
 81 82  1  0  0  0
 81 83  1  0  0  0
 81158  1  0  0  0
 81159  1  0  0  0
 82 84  1  0  0  0
 82160  1  0  0  0
 82161  1  0  0  0
 83 86  1  0  0  0
 83162  1  0  0  0
 83163  1  0  0  0
 84164  1  0  0  0
 84165  1  0  0  0
M  ISO  4   1 100  68 101  84 101  86 100
M  END
> <chiral flag>
0

> <version>
0

> <s_m_source_file>
/data/baiqing/PycharmProjects/Reinvent-master-3.2/result/LINK_invent/BTK/process_docking_weight1_custom_product_contain_oxygen_bond_distance_aromatic_linkinvent_7_9_3/rearranged_h_0018.sdf

> <i_m_source_file_index>
7

> <r_mmod_Potential_Energy-OPLS-2005>
2547.99072265625

> <r_mmod_Stretch_Energy-OPLS-2005>
1110.36450195312

> <r_mmod_Bend_Energy-OPLS-2005>
653.378540039062

> <r_mmod_Torsional_Energy-OPLS-2005>
347.366363525391

> <r_mmod_Improper_Torsional_Energy-OPLS-2005>
11.6830110549927

> <r_mmod_Van_der_Waal_Energy-OPLS-2005>
122.794456481934

> <r_mmod_Electrostatic_Energy-OPLS-2005>
-304.483673095703

> <r_mmod_Solvation_Energy-OPLS-2005>
-207.110794067383

> <b_mmod_Minimization_Converged-OPLS-2005>
0

> <r_mmod_RMS_Derivative-OPLS-2005>
6.49153566360474

$$$$
7
                    3D
 Structure written by MMmdl.
152160  0  0  1  0            999 V2000
  -30.6277  -14.6294   20.4980 C   0  0  0  0  0  0
  -30.4393  -12.3863   19.4469 C   0  0  0  0  0  0
  -29.5055  -12.5053   18.2216 C   0  0  0  0  0  0
  -28.0285  -12.3459   18.6359 C   0  0  0  0  0  0
  -27.6541  -13.2160   19.8655 C   0  0  2  0  0  0
  -28.7016  -13.0646   20.9922 C   0  0  0  0  0  0
  -25.2555  -13.8160   20.5693 C   0  0  0  0  0  0
  -24.1817  -13.0421   20.9157 C   0  0  0  0  0  0
  -24.6395  -11.6897   20.8725 C   0  0  0  0  0  0
  -23.9064  -10.4284   21.0397 C   0  0  0  0  0  0
  -24.3615   -9.4204   21.9180 C   0  0  0  0  0  0
  -23.6289   -8.2240   22.0753 C   0  0  0  0  0  0
  -22.4272   -8.0276   21.3542 C   0  0  0  0  0  0
  -21.9905   -9.0249   20.4644 C   0  0  0  0  0  0
  -22.7234  -10.2127   20.3051 C   0  0  0  0  0  0
  -21.6852   -6.0733   22.5278 C   0  0  0  0  0  0
  -21.4014   -6.5638   23.8210 C   0  0  0  0  0  0
  -21.3659   -5.6792   24.9172 C   0  0  0  0  0  0
  -21.6044   -4.3054   24.7225 C   0  0  0  0  0  0
  -21.8821   -3.8146   23.4346 C   0  0  0  0  0  0
  -21.9193   -4.6961   22.3401 C   0  0  0  0  0  0
  -22.7841  -13.5216   21.1834 C   0  0  0  0  0  0
  -22.1661   -4.2147   21.0979 F   0  0  0  0  0  0
  -21.5628   -3.4539   25.7739 F   0  0  0  0  0  0
  -30.0177  -13.4048   20.4273 N   0  0  0  0  0  0
  -26.3000  -12.9352   20.3351 N   0  0  0  0  0  0
  -25.9331  -11.6503   20.5768 N   0  0  0  0  0  0
  -22.0496  -12.8212   22.0402 N   0  0  0  0  0  0
  -25.4226  -15.1887   20.4187 N   0  0  0  0  0  0
  -31.7924  -14.7913   20.1228 O   0  0  0  0  0  0
  -21.6635   -6.8875   21.4240 O   0  0  0  0  0  0
  -22.3519  -14.5526   20.6692 O   0  0  0  0  0  0
  -24.6256  -31.8613   23.2042 C   0  0  0  0  0  0
  -25.9109  -32.4785   23.8365 C   0  0  1  0  0  0
  -27.2232  -27.3290   20.1086 C   0  0  0  0  0  0
  -25.5933  -33.8586   24.2291 N   0  0  0  0  0  0
  -23.4180  -30.4863   21.5473 C   0  0  2  0  0  0
  -24.8629  -28.9457   20.1112 C   0  0  0  0  0  0
  -22.7474  -29.4628   22.4946 C   0  0  0  0  0  0
  -18.0285  -28.1374   22.8480 C   0  0  0  0  0  0
  -24.1490  -36.7293   23.2640 C   0  0  0  0  0  0
  -25.9589  -30.7951   21.3736 C   0  0  0  0  0  0
  -26.0329  -29.4238   20.7145 C   0  0  0  0  0  0
  -27.2164  -28.6275   20.7037 C   0  0  0  0  0  0
  -26.0263  -26.9047   19.4828 C   0  0  0  0  0  0
  -24.8609  -27.6905   19.4878 C   0  0  0  0  0  0
  -23.6312  -29.8251   20.1612 C   0  0  0  0  0  0
  -25.4113  -36.3087   24.0330 C   0  0  1  0  0  0
  -20.5885  -28.3682   23.1280 C   0  0  2  0  0  0
  -20.6774  -26.9406   22.5402 C   0  0  0  0  0  0
  -19.5751  -26.6379   21.5201 C   0  0  0  0  0  0
  -18.1932  -26.7917   22.1615 C   0  0  0  0  0  0
  -19.1536  -28.8844   23.2874 C   0  0  0  0  0  0
  -18.9464  -30.1446   23.8892 C   0  0  0  0  0  0
  -17.6467  -30.6582   24.0558 C   0  0  0  0  0  0
  -25.9051  -34.9457   23.5108 C   0  0  0  0  0  0
  -16.5356  -29.9082   23.6326 C   0  0  0  0  0  0
  -16.7273  -28.6496   23.0348 C   0  0  0  0  0  0
  -26.4501  -31.6587   25.0726 C   0  0  0  0  0  0
  -25.3739  -31.3713   26.1458 C   0  0  0  0  0  0
  -27.0345  -30.3016   24.6159 C   0  0  0  0  0  0
  -27.6067  -32.4318   25.7496 C   0  0  0  0  0  0
  -27.5579  -37.1803   24.8467 C   0  0  0  0  0  0
  -21.4188  -29.3043   22.3685 N   0  0  0  0  0  0
  -26.4293  -37.3780   23.9410 N   0  0  0  0  0  0
  -24.6864  -31.0636   22.0986 N   0  0  0  0  0  0
  -23.4203  -28.8165   23.3020 O   0  0  0  0  0  0
  -28.3431  -26.4819   20.1555 O   0  0  0  0  0  0
  -26.5619  -34.8922   22.4674 O   0  0  0  0  0  0
  -23.5423  -32.1409   23.7375 O   0  0  0  0  0  0
  -31.1103  -19.2766   20.4270 C   0  0  0  0  0  0
  -31.1197  -17.8533   20.5200 C   0  0  0  0  0  0
  -28.7132  -19.3054   20.6227 C   0  0  0  0  0  0
  -29.9150  -20.0452   20.4791 C   0  0  0  0  0  0
  -29.9168  -17.1190   20.6787 C   0  0  0  0  0  0
  -28.7196  -17.8819   20.7251 C   0  0  0  0  0  0
  -29.2531  -23.9849   20.3327 C   0  0  0  0  0  0
  -28.8666  -22.4388   20.2474 C   0  0  0  0  0  0
  -28.1050  -25.0290   20.0068 C   0  0  0  0  0  0
  -29.8093  -15.6712   20.8318 N   0  0  0  0  0  0
  -29.9954  -21.4759   20.4049 N   0  0  0  0  0  0
  -27.5437  -17.2241   20.8723 F   0  0  0  0  0  0
  -31.4799  -12.5120   19.1429 H   0  0  0  0  0  0
  -30.3743  -11.3902   19.8869 H   0  0  0  0  0  0
  -29.7662  -11.7539   17.4750 H   0  0  0  0  0  0
  -29.6483  -13.4750   17.7417 H   0  0  0  0  0  0
  -27.8644  -11.2928   18.8671 H   0  0  0  0  0  0
  -27.3725  -12.5775   17.7959 H   0  0  0  0  0  0
  -27.6710  -14.2517   19.5258 H   0  0  0  0  0  0
  -28.7123  -12.0412   21.3706 H   0  0  0  0  0  0
  -28.4518  -13.6935   21.8479 H   0  0  0  0  0  0
  -25.2763   -9.5681   22.4751 H   0  0  0  0  0  0
  -23.9996   -7.4636   22.7478 H   0  0  0  0  0  0
  -21.0833   -8.8769   19.8954 H   0  0  0  0  0  0
  -22.3693  -10.9665   19.6158 H   0  0  0  0  0  0
  -21.2008   -7.6149   23.9713 H   0  0  0  0  0  0
  -21.1478   -6.0523   25.9076 H   0  0  0  0  0  0
  -22.0601   -2.7609   23.2847 H   0  0  0  0  0  0
  -22.4116  -11.9870   22.4781 H   0  0  0  0  0  0
  -21.1120  -13.1242   22.2625 H   0  0  0  0  0  0
  -24.6604  -15.8384   20.5728 H   0  0  0  0  0  0
  -26.2973  -15.6603   20.2196 H   0  0  0  0  0  0
  -26.7179  -32.5458   23.1117 H   0  0  0  0  0  0
  -25.0095  -33.9729   25.0447 H   0  0  0  0  0  0
  -22.7109  -31.3064   21.4068 H   0  0  0  0  0  0
  -23.3753  -35.9627   23.3306 H   0  0  0  0  0  0
  -24.3582  -36.8908   22.2055 H   0  0  0  0  0  0
  -23.7242  -37.6495   23.6658 H   0  0  0  0  0  0
  -26.0889  -31.5599   20.6067 H   0  0  0  0  0  0
  -26.8400  -30.8430   22.0016 H   0  0  0  0  0  0
  -28.1140  -28.9900   21.1854 H   0  0  0  0  0  0
  -25.9544  -25.9489   18.9873 H   0  0  0  0  0  0
  -23.9646  -27.3180   19.0110 H   0  0  0  0  0  0
  -23.7505  -30.6036   19.4066 H   0  0  0  0  0  0
  -22.7508  -29.2556   19.8578 H   0  0  0  0  0  0
  -25.1291  -36.1944   25.0822 H   0  0  0  0  0  0
  -20.9971  -28.3255   24.1404 H   0  0  0  0  0  0
  -20.5668  -26.2296   23.3603 H   0  0  0  0  0  0
  -21.6645  -26.7435   22.1199 H   0  0  0  0  0  0
  -19.6917  -25.6290   21.1229 H   0  0  0  0  0  0
  -19.6684  -27.3194   20.6733 H   0  0  0  0  0  0
  -17.4198  -26.6658   21.4021 H   0  0  0  0  0  0
  -18.0337  -26.0057   22.9010 H   0  0  0  0  0  0
  -19.7946  -30.7253   24.2264 H   0  0  0  0  0  0
  -17.5028  -31.6262   24.5162 H   0  0  0  0  0  0
  -15.5356  -30.2986   23.7653 H   0  0  0  0  0  0
  -15.8670  -28.0816   22.7070 H   0  0  0  0  0  0
  -24.5922  -30.7050   25.7791 H   0  0  0  0  0  0
  -24.8919  -32.2874   26.4884 H   0  0  0  0  0  0
  -25.8072  -30.8897   27.0232 H   0  0  0  0  0  0
  -26.2909  -29.6764   24.1201 H   0  0  0  0  0  0
  -27.4083  -29.7271   25.4645 H   0  0  0  0  0  0
  -27.8763  -30.4318   23.9352 H   0  0  0  0  0  0
  -27.2684  -33.3624   26.2068 H   0  0  0  0  0  0
  -28.3882  -32.6867   25.0323 H   0  0  0  0  0  0
  -28.0732  -31.8443   26.5415 H   0  0  0  0  0  0
  -28.2600  -38.0099   24.7512 H   0  0  0  0  0  0
  -28.1070  -36.2628   24.6294 H   0  0  0  0  0  0
  -27.2294  -37.1454   25.8870 H   0  0  0  0  0  0
  -20.9367  -29.8783   21.6908 H   0  0  0  0  0  0
  -26.0173  -38.2855   24.1415 H   0  0  0  0  0  0
  -32.0603  -19.7811   20.3182 H   0  0  0  0  0  0
  -32.0688  -17.3390   20.4825 H   0  0  0  0  0  0
  -27.7649  -19.8187   20.6717 H   0  0  0  0  0  0
  -30.0827  -24.1818   19.6530 H   0  0  0  0  0  0
  -29.6322  -24.1934   21.3336 H   0  0  0  0  0  0
  -28.3951  -22.2470   19.2820 H   0  0  0  0  0  0
  -28.1087  -22.2219   21.0019 H   0  0  0  0  0  0
  -27.8088  -24.8426   18.9741 H   0  0  0  0  0  0
  -27.2483  -24.7622   20.6286 H   0  0  0  0  0  0
  -28.8812  -15.3714   21.0895 H   0  0  0  0  0  0
  -30.9277  -21.8702   20.2977 H   0  0  0  0  0  0
  1 25  1  0  0  0
  1 30  2  0  0  0
  1 80  1  0  0  0
  2  3  1  0  0  0
  2 25  1  0  0  0
  2 83  1  0  0  0
  2 84  1  0  0  0
  3  4  1  0  0  0
  3 85  1  0  0  0
  3 86  1  0  0  0
  4  5  1  0  0  0
  4 87  1  0  0  0
  4 88  1  0  0  0
  5  6  1  0  0  0
  5 26  1  0  0  0
  5 89  1  0  0  0
  6 25  1  0  0  0
  6 90  1  0  0  0
  6 91  1  0  0  0
  7  8  2  0  0  0
  7 26  1  0  0  0
  7 29  1  0  0  0
  8  9  1  0  0  0
  8 22  1  0  0  0
  9 10  1  0  0  0
  9 27  2  0  0  0
 10 11  2  0  0  0
 10 15  1  0  0  0
 11 12  1  0  0  0
 11 92  1  0  0  0
 12 13  2  0  0  0
 12 93  1  0  0  0
 13 14  1  0  0  0
 13 31  1  0  0  0
 14 15  2  0  0  0
 14 94  1  0  0  0
 15 95  1  0  0  0
 16 17  2  0  0  0
 16 21  1  0  0  0
 16 31  1  0  0  0
 17 18  1  0  0  0
 17 96  1  0  0  0
 18 19  2  0  0  0
 18 97  1  0  0  0
 19 20  1  0  0  0
 19 24  1  0  0  0
 20 21  2  0  0  0
 20 98  1  0  0  0
 21 23  1  0  0  0
 22 28  1  0  0  0
 22 32  2  0  0  0
 26 27  1  0  0  0
 28 99  1  0  0  0
 28100  1  0  0  0
 29101  1  0  0  0
 29102  1  0  0  0
 33 34  1  0  0  0
 33 66  1  0  0  0
 33 70  2  0  0  0
 34 36  1  0  0  0
 34 59  1  0  0  0
 34103  1  0  0  0
 35 44  2  0  0  0
 35 45  1  0  0  0
 35 68  1  0  0  0
 36 56  1  0  0  0
 36104  1  0  0  0
 37 39  1  0  0  0
 37 47  1  0  0  0
 37 66  1  0  0  0
 37105  1  0  0  0
 38 43  2  0  0  0
 38 46  1  0  0  0
 38 47  1  0  0  0
 39 64  1  0  0  0
 39 67  2  0  0  0
 40 52  1  0  0  0
 40 53  2  0  0  0
 40 58  1  0  0  0
 41106  1  0  0  0
 41107  1  0  0  0
 41108  1  0  0  0
 41 48  1  0  0  0
 42 43  1  0  0  0
 42 66  1  0  0  0
 42109  1  0  0  0
 42110  1  0  0  0
 43 44  1  0  0  0
 44111  1  0  0  0
 45 46  2  0  0  0
 45112  1  0  0  0
 46113  1  0  0  0
 47114  1  0  0  0
 47115  1  0  0  0
 48 56  1  0  0  0
 48 65  1  0  0  0
 48116  1  0  0  0
 49 50  1  0  0  0
 49 53  1  0  0  0
 49 64  1  0  0  0
 49117  1  0  0  0
 50 51  1  0  0  0
 50118  1  0  0  0
 50119  1  0  0  0
 51 52  1  0  0  0
 51120  1  0  0  0
 51121  1  0  0  0
 52122  1  0  0  0
 52123  1  0  0  0
 53 54  1  0  0  0
 54 55  2  0  0  0
 54124  1  0  0  0
 55 57  1  0  0  0
 55125  1  0  0  0
 56 69  2  0  0  0
 57 58  2  0  0  0
 57126  1  0  0  0
 58127  1  0  0  0
 59 60  1  0  0  0
 59 61  1  0  0  0
 59 62  1  0  0  0
 60128  1  0  0  0
 60129  1  0  0  0
 60130  1  0  0  0
 61131  1  0  0  0
 61132  1  0  0  0
 61133  1  0  0  0
 62134  1  0  0  0
 62135  1  0  0  0
 62136  1  0  0  0
 63 65  1  0  0  0
 63137  1  0  0  0
 63138  1  0  0  0
 63139  1  0  0  0
 64140  1  0  0  0
 65141  1  0  0  0
 68 79  1  0  0  0
 71 72  2  0  0  0
 71 74  1  0  0  0
 71142  1  0  0  0
 72 75  1  0  0  0
 72143  1  0  0  0
 73 74  2  0  0  0
 73 76  1  0  0  0
 73144  1  0  0  0
 74 81  1  0  0  0
 75 76  2  0  0  0
 75 80  1  0  0  0
 76 82  1  0  0  0
 77 78  1  0  0  0
 77 79  1  0  0  0
 77145  1  0  0  0
 77146  1  0  0  0
 78 81  1  0  0  0
 78147  1  0  0  0
 78148  1  0  0  0
 79149  1  0  0  0
 79150  1  0  0  0
 80151  1  0  0  0
 81152  1  0  0  0
M  ISO  4   1 100  68 101  79 101  80 100
M  END
> <chiral flag>
0

> <version>
0

> <s_m_source_file>
/data/baiqing/PycharmProjects/Reinvent-master-3.2/result/LINK_invent/BTK/process_docking_weight1_custom_product_contain_oxygen_bond_distance_aromatic_linkinvent_7_9_3/rearranged_h_0018.sdf

> <i_m_source_file_index>
8

> <r_mmod_Potential_Energy-OPLS-2005>
-1.59744024276733

> <r_mmod_Stretch_Energy-OPLS-2005>
71.6558456420898

> <r_mmod_Bend_Energy-OPLS-2005>
143.812271118164

> <r_mmod_Torsional_Energy-OPLS-2005>
200.10888671875

> <r_mmod_Improper_Torsional_Energy-OPLS-2005>
4.6348934173584

> <r_mmod_Van_der_Waal_Energy-OPLS-2005>
145.609085083008

> <r_mmod_Electrostatic_Energy-OPLS-2005>
-403.753173828125

> <r_mmod_Solvation_Energy-OPLS-2005>
-208.76188659668

> <b_mmod_Minimization_Converged-OPLS-2005>
0

> <r_mmod_RMS_Derivative-OPLS-2005>
0.584842085838318

$$$$
8
                    3D
 Structure written by MMmdl.
156164  0  0  1  0            999 V2000
  -30.6714  -14.5216   20.5691 C   0  0  0  0  0  0
  -30.4312  -12.3370   19.4277 C   0  0  0  0  0  0
  -29.4989  -12.5127   18.2097 C   0  0  0  0  0  0
  -28.0209  -12.3637   18.6219 C   0  0  0  0  0  0
  -27.6617  -13.2081   19.8736 C   0  0  2  0  0  0
  -28.7028  -12.9989   20.9959 C   0  0  0  0  0  0
  -25.2596  -13.8159   20.5682 C   0  0  0  0  0  0
  -24.1842  -13.0440   20.9172 C   0  0  0  0  0  0
  -24.6396  -11.6903   20.8730 C   0  0  0  0  0  0
  -23.9058  -10.4291   21.0405 C   0  0  0  0  0  0
  -24.3613   -9.4211   21.9180 C   0  0  0  0  0  0
  -23.6290   -8.2245   22.0750 C   0  0  0  0  0  0
  -22.4272   -8.0282   21.3545 C   0  0  0  0  0  0
  -21.9907   -9.0255   20.4647 C   0  0  0  0  0  0
  -22.7233  -10.2133   20.3057 C   0  0  0  0  0  0
  -21.6855   -6.0738   22.5276 C   0  0  0  0  0  0
  -21.4011   -6.5640   23.8210 C   0  0  0  0  0  0
  -21.3655   -5.6793   24.9169 C   0  0  0  0  0  0
  -21.6050   -4.3058   24.7223 C   0  0  0  0  0  0
  -21.8820   -3.8146   23.4346 C   0  0  0  0  0  0
  -21.9188   -4.6960   22.3400 C   0  0  0  0  0  0
  -22.7867  -13.5242   21.1843 C   0  0  0  0  0  0
  -22.1665   -4.2151   21.0979 F   0  0  0  0  0  0
  -21.5624   -3.4538   25.7735 F   0  0  0  0  0  0
  -30.0314  -13.3222   20.4474 N   0  0  0  0  0  0
  -26.3028  -12.9328   20.3359 N   0  0  0  0  0  0
  -25.9320  -11.6487   20.5754 N   0  0  0  0  0  0
  -22.0506  -12.8238   22.0394 N   0  0  0  0  0  0
  -25.4344  -15.1878   20.4099 N   0  0  0  0  0  0
  -31.7902  -14.7273   20.0868 O   0  0  0  0  0  0
  -21.6642   -6.8883   21.4242 O   0  0  0  0  0  0
  -22.3553  -14.5552   20.6690 O   0  0  0  0  0  0
  -24.6181  -31.8654   23.2083 C   0  0  0  0  0  0
  -25.9059  -32.4815   23.8382 C   0  0  1  0  0  0
  -27.2288  -27.3900   20.1040 C   0  0  0  0  0  0
  -25.5903  -33.8613   24.2314 N   0  0  0  0  0  0
  -23.4081  -30.4889   21.5496 C   0  0  2  0  0  0
  -24.8537  -28.9520   20.1147 C   0  0  0  0  0  0
  -22.7422  -29.4647   22.4973 C   0  0  0  0  0  0
  -18.0274  -28.1408   22.8502 C   0  0  0  0  0  0
  -24.1474  -36.7284   23.2638 C   0  0  0  0  0  0
  -25.9413  -30.8180   21.3677 C   0  0  0  0  0  0
  -26.0173  -29.4500   20.7127 C   0  0  0  0  0  0
  -27.2075  -28.6784   20.7006 C   0  0  0  0  0  0
  -26.0424  -26.9221   19.4918 C   0  0  0  0  0  0
  -24.8635  -27.6905   19.4989 C   0  0  0  0  0  0
  -23.6182  -29.8239   20.1638 C   0  0  0  0  0  0
  -25.4102  -36.3099   24.0339 C   0  0  1  0  0  0
  -20.5866  -28.3687   23.1322 C   0  0  2  0  0  0
  -20.6762  -26.9423   22.5422 C   0  0  0  0  0  0
  -19.5737  -26.6407   21.5222 C   0  0  0  0  0  0
  -18.1917  -26.7953   22.1637 C   0  0  0  0  0  0
  -19.1526  -28.8863   23.2909 C   0  0  0  0  0  0
  -18.9457  -30.1468   23.8921 C   0  0  0  0  0  0
  -17.6462  -30.6612   24.0573 C   0  0  0  0  0  0
  -25.9032  -34.9472   23.5117 C   0  0  0  0  0  0
  -16.5347  -29.9118   23.6344 C   0  0  0  0  0  0
  -16.7262  -28.6535   23.0362 C   0  0  0  0  0  0
  -26.4482  -31.6611   25.0723 C   0  0  0  0  0  0
  -25.3737  -31.3730   26.1463 C   0  0  0  0  0  0
  -27.0314  -30.3049   24.6124 C   0  0  0  0  0  0
  -27.6056  -32.4335   25.7488 C   0  0  0  0  0  0
  -27.5572  -37.1799   24.8478 C   0  0  0  0  0  0
  -21.4145  -29.3041   22.3710 N   0  0  0  0  0  0
  -26.4287  -37.3790   23.9413 N   0  0  0  0  0  0
  -24.6742  -31.0722   22.0998 N   0  0  0  0  0  0
  -23.4180  -28.8191   23.3027 O   0  0  0  0  0  0
  -28.3822  -26.6149   20.1402 O   0  0  0  0  0  0
  -26.5603  -34.8931   22.4684 O   0  0  0  0  0  0
  -23.5362  -32.1422   23.7456 O   0  0  0  0  0  0
  -30.8236  -18.9235   22.4643 C   0  0  0  0  0  0
  -30.3091  -19.1389   20.1032 C   0  0  0  0  0  0
  -30.5631  -17.5345   22.4072 C   0  0  0  0  0  0
  -30.0663  -17.7367   20.0418 C   0  0  0  0  0  0
  -30.7292  -19.7438   21.3118 C   0  0  0  0  0  0
  -30.2241  -16.9115   21.1867 C   0  0  0  0  0  0
  -31.2974  -21.1162   21.3769 C   0  0  0  0  0  0
  -29.4926  -24.4006   20.5448 C   0  0  0  0  0  0
  -29.4585  -22.8283   20.5521 C   0  0  0  0  0  0
  -28.2381  -25.1707   20.0383 C   0  0  0  0  0  0
  -32.5345  -21.1916   21.8619 N   0  0  0  0  0  0
  -29.9562  -15.5033   21.1644 N   0  0  0  0  0  0
  -30.7718  -22.3144   21.0208 N   0  3  0  0  0  0
  -31.4732  -12.4522   19.1235 H   0  0  0  0  0  0
  -30.3479  -11.3263   19.8310 H   0  0  0  0  0  0
  -29.7474  -11.7836   17.4376 H   0  0  0  0  0  0
  -29.6574  -13.4955   17.7621 H   0  0  0  0  0  0
  -27.8404  -11.3072   18.8242 H   0  0  0  0  0  0
  -27.3687  -12.6278   17.7890 H   0  0  0  0  0  0
  -27.7033  -14.2550   19.5704 H   0  0  0  0  0  0
  -28.6884  -11.9632   21.3375 H   0  0  0  0  0  0
  -28.4518  -13.5950   21.8739 H   0  0  0  0  0  0
  -25.2760   -9.5682   22.4752 H   0  0  0  0  0  0
  -23.9999   -7.4637   22.7465 H   0  0  0  0  0  0
  -21.0842   -8.8771   19.8958 H   0  0  0  0  0  0
  -22.3691  -10.9670   19.6163 H   0  0  0  0  0  0
  -21.2011   -7.6147   23.9711 H   0  0  0  0  0  0
  -21.1478   -6.0526   25.9076 H   0  0  0  0  0  0
  -22.0604   -2.7608   23.2843 H   0  0  0  0  0  0
  -22.4111  -11.9896   22.4792 H   0  0  0  0  0  0
  -21.1117  -13.1261   22.2600 H   0  0  0  0  0  0
  -24.6732  -15.8486   20.5231 H   0  0  0  0  0  0
  -26.2924  -15.6225   20.0924 H   0  0  0  0  0  0
  -26.7122  -32.5515   23.1135 H   0  0  0  0  0  0
  -25.0051  -33.9780   25.0459 H   0  0  0  0  0  0
  -22.6994  -31.3074   21.4106 H   0  0  0  0  0  0
  -23.3748  -35.9603   23.3322 H   0  0  0  0  0  0
  -24.3546  -36.8872   22.2043 H   0  0  0  0  0  0
  -23.7220  -37.6491   23.6639 H   0  0  0  0  0  0
  -26.0603  -31.5837   20.5995 H   0  0  0  0  0  0
  -26.8265  -30.8698   21.9899 H   0  0  0  0  0  0
  -28.1037  -29.0548   21.1749 H   0  0  0  0  0  0
  -26.0039  -25.9586   19.0056 H   0  0  0  0  0  0
  -23.9695  -27.3046   19.0290 H   0  0  0  0  0  0
  -23.7316  -30.6004   19.4060 H   0  0  0  0  0  0
  -22.7407  -29.2476   19.8648 H   0  0  0  0  0  0
  -25.1282  -36.1949   25.0835 H   0  0  0  0  0  0
  -20.9967  -28.3254   24.1437 H   0  0  0  0  0  0
  -20.5675  -26.2288   23.3605 H   0  0  0  0  0  0
  -21.6632  -26.7468   22.1204 H   0  0  0  0  0  0
  -19.6890  -25.6321   21.1247 H   0  0  0  0  0  0
  -19.6685  -27.3222   20.6757 H   0  0  0  0  0  0
  -17.4181  -26.6704   21.4043 H   0  0  0  0  0  0
  -18.0320  -26.0105   22.9044 H   0  0  0  0  0  0
  -19.7927  -30.7282   24.2301 H   0  0  0  0  0  0
  -17.5018  -31.6300   24.5165 H   0  0  0  0  0  0
  -15.5352  -30.3032   23.7669 H   0  0  0  0  0  0
  -15.8654  -28.0864   22.7083 H   0  0  0  0  0  0
  -24.5911  -30.7080   25.7794 H   0  0  0  0  0  0
  -24.8930  -32.2893   26.4900 H   0  0  0  0  0  0
  -25.8077  -30.8905   27.0227 H   0  0  0  0  0  0
  -26.2866  -29.6819   24.1156 H   0  0  0  0  0  0
  -27.4046  -29.7285   25.4598 H   0  0  0  0  0  0
  -27.8723  -30.4357   23.9306 H   0  0  0  0  0  0
  -27.2675  -33.3627   26.2088 H   0  0  0  0  0  0
  -28.3861  -32.6909   25.0315 H   0  0  0  0  0  0
  -28.0733  -31.8447   26.5388 H   0  0  0  0  0  0
  -28.2619  -38.0070   24.7510 H   0  0  0  0  0  0
  -28.1041  -36.2605   24.6328 H   0  0  0  0  0  0
  -27.2287  -37.1483   25.8883 H   0  0  0  0  0  0
  -20.9307  -29.8730   21.6903 H   0  0  0  0  0  0
  -26.0169  -38.2860   24.1438 H   0  0  0  0  0  0
  -31.1495  -19.3531   23.4022 H   0  0  0  0  0  0
  -30.2450  -19.7318   19.2020 H   0  0  0  0  0  0
  -30.6629  -16.9447   23.3079 H   0  0  0  0  0  0
  -29.7741  -17.2940   19.1001 H   0  0  0  0  0  0
  -30.3430  -24.7306   19.9484 H   0  0  0  0  0  0
  -29.6918  -24.7395   21.5620 H   0  0  0  0  0  0
  -29.2456  -22.4439   19.5538 H   0  0  0  0  0  0
  -28.6668  -22.4698   21.2121 H   0  0  0  0  0  0
  -27.3760  -24.8404   20.6202 H   0  0  0  0  0  0
  -28.0504  -24.9000   18.9986 H   0  0  0  0  0  0
  -33.0016  -20.3266   22.0921 H   0  0  0  0  0  0
  -33.0416  -22.0496   22.0075 H   0  0  0  0  0  0
  -29.1065  -15.2054   21.6174 H   0  0  0  0  0  0
  -31.4387  -23.0692   21.0618 H   0  0  0  0  0  0
  1 25  1  0  0  0
  1 30  2  0  0  0
  1 82  1  0  0  0
  2  3  1  0  0  0
  2 25  1  0  0  0
  2 84  1  0  0  0
  2 85  1  0  0  0
  3  4  1  0  0  0
  3 86  1  0  0  0
  3 87  1  0  0  0
  4  5  1  0  0  0
  4 88  1  0  0  0
  4 89  1  0  0  0
  5  6  1  0  0  0
  5 26  1  0  0  0
  5 90  1  0  0  0
  6 25  1  0  0  0
  6 91  1  0  0  0
  6 92  1  0  0  0
  7  8  2  0  0  0
  7 26  1  0  0  0
  7 29  1  0  0  0
  8  9  1  0  0  0
  8 22  1  0  0  0
  9 10  1  0  0  0
  9 27  2  0  0  0
 10 11  2  0  0  0
 10 15  1  0  0  0
 11 12  1  0  0  0
 11 93  1  0  0  0
 12 13  2  0  0  0
 12 94  1  0  0  0
 13 14  1  0  0  0
 13 31  1  0  0  0
 14 15  2  0  0  0
 14 95  1  0  0  0
 15 96  1  0  0  0
 16 17  2  0  0  0
 16 21  1  0  0  0
 16 31  1  0  0  0
 17 18  1  0  0  0
 17 97  1  0  0  0
 18 19  2  0  0  0
 18 98  1  0  0  0
 19 20  1  0  0  0
 19 24  1  0  0  0
 20 21  2  0  0  0
 20 99  1  0  0  0
 21 23  1  0  0  0
 22 28  1  0  0  0
 22 32  2  0  0  0
 26 27  1  0  0  0
 28100  1  0  0  0
 28101  1  0  0  0
 29102  1  0  0  0
 29103  1  0  0  0
 33 34  1  0  0  0
 33 66  1  0  0  0
 33 70  2  0  0  0
 34 36  1  0  0  0
 34 59  1  0  0  0
 34104  1  0  0  0
 35 44  2  0  0  0
 35 45  1  0  0  0
 35 68  1  0  0  0
 36 56  1  0  0  0
 36105  1  0  0  0
 37 39  1  0  0  0
 37 47  1  0  0  0
 37 66  1  0  0  0
 37106  1  0  0  0
 38 43  2  0  0  0
 38 46  1  0  0  0
 38 47  1  0  0  0
 39 64  1  0  0  0
 39 67  2  0  0  0
 40 52  1  0  0  0
 40 53  2  0  0  0
 40 58  1  0  0  0
 41107  1  0  0  0
 41108  1  0  0  0
 41109  1  0  0  0
 41 48  1  0  0  0
 42 43  1  0  0  0
 42 66  1  0  0  0
 42110  1  0  0  0
 42111  1  0  0  0
 43 44  1  0  0  0
 44112  1  0  0  0
 45 46  2  0  0  0
 45113  1  0  0  0
 46114  1  0  0  0
 47115  1  0  0  0
 47116  1  0  0  0
 48 56  1  0  0  0
 48 65  1  0  0  0
 48117  1  0  0  0
 49 50  1  0  0  0
 49 53  1  0  0  0
 49 64  1  0  0  0
 49118  1  0  0  0
 50 51  1  0  0  0
 50119  1  0  0  0
 50120  1  0  0  0
 51 52  1  0  0  0
 51121  1  0  0  0
 51122  1  0  0  0
 52123  1  0  0  0
 52124  1  0  0  0
 53 54  1  0  0  0
 54 55  2  0  0  0
 54125  1  0  0  0
 55 57  1  0  0  0
 55126  1  0  0  0
 56 69  2  0  0  0
 57 58  2  0  0  0
 57127  1  0  0  0
 58128  1  0  0  0
 59 60  1  0  0  0
 59 61  1  0  0  0
 59 62  1  0  0  0
 60129  1  0  0  0
 60130  1  0  0  0
 60131  1  0  0  0
 61132  1  0  0  0
 61133  1  0  0  0
 61134  1  0  0  0
 62135  1  0  0  0
 62136  1  0  0  0
 62137  1  0  0  0
 63 65  1  0  0  0
 63138  1  0  0  0
 63139  1  0  0  0
 63140  1  0  0  0
 64141  1  0  0  0
 65142  1  0  0  0
 68 80  1  0  0  0
 71 73  2  0  0  0
 71 75  1  0  0  0
 71143  1  0  0  0
 72 74  1  0  0  0
 72 75  2  0  0  0
 72144  1  0  0  0
 73 76  1  0  0  0
 73145  1  0  0  0
 74 76  2  0  0  0
 74146  1  0  0  0
 75 77  1  0  0  0
 76 82  1  0  0  0
 77 81  1  0  0  0
 77 83  2  0  0  0
 78 79  1  0  0  0
 78 80  1  0  0  0
 78147  1  0  0  0
 78148  1  0  0  0
 79 83  1  0  0  0
 79149  1  0  0  0
 79150  1  0  0  0
 80151  1  0  0  0
 80152  1  0  0  0
 81153  1  0  0  0
 81154  1  0  0  0
 82155  1  0  0  0
 83156  1  0  0  0
M  CHG  1  83   1
M  ISO  4   1 100  68 101  80 101  82 100
M  END
> <chiral flag>
0

> <version>
0

> <s_m_source_file>
/data/baiqing/PycharmProjects/Reinvent-master-3.2/result/LINK_invent/BTK/process_docking_weight1_custom_product_contain_oxygen_bond_distance_aromatic_linkinvent_7_9_3/rearranged_h_0018.sdf

> <i_m_source_file_index>
9

> <r_mmod_Potential_Energy-OPLS-2005>
-193.813293457031

> <r_mmod_Stretch_Energy-OPLS-2005>
46.7777099609375

> <r_mmod_Bend_Energy-OPLS-2005>
128.99494934082

> <r_mmod_Torsional_Energy-OPLS-2005>
242.09700012207

> <r_mmod_Improper_Torsional_Energy-OPLS-2005>
4.18126678466797

> <r_mmod_Van_der_Waal_Energy-OPLS-2005>
146.856536865234

> <r_mmod_Electrostatic_Energy-OPLS-2005>
-362.208129882812

> <r_mmod_Solvation_Energy-OPLS-2005>
-420.542572021484

> <b_mmod_Minimization_Converged-OPLS-2005>
0

> <r_mmod_RMS_Derivative-OPLS-2005>
1.3218582868576

$$$$
9
                    3D
 Structure written by MMmdl.
164172  0  0  1  0            999 V2000
  -30.6896  -14.5087   20.4553 C   0  0  0  0  0  0
  -30.4105  -12.3045   19.4176 C   0  0  0  0  0  0
  -29.4809  -12.4729   18.1991 C   0  0  0  0  0  0
  -28.0053  -12.3411   18.6234 C   0  0  0  0  0  0
  -27.6493  -13.1998   19.8695 C   0  0  2  0  0  0
  -28.7027  -13.0434   20.9862 C   0  0  0  0  0  0
  -25.2548  -13.8148   20.5716 C   0  0  0  0  0  0
  -24.1795  -13.0448   20.9206 C   0  0  0  0  0  0
  -24.6347  -11.6906   20.8759 C   0  0  0  0  0  0
  -23.9028  -10.4288   21.0413 C   0  0  0  0  0  0
  -24.3600   -9.4202   21.9183 C   0  0  0  0  0  0
  -23.6286   -8.2232   22.0759 C   0  0  0  0  0  0
  -22.4266   -8.0268   21.3548 C   0  0  0  0  0  0
  -21.9894   -9.0234   20.4643 C   0  0  0  0  0  0
  -22.7212  -10.2117   20.3050 C   0  0  0  0  0  0
  -21.6851   -6.0729   22.5267 C   0  0  0  0  0  0
  -21.4008   -6.5637   23.8200 C   0  0  0  0  0  0
  -21.3651   -5.6789   24.9163 C   0  0  0  0  0  0
  -21.6057   -4.3055   24.7216 C   0  0  0  0  0  0
  -21.8816   -3.8144   23.4333 C   0  0  0  0  0  0
  -21.9191   -4.6958   22.3388 C   0  0  0  0  0  0
  -22.7816  -13.5244   21.1856 C   0  0  0  0  0  0
  -22.1657   -4.2144   21.0967 F   0  0  0  0  0  0
  -21.5637   -3.4544   25.7729 F   0  0  0  0  0  0
  -30.0165  -13.3279   20.3949 N   0  0  0  0  0  0
  -26.2959  -12.9290   20.3414 N   0  0  0  0  0  0
  -25.9271  -11.6466   20.5817 N   0  0  0  0  0  0
  -22.0458  -12.8227   22.0406 N   0  0  0  0  0  0
  -25.4323  -15.1862   20.4108 N   0  0  0  0  0  0
  -31.8954  -14.5913   20.2018 O   0  0  0  0  0  0
  -21.6643   -6.8864   21.4229 O   0  0  0  0  0  0
  -22.3496  -14.5546   20.6693 O   0  0  0  0  0  0
  -24.6150  -31.8691   23.2073 C   0  0  0  0  0  0
  -25.9046  -32.4822   23.8383 C   0  0  1  0  0  0
  -27.2324  -27.4262   20.0874 C   0  0  0  0  0  0
  -25.5902  -33.8619   24.2322 N   0  0  0  0  0  0
  -23.4032  -30.4924   21.5472 C   0  0  2  0  0  0
  -24.8466  -28.9539   20.1156 C   0  0  0  0  0  0
  -22.7403  -29.4667   22.4955 C   0  0  0  0  0  0
  -18.0267  -28.1375   22.8447 C   0  0  0  0  0  0
  -24.1488  -36.7314   23.2630 C   0  0  0  0  0  0
  -25.9327  -30.8307   21.3599 C   0  0  0  0  0  0
  -26.0066  -29.4631   20.7105 C   0  0  0  0  0  0
  -27.1992  -28.7056   20.6922 C   0  0  0  0  0  0
  -26.0452  -26.9294   19.4978 C   0  0  0  0  0  0
  -24.8597  -27.6869   19.5110 C   0  0  0  0  0  0
  -23.6128  -29.8254   20.1616 C   0  0  0  0  0  0
  -25.4110  -36.3106   24.0325 C   0  0  1  0  0  0
  -20.5855  -28.3667   23.1304 C   0  0  2  0  0  0
  -20.6749  -26.9398   22.5418 C   0  0  0  0  0  0
  -19.5770  -26.6412   21.5162 C   0  0  0  0  0  0
  -18.1930  -26.7943   22.1536 C   0  0  0  0  0  0
  -19.1508  -28.8826   23.2900 C   0  0  0  0  0  0
  -18.9429  -30.1407   23.8949 C   0  0  0  0  0  0
  -17.6428  -30.6543   24.0610 C   0  0  0  0  0  0
  -25.9036  -34.9476   23.5120 C   0  0  0  0  0  0
  -16.5321  -29.9077   23.6303 C   0  0  0  0  0  0
  -16.7252  -28.6501   23.0282 C   0  0  0  0  0  0
  -26.4485  -31.6598   25.0715 C   0  0  0  0  0  0
  -25.3757  -31.3685   26.1463 C   0  0  0  0  0  0
  -27.0300  -30.3039   24.6078 C   0  0  0  0  0  0
  -27.6068  -32.4310   25.7482 C   0  0  0  0  0  0
  -27.5577  -37.1821   24.8461 C   0  0  0  0  0  0
  -21.4130  -29.3041   22.3714 N   0  0  0  0  0  0
  -26.4293  -37.3791   23.9397 N   0  0  0  0  0  0
  -24.6689  -31.0787   22.0973 N   0  0  0  0  0  0
  -23.4190  -28.8224   23.3004 O   0  0  0  0  0  0
  -28.4265  -26.7281   20.0975 O   0  0  0  0  0  0
  -26.5604  -34.8928   22.4687 O   0  0  0  0  0  0
  -23.5346  -32.1442   23.7474 O   0  0  0  0  0  0
  -30.1121  -19.0527   21.1288 C   0  0  0  0  0  0
  -27.9255  -18.1350   21.6135 C   0  0  0  0  0  0
  -29.5613  -20.3534   21.0877 C   0  0  0  0  0  0
  -27.3764  -19.4351   21.5695 C   0  0  0  0  0  0
  -29.3024  -17.9276   21.4017 C   0  0  0  0  0  0
  -28.1817  -20.5801   21.3148 C   0  0  0  0  0  0
  -28.6396  -16.6482   18.4066 C   0  0  0  0  0  0
  -26.2902  -22.0421   21.8697 C   0  0  0  0  0  0
  -29.9166  -16.5221   21.5364 C   0  0  0  0  0  0
  -27.9804  -24.3543   20.7291 C   0  0  0  0  0  0
  -30.0043  -16.3361   19.0472 C   0  0  0  0  0  0
  -28.0729  -22.8632   20.2934 C   0  0  0  0  0  0
  -28.4849  -25.3584   19.6621 C   0  0  0  0  0  0
  -27.6442  -21.8995   21.3261 N   0  0  0  0  0  0
  -29.9209  -15.6296   20.3506 N   0  0  0  0  0  0
  -31.4540  -12.3942   19.1103 H   0  0  0  0  0  0
  -30.3080  -11.3073   19.8471 H   0  0  0  0  0  0
  -29.7187  -11.7268   17.4396 H   0  0  0  0  0  0
  -29.6461  -13.4460   17.7339 H   0  0  0  0  0  0
  -27.8205  -11.2875   18.8414 H   0  0  0  0  0  0
  -27.3491  -12.5936   17.7895 H   0  0  0  0  0  0
  -27.6674  -14.2370   19.5536 H   0  0  0  0  0  0
  -28.6878  -12.0306   21.3921 H   0  0  0  0  0  0
  -28.4854  -13.7128   21.8205 H   0  0  0  0  0  0
  -25.2759   -9.5694   22.4742 H   0  0  0  0  0  0
  -23.9996   -7.4638   22.7487 H   0  0  0  0  0  0
  -21.0828   -8.8748   19.8958 H   0  0  0  0  0  0
  -22.3675  -10.9647   19.6146 H   0  0  0  0  0  0
  -21.1992   -7.6145   23.9701 H   0  0  0  0  0  0
  -21.1483   -6.0522   25.9068 H   0  0  0  0  0  0
  -22.0607   -2.7608   23.2836 H   0  0  0  0  0  0
  -22.4101  -11.9901   22.4789 H   0  0  0  0  0  0
  -21.1064  -13.1214   22.2628 H   0  0  0  0  0  0
  -24.6694  -15.8458   20.5179 H   0  0  0  0  0  0
  -26.2934  -15.6184   20.1035 H   0  0  0  0  0  0
  -26.7123  -32.5535   23.1152 H   0  0  0  0  0  0
  -25.0064  -33.9789   25.0476 H   0  0  0  0  0  0
  -22.6909  -31.3078   21.4068 H   0  0  0  0  0  0
  -23.3736  -35.9660   23.3307 H   0  0  0  0  0  0
  -24.3570  -36.8923   22.2039 H   0  0  0  0  0  0
  -23.7260  -37.6532   23.6638 H   0  0  0  0  0  0
  -26.0422  -31.5910   20.5850 H   0  0  0  0  0  0
  -26.8230  -30.8893   21.9738 H   0  0  0  0  0  0
  -28.1005  -29.1001   21.1389 H   0  0  0  0  0  0
  -26.0081  -25.9616   19.0215 H   0  0  0  0  0  0
  -23.9655  -27.2897   19.0499 H   0  0  0  0  0  0
  -23.7362  -30.6012   19.4054 H   0  0  0  0  0  0
  -22.7365  -29.2507   19.8569 H   0  0  0  0  0  0
  -25.1281  -36.1969   25.0813 H   0  0  0  0  0  0
  -20.9946  -28.3240   24.1421 H   0  0  0  0  0  0
  -21.6638  -26.7444   22.1248 H   0  0  0  0  0  0
  -20.5558  -26.2275   23.3608 H   0  0  0  0  0  0
  -19.6928  -25.6360   21.1069 H   0  0  0  0  0  0
  -19.6734  -27.3298   20.6749 H   0  0  0  0  0  0
  -17.4239  -26.6763   21.3886 H   0  0  0  0  0  0
  -18.0310  -26.0033   22.8873 H   0  0  0  0  0  0
  -19.7888  -30.7196   24.2366 H   0  0  0  0  0  0
  -17.4985  -31.6194   24.5272 H   0  0  0  0  0  0
  -15.5324  -30.2987   23.7579 H   0  0  0  0  0  0
  -15.8653  -28.0830   22.6950 H   0  0  0  0  0  0
  -24.5928  -30.7049   25.7774 H   0  0  0  0  0  0
  -24.8959  -32.2835   26.4948 H   0  0  0  0  0  0
  -25.8110  -30.8816   27.0200 H   0  0  0  0  0  0
  -26.2820  -29.6808   24.1162 H   0  0  0  0  0  0
  -27.4102  -29.7265   25.4516 H   0  0  0  0  0  0
  -27.8651  -30.4351   23.9190 H   0  0  0  0  0  0
  -27.2694  -33.3592   26.2108 H   0  0  0  0  0  0
  -28.3860  -32.6903   25.0300 H   0  0  0  0  0  0
  -28.0769  -31.8411   26.5363 H   0  0  0  0  0  0
  -28.2598  -38.0114   24.7485 H   0  0  0  0  0  0
  -28.1073  -36.2642   24.6308 H   0  0  0  0  0  0
  -27.2296  -37.1498   25.8868 H   0  0  0  0  0  0
  -20.9301  -29.8763   21.6913 H   0  0  0  0  0  0
  -26.0180  -38.2867   24.1398 H   0  0  0  0  0  0
  -31.1751  -18.9305   20.9660 H   0  0  0  0  0  0
  -27.2800  -17.2929   21.8226 H   0  0  0  0  0  0
  -30.2351  -21.1785   20.9134 H   0  0  0  0  0  0
  -26.3131  -19.5147   21.7480 H   0  0  0  0  0  0
  -28.7748  -17.2809   17.5279 H   0  0  0  0  0  0
  -27.9686  -17.1768   19.0814 H   0  0  0  0  0  0
  -28.1368  -15.7460   18.0642 H   0  0  0  0  0  0
  -26.0315  -23.0763   22.0873 H   0  0  0  0  0  0
  -26.1846  -21.5048   22.8128 H   0  0  0  0  0  0
  -25.5539  -21.6543   21.1637 H   0  0  0  0  0  0
  -30.9421  -16.6536   21.8874 H   0  0  0  0  0  0
  -29.3970  -16.0075   22.3468 H   0  0  0  0  0  0
  -28.5528  -24.5018   21.6444 H   0  0  0  0  0  0
  -26.9508  -24.6124   20.9643 H   0  0  0  0  0  0
  -30.5872  -17.2505   19.1504 H   0  0  0  0  0  0
  -30.5621  -15.7472   18.3134 H   0  0  0  0  0  0
  -29.0939  -22.6668   19.9679 H   0  0  0  0  0  0
  -27.4576  -22.7060   19.4059 H   0  0  0  0  0  0
  -27.9858  -25.2168   18.7052 H   0  0  0  0  0  0
  -29.5340  -25.1447   19.4610 H   0  0  0  0  0  0
  1 25  1  0  0  0
  1 30  2  0  0  0
  1 85  1  0  0  0
  2  3  1  0  0  0
  2 25  1  0  0  0
  2 86  1  0  0  0
  2 87  1  0  0  0
  3  4  1  0  0  0
  3 88  1  0  0  0
  3 89  1  0  0  0
  4  5  1  0  0  0
  4 90  1  0  0  0
  4 91  1  0  0  0
  5  6  1  0  0  0
  5 26  1  0  0  0
  5 92  1  0  0  0
  6 25  1  0  0  0
  6 93  1  0  0  0
  6 94  1  0  0  0
  7  8  2  0  0  0
  7 26  1  0  0  0
  7 29  1  0  0  0
  8  9  1  0  0  0
  8 22  1  0  0  0
  9 10  1  0  0  0
  9 27  2  0  0  0
 10 11  2  0  0  0
 10 15  1  0  0  0
 11 12  1  0  0  0
 11 95  1  0  0  0
 12 13  2  0  0  0
 12 96  1  0  0  0
 13 14  1  0  0  0
 13 31  1  0  0  0
 14 15  2  0  0  0
 14 97  1  0  0  0
 15 98  1  0  0  0
 16 17  2  0  0  0
 16 21  1  0  0  0
 16 31  1  0  0  0
 17 18  1  0  0  0
 17 99  1  0  0  0
 18 19  2  0  0  0
 18100  1  0  0  0
 19 20  1  0  0  0
 19 24  1  0  0  0
 20 21  2  0  0  0
 20101  1  0  0  0
 21 23  1  0  0  0
 22 28  1  0  0  0
 22 32  2  0  0  0
 26 27  1  0  0  0
 28102  1  0  0  0
 28103  1  0  0  0
 29104  1  0  0  0
 29105  1  0  0  0
 33 34  1  0  0  0
 33 66  1  0  0  0
 33 70  2  0  0  0
 34 36  1  0  0  0
 34 59  1  0  0  0
 34106  1  0  0  0
 35 44  2  0  0  0
 35 45  1  0  0  0
 35 68  1  0  0  0
 36 56  1  0  0  0
 36107  1  0  0  0
 37 39  1  0  0  0
 37 47  1  0  0  0
 37 66  1  0  0  0
 37108  1  0  0  0
 38 43  2  0  0  0
 38 46  1  0  0  0
 38 47  1  0  0  0
 39 64  1  0  0  0
 39 67  2  0  0  0
 40 52  1  0  0  0
 40 53  2  0  0  0
 40 58  1  0  0  0
 41109  1  0  0  0
 41110  1  0  0  0
 41111  1  0  0  0
 41 48  1  0  0  0
 42 43  1  0  0  0
 42 66  1  0  0  0
 42112  1  0  0  0
 42113  1  0  0  0
 43 44  1  0  0  0
 44114  1  0  0  0
 45 46  2  0  0  0
 45115  1  0  0  0
 46116  1  0  0  0
 47117  1  0  0  0
 47118  1  0  0  0
 48 56  1  0  0  0
 48 65  1  0  0  0
 48119  1  0  0  0
 49 50  1  0  0  0
 49 53  1  0  0  0
 49 64  1  0  0  0
 49120  1  0  0  0
 50 51  1  0  0  0
 50121  1  0  0  0
 50122  1  0  0  0
 51 52  1  0  0  0
 51123  1  0  0  0
 51124  1  0  0  0
 52125  1  0  0  0
 52126  1  0  0  0
 53 54  1  0  0  0
 54 55  2  0  0  0
 54127  1  0  0  0
 55 57  1  0  0  0
 55128  1  0  0  0
 56 69  2  0  0  0
 57 58  2  0  0  0
 57129  1  0  0  0
 58130  1  0  0  0
 59 60  1  0  0  0
 59 61  1  0  0  0
 59 62  1  0  0  0
 60131  1  0  0  0
 60132  1  0  0  0
 60133  1  0  0  0
 61134  1  0  0  0
 61135  1  0  0  0
 61136  1  0  0  0
 62137  1  0  0  0
 62138  1  0  0  0
 62139  1  0  0  0
 63 65  1  0  0  0
 63140  1  0  0  0
 63141  1  0  0  0
 63142  1  0  0  0
 64143  1  0  0  0
 65144  1  0  0  0
 68 83  1  0  0  0
 71 73  2  0  0  0
 71 75  1  0  0  0
 71145  1  0  0  0
 72 74  1  0  0  0
 72 75  2  0  0  0
 72146  1  0  0  0
 73 76  1  0  0  0
 73147  1  0  0  0
 74 76  2  0  0  0
 74148  1  0  0  0
 75 79  1  0  0  0
 76 84  1  0  0  0
 77 81  1  0  0  0
 77149  1  0  0  0
 77150  1  0  0  0
 77151  1  0  0  0
 78 84  1  0  0  0
 78152  1  0  0  0
 78153  1  0  0  0
 78154  1  0  0  0
 79 85  1  0  0  0
 79155  1  0  0  0
 79156  1  0  0  0
 80 82  1  0  0  0
 80 83  1  0  0  0
 80157  1  0  0  0
 80158  1  0  0  0
 81 85  1  0  0  0
 81159  1  0  0  0
 81160  1  0  0  0
 82 84  1  0  0  0
 82161  1  0  0  0
 82162  1  0  0  0
 83163  1  0  0  0
 83164  1  0  0  0
M  ISO  4   1 100  68 101  83 101  85 100
M  END
> <chiral flag>
0

> <version>
0

> <s_m_source_file>
/data/baiqing/PycharmProjects/Reinvent-master-3.2/result/LINK_invent/BTK/process_docking_weight1_custom_product_contain_oxygen_bond_distance_aromatic_linkinvent_7_9_3/rearranged_h_0018.sdf

> <i_m_source_file_index>
10

> <r_mmod_Potential_Energy-OPLS-2005>
143.687255859375

> <r_mmod_Stretch_Energy-OPLS-2005>
45.2588195800781

> <r_mmod_Bend_Energy-OPLS-2005>
121.40062713623

> <r_mmod_Torsional_Energy-OPLS-2005>
278.954498291016

> <r_mmod_Improper_Torsional_Energy-OPLS-2005>
19.0779037475586

> <r_mmod_Van_der_Waal_Energy-OPLS-2005>
158.236679077148

> <r_mmod_Electrostatic_Energy-OPLS-2005>
-296.239227294922

> <r_mmod_Solvation_Energy-OPLS-2005>
-206.606246948242

> <b_mmod_Minimization_Converged-OPLS-2005>
0

> <r_mmod_RMS_Derivative-OPLS-2005>
2.85075187683105

$$$$
10
                    3D
 Structure written by MMmdl.
170178  0  0  1  0            999 V2000
  -30.4620  -15.2283   20.4318 C   0  0  0  0  0  0
  -30.4233  -12.7808   19.5529 C   0  0  0  0  0  0
  -29.5304  -12.5978   18.2986 C   0  0  0  0  0  0
  -28.0777  -12.3094   18.7134 C   0  0  0  0  0  0
  -27.6068  -13.2720   19.8294 C   0  0  2  0  0  0
  -28.6324  -13.4057   20.9756 C   0  0  0  0  0  0
  -25.2239  -13.8098   20.5534 C   0  0  0  0  0  0
  -24.1654  -13.0323   20.9213 C   0  0  0  0  0  0
  -24.6384  -11.6860   20.8793 C   0  0  0  0  0  0
  -23.9073  -10.4239   21.0444 C   0  0  0  0  0  0
  -24.3623   -9.4163   21.9227 C   0  0  0  0  0  0
  -23.6295   -8.2191   22.0759 C   0  0  0  0  0  0
  -22.4280   -8.0253   21.3542 C   0  0  0  0  0  0
  -21.9927   -9.0224   20.4634 C   0  0  0  0  0  0
  -22.7242  -10.2096   20.3061 C   0  0  0  0  0  0
  -21.6843   -6.0733   22.5283 C   0  0  0  0  0  0
  -21.4010   -6.5634   23.8225 C   0  0  0  0  0  0
  -21.3668   -5.6786   24.9181 C   0  0  0  0  0  0
  -21.6036   -4.3053   24.7241 C   0  0  0  0  0  0
  -21.8811   -3.8137   23.4369 C   0  0  0  0  0  0
  -21.9194   -4.6955   22.3416 C   0  0  0  0  0  0
  -22.7688  -13.5120   21.1897 C   0  0  0  0  0  0
  -22.1649   -4.2136   21.1002 F   0  0  0  0  0  0
  -21.5632   -3.4532   25.7764 F   0  0  0  0  0  0
  -29.8798  -13.9230   20.3838 N   0  0  0  0  0  0
  -26.2757  -12.9456   20.3211 N   0  0  0  0  0  0
  -25.9331  -11.6572   20.5773 N   0  0  0  0  0  0
  -22.0392  -12.8100   22.0489 N   0  0  0  0  0  0
  -25.3652  -15.1747   20.3603 N   0  0  0  0  0  0
  -31.6689  -15.2061   20.1423 O   0  0  0  0  0  0
  -21.6621   -6.8873   21.4241 O   0  0  0  0  0  0
  -22.3368  -14.5442   20.6777 O   0  0  0  0  0  0
  -24.6564  -31.8281   23.1701 C   0  0  0  0  0  0
  -25.9255  -32.4601   23.8168 C   0  0  1  0  0  0
  -27.2456  -26.9739   20.2086 C   0  0  0  0  0  0
  -25.5967  -33.8414   24.2091 N   0  0  0  0  0  0
  -23.4743  -30.4349   21.5182 C   0  0  2  0  0  0
  -24.9345  -28.8182   20.1306 C   0  0  0  0  0  0
  -22.7654  -29.4437   22.4790 C   0  0  0  0  0  0
  -18.0310  -28.1414   22.8418 C   0  0  0  0  0  0
  -24.1486  -36.7207   23.2649 C   0  0  0  0  0  0
  -26.0389  -30.6532   21.3913 C   0  0  0  0  0  0
  -26.1175  -29.2394   20.7524 C   0  0  0  0  0  0
  -27.2706  -28.3419   20.7597 C   0  0  0  0  0  0
  -26.0301  -26.6833   19.5492 C   0  0  0  0  0  0
  -24.9105  -27.5548   19.5128 C   0  0  0  0  0  0
  -23.7215  -29.7442   20.1483 C   0  0  0  0  0  0
  -25.4116  -36.2932   24.0279 C   0  0  1  0  0  0
  -20.5925  -28.3751   23.1184 C   0  0  2  0  0  0
  -20.6777  -26.9443   22.5370 C   0  0  0  0  0  0
  -19.5752  -26.6377   21.5189 C   0  0  0  0  0  0
  -18.1944  -26.7935   22.1615 C   0  0  0  0  0  0
  -19.1585  -28.8902   23.2779 C   0  0  0  0  0  0
  -18.9519  -30.1494   23.8800 C   0  0  0  0  0  0
  -17.6516  -30.6587   24.0562 C   0  0  0  0  0  0
  -25.9091  -34.9333   23.4978 C   0  0  0  0  0  0
  -16.5398  -29.9080   23.6366 C   0  0  0  0  0  0
  -16.7312  -28.6523   23.0309 C   0  0  0  0  0  0
  -26.4543  -31.6523   25.0681 C   0  0  0  0  0  0
  -25.3650  -31.3789   26.1332 C   0  0  0  0  0  0
  -27.0475  -30.2902   24.6393 C   0  0  0  0  0  0
  -27.6050  -32.4332   25.7469 C   0  0  0  0  0  0
  -27.5527  -37.1755   24.8459 C   0  0  0  0  0  0
  -21.4333  -29.3059   22.3560 N   0  0  0  0  0  0
  -26.4251  -37.3676   23.9412 N   0  0  0  0  0  0
  -24.7436  -30.9962   22.0829 N   0  0  0  0  0  0
  -23.4212  -28.8011   23.3031 O   0  0  0  0  0  0
  -28.2995  -25.9325   20.2141 O   0  0  0  0  0  0
  -26.5676  -34.8836   22.4558 O   0  0  0  0  0  0
  -23.5634  -32.1283   23.6761 O   0  0  0  0  0  0
  -28.9422  -16.3978   22.9598 C   0  0  0  0  0  0
  -27.4982  -17.2090   21.1853 C   0  0  0  0  0  0
  -27.9739  -16.7796   23.9141 C   0  0  0  0  0  0
  -26.5425  -17.6011   22.1377 C   0  0  0  0  0  0
  -28.7072  -16.6153   21.5838 C   0  0  0  0  0  0
  -26.7678  -17.4103   23.5213 C   0  0  0  0  0  0
  -30.8321  -20.2230   19.1531 C   0  0  0  0  0  0
  -28.5622  -19.3645   18.7859 C   0  0  0  0  0  0
  -26.3182  -18.2002   25.8163 C   0  0  0  0  0  0
  -24.5839  -18.4736   24.0308 C   0  0  0  0  0  0
  -28.9460  -22.8440   20.0264 C   0  0  0  0  0  0
  -29.0269  -21.1687   20.6481 C   0  0  0  0  0  0
  -30.2690  -18.0930   20.4708 C   0  0  0  0  0  0
  -28.1584  -24.3452   20.5745 C   0  0  0  0  0  0
  -29.5937  -19.6639   19.8820 C   0  0  0  0  0  0
  -29.7625  -16.5333   20.6435 N   0  0  0  0  0  0
  -25.8284  -17.8529   24.4833 N   0  0  0  0  0  0
  -31.4505  -12.9571   19.2374 H   0  0  0  0  0  0
  -30.4610  -11.8572   20.1324 H   0  0  0  0  0  0
  -29.9099  -11.7964   17.6662 H   0  0  0  0  0  0
  -29.5628  -13.5074   17.6971 H   0  0  0  0  0  0
  -28.0364  -11.2830   19.0801 H   0  0  0  0  0  0
  -27.4098  -12.3497   17.8527 H   0  0  0  0  0  0
  -27.5348  -14.2480   19.3484 H   0  0  0  0  0  0
  -28.7844  -12.4534   21.4818 H   0  0  0  0  0  0
  -28.2485  -14.0781   21.7367 H   0  0  0  0  0  0
  -25.2761   -9.5620   22.4825 H   0  0  0  0  0  0
  -23.9989   -7.4563   22.7471 H   0  0  0  0  0  0
  -21.0868   -8.8745   19.8923 H   0  0  0  0  0  0
  -22.3735  -10.9652   19.6164 H   0  0  0  0  0  0
  -21.1981   -7.6132   23.9733 H   0  0  0  0  0  0
  -21.1499   -6.0514   25.9092 H   0  0  0  0  0  0
  -22.0584   -2.7595   23.2878 H   0  0  0  0  0  0
  -22.4001  -11.9695   22.4746 H   0  0  0  0  0  0
  -21.1004  -13.1078   22.2769 H   0  0  0  0  0  0
  -24.5897  -15.8185   20.4560 H   0  0  0  0  0  0
  -26.2360  -15.6232   20.1134 H   0  0  0  0  0  0
  -26.7318  -32.5196   23.0875 H   0  0  0  0  0  0
  -25.0097  -33.9562   25.0211 H   0  0  0  0  0  0
  -22.7838  -31.2637   21.3391 H   0  0  0  0  0  0
  -23.3739  -35.9561   23.3265 H   0  0  0  0  0  0
  -24.3565  -36.8884   22.2080 H   0  0  0  0  0  0
  -23.7267  -37.6374   23.6759 H   0  0  0  0  0  0
  -26.1953  -31.3890   20.6018 H   0  0  0  0  0  0
  -26.9068  -30.7301   22.0358 H   0  0  0  0  0  0
  -28.1813  -28.6775   21.2381 H   0  0  0  0  0  0
  -25.9285  -25.7228   19.0609 H   0  0  0  0  0  0
  -24.0071  -27.2242   19.0233 H   0  0  0  0  0  0
  -23.8947  -30.5148   19.3960 H   0  0  0  0  0  0
  -22.8324  -29.2005   19.8199 H   0  0  0  0  0  0
  -25.1304  -36.1701   25.0768 H   0  0  0  0  0  0
  -21.0036  -28.3345   24.1310 H   0  0  0  0  0  0
  -20.5636  -26.2408   23.3618 H   0  0  0  0  0  0
  -21.6643  -26.7349   22.1213 H   0  0  0  0  0  0
  -19.6921  -25.6266   21.1273 H   0  0  0  0  0  0
  -19.6677  -27.3149   20.6683 H   0  0  0  0  0  0
  -17.4192  -26.6660   21.4018 H   0  0  0  0  0  0
  -18.0332  -26.0077   22.9020 H   0  0  0  0  0  0
  -19.8002  -30.7359   24.2091 H   0  0  0  0  0  0
  -17.5076  -31.6252   24.5207 H   0  0  0  0  0  0
  -15.5410  -30.2975   23.7727 H   0  0  0  0  0  0
  -15.8699  -28.0877   22.6983 H   0  0  0  0  0  0
  -24.5861  -30.7076   25.7671 H   0  0  0  0  0  0
  -24.8800  -32.3005   26.4574 H   0  0  0  0  0  0
  -25.7856  -30.9093   27.0227 H   0  0  0  0  0  0
  -26.3136  -29.6573   24.1422 H   0  0  0  0  0  0
  -27.4048  -29.7262   25.5019 H   0  0  0  0  0  0
  -27.9013  -30.4083   23.9726 H   0  0  0  0  0  0
  -27.2629  -33.3707   26.1849 H   0  0  0  0  0  0
  -28.3946  -32.6789   25.0352 H   0  0  0  0  0  0
  -28.0616  -31.8591   26.5544 H   0  0  0  0  0  0
  -28.2508  -38.0089   24.7481 H   0  0  0  0  0  0
  -28.1033  -36.2598   24.6274 H   0  0  0  0  0  0
  -27.2238  -37.1325   25.8861 H   0  0  0  0  0  0
  -20.9608  -29.8847   21.6758 H   0  0  0  0  0  0
  -26.0055  -38.2689   24.1525 H   0  0  0  0  0  0
  -29.8866  -15.9983   23.3016 H   0  0  0  0  0  0
  -27.3147  -17.4060   20.1381 H   0  0  0  0  0  0
  -28.1941  -16.6058   24.9580 H   0  0  0  0  0  0
  -25.6491  -18.0820   21.7699 H   0  0  0  0  0  0
  -30.6307  -21.1682   18.6478 H   0  0  0  0  0  0
  -31.2040  -19.5464   18.3807 H   0  0  0  0  0  0
  -31.6408  -20.3998   19.8647 H   0  0  0  0  0  0
  -28.5604  -20.1451   18.0221 H   0  0  0  0  0  0
  -27.5508  -19.3316   19.1903 H   0  0  0  0  0  0
  -28.7690  -18.4202   18.2840 H   0  0  0  0  0  0
  -26.5172  -17.3044   26.4059 H   0  0  0  0  0  0
  -25.5879  -18.7932   26.3655 H   0  0  0  0  0  0
  -27.2376  -18.7858   25.7551 H   0  0  0  0  0  0
  -24.7810  -19.4457   23.5733 H   0  0  0  0  0  0
  -23.8945  -18.6341   24.8611 H   0  0  0  0  0  0
  -24.0651  -17.8486   23.3002 H   0  0  0  0  0  0
  -28.6217  -22.7332   18.9939 H   0  0  0  0  0  0
  -29.9957  -23.1235   19.9355 H   0  0  0  0  0  0
  -28.0184  -20.9428   21.0009 H   0  0  0  0  0  0
  -29.6004  -21.2492   21.5717 H   0  0  0  0  0  0
  -30.7610  -18.3192   21.4182 H   0  0  0  0  0  0
  -31.1108  -17.8879   19.8133 H   0  0  0  0  0  0
  -28.3942  -24.3596   21.6400 H   0  0  0  0  0  0
  -27.0884  -24.1412   20.5610 H   0  0  0  0  0  0
  1 25  1  0  0  0
  1 30  2  0  0  0
  1 86  1  0  0  0
  2  3  1  0  0  0
  2 25  1  0  0  0
  2 88  1  0  0  0
  2 89  1  0  0  0
  3  4  1  0  0  0
  3 90  1  0  0  0
  3 91  1  0  0  0
  4  5  1  0  0  0
  4 92  1  0  0  0
  4 93  1  0  0  0
  5  6  1  0  0  0
  5 26  1  0  0  0
  5 94  1  0  0  0
  6 25  1  0  0  0
  6 95  1  0  0  0
  6 96  1  0  0  0
  7  8  2  0  0  0
  7 26  1  0  0  0
  7 29  1  0  0  0
  8  9  1  0  0  0
  8 22  1  0  0  0
  9 10  1  0  0  0
  9 27  2  0  0  0
 10 11  2  0  0  0
 10 15  1  0  0  0
 11 12  1  0  0  0
 11 97  1  0  0  0
 12 13  2  0  0  0
 12 98  1  0  0  0
 13 14  1  0  0  0
 13 31  1  0  0  0
 14 15  2  0  0  0
 14 99  1  0  0  0
 15100  1  0  0  0
 16 17  2  0  0  0
 16 21  1  0  0  0
 16 31  1  0  0  0
 17 18  1  0  0  0
 17101  1  0  0  0
 18 19  2  0  0  0
 18102  1  0  0  0
 19 20  1  0  0  0
 19 24  1  0  0  0
 20 21  2  0  0  0
 20103  1  0  0  0
 21 23  1  0  0  0
 22 28  1  0  0  0
 22 32  2  0  0  0
 26 27  1  0  0  0
 28104  1  0  0  0
 28105  1  0  0  0
 29106  1  0  0  0
 29107  1  0  0  0
 33 34  1  0  0  0
 33 66  1  0  0  0
 33 70  2  0  0  0
 34 36  1  0  0  0
 34 59  1  0  0  0
 34108  1  0  0  0
 35 44  2  0  0  0
 35 45  1  0  0  0
 35 68  1  0  0  0
 36 56  1  0  0  0
 36109  1  0  0  0
 37 39  1  0  0  0
 37 47  1  0  0  0
 37 66  1  0  0  0
 37110  1  0  0  0
 38 43  2  0  0  0
 38 46  1  0  0  0
 38 47  1  0  0  0
 39 64  1  0  0  0
 39 67  2  0  0  0
 40 52  1  0  0  0
 40 53  2  0  0  0
 40 58  1  0  0  0
 41111  1  0  0  0
 41112  1  0  0  0
 41113  1  0  0  0
 41 48  1  0  0  0
 42 43  1  0  0  0
 42 66  1  0  0  0
 42114  1  0  0  0
 42115  1  0  0  0
 43 44  1  0  0  0
 44116  1  0  0  0
 45 46  2  0  0  0
 45117  1  0  0  0
 46118  1  0  0  0
 47119  1  0  0  0
 47120  1  0  0  0
 48 56  1  0  0  0
 48 65  1  0  0  0
 48121  1  0  0  0
 49 50  1  0  0  0
 49 53  1  0  0  0
 49 64  1  0  0  0
 49122  1  0  0  0
 50 51  1  0  0  0
 50123  1  0  0  0
 50124  1  0  0  0
 51 52  1  0  0  0
 51125  1  0  0  0
 51126  1  0  0  0
 52127  1  0  0  0
 52128  1  0  0  0
 53 54  1  0  0  0
 54 55  2  0  0  0
 54129  1  0  0  0
 55 57  1  0  0  0
 55130  1  0  0  0
 56 69  2  0  0  0
 57 58  2  0  0  0
 57131  1  0  0  0
 58132  1  0  0  0
 59 60  1  0  0  0
 59 61  1  0  0  0
 59 62  1  0  0  0
 60133  1  0  0  0
 60134  1  0  0  0
 60135  1  0  0  0
 61136  1  0  0  0
 61137  1  0  0  0
 61138  1  0  0  0
 62139  1  0  0  0
 62140  1  0  0  0
 62141  1  0  0  0
 63 65  1  0  0  0
 63142  1  0  0  0
 63143  1  0  0  0
 63144  1  0  0  0
 64145  1  0  0  0
 65146  1  0  0  0
 68 84  1  0  0  0
 71 73  2  0  0  0
 71 75  1  0  0  0
 71147  1  0  0  0
 72 74  1  0  0  0
 72 75  2  0  0  0
 72148  1  0  0  0
 73 76  1  0  0  0
 73149  1  0  0  0
 74 76  2  0  0  0
 74150  1  0  0  0
 75 86  1  0  0  0
 76 87  1  0  0  0
 77151  1  0  0  0
 77152  1  0  0  0
 77153  1  0  0  0
 77 85  1  0  0  0
 78 85  1  0  0  0
 78154  1  0  0  0
 78155  1  0  0  0
 78156  1  0  0  0
 79 87  1  0  0  0
 79157  1  0  0  0
 79158  1  0  0  0
 79159  1  0  0  0
 80 87  1  0  0  0
 80160  1  0  0  0
 80161  1  0  0  0
 80162  1  0  0  0
 81 82  1  0  0  0
 81 84  1  0  0  0
 81163  1  0  0  0
 81164  1  0  0  0
 82 85  1  0  0  0
 82165  1  0  0  0
 82166  1  0  0  0
 83 85  1  0  0  0
 83 86  1  0  0  0
 83167  1  0  0  0
 83168  1  0  0  0
 84169  1  0  0  0
 84170  1  0  0  0
M  ISO  4   1 100  68 101  84 101  86 100
M  END
> <chiral flag>
0

> <version>
0

> <s_m_source_file>
/data/baiqing/PycharmProjects/Reinvent-master-3.2/result/LINK_invent/BTK/process_docking_weight1_custom_product_contain_oxygen_bond_distance_aromatic_linkinvent_7_9_3/rearranged_h_0018.sdf

> <i_m_source_file_index>
11

> <r_mmod_Potential_Energy-OPLS-2005>
1407.75390625

> <r_mmod_Stretch_Energy-OPLS-2005>
590.662414550781

> <r_mmod_Bend_Energy-OPLS-2005>
509.962951660156

> <r_mmod_Torsional_Energy-OPLS-2005>
303.805419921875

> <r_mmod_Improper_Torsional_Energy-OPLS-2005>
8.26093673706055

> <r_mmod_Van_der_Waal_Energy-OPLS-2005>
139.634002685547

> <r_mmod_Electrostatic_Energy-OPLS-2005>
-333.377899169922

> <r_mmod_Solvation_Energy-OPLS-2005>
-204.489028930664

> <b_mmod_Minimization_Converged-OPLS-2005>
0

> <r_mmod_RMS_Derivative-OPLS-2005>
4.8758749961853

$$$$
11
                    3D
 Structure written by MMmdl.
165173  0  0  1  0            999 V2000
  -30.7414  -14.4396   20.6722 C   0  0  0  0  0  0
  -30.4143  -12.3384   19.3984 C   0  0  0  0  0  0
  -29.4789  -12.5538   18.1915 C   0  0  0  0  0  0
  -28.0071  -12.3838   18.6106 C   0  0  0  0  0  0
  -27.6569  -13.2108   19.8736 C   0  0  2  0  0  0
  -28.6933  -12.9737   20.9896 C   0  0  0  0  0  0
  -25.2555  -13.8178   20.5662 C   0  0  0  0  0  0
  -24.1809  -13.0453   20.9159 C   0  0  0  0  0  0
  -24.6371  -11.6925   20.8721 C   0  0  0  0  0  0
  -23.9032  -10.4308   21.0402 C   0  0  0  0  0  0
  -24.3599   -9.4229   21.9181 C   0  0  0  0  0  0
  -23.6293   -8.2255   22.0745 C   0  0  0  0  0  0
  -22.4268   -8.0278   21.3547 C   0  0  0  0  0  0
  -21.9898   -9.0237   20.4638 C   0  0  0  0  0  0
  -22.7202  -10.2132   20.3050 C   0  0  0  0  0  0
  -21.6840   -6.0736   22.5279 C   0  0  0  0  0  0
  -21.4006   -6.5640   23.8209 C   0  0  0  0  0  0
  -21.3670   -5.6795   24.9185 C   0  0  0  0  0  0
  -21.6049   -4.3055   24.7230 C   0  0  0  0  0  0
  -21.8823   -3.8146   23.4354 C   0  0  0  0  0  0
  -21.9203   -4.6971   22.3412 C   0  0  0  0  0  0
  -22.7829  -13.5217   21.1884 C   0  0  0  0  0  0
  -22.1661   -4.2146   21.0994 F   0  0  0  0  0  0
  -21.5647   -3.4543   25.7752 F   0  0  0  0  0  0
  -30.0320  -13.2920   20.4564 N   0  0  0  0  0  0
  -26.2986  -12.9360   20.3320 N   0  0  0  0  0  0
  -25.9292  -11.6524   20.5713 N   0  0  0  0  0  0
  -22.0480  -12.8147   22.0411 N   0  0  0  0  0  0
  -25.4323  -15.1893   20.4098 N   0  0  0  0  0  0
  -31.7944  -14.6828   20.0689 O   0  0  0  0  0  0
  -21.6638   -6.8876   21.4233 O   0  0  0  0  0  0
  -22.3492  -14.5545   20.6808 O   0  0  0  0  0  0
  -24.6167  -31.8684   23.2066 C   0  0  0  0  0  0
  -25.9048  -32.4809   23.8393 C   0  0  1  0  0  0
  -27.2286  -27.4058   20.1149 C   0  0  0  0  0  0
  -25.5891  -33.8618   24.2309 N   0  0  0  0  0  0
  -23.4070  -30.4923   21.5456 C   0  0  2  0  0  0
  -24.8527  -28.9529   20.1149 C   0  0  0  0  0  0
  -22.7416  -29.4676   22.4937 C   0  0  0  0  0  0
  -18.0287  -28.1392   22.8495 C   0  0  0  0  0  0
  -24.1486  -36.7333   23.2644 C   0  0  0  0  0  0
  -25.9389  -30.8234   21.3671 C   0  0  0  0  0  0
  -26.0143  -29.4565   20.7130 C   0  0  0  0  0  0
  -27.2072  -28.6944   20.7036 C   0  0  0  0  0  0
  -26.0509  -26.9215   19.5074 C   0  0  0  0  0  0
  -24.8683  -27.6849   19.5068 C   0  0  0  0  0  0
  -23.6153  -29.8231   20.1615 C   0  0  0  0  0  0
  -25.4098  -36.3119   24.0336 C   0  0  1  0  0  0
  -20.5878  -28.3697   23.1294 C   0  0  2  0  0  0
  -20.6775  -26.9425   22.5412 C   0  0  0  0  0  0
  -19.5744  -26.6393   21.5223 C   0  0  0  0  0  0
  -18.1922  -26.7941   22.1630 C   0  0  0  0  0  0
  -19.1535  -28.8848   23.2903 C   0  0  0  0  0  0
  -18.9460  -30.1444   23.8927 C   0  0  0  0  0  0
  -17.6462  -30.6591   24.0561 C   0  0  0  0  0  0
  -25.9034  -34.9480   23.5119 C   0  0  0  0  0  0
  -16.5354  -29.9094   23.6320 C   0  0  0  0  0  0
  -16.7275  -28.6508   23.0354 C   0  0  0  0  0  0
  -26.4471  -31.6620   25.0751 C   0  0  0  0  0  0
  -25.3712  -31.3724   26.1478 C   0  0  0  0  0  0
  -27.0351  -30.3059   24.6198 C   0  0  0  0  0  0
  -27.6038  -32.4370   25.7504 C   0  0  0  0  0  0
  -27.5584  -37.1814   24.8451 C   0  0  0  0  0  0
  -21.4137  -29.3072   22.3680 N   0  0  0  0  0  0
  -26.4300  -37.3796   23.9398 N   0  0  0  0  0  0
  -24.6728  -31.0768   22.0970 N   0  0  0  0  0  0
  -23.4168  -28.8224   23.2998 O   0  0  0  0  0  0
  -28.3816  -26.6431   20.1053 O   0  0  0  0  0  0
  -26.5599  -34.8922   22.4687 O   0  0  0  0  0  0
  -23.5357  -32.1452   23.7450 O   0  0  0  0  0  0
  -29.7788  -18.5143   19.5095 C   0  0  0  0  0  0
  -29.8773  -17.1500   19.8716 C   0  0  0  0  0  0
  -29.8405  -19.1342   21.8427 C   0  0  0  0  0  0
  -29.7820  -19.5318   20.4902 C   0  0  0  0  0  0
  -30.0192  -16.7370   21.2271 C   0  0  0  0  0  0
  -29.9540  -17.7731   22.2108 C   0  0  0  0  0  0
  -30.3128  -24.9238   19.1500 C   0  0  0  0  0  0
  -30.3660  -14.9230   22.9766 C   0  0  0  0  0  0
  -27.4065  -20.9066   19.4682 C   0  0  0  0  0  0
  -29.8097  -21.0269   20.0901 C   0  0  0  0  0  0
  -28.5577  -23.0686   19.3007 C   0  0  0  0  0  0
  -28.2767  -25.3074   20.6586 C   0  0  0  0  0  0
  -29.2607  -24.2492   20.0520 C   0  0  2  0  0  0
  -30.2343  -15.3306   21.5660 N   0  0  0  0  0  0
  -28.4973  -21.7491   20.0213 N   0  3  1  0  0  0
  -30.0271  -17.5105   23.5373 F   0  0  0  0  0  0
  -31.4538  -12.4532   19.0851 H   0  0  0  0  0  0
  -30.3312  -11.3154   19.7681 H   0  0  0  0  0  0
  -29.7232  -11.8563   17.3884 H   0  0  0  0  0  0
  -29.6279  -13.5559   17.7858 H   0  0  0  0  0  0
  -27.8322  -11.3245   18.8032 H   0  0  0  0  0  0
  -27.3449  -12.6592   17.7895 H   0  0  0  0  0  0
  -27.7071  -14.2627   19.5927 H   0  0  0  0  0  0
  -28.6687  -11.9315   21.3126 H   0  0  0  0  0  0
  -28.4207  -13.5519   21.8701 H   0  0  0  0  0  0
  -25.2760   -9.5701   22.4734 H   0  0  0  0  0  0
  -24.0029   -7.4628   22.7437 H   0  0  0  0  0  0
  -21.0852   -8.8745   19.8894 H   0  0  0  0  0  0
  -22.3684  -10.9676   19.6145 H   0  0  0  0  0  0
  -21.1963   -7.6144   23.9691 H   0  0  0  0  0  0
  -21.1484   -6.0544   25.9078 H   0  0  0  0  0  0
  -22.0595   -2.7606   23.2855 H   0  0  0  0  0  0
  -22.4138  -11.9823   22.4801 H   0  0  0  0  0  0
  -21.1080  -13.1107   22.2646 H   0  0  0  0  0  0
  -24.6735  -15.8523   20.5170 H   0  0  0  0  0  0
  -26.3007  -15.6200   20.1182 H   0  0  0  0  0  0
  -26.7115  -32.5521   23.1159 H   0  0  0  0  0  0
  -24.9997  -33.9772   25.0421 H   0  0  0  0  0  0
  -22.6986  -31.3105   21.4053 H   0  0  0  0  0  0
  -23.3748  -35.9675   23.3310 H   0  0  0  0  0  0
  -24.3562  -36.8959   22.2063 H   0  0  0  0  0  0
  -23.7241  -37.6529   23.6665 H   0  0  0  0  0  0
  -26.0609  -31.5864   20.5980 H   0  0  0  0  0  0
  -26.8222  -30.8706   21.9923 H   0  0  0  0  0  0
  -28.1052  -29.0837   21.1624 H   0  0  0  0  0  0
  -26.0441  -25.9495   19.0327 H   0  0  0  0  0  0
  -23.9779  -27.2921   19.0385 H   0  0  0  0  0  0
  -23.7227  -30.5979   19.4016 H   0  0  0  0  0  0
  -22.7391  -29.2440   19.8661 H   0  0  0  0  0  0
  -25.1278  -36.1999   25.0830 H   0  0  0  0  0  0
  -20.9981  -28.3306   24.1415 H   0  0  0  0  0  0
  -20.5700  -26.2324   23.3620 H   0  0  0  0  0  0
  -21.6643  -26.7469   22.1202 H   0  0  0  0  0  0
  -19.6904  -25.6306   21.1255 H   0  0  0  0  0  0
  -19.6682  -27.3197   20.6745 H   0  0  0  0  0  0
  -17.4202  -26.6711   21.4019 H   0  0  0  0  0  0
  -18.0300  -26.0076   22.9013 H   0  0  0  0  0  0
  -19.7933  -30.7244   24.2330 H   0  0  0  0  0  0
  -17.5021  -31.6275   24.5160 H   0  0  0  0  0  0
  -15.5351  -30.3001   23.7625 H   0  0  0  0  0  0
  -15.8685  -28.0817   22.7069 H   0  0  0  0  0  0
  -24.5854  -30.7127   25.7774 H   0  0  0  0  0  0
  -24.8943  -32.2892   26.4959 H   0  0  0  0  0  0
  -25.8035  -30.8832   27.0215 H   0  0  0  0  0  0
  -26.2948  -29.6760   24.1247 H   0  0  0  0  0  0
  -27.4096  -29.7351   25.4710 H   0  0  0  0  0  0
  -27.8785  -30.4368   23.9404 H   0  0  0  0  0  0
  -27.2630  -33.3640   26.2112 H   0  0  0  0  0  0
  -28.3802  -32.6980   25.0304 H   0  0  0  0  0  0
  -28.0757  -31.8498   26.5385 H   0  0  0  0  0  0
  -28.2589  -38.0124   24.7498 H   0  0  0  0  0  0
  -28.1099  -36.2655   24.6281 H   0  0  0  0  0  0
  -27.2300  -37.1457   25.8853 H   0  0  0  0  0  0
  -20.9293  -29.8788   21.6890 H   0  0  0  0  0  0
  -26.0208  -38.2883   24.1383 H   0  0  0  0  0  0
  -29.7332  -18.7767   18.4594 H   0  0  0  0  0  0
  -29.8817  -16.4277   19.0672 H   0  0  0  0  0  0
  -29.8368  -19.8775   22.6288 H   0  0  0  0  0  0
  -31.0559  -24.2092   18.7953 H   0  0  0  0  0  0
  -30.8466  -25.7075   19.6885 H   0  0  0  0  0  0
  -29.8445  -25.3808   18.2772 H   0  0  0  0  0  0
  -29.4508  -15.1343   23.5324 H   0  0  0  0  0  0
  -31.1956  -15.4521   23.4492 H   0  0  0  0  0  0
  -30.5726  -13.8588   23.1075 H   0  0  0  0  0  0
  -27.2377  -20.0146   20.0724 H   0  0  0  0  0  0
  -27.6344  -20.5945   18.4480 H   0  0  0  0  0  0
  -26.4603  -21.4480   19.4485 H   0  0  0  0  0  0
  -30.3102  -21.0963   19.1255 H   0  0  0  0  0  0
  -30.4611  -21.5523   20.7899 H   0  0  0  0  0  0
  -29.0290  -22.8997   18.3317 H   0  0  0  0  0  0
  -27.5454  -23.3861   19.0427 H   0  0  0  0  0  0
  -28.5071  -25.4031   21.7212 H   0  0  0  0  0  0
  -27.2579  -24.9212   20.6438 H   0  0  0  0  0  0
  -29.8179  -23.8233   20.8860 H   0  0  0  0  0  0
  -28.2218  -21.9443   20.9712 H   0  0  0  0  0  0
  1 25  1  0  0  0
  1 30  2  0  0  0
  1 84  1  0  0  0
  2  3  1  0  0  0
  2 25  1  0  0  0
  2 87  1  0  0  0
  2 88  1  0  0  0
  3  4  1  0  0  0
  3 89  1  0  0  0
  3 90  1  0  0  0
  4  5  1  0  0  0
  4 91  1  0  0  0
  4 92  1  0  0  0
  5  6  1  0  0  0
  5 26  1  0  0  0
  5 93  1  0  0  0
  6 25  1  0  0  0
  6 94  1  0  0  0
  6 95  1  0  0  0
  7  8  2  0  0  0
  7 26  1  0  0  0
  7 29  1  0  0  0
  8  9  1  0  0  0
  8 22  1  0  0  0
  9 10  1  0  0  0
  9 27  2  0  0  0
 10 11  2  0  0  0
 10 15  1  0  0  0
 11 12  1  0  0  0
 11 96  1  0  0  0
 12 13  2  0  0  0
 12 97  1  0  0  0
 13 14  1  0  0  0
 13 31  1  0  0  0
 14 15  2  0  0  0
 14 98  1  0  0  0
 15 99  1  0  0  0
 16 17  2  0  0  0
 16 21  1  0  0  0
 16 31  1  0  0  0
 17 18  1  0  0  0
 17100  1  0  0  0
 18 19  2  0  0  0
 18101  1  0  0  0
 19 20  1  0  0  0
 19 24  1  0  0  0
 20 21  2  0  0  0
 20102  1  0  0  0
 21 23  1  0  0  0
 22 28  1  0  0  0
 22 32  2  0  0  0
 26 27  1  0  0  0
 28103  1  0  0  0
 28104  1  0  0  0
 29105  1  0  0  0
 29106  1  0  0  0
 33 34  1  0  0  0
 33 66  1  0  0  0
 33 70  2  0  0  0
 34 36  1  0  0  0
 34 59  1  0  0  0
 34107  1  0  0  0
 35 44  2  0  0  0
 35 45  1  0  0  0
 35 68  1  0  0  0
 36 56  1  0  0  0
 36108  1  0  0  0
 37 39  1  0  0  0
 37 47  1  0  0  0
 37 66  1  0  0  0
 37109  1  0  0  0
 38 43  2  0  0  0
 38 46  1  0  0  0
 38 47  1  0  0  0
 39 64  1  0  0  0
 39 67  2  0  0  0
 40 52  1  0  0  0
 40 53  2  0  0  0
 40 58  1  0  0  0
 41110  1  0  0  0
 41111  1  0  0  0
 41112  1  0  0  0
 41 48  1  0  0  0
 42 43  1  0  0  0
 42 66  1  0  0  0
 42113  1  0  0  0
 42114  1  0  0  0
 43 44  1  0  0  0
 44115  1  0  0  0
 45 46  2  0  0  0
 45116  1  0  0  0
 46117  1  0  0  0
 47118  1  0  0  0
 47119  1  0  0  0
 48 56  1  0  0  0
 48 65  1  0  0  0
 48120  1  0  0  0
 49 50  1  0  0  0
 49 53  1  0  0  0
 49 64  1  0  0  0
 49121  1  0  0  0
 50 51  1  0  0  0
 50122  1  0  0  0
 50123  1  0  0  0
 51 52  1  0  0  0
 51124  1  0  0  0
 51125  1  0  0  0
 52126  1  0  0  0
 52127  1  0  0  0
 53 54  1  0  0  0
 54 55  2  0  0  0
 54128  1  0  0  0
 55 57  1  0  0  0
 55129  1  0  0  0
 56 69  2  0  0  0
 57 58  2  0  0  0
 57130  1  0  0  0
 58131  1  0  0  0
 59 60  1  0  0  0
 59 61  1  0  0  0
 59 62  1  0  0  0
 60132  1  0  0  0
 60133  1  0  0  0
 60134  1  0  0  0
 61135  1  0  0  0
 61136  1  0  0  0
 61137  1  0  0  0
 62138  1  0  0  0
 62139  1  0  0  0
 62140  1  0  0  0
 63 65  1  0  0  0
 63141  1  0  0  0
 63142  1  0  0  0
 63143  1  0  0  0
 64144  1  0  0  0
 65145  1  0  0  0
 68 82  1  0  0  0
 71 72  2  0  0  0
 71 74  1  0  0  0
 71146  1  0  0  0
 72 75  1  0  0  0
 72147  1  0  0  0
 73 74  2  0  0  0
 73 76  1  0  0  0
 73148  1  0  0  0
 74 80  1  0  0  0
 75 76  2  0  0  0
 75 84  1  0  0  0
 76 86  1  0  0  0
 77149  1  0  0  0
 77150  1  0  0  0
 77151  1  0  0  0
 77 83  1  0  0  0
 78 84  1  0  0  0
 78152  1  0  0  0
 78153  1  0  0  0
 78154  1  0  0  0
 79155  1  0  0  0
 79156  1  0  0  0
 79157  1  0  0  0
 79 85  1  0  0  0
 80 85  1  0  0  0
 80158  1  0  0  0
 80159  1  0  0  0
 81 83  1  0  0  0
 81 85  1  0  0  0
 81160  1  0  0  0
 81161  1  0  0  0
 82 83  1  0  0  0
 82162  1  0  0  0
 82163  1  0  0  0
 83164  1  0  0  0
 85165  1  0  0  0
M  CHG  1  85   1
M  ISO  4   1 100  68 101  82 101  84 100
M  END
> <chiral flag>
0

> <version>
0

> <s_m_source_file>
/data/baiqing/PycharmProjects/Reinvent-master-3.2/result/LINK_invent/BTK/process_docking_weight1_custom_product_contain_oxygen_bond_distance_aromatic_linkinvent_7_9_3/rearranged_h_0018.sdf

> <i_m_source_file_index>
12

> <r_mmod_Potential_Energy-OPLS-2005>
30.4121913909912

> <r_mmod_Stretch_Energy-OPLS-2005>
53.5220947265625

> <r_mmod_Bend_Energy-OPLS-2005>
113.099723815918

> <r_mmod_Torsional_Energy-OPLS-2005>
318.394439697266

> <r_mmod_Improper_Torsional_Energy-OPLS-2005>
2.85626006126404

> <r_mmod_Van_der_Waal_Energy-OPLS-2005>
168.749099731445

> <r_mmod_Electrostatic_Energy-OPLS-2005>
-199.002182006836

> <r_mmod_Solvation_Energy-OPLS-2005>
-439.711029052734

> <b_mmod_Minimization_Converged-OPLS-2005>
0

> <r_mmod_RMS_Derivative-OPLS-2005>
3.32038855552673

$$$$
12
                    3D
 Structure written by MMmdl.
162171  0  0  1  0            999 V2000
  -30.6782  -14.5830   20.4997 C   0  0  0  0  0  0
  -30.3767  -12.3719   19.4273 C   0  0  0  0  0  0
  -29.4811  -12.5471   18.1910 C   0  0  0  0  0  0
  -28.0016  -12.4055   18.5846 C   0  0  0  0  0  0
  -27.6252  -13.2554   19.8313 C   0  0  2  0  0  0
  -28.6595  -13.1219   20.9612 C   0  0  0  0  0  0
  -25.2358  -13.8212   20.5630 C   0  0  0  0  0  0
  -24.1710  -13.0394   20.9253 C   0  0  0  0  0  0
  -24.6390  -11.6911   20.8785 C   0  0  0  0  0  0
  -23.9124  -10.4255   21.0506 C   0  0  0  0  0  0
  -24.3688   -9.4124   21.9228 C   0  0  0  0  0  0
  -23.6415   -8.2123   22.0754 C   0  0  0  0  0  0
  -22.4357   -8.0226   21.3585 C   0  0  0  0  0  0
  -21.9992   -9.0184   20.4666 C   0  0  0  0  0  0
  -22.7337  -10.2069   20.3118 C   0  0  0  0  0  0
  -21.6844   -6.0703   22.5274 C   0  0  0  0  0  0
  -21.3962   -6.5578   23.8180 C   0  0  0  0  0  0
  -21.3714   -5.6745   24.9143 C   0  0  0  0  0  0
  -21.6107   -4.3004   24.7206 C   0  0  0  0  0  0
  -21.8811   -3.8120   23.4307 C   0  0  0  0  0  0
  -21.9163   -4.6945   22.3388 C   0  0  0  0  0  0
  -22.7729  -13.5171   21.2001 C   0  0  0  0  0  0
  -22.1653   -4.2157   21.0974 F   0  0  0  0  0  0
  -21.5708   -3.4491   25.7704 F   0  0  0  0  0  0
  -29.9797  -13.4102   20.4016 N   0  0  0  0  0  0
  -26.2812  -12.9492   20.3112 N   0  0  0  0  0  0
  -25.9289  -11.6597   20.5623 N   0  0  0  0  0  0
  -22.0401  -12.8114   22.0560 N   0  0  0  0  0  0
  -25.3860  -15.1904   20.3996 N   0  0  0  0  0  0
  -31.8422  -14.6574   20.1096 O   0  0  0  0  0  0
  -21.6671   -6.8873   21.4260 O   0  0  0  0  0  0
  -22.3356  -14.5483   20.6887 O   0  0  0  0  0  0
  -24.6290  -31.8588   23.1989 C   0  0  0  0  0  0
  -25.9102  -32.4777   23.8349 C   0  0  1  0  0  0
  -27.2142  -27.3075   20.0828 C   0  0  0  0  0  0
  -25.5926  -33.8595   24.2320 N   0  0  0  0  0  0
  -23.4210  -30.4756   21.5578 C   0  0  2  0  0  0
  -24.8607  -28.9372   20.1183 C   0  0  0  0  0  0
  -22.7428  -29.4544   22.4996 C   0  0  0  0  0  0
  -18.0239  -28.1375   22.8450 C   0  0  0  0  0  0
  -24.1488  -36.7291   23.2636 C   0  0  0  0  0  0
  -25.9609  -30.7737   21.3714 C   0  0  0  0  0  0
  -26.0323  -29.4009   20.7224 C   0  0  0  0  0  0
  -27.2202  -28.6002   20.6969 C   0  0  0  0  0  0
  -26.0047  -26.9033   19.4660 C   0  0  0  0  0  0
  -24.8452  -27.6921   19.4832 C   0  0  0  0  0  0
  -23.6259  -29.8115   20.1737 C   0  0  0  0  0  0
  -25.4121  -36.3083   24.0314 C   0  0  1  0  0  0
  -20.5835  -28.3653   23.1298 C   0  0  2  0  0  0
  -20.6726  -26.9393   22.5394 C   0  0  0  0  0  0
  -19.5753  -26.6367   21.5157 C   0  0  0  0  0  0
  -18.1923  -26.7905   22.1572 C   0  0  0  0  0  0
  -19.1495  -28.8826   23.2870 C   0  0  0  0  0  0
  -18.9448  -30.1413   23.8909 C   0  0  0  0  0  0
  -17.6466  -30.6597   24.0537 C   0  0  0  0  0  0
  -25.9045  -34.9446   23.5119 C   0  0  0  0  0  0
  -16.5336  -29.9113   23.6336 C   0  0  0  0  0  0
  -16.7222  -28.6515   23.0376 C   0  0  0  0  0  0
  -26.4523  -31.6555   25.0672 C   0  0  0  0  0  0
  -25.3779  -31.3680   26.1386 C   0  0  0  0  0  0
  -27.0368  -30.2997   24.6050 C   0  0  0  0  0  0
  -27.6152  -32.4240   25.7478 C   0  0  0  0  0  0
  -27.5570  -37.1791   24.8462 C   0  0  0  0  0  0
  -21.4138  -29.3043   22.3758 N   0  0  0  0  0  0
  -26.4302  -37.3769   23.9388 N   0  0  0  0  0  0
  -24.6933  -31.0494   22.1019 N   0  0  0  0  0  0
  -23.4091  -28.8007   23.3074 O   0  0  0  0  0  0
  -28.3328  -26.4418   20.0842 O   0  0  0  0  0  0
  -26.5611  -34.8919   22.4687 O   0  0  0  0  0  0
  -23.5450  -32.1466   23.7262 O   0  0  0  0  0  0
  -29.4922  -16.7264   19.7863 C   0  0  0  0  0  0
  -29.0851  -18.0756   19.9735 C   0  0  0  0  0  0
  -29.6660  -17.9097   22.3077 C   0  0  0  0  0  0
  -30.0158  -15.9310   20.8398 C   0  0  0  0  0  0
  -29.1658  -18.6964   21.2356 C   0  0  0  0  0  0
  -30.0910  -16.5553   22.1296 C   0  0  0  0  0  0
  -28.4321  -22.3848   20.3467 C   0  0  0  0  0  0
  -31.3138  -22.7465   20.4800 C   0  0  0  0  0  0
  -30.3923  -23.9516   20.7528 C   0  0  0  0  0  0
  -30.6895  -21.3704   20.8366 C   0  0  0  0  0  0
  -29.0702  -23.7851   19.9870 C   0  0  2  0  0  0
  -30.6355  -15.8264   23.3559 C   0  0  0  0  0  0
  -28.5897  -20.1320   21.4336 C   0  0  0  0  0  0
  -28.0217  -24.9879   20.0452 C   0  0  0  0  0  0
  -29.2099  -21.3222   20.7573 N   0  0  0  0  0  0
  -27.2009  -22.2775   20.2772 O   0  0  0  0  0  0
  -31.4368  -12.3985   19.1726 H   0  0  0  0  0  0
  -30.2116  -11.3816   19.8479 H   0  0  0  0  0  0
  -29.7397  -11.8254   17.4125 H   0  0  0  0  0  0
  -29.6424  -13.5401   17.7633 H   0  0  0  0  0  0
  -27.7948  -11.3547   18.7714 H   0  0  0  0  0  0
  -27.3808  -12.6887   17.7313 H   0  0  0  0  0  0
  -27.6199  -14.2952   19.4970 H   0  0  0  0  0  0
  -28.6425  -12.1112   21.3698 H   0  0  0  0  0  0
  -28.4157  -13.7948   21.7864 H   0  0  0  0  0  0
  -25.2827   -9.5522   22.4780 H   0  0  0  0  0  0
  -24.0098   -7.4457   22.7396 H   0  0  0  0  0  0
  -21.0918   -8.8717   19.9010 H   0  0  0  0  0  0
  -22.3855  -10.9570   19.6195 H   0  0  0  0  0  0
  -21.1882   -7.6072   23.9694 H   0  0  0  0  0  0
  -21.1633   -6.0461   25.9067 H   0  0  0  0  0  0
  -22.0586   -2.7609   23.2757 H   0  0  0  0  0  0
  -22.4059  -11.9891   22.5092 H   0  0  0  0  0  0
  -21.0982  -13.1056   22.2757 H   0  0  0  0  0  0
  -24.5832  -15.8146   20.4271 H   0  0  0  0  0  0
  -26.2276  -15.6366   20.0660 H   0  0  0  0  0  0
  -26.7101  -32.5445   23.1041 H   0  0  0  0  0  0
  -25.0081  -33.9838   25.0455 H   0  0  0  0  0  0
  -22.7274  -31.3008   21.4156 H   0  0  0  0  0  0
  -23.3726  -35.9633   23.3320 H   0  0  0  0  0  0
  -24.3578  -36.8914   22.2038 H   0  0  0  0  0  0
  -23.7246  -37.6514   23.6650 H   0  0  0  0  0  0
  -26.0779  -31.5151   20.5795 H   0  0  0  0  0  0
  -26.8512  -30.8392   21.9827 H   0  0  0  0  0  0
  -28.1187  -28.9526   21.1839 H   0  0  0  0  0  0
  -25.8779  -25.9649   18.9510 H   0  0  0  0  0  0
  -23.9486  -27.3347   19.0011 H   0  0  0  0  0  0
  -23.7277  -30.5886   19.4180 H   0  0  0  0  0  0
  -22.7513  -29.2305   19.8771 H   0  0  0  0  0  0
  -25.1284  -36.1969   25.0802 H   0  0  0  0  0  0
  -20.9926  -28.3164   24.1412 H   0  0  0  0  0  0
  -20.5589  -26.2235   23.3549 H   0  0  0  0  0  0
  -21.6613  -26.7410   22.1259 H   0  0  0  0  0  0
  -19.6974  -25.6288   21.1192 H   0  0  0  0  0  0
  -19.6752  -27.3158   20.6689 H   0  0  0  0  0  0
  -17.4178  -26.6570   21.3986 H   0  0  0  0  0  0
  -18.0421  -26.0064   22.9015 H   0  0  0  0  0  0
  -19.7941  -30.7191   24.2331 H   0  0  0  0  0  0
  -17.5048  -31.6287   24.5112 H   0  0  0  0  0  0
  -15.5360  -30.3045   23.7708 H   0  0  0  0  0  0
  -15.8580  -28.0825   22.7212 H   0  0  0  0  0  0
  -24.6006  -30.6968   25.7675 H   0  0  0  0  0  0
  -24.8882  -32.2847   26.4740 H   0  0  0  0  0  0
  -25.8106  -30.8915   27.0193 H   0  0  0  0  0  0
  -26.2889  -29.6745   24.1129 H   0  0  0  0  0  0
  -27.4190  -29.7233   25.4489 H   0  0  0  0  0  0
  -27.8718  -30.4332   23.9155 H   0  0  0  0  0  0
  -27.2837  -33.3596   26.2035 H   0  0  0  0  0  0
  -28.4022  -32.6709   25.0313 H   0  0  0  0  0  0
  -28.0706  -31.8296   26.5434 H   0  0  0  0  0  0
  -28.2596  -38.0077   24.7503 H   0  0  0  0  0  0
  -28.1069  -36.2623   24.6312 H   0  0  0  0  0  0
  -27.2274  -37.1424   25.8859 H   0  0  0  0  0  0
  -20.9298  -29.8795   21.7012 H   0  0  0  0  0  0
  -26.0183  -38.2841   24.1423 H   0  0  0  0  0  0
  -29.4231  -16.3105   18.7888 H   0  0  0  0  0  0
  -28.6806  -18.6498   19.1469 H   0  0  0  0  0  0
  -29.7328  -18.3399   23.3007 H   0  0  0  0  0  0
  -32.2552  -22.8481   21.0248 H   0  0  0  0  0  0
  -31.5907  -22.7449   19.4208 H   0  0  0  0  0  0
  -30.8728  -24.8682   20.3934 H   0  0  0  0  0  0
  -30.2303  -24.0502   21.8342 H   0  0  0  0  0  0
  -31.0141  -21.0996   21.8469 H   0  0  0  0  0  0
  -31.1248  -20.6024   20.1881 H   0  0  0  0  0  0
  -29.3723  -23.6995   18.9365 H   0  0  0  0  0  0
  -29.8865  -15.7688   24.1476 H   0  0  0  0  0  0
  -30.9565  -14.8090   23.1480 H   0  0  0  0  0  0
  -31.5024  -16.3481   23.7669 H   0  0  0  0  0  0
  -28.5459  -20.3648   22.4991 H   0  0  0  0  0  0
  -27.5451  -20.0447   21.1325 H   0  0  0  0  0  0
  -27.2982  -24.8103   20.8429 H   0  0  0  0  0  0
  -27.4830  -24.8043   19.1169 H   0  0  0  0  0  0
  1 25  1  0  0  0
  1 30  2  0  0  0
  1 74  1  0  0  0
  2  3  1  0  0  0
  2 25  1  0  0  0
  2 87  1  0  0  0
  2 88  1  0  0  0
  3  4  1  0  0  0
  3 89  1  0  0  0
  3 90  1  0  0  0
  4  5  1  0  0  0
  4 91  1  0  0  0
  4 92  1  0  0  0
  5  6  1  0  0  0
  5 26  1  0  0  0
  5 93  1  0  0  0
  6 25  1  0  0  0
  6 94  1  0  0  0
  6 95  1  0  0  0
  7  8  2  0  0  0
  7 26  1  0  0  0
  7 29  1  0  0  0
  8  9  1  0  0  0
  8 22  1  0  0  0
  9 10  1  0  0  0
  9 27  2  0  0  0
 10 11  2  0  0  0
 10 15  1  0  0  0
 11 12  1  0  0  0
 11 96  1  0  0  0
 12 13  2  0  0  0
 12 97  1  0  0  0
 13 14  1  0  0  0
 13 31  1  0  0  0
 14 15  2  0  0  0
 14 98  1  0  0  0
 15 99  1  0  0  0
 16 17  2  0  0  0
 16 21  1  0  0  0
 16 31  1  0  0  0
 17 18  1  0  0  0
 17100  1  0  0  0
 18 19  2  0  0  0
 18101  1  0  0  0
 19 20  1  0  0  0
 19 24  1  0  0  0
 20 21  2  0  0  0
 20102  1  0  0  0
 21 23  1  0  0  0
 22 28  1  0  0  0
 22 32  2  0  0  0
 26 27  1  0  0  0
 28103  1  0  0  0
 28104  1  0  0  0
 29105  1  0  0  0
 29106  1  0  0  0
 33 34  1  0  0  0
 33 66  1  0  0  0
 33 70  2  0  0  0
 34 36  1  0  0  0
 34 59  1  0  0  0
 34107  1  0  0  0
 35 44  2  0  0  0
 35 45  1  0  0  0
 35 68  1  0  0  0
 36 56  1  0  0  0
 36108  1  0  0  0
 37 39  1  0  0  0
 37 47  1  0  0  0
 37 66  1  0  0  0
 37109  1  0  0  0
 38 43  2  0  0  0
 38 46  1  0  0  0
 38 47  1  0  0  0
 39 64  1  0  0  0
 39 67  2  0  0  0
 40 52  1  0  0  0
 40 53  2  0  0  0
 40 58  1  0  0  0
 41110  1  0  0  0
 41111  1  0  0  0
 41112  1  0  0  0
 41 48  1  0  0  0
 42 43  1  0  0  0
 42 66  1  0  0  0
 42113  1  0  0  0
 42114  1  0  0  0
 43 44  1  0  0  0
 44115  1  0  0  0
 45 46  2  0  0  0
 45116  1  0  0  0
 46117  1  0  0  0
 47118  1  0  0  0
 47119  1  0  0  0
 48 56  1  0  0  0
 48 65  1  0  0  0
 48120  1  0  0  0
 49 50  1  0  0  0
 49 53  1  0  0  0
 49 64  1  0  0  0
 49121  1  0  0  0
 50 51  1  0  0  0
 50122  1  0  0  0
 50123  1  0  0  0
 51 52  1  0  0  0
 51124  1  0  0  0
 51125  1  0  0  0
 52126  1  0  0  0
 52127  1  0  0  0
 53 54  1  0  0  0
 54 55  2  0  0  0
 54128  1  0  0  0
 55 57  1  0  0  0
 55129  1  0  0  0
 56 69  2  0  0  0
 57 58  2  0  0  0
 57130  1  0  0  0
 58131  1  0  0  0
 59 60  1  0  0  0
 59 61  1  0  0  0
 59 62  1  0  0  0
 60132  1  0  0  0
 60133  1  0  0  0
 60134  1  0  0  0
 61135  1  0  0  0
 61136  1  0  0  0
 61137  1  0  0  0
 62138  1  0  0  0
 62139  1  0  0  0
 62140  1  0  0  0
 63 65  1  0  0  0
 63141  1  0  0  0
 63142  1  0  0  0
 63143  1  0  0  0
 64144  1  0  0  0
 65145  1  0  0  0
 68 84  1  0  0  0
 71 72  2  0  0  0
 71 74  1  0  0  0
 71146  1  0  0  0
 72 75  1  0  0  0
 72147  1  0  0  0
 73 75  2  0  0  0
 73 76  1  0  0  0
 73148  1  0  0  0
 74 76  2  0  0  0
 75 83  1  0  0  0
 76 82  1  0  0  0
 77 81  1  0  0  0
 77 85  1  0  0  0
 77 86  2  0  0  0
 78 79  1  0  0  0
 78 80  1  0  0  0
 78149  1  0  0  0
 78150  1  0  0  0
 79 81  1  0  0  0
 79151  1  0  0  0
 79152  1  0  0  0
 80 85  1  0  0  0
 80153  1  0  0  0
 80154  1  0  0  0
 81 84  1  0  0  0
 81155  1  0  0  0
 82156  1  0  0  0
 82157  1  0  0  0
 82158  1  0  0  0
 83 85  1  0  0  0
 83159  1  0  0  0
 83160  1  0  0  0
 84161  1  0  0  0
 84162  1  0  0  0
M  ISO  4   1 100  68 101  74 100  84 101
M  END
> <chiral flag>
0

> <version>
0

> <s_m_source_file>
/data/baiqing/PycharmProjects/Reinvent-master-3.2/result/LINK_invent/BTK/process_docking_weight1_custom_product_contain_oxygen_bond_distance_aromatic_linkinvent_7_9_3/rearranged_h_0018.sdf

> <i_m_source_file_index>
13

> <r_mmod_Potential_Energy-OPLS-2005>
226.001968383789

> <r_mmod_Stretch_Energy-OPLS-2005>
82.1417770385742

> <r_mmod_Bend_Energy-OPLS-2005>
155.601470947266

> <r_mmod_Torsional_Energy-OPLS-2005>
253.440124511719

> <r_mmod_Improper_Torsional_Energy-OPLS-2005>
7.51520538330078

> <r_mmod_Van_der_Waal_Energy-OPLS-2005>
158.045394897461

> <r_mmod_Electrostatic_Energy-OPLS-2005>
-274.775207519531

> <r_mmod_Solvation_Energy-OPLS-2005>
-203.586883544922

> <b_mmod_Minimization_Converged-OPLS-2005>
0

> <r_mmod_RMS_Derivative-OPLS-2005>
10.9409236907959

$$$$
13
                    3D
 Structure written by MMmdl.
163172  0  0  1  0            999 V2000
  -30.7326  -14.4891   20.5819 C   0  0  0  0  0  0
  -30.4167  -12.3287   19.4190 C   0  0  0  0  0  0
  -29.4861  -12.4990   18.2026 C   0  0  0  0  0  0
  -28.0118  -12.3381   18.6210 C   0  0  0  0  0  0
  -27.6497  -13.1936   19.8617 C   0  0  2  0  0  0
  -28.6986  -13.0248   20.9860 C   0  0  0  0  0  0
  -25.2561  -13.8112   20.5680 C   0  0  0  0  0  0
  -24.1815  -13.0410   20.9206 C   0  0  0  0  0  0
  -24.6358  -11.6873   20.8761 C   0  0  0  0  0  0
  -23.9024  -10.4273   21.0422 C   0  0  0  0  0  0
  -24.3591   -9.4193   21.9195 C   0  0  0  0  0  0
  -23.6274   -8.2224   22.0755 C   0  0  0  0  0  0
  -22.4258   -8.0263   21.3541 C   0  0  0  0  0  0
  -21.9887   -9.0234   20.4647 C   0  0  0  0  0  0
  -22.7205  -10.2118   20.3064 C   0  0  0  0  0  0
  -21.6846   -6.0722   22.5278 C   0  0  0  0  0  0
  -21.4008   -6.5633   23.8210 C   0  0  0  0  0  0
  -21.3656   -5.6787   24.9173 C   0  0  0  0  0  0
  -21.6044   -4.3048   24.7226 C   0  0  0  0  0  0
  -21.8822   -3.8138   23.4348 C   0  0  0  0  0  0
  -21.9193   -4.6951   22.3402 C   0  0  0  0  0  0
  -22.7845  -13.5229   21.1858 C   0  0  0  0  0  0
  -22.1663   -4.2138   21.0979 F   0  0  0  0  0  0
  -21.5631   -3.4534   25.7739 F   0  0  0  0  0  0
  -30.0259  -13.3309   20.4256 N   0  0  0  0  0  0
  -26.2962  -12.9245   20.3331 N   0  0  0  0  0  0
  -25.9274  -11.6425   20.5775 N   0  0  0  0  0  0
  -22.0472  -12.8235   22.0415 N   0  0  0  0  0  0
  -25.4262  -15.1830   20.4045 N   0  0  0  0  0  0
  -31.8632  -14.6350   20.1059 O   0  0  0  0  0  0
  -21.6629   -6.8859   21.4237 O   0  0  0  0  0  0
  -22.3547  -14.5537   20.6698 O   0  0  0  0  0  0
  -24.6150  -31.8673   23.2091 C   0  0  0  0  0  0
  -25.9043  -32.4823   23.8383 C   0  0  1  0  0  0
  -27.2319  -27.4302   20.1016 C   0  0  0  0  0  0
  -25.5897  -33.8620   24.2316 N   0  0  0  0  0  0
  -23.4029  -30.4911   21.5497 C   0  0  2  0  0  0
  -24.8491  -28.9562   20.1123 C   0  0  0  0  0  0
  -22.7409  -29.4662   22.4988 C   0  0  0  0  0  0
  -18.0271  -28.1385   22.8496 C   0  0  0  0  0  0
  -24.1485  -36.7309   23.2641 C   0  0  0  0  0  0
  -25.9313  -30.8342   21.3597 C   0  0  0  0  0  0
  -26.0100  -29.4690   20.7055 C   0  0  0  0  0  0
  -27.2070  -28.7158   20.6906 C   0  0  0  0  0  0
  -26.0558  -26.9340   19.4983 C   0  0  0  0  0  0
  -24.8676  -27.6892   19.5029 C   0  0  0  0  0  0
  -23.6105  -29.8224   20.1639 C   0  0  0  0  0  0
  -25.4107  -36.3111   24.0340 C   0  0  1  0  0  0
  -20.5862  -28.3668   23.1323 C   0  0  2  0  0  0
  -20.6766  -26.9405   22.5425 C   0  0  0  0  0  0
  -19.5750  -26.6387   21.5219 C   0  0  0  0  0  0
  -18.1921  -26.7934   22.1616 C   0  0  0  0  0  0
  -19.1522  -28.8840   23.2908 C   0  0  0  0  0  0
  -18.9452  -30.1445   23.8920 C   0  0  0  0  0  0
  -17.6456  -30.6592   24.0570 C   0  0  0  0  0  0
  -25.9034  -34.9480   23.5124 C   0  0  0  0  0  0
  -16.5347  -29.9097   23.6329 C   0  0  0  0  0  0
  -16.7262  -28.6513   23.0353 C   0  0  0  0  0  0
  -26.4469  -31.6608   25.0715 C   0  0  0  0  0  0
  -25.3732  -31.3722   26.1464 C   0  0  0  0  0  0
  -27.0296  -30.3052   24.6082 C   0  0  0  0  0  0
  -27.6045  -32.4328   25.7474 C   0  0  0  0  0  0
  -27.5585  -37.1804   24.8461 C   0  0  0  0  0  0
  -21.4137  -29.3034   22.3727 N   0  0  0  0  0  0
  -26.4292  -37.3797   23.9417 N   0  0  0  0  0  0
  -24.6683  -31.0778   22.0985 N   0  0  0  0  0  0
  -23.4180  -28.8206   23.3032 O   0  0  0  0  0  0
  -28.3904  -26.6803   20.1208 O   0  0  0  0  0  0
  -26.5595  -34.8936   22.4685 O   0  0  0  0  0  0
  -23.5345  -32.1420   23.7494 O   0  0  0  0  0  0
  -29.9548  -18.4028   19.6425 C   0  0  0  0  0  0
  -29.9541  -19.8056   19.4690 C   0  0  0  0  0  0
  -28.4858  -18.6507   21.5545 C   0  0  0  0  0  0
  -29.1937  -17.8073   20.6702 C   0  0  0  0  0  0
  -29.1942  -20.6552   20.3106 C   0  0  0  0  0  0
  -28.4895  -20.0557   21.3908 C   0  0  0  0  0  0
  -28.0742  -22.8709   19.7862 C   0  0  0  0  0  0
  -26.7925  -22.4805   19.6823 C   0  0  0  0  0  0
  -30.0650  -24.0829   19.2176 C   0  0  0  0  0  0
  -30.4260  -22.7672   19.9256 C   0  0  0  0  0  0
  -28.5588  -24.2794   19.4559 C   0  0  2  0  0  0
  -30.9844  -16.1798   22.3102 C   0  0  0  0  0  0
  -29.0461  -16.2801   20.7596 C   0  0  0  0  0  0
  -28.2536  -25.3159   20.5681 C   0  0  0  0  0  0
  -29.1657  -22.0533   20.0650 N   0  0  0  0  0  0
  -30.1670  -15.4860   21.3114 N   0  0  0  0  0  0
  -27.6303  -21.0104   22.5514 Cl  0  0  0  0  0  0
  -31.4593  -12.4236   19.1100 H   0  0  0  0  0  0
  -30.3247  -11.3246   19.8358 H   0  0  0  0  0  0
  -29.7363  -11.7681   17.4322 H   0  0  0  0  0  0
  -29.6383  -13.4818   17.7533 H   0  0  0  0  0  0
  -27.8409  -11.2825   18.8366 H   0  0  0  0  0  0
  -27.3545  -12.5869   17.7871 H   0  0  0  0  0  0
  -27.6604  -14.2225   19.5182 H   0  0  0  0  0  0
  -28.6893  -12.0008   21.3619 H   0  0  0  0  0  0
  -28.4531  -13.6513   21.8444 H   0  0  0  0  0  0
  -25.2736   -9.5673   22.4768 H   0  0  0  0  0  0
  -23.9985   -7.4614   22.7469 H   0  0  0  0  0  0
  -21.0819   -8.8742   19.8952 H   0  0  0  0  0  0
  -22.3660  -10.9656   19.6173 H   0  0  0  0  0  0
  -21.1996   -7.6143   23.9708 H   0  0  0  0  0  0
  -21.1479   -6.0520   25.9075 H   0  0  0  0  0  0
  -22.0607   -2.7601   23.2848 H   0  0  0  0  0  0
  -22.4067  -11.9893   22.4811 H   0  0  0  0  0  0
  -21.1096  -13.1278   22.2612 H   0  0  0  0  0  0
  -24.6519  -15.8301   20.5062 H   0  0  0  0  0  0
  -26.2617  -15.6219   20.0417 H   0  0  0  0  0  0
  -26.7116  -32.5531   23.1150 H   0  0  0  0  0  0
  -25.0066  -33.9781   25.0473 H   0  0  0  0  0  0
  -22.6919  -31.3080   21.4104 H   0  0  0  0  0  0
  -23.3756  -35.9632   23.3297 H   0  0  0  0  0  0
  -24.3584  -36.8924   22.2056 H   0  0  0  0  0  0
  -23.7221  -37.6508   23.6655 H   0  0  0  0  0  0
  -26.0406  -31.6012   20.5915 H   0  0  0  0  0  0
  -26.8201  -30.8881   21.9766 H   0  0  0  0  0  0
  -28.1044  -29.1065   21.1501 H   0  0  0  0  0  0
  -26.0527  -25.9617   19.0261 H   0  0  0  0  0  0
  -23.9764  -27.2900   19.0382 H   0  0  0  0  0  0
  -23.7163  -30.5972   19.4036 H   0  0  0  0  0  0
  -22.7344  -29.2412   19.8702 H   0  0  0  0  0  0
  -25.1285  -36.1970   25.0831 H   0  0  0  0  0  0
  -20.9957  -28.3238   24.1443 H   0  0  0  0  0  0
  -20.5667  -26.2277   23.3613 H   0  0  0  0  0  0
  -21.6638  -26.7454   22.1217 H   0  0  0  0  0  0
  -19.6914  -25.6300   21.1241 H   0  0  0  0  0  0
  -19.6706  -27.3205   20.6758 H   0  0  0  0  0  0
  -17.4204  -26.6706   21.4003 H   0  0  0  0  0  0
  -18.0305  -26.0064   22.8994 H   0  0  0  0  0  0
  -19.7930  -30.7252   24.2300 H   0  0  0  0  0  0
  -17.5017  -31.6278   24.5163 H   0  0  0  0  0  0
  -15.5348  -30.3012   23.7645 H   0  0  0  0  0  0
  -15.8658  -28.0841   22.7060 H   0  0  0  0  0  0
  -24.5925  -30.7039   25.7812 H   0  0  0  0  0  0
  -24.8901  -32.2882   26.4881 H   0  0  0  0  0  0
  -25.8089  -30.8931   27.0240 H   0  0  0  0  0  0
  -26.2837  -29.6814   24.1145 H   0  0  0  0  0  0
  -27.4082  -29.7285   25.4530 H   0  0  0  0  0  0
  -27.8659  -30.4376   23.9214 H   0  0  0  0  0  0
  -27.2670  -33.3629   26.2059 H   0  0  0  0  0  0
  -28.3855  -32.6882   25.0299 H   0  0  0  0  0  0
  -28.0712  -31.8443   26.5385 H   0  0  0  0  0  0
  -28.2597  -38.0109   24.7531 H   0  0  0  0  0  0
  -28.1086  -36.2643   24.6252 H   0  0  0  0  0  0
  -27.2312  -37.1408   25.8865 H   0  0  0  0  0  0
  -20.9292  -29.8753   21.6950 H   0  0  0  0  0  0
  -26.0180  -38.2869   24.1440 H   0  0  0  0  0  0
  -30.5084  -17.7825   18.9510 H   0  0  0  0  0  0
  -30.5109  -20.2210   18.6419 H   0  0  0  0  0  0
  -27.9086  -18.2196   22.3590 H   0  0  0  0  0  0
  -26.0186  -23.1837   19.4079 H   0  0  0  0  0  0
  -26.4861  -21.4611   19.8656 H   0  0  0  0  0  0
  -30.2435  -23.9715   18.1471 H   0  0  0  0  0  0
  -30.6705  -24.9236   19.5588 H   0  0  0  0  0  0
  -30.8259  -22.9666   20.9208 H   0  0  0  0  0  0
  -31.1832  -22.2142   19.3692 H   0  0  0  0  0  0
  -28.0784  -24.6015   18.5306 H   0  0  0  0  0  0
  -30.3578  -16.7024   23.0333 H   0  0  0  0  0  0
  -31.6441  -16.9076   21.8355 H   0  0  0  0  0  0
  -31.6063  -15.4773   22.8679 H   0  0  0  0  0  0
  -28.8462  -15.9649   19.7356 H   0  0  0  0  0  0
  -28.1485  -16.0413   21.3309 H   0  0  0  0  0  0
  -28.9382  -25.1637   21.4034 H   0  0  0  0  0  0
  -27.2624  -25.1304   20.9868 H   0  0  0  0  0  0
  1 25  1  0  0  0
  1 30  2  0  0  0
  1 86  1  0  0  0
  2  3  1  0  0  0
  2 25  1  0  0  0
  2 88  1  0  0  0
  2 89  1  0  0  0
  3  4  1  0  0  0
  3 90  1  0  0  0
  3 91  1  0  0  0
  4  5  1  0  0  0
  4 92  1  0  0  0
  4 93  1  0  0  0
  5  6  1  0  0  0
  5 26  1  0  0  0
  5 94  1  0  0  0
  6 25  1  0  0  0
  6 95  1  0  0  0
  6 96  1  0  0  0
  7  8  2  0  0  0
  7 26  1  0  0  0
  7 29  1  0  0  0
  8  9  1  0  0  0
  8 22  1  0  0  0
  9 10  1  0  0  0
  9 27  2  0  0  0
 10 11  2  0  0  0
 10 15  1  0  0  0
 11 12  1  0  0  0
 11 97  1  0  0  0
 12 13  2  0  0  0
 12 98  1  0  0  0
 13 14  1  0  0  0
 13 31  1  0  0  0
 14 15  2  0  0  0
 14 99  1  0  0  0
 15100  1  0  0  0
 16 17  2  0  0  0
 16 21  1  0  0  0
 16 31  1  0  0  0
 17 18  1  0  0  0
 17101  1  0  0  0
 18 19  2  0  0  0
 18102  1  0  0  0
 19 20  1  0  0  0
 19 24  1  0  0  0
 20 21  2  0  0  0
 20103  1  0  0  0
 21 23  1  0  0  0
 22 28  1  0  0  0
 22 32  2  0  0  0
 26 27  1  0  0  0
 28104  1  0  0  0
 28105  1  0  0  0
 29106  1  0  0  0
 29107  1  0  0  0
 33 34  1  0  0  0
 33 66  1  0  0  0
 33 70  2  0  0  0
 34 36  1  0  0  0
 34 59  1  0  0  0
 34108  1  0  0  0
 35 44  2  0  0  0
 35 45  1  0  0  0
 35 68  1  0  0  0
 36 56  1  0  0  0
 36109  1  0  0  0
 37 39  1  0  0  0
 37 47  1  0  0  0
 37 66  1  0  0  0
 37110  1  0  0  0
 38 43  2  0  0  0
 38 46  1  0  0  0
 38 47  1  0  0  0
 39 64  1  0  0  0
 39 67  2  0  0  0
 40 52  1  0  0  0
 40 53  2  0  0  0
 40 58  1  0  0  0
 41111  1  0  0  0
 41112  1  0  0  0
 41113  1  0  0  0
 41 48  1  0  0  0
 42 43  1  0  0  0
 42 66  1  0  0  0
 42114  1  0  0  0
 42115  1  0  0  0
 43 44  1  0  0  0
 44116  1  0  0  0
 45 46  2  0  0  0
 45117  1  0  0  0
 46118  1  0  0  0
 47119  1  0  0  0
 47120  1  0  0  0
 48 56  1  0  0  0
 48 65  1  0  0  0
 48121  1  0  0  0
 49 50  1  0  0  0
 49 53  1  0  0  0
 49 64  1  0  0  0
 49122  1  0  0  0
 50 51  1  0  0  0
 50123  1  0  0  0
 50124  1  0  0  0
 51 52  1  0  0  0
 51125  1  0  0  0
 51126  1  0  0  0
 52127  1  0  0  0
 52128  1  0  0  0
 53 54  1  0  0  0
 54 55  2  0  0  0
 54129  1  0  0  0
 55 57  1  0  0  0
 55130  1  0  0  0
 56 69  2  0  0  0
 57 58  2  0  0  0
 57131  1  0  0  0
 58132  1  0  0  0
 59 60  1  0  0  0
 59 61  1  0  0  0
 59 62  1  0  0  0
 60133  1  0  0  0
 60134  1  0  0  0
 60135  1  0  0  0
 61136  1  0  0  0
 61137  1  0  0  0
 61138  1  0  0  0
 62139  1  0  0  0
 62140  1  0  0  0
 62141  1  0  0  0
 63 65  1  0  0  0
 63142  1  0  0  0
 63143  1  0  0  0
 63144  1  0  0  0
 64145  1  0  0  0
 65146  1  0  0  0
 68 84  1  0  0  0
 71 72  2  0  0  0
 71 74  1  0  0  0
 71147  1  0  0  0
 72 75  1  0  0  0
 72148  1  0  0  0
 73 74  2  0  0  0
 73 76  1  0  0  0
 73149  1  0  0  0
 74 83  1  0  0  0
 75 76  2  0  0  0
 75 85  1  0  0  0
 76 87  1  0  0  0
 77 78  2  0  0  0
 77 81  1  0  0  0
 77 85  1  0  0  0
 78150  1  0  0  0
 78151  1  0  0  0
 79 80  1  0  0  0
 79 81  1  0  0  0
 79152  1  0  0  0
 79153  1  0  0  0
 80 85  1  0  0  0
 80154  1  0  0  0
 80155  1  0  0  0
 81 84  1  0  0  0
 81156  1  0  0  0
 82 86  1  0  0  0
 82157  1  0  0  0
 82158  1  0  0  0
 82159  1  0  0  0
 83 86  1  0  0  0
 83160  1  0  0  0
 83161  1  0  0  0
 84162  1  0  0  0
 84163  1  0  0  0
M  ISO  4   1 100  68 101  84 101  86 100
M  END
> <chiral flag>
0

> <version>
0

> <s_m_source_file>
/data/baiqing/PycharmProjects/Reinvent-master-3.2/result/LINK_invent/BTK/process_docking_weight1_custom_product_contain_oxygen_bond_distance_aromatic_linkinvent_7_9_3/rearranged_h_0018.sdf

> <i_m_source_file_index>
14

> <r_mmod_Potential_Energy-OPLS-2005>
181.360717773438

> <r_mmod_Stretch_Energy-OPLS-2005>
41.1733016967773

> <r_mmod_Bend_Energy-OPLS-2005>
131.482879638672

> <r_mmod_Torsional_Energy-OPLS-2005>
335.044158935547

> <r_mmod_Improper_Torsional_Energy-OPLS-2005>
4.21324586868286

> <r_mmod_Van_der_Waal_Energy-OPLS-2005>
145.348388671875

> <r_mmod_Electrostatic_Energy-OPLS-2005>
-295.299255371094

> <r_mmod_Solvation_Energy-OPLS-2005>
-196.339447021484

> <b_mmod_Minimization_Converged-OPLS-2005>
0

> <r_mmod_RMS_Derivative-OPLS-2005>
0.673745274543762

$$$$
14
                    3D
 Structure written by MMmdl.
164173  0  0  1  0            999 V2000
  -30.7459  -14.4606   20.6051 C   0  0  0  0  0  0
  -30.4147  -12.3219   19.4111 C   0  0  0  0  0  0
  -29.4840  -12.5148   18.1989 C   0  0  0  0  0  0
  -28.0108  -12.3501   18.6177 C   0  0  0  0  0  0
  -27.6526  -13.1970   19.8656 C   0  0  2  0  0  0
  -28.7002  -13.0106   20.9878 C   0  0  0  0  0  0
  -25.2569  -13.8131   20.5682 C   0  0  0  0  0  0
  -24.1821  -13.0422   20.9201 C   0  0  0  0  0  0
  -24.6367  -11.6883   20.8755 C   0  0  0  0  0  0
  -23.9037  -10.4276   21.0415 C   0  0  0  0  0  0
  -24.3601   -9.4197   21.9190 C   0  0  0  0  0  0
  -23.6282   -8.2230   22.0751 C   0  0  0  0  0  0
  -22.4268   -8.0268   21.3542 C   0  0  0  0  0  0
  -21.9897   -9.0240   20.4647 C   0  0  0  0  0  0
  -22.7216  -10.2120   20.3058 C   0  0  0  0  0  0
  -21.6847   -6.0728   22.5283 C   0  0  0  0  0  0
  -21.4001   -6.5638   23.8217 C   0  0  0  0  0  0
  -21.3654   -5.6788   24.9180 C   0  0  0  0  0  0
  -21.6043   -4.3051   24.7231 C   0  0  0  0  0  0
  -21.8819   -3.8141   23.4354 C   0  0  0  0  0  0
  -21.9192   -4.6955   22.3408 C   0  0  0  0  0  0
  -22.7848  -13.5238   21.1865 C   0  0  0  0  0  0
  -22.1661   -4.2143   21.0988 F   0  0  0  0  0  0
  -21.5636   -3.4531   25.7741 F   0  0  0  0  0  0
  -30.0308  -13.3115   20.4320 N   0  0  0  0  0  0
  -26.2979  -12.9264   20.3345 N   0  0  0  0  0  0
  -25.9287  -11.6443   20.5773 N   0  0  0  0  0  0
  -22.0473  -12.8228   22.0407 N   0  0  0  0  0  0
  -25.4305  -15.1840   20.4051 N   0  0  0  0  0  0
  -31.8673  -14.6169   20.1109 O   0  0  0  0  0  0
  -21.6633   -6.8866   21.4242 O   0  0  0  0  0  0
  -22.3548  -14.5554   20.6721 O   0  0  0  0  0  0
  -24.6139  -31.8690   23.2117 C   0  0  0  0  0  0
  -25.9039  -32.4824   23.8403 C   0  0  1  0  0  0
  -27.2258  -27.4351   20.0953 C   0  0  0  0  0  0
  -25.5921  -33.8623   24.2340 N   0  0  0  0  0  0
  -23.4005  -30.4952   21.5522 C   0  0  2  0  0  0
  -24.8451  -28.9679   20.1107 C   0  0  0  0  0  0
  -22.7412  -29.4660   22.4988 C   0  0  0  0  0  0
  -18.0271  -28.1365   22.8490 C   0  0  0  0  0  0
  -24.1483  -36.7295   23.2636 C   0  0  0  0  0  0
  -25.9302  -30.8369   21.3632 C   0  0  0  0  0  0
  -26.0074  -29.4739   20.7062 C   0  0  0  0  0  0
  -27.2019  -28.7169   20.6928 C   0  0  0  0  0  0
  -26.0450  -26.9535   19.4803 C   0  0  0  0  0  0
  -24.8595  -27.7074   19.4930 C   0  0  0  0  0  0
  -23.6070  -29.8329   20.1648 C   0  0  0  0  0  0
  -25.4101  -36.3108   24.0351 C   0  0  1  0  0  0
  -20.5862  -28.3647   23.1319 C   0  0  2  0  0  0
  -20.6755  -26.9382   22.5425 C   0  0  0  0  0  0
  -19.5748  -26.6375   21.5206 C   0  0  0  0  0  0
  -18.1917  -26.7924   22.1594 C   0  0  0  0  0  0
  -19.1522  -28.8819   23.2905 C   0  0  0  0  0  0
  -18.9452  -30.1428   23.8912 C   0  0  0  0  0  0
  -17.6456  -30.6571   24.0561 C   0  0  0  0  0  0
  -25.9038  -34.9480   23.5135 C   0  0  0  0  0  0
  -16.5345  -29.9073   23.6327 C   0  0  0  0  0  0
  -16.7261  -28.6491   23.0348 C   0  0  0  0  0  0
  -26.4479  -31.6595   25.0719 C   0  0  0  0  0  0
  -25.3765  -31.3696   26.1483 C   0  0  0  0  0  0
  -27.0297  -30.3039   24.6066 C   0  0  0  0  0  0
  -27.6064  -32.4309   25.7476 C   0  0  0  0  0  0
  -27.5588  -37.1789   24.8452 C   0  0  0  0  0  0
  -21.4139  -29.3020   22.3731 N   0  0  0  0  0  0
  -26.4273  -37.3804   23.9439 N   0  0  0  0  0  0
  -24.6666  -31.0809   22.1007 N   0  0  0  0  0  0
  -23.4200  -28.8195   23.3013 O   0  0  0  0  0  0
  -28.3800  -26.6750   20.1383 O   0  0  0  0  0  0
  -26.5584  -34.8935   22.4684 O   0  0  0  0  0  0
  -23.5338  -32.1430   23.7528 O   0  0  0  0  0  0
  -28.8801  -18.6250   21.8516 C   0  0  0  0  0  0
  -28.9987  -20.0300   21.7997 C   0  0  0  0  0  0
  -30.1356  -19.8452   19.6720 C   0  0  0  0  0  0
  -29.3726  -17.8094   20.8102 C   0  0  0  0  0  0
  -30.0215  -18.4363   19.7169 C   0  0  0  0  0  0
  -29.6087  -20.6757   20.6936 C   0  0  0  0  0  0
  -29.0066  -23.0632   21.2293 C   0  0  0  0  0  0
  -30.5257  -24.2571   19.8054 C   0  0  0  0  0  0
  -30.5788  -22.7406   19.5714 C   0  0  0  0  0  0
  -29.3825  -24.4850   20.7948 C   0  0  1  0  0  0
  -30.5824  -17.6283   18.5593 C   0  0  0  0  0  0
  -31.0286  -16.0291   22.4364 C   0  0  0  0  0  0
  -29.1224  -16.2911   20.8607 C   0  0  0  0  0  0
  -28.1772  -25.2511   20.2025 C   0  0  0  0  0  0
  -29.7169  -22.1153   20.5760 N   0  0  0  0  0  0
  -30.2027  -15.4265   21.3861 N   0  0  0  0  0  0
  -28.1432  -22.8741   22.0923 O   0  0  0  0  0  0
  -31.4571  -12.4157   19.1015 H   0  0  0  0  0  0
  -30.3192  -11.3119   19.8128 H   0  0  0  0  0  0
  -29.7326  -11.8011   17.4121 H   0  0  0  0  0  0
  -29.6351  -13.5072   17.7703 H   0  0  0  0  0  0
  -27.8386  -11.2925   18.8237 H   0  0  0  0  0  0
  -27.3526  -12.6075   17.7872 H   0  0  0  0  0  0
  -27.6714  -14.2311   19.5355 H   0  0  0  0  0  0
  -28.6839  -11.9834   21.3545 H   0  0  0  0  0  0
  -28.4550  -13.6291   21.8518 H   0  0  0  0  0  0
  -25.2746   -9.5670   22.4763 H   0  0  0  0  0  0
  -23.9994   -7.4612   22.7460 H   0  0  0  0  0  0
  -21.0831   -8.8747   19.8952 H   0  0  0  0  0  0
  -22.3680  -10.9653   19.6161 H   0  0  0  0  0  0
  -21.1978   -7.6146   23.9715 H   0  0  0  0  0  0
  -21.1483   -6.0522   25.9082 H   0  0  0  0  0  0
  -22.0603   -2.7602   23.2848 H   0  0  0  0  0  0
  -22.4063  -11.9871   22.4775 H   0  0  0  0  0  0
  -21.1092  -13.1259   22.2611 H   0  0  0  0  0  0
  -24.6630  -15.8385   20.5100 H   0  0  0  0  0  0
  -26.2764  -15.6199   20.0610 H   0  0  0  0  0  0
  -26.7108  -32.5539   23.1169 H   0  0  0  0  0  0
  -25.0148  -33.9791   25.0537 H   0  0  0  0  0  0
  -22.6877  -31.3116   21.4167 H   0  0  0  0  0  0
  -23.3774  -35.9594   23.3258 H   0  0  0  0  0  0
  -24.3596  -36.8935   22.2057 H   0  0  0  0  0  0
  -23.7191  -37.6473   23.6664 H   0  0  0  0  0  0
  -26.0447  -31.6054   20.5980 H   0  0  0  0  0  0
  -26.8175  -30.8856   21.9831 H   0  0  0  0  0  0
  -28.0961  -29.1024   21.1630 H   0  0  0  0  0  0
  -26.0179  -25.9927   18.9873 H   0  0  0  0  0  0
  -23.9688  -27.3142   19.0235 H   0  0  0  0  0  0
  -23.7121  -30.6096   19.4063 H   0  0  0  0  0  0
  -22.7310  -29.2519   19.8699 H   0  0  0  0  0  0
  -25.1269  -36.1963   25.0842 H   0  0  0  0  0  0
  -20.9954  -28.3198   24.1443 H   0  0  0  0  0  0
  -20.5616  -26.2262   23.3613 H   0  0  0  0  0  0
  -21.6631  -26.7400   22.1239 H   0  0  0  0  0  0
  -19.6907  -25.6291   21.1212 H   0  0  0  0  0  0
  -19.6709  -27.3197   20.6754 H   0  0  0  0  0  0
  -17.4211  -26.6713   21.3967 H   0  0  0  0  0  0
  -18.0277  -26.0036   22.8951 H   0  0  0  0  0  0
  -19.7932  -30.7234   24.2282 H   0  0  0  0  0  0
  -17.5018  -31.6254   24.5154 H   0  0  0  0  0  0
  -15.5347  -30.2979   23.7654 H   0  0  0  0  0  0
  -15.8660  -28.0817   22.7055 H   0  0  0  0  0  0
  -24.6012  -30.6930   25.7866 H   0  0  0  0  0  0
  -24.8870  -32.2836   26.4855 H   0  0  0  0  0  0
  -25.8163  -30.8983   27.0281 H   0  0  0  0  0  0
  -26.2820  -29.6803   24.1152 H   0  0  0  0  0  0
  -27.4113  -29.7266   25.4495 H   0  0  0  0  0  0
  -27.8639  -30.4358   23.9172 H   0  0  0  0  0  0
  -27.2701  -33.3623   26.2044 H   0  0  0  0  0  0
  -28.3888  -32.6836   25.0307 H   0  0  0  0  0  0
  -28.0715  -31.8433   26.5399 H   0  0  0  0  0  0
  -28.2566  -38.0127   24.7571 H   0  0  0  0  0  0
  -28.1123  -36.2670   24.6167 H   0  0  0  0  0  0
  -27.2343  -37.1297   25.8861 H   0  0  0  0  0  0
  -20.9287  -29.8780   21.6994 H   0  0  0  0  0  0
  -26.0157  -38.2868   24.1497 H   0  0  0  0  0  0
  -28.3844  -18.1723   22.6992 H   0  0  0  0  0  0
  -28.6003  -20.5903   22.6321 H   0  0  0  0  0  0
  -30.6213  -20.2843   18.8130 H   0  0  0  0  0  0
  -30.3789  -24.7978   18.8690 H   0  0  0  0  0  0
  -31.4658  -24.6079   20.2333 H   0  0  0  0  0  0
  -31.6016  -22.3676   19.6422 H   0  0  0  0  0  0
  -30.1999  -22.5087   18.5749 H   0  0  0  0  0  0
  -29.7445  -25.0117   21.6786 H   0  0  0  0  0  0
  -31.0883  -18.2657   17.8338 H   0  0  0  0  0  0
  -29.7883  -17.0984   18.0334 H   0  0  0  0  0  0
  -31.3130  -16.9046   18.9150 H   0  0  0  0  0  0
  -30.4035  -16.4835   23.2054 H   0  0  0  0  0  0
  -31.6837  -16.7981   22.0241 H   0  0  0  0  0  0
  -31.6559  -15.2833   22.9279 H   0  0  0  0  0  0
  -28.8533  -15.9889   19.8499 H   0  0  0  0  0  0
  -28.2302  -16.1022   21.4589 H   0  0  0  0  0  0
  -27.3033  -25.0442   20.8246 H   0  0  0  0  0  0
  -27.9540  -24.8653   19.2058 H   0  0  0  0  0  0
  1 25  1  0  0  0
  1 30  2  0  0  0
  1 86  1  0  0  0
  2  3  1  0  0  0
  2 25  1  0  0  0
  2 88  1  0  0  0
  2 89  1  0  0  0
  3  4  1  0  0  0
  3 90  1  0  0  0
  3 91  1  0  0  0
  4  5  1  0  0  0
  4 92  1  0  0  0
  4 93  1  0  0  0
  5  6  1  0  0  0
  5 26  1  0  0  0
  5 94  1  0  0  0
  6 25  1  0  0  0
  6 95  1  0  0  0
  6 96  1  0  0  0
  7  8  2  0  0  0
  7 26  1  0  0  0
  7 29  1  0  0  0
  8  9  1  0  0  0
  8 22  1  0  0  0
  9 10  1  0  0  0
  9 27  2  0  0  0
 10 11  2  0  0  0
 10 15  1  0  0  0
 11 12  1  0  0  0
 11 97  1  0  0  0
 12 13  2  0  0  0
 12 98  1  0  0  0
 13 14  1  0  0  0
 13 31  1  0  0  0
 14 15  2  0  0  0
 14 99  1  0  0  0
 15100  1  0  0  0
 16 17  2  0  0  0
 16 21  1  0  0  0
 16 31  1  0  0  0
 17 18  1  0  0  0
 17101  1  0  0  0
 18 19  2  0  0  0
 18102  1  0  0  0
 19 20  1  0  0  0
 19 24  1  0  0  0
 20 21  2  0  0  0
 20103  1  0  0  0
 21 23  1  0  0  0
 22 28  1  0  0  0
 22 32  2  0  0  0
 26 27  1  0  0  0
 28104  1  0  0  0
 28105  1  0  0  0
 29106  1  0  0  0
 29107  1  0  0  0
 33 34  1  0  0  0
 33 66  1  0  0  0
 33 70  2  0  0  0
 34 36  1  0  0  0
 34 59  1  0  0  0
 34108  1  0  0  0
 35 44  2  0  0  0
 35 45  1  0  0  0
 35 68  1  0  0  0
 36 56  1  0  0  0
 36109  1  0  0  0
 37 39  1  0  0  0
 37 47  1  0  0  0
 37 66  1  0  0  0
 37110  1  0  0  0
 38 43  2  0  0  0
 38 46  1  0  0  0
 38 47  1  0  0  0
 39 64  1  0  0  0
 39 67  2  0  0  0
 40 52  1  0  0  0
 40 53  2  0  0  0
 40 58  1  0  0  0
 41111  1  0  0  0
 41112  1  0  0  0
 41113  1  0  0  0
 41 48  1  0  0  0
 42 43  1  0  0  0
 42 66  1  0  0  0
 42114  1  0  0  0
 42115  1  0  0  0
 43 44  1  0  0  0
 44116  1  0  0  0
 45 46  2  0  0  0
 45117  1  0  0  0
 46118  1  0  0  0
 47119  1  0  0  0
 47120  1  0  0  0
 48 56  1  0  0  0
 48 65  1  0  0  0
 48121  1  0  0  0
 49 50  1  0  0  0
 49 53  1  0  0  0
 49 64  1  0  0  0
 49122  1  0  0  0
 50 51  1  0  0  0
 50123  1  0  0  0
 50124  1  0  0  0
 51 52  1  0  0  0
 51125  1  0  0  0
 51126  1  0  0  0
 52127  1  0  0  0
 52128  1  0  0  0
 53 54  1  0  0  0
 54 55  2  0  0  0
 54129  1  0  0  0
 55 57  1  0  0  0
 55130  1  0  0  0
 56 69  2  0  0  0
 57 58  2  0  0  0
 57131  1  0  0  0
 58132  1  0  0  0
 59 60  1  0  0  0
 59 61  1  0  0  0
 59 62  1  0  0  0
 60133  1  0  0  0
 60134  1  0  0  0
 60135  1  0  0  0
 61136  1  0  0  0
 61137  1  0  0  0
 61138  1  0  0  0
 62139  1  0  0  0
 62140  1  0  0  0
 62141  1  0  0  0
 63 65  1  0  0  0
 63142  1  0  0  0
 63143  1  0  0  0
 63144  1  0  0  0
 64145  1  0  0  0
 65146  1  0  0  0
 68 84  1  0  0  0
 71 72  2  0  0  0
 71 74  1  0  0  0
 71147  1  0  0  0
 72 76  1  0  0  0
 72148  1  0  0  0
 73 75  1  0  0  0
 73 76  2  0  0  0
 73149  1  0  0  0
 74 75  2  0  0  0
 74 83  1  0  0  0
 75 81  1  0  0  0
 76 85  1  0  0  0
 77 80  1  0  0  0
 77 85  1  0  0  0
 77 87  2  0  0  0
 78 79  1  0  0  0
 78 80  1  0  0  0
 78150  1  0  0  0
 78151  1  0  0  0
 79 85  1  0  0  0
 79152  1  0  0  0
 79153  1  0  0  0
 80 84  1  0  0  0
 80154  1  0  0  0
 81155  1  0  0  0
 81156  1  0  0  0
 81157  1  0  0  0
 82 86  1  0  0  0
 82158  1  0  0  0
 82159  1  0  0  0
 82160  1  0  0  0
 83 86  1  0  0  0
 83161  1  0  0  0
 83162  1  0  0  0
 84163  1  0  0  0
 84164  1  0  0  0
M  ISO  4   1 100  68 101  84 101  86 100
M  END
> <chiral flag>
0

> <version>
0

> <s_m_source_file>
/data/baiqing/PycharmProjects/Reinvent-master-3.2/result/LINK_invent/BTK/process_docking_weight1_custom_product_contain_oxygen_bond_distance_aromatic_linkinvent_7_9_3/rearranged_h_0018.sdf

> <i_m_source_file_index>
15

> <r_mmod_Potential_Energy-OPLS-2005>
165.526870727539

> <r_mmod_Stretch_Energy-OPLS-2005>
42.540340423584

> <r_mmod_Bend_Energy-OPLS-2005>
120.316818237305

> <r_mmod_Torsional_Energy-OPLS-2005>
327.200408935547

> <r_mmod_Improper_Torsional_Energy-OPLS-2005>
3.91936445236206

> <r_mmod_Van_der_Waal_Energy-OPLS-2005>
161.869201660156

> <r_mmod_Electrostatic_Energy-OPLS-2005>
-298.470672607422

> <r_mmod_Solvation_Energy-OPLS-2005>
-206.3056640625

> <b_mmod_Minimization_Converged-OPLS-2005>
0

> <r_mmod_RMS_Derivative-OPLS-2005>
1.19944989681244

$$$$
15
                    3D
 Structure written by MMmdl.
158166  0  0  1  0            999 V2000
  -30.5541  -14.6714   20.4633 C   0  0  0  0  0  0
  -30.4461  -12.4043   19.4353 C   0  0  0  0  0  0
  -29.5004  -12.4965   18.2133 C   0  0  0  0  0  0
  -28.0221  -12.3449   18.6278 C   0  0  0  0  0  0
  -27.6517  -13.2069   19.8630 C   0  0  2  0  0  0
  -28.7034  -13.0289   20.9808 C   0  0  0  0  0  0
  -25.2573  -13.8172   20.5700 C   0  0  0  0  0  0
  -24.1829  -13.0439   20.9240 C   0  0  0  0  0  0
  -24.6390  -11.6912   20.8780 C   0  0  0  0  0  0
  -23.9056  -10.4294   21.0440 C   0  0  0  0  0  0
  -24.3604   -9.4211   21.9208 C   0  0  0  0  0  0
  -23.6285   -8.2235   22.0750 C   0  0  0  0  0  0
  -22.4259   -8.0284   21.3542 C   0  0  0  0  0  0
  -21.9919   -9.0261   20.4640 C   0  0  0  0  0  0
  -22.7242  -10.2155   20.3078 C   0  0  0  0  0  0
  -21.6841   -6.0740   22.5282 C   0  0  0  0  0  0
  -21.3986   -6.5633   23.8218 C   0  0  0  0  0  0
  -21.3665   -5.6783   24.9179 C   0  0  0  0  0  0
  -21.6042   -4.3041   24.7215 C   0  0  0  0  0  0
  -21.8826   -3.8148   23.4334 C   0  0  0  0  0  0
  -21.9182   -4.6973   22.3393 C   0  0  0  0  0  0
  -22.7859  -13.5250   21.1875 C   0  0  0  0  0  0
  -22.1656   -4.2161   21.0973 F   0  0  0  0  0  0
  -21.5642   -3.4524   25.7733 F   0  0  0  0  0  0
  -30.0085  -13.4124   20.4179 N   0  0  0  0  0  0
  -26.2991  -12.9320   20.3335 N   0  0  0  0  0  0
  -25.9314  -11.6500   20.5778 N   0  0  0  0  0  0
  -22.0471  -12.8262   22.0430 N   0  0  0  0  0  0
  -25.4303  -15.1872   20.4054 N   0  0  0  0  0  0
  -31.7148  -14.8815   20.0937 O   0  0  0  0  0  0
  -21.6615   -6.8885   21.4250 O   0  0  0  0  0  0
  -22.3584  -14.5565   20.6726 O   0  0  0  0  0  0
  -24.6277  -31.8602   23.1992 C   0  0  0  0  0  0
  -25.9128  -32.4764   23.8329 C   0  0  1  0  0  0
  -27.2345  -27.3101   20.1168 C   0  0  0  0  0  0
  -25.5952  -33.8563   24.2264 N   0  0  0  0  0  0
  -23.4247  -30.4739   21.5449 C   0  0  2  0  0  0
  -24.8707  -28.9194   20.1160 C   0  0  0  0  0  0
  -22.7483  -29.4562   22.4941 C   0  0  0  0  0  0
  -18.0277  -28.1317   22.8458 C   0  0  0  0  0  0
  -24.1486  -36.7270   23.2648 C   0  0  0  0  0  0
  -25.9597  -30.7832   21.3710 C   0  0  0  0  0  0
  -26.0386  -29.4080   20.7160 C   0  0  0  0  0  0
  -27.2260  -28.6172   20.6983 C   0  0  0  0  0  0
  -26.0417  -26.8602   19.5163 C   0  0  0  0  0  0
  -24.8736  -27.6500   19.5083 C   0  0  0  0  0  0
  -23.6421  -29.8067   20.1606 C   0  0  0  0  0  0
  -25.4113  -36.3050   24.0311 C   0  0  1  0  0  0
  -20.5875  -28.3632   23.1265 C   0  0  2  0  0  0
  -20.6768  -26.9350   22.5399 C   0  0  0  0  0  0
  -19.5760  -26.6340   21.5165 C   0  0  0  0  0  0
  -18.1921  -26.7855   22.1574 C   0  0  0  0  0  0
  -19.1527  -28.8798   23.2852 C   0  0  0  0  0  0
  -18.9481  -30.1406   23.8862 C   0  0  0  0  0  0
  -17.6494  -30.6563   24.0507 C   0  0  0  0  0  0
  -25.9065  -34.9441   23.5079 C   0  0  0  0  0  0
  -16.5368  -29.9036   23.6313 C   0  0  0  0  0  0
  -16.7277  -28.6445   23.0336 C   0  0  0  0  0  0
  -26.4516  -31.6577   25.0724 C   0  0  0  0  0  0
  -25.3752  -31.3708   26.1453 C   0  0  0  0  0  0
  -27.0358  -30.3017   24.6126 C   0  0  0  0  0  0
  -27.6083  -32.4313   25.7491 C   0  0  0  0  0  0
  -27.5558  -37.1780   24.8452 C   0  0  0  0  0  0
  -21.4204  -29.2985   22.3663 N   0  0  0  0  0  0
  -26.4276  -37.3757   23.9398 N   0  0  0  0  0  0
  -24.6884  -31.0568   22.0962 N   0  0  0  0  0  0
  -23.4197  -28.8085   23.3030 O   0  0  0  0  0  0
  -28.3786  -26.5056   20.0761 O   0  0  0  0  0  0
  -26.5640  -34.8911   22.4649 O   0  0  0  0  0  0
  -23.5447  -32.1416   23.7307 O   0  0  0  0  0  0
  -29.8617  -19.3895   19.6629 C   0  0  0  0  0  0
  -30.0857  -17.9647   19.6845 C   0  0  0  0  0  0
  -28.5958  -19.2094   21.6741 C   0  0  0  0  0  0
  -28.8419  -17.8058   21.7291 C   0  0  0  0  0  0
  -29.1190  -20.0793   20.6739 C   0  0  0  0  0  0
  -29.6018  -17.1329   20.7364 C   0  0  0  0  0  0
  -28.2776  -17.0168   22.9012 C   0  0  0  0  0  0
  -28.7168  -22.0980   22.0850 C   0  0  0  0  0  0
  -28.3229  -23.8555   19.5773 C   0  0  0  0  0  0
  -29.2863  -22.5767   19.7707 C   0  0  0  0  0  0
  -28.3414  -25.1067   20.5726 C   0  0  0  0  0  0
  -29.6646  -15.6617   20.8040 N   0  0  0  0  0  0
  -28.8733  -21.5171   20.7477 N   0  0  0  0  0  0
  -31.4820  -12.5575   19.1239 H   0  0  0  0  0  0
  -30.4105  -11.4043   19.8714 H   0  0  0  0  0  0
  -29.7566  -11.7308   17.4804 H   0  0  0  0  0  0
  -29.6456  -13.4556   17.7128 H   0  0  0  0  0  0
  -27.8476  -11.2925   18.8496 H   0  0  0  0  0  0
  -27.3698  -12.5893   17.7893 H   0  0  0  0  0  0
  -27.6712  -14.2444   19.5333 H   0  0  0  0  0  0
  -28.7293  -11.9876   21.3073 H   0  0  0  0  0  0
  -28.4533  -13.6100   21.8703 H   0  0  0  0  0  0
  -25.2735   -9.5686   22.4794 H   0  0  0  0  0  0
  -23.9980   -7.4626   22.7487 H   0  0  0  0  0  0
  -21.0836   -8.8806   19.8943 H   0  0  0  0  0  0
  -22.3694  -10.9710   19.6190 H   0  0  0  0  0  0
  -21.1957   -7.6136   23.9731 H   0  0  0  0  0  0
  -21.1481   -6.0498   25.9088 H   0  0  0  0  0  0
  -22.0597   -2.7613   23.2822 H   0  0  0  0  0  0
  -22.4021  -11.9867   22.4767 H   0  0  0  0  0  0
  -21.1118  -13.1353   22.2637 H   0  0  0  0  0  0
  -24.6602  -15.8401   20.5047 H   0  0  0  0  0  0
  -26.2596  -15.6226   20.0216 H   0  0  0  0  0  0
  -26.7200  -32.5453   23.1079 H   0  0  0  0  0  0
  -25.0025  -33.9655   25.0346 H   0  0  0  0  0  0
  -22.7194  -31.2942   21.4018 H   0  0  0  0  0  0
  -23.3741  -35.9613   23.3280 H   0  0  0  0  0  0
  -24.3579  -36.8928   22.2074 H   0  0  0  0  0  0
  -23.7202  -37.6431   23.6720 H   0  0  0  0  0  0
  -26.0855  -31.5489   20.6037 H   0  0  0  0  0  0
  -26.8394  -30.8380   21.9998 H   0  0  0  0  0  0
  -28.1334  -28.9921   21.1542 H   0  0  0  0  0  0
  -26.0113  -25.8878   19.0446 H   0  0  0  0  0  0
  -23.9787  -27.2685   19.0339 H   0  0  0  0  0  0
  -23.7597  -30.5870   19.4049 H   0  0  0  0  0  0
  -22.7603  -29.2362   19.8589 H   0  0  0  0  0  0
  -25.1263  -36.1908   25.0794 H   0  0  0  0  0  0
  -20.9943  -28.3238   24.1400 H   0  0  0  0  0  0
  -20.5596  -26.2257   23.3607 H   0  0  0  0  0  0
  -21.6653  -26.7348   22.1228 H   0  0  0  0  0  0
  -19.6909  -25.6237   21.1207 H   0  0  0  0  0  0
  -19.6699  -27.3163   20.6696 H   0  0  0  0  0  0
  -17.4177  -26.6597   21.3980 H   0  0  0  0  0  0
  -18.0320  -26.0006   22.8990 H   0  0  0  0  0  0
  -19.7999  -30.7163   24.2263 H   0  0  0  0  0  0
  -17.5076  -31.6247   24.5102 H   0  0  0  0  0  0
  -15.5363  -30.2911   23.7694 H   0  0  0  0  0  0
  -15.8669  -28.0751   22.7065 H   0  0  0  0  0  0
  -24.5926  -30.7041   25.7769 H   0  0  0  0  0  0
  -24.8957  -32.2888   26.4905 H   0  0  0  0  0  0
  -25.8107  -30.8876   27.0214 H   0  0  0  0  0  0
  -26.2899  -29.6751   24.1225 H   0  0  0  0  0  0
  -27.4116  -29.7285   25.4599 H   0  0  0  0  0  0
  -27.8754  -30.4258   23.9276 H   0  0  0  0  0  0
  -27.2700  -33.3662   26.1969 H   0  0  0  0  0  0
  -28.3978  -32.6778   25.0373 H   0  0  0  0  0  0
  -28.0637  -31.8479   26.5490 H   0  0  0  0  0  0
  -28.2548  -38.0116   24.7535 H   0  0  0  0  0  0
  -28.1080  -36.2623   24.6252 H   0  0  0  0  0  0
  -27.2284  -37.1381   25.8866 H   0  0  0  0  0  0
  -20.9387  -29.8786   21.6929 H   0  0  0  0  0  0
  -26.0147  -38.2799   24.1503 H   0  0  0  0  0  0
  -30.2714  -19.9440   18.8322 H   0  0  0  0  0  0
  -30.6119  -17.5051   18.8599 H   0  0  0  0  0  0
  -27.9610  -19.6111   22.4473 H   0  0  0  0  0  0
  -29.0987  -16.6601   23.5265 H   0  0  0  0  0  0
  -27.7121  -16.1498   22.5547 H   0  0  0  0  0  0
  -27.6187  -17.6172   23.5310 H   0  0  0  0  0  0
  -28.7528  -21.3974   22.9142 H   0  0  0  0  0  0
  -27.7782  -22.6501   22.1465 H   0  0  0  0  0  0
  -29.5217  -22.8085   22.2803 H   0  0  0  0  0  0
  -27.2983  -23.4970   19.4843 H   0  0  0  0  0  0
  -28.5535  -24.2664   18.5954 H   0  0  0  0  0  0
  -30.2730  -22.9408   20.0621 H   0  0  0  0  0  0
  -29.4403  -22.1147   18.7929 H   0  0  0  0  0  0
  -29.2383  -25.0076   21.1826 H   0  0  0  0  0  0
  -27.5170  -25.0004   21.2801 H   0  0  0  0  0  0
  -28.8211  -15.2503   21.1758 H   0  0  0  0  0  0
  1 25  1  0  0  0
  1 30  2  0  0  0
  1 82  1  0  0  0
  2  3  1  0  0  0
  2 25  1  0  0  0
  2 84  1  0  0  0
  2 85  1  0  0  0
  3  4  1  0  0  0
  3 86  1  0  0  0
  3 87  1  0  0  0
  4  5  1  0  0  0
  4 88  1  0  0  0
  4 89  1  0  0  0
  5  6  1  0  0  0
  5 26  1  0  0  0
  5 90  1  0  0  0
  6 25  1  0  0  0
  6 91  1  0  0  0
  6 92  1  0  0  0
  7  8  2  0  0  0
  7 26  1  0  0  0
  7 29  1  0  0  0
  8  9  1  0  0  0
  8 22  1  0  0  0
  9 10  1  0  0  0
  9 27  2  0  0  0
 10 11  2  0  0  0
 10 15  1  0  0  0
 11 12  1  0  0  0
 11 93  1  0  0  0
 12 13  2  0  0  0
 12 94  1  0  0  0
 13 14  1  0  0  0
 13 31  1  0  0  0
 14 15  2  0  0  0
 14 95  1  0  0  0
 15 96  1  0  0  0
 16 17  2  0  0  0
 16 21  1  0  0  0
 16 31  1  0  0  0
 17 18  1  0  0  0
 17 97  1  0  0  0
 18 19  2  0  0  0
 18 98  1  0  0  0
 19 20  1  0  0  0
 19 24  1  0  0  0
 20 21  2  0  0  0
 20 99  1  0  0  0
 21 23  1  0  0  0
 22 28  1  0  0  0
 22 32  2  0  0  0
 26 27  1  0  0  0
 28100  1  0  0  0
 28101  1  0  0  0
 29102  1  0  0  0
 29103  1  0  0  0
 33 34  1  0  0  0
 33 66  1  0  0  0
 33 70  2  0  0  0
 34 36  1  0  0  0
 34 59  1  0  0  0
 34104  1  0  0  0
 35 44  2  0  0  0
 35 45  1  0  0  0
 35 68  1  0  0  0
 36 56  1  0  0  0
 36105  1  0  0  0
 37 39  1  0  0  0
 37 47  1  0  0  0
 37 66  1  0  0  0
 37106  1  0  0  0
 38 43  2  0  0  0
 38 46  1  0  0  0
 38 47  1  0  0  0
 39 64  1  0  0  0
 39 67  2  0  0  0
 40 52  1  0  0  0
 40 53  2  0  0  0
 40 58  1  0  0  0
 41107  1  0  0  0
 41108  1  0  0  0
 41109  1  0  0  0
 41 48  1  0  0  0
 42 43  1  0  0  0
 42 66  1  0  0  0
 42110  1  0  0  0
 42111  1  0  0  0
 43 44  1  0  0  0
 44112  1  0  0  0
 45 46  2  0  0  0
 45113  1  0  0  0
 46114  1  0  0  0
 47115  1  0  0  0
 47116  1  0  0  0
 48 56  1  0  0  0
 48 65  1  0  0  0
 48117  1  0  0  0
 49 50  1  0  0  0
 49 53  1  0  0  0
 49 64  1  0  0  0
 49118  1  0  0  0
 50 51  1  0  0  0
 50119  1  0  0  0
 50120  1  0  0  0
 51 52  1  0  0  0
 51121  1  0  0  0
 51122  1  0  0  0
 52123  1  0  0  0
 52124  1  0  0  0
 53 54  1  0  0  0
 54 55  2  0  0  0
 54125  1  0  0  0
 55 57  1  0  0  0
 55126  1  0  0  0
 56 69  2  0  0  0
 57 58  2  0  0  0
 57127  1  0  0  0
 58128  1  0  0  0
 59 60  1  0  0  0
 59 61  1  0  0  0
 59 62  1  0  0  0
 60129  1  0  0  0
 60130  1  0  0  0
 60131  1  0  0  0
 61132  1  0  0  0
 61133  1  0  0  0
 61134  1  0  0  0
 62135  1  0  0  0
 62136  1  0  0  0
 62137  1  0  0  0
 63 65  1  0  0  0
 63138  1  0  0  0
 63139  1  0  0  0
 63140  1  0  0  0
 64141  1  0  0  0
 65142  1  0  0  0
 68 81  1  0  0  0
 71 72  2  0  0  0
 71 75  1  0  0  0
 71143  1  0  0  0
 72 76  1  0  0  0
 72144  1  0  0  0
 73 74  1  0  0  0
 73 75  2  0  0  0
 73145  1  0  0  0
 74 76  2  0  0  0
 74 77  1  0  0  0
 75 83  1  0  0  0
 76 82  1  0  0  0
 77146  1  0  0  0
 77147  1  0  0  0
 77148  1  0  0  0
 78 83  1  0  0  0
 78149  1  0  0  0
 78150  1  0  0  0
 78151  1  0  0  0
 79 80  1  0  0  0
 79 81  1  0  0  0
 79152  1  0  0  0
 79153  1  0  0  0
 80 83  1  0  0  0
 80154  1  0  0  0
 80155  1  0  0  0
 81156  1  0  0  0
 81157  1  0  0  0
 82158  1  0  0  0
M  ISO  4   1 100  68 101  81 101  82 100
M  END
> <chiral flag>
0

> <version>
0

> <s_m_source_file>
/data/baiqing/PycharmProjects/Reinvent-master-3.2/result/LINK_invent/BTK/process_docking_weight1_custom_product_contain_oxygen_bond_distance_aromatic_linkinvent_7_9_3/rearranged_h_0018.sdf

> <i_m_source_file_index>
16

> <r_mmod_Potential_Energy-OPLS-2005>
116.56453704834

> <r_mmod_Stretch_Energy-OPLS-2005>
92.8967971801758

> <r_mmod_Bend_Energy-OPLS-2005>
190.764923095703

> <r_mmod_Torsional_Energy-OPLS-2005>
247.660934448242

> <r_mmod_Improper_Torsional_Energy-OPLS-2005>
6.44188261032104

> <r_mmod_Van_der_Waal_Energy-OPLS-2005>
143.751998901367

> <r_mmod_Electrostatic_Energy-OPLS-2005>
-395.209808349609

> <r_mmod_Solvation_Energy-OPLS-2005>
-224.020843505859

> <b_mmod_Minimization_Converged-OPLS-2005>
0

> <r_mmod_RMS_Derivative-OPLS-2005>
5.40813636779785

$$$$
16
                    3D
 Structure written by MMmdl.
155164  0  0  1  0            999 V2000
  -30.6217  -14.6357   20.5067 C   0  0  0  0  0  0
  -30.4415  -12.3908   19.4512 C   0  0  0  0  0  0
  -29.5084  -12.5091   18.2249 C   0  0  0  0  0  0
  -28.0307  -12.3492   18.6365 C   0  0  0  0  0  0
  -27.6559  -13.2158   19.8686 C   0  0  2  0  0  0
  -28.7018  -13.0600   20.9960 C   0  0  0  0  0  0
  -25.2561  -13.8160   20.5686 C   0  0  0  0  0  0
  -24.1822  -13.0424   20.9161 C   0  0  0  0  0  0
  -24.6399  -11.6899   20.8727 C   0  0  0  0  0  0
  -23.9067  -10.4284   21.0398 C   0  0  0  0  0  0
  -24.3617   -9.4204   21.9180 C   0  0  0  0  0  0
  -23.6290   -8.2241   22.0754 C   0  0  0  0  0  0
  -22.4271   -8.0279   21.3544 C   0  0  0  0  0  0
  -21.9907   -9.0251   20.4644 C   0  0  0  0  0  0
  -22.7237  -10.2129   20.3050 C   0  0  0  0  0  0
  -21.6853   -6.0735   22.5279 C   0  0  0  0  0  0
  -21.4013   -6.5639   23.8212 C   0  0  0  0  0  0
  -21.3660   -5.6791   24.9174 C   0  0  0  0  0  0
  -21.6045   -4.3056   24.7223 C   0  0  0  0  0  0
  -21.8819   -3.8147   23.4345 C   0  0  0  0  0  0
  -21.9192   -4.6963   22.3401 C   0  0  0  0  0  0
  -22.7847  -13.5221   21.1838 C   0  0  0  0  0  0
  -22.1661   -4.2150   21.0979 F   0  0  0  0  0  0
  -21.5629   -3.4539   25.7738 F   0  0  0  0  0  0
  -30.0185  -13.4066   20.4354 N   0  0  0  0  0  0
  -26.3008  -12.9348   20.3358 N   0  0  0  0  0  0
  -25.9334  -11.6502   20.5770 N   0  0  0  0  0  0
  -22.0500  -12.8212   22.0404 N   0  0  0  0  0  0
  -25.4251  -15.1882   20.4153 N   0  0  0  0  0  0
  -31.7772  -14.8078   20.1072 O   0  0  0  0  0  0
  -21.6637   -6.8876   21.4241 O   0  0  0  0  0  0
  -22.3524  -14.5532   20.6700 O   0  0  0  0  0  0
  -24.6263  -31.8607   23.2038 C   0  0  0  0  0  0
  -25.9116  -32.4784   23.8361 C   0  0  1  0  0  0
  -27.2217  -27.3211   20.1123 C   0  0  0  0  0  0
  -25.5934  -33.8584   24.2287 N   0  0  0  0  0  0
  -23.4193  -30.4857   21.5467 C   0  0  2  0  0  0
  -24.8653  -28.9452   20.1101 C   0  0  0  0  0  0
  -22.7476  -29.4628   22.4938 C   0  0  0  0  0  0
  -18.0286  -28.1382   22.8485 C   0  0  0  0  0  0
  -24.1489  -36.7289   23.2636 C   0  0  0  0  0  0
  -25.9616  -30.7919   21.3760 C   0  0  0  0  0  0
  -26.0355  -29.4211   20.7147 C   0  0  0  0  0  0
  -27.2171  -28.6211   20.7063 C   0  0  0  0  0  0
  -26.0264  -26.9025   19.4804 C   0  0  0  0  0  0
  -24.8627  -27.6910   19.4845 C   0  0  0  0  0  0
  -23.6336  -29.8244   20.1608 C   0  0  0  0  0  0
  -25.4112  -36.3083   24.0331 C   0  0  1  0  0  0
  -20.5887  -28.3682   23.1285 C   0  0  2  0  0  0
  -20.6776  -26.9406   22.5407 C   0  0  0  0  0  0
  -19.5750  -26.6377   21.5212 C   0  0  0  0  0  0
  -18.1928  -26.7924   22.1623 C   0  0  0  0  0  0
  -19.1540  -28.8848   23.2881 C   0  0  0  0  0  0
  -18.9465  -30.1454   23.8894 C   0  0  0  0  0  0
  -17.6465  -30.6585   24.0561 C   0  0  0  0  0  0
  -25.9051  -34.9454   23.5106 C   0  0  0  0  0  0
  -16.5355  -29.9083   23.6334 C   0  0  0  0  0  0
  -16.7273  -28.6501   23.0352 C   0  0  0  0  0  0
  -26.4501  -31.6593   25.0731 C   0  0  0  0  0  0
  -25.3736  -31.3737   26.1460 C   0  0  0  0  0  0
  -27.0343  -30.3017   24.6182 C   0  0  0  0  0  0
  -27.6057  -32.4331   25.7503 C   0  0  0  0  0  0
  -27.5584  -37.1790   24.8459 C   0  0  0  0  0  0
  -21.4188  -29.3045   22.3689 N   0  0  0  0  0  0
  -26.4286  -37.3781   23.9419 N   0  0  0  0  0  0
  -24.6878  -31.0622   22.0989 N   0  0  0  0  0  0
  -23.4205  -28.8158   23.3006 O   0  0  0  0  0  0
  -28.3337  -26.4621   20.1688 O   0  0  0  0  0  0
  -26.5613  -34.8920   22.4668 O   0  0  0  0  0  0
  -23.5428  -32.1405   23.7367 O   0  0  0  0  0  0
  -30.8689  -19.3004   20.1105 C   0  0  0  0  0  0
  -30.9509  -17.8793   20.2404 C   0  0  0  0  0  0
  -28.6241  -19.2723   20.9562 C   0  0  0  0  0  0
  -29.7055  -20.0541   20.4602 C   0  0  0  0  0  0
  -29.8606  -17.1165   20.7329 C   0  0  0  0  0  0
  -28.7021  -17.8547   21.0867 C   0  0  0  0  0  0
  -28.7349  -22.4505   20.7052 C   0  0  0  0  0  0
  -30.3180  -23.7205   19.4802 C   0  0  0  0  0  0
  -30.7749  -22.2567   19.6782 C   0  0  0  0  0  0
  -29.1790  -23.9370   20.4782 C   0  0  1  0  0  0
  -28.0756  -25.0049   20.0534 C   0  0  0  0  0  0
  -29.6669  -21.5279   20.3030 N   0  0  0  0  0  0
  -29.8136  -15.6649   20.9029 N   0  0  0  0  0  0
  -27.6432  -22.1860   21.2170 O   0  0  0  0  0  0
  -27.6274  -17.1778   21.5588 F   0  0  0  0  0  0
  -31.4821  -12.5193   19.1480 H   0  0  0  0  0  0
  -30.3796  -11.3930   19.8881 H   0  0  0  0  0  0
  -29.7704  -11.7577   17.4789 H   0  0  0  0  0  0
  -29.6514  -13.4787   17.7453 H   0  0  0  0  0  0
  -27.8646  -11.2952   18.8626 H   0  0  0  0  0  0
  -27.3764  -12.5852   17.7965 H   0  0  0  0  0  0
  -27.6759  -14.2532   19.5343 H   0  0  0  0  0  0
  -28.7128  -12.0345   21.3679 H   0  0  0  0  0  0
  -28.4469  -13.6814   21.8558 H   0  0  0  0  0  0
  -25.2765   -9.5682   22.4749 H   0  0  0  0  0  0
  -24.0001   -7.4635   22.7476 H   0  0  0  0  0  0
  -21.0838   -8.8769   19.8950 H   0  0  0  0  0  0
  -22.3697  -10.9666   19.6158 H   0  0  0  0  0  0
  -21.2004   -7.6146   23.9716 H   0  0  0  0  0  0
  -21.1481   -6.0521   25.9077 H   0  0  0  0  0  0
  -22.0598   -2.7608   23.2845 H   0  0  0  0  0  0
  -22.4120  -11.9869   22.4781 H   0  0  0  0  0  0
  -21.1124  -13.1240   22.2628 H   0  0  0  0  0  0
  -24.6667  -15.8429   20.5697 H   0  0  0  0  0  0
  -26.3018  -15.6484   20.2060 H   0  0  0  0  0  0
  -26.7183  -32.5456   23.1106 H   0  0  0  0  0  0
  -25.0107  -33.9735   25.0450 H   0  0  0  0  0  0
  -22.7125  -31.3061   21.4052 H   0  0  0  0  0  0
  -23.3761  -35.9611   23.3285 H   0  0  0  0  0  0
  -24.3584  -36.8920   22.2053 H   0  0  0  0  0  0
  -23.7226  -37.6480   23.6665 H   0  0  0  0  0  0
  -26.0953  -31.5582   20.6109 H   0  0  0  0  0  0
  -26.8414  -30.8368   22.0063 H   0  0  0  0  0  0
  -28.1133  -28.9802   21.1924 H   0  0  0  0  0  0
  -25.9554  -25.9470   18.9836 H   0  0  0  0  0  0
  -23.9664  -27.3210   19.0059 H   0  0  0  0  0  0
  -23.7523  -30.6032   19.4063 H   0  0  0  0  0  0
  -22.7540  -29.2543   19.8569 H   0  0  0  0  0  0
  -25.1288  -36.1930   25.0822 H   0  0  0  0  0  0
  -20.9977  -28.3251   24.1407 H   0  0  0  0  0  0
  -20.5678  -26.2291   23.3604 H   0  0  0  0  0  0
  -21.6644  -26.7434   22.1197 H   0  0  0  0  0  0
  -19.6912  -25.6288   21.1241 H   0  0  0  0  0  0
  -19.6691  -27.3190   20.6745 H   0  0  0  0  0  0
  -17.4198  -26.6677   21.4024 H   0  0  0  0  0  0
  -18.0325  -26.0064   22.9016 H   0  0  0  0  0  0
  -19.7945  -30.7271   24.2256 H   0  0  0  0  0  0
  -17.5022  -31.6267   24.5157 H   0  0  0  0  0  0
  -15.5356  -30.2985   23.7661 H   0  0  0  0  0  0
  -15.8672  -28.0819   22.7071 H   0  0  0  0  0  0
  -24.5905  -30.7092   25.7794 H   0  0  0  0  0  0
  -24.8939  -32.2911   26.4886 H   0  0  0  0  0  0
  -25.8061  -30.8913   27.0234 H   0  0  0  0  0  0
  -26.2917  -29.6770   24.1204 H   0  0  0  0  0  0
  -27.4046  -29.7269   25.4680 H   0  0  0  0  0  0
  -27.8785  -30.4308   23.9403 H   0  0  0  0  0  0
  -27.2661  -33.3633   26.2072 H   0  0  0  0  0  0
  -28.3875  -32.6888   25.0338 H   0  0  0  0  0  0
  -28.0717  -31.8463   26.5428 H   0  0  0  0  0  0
  -28.2572  -38.0119   24.7551 H   0  0  0  0  0  0
  -28.1111  -36.2650   24.6225 H   0  0  0  0  0  0
  -27.2311  -37.1365   25.8863 H   0  0  0  0  0  0
  -20.9360  -29.8783   21.6917 H   0  0  0  0  0  0
  -26.0166  -38.2849   24.1451 H   0  0  0  0  0  0
  -31.7437  -19.8081   19.7308 H   0  0  0  0  0  0
  -31.8686  -17.3862   19.9543 H   0  0  0  0  0  0
  -27.6969  -19.7412   21.2452 H   0  0  0  0  0  0
  -29.9529  -23.8565   18.4611 H   0  0  0  0  0  0
  -31.1358  -24.4260   19.6295 H   0  0  0  0  0  0
  -31.6416  -22.2151   20.3399 H   0  0  0  0  0  0
  -31.0581  -21.8091   18.7246 H   0  0  0  0  0  0
  -29.5995  -24.2533   21.4329 H   0  0  0  0  0  0
  -27.1913  -24.7877   20.6552 H   0  0  0  0  0  0
  -27.7990  -24.7894   19.0209 H   0  0  0  0  0  0
  -28.9243  -15.3455   21.2569 H   0  0  0  0  0  0
  1 25  1  0  0  0
  1 30  2  0  0  0
  1 83  1  0  0  0
  2  3  1  0  0  0
  2 25  1  0  0  0
  2 86  1  0  0  0
  2 87  1  0  0  0
  3  4  1  0  0  0
  3 88  1  0  0  0
  3 89  1  0  0  0
  4  5  1  0  0  0
  4 90  1  0  0  0
  4 91  1  0  0  0
  5  6  1  0  0  0
  5 26  1  0  0  0
  5 92  1  0  0  0
  6 25  1  0  0  0
  6 93  1  0  0  0
  6 94  1  0  0  0
  7  8  2  0  0  0
  7 26  1  0  0  0
  7 29  1  0  0  0
  8  9  1  0  0  0
  8 22  1  0  0  0
  9 10  1  0  0  0
  9 27  2  0  0  0
 10 11  2  0  0  0
 10 15  1  0  0  0
 11 12  1  0  0  0
 11 95  1  0  0  0
 12 13  2  0  0  0
 12 96  1  0  0  0
 13 14  1  0  0  0
 13 31  1  0  0  0
 14 15  2  0  0  0
 14 97  1  0  0  0
 15 98  1  0  0  0
 16 17  2  0  0  0
 16 21  1  0  0  0
 16 31  1  0  0  0
 17 18  1  0  0  0
 17 99  1  0  0  0
 18 19  2  0  0  0
 18100  1  0  0  0
 19 20  1  0  0  0
 19 24  1  0  0  0
 20 21  2  0  0  0
 20101  1  0  0  0
 21 23  1  0  0  0
 22 28  1  0  0  0
 22 32  2  0  0  0
 26 27  1  0  0  0
 28102  1  0  0  0
 28103  1  0  0  0
 29104  1  0  0  0
 29105  1  0  0  0
 33 34  1  0  0  0
 33 66  1  0  0  0
 33 70  2  0  0  0
 34 36  1  0  0  0
 34 59  1  0  0  0
 34106  1  0  0  0
 35 44  2  0  0  0
 35 45  1  0  0  0
 35 68  1  0  0  0
 36 56  1  0  0  0
 36107  1  0  0  0
 37 39  1  0  0  0
 37 47  1  0  0  0
 37 66  1  0  0  0
 37108  1  0  0  0
 38 43  2  0  0  0
 38 46  1  0  0  0
 38 47  1  0  0  0
 39 64  1  0  0  0
 39 67  2  0  0  0
 40 52  1  0  0  0
 40 53  2  0  0  0
 40 58  1  0  0  0
 41109  1  0  0  0
 41110  1  0  0  0
 41111  1  0  0  0
 41 48  1  0  0  0
 42 43  1  0  0  0
 42 66  1  0  0  0
 42112  1  0  0  0
 42113  1  0  0  0
 43 44  1  0  0  0
 44114  1  0  0  0
 45 46  2  0  0  0
 45115  1  0  0  0
 46116  1  0  0  0
 47117  1  0  0  0
 47118  1  0  0  0
 48 56  1  0  0  0
 48 65  1  0  0  0
 48119  1  0  0  0
 49 50  1  0  0  0
 49 53  1  0  0  0
 49 64  1  0  0  0
 49120  1  0  0  0
 50 51  1  0  0  0
 50121  1  0  0  0
 50122  1  0  0  0
 51 52  1  0  0  0
 51123  1  0  0  0
 51124  1  0  0  0
 52125  1  0  0  0
 52126  1  0  0  0
 53 54  1  0  0  0
 54 55  2  0  0  0
 54127  1  0  0  0
 55 57  1  0  0  0
 55128  1  0  0  0
 56 69  2  0  0  0
 57 58  2  0  0  0
 57129  1  0  0  0
 58130  1  0  0  0
 59 60  1  0  0  0
 59 61  1  0  0  0
 59 62  1  0  0  0
 60131  1  0  0  0
 60132  1  0  0  0
 60133  1  0  0  0
 61134  1  0  0  0
 61135  1  0  0  0
 61136  1  0  0  0
 62137  1  0  0  0
 62138  1  0  0  0
 62139  1  0  0  0
 63 65  1  0  0  0
 63140  1  0  0  0
 63141  1  0  0  0
 63142  1  0  0  0
 64143  1  0  0  0
 65144  1  0  0  0
 68 81  1  0  0  0
 71 72  2  0  0  0
 71 74  1  0  0  0
 71145  1  0  0  0
 72 75  1  0  0  0
 72146  1  0  0  0
 73 74  2  0  0  0
 73 76  1  0  0  0
 73147  1  0  0  0
 74 82  1  0  0  0
 75 76  2  0  0  0
 75 83  1  0  0  0
 76 85  1  0  0  0
 77 80  1  0  0  0
 77 82  1  0  0  0
 77 84  2  0  0  0
 78 79  1  0  0  0
 78 80  1  0  0  0
 78148  1  0  0  0
 78149  1  0  0  0
 79 82  1  0  0  0
 79150  1  0  0  0
 79151  1  0  0  0
 80 81  1  0  0  0
 80152  1  0  0  0
 81153  1  0  0  0
 81154  1  0  0  0
 83155  1  0  0  0
M  ISO  4   1 100  68 101  81 101  83 100
M  END
> <chiral flag>
0

> <version>
0

> <s_m_source_file>
/data/baiqing/PycharmProjects/Reinvent-master-3.2/result/LINK_invent/BTK/process_docking_weight1_custom_product_contain_oxygen_bond_distance_aromatic_linkinvent_7_9_3/rearranged_h_0018.sdf

> <i_m_source_file_index>
17

> <r_mmod_Potential_Energy-OPLS-2005>
104.43994140625

> <r_mmod_Stretch_Energy-OPLS-2005>
79.9662475585938

> <r_mmod_Bend_Energy-OPLS-2005>
168.272598266602

> <r_mmod_Torsional_Energy-OPLS-2005>
253.14094543457

> <r_mmod_Improper_Torsional_Energy-OPLS-2005>
3.68619656562805

> <r_mmod_Van_der_Waal_Energy-OPLS-2005>
148.356887817383

> <r_mmod_Electrostatic_Energy-OPLS-2005>
-388.333709716797

> <r_mmod_Solvation_Energy-OPLS-2005>
-208.69873046875

> <b_mmod_Minimization_Converged-OPLS-2005>
0

> <r_mmod_RMS_Derivative-OPLS-2005>
0.457433491945267

$$$$
17
                    3D
 Structure written by MMmdl.
161169  0  0  1  0            999 V2000
  -30.6717  -14.6944   20.4211 C   0  0  0  0  0  0
  -30.4237  -12.4157   19.4558 C   0  0  0  0  0  0
  -29.4968  -12.4521   18.2241 C   0  0  0  0  0  0
  -28.0232  -12.2870   18.6488 C   0  0  0  0  0  0
  -27.6259  -13.1916   19.8449 C   0  0  2  0  0  0
  -28.6899  -13.1813   20.9668 C   0  0  0  0  0  0
  -25.2509  -13.8069   20.5762 C   0  0  0  0  0  0
  -24.1764  -13.0361   20.9235 C   0  0  0  0  0  0
  -24.6314  -11.6826   20.8793 C   0  0  0  0  0  0
  -23.8981  -10.4243   21.0449 C   0  0  0  0  0  0
  -24.3571   -9.4171   21.9212 C   0  0  0  0  0  0
  -23.6264   -8.2203   22.0755 C   0  0  0  0  0  0
  -22.4250   -8.0231   21.3537 C   0  0  0  0  0  0
  -21.9872   -9.0202   20.4647 C   0  0  0  0  0  0
  -22.7169  -10.2096   20.3074 C   0  0  0  0  0  0
  -21.6840   -6.0711   22.5270 C   0  0  0  0  0  0
  -21.3998   -6.5624   23.8201 C   0  0  0  0  0  0
  -21.3655   -5.6780   24.9169 C   0  0  0  0  0  0
  -21.6042   -4.3036   24.7232 C   0  0  0  0  0  0
  -21.8820   -3.8129   23.4347 C   0  0  0  0  0  0
  -21.9206   -4.6944   22.3400 C   0  0  0  0  0  0
  -22.7804  -13.5185   21.1863 C   0  0  0  0  0  0
  -22.1672   -4.2138   21.0976 F   0  0  0  0  0  0
  -21.5648   -3.4505   25.7748 F   0  0  0  0  0  0
  -29.9891  -13.5001   20.3594 N   0  0  0  0  0  0
  -26.2867  -12.9165   20.3365 N   0  0  0  0  0  0
  -25.9223  -11.6354   20.5831 N   0  0  0  0  0  0
  -22.0446  -12.8179   22.0428 N   0  0  0  0  0  0
  -25.4259  -15.1788   20.4215 N   0  0  0  0  0  0
  -31.8921  -14.7114   20.2481 O   0  0  0  0  0  0
  -21.6603   -6.8837   21.4232 O   0  0  0  0  0  0
  -22.3526  -14.5515   20.6733 O   0  0  0  0  0  0
  -24.6220  -31.8588   23.2011 C   0  0  0  0  0  0
  -25.9072  -32.4785   23.8357 C   0  0  1  0  0  0
  -27.2315  -27.3366   20.1315 C   0  0  0  0  0  0
  -25.5891  -33.8600   24.2273 N   0  0  0  0  0  0
  -23.4185  -30.4793   21.5394 C   0  0  2  0  0  0
  -24.8720  -28.9366   20.1065 C   0  0  0  0  0  0
  -22.7457  -29.4598   22.4905 C   0  0  0  0  0  0
  -18.0267  -28.1354   22.8502 C   0  0  0  0  0  0
  -24.1480  -36.7320   23.2635 C   0  0  0  0  0  0
  -25.9568  -30.8000   21.3685 C   0  0  0  0  0  0
  -26.0374  -29.4275   20.7121 C   0  0  0  0  0  0
  -27.2256  -28.6415   20.7089 C   0  0  0  0  0  0
  -26.0518  -26.8936   19.4990 C   0  0  0  0  0  0
  -24.8805  -27.6771   19.4870 C   0  0  0  0  0  0
  -23.6358  -29.8095   20.1554 C   0  0  0  0  0  0
  -25.4104  -36.3095   24.0307 C   0  0  1  0  0  0
  -20.5864  -28.3671   23.1288 C   0  0  2  0  0  0
  -20.6750  -26.9397   22.5403 C   0  0  0  0  0  0
  -19.5729  -26.6367   21.5200 C   0  0  0  0  0  0
  -18.1907  -26.7899   22.1621 C   0  0  0  0  0  0
  -19.1521  -28.8820   23.2895 C   0  0  0  0  0  0
  -18.9451  -30.1419   23.8917 C   0  0  0  0  0  0
  -17.6451  -30.6577   24.0544 C   0  0  0  0  0  0
  -25.9031  -34.9464   23.5091 C   0  0  0  0  0  0
  -16.5343  -29.9072   23.6314 C   0  0  0  0  0  0
  -16.7256  -28.6474   23.0372 C   0  0  0  0  0  0
  -26.4469  -31.6614   25.0743 C   0  0  0  0  0  0
  -25.3700  -31.3792   26.1475 C   0  0  0  0  0  0
  -27.0308  -30.3026   24.6233 C   0  0  0  0  0  0
  -27.6009  -32.4371   25.7534 C   0  0  0  0  0  0
  -27.5575  -37.1808   24.8451 C   0  0  0  0  0  0
  -21.4161  -29.3042   22.3687 N   0  0  0  0  0  0
  -26.4290  -37.3782   23.9392 N   0  0  0  0  0  0
  -24.6845  -31.0618   22.0949 N   0  0  0  0  0  0
  -23.4188  -28.8101   23.2950 O   0  0  0  0  0  0
  -28.3361  -26.4807   20.1712 O   0  0  0  0  0  0
  -26.5618  -34.8920   22.4671 O   0  0  0  0  0  0
  -23.5389  -32.1375   23.7361 O   0  0  0  0  0  0
  -29.1299  -19.1199   21.9296 C   0  0  0  0  0  0
  -30.1153  -19.4508   19.7645 C   0  0  0  0  0  0
  -28.5850  -20.4342   21.8689 C   0  0  0  0  0  0
  -29.5410  -20.7592   19.6917 C   0  0  0  0  0  0
  -29.9053  -18.5811   20.8734 C   0  0  0  0  0  0
  -28.7453  -21.2876   20.7418 C   0  0  0  0  0  0
  -25.8709  -21.1476   20.6762 C   0  0  0  0  0  0
  -29.0366  -16.1961   19.3708 C   0  0  0  0  0  0
  -30.5982  -17.1646   20.9995 C   0  0  0  0  0  0
  -26.6260  -22.4331   20.2797 C   0  0  0  0  0  0
  -28.6831  -23.8186   20.1902 C   0  0  0  0  0  0
  -28.1216  -25.1743   20.8286 C   0  0  0  0  0  0
  -28.0440  -22.5461   20.6782 N   0  0  0  0  0  0
  -29.9719  -15.8948   20.4639 N   0  0  0  0  0  0
  -31.4636  -12.5253   19.1428 H   0  0  0  0  0  0
  -30.3595  -11.4506   19.9620 H   0  0  0  0  0  0
  -29.7703  -11.6578   17.5278 H   0  0  0  0  0  0
  -29.6337  -13.3864   17.6792 H   0  0  0  0  0  0
  -27.8818  -11.2415   18.9253 H   0  0  0  0  0  0
  -27.3623  -12.4679   17.8004 H   0  0  0  0  0  0
  -27.5573  -14.1805   19.4248 H   0  0  0  0  0  0
  -28.7318  -12.2066   21.4545 H   0  0  0  0  0  0
  -28.4365  -13.9059   21.7414 H   0  0  0  0  0  0
  -25.2736   -9.5632   22.4768 H   0  0  0  0  0  0
  -23.9980   -7.4578   22.7445 H   0  0  0  0  0  0
  -21.0812   -8.8689   19.8938 H   0  0  0  0  0  0
  -22.3628  -10.9634   19.6172 H   0  0  0  0  0  0
  -21.1952   -7.6129   23.9689 H   0  0  0  0  0  0
  -21.1491   -6.0518   25.9071 H   0  0  0  0  0  0
  -22.0618   -2.7590   23.2851 H   0  0  0  0  0  0
  -22.4075  -11.9847   22.4822 H   0  0  0  0  0  0
  -21.1076  -13.1223   22.2632 H   0  0  0  0  0  0
  -24.6712  -15.8444   20.5467 H   0  0  0  0  0  0
  -26.2925  -15.6155   20.1373 H   0  0  0  0  0  0
  -26.7145  -32.5475   23.1115 H   0  0  0  0  0  0
  -24.9957  -33.9753   25.0363 H   0  0  0  0  0  0
  -22.7130  -31.2988   21.3895 H   0  0  0  0  0  0
  -23.3726  -35.9670   23.3297 H   0  0  0  0  0  0
  -24.3554  -36.8956   22.2053 H   0  0  0  0  0  0
  -23.7264  -37.6525   23.6677 H   0  0  0  0  0  0
  -26.0825  -31.5669   20.6019 H   0  0  0  0  0  0
  -26.8399  -30.8542   21.9951 H   0  0  0  0  0  0
  -28.1244  -29.0138   21.1824 H   0  0  0  0  0  0
  -26.0329  -25.9211   19.0272 H   0  0  0  0  0  0
  -23.9906  -27.2984   19.0039 H   0  0  0  0  0  0
  -23.7428  -30.5797   19.3909 H   0  0  0  0  0  0
  -22.7641  -29.2227   19.8610 H   0  0  0  0  0  0
  -25.1291  -36.1931   25.0797 H   0  0  0  0  0  0
  -20.9955  -28.3234   24.1409 H   0  0  0  0  0  0
  -20.5582  -26.2302   23.3602 H   0  0  0  0  0  0
  -21.6633  -26.7369   22.1244 H   0  0  0  0  0  0
  -19.6885  -25.6267   21.1251 H   0  0  0  0  0  0
  -19.6665  -27.3160   20.6709 H   0  0  0  0  0  0
  -17.4166  -26.6624   21.4031 H   0  0  0  0  0  0
  -18.0332  -26.0032   22.9017 H   0  0  0  0  0  0
  -19.7924  -30.7224   24.2319 H   0  0  0  0  0  0
  -17.5009  -31.6267   24.5141 H   0  0  0  0  0  0
  -15.5345  -30.2993   23.7626 H   0  0  0  0  0  0
  -15.8643  -28.0787   22.7120 H   0  0  0  0  0  0
  -24.5823  -30.7200   25.7819 H   0  0  0  0  0  0
  -24.8949  -32.2989   26.4908 H   0  0  0  0  0  0
  -25.8003  -30.8953   27.0246 H   0  0  0  0  0  0
  -26.2906  -29.6816   24.1180 H   0  0  0  0  0  0
  -27.3890  -29.7266   25.4775 H   0  0  0  0  0  0
  -27.8817  -30.4288   23.9534 H   0  0  0  0  0  0
  -27.2559  -33.3628   26.2151 H   0  0  0  0  0  0
  -28.3805  -32.7008   25.0382 H   0  0  0  0  0  0
  -28.0691  -31.8489   26.5437 H   0  0  0  0  0  0
  -28.2579  -38.0114   24.7484 H   0  0  0  0  0  0
  -28.1076  -36.2645   24.6271 H   0  0  0  0  0  0
  -27.2292  -37.1442   25.8852 H   0  0  0  0  0  0
  -20.9316  -29.8859   21.6994 H   0  0  0  0  0  0
  -26.0163  -38.2851   24.1400 H   0  0  0  0  0  0
  -28.9550  -18.5272   22.8176 H   0  0  0  0  0  0
  -30.7257  -19.1114   18.9390 H   0  0  0  0  0  0
  -27.9982  -20.7813   22.7079 H   0  0  0  0  0  0
  -29.6986  -21.3473   18.7987 H   0  0  0  0  0  0
  -24.8282  -21.2225   20.3704 H   0  0  0  0  0  0
  -25.8685  -20.9893   21.7558 H   0  0  0  0  0  0
  -26.2780  -20.2559   20.1936 H   0  0  0  0  0  0
  -29.0319  -15.4332   18.5938 H   0  0  0  0  0  0
  -28.0275  -16.3284   19.7627 H   0  0  0  0  0  0
  -29.2991  -17.1028   18.8312 H   0  0  0  0  0  0
  -30.7891  -16.9937   22.0606 H   0  0  0  0  0  0
  -31.5880  -17.2700   20.5516 H   0  0  0  0  0  0
  -26.0673  -23.2591   20.7196 H   0  0  0  0  0  0
  -26.5568  -22.5699   19.1999 H   0  0  0  0  0  0
  -29.7608  -23.7716   20.3566 H   0  0  0  0  0  0
  -28.5590  -23.8627   19.1063 H   0  0  0  0  0  0
  -28.5690  -25.2624   21.8189 H   0  0  0  0  0  0
  -27.0634  -25.0577   21.0481 H   0  0  0  0  0  0
  1 25  1  0  0  0
  1 30  2  0  0  0
  1 84  1  0  0  0
  2  3  1  0  0  0
  2 25  1  0  0  0
  2 85  1  0  0  0
  2 86  1  0  0  0
  3  4  1  0  0  0
  3 87  1  0  0  0
  3 88  1  0  0  0
  4  5  1  0  0  0
  4 89  1  0  0  0
  4 90  1  0  0  0
  5  6  1  0  0  0
  5 26  1  0  0  0
  5 91  1  0  0  0
  6 25  1  0  0  0
  6 92  1  0  0  0
  6 93  1  0  0  0
  7  8  2  0  0  0
  7 26  1  0  0  0
  7 29  1  0  0  0
  8  9  1  0  0  0
  8 22  1  0  0  0
  9 10  1  0  0  0
  9 27  2  0  0  0
 10 11  2  0  0  0
 10 15  1  0  0  0
 11 12  1  0  0  0
 11 94  1  0  0  0
 12 13  2  0  0  0
 12 95  1  0  0  0
 13 14  1  0  0  0
 13 31  1  0  0  0
 14 15  2  0  0  0
 14 96  1  0  0  0
 15 97  1  0  0  0
 16 17  2  0  0  0
 16 21  1  0  0  0
 16 31  1  0  0  0
 17 18  1  0  0  0
 17 98  1  0  0  0
 18 19  2  0  0  0
 18 99  1  0  0  0
 19 20  1  0  0  0
 19 24  1  0  0  0
 20 21  2  0  0  0
 20100  1  0  0  0
 21 23  1  0  0  0
 22 28  1  0  0  0
 22 32  2  0  0  0
 26 27  1  0  0  0
 28101  1  0  0  0
 28102  1  0  0  0
 29103  1  0  0  0
 29104  1  0  0  0
 33 34  1  0  0  0
 33 66  1  0  0  0
 33 70  2  0  0  0
 34 36  1  0  0  0
 34 59  1  0  0  0
 34105  1  0  0  0
 35 44  2  0  0  0
 35 45  1  0  0  0
 35 68  1  0  0  0
 36 56  1  0  0  0
 36106  1  0  0  0
 37 39  1  0  0  0
 37 47  1  0  0  0
 37 66  1  0  0  0
 37107  1  0  0  0
 38 43  2  0  0  0
 38 46  1  0  0  0
 38 47  1  0  0  0
 39 64  1  0  0  0
 39 67  2  0  0  0
 40 52  1  0  0  0
 40 53  2  0  0  0
 40 58  1  0  0  0
 41108  1  0  0  0
 41109  1  0  0  0
 41110  1  0  0  0
 41 48  1  0  0  0
 42 43  1  0  0  0
 42 66  1  0  0  0
 42111  1  0  0  0
 42112  1  0  0  0
 43 44  1  0  0  0
 44113  1  0  0  0
 45 46  2  0  0  0
 45114  1  0  0  0
 46115  1  0  0  0
 47116  1  0  0  0
 47117  1  0  0  0
 48 56  1  0  0  0
 48 65  1  0  0  0
 48118  1  0  0  0
 49 50  1  0  0  0
 49 53  1  0  0  0
 49 64  1  0  0  0
 49119  1  0  0  0
 50 51  1  0  0  0
 50120  1  0  0  0
 50121  1  0  0  0
 51 52  1  0  0  0
 51122  1  0  0  0
 51123  1  0  0  0
 52124  1  0  0  0
 52125  1  0  0  0
 53 54  1  0  0  0
 54 55  2  0  0  0
 54126  1  0  0  0
 55 57  1  0  0  0
 55127  1  0  0  0
 56 69  2  0  0  0
 57 58  2  0  0  0
 57128  1  0  0  0
 58129  1  0  0  0
 59 60  1  0  0  0
 59 61  1  0  0  0
 59 62  1  0  0  0
 60130  1  0  0  0
 60131  1  0  0  0
 60132  1  0  0  0
 61133  1  0  0  0
 61134  1  0  0  0
 61135  1  0  0  0
 62136  1  0  0  0
 62137  1  0  0  0
 62138  1  0  0  0
 63 65  1  0  0  0
 63139  1  0  0  0
 63140  1  0  0  0
 63141  1  0  0  0
 64142  1  0  0  0
 65143  1  0  0  0
 68 82  1  0  0  0
 71 73  2  0  0  0
 71 75  1  0  0  0
 71144  1  0  0  0
 72 74  1  0  0  0
 72 75  2  0  0  0
 72145  1  0  0  0
 73 76  1  0  0  0
 73146  1  0  0  0
 74 76  2  0  0  0
 74147  1  0  0  0
 75 79  1  0  0  0
 76 83  1  0  0  0
 77 80  1  0  0  0
 77148  1  0  0  0
 77149  1  0  0  0
 77150  1  0  0  0
 78 84  1  0  0  0
 78151  1  0  0  0
 78152  1  0  0  0
 78153  1  0  0  0
 79 84  1  0  0  0
 79154  1  0  0  0
 79155  1  0  0  0
 80 83  1  0  0  0
 80156  1  0  0  0
 80157  1  0  0  0
 81 82  1  0  0  0
 81 83  1  0  0  0
 81158  1  0  0  0
 81159  1  0  0  0
 82160  1  0  0  0
 82161  1  0  0  0
M  ISO  4   1 100  68 101  82 101  84 100
M  END
> <chiral flag>
0

> <version>
0

> <s_m_source_file>
/data/baiqing/PycharmProjects/Reinvent-master-3.2/result/LINK_invent/BTK/process_docking_weight1_custom_product_contain_oxygen_bond_distance_aromatic_linkinvent_7_9_3/rearranged_h_0018.sdf

> <i_m_source_file_index>
18

> <r_mmod_Potential_Energy-OPLS-2005>
262.579437255859

> <r_mmod_Stretch_Energy-OPLS-2005>
86.5856018066406

> <r_mmod_Bend_Energy-OPLS-2005>
151.141906738281

> <r_mmod_Torsional_Energy-OPLS-2005>
316.261444091797

> <r_mmod_Improper_Torsional_Energy-OPLS-2005>
10.8074331283569

> <r_mmod_Van_der_Waal_Energy-OPLS-2005>
157.465515136719

> <r_mmod_Electrostatic_Energy-OPLS-2005>
-320.518646240234

> <r_mmod_Solvation_Energy-OPLS-2005>
-206.238082885742

> <b_mmod_Minimization_Converged-OPLS-2005>
0

> <r_mmod_RMS_Derivative-OPLS-2005>
2.71126389503479

$$$$
18
                    3D
 Structure written by MMmdl.
164173  0  0  1  0            999 V2000
  -30.6063  -14.6568   20.5561 C   0  0  0  0  0  0
  -30.4197  -12.4127   19.4672 C   0  0  0  0  0  0
  -29.5028  -12.5335   18.2312 C   0  0  0  0  0  0
  -28.0218  -12.3749   18.6352 C   0  0  0  0  0  0
  -27.6446  -13.2225   19.8793 C   0  0  2  0  0  0
  -28.6801  -13.0429   21.0057 C   0  0  0  0  0  0
  -25.2434  -13.8128   20.5698 C   0  0  0  0  0  0
  -24.1737  -13.0375   20.9196 C   0  0  0  0  0  0
  -24.6327  -11.6838   20.8690 C   0  0  0  0  0  0
  -23.9000  -10.4209   21.0356 C   0  0  0  0  0  0
  -24.3564   -9.4162   21.9165 C   0  0  0  0  0  0
  -23.6258   -8.2189   22.0756 C   0  0  0  0  0  0
  -22.4237   -8.0202   21.3561 C   0  0  0  0  0  0
  -21.9864   -9.0156   20.4647 C   0  0  0  0  0  0
  -22.7153  -10.2045   20.3037 C   0  0  0  0  0  0
  -21.6834   -6.0689   22.5296 C   0  0  0  0  0  0
  -21.4004   -6.5620   23.8218 C   0  0  0  0  0  0
  -21.3660   -5.6805   24.9206 C   0  0  0  0  0  0
  -21.6042   -4.3054   24.7271 C   0  0  0  0  0  0
  -21.8805   -3.8137   23.4395 C   0  0  0  0  0  0
  -21.9175   -4.6930   22.3436 C   0  0  0  0  0  0
  -22.7740  -13.5141   21.1889 C   0  0  0  0  0  0
  -22.1630   -4.2104   21.1009 F   0  0  0  0  0  0
  -21.5651   -3.4542   25.7785 F   0  0  0  0  0  0
  -29.9864  -13.4314   20.4560 N   0  0  0  0  0  0
  -26.2885  -12.9365   20.3398 N   0  0  0  0  0  0
  -25.9268  -11.6484   20.5771 N   0  0  0  0  0  0
  -22.0424  -12.8114   22.0469 N   0  0  0  0  0  0
  -25.4105  -15.1865   20.4078 N   0  0  0  0  0  0
  -31.7506  -14.7974   20.1064 O   0  0  0  0  0  0
  -21.6626   -6.8793   21.4235 O   0  0  0  0  0  0
  -22.3406  -14.5453   20.6741 O   0  0  0  0  0  0
  -24.6249  -31.8580   23.1999 C   0  0  0  0  0  0
  -25.9110  -32.4762   23.8343 C   0  0  1  0  0  0
  -27.2103  -27.3181   20.1151 C   0  0  0  0  0  0
  -25.5928  -33.8562   24.2264 N   0  0  0  0  0  0
  -23.4174  -30.4820   21.5449 C   0  0  2  0  0  0
  -24.8586  -28.9276   20.1128 C   0  0  0  0  0  0
  -22.7452  -29.4630   22.4969 C   0  0  0  0  0  0
  -18.0279  -28.1382   22.8454 C   0  0  0  0  0  0
  -24.1479  -36.7291   23.2636 C   0  0  0  0  0  0
  -25.9575  -30.7753   21.3757 C   0  0  0  0  0  0
  -26.0254  -29.4007   20.7292 C   0  0  0  0  0  0
  -27.2069  -28.6032   20.7312 C   0  0  0  0  0  0
  -26.0322  -26.8989   19.4597 C   0  0  0  0  0  0
  -24.8612  -27.6793   19.4717 C   0  0  0  0  0  0
  -23.6315  -29.8148   20.1596 C   0  0  0  0  0  0
  -25.4090  -36.3052   24.0319 C   0  0  1  0  0  0
  -20.5880  -28.3694   23.1289 C   0  0  2  0  0  0
  -20.6781  -26.9416   22.5416 C   0  0  0  0  0  0
  -19.5781  -26.6385   21.5182 C   0  0  0  0  0  0
  -18.1935  -26.7918   22.1564 C   0  0  0  0  0  0
  -19.1530  -28.8842   23.2878 C   0  0  0  0  0  0
  -18.9479  -30.1447   23.8910 C   0  0  0  0  0  0
  -17.6481  -30.6582   24.0576 C   0  0  0  0  0  0
  -25.9044  -34.9435   23.5079 C   0  0  0  0  0  0
  -16.5373  -29.9084   23.6342 C   0  0  0  0  0  0
  -16.7267  -28.6514   23.0323 C   0  0  0  0  0  0
  -26.4481  -31.6575   25.0745 C   0  0  0  0  0  0
  -25.3713  -31.3683   26.1497 C   0  0  0  0  0  0
  -27.0314  -30.2979   24.6211 C   0  0  0  0  0  0
  -27.6093  -32.4273   25.7486 C   0  0  0  0  0  0
  -27.5556  -37.1776   24.8464 C   0  0  0  0  0  0
  -21.4162  -29.3077   22.3709 N   0  0  0  0  0  0
  -26.4248  -37.3758   23.9439 N   0  0  0  0  0  0
  -24.6865  -31.0575   22.0978 N   0  0  0  0  0  0
  -23.4174  -28.8166   23.3052 O   0  0  0  0  0  0
  -28.3010  -26.4489   20.1055 O   0  0  0  0  0  0
  -26.5634  -34.8906   22.4662 O   0  0  0  0  0  0
  -23.5412  -32.1419   23.7294 O   0  0  0  0  0  0
  -30.5750  -19.4338   19.7997 C   0  0  0  0  0  0
  -28.5662  -19.0612   21.0545 C   0  0  0  0  0  0
  -30.4273  -20.8443   19.9622 C   0  0  0  0  0  0
  -28.4373  -20.4748   21.2460 C   0  0  0  0  0  0
  -29.6511  -18.4938   20.3316 C   0  0  0  0  0  0
  -29.3569  -21.4093   20.7026 C   0  0  0  0  0  0
  -28.1895  -25.1705   20.7264 C   0  0  0  0  0  0
  -31.2811  -24.1220   20.9199 C   0  0  0  0  0  0
  -30.4178  -24.3996   19.6887 C   0  0  0  0  0  0
  -30.4138  -23.2432   21.8393 C   0  0  0  0  0  0
  -28.9984  -23.9460   20.0885 C   0  0  2  0  0  0
  -28.2015  -23.4742   18.8542 C   0  0  0  0  0  0
  -29.3664  -16.0237   22.2161 C   0  0  0  0  0  0
  -29.7560  -16.9681   19.9151 C   0  0  0  0  0  0
  -29.2593  -22.8085   21.0413 N   0  0  0  0  0  0
  -29.8312  -15.7740   20.8476 N   0  0  0  0  0  0
  -27.4203  -24.9593   21.6753 O   0  0  0  0  0  0
  -31.4658  -12.5276   19.1774 H   0  0  0  0  0  0
  -30.3459  -11.4092   19.8897 H   0  0  0  0  0  0
  -29.7689  -11.7798   17.4890 H   0  0  0  0  0  0
  -29.6565  -13.5000   17.7485 H   0  0  0  0  0  0
  -27.8541  -11.3181   18.8499 H   0  0  0  0  0  0
  -27.3702  -12.6230   17.7954 H   0  0  0  0  0  0
  -27.6716  -14.2685   19.5783 H   0  0  0  0  0  0
  -28.6988  -11.9986   21.3263 H   0  0  0  0  0  0
  -28.4038  -13.6136   21.8898 H   0  0  0  0  0  0
  -25.2683   -9.5648   22.4770 H   0  0  0  0  0  0
  -23.9944   -7.4587   22.7481 H   0  0  0  0  0  0
  -21.0816   -8.8629   19.8952 H   0  0  0  0  0  0
  -22.3570  -10.9575   19.6151 H   0  0  0  0  0  0
  -21.1989   -7.6130   23.9704 H   0  0  0  0  0  0
  -21.1520   -6.0561   25.9105 H   0  0  0  0  0  0
  -22.0598   -2.7589   23.2956 H   0  0  0  0  0  0
  -22.4060  -11.9746   22.4810 H   0  0  0  0  0  0
  -21.1032  -13.1099   22.2701 H   0  0  0  0  0  0
  -24.6430  -15.8403   20.5109 H   0  0  0  0  0  0
  -26.2540  -15.6185   20.0529 H   0  0  0  0  0  0
  -26.7185  -32.5402   23.1087 H   0  0  0  0  0  0
  -25.0124  -33.9714   25.0452 H   0  0  0  0  0  0
  -22.7138  -31.3028   21.3958 H   0  0  0  0  0  0
  -23.3729  -35.9639   23.3267 H   0  0  0  0  0  0
  -24.3585  -36.8943   22.2061 H   0  0  0  0  0  0
  -23.7212  -37.6461   23.6708 H   0  0  0  0  0  0
  -26.0862  -31.5141   20.5841 H   0  0  0  0  0  0
  -26.8424  -30.8326   21.9987 H   0  0  0  0  0  0
  -28.0984  -28.9452   21.2347 H   0  0  0  0  0  0
  -26.0072  -25.9457   18.9483 H   0  0  0  0  0  0
  -23.9711  -27.3153   18.9745 H   0  0  0  0  0  0
  -23.7569  -30.5902   19.4026 H   0  0  0  0  0  0
  -22.7484  -29.2483   19.8553 H   0  0  0  0  0  0
  -25.1248  -36.1892   25.0804 H   0  0  0  0  0  0
  -20.9956  -28.3274   24.1424 H   0  0  0  0  0  0
  -20.5639  -26.2322   23.3630 H   0  0  0  0  0  0
  -21.6672  -26.7430   22.1262 H   0  0  0  0  0  0
  -19.6981  -25.6286   21.1227 H   0  0  0  0  0  0
  -19.6738  -27.3224   20.6737 H   0  0  0  0  0  0
  -17.4218  -26.6694   21.3943 H   0  0  0  0  0  0
  -18.0341  -26.0037   22.8964 H   0  0  0  0  0  0
  -19.7960  -30.7258   24.2296 H   0  0  0  0  0  0
  -17.5043  -31.6264   24.5188 H   0  0  0  0  0  0
  -15.5387  -30.3020   23.7637 H   0  0  0  0  0  0
  -15.8661  -28.0866   22.7003 H   0  0  0  0  0  0
  -24.6145  -30.6664   25.7960 H   0  0  0  0  0  0
  -24.8595  -32.2773   26.4687 H   0  0  0  0  0  0
  -25.8136  -30.9204   27.0412 H   0  0  0  0  0  0
  -26.2869  -29.6723   24.1269 H   0  0  0  0  0  0
  -27.4027  -29.7256   25.4731 H   0  0  0  0  0  0
  -27.8742  -30.4267   23.9404 H   0  0  0  0  0  0
  -27.2848  -33.3739   26.1831 H   0  0  0  0  0  0
  -28.4028  -32.6485   25.0331 H   0  0  0  0  0  0
  -28.0598  -31.8472   26.5551 H   0  0  0  0  0  0
  -28.2549  -38.0093   24.7522 H   0  0  0  0  0  0
  -28.1034  -36.2617   24.6221 H   0  0  0  0  0  0
  -27.2311  -37.1390   25.8874 H   0  0  0  0  0  0
  -20.9358  -29.8838   21.6945 H   0  0  0  0  0  0
  -26.0099  -38.2808   24.1489 H   0  0  0  0  0  0
  -31.4103  -19.0733   19.2135 H   0  0  0  0  0  0
  -27.7958  -18.4168   21.4543 H   0  0  0  0  0  0
  -31.1664  -21.4946   19.5161 H   0  0  0  0  0  0
  -27.6115  -20.8420   21.8392 H   0  0  0  0  0  0
  -31.5661  -25.0498   21.4185 H   0  0  0  0  0  0
  -32.2042  -23.6242   20.6219 H   0  0  0  0  0  0
  -30.7938  -23.8103   18.8507 H   0  0  0  0  0  0
  -30.4799  -25.4423   19.3711 H   0  0  0  0  0  0
  -30.0737  -23.8299   22.6957 H   0  0  0  0  0  0
  -30.9933  -22.4154   22.2549 H   0  0  0  0  0  0
  -27.9516  -24.3091   18.1989 H   0  0  0  0  0  0
  -27.2583  -23.0045   19.1363 H   0  0  0  0  0  0
  -28.7637  -22.7555   18.2584 H   0  0  0  0  0  0
  -28.2802  -15.9369   22.2837 H   0  0  0  0  0  0
  -29.6278  -17.0305   22.5458 H   0  0  0  0  0  0
  -29.8043  -15.3335   22.9391 H   0  0  0  0  0  0
  -30.5843  -16.8974   19.2099 H   0  0  0  0  0  0
  -28.8728  -16.7947   19.2992 H   0  0  0  0  0  0
  1 25  1  0  0  0
  1 30  2  0  0  0
  1 86  1  0  0  0
  2  3  1  0  0  0
  2 25  1  0  0  0
  2 88  1  0  0  0
  2 89  1  0  0  0
  3  4  1  0  0  0
  3 90  1  0  0  0
  3 91  1  0  0  0
  4  5  1  0  0  0
  4 92  1  0  0  0
  4 93  1  0  0  0
  5  6  1  0  0  0
  5 26  1  0  0  0
  5 94  1  0  0  0
  6 25  1  0  0  0
  6 95  1  0  0  0
  6 96  1  0  0  0
  7  8  2  0  0  0
  7 26  1  0  0  0
  7 29  1  0  0  0
  8  9  1  0  0  0
  8 22  1  0  0  0
  9 10  1  0  0  0
  9 27  2  0  0  0
 10 11  2  0  0  0
 10 15  1  0  0  0
 11 12  1  0  0  0
 11 97  1  0  0  0
 12 13  2  0  0  0
 12 98  1  0  0  0
 13 14  1  0  0  0
 13 31  1  0  0  0
 14 15  2  0  0  0
 14 99  1  0  0  0
 15100  1  0  0  0
 16 17  2  0  0  0
 16 21  1  0  0  0
 16 31  1  0  0  0
 17 18  1  0  0  0
 17101  1  0  0  0
 18 19  2  0  0  0
 18102  1  0  0  0
 19 20  1  0  0  0
 19 24  1  0  0  0
 20 21  2  0  0  0
 20103  1  0  0  0
 21 23  1  0  0  0
 22 28  1  0  0  0
 22 32  2  0  0  0
 26 27  1  0  0  0
 28104  1  0  0  0
 28105  1  0  0  0
 29106  1  0  0  0
 29107  1  0  0  0
 33 34  1  0  0  0
 33 66  1  0  0  0
 33 70  2  0  0  0
 34 36  1  0  0  0
 34 59  1  0  0  0
 34108  1  0  0  0
 35 44  2  0  0  0
 35 45  1  0  0  0
 35 68  1  0  0  0
 36 56  1  0  0  0
 36109  1  0  0  0
 37 39  1  0  0  0
 37 47  1  0  0  0
 37 66  1  0  0  0
 37110  1  0  0  0
 38 43  2  0  0  0
 38 46  1  0  0  0
 38 47  1  0  0  0
 39 64  1  0  0  0
 39 67  2  0  0  0
 40 52  1  0  0  0
 40 53  2  0  0  0
 40 58  1  0  0  0
 41111  1  0  0  0
 41112  1  0  0  0
 41113  1  0  0  0
 41 48  1  0  0  0
 42 43  1  0  0  0
 42 66  1  0  0  0
 42114  1  0  0  0
 42115  1  0  0  0
 43 44  1  0  0  0
 44116  1  0  0  0
 45 46  2  0  0  0
 45117  1  0  0  0
 46118  1  0  0  0
 47119  1  0  0  0
 47120  1  0  0  0
 48 56  1  0  0  0
 48 65  1  0  0  0
 48121  1  0  0  0
 49 50  1  0  0  0
 49 53  1  0  0  0
 49 64  1  0  0  0
 49122  1  0  0  0
 50 51  1  0  0  0
 50123  1  0  0  0
 50124  1  0  0  0
 51 52  1  0  0  0
 51125  1  0  0  0
 51126  1  0  0  0
 52127  1  0  0  0
 52128  1  0  0  0
 53 54  1  0  0  0
 54 55  2  0  0  0
 54129  1  0  0  0
 55 57  1  0  0  0
 55130  1  0  0  0
 56 69  2  0  0  0
 57 58  2  0  0  0
 57131  1  0  0  0
 58132  1  0  0  0
 59 60  1  0  0  0
 59 61  1  0  0  0
 59 62  1  0  0  0
 60133  1  0  0  0
 60134  1  0  0  0
 60135  1  0  0  0
 61136  1  0  0  0
 61137  1  0  0  0
 61138  1  0  0  0
 62139  1  0  0  0
 62140  1  0  0  0
 62141  1  0  0  0
 63 65  1  0  0  0
 63142  1  0  0  0
 63143  1  0  0  0
 63144  1  0  0  0
 64145  1  0  0  0
 65146  1  0  0  0
 68 77  1  0  0  0
 71 73  2  0  0  0
 71 75  1  0  0  0
 71147  1  0  0  0
 72 74  1  0  0  0
 72 75  2  0  0  0
 72148  1  0  0  0
 73 76  1  0  0  0
 73149  1  0  0  0
 74 76  2  0  0  0
 74150  1  0  0  0
 75 84  1  0  0  0
 76 85  1  0  0  0
 77 87  2  0  0  0
 77 81  1  0  0  0
 78 79  1  0  0  0
 78 80  1  0  0  0
 78151  1  0  0  0
 78152  1  0  0  0
 79 81  1  0  0  0
 79153  1  0  0  0
 79154  1  0  0  0
 80 85  1  0  0  0
 80155  1  0  0  0
 80156  1  0  0  0
 81 82  1  0  0  0
 81 85  1  0  0  0
 82157  1  0  0  0
 82158  1  0  0  0
 82159  1  0  0  0
 83 86  1  0  0  0
 83160  1  0  0  0
 83161  1  0  0  0
 83162  1  0  0  0
 84 86  1  0  0  0
 84163  1  0  0  0
 84164  1  0  0  0
M  ISO  4   1 100  68 101  77 101  86 100
M  END
> <chiral flag>
0

> <version>
0

> <s_m_source_file>
/data/baiqing/PycharmProjects/Reinvent-master-3.2/result/LINK_invent/BTK/process_docking_weight1_custom_product_contain_oxygen_bond_distance_aromatic_linkinvent_7_9_3/rearranged_h_0018.sdf

> <i_m_source_file_index>
19

> <r_mmod_Potential_Energy-OPLS-2005>
360.936950683594

> <r_mmod_Stretch_Energy-OPLS-2005>
93.8358383178711

> <r_mmod_Bend_Energy-OPLS-2005>
177.287246704102

> <r_mmod_Torsional_Energy-OPLS-2005>
369.861968994141

> <r_mmod_Improper_Torsional_Energy-OPLS-2005>
16.7287368774414

> <r_mmod_Van_der_Waal_Energy-OPLS-2005>
141.618240356445

> <r_mmod_Electrostatic_Energy-OPLS-2005>
-274.951324462891

> <r_mmod_Solvation_Energy-OPLS-2005>
-214.978378295898

> <b_mmod_Minimization_Converged-OPLS-2005>
0

> <r_mmod_RMS_Derivative-OPLS-2005>
5.85241270065308

$$$$
19
                    3D
 Structure written by MMmdl.
168176  0  0  1  0            999 V2000
  -30.7747  -14.3767   20.6375 C   0  0  0  0  0  0
  -30.4096  -12.2703   19.4085 C   0  0  0  0  0  0
  -29.4964  -12.5136   18.1921 C   0  0  0  0  0  0
  -28.0190  -12.3639   18.5966 C   0  0  0  0  0  0
  -27.6685  -13.2014   19.8586 C   0  0  2  0  0  0
  -28.7036  -12.9789   20.9869 C   0  0  0  0  0  0
  -25.2662  -13.8141   20.5581 C   0  0  0  0  0  0
  -24.1897  -13.0435   20.9090 C   0  0  0  0  0  0
  -24.6430  -11.6921   20.8629 C   0  0  0  0  0  0
  -23.9061  -10.4322   21.0356 C   0  0  0  0  0  0
  -24.3640   -9.4251   21.9148 C   0  0  0  0  0  0
  -23.6324   -8.2298   22.0761 C   0  0  0  0  0  0
  -22.4306   -8.0314   21.3556 C   0  0  0  0  0  0
  -21.9909   -9.0264   20.4663 C   0  0  0  0  0  0
  -22.7216  -10.2151   20.3032 C   0  0  0  0  0  0
  -21.6869   -6.0751   22.5279 C   0  0  0  0  0  0
  -21.4007   -6.5645   23.8217 C   0  0  0  0  0  0
  -21.3666   -5.6795   24.9166 C   0  0  0  0  0  0
  -21.6074   -4.3056   24.7191 C   0  0  0  0  0  0
  -21.8827   -3.8151   23.4319 C   0  0  0  0  0  0
  -21.9206   -4.6983   22.3382 C   0  0  0  0  0  0
  -22.7936  -13.5251   21.1794 C   0  0  0  0  0  0
  -22.1673   -4.2184   21.0946 F   0  0  0  0  0  0
  -21.5652   -3.4527   25.7691 F   0  0  0  0  0  0
  -30.0582  -13.2368   20.4555 N   0  0  0  0  0  0
  -26.3077  -12.9285   20.3229 N   0  0  0  0  0  0
  -25.9336  -11.6466   20.5613 N   0  0  0  0  0  0
  -22.0604  -12.8242   22.0363 N   0  0  0  0  0  0
  -25.4399  -15.1864   20.4101 N   0  0  0  0  0  0
  -31.7781  -14.6704   19.9815 O   0  0  0  0  0  0
  -21.6686   -6.8904   21.4255 O   0  0  0  0  0  0
  -22.3620  -14.5558   20.6652 O   0  0  0  0  0  0
  -24.6180  -31.8684   23.2117 C   0  0  0  0  0  0
  -25.9071  -32.4824   23.8406 C   0  0  1  0  0  0
  -27.2265  -27.4349   20.0573 C   0  0  0  0  0  0
  -25.5914  -33.8624   24.2326 N   0  0  0  0  0  0
  -23.4031  -30.4975   21.5540 C   0  0  2  0  0  0
  -24.8420  -28.9633   20.1202 C   0  0  0  0  0  0
  -22.7407  -29.4686   22.4987 C   0  0  0  0  0  0
  -18.0273  -28.1393   22.8487 C   0  0  0  0  0  0
  -24.1488  -36.7327   23.2639 C   0  0  0  0  0  0
  -25.9355  -30.8299   21.3650 C   0  0  0  0  0  0
  -26.0080  -29.4642   20.7105 C   0  0  0  0  0  0
  -27.2018  -28.7044   20.6819 C   0  0  0  0  0  0
  -26.0266  -26.9477   19.4799 C   0  0  0  0  0  0
  -24.8434  -27.7000   19.5119 C   0  0  0  0  0  0
  -23.6097  -29.8343   20.1679 C   0  0  0  0  0  0
  -25.4106  -36.3118   24.0336 C   0  0  1  0  0  0
  -20.5872  -28.3684   23.1295 C   0  0  2  0  0  0
  -20.6755  -26.9416   22.5409 C   0  0  0  0  0  0
  -19.5733  -26.6393   21.5203 C   0  0  0  0  0  0
  -18.1916  -26.7932   22.1619 C   0  0  0  0  0  0
  -19.1531  -28.8849   23.2893 C   0  0  0  0  0  0
  -18.9457  -30.1444   23.8924 C   0  0  0  0  0  0
  -17.6464  -30.6589   24.0577 C   0  0  0  0  0  0
  -25.9033  -34.9483   23.5127 C   0  0  0  0  0  0
  -16.5353  -29.9110   23.6323 C   0  0  0  0  0  0
  -16.7258  -28.6527   23.0339 C   0  0  0  0  0  0
  -26.4491  -31.6614   25.0744 C   0  0  0  0  0  0
  -25.3763  -31.3747   26.1506 C   0  0  0  0  0  0
  -27.0302  -30.3048   24.6124 C   0  0  0  0  0  0
  -27.6066  -32.4338   25.7491 C   0  0  0  0  0  0
  -27.5578  -37.1814   24.8459 C   0  0  0  0  0  0
  -21.4140  -29.3060   22.3719 N   0  0  0  0  0  0
  -26.4288  -37.3799   23.9414 N   0  0  0  0  0  0
  -24.6717  -31.0792   22.1019 N   0  0  0  0  0  0
  -23.4174  -28.8211   23.3016 O   0  0  0  0  0  0
  -28.4103  -26.7174   20.0211 O   0  0  0  0  0  0
  -26.5596  -34.8929   22.4688 O   0  0  0  0  0  0
  -23.5364  -32.1435   23.7506 O   0  0  0  0  0  0
  -28.8335  -18.2395   22.8426 C   0  0  0  0  0  0
  -29.1253  -19.1392   21.8054 C   0  0  0  0  0  0
  -29.3248  -16.9323   22.7969 C   0  0  0  0  0  0
  -30.4750  -17.4438   20.7023 C   0  0  0  0  0  0
  -29.9683  -18.7777   20.7264 C   0  0  0  0  0  0
  -30.1019  -16.5051   21.7039 C   0  0  0  0  0  0
  -31.1963  -19.2650   18.5422 C   0  0  0  0  0  0
  -28.8549  -20.0596   18.9059 C   0  0  0  0  0  0
  -31.6913  -22.4426   18.2503 C   0  0  0  0  0  0
  -29.7007  -24.6634   19.5631 C   0  0  0  0  0  0
  -29.5563  -23.1422   19.3202 C   0  0  0  0  0  0
  -30.7995  -21.1383   20.2506 C   0  0  0  0  0  0
  -28.3501  -25.3898   19.4825 C   0  0  0  0  0  0
  -30.2148  -19.8232   19.6012 C   0  0  0  0  0  0
  -30.3813  -15.1119   21.6785 N   0  0  0  0  0  0
  -30.8483  -22.4183   19.4691 N   0  3  1  0  0  0
  -31.4617  -12.3285   19.1233 H   0  0  0  0  0  0
  -30.2584  -11.2584   19.7896 H   0  0  0  0  0  0
  -29.7349  -11.8075   17.3961 H   0  0  0  0  0  0
  -29.6740  -13.5114   17.7831 H   0  0  0  0  0  0
  -27.8397  -11.3023   18.7751 H   0  0  0  0  0  0
  -27.3736  -12.6412   17.7620 H   0  0  0  0  0  0
  -27.7175  -14.2512   19.5665 H   0  0  0  0  0  0
  -28.6598  -11.9506   21.3495 H   0  0  0  0  0  0
  -28.4400  -13.5982   21.8448 H   0  0  0  0  0  0
  -25.2811   -9.5730   22.4669 H   0  0  0  0  0  0
  -24.0083   -7.4680   22.7459 H   0  0  0  0  0  0
  -21.0879   -8.8692   19.8944 H   0  0  0  0  0  0
  -22.3658  -10.9642   19.6101 H   0  0  0  0  0  0
  -21.1962   -7.6151   23.9685 H   0  0  0  0  0  0
  -21.1498   -6.0539   25.9070 H   0  0  0  0  0  0
  -22.0607   -2.7619   23.2772 H   0  0  0  0  0  0
  -22.4238  -11.9906   22.4723 H   0  0  0  0  0  0
  -21.1182  -13.1202   22.2486 H   0  0  0  0  0  0
  -24.6788  -15.8421   20.5457 H   0  0  0  0  0  0
  -26.3097  -15.6354   20.1503 H   0  0  0  0  0  0
  -26.7150  -32.5521   23.1168 H   0  0  0  0  0  0
  -25.0072  -33.9787   25.0479 H   0  0  0  0  0  0
  -22.6933  -31.3166   21.4143 H   0  0  0  0  0  0
  -23.3741  -35.9666   23.3291 H   0  0  0  0  0  0
  -24.3588  -36.8955   22.2054 H   0  0  0  0  0  0
  -23.7241  -37.6530   23.6661 H   0  0  0  0  0  0
  -26.0466  -31.5928   20.5935 H   0  0  0  0  0  0
  -26.8255  -30.8845   21.9792 H   0  0  0  0  0  0
  -28.1044  -29.0904   21.1361 H   0  0  0  0  0  0
  -25.9685  -25.9893   18.9877 H   0  0  0  0  0  0
  -23.9442  -27.3049   19.0585 H   0  0  0  0  0  0
  -23.7252  -30.6099   19.4091 H   0  0  0  0  0  0
  -22.7310  -29.2600   19.8679 H   0  0  0  0  0  0
  -25.1285  -36.1981   25.0824 H   0  0  0  0  0  0
  -20.9957  -28.3253   24.1416 H   0  0  0  0  0  0
  -20.5634  -26.2300   23.3610 H   0  0  0  0  0  0
  -21.6628  -26.7442   22.1211 H   0  0  0  0  0  0
  -19.6895  -25.6310   21.1221 H   0  0  0  0  0  0
  -19.6672  -27.3213   20.6741 H   0  0  0  0  0  0
  -17.4184  -26.6683   21.4026 H   0  0  0  0  0  0
  -18.0319  -26.0073   22.9007 H   0  0  0  0  0  0
  -19.7941  -30.7246   24.2304 H   0  0  0  0  0  0
  -17.5030  -31.6267   24.5187 H   0  0  0  0  0  0
  -15.5355  -30.3028   23.7633 H   0  0  0  0  0  0
  -15.8647  -28.0855   22.7034 H   0  0  0  0  0  0
  -24.5903  -30.7121   25.7868 H   0  0  0  0  0  0
  -24.9002  -32.2919   26.4978 H   0  0  0  0  0  0
  -25.8129  -30.8905   27.0246 H   0  0  0  0  0  0
  -26.2831  -29.6806   24.1199 H   0  0  0  0  0  0
  -27.4082  -29.7298   25.4584 H   0  0  0  0  0  0
  -27.8670  -30.4351   23.9256 H   0  0  0  0  0  0
  -27.2677  -33.3612   26.2111 H   0  0  0  0  0  0
  -28.3845  -32.6939   25.0306 H   0  0  0  0  0  0
  -28.0763  -31.8445   26.5367 H   0  0  0  0  0  0
  -28.2608  -38.0099   24.7501 H   0  0  0  0  0  0
  -28.1064  -36.2636   24.6287 H   0  0  0  0  0  0
  -27.2304  -37.1467   25.8863 H   0  0  0  0  0  0
  -20.9294  -29.8838   21.6996 H   0  0  0  0  0  0
  -26.0179  -38.2876   24.1423 H   0  0  0  0  0  0
  -28.2026  -18.5395   23.6668 H   0  0  0  0  0  0
  -28.6783  -20.1220   21.8611 H   0  0  0  0  0  0
  -29.0638  -16.2499   23.5942 H   0  0  0  0  0  0
  -31.1163  -17.1140   19.8980 H   0  0  0  0  0  0
  -30.8448  -18.3291   18.1073 H   0  0  0  0  0  0
  -32.1867  -19.0956   18.9651 H   0  0  0  0  0  0
  -31.3260  -19.9249   17.6919 H   0  0  0  0  0  0
  -28.4195  -19.1166   18.5710 H   0  0  0  0  0  0
  -28.9515  -20.6860   18.0205 H   0  0  0  0  0  0
  -28.1243  -20.5229   19.5688 H   0  0  0  0  0  0
  -31.9327  -23.4708   17.9809 H   0  0  0  0  0  0
  -31.1791  -22.0113   17.3918 H   0  0  0  0  0  0
  -32.6363  -21.9196   18.4084 H   0  0  0  0  0  0
  -30.3897  -25.1046   18.8416 H   0  0  0  0  0  0
  -30.1361  -24.8333   20.5458 H   0  0  0  0  0  0
  -29.1241  -22.9531   18.3361 H   0  0  0  0  0  0
  -28.8354  -22.7558   20.0430 H   0  0  0  0  0  0
  -31.8059  -20.9269   20.6074 H   0  0  0  0  0  0
  -30.2553  -21.3877   21.1586 H   0  0  0  0  0  0
  -27.6128  -24.8104   20.0414 H   0  0  0  0  0  0
  -28.0349  -25.4149   18.4385 H   0  0  0  0  0  0
  -29.8154  -14.5760   22.3182 H   0  0  0  0  0  0
  -31.3631  -23.0116   20.1030 H   0  0  0  0  0  0
  1 25  1  0  0  0
  1 30  2  0  0  0
  1 85  1  0  0  0
  2  3  1  0  0  0
  2 25  1  0  0  0
  2 87  1  0  0  0
  2 88  1  0  0  0
  3  4  1  0  0  0
  3 89  1  0  0  0
  3 90  1  0  0  0
  4  5  1  0  0  0
  4 91  1  0  0  0
  4 92  1  0  0  0
  5  6  1  0  0  0
  5 26  1  0  0  0
  5 93  1  0  0  0
  6 25  1  0  0  0
  6 94  1  0  0  0
  6 95  1  0  0  0
  7  8  2  0  0  0
  7 26  1  0  0  0
  7 29  1  0  0  0
  8  9  1  0  0  0
  8 22  1  0  0  0
  9 10  1  0  0  0
  9 27  2  0  0  0
 10 11  2  0  0  0
 10 15  1  0  0  0
 11 12  1  0  0  0
 11 96  1  0  0  0
 12 13  2  0  0  0
 12 97  1  0  0  0
 13 14  1  0  0  0
 13 31  1  0  0  0
 14 15  2  0  0  0
 14 98  1  0  0  0
 15 99  1  0  0  0
 16 17  2  0  0  0
 16 21  1  0  0  0
 16 31  1  0  0  0
 17 18  1  0  0  0
 17100  1  0  0  0
 18 19  2  0  0  0
 18101  1  0  0  0
 19 20  1  0  0  0
 19 24  1  0  0  0
 20 21  2  0  0  0
 20102  1  0  0  0
 21 23  1  0  0  0
 22 28  1  0  0  0
 22 32  2  0  0  0
 26 27  1  0  0  0
 28103  1  0  0  0
 28104  1  0  0  0
 29105  1  0  0  0
 29106  1  0  0  0
 33 34  1  0  0  0
 33 66  1  0  0  0
 33 70  2  0  0  0
 34 36  1  0  0  0
 34 59  1  0  0  0
 34107  1  0  0  0
 35 44  2  0  0  0
 35 45  1  0  0  0
 35 68  1  0  0  0
 36 56  1  0  0  0
 36108  1  0  0  0
 37 39  1  0  0  0
 37 47  1  0  0  0
 37 66  1  0  0  0
 37109  1  0  0  0
 38 43  2  0  0  0
 38 46  1  0  0  0
 38 47  1  0  0  0
 39 64  1  0  0  0
 39 67  2  0  0  0
 40 52  1  0  0  0
 40 53  2  0  0  0
 40 58  1  0  0  0
 41110  1  0  0  0
 41111  1  0  0  0
 41112  1  0  0  0
 41 48  1  0  0  0
 42 43  1  0  0  0
 42 66  1  0  0  0
 42113  1  0  0  0
 42114  1  0  0  0
 43 44  1  0  0  0
 44115  1  0  0  0
 45 46  2  0  0  0
 45116  1  0  0  0
 46117  1  0  0  0
 47118  1  0  0  0
 47119  1  0  0  0
 48 56  1  0  0  0
 48 65  1  0  0  0
 48120  1  0  0  0
 49 50  1  0  0  0
 49 53  1  0  0  0
 49 64  1  0  0  0
 49121  1  0  0  0
 50 51  1  0  0  0
 50122  1  0  0  0
 50123  1  0  0  0
 51 52  1  0  0  0
 51124  1  0  0  0
 51125  1  0  0  0
 52126  1  0  0  0
 52127  1  0  0  0
 53 54  1  0  0  0
 54 55  2  0  0  0
 54128  1  0  0  0
 55 57  1  0  0  0
 55129  1  0  0  0
 56 69  2  0  0  0
 57 58  2  0  0  0
 57130  1  0  0  0
 58131  1  0  0  0
 59 60  1  0  0  0
 59 61  1  0  0  0
 59 62  1  0  0  0
 60132  1  0  0  0
 60133  1  0  0  0
 60134  1  0  0  0
 61135  1  0  0  0
 61136  1  0  0  0
 61137  1  0  0  0
 62138  1  0  0  0
 62139  1  0  0  0
 62140  1  0  0  0
 63 65  1  0  0  0
 63141  1  0  0  0
 63142  1  0  0  0
 63143  1  0  0  0
 64144  1  0  0  0
 65145  1  0  0  0
 68 83  1  0  0  0
 71 72  2  0  0  0
 71 73  1  0  0  0
 71146  1  0  0  0
 72 75  1  0  0  0
 72147  1  0  0  0
 73 76  2  0  0  0
 73148  1  0  0  0
 74 75  2  0  0  0
 74 76  1  0  0  0
 74149  1  0  0  0
 75 84  1  0  0  0
 76 85  1  0  0  0
 77150  1  0  0  0
 77151  1  0  0  0
 77152  1  0  0  0
 77 84  1  0  0  0
 78 84  1  0  0  0
 78153  1  0  0  0
 78154  1  0  0  0
 78155  1  0  0  0
 79156  1  0  0  0
 79157  1  0  0  0
 79158  1  0  0  0
 79 86  1  0  0  0
 80 81  1  0  0  0
 80 83  1  0  0  0
 80159  1  0  0  0
 80160  1  0  0  0
 81 86  1  0  0  0
 81161  1  0  0  0
 81162  1  0  0  0
 82 84  1  0  0  0
 82 86  1  0  0  0
 82163  1  0  0  0
 82164  1  0  0  0
 83165  1  0  0  0
 83166  1  0  0  0
 85167  1  0  0  0
 86168  1  0  0  0
M  CHG  1  86   1
M  ISO  4   1 100  68 101  83 101  85 100
M  END
> <chiral flag>
0

> <version>
0

> <s_m_source_file>
/data/baiqing/PycharmProjects/Reinvent-master-3.2/result/LINK_invent/BTK/process_docking_weight1_custom_product_contain_oxygen_bond_distance_aromatic_linkinvent_7_9_3/rearranged_h_0018.sdf

> <i_m_source_file_index>
20

> <r_mmod_Potential_Energy-OPLS-2005>
-117.927833557129

> <r_mmod_Stretch_Energy-OPLS-2005>
43.3331413269043

> <r_mmod_Bend_Energy-OPLS-2005>
127.508514404297

> <r_mmod_Torsional_Energy-OPLS-2005>
248.176483154297

> <r_mmod_Improper_Torsional_Energy-OPLS-2005>
5.30085515975952

> <r_mmod_Van_der_Waal_Energy-OPLS-2005>
171.657821655273

> <r_mmod_Electrostatic_Energy-OPLS-2005>
-286.408172607422

> <r_mmod_Solvation_Energy-OPLS-2005>
-437.27099609375

> <b_mmod_Minimization_Converged-OPLS-2005>
0

> <r_mmod_RMS_Derivative-OPLS-2005>
4.92163515090942

$$$$
20
                    3D
 Structure written by MMmdl.
165174  0  0  1  0            999 V2000
  -30.7120  -14.5437   20.4319 C   0  0  0  0  0  0
  -30.4166  -12.3119   19.4418 C   0  0  0  0  0  0
  -29.4871  -12.3890   18.2135 C   0  0  0  0  0  0
  -28.0083  -12.2922   18.6350 C   0  0  0  0  0  0
  -27.6428  -13.1930   19.8466 C   0  0  2  0  0  0
  -28.6980  -13.1118   20.9693 C   0  0  0  0  0  0
  -25.2563  -13.8123   20.5751 C   0  0  0  0  0  0
  -24.1804  -13.0408   20.9245 C   0  0  0  0  0  0
  -24.6349  -11.6877   20.8792 C   0  0  0  0  0  0
  -23.9023  -10.4268   21.0427 C   0  0  0  0  0  0
  -24.3587   -9.4181   21.9194 C   0  0  0  0  0  0
  -23.6275   -8.2213   22.0746 C   0  0  0  0  0  0
  -22.4256   -8.0257   21.3529 C   0  0  0  0  0  0
  -21.9886   -9.0235   20.4638 C   0  0  0  0  0  0
  -22.7208  -10.2121   20.3067 C   0  0  0  0  0  0
  -21.6834   -6.0726   22.5277 C   0  0  0  0  0  0
  -21.3996   -6.5624   23.8216 C   0  0  0  0  0  0
  -21.3665   -5.6774   24.9175 C   0  0  0  0  0  0
  -21.6055   -4.3043   24.7220 C   0  0  0  0  0  0
  -21.8823   -3.8136   23.4338 C   0  0  0  0  0  0
  -21.9187   -4.6957   22.3396 C   0  0  0  0  0  0
  -22.7831  -13.5221   21.1863 C   0  0  0  0  0  0
  -22.1667   -4.2149   21.0973 F   0  0  0  0  0  0
  -21.5643   -3.4528   25.7734 F   0  0  0  0  0  0
  -30.0090  -13.3787   20.3676 N   0  0  0  0  0  0
  -26.2943  -12.9252   20.3337 N   0  0  0  0  0  0
  -25.9263  -11.6440   20.5828 N   0  0  0  0  0  0
  -22.0432  -12.8245   22.0418 N   0  0  0  0  0  0
  -25.4312  -15.1834   20.4204 N   0  0  0  0  0  0
  -31.9327  -14.5711   20.2567 O   0  0  0  0  0  0
  -21.6610   -6.8863   21.4236 O   0  0  0  0  0  0
  -22.3524  -14.5502   20.6655 O   0  0  0  0  0  0
  -24.6132  -31.8689   23.2098 C   0  0  0  0  0  0
  -25.9032  -32.4822   23.8389 C   0  0  1  0  0  0
  -27.2334  -27.4343   20.1107 C   0  0  0  0  0  0
  -25.5896  -33.8620   24.2322 N   0  0  0  0  0  0
  -23.4012  -30.4900   21.5508 C   0  0  2  0  0  0
  -24.8490  -28.9505   20.1202 C   0  0  0  0  0  0
  -22.7405  -29.4655   22.5003 C   0  0  0  0  0  0
  -18.0268  -28.1375   22.8493 C   0  0  0  0  0  0
  -24.1484  -36.7319   23.2635 C   0  0  0  0  0  0
  -25.9281  -30.8332   21.3636 C   0  0  0  0  0  0
  -26.0070  -29.4643   20.7190 C   0  0  0  0  0  0
  -27.2034  -28.7118   20.7141 C   0  0  0  0  0  0
  -26.0650  -26.9342   19.5022 C   0  0  0  0  0  0
  -24.8719  -27.6834   19.5093 C   0  0  0  0  0  0
  -23.6110  -29.8190   20.1663 C   0  0  0  0  0  0
  -25.4104  -36.3109   24.0329 C   0  0  1  0  0  0
  -20.5861  -28.3655   23.1328 C   0  0  2  0  0  0
  -20.6762  -26.9392   22.5423 C   0  0  0  0  0  0
  -19.5742  -26.6374   21.5220 C   0  0  0  0  0  0
  -18.1917  -26.7921   22.1621 C   0  0  0  0  0  0
  -19.1519  -28.8825   23.2912 C   0  0  0  0  0  0
  -18.9448  -30.1432   23.8923 C   0  0  0  0  0  0
  -17.6452  -30.6573   24.0574 C   0  0  0  0  0  0
  -25.9032  -34.9476   23.5124 C   0  0  0  0  0  0
  -16.5342  -29.9086   23.6327 C   0  0  0  0  0  0
  -16.7260  -28.6505   23.0343 C   0  0  0  0  0  0
  -26.4464  -31.6598   25.0712 C   0  0  0  0  0  0
  -25.3734  -31.3710   26.1463 C   0  0  0  0  0  0
  -27.0288  -30.3041   24.6074 C   0  0  0  0  0  0
  -27.6040  -32.4310   25.7478 C   0  0  0  0  0  0
  -27.5575  -37.1816   24.8462 C   0  0  0  0  0  0
  -21.4130  -29.3037   22.3742 N   0  0  0  0  0  0
  -26.4293  -37.3792   23.9398 N   0  0  0  0  0  0
  -24.6657  -31.0785   22.1003 N   0  0  0  0  0  0
  -23.4182  -28.8195   23.3038 O   0  0  0  0  0  0
  -28.3940  -26.6967   20.0663 O   0  0  0  0  0  0
  -26.5596  -34.8929   22.4686 O   0  0  0  0  0  0
  -23.5331  -32.1445   23.7508 O   0  0  0  0  0  0
  -30.5184  -19.3806   21.0147 C   0  0  0  0  0  0
  -28.5427  -18.2057   21.7729 C   0  0  0  0  0  0
  -29.8281  -20.6112   21.0906 C   0  0  0  0  0  0
  -27.8548  -19.4388   21.8502 C   0  0  0  0  0  0
  -29.8739  -18.1584   21.3160 C   0  0  0  0  0  0
  -28.4730  -20.6704   21.4954 C   0  0  0  0  0  0
  -28.1665  -16.5888   18.7634 C   0  0  0  0  0  0
  -29.3613  -17.3960   18.3455 C   0  0  0  0  0  0
  -29.5578  -16.0228   18.9790 C   0  0  0  0  0  0
  -26.3050  -21.8445   21.7110 C   0  0  0  0  0  0
  -30.6300  -16.8338   21.1169 C   0  0  0  0  0  0
  -28.0761  -24.2904   20.6928 C   0  0  0  0  0  0
  -28.4139  -23.1997   21.7502 C   0  0  0  0  0  0
  -28.5497  -25.7106   21.0992 C   0  0  0  0  0  0
  -27.7542  -21.9010   21.5101 N   0  0  0  0  0  0
  -30.0136  -15.7176   20.3366 N   0  0  0  0  0  0
  -31.4591  -12.3958   19.1274 H   0  0  0  0  0  0
  -30.3280  -11.3410   19.9303 H   0  0  0  0  0  0
  -29.7215  -11.5710   17.5304 H   0  0  0  0  0  0
  -29.6584  -13.2980   17.6436 H   0  0  0  0  0  0
  -27.8202  -11.2488   18.8906 H   0  0  0  0  0  0
  -27.3585  -12.5136   17.7869 H   0  0  0  0  0  0
  -27.6352  -14.2071   19.4702 H   0  0  0  0  0  0
  -28.6925  -12.1258   21.4369 H   0  0  0  0  0  0
  -28.4770  -13.8367   21.7543 H   0  0  0  0  0  0
  -25.2723   -9.5687   22.4773 H   0  0  0  0  0  0
  -23.9980   -7.4617   22.7486 H   0  0  0  0  0  0
  -21.0802   -8.8785   19.8958 H   0  0  0  0  0  0
  -22.3669  -10.9678   19.6200 H   0  0  0  0  0  0
  -21.1975   -7.6129   23.9731 H   0  0  0  0  0  0
  -21.1488   -6.0492   25.9086 H   0  0  0  0  0  0
  -22.0594   -2.7599   23.2838 H   0  0  0  0  0  0
  -22.4010  -11.9917   22.4857 H   0  0  0  0  0  0
  -21.1028  -13.1267   22.2533 H   0  0  0  0  0  0
  -24.6723  -15.8443   20.5461 H   0  0  0  0  0  0
  -26.2943  -15.6169   20.1189 H   0  0  0  0  0  0
  -26.7102  -32.5538   23.1156 H   0  0  0  0  0  0
  -25.0047  -33.9781   25.0465 H   0  0  0  0  0  0
  -22.6888  -31.3057   21.4114 H   0  0  0  0  0  0
  -23.3734  -35.9667   23.3313 H   0  0  0  0  0  0
  -24.3581  -36.8920   22.2047 H   0  0  0  0  0  0
  -23.7252  -37.6532   23.6646 H   0  0  0  0  0  0
  -26.0365  -31.5945   20.5895 H   0  0  0  0  0  0
  -26.8165  -30.8912   21.9800 H   0  0  0  0  0  0
  -28.1000  -29.1040   21.1735 H   0  0  0  0  0  0
  -26.0802  -25.9666   19.0203 H   0  0  0  0  0  0
  -23.9826  -27.2846   19.0402 H   0  0  0  0  0  0
  -23.7191  -30.5920   19.4045 H   0  0  0  0  0  0
  -22.7357  -29.2382   19.8710 H   0  0  0  0  0  0
  -25.1287  -36.1970   25.0822 H   0  0  0  0  0  0
  -20.9949  -28.3209   24.1453 H   0  0  0  0  0  0
  -20.5661  -26.2257   23.3606 H   0  0  0  0  0  0
  -21.6637  -26.7443   22.1216 H   0  0  0  0  0  0
  -19.6896  -25.6281   21.1258 H   0  0  0  0  0  0
  -19.6683  -27.3177   20.6743 H   0  0  0  0  0  0
  -17.4188  -26.6681   21.4014 H   0  0  0  0  0  0
  -18.0297  -26.0060   22.9010 H   0  0  0  0  0  0
  -19.7930  -30.7231   24.2303 H   0  0  0  0  0  0
  -17.5016  -31.6245   24.5191 H   0  0  0  0  0  0
  -15.5346  -30.2994   23.7641 H   0  0  0  0  0  0
  -15.8658  -28.0837   22.7047 H   0  0  0  0  0  0
  -24.5901  -30.7066   25.7798 H   0  0  0  0  0  0
  -24.8942  -32.2876   26.4914 H   0  0  0  0  0  0
  -25.8089  -30.8874   27.0216 H   0  0  0  0  0  0
  -26.2830  -29.6815   24.1121 H   0  0  0  0  0  0
  -27.4052  -29.7258   25.4519 H   0  0  0  0  0  0
  -27.8663  -30.4351   23.9218 H   0  0  0  0  0  0
  -27.2654  -33.3594   26.2090 H   0  0  0  0  0  0
  -28.3837  -32.6898   25.0301 H   0  0  0  0  0  0
  -28.0721  -31.8415   26.5371 H   0  0  0  0  0  0
  -28.2608  -38.0101   24.7500 H   0  0  0  0  0  0
  -28.1059  -36.2634   24.6300 H   0  0  0  0  0  0
  -27.2299  -37.1478   25.8869 H   0  0  0  0  0  0
  -20.9274  -29.8788   21.6999 H   0  0  0  0  0  0
  -26.0180  -38.2869   24.1402 H   0  0  0  0  0  0
  -31.5419  -19.3803   20.6663 H   0  0  0  0  0  0
  -28.0298  -17.2907   22.0337 H   0  0  0  0  0  0
  -30.3584  -21.5021   20.7891 H   0  0  0  0  0  0
  -26.8267  -19.4005   22.1765 H   0  0  0  0  0  0
  -27.5627  -16.1492   17.9717 H   0  0  0  0  0  0
  -27.6058  -16.9387   19.6248 H   0  0  0  0  0  0
  -29.5218  -18.3262   18.8708 H   0  0  0  0  0  0
  -29.5518  -17.4671   17.2769 H   0  0  0  0  0  0
  -29.8895  -15.3192   18.2211 H   0  0  0  0  0  0
  -25.8288  -21.2354   20.9409 H   0  0  0  0  0  0
  -25.8489  -22.8345   21.6698 H   0  0  0  0  0  0
  -26.0619  -21.4238   22.6879 H   0  0  0  0  0  0
  -30.8648  -16.4692   22.1202 H   0  0  0  0  0  0
  -31.5946  -17.0720   20.6630 H   0  0  0  0  0  0
  -27.0022  -24.3278   20.5154 H   0  0  0  0  0  0
  -28.5282  -24.0181   19.7389 H   0  0  0  0  0  0
  -28.0791  -23.5547   22.7264 H   0  0  0  0  0  0
  -29.4943  -23.1021   21.8458 H   0  0  0  0  0  0
  -29.6115  -25.6721   21.3453 H   0  0  0  0  0  0
  -28.0437  -26.0289   22.0126 H   0  0  0  0  0  0
  1 25  1  0  0  0
  1 30  2  0  0  0
  1 86  1  0  0  0
  2  3  1  0  0  0
  2 25  1  0  0  0
  2 87  1  0  0  0
  2 88  1  0  0  0
  3  4  1  0  0  0
  3 89  1  0  0  0
  3 90  1  0  0  0
  4  5  1  0  0  0
  4 91  1  0  0  0
  4 92  1  0  0  0
  5  6  1  0  0  0
  5 26  1  0  0  0
  5 93  1  0  0  0
  6 25  1  0  0  0
  6 94  1  0  0  0
  6 95  1  0  0  0
  7  8  2  0  0  0
  7 26  1  0  0  0
  7 29  1  0  0  0
  8  9  1  0  0  0
  8 22  1  0  0  0
  9 10  1  0  0  0
  9 27  2  0  0  0
 10 11  2  0  0  0
 10 15  1  0  0  0
 11 12  1  0  0  0
 11 96  1  0  0  0
 12 13  2  0  0  0
 12 97  1  0  0  0
 13 14  1  0  0  0
 13 31  1  0  0  0
 14 15  2  0  0  0
 14 98  1  0  0  0
 15 99  1  0  0  0
 16 17  2  0  0  0
 16 21  1  0  0  0
 16 31  1  0  0  0
 17 18  1  0  0  0
 17100  1  0  0  0
 18 19  2  0  0  0
 18101  1  0  0  0
 19 20  1  0  0  0
 19 24  1  0  0  0
 20 21  2  0  0  0
 20102  1  0  0  0
 21 23  1  0  0  0
 22 28  1  0  0  0
 22 32  2  0  0  0
 26 27  1  0  0  0
 28103  1  0  0  0
 28104  1  0  0  0
 29105  1  0  0  0
 29106  1  0  0  0
 33 34  1  0  0  0
 33 66  1  0  0  0
 33 70  2  0  0  0
 34 36  1  0  0  0
 34 59  1  0  0  0
 34107  1  0  0  0
 35 44  2  0  0  0
 35 45  1  0  0  0
 35 68  1  0  0  0
 36 56  1  0  0  0
 36108  1  0  0  0
 37 39  1  0  0  0
 37 47  1  0  0  0
 37 66  1  0  0  0
 37109  1  0  0  0
 38 43  2  0  0  0
 38 46  1  0  0  0
 38 47  1  0  0  0
 39 64  1  0  0  0
 39 67  2  0  0  0
 40 52  1  0  0  0
 40 53  2  0  0  0
 40 58  1  0  0  0
 41110  1  0  0  0
 41111  1  0  0  0
 41112  1  0  0  0
 41 48  1  0  0  0
 42 43  1  0  0  0
 42 66  1  0  0  0
 42113  1  0  0  0
 42114  1  0  0  0
 43 44  1  0  0  0
 44115  1  0  0  0
 45 46  2  0  0  0
 45116  1  0  0  0
 46117  1  0  0  0
 47118  1  0  0  0
 47119  1  0  0  0
 48 56  1  0  0  0
 48 65  1  0  0  0
 48120  1  0  0  0
 49 50  1  0  0  0
 49 53  1  0  0  0
 49 64  1  0  0  0
 49121  1  0  0  0
 50 51  1  0  0  0
 50122  1  0  0  0
 50123  1  0  0  0
 51 52  1  0  0  0
 51124  1  0  0  0
 51125  1  0  0  0
 52126  1  0  0  0
 52127  1  0  0  0
 53 54  1  0  0  0
 54 55  2  0  0  0
 54128  1  0  0  0
 55 57  1  0  0  0
 55129  1  0  0  0
 56 69  2  0  0  0
 57 58  2  0  0  0
 57130  1  0  0  0
 58131  1  0  0  0
 59 60  1  0  0  0
 59 61  1  0  0  0
 59 62  1  0  0  0
 60132  1  0  0  0
 60133  1  0  0  0
 60134  1  0  0  0
 61135  1  0  0  0
 61136  1  0  0  0
 61137  1  0  0  0
 62138  1  0  0  0
 62139  1  0  0  0
 62140  1  0  0  0
 63 65  1  0  0  0
 63141  1  0  0  0
 63142  1  0  0  0
 63143  1  0  0  0
 64144  1  0  0  0
 65145  1  0  0  0
 68 84  1  0  0  0
 71 73  2  0  0  0
 71 75  1  0  0  0
 71146  1  0  0  0
 72 74  1  0  0  0
 72 75  2  0  0  0
 72147  1  0  0  0
 73 76  1  0  0  0
 73148  1  0  0  0
 74 76  2  0  0  0
 74149  1  0  0  0
 75 81  1  0  0  0
 76 85  1  0  0  0
 77 78  1  0  0  0
 77 79  1  0  0  0
 77150  1  0  0  0
 77151  1  0  0  0
 78 79  1  0  0  0
 78152  1  0  0  0
 78153  1  0  0  0
 79 86  1  0  0  0
 79154  1  0  0  0
 80 85  1  0  0  0
 80155  1  0  0  0
 80156  1  0  0  0
 80157  1  0  0  0
 81 86  1  0  0  0
 81158  1  0  0  0
 81159  1  0  0  0
 82 83  1  0  0  0
 82 84  1  0  0  0
 82160  1  0  0  0
 82161  1  0  0  0
 83 85  1  0  0  0
 83162  1  0  0  0
 83163  1  0  0  0
 84164  1  0  0  0
 84165  1  0  0  0
M  ISO  4   1 100  68 101  84 101  86 100
M  END
> <chiral flag>
0

> <version>
0

> <s_m_source_file>
/data/baiqing/PycharmProjects/Reinvent-master-3.2/result/LINK_invent/BTK/process_docking_weight1_custom_product_contain_oxygen_bond_distance_aromatic_linkinvent_7_9_3/rearranged_h_0018.sdf

> <i_m_source_file_index>
21

> <r_mmod_Potential_Energy-OPLS-2005>
255.467010498047

> <r_mmod_Stretch_Energy-OPLS-2005>
47.222297668457

> <r_mmod_Bend_Energy-OPLS-2005>
141.737579345703

> <r_mmod_Torsional_Energy-OPLS-2005>
382.836273193359

> <r_mmod_Improper_Torsional_Energy-OPLS-2005>
13.7054328918457

> <r_mmod_Van_der_Waal_Energy-OPLS-2005>
160.312957763672

> <r_mmod_Electrostatic_Energy-OPLS-2005>
-319.779327392578

> <r_mmod_Solvation_Energy-OPLS-2005>
-204.914810180664

> <b_mmod_Minimization_Converged-OPLS-2005>
0

> <r_mmod_RMS_Derivative-OPLS-2005>
1.55623042583466

$$$$
21
                    3D
 Structure written by MMmdl.
158167  0  0  1  0            999 V2000
  -30.6383  -14.6267   20.4946 C   0  0  0  0  0  0
  -30.4388  -12.3874   19.4460 C   0  0  0  0  0  0
  -29.5023  -12.5127   18.2227 C   0  0  0  0  0  0
  -28.0288  -12.3503   18.6384 C   0  0  0  0  0  0
  -27.6567  -13.2191   19.8647 C   0  0  2  0  0  0
  -28.7031  -13.0676   20.9919 C   0  0  0  0  0  0
  -25.2566  -13.8161   20.5708 C   0  0  0  0  0  0
  -24.1823  -13.0442   20.9205 C   0  0  0  0  0  0
  -24.6390  -11.6929   20.8719 C   0  0  0  0  0  0
  -23.9083  -10.4290   21.0385 C   0  0  0  0  0  0
  -24.3620   -9.4216   21.9190 C   0  0  0  0  0  0
  -23.6281   -8.2252   22.0741 C   0  0  0  0  0  0
  -22.4248   -8.0283   21.3553 C   0  0  0  0  0  0
  -21.9897   -9.0260   20.4660 C   0  0  0  0  0  0
  -22.7236  -10.2132   20.3075 C   0  0  0  0  0  0
  -21.6867   -6.0710   22.5278 C   0  0  0  0  0  0
  -21.3999   -6.5605   23.8207 C   0  0  0  0  0  0
  -21.3671   -5.6769   24.9193 C   0  0  0  0  0  0
  -21.6052   -4.3032   24.7233 C   0  0  0  0  0  0
  -21.8817   -3.8128   23.4360 C   0  0  0  0  0  0
  -21.9192   -4.6946   22.3411 C   0  0  0  0  0  0
  -22.7835  -13.5265   21.1844 C   0  0  0  0  0  0
  -22.1682   -4.2135   21.0992 F   0  0  0  0  0  0
  -21.5660   -3.4516   25.7752 F   0  0  0  0  0  0
  -30.0276  -13.4018   20.4385 N   0  0  0  0  0  0
  -26.3007  -12.9365   20.3332 N   0  0  0  0  0  0
  -25.9318  -11.6536   20.5727 N   0  0  0  0  0  0
  -22.0444  -12.8298   22.0400 N   0  0  0  0  0  0
  -25.4290  -15.1857   20.4157 N   0  0  0  0  0  0
  -31.7786  -14.8009   20.0531 O   0  0  0  0  0  0
  -21.6657   -6.8851   21.4230 O   0  0  0  0  0  0
  -22.3539  -14.5571   20.6702 O   0  0  0  0  0  0
  -24.6274  -31.8597   23.2032 C   0  0  0  0  0  0
  -25.9145  -32.4769   23.8340 C   0  0  1  0  0  0
  -27.2053  -27.2947   20.1083 C   0  0  0  0  0  0
  -25.5952  -33.8571   24.2271 N   0  0  0  0  0  0
  -23.4200  -30.4851   21.5449 C   0  0  2  0  0  0
  -24.8666  -28.9376   20.1164 C   0  0  0  0  0  0
  -22.7470  -29.4620   22.4903 C   0  0  0  0  0  0
  -18.0304  -28.1361   22.8479 C   0  0  0  0  0  0
  -24.1504  -36.7279   23.2617 C   0  0  0  0  0  0
  -25.9670  -30.7746   21.3874 C   0  0  0  0  0  0
  -26.0369  -29.3994   20.7327 C   0  0  0  0  0  0
  -27.2135  -28.5851   20.7289 C   0  0  0  0  0  0
  -26.0256  -26.9112   19.4469 C   0  0  0  0  0  0
  -24.8632  -27.6963   19.4639 C   0  0  0  0  0  0
  -23.6380  -29.8227   20.1609 C   0  0  0  0  0  0
  -25.4122  -36.3079   24.0328 C   0  0  1  0  0  0
  -20.5895  -28.3666   23.1274 C   0  0  2  0  0  0
  -20.6796  -26.9371   22.5416 C   0  0  0  0  0  0
  -19.5768  -26.6323   21.5215 C   0  0  0  0  0  0
  -18.1946  -26.7887   22.1614 C   0  0  0  0  0  0
  -19.1554  -28.8828   23.2876 C   0  0  0  0  0  0
  -18.9457  -30.1438   23.8878 C   0  0  0  0  0  0
  -17.6452  -30.6559   24.0571 C   0  0  0  0  0  0
  -25.9062  -34.9453   23.5106 C   0  0  0  0  0  0
  -16.5350  -29.9057   23.6319 C   0  0  0  0  0  0
  -16.7291  -28.6476   23.0337 C   0  0  0  0  0  0
  -26.4511  -31.6567   25.0714 C   0  0  0  0  0  0
  -25.3737  -31.3768   26.1441 C   0  0  0  0  0  0
  -27.0282  -30.2943   24.6211 C   0  0  0  0  0  0
  -27.6082  -32.4253   25.7481 C   0  0  0  0  0  0
  -27.5597  -37.1791   24.8471 C   0  0  0  0  0  0
  -21.4180  -29.3046   22.3677 N   0  0  0  0  0  0
  -26.4301  -37.3772   23.9419 N   0  0  0  0  0  0
  -24.6897  -31.0581   22.0998 N   0  0  0  0  0  0
  -23.4214  -28.8152   23.2958 O   0  0  0  0  0  0
  -28.2939  -26.4092   20.0624 O   0  0  0  0  0  0
  -26.5608  -34.8926   22.4666 O   0  0  0  0  0  0
  -23.5414  -32.1415   23.7326 O   0  0  0  0  0  0
  -29.2571  -19.4017   21.3232 C   0  0  0  0  0  0
  -29.5466  -18.0410   21.6411 C   0  0  0  0  0  0
  -29.5710  -18.8928   18.9947 C   0  0  0  0  0  0
  -29.2220  -19.8729   19.9797 C   0  0  0  0  0  0
  -29.8297  -17.0646   20.6489 C   0  0  0  0  0  0
  -29.8560  -17.5292   19.3066 C   0  0  0  0  0  0
  -28.8580  -22.3913   20.3506 C   0  0  0  0  0  0
  -26.7735  -22.1715   18.3395 C   0  0  0  0  0  0
  -27.0605  -23.5880   18.8411 C   0  0  0  0  0  0
  -28.0462  -21.3267   18.2947 C   0  0  0  0  0  0
  -27.8588  -23.6268   20.1604 C   0  0  2  0  0  0
  -28.2015  -25.0960   20.7725 C   0  0  0  0  0  0
  -28.7225  -21.2232   19.6071 N   0  0  0  0  0  0
  -29.8978  -15.6510   21.0101 N   0  0  0  0  0  0
  -29.7210  -22.4859   21.2281 O   0  0  0  0  0  0
  -30.0808  -16.6564   18.2934 F   0  0  0  0  0  0
  -31.4759  -12.5077   19.1312 H   0  0  0  0  0  0
  -30.3791  -11.3890   19.8833 H   0  0  0  0  0  0
  -29.7564  -11.7714   17.4654 H   0  0  0  0  0  0
  -29.6409  -13.4854   17.7506 H   0  0  0  0  0  0
  -27.8583  -11.2972   18.8687 H   0  0  0  0  0  0
  -27.3765  -12.5915   17.7994 H   0  0  0  0  0  0
  -27.6803  -14.2519   19.5179 H   0  0  0  0  0  0
  -28.7000  -12.0451   21.3711 H   0  0  0  0  0  0
  -28.4358  -13.6994   21.8403 H   0  0  0  0  0  0
  -25.2729   -9.5721   22.4825 H   0  0  0  0  0  0
  -23.9963   -7.4641   22.7457 H   0  0  0  0  0  0
  -21.0821   -8.8814   19.8977 H   0  0  0  0  0  0
  -22.3656  -10.9699   19.6232 H   0  0  0  0  0  0
  -21.1961   -7.6105   23.9702 H   0  0  0  0  0  0
  -21.1511   -6.0508   25.9097 H   0  0  0  0  0  0
  -22.0579   -2.7591   23.2887 H   0  0  0  0  0  0
  -22.4017  -11.9978   22.4868 H   0  0  0  0  0  0
  -21.1102  -13.1445   22.2592 H   0  0  0  0  0  0
  -24.6688  -15.8448   20.5285 H   0  0  0  0  0  0
  -26.2878  -15.6166   20.0968 H   0  0  0  0  0  0
  -26.7201  -32.5449   23.1060 H   0  0  0  0  0  0
  -25.0176  -33.9716   25.0458 H   0  0  0  0  0  0
  -22.7127  -31.3048   21.4012 H   0  0  0  0  0  0
  -23.3759  -35.9619   23.3291 H   0  0  0  0  0  0
  -24.3595  -36.8871   22.2028 H   0  0  0  0  0  0
  -23.7256  -37.6486   23.6619 H   0  0  0  0  0  0
  -26.1142  -31.5344   20.6189 H   0  0  0  0  0  0
  -26.8393  -30.8135   22.0246 H   0  0  0  0  0  0
  -28.1144  -28.9311   21.2152 H   0  0  0  0  0  0
  -26.0016  -26.0081   18.8756 H   0  0  0  0  0  0
  -23.9814  -27.3449   18.9505 H   0  0  0  0  0  0
  -23.7744  -30.6009   19.4094 H   0  0  0  0  0  0
  -22.7544  -29.2619   19.8466 H   0  0  0  0  0  0
  -25.1288  -36.1929   25.0810 H   0  0  0  0  0  0
  -20.9985  -28.3282   24.1399 H   0  0  0  0  0  0
  -20.5653  -26.2267   23.3626 H   0  0  0  0  0  0
  -21.6682  -26.7404   22.1246 H   0  0  0  0  0  0
  -19.6921  -25.6199   21.1310 H   0  0  0  0  0  0
  -19.6719  -27.3075   20.6702 H   0  0  0  0  0  0
  -17.4205  -26.6607   21.4048 H   0  0  0  0  0  0
  -18.0400  -26.0017   22.9005 H   0  0  0  0  0  0
  -19.7953  -30.7277   24.2201 H   0  0  0  0  0  0
  -17.5014  -31.6234   24.5174 H   0  0  0  0  0  0
  -15.5345  -30.2958   23.7597 H   0  0  0  0  0  0
  -15.8705  -28.0794   22.7044 H   0  0  0  0  0  0
  -24.5970  -30.7018   25.7851 H   0  0  0  0  0  0
  -24.8856  -32.2945   26.4744 H   0  0  0  0  0  0
  -25.8065  -30.9102   27.0308 H   0  0  0  0  0  0
  -26.2852  -29.6724   24.1202 H   0  0  0  0  0  0
  -27.3869  -29.7181   25.4760 H   0  0  0  0  0  0
  -27.8812  -30.4126   23.9504 H   0  0  0  0  0  0
  -27.2723  -33.3557   26.2089 H   0  0  0  0  0  0
  -28.3894  -32.6791   25.0294 H   0  0  0  0  0  0
  -28.0764  -31.8355   26.5378 H   0  0  0  0  0  0
  -28.2614  -38.0083   24.7489 H   0  0  0  0  0  0
  -28.1068  -36.2609   24.6296 H   0  0  0  0  0  0
  -27.2329  -37.1479   25.8876 H   0  0  0  0  0  0
  -20.9294  -29.8802   21.6958 H   0  0  0  0  0  0
  -26.0183  -38.2853   24.1382 H   0  0  0  0  0  0
  -28.9968  -20.0680   22.1361 H   0  0  0  0  0  0
  -29.5087  -17.7385   22.6801 H   0  0  0  0  0  0
  -29.5829  -19.1617   17.9479 H   0  0  0  0  0  0
  -26.3112  -22.2121   17.3527 H   0  0  0  0  0  0
  -26.0439  -21.6830   18.9919 H   0  0  0  0  0  0
  -26.0768  -24.0179   19.0132 H   0  0  0  0  0  0
  -27.5522  -24.1831   18.0722 H   0  0  0  0  0  0
  -28.7421  -21.7361   17.5572 H   0  0  0  0  0  0
  -27.7440  -20.3488   17.9182 H   0  0  0  0  0  0
  -27.1121  -23.2829   20.8789 H   0  0  0  0  0  0
  -29.1659  -25.0152   21.2758 H   0  0  0  0  0  0
  -27.5091  -25.2506   21.6025 H   0  0  0  0  0  0
  -29.1219  -15.3359   21.5705 H   0  0  0  0  0  0
  1 25  1  0  0  0
  1 30  2  0  0  0
  1 84  1  0  0  0
  2  3  1  0  0  0
  2 25  1  0  0  0
  2 87  1  0  0  0
  2 88  1  0  0  0
  3  4  1  0  0  0
  3 89  1  0  0  0
  3 90  1  0  0  0
  4  5  1  0  0  0
  4 91  1  0  0  0
  4 92  1  0  0  0
  5  6  1  0  0  0
  5 26  1  0  0  0
  5 93  1  0  0  0
  6 25  1  0  0  0
  6 94  1  0  0  0
  6 95  1  0  0  0
  7  8  2  0  0  0
  7 26  1  0  0  0
  7 29  1  0  0  0
  8  9  1  0  0  0
  8 22  1  0  0  0
  9 10  1  0  0  0
  9 27  2  0  0  0
 10 11  2  0  0  0
 10 15  1  0  0  0
 11 12  1  0  0  0
 11 96  1  0  0  0
 12 13  2  0  0  0
 12 97  1  0  0  0
 13 14  1  0  0  0
 13 31  1  0  0  0
 14 15  2  0  0  0
 14 98  1  0  0  0
 15 99  1  0  0  0
 16 17  2  0  0  0
 16 21  1  0  0  0
 16 31  1  0  0  0
 17 18  1  0  0  0
 17100  1  0  0  0
 18 19  2  0  0  0
 18101  1  0  0  0
 19 20  1  0  0  0
 19 24  1  0  0  0
 20 21  2  0  0  0
 20102  1  0  0  0
 21 23  1  0  0  0
 22 28  1  0  0  0
 22 32  2  0  0  0
 26 27  1  0  0  0
 28103  1  0  0  0
 28104  1  0  0  0
 29105  1  0  0  0
 29106  1  0  0  0
 33 34  1  0  0  0
 33 66  1  0  0  0
 33 70  2  0  0  0
 34 36  1  0  0  0
 34 59  1  0  0  0
 34107  1  0  0  0
 35 44  2  0  0  0
 35 45  1  0  0  0
 35 68  1  0  0  0
 36 56  1  0  0  0
 36108  1  0  0  0
 37 39  1  0  0  0
 37 47  1  0  0  0
 37 66  1  0  0  0
 37109  1  0  0  0
 38 43  2  0  0  0
 38 46  1  0  0  0
 38 47  1  0  0  0
 39 64  1  0  0  0
 39 67  2  0  0  0
 40 52  1  0  0  0
 40 53  2  0  0  0
 40 58  1  0  0  0
 41110  1  0  0  0
 41111  1  0  0  0
 41112  1  0  0  0
 41 48  1  0  0  0
 42 43  1  0  0  0
 42 66  1  0  0  0
 42113  1  0  0  0
 42114  1  0  0  0
 43 44  1  0  0  0
 44115  1  0  0  0
 45 46  2  0  0  0
 45116  1  0  0  0
 46117  1  0  0  0
 47118  1  0  0  0
 47119  1  0  0  0
 48 56  1  0  0  0
 48 65  1  0  0  0
 48120  1  0  0  0
 49 50  1  0  0  0
 49 53  1  0  0  0
 49 64  1  0  0  0
 49121  1  0  0  0
 50 51  1  0  0  0
 50122  1  0  0  0
 50123  1  0  0  0
 51 52  1  0  0  0
 51124  1  0  0  0
 51125  1  0  0  0
 52126  1  0  0  0
 52127  1  0  0  0
 53 54  1  0  0  0
 54 55  2  0  0  0
 54128  1  0  0  0
 55 57  1  0  0  0
 55129  1  0  0  0
 56 69  2  0  0  0
 57 58  2  0  0  0
 57130  1  0  0  0
 58131  1  0  0  0
 59 60  1  0  0  0
 59 61  1  0  0  0
 59 62  1  0  0  0
 60132  1  0  0  0
 60133  1  0  0  0
 60134  1  0  0  0
 61135  1  0  0  0
 61136  1  0  0  0
 61137  1  0  0  0
 62138  1  0  0  0
 62139  1  0  0  0
 62140  1  0  0  0
 63 65  1  0  0  0
 63141  1  0  0  0
 63142  1  0  0  0
 63143  1  0  0  0
 64144  1  0  0  0
 65145  1  0  0  0
 68 82  1  0  0  0
 71 72  2  0  0  0
 71 74  1  0  0  0
 71146  1  0  0  0
 72 75  1  0  0  0
 72147  1  0  0  0
 73 74  2  0  0  0
 73 76  1  0  0  0
 73148  1  0  0  0
 74 83  1  0  0  0
 75 76  2  0  0  0
 75 84  1  0  0  0
 76 86  1  0  0  0
 77 81  1  0  0  0
 77 83  1  0  0  0
 77 85  2  0  0  0
 78 79  1  0  0  0
 78 80  1  0  0  0
 78149  1  0  0  0
 78150  1  0  0  0
 79 81  1  0  0  0
 79151  1  0  0  0
 79152  1  0  0  0
 80 83  1  0  0  0
 80153  1  0  0  0
 80154  1  0  0  0
 81 82  1  0  0  0
 81155  1  0  0  0
 82156  1  0  0  0
 82157  1  0  0  0
 84158  1  0  0  0
M  ISO  4   1 100  68 101  82 101  84 100
M  END
> <chiral flag>
0

> <version>
0

> <s_m_source_file>
/data/baiqing/PycharmProjects/Reinvent-master-3.2/result/LINK_invent/BTK/process_docking_weight1_custom_product_contain_oxygen_bond_distance_aromatic_linkinvent_7_9_3/rearranged_h_0018.sdf

> <i_m_source_file_index>
22

> <r_mmod_Potential_Energy-OPLS-2005>
230.10237121582

> <r_mmod_Stretch_Energy-OPLS-2005>
100.41813659668

> <r_mmod_Bend_Energy-OPLS-2005>
179.377517700195

> <r_mmod_Torsional_Energy-OPLS-2005>
321.13427734375

> <r_mmod_Improper_Torsional_Energy-OPLS-2005>
4.94948530197144

> <r_mmod_Van_der_Waal_Energy-OPLS-2005>
153.889846801758

> <r_mmod_Electrostatic_Energy-OPLS-2005>
-357.914794921875

> <r_mmod_Solvation_Energy-OPLS-2005>
-224.07112121582

> <b_mmod_Minimization_Converged-OPLS-2005>
0

> <r_mmod_RMS_Derivative-OPLS-2005>
5.46569585800171

$$$$
22
                    3D
 Structure written by MMmdl.
168177  0  0  1  0            999 V2000
  -30.7373  -14.4420   20.6687 C   0  0  0  0  0  0
  -30.4255  -12.3286   19.4078 C   0  0  0  0  0  0
  -29.4891  -12.5255   18.1987 C   0  0  0  0  0  0
  -28.0142  -12.3546   18.6119 C   0  0  0  0  0  0
  -27.6620  -13.1823   19.8732 C   0  0  2  0  0  0
  -28.7055  -12.9244   20.9872 C   0  0  0  0  0  0
  -25.2615  -13.8102   20.5662 C   0  0  0  0  0  0
  -24.1846  -13.0413   20.9174 C   0  0  0  0  0  0
  -24.6377  -11.6876   20.8737 C   0  0  0  0  0  0
  -23.9040  -10.4280   21.0411 C   0  0  0  0  0  0
  -24.3608   -9.4201   21.9185 C   0  0  0  0  0  0
  -23.6294   -8.2237   22.0760 C   0  0  0  0  0  0
  -22.4276   -8.0274   21.3552 C   0  0  0  0  0  0
  -21.9908   -9.0236   20.4644 C   0  0  0  0  0  0
  -22.7221  -10.2120   20.3055 C   0  0  0  0  0  0
  -21.6853   -6.0738   22.5288 C   0  0  0  0  0  0
  -21.4011   -6.5644   23.8221 C   0  0  0  0  0  0
  -21.3655   -5.6797   24.9183 C   0  0  0  0  0  0
  -21.6043   -4.3060   24.7232 C   0  0  0  0  0  0
  -21.8822   -3.8153   23.4355 C   0  0  0  0  0  0
  -21.9193   -4.6967   22.3411 C   0  0  0  0  0  0
  -22.7873  -13.5226   21.1838 C   0  0  0  0  0  0
  -22.1662   -4.2152   21.0987 F   0  0  0  0  0  0
  -21.5632   -3.4545   25.7746 F   0  0  0  0  0  0
  -30.0341  -13.2854   20.4622 N   0  0  0  0  0  0
  -26.3020  -12.9219   20.3340 N   0  0  0  0  0  0
  -25.9282  -11.6409   20.5743 N   0  0  0  0  0  0
  -22.0498  -12.8228   22.0393 N   0  0  0  0  0  0
  -25.4356  -15.1815   20.4062 N   0  0  0  0  0  0
  -31.7935  -14.6565   20.0605 O   0  0  0  0  0  0
  -21.6643   -6.8872   21.4246 O   0  0  0  0  0  0
  -22.3563  -14.5527   20.6674 O   0  0  0  0  0  0
  -24.6109  -31.8709   23.2127 C   0  0  0  0  0  0
  -25.9014  -32.4844   23.8416 C   0  0  1  0  0  0
  -27.2461  -27.4677   20.0945 C   0  0  0  0  0  0
  -25.5876  -33.8640   24.2350 N   0  0  0  0  0  0
  -23.3995  -30.4917   21.5518 C   0  0  2  0  0  0
  -24.8512  -28.9556   20.1235 C   0  0  0  0  0  0
  -22.7390  -29.4668   22.5011 C   0  0  0  0  0  0
  -18.0268  -28.1373   22.8501 C   0  0  0  0  0  0
  -24.1485  -36.7316   23.2638 C   0  0  0  0  0  0
  -25.9253  -30.8413   21.3664 C   0  0  0  0  0  0
  -26.0063  -29.4738   20.7243 C   0  0  0  0  0  0
  -27.2081  -28.7328   20.7173 C   0  0  0  0  0  0
  -26.0816  -26.9544   19.4907 C   0  0  0  0  0  0
  -24.8804  -27.6899   19.5099 C   0  0  0  0  0  0
  -23.6099  -29.8182   20.1689 C   0  0  0  0  0  0
  -25.4108  -36.3127   24.0344 C   0  0  1  0  0  0
  -20.5853  -28.3659   23.1327 C   0  0  2  0  0  0
  -20.6758  -26.9398   22.5417 C   0  0  0  0  0  0
  -19.5736  -26.6387   21.5214 C   0  0  0  0  0  0
  -18.1914  -26.7923   22.1620 C   0  0  0  0  0  0
  -19.1517  -28.8833   23.2913 C   0  0  0  0  0  0
  -18.9443  -30.1447   23.8914 C   0  0  0  0  0  0
  -17.6446  -30.6585   24.0569 C   0  0  0  0  0  0
  -25.9038  -34.9490   23.5149 C   0  0  0  0  0  0
  -16.5340  -29.9084   23.6329 C   0  0  0  0  0  0
  -16.7260  -28.6498   23.0358 C   0  0  0  0  0  0
  -26.4456  -31.6605   25.0725 C   0  0  0  0  0  0
  -25.3728  -31.3665   26.1467 C   0  0  0  0  0  0
  -27.0305  -30.3064   24.6073 C   0  0  0  0  0  0
  -27.6029  -32.4326   25.7493 C   0  0  0  0  0  0
  -27.5599  -37.1806   24.8461 C   0  0  0  0  0  0
  -21.4124  -29.3032   22.3744 N   0  0  0  0  0  0
  -26.4297  -37.3813   23.9426 N   0  0  0  0  0  0
  -24.6626  -31.0824   22.1023 N   0  0  0  0  0  0
  -23.4168  -28.8219   23.3059 O   0  0  0  0  0  0
  -28.4075  -26.7447   20.0035 O   0  0  0  0  0  0
  -26.5605  -34.8932   22.4715 O   0  0  0  0  0  0
  -23.5307  -32.1456   23.7531 O   0  0  0  0  0  0
  -31.2322  -18.2030   21.3474 C   0  0  0  0  0  0
  -31.1204  -19.6095   21.3444 C   0  0  0  0  0  0
  -31.2793  -19.6163   23.7667 C   0  0  0  0  0  0
  -31.3256  -17.4806   22.5603 C   0  0  0  0  0  0
  -31.3835  -18.2085   23.7768 C   0  0  0  0  0  0
  -31.1221  -20.3288   22.5612 C   0  0  0  0  0  0
  -31.5291  -17.5037   25.1162 C   0  0  0  0  0  0
  -32.0867  -16.0845   24.9816 C   0  0  0  0  0  0
  -31.2925  -15.2920   23.9420 C   0  0  0  0  0  0
  -31.3559  -15.9359   22.5412 C   0  0  1  0  0  0
  -28.9957  -15.8830   21.7233 C   0  0  0  0  0  0
  -29.9456  -23.8791   21.9493 C   0  0  0  0  0  0
  -29.4039  -24.7143   20.7756 C   0  0  0  0  0  0
  -30.4079  -22.4752   21.5132 C   0  0  0  0  0  0
  -28.8118  -26.0738   21.1911 C   0  0  0  0  0  0
  -30.9741  -21.7244   22.6289 N   0  0  0  0  0  0
  -30.3432  -15.2752   21.6760 N   0  0  0  0  0  0
  -31.4648  -12.4436   19.0964 H   0  0  0  0  0  0
  -30.3526  -11.3072   19.7846 H   0  0  0  0  0  0
  -29.7396  -11.8161   17.4087 H   0  0  0  0  0  0
  -29.6397  -13.5207   17.7770 H   0  0  0  0  0  0
  -27.8414  -11.2946   18.8034 H   0  0  0  0  0  0
  -27.3580  -12.6258   17.7842 H   0  0  0  0  0  0
  -27.7052  -14.2229   19.5631 H   0  0  0  0  0  0
  -28.7021  -11.8654   21.2499 H   0  0  0  0  0  0
  -28.4474  -13.4166   21.9193 H   0  0  0  0  0  0
  -25.2753   -9.5696   22.4753 H   0  0  0  0  0  0
  -24.0016   -7.4637   22.7483 H   0  0  0  0  0  0
  -21.0849   -8.8742   19.8941 H   0  0  0  0  0  0
  -22.3675  -10.9666   19.6168 H   0  0  0  0  0  0
  -21.2003   -7.6151   23.9726 H   0  0  0  0  0  0
  -21.1472   -6.0529   25.9087 H   0  0  0  0  0  0
  -22.0607   -2.7616   23.2859 H   0  0  0  0  0  0
  -22.4110  -11.9895   22.4797 H   0  0  0  0  0  0
  -21.1106  -13.1249   22.2567 H   0  0  0  0  0  0
  -24.6719  -15.8394   20.5179 H   0  0  0  0  0  0
  -26.2919  -15.6214   20.0948 H   0  0  0  0  0  0
  -26.7085  -32.5588   23.1191 H   0  0  0  0  0  0
  -25.0024  -33.9811   25.0491 H   0  0  0  0  0  0
  -22.6870  -31.3067   21.4096 H   0  0  0  0  0  0
  -23.3767  -35.9629   23.3274 H   0  0  0  0  0  0
  -24.3586  -36.8958   22.2058 H   0  0  0  0  0  0
  -23.7205  -37.6498   23.6669 H   0  0  0  0  0  0
  -26.0331  -31.6028   20.5932 H   0  0  0  0  0  0
  -26.8146  -30.9010   21.9817 H   0  0  0  0  0  0
  -28.1048  -29.1359   21.1678 H   0  0  0  0  0  0
  -26.1100  -25.9899   19.0025 H   0  0  0  0  0  0
  -23.9936  -27.2838   19.0433 H   0  0  0  0  0  0
  -23.7153  -30.5897   19.4053 H   0  0  0  0  0  0
  -22.7360  -29.2330   19.8768 H   0  0  0  0  0  0
  -25.1276  -36.2002   25.0835 H   0  0  0  0  0  0
  -20.9951  -28.3218   24.1445 H   0  0  0  0  0  0
  -20.5663  -26.2260   23.3599 H   0  0  0  0  0  0
  -21.6630  -26.7438   22.1217 H   0  0  0  0  0  0
  -19.6897  -25.6303   21.1223 H   0  0  0  0  0  0
  -19.6676  -27.3211   20.6756 H   0  0  0  0  0  0
  -17.4189  -26.6698   21.4014 H   0  0  0  0  0  0
  -18.0297  -26.0053   22.8998 H   0  0  0  0  0  0
  -19.7917  -30.7264   24.2281 H   0  0  0  0  0  0
  -17.4997  -31.6264   24.5165 H   0  0  0  0  0  0
  -15.5340  -30.2989   23.7636 H   0  0  0  0  0  0
  -15.8663  -28.0823   22.7060 H   0  0  0  0  0  0
  -24.5914  -30.7009   25.7780 H   0  0  0  0  0  0
  -24.8900  -32.2799   26.4948 H   0  0  0  0  0  0
  -25.8090  -30.8804   27.0202 H   0  0  0  0  0  0
  -26.2852  -29.6821   24.1132 H   0  0  0  0  0  0
  -27.4104  -29.7297   25.4516 H   0  0  0  0  0  0
  -27.8665  -30.4412   23.9205 H   0  0  0  0  0  0
  -27.2645  -33.3611   26.2103 H   0  0  0  0  0  0
  -28.3818  -32.6909   25.0308 H   0  0  0  0  0  0
  -28.0716  -31.8428   26.5385 H   0  0  0  0  0  0
  -28.2573  -38.0148   24.7588 H   0  0  0  0  0  0
  -28.1139  -36.2682   24.6192 H   0  0  0  0  0  0
  -27.2323  -37.1346   25.8862 H   0  0  0  0  0  0
  -20.9281  -29.8750   21.6965 H   0  0  0  0  0  0
  -26.0188  -38.2886   24.1459 H   0  0  0  0  0  0
  -31.2098  -17.6721   20.4060 H   0  0  0  0  0  0
  -31.0245  -20.1186   20.3961 H   0  0  0  0  0  0
  -31.3031  -20.1491   24.7072 H   0  0  0  0  0  0
  -30.5472  -17.4703   25.5904 H   0  0  0  0  0  0
  -32.1723  -18.0899   25.7744 H   0  0  0  0  0  0
  -32.0632  -15.5806   25.9480 H   0  0  0  0  0  0
  -33.1345  -16.1272   24.6801 H   0  0  0  0  0  0
  -30.2555  -15.2449   24.2789 H   0  0  0  0  0  0
  -31.6425  -14.2598   23.8986 H   0  0  0  0  0  0
  -32.3602  -15.7160   22.1740 H   0  0  0  0  0  0
  -28.9882  -16.9538   21.9077 H   0  0  0  0  0  0
  -28.4004  -15.4508   22.5263 H   0  0  0  0  0  0
  -28.4637  -15.7667   20.7846 H   0  0  0  0  0  0
  -29.1691  -23.7861   22.7100 H   0  0  0  0  0  0
  -30.7729  -24.4175   22.4145 H   0  0  0  0  0  0
  -28.6372  -24.1447   20.2486 H   0  0  0  0  0  0
  -30.2078  -24.8782   20.0569 H   0  0  0  0  0  0
  -31.1561  -22.5599   20.7236 H   0  0  0  0  0  0
  -29.5596  -21.9303   21.0933 H   0  0  0  0  0  0
  -29.5571  -26.6788   21.7098 H   0  0  0  0  0  0
  -27.9757  -25.9245   21.8779 H   0  0  0  0  0  0
  -30.9166  -22.1485   23.5514 H   0  0  0  0  0  0
  1 25  1  0  0  0
  1 30  2  0  0  0
  1 87  1  0  0  0
  2  3  1  0  0  0
  2 25  1  0  0  0
  2 88  1  0  0  0
  2 89  1  0  0  0
  3  4  1  0  0  0
  3 90  1  0  0  0
  3 91  1  0  0  0
  4  5  1  0  0  0
  4 92  1  0  0  0
  4 93  1  0  0  0
  5  6  1  0  0  0
  5 26  1  0  0  0
  5 94  1  0  0  0
  6 25  1  0  0  0
  6 95  1  0  0  0
  6 96  1  0  0  0
  7  8  2  0  0  0
  7 26  1  0  0  0
  7 29  1  0  0  0
  8  9  1  0  0  0
  8 22  1  0  0  0
  9 10  1  0  0  0
  9 27  2  0  0  0
 10 11  2  0  0  0
 10 15  1  0  0  0
 11 12  1  0  0  0
 11 97  1  0  0  0
 12 13  2  0  0  0
 12 98  1  0  0  0
 13 14  1  0  0  0
 13 31  1  0  0  0
 14 15  2  0  0  0
 14 99  1  0  0  0
 15100  1  0  0  0
 16 17  2  0  0  0
 16 21  1  0  0  0
 16 31  1  0  0  0
 17 18  1  0  0  0
 17101  1  0  0  0
 18 19  2  0  0  0
 18102  1  0  0  0
 19 20  1  0  0  0
 19 24  1  0  0  0
 20 21  2  0  0  0
 20103  1  0  0  0
 21 23  1  0  0  0
 22 28  1  0  0  0
 22 32  2  0  0  0
 26 27  1  0  0  0
 28104  1  0  0  0
 28105  1  0  0  0
 29106  1  0  0  0
 29107  1  0  0  0
 33 34  1  0  0  0
 33 66  1  0  0  0
 33 70  2  0  0  0
 34 36  1  0  0  0
 34 59  1  0  0  0
 34108  1  0  0  0
 35 44  2  0  0  0
 35 45  1  0  0  0
 35 68  1  0  0  0
 36 56  1  0  0  0
 36109  1  0  0  0
 37 39  1  0  0  0
 37 47  1  0  0  0
 37 66  1  0  0  0
 37110  1  0  0  0
 38 43  2  0  0  0
 38 46  1  0  0  0
 38 47  1  0  0  0
 39 64  1  0  0  0
 39 67  2  0  0  0
 40 52  1  0  0  0
 40 53  2  0  0  0
 40 58  1  0  0  0
 41111  1  0  0  0
 41112  1  0  0  0
 41113  1  0  0  0
 41 48  1  0  0  0
 42 43  1  0  0  0
 42 66  1  0  0  0
 42114  1  0  0  0
 42115  1  0  0  0
 43 44  1  0  0  0
 44116  1  0  0  0
 45 46  2  0  0  0
 45117  1  0  0  0
 46118  1  0  0  0
 47119  1  0  0  0
 47120  1  0  0  0
 48 56  1  0  0  0
 48 65  1  0  0  0
 48121  1  0  0  0
 49 50  1  0  0  0
 49 53  1  0  0  0
 49 64  1  0  0  0
 49122  1  0  0  0
 50 51  1  0  0  0
 50123  1  0  0  0
 50124  1  0  0  0
 51 52  1  0  0  0
 51125  1  0  0  0
 51126  1  0  0  0
 52127  1  0  0  0
 52128  1  0  0  0
 53 54  1  0  0  0
 54 55  2  0  0  0
 54129  1  0  0  0
 55 57  1  0  0  0
 55130  1  0  0  0
 56 69  2  0  0  0
 57 58  2  0  0  0
 57131  1  0  0  0
 58132  1  0  0  0
 59 60  1  0  0  0
 59 61  1  0  0  0
 59 62  1  0  0  0
 60133  1  0  0  0
 60134  1  0  0  0
 60135  1  0  0  0
 61136  1  0  0  0
 61137  1  0  0  0
 61138  1  0  0  0
 62139  1  0  0  0
 62140  1  0  0  0
 62141  1  0  0  0
 63 65  1  0  0  0
 63142  1  0  0  0
 63143  1  0  0  0
 63144  1  0  0  0
 64145  1  0  0  0
 65146  1  0  0  0
 68 85  1  0  0  0
 71 72  2  0  0  0
 71 74  1  0  0  0
 71147  1  0  0  0
 72 76  1  0  0  0
 72148  1  0  0  0
 73 75  1  0  0  0
 73 76  2  0  0  0
 73149  1  0  0  0
 74 75  2  0  0  0
 74 80  1  0  0  0
 75 77  1  0  0  0
 76 86  1  0  0  0
 77 78  1  0  0  0
 77150  1  0  0  0
 77151  1  0  0  0
 78 79  1  0  0  0
 78152  1  0  0  0
 78153  1  0  0  0
 79 80  1  0  0  0
 79154  1  0  0  0
 79155  1  0  0  0
 80 87  1  0  0  0
 80156  1  0  0  0
 81 87  1  0  0  0
 81157  1  0  0  0
 81158  1  0  0  0
 81159  1  0  0  0
 82 83  1  0  0  0
 82 84  1  0  0  0
 82160  1  0  0  0
 82161  1  0  0  0
 83 85  1  0  0  0
 83162  1  0  0  0
 83163  1  0  0  0
 84 86  1  0  0  0
 84164  1  0  0  0
 84165  1  0  0  0
 85166  1  0  0  0
 85167  1  0  0  0
 86168  1  0  0  0
M  ISO  4   1 100  68 101  85 101  87 100
M  END
> <chiral flag>
0

> <version>
0

> <s_m_source_file>
/data/baiqing/PycharmProjects/Reinvent-master-3.2/result/LINK_invent/BTK/process_docking_weight1_custom_product_contain_oxygen_bond_distance_aromatic_linkinvent_7_9_3/rearranged_h_0018.sdf

> <i_m_source_file_index>
23

> <r_mmod_Potential_Energy-OPLS-2005>
88.1881713867188

> <r_mmod_Stretch_Energy-OPLS-2005>
40.4809226989746

> <r_mmod_Bend_Energy-OPLS-2005>
112.136421203613

> <r_mmod_Torsional_Energy-OPLS-2005>
284.155303955078

> <r_mmod_Improper_Torsional_Energy-OPLS-2005>
5.65866184234619

> <r_mmod_Van_der_Waal_Energy-OPLS-2005>
167.840591430664

> <r_mmod_Electrostatic_Energy-OPLS-2005>
-330.652923583984

> <r_mmod_Solvation_Energy-OPLS-2005>
-199.778045654297

> <b_mmod_Minimization_Converged-OPLS-2005>
0

> <r_mmod_RMS_Derivative-OPLS-2005>
1.01662993431091

$$$$
23
                    3D
 Structure written by MMmdl.
187198  0  0  1  0            999 V2000
  -30.6996  -14.5940   20.5355 C   0  0  0  0  0  0
  -30.4229  -12.3754   19.4574 C   0  0  0  0  0  0
  -29.5035  -12.5120   18.2251 C   0  0  0  0  0  0
  -28.0245  -12.3606   18.6281 C   0  0  0  0  0  0
  -27.6543  -13.2238   19.8623 C   0  0  2  0  0  0
  -28.6939  -13.0709   20.9930 C   0  0  0  0  0  0
  -25.2565  -13.8206   20.5680 C   0  0  0  0  0  0
  -24.1834  -13.0455   20.9159 C   0  0  0  0  0  0
  -24.6410  -11.6930   20.8718 C   0  0  0  0  0  0
  -23.9078  -10.4307   21.0398 C   0  0  0  0  0  0
  -24.3631   -9.4224   21.9165 C   0  0  0  0  0  0
  -23.6312   -8.2264   22.0743 C   0  0  0  0  0  0
  -22.4289   -8.0296   21.3548 C   0  0  0  0  0  0
  -21.9930   -9.0271   20.4647 C   0  0  0  0  0  0
  -22.7256  -10.2145   20.3045 C   0  0  0  0  0  0
  -21.6861   -6.0746   22.5285 C   0  0  0  0  0  0
  -21.4016   -6.5637   23.8223 C   0  0  0  0  0  0
  -21.3664   -5.6771   24.9173 C   0  0  0  0  0  0
  -21.6068   -4.3044   24.7211 C   0  0  0  0  0  0
  -21.8823   -3.8145   23.4326 C   0  0  0  0  0  0
  -21.9193   -4.6975   22.3387 C   0  0  0  0  0  0
  -22.7835  -13.5235   21.1799 C   0  0  0  0  0  0
  -22.1649   -4.2166   21.0959 F   0  0  0  0  0  0
  -21.5651   -3.4524   25.7722 F   0  0  0  0  0  0
  -30.0228  -13.4001   20.4452 N   0  0  0  0  0  0
  -26.2993  -12.9396   20.3281 N   0  0  0  0  0  0
  -25.9335  -11.6547   20.5702 N   0  0  0  0  0  0
  -22.0481  -12.8248   22.0380 N   0  0  0  0  0  0
  -25.4321  -15.1938   20.4216 N   0  0  0  0  0  0
  -31.8063  -14.7300   20.0043 O   0  0  0  0  0  0
  -21.6658   -6.8891   21.4246 O   0  0  0  0  0  0
  -22.3493  -14.5494   20.6579 O   0  0  0  0  0  0
  -24.6246  -31.8623   23.2069 C   0  0  0  0  0  0
  -25.9102  -32.4785   23.8374 C   0  0  1  0  0  0
  -27.2125  -27.3286   20.1150 C   0  0  0  0  0  0
  -25.5928  -33.8587   24.2301 N   0  0  0  0  0  0
  -23.4146  -30.4904   21.5490 C   0  0  2  0  0  0
  -24.8586  -28.9467   20.1179 C   0  0  0  0  0  0
  -22.7467  -29.4648   22.4955 C   0  0  0  0  0  0
  -18.0290  -28.1381   22.8488 C   0  0  0  0  0  0
  -24.1496  -36.7298   23.2629 C   0  0  0  0  0  0
  -25.9574  -30.7943   21.3812 C   0  0  0  0  0  0
  -26.0280  -29.4220   20.7272 C   0  0  0  0  0  0
  -27.2077  -28.6214   20.7215 C   0  0  0  0  0  0
  -26.0330  -26.9272   19.4522 C   0  0  0  0  0  0
  -24.8615  -27.7029   19.4756 C   0  0  0  0  0  0
  -23.6298  -29.8279   20.1646 C   0  0  0  0  0  0
  -25.4114  -36.3090   24.0329 C   0  0  1  0  0  0
  -20.5894  -28.3673   23.1293 C   0  0  2  0  0  0
  -20.6779  -26.9398   22.5403 C   0  0  0  0  0  0
  -19.5750  -26.6368   21.5207 C   0  0  0  0  0  0
  -18.1934  -26.7922   22.1624 C   0  0  0  0  0  0
  -19.1545  -28.8839   23.2883 C   0  0  0  0  0  0
  -18.9456  -30.1446   23.8883 C   0  0  0  0  0  0
  -17.6456  -30.6572   24.0564 C   0  0  0  0  0  0
  -25.9039  -34.9450   23.5106 C   0  0  0  0  0  0
  -16.5351  -29.9070   23.6330 C   0  0  0  0  0  0
  -16.7277  -28.6496   23.0341 C   0  0  0  0  0  0
  -26.4491  -31.6584   25.0733 C   0  0  0  0  0  0
  -25.3728  -31.3726   26.1465 C   0  0  0  0  0  0
  -27.0319  -30.2999   24.6183 C   0  0  0  0  0  0
  -27.6069  -32.4313   25.7491 C   0  0  0  0  0  0
  -27.5587  -37.1806   24.8462 C   0  0  0  0  0  0
  -21.4182  -29.3041   22.3695 N   0  0  0  0  0  0
  -26.4301  -37.3773   23.9401 N   0  0  0  0  0  0
  -24.6842  -31.0657   22.1022 N   0  0  0  0  0  0
  -23.4203  -28.8169   23.3008 O   0  0  0  0  0  0
  -28.3556  -26.5215   20.0700 O   0  0  0  0  0  0
  -26.5602  -34.8909   22.4672 O   0  0  0  0  0  0
  -23.5419  -32.1424   23.7419 O   0  0  0  0  0  0
  -29.4730  -15.9167   25.3481 C   0  0  0  0  0  0
  -30.2078  -14.8464   24.8141 C   0  0  0  0  0  0
  -28.9303  -16.8866   24.4892 C   0  0  0  0  0  0
  -30.3967  -14.7497   23.4241 C   0  0  0  0  0  0
  -29.1154  -16.8024   23.0914 C   0  0  0  0  0  0
  -29.8571  -15.7246   22.5400 C   0  0  0  0  0  0
  -29.3840  -19.6257   20.5744 C   0  0  0  0  0  0
  -28.4908  -17.8955   22.2289 C   0  0  0  0  0  0
  -26.1321  -16.8565   15.9243 C   0  0  0  0  0  0
  -27.1291  -17.4721   14.9490 C   0  0  0  0  0  0
  -29.7657  -22.8353   20.2882 C   0  0  0  0  0  0
  -27.3362  -22.6970   20.6319 C   0  0  0  0  0  0
  -29.6280  -24.3709   19.9522 C   0  0  0  0  0  0
  -27.1469  -24.1780   20.1881 C   0  0  0  0  0  0
  -30.2216  -17.0418   20.4863 C   0  0  0  0  0  0
  -26.3965  -17.6190   17.2233 C   0  0  0  0  0  0
  -27.1890  -18.9400   15.3829 C   0  0  0  0  0  0
  -29.0644  -18.0784   20.7979 C   0  0  2  0  0  0
  -28.5111  -22.0143   19.8747 C   0  0  2  0  0  0
  -28.3595  -25.1020   20.5089 C   0  0  1  0  0  0
  -27.4210  -19.9523   19.0833 C   0  0  0  0  0  0
  -27.9396  -19.5214   17.6908 C   0  0  0  0  0  0
  -30.0918  -15.6832   21.1259 N   0  0  0  0  0  0
  -28.5028  -20.4885   19.9412 N   0  0  0  0  0  0
  -26.8596  -18.9731   16.8296 N   0  3  0  0  0  0
  -30.4357  -20.0440   21.0616 O   0  0  0  0  0  0
  -31.4679  -12.4665   19.1582 H   0  0  0  0  0  0
  -30.3333  -11.3829   19.8977 H   0  0  0  0  0  0
  -29.7614  -11.7614   17.4759 H   0  0  0  0  0  0
  -29.6581  -13.4856   17.7567 H   0  0  0  0  0  0
  -27.8431  -11.3059   18.8364 H   0  0  0  0  0  0
  -27.3814  -12.6174   17.7861 H   0  0  0  0  0  0
  -27.6756  -14.2632   19.5327 H   0  0  0  0  0  0
  -28.6962  -12.0532   21.3850 H   0  0  0  0  0  0
  -28.4096  -13.7023   21.8324 H   0  0  0  0  0  0
  -25.2790   -9.5715   22.4719 H   0  0  0  0  0  0
  -24.0046   -7.4654   22.7455 H   0  0  0  0  0  0
  -21.0871   -8.8793   19.8942 H   0  0  0  0  0  0
  -22.3730  -10.9678   19.6138 H   0  0  0  0  0  0
  -21.1999   -7.6141   23.9741 H   0  0  0  0  0  0
  -21.1473   -6.0482   25.9076 H   0  0  0  0  0  0
  -22.0595   -2.7612   23.2804 H   0  0  0  0  0  0
  -22.4097  -11.9922   22.4798 H   0  0  0  0  0  0
  -21.1089  -13.1259   22.2536 H   0  0  0  0  0  0
  -24.6858  -15.8530   20.6091 H   0  0  0  0  0  0
  -26.3160  -15.6371   20.2092 H   0  0  0  0  0  0
  -26.7170  -32.5462   23.1125 H   0  0  0  0  0  0
  -25.0113  -33.9727   25.0473 H   0  0  0  0  0  0
  -22.7052  -31.3089   21.4074 H   0  0  0  0  0  0
  -23.3751  -35.9644   23.3316 H   0  0  0  0  0  0
  -24.3576  -36.8881   22.2035 H   0  0  0  0  0  0
  -23.7261  -37.6509   23.6638 H   0  0  0  0  0  0
  -26.0881  -31.5612   20.6167 H   0  0  0  0  0  0
  -26.8381  -30.8405   22.0103 H   0  0  0  0  0  0
  -28.1085  -28.9848   21.1961 H   0  0  0  0  0  0
  -25.9943  -26.0175   18.8797 H   0  0  0  0  0  0
  -23.9738  -27.3468   18.9695 H   0  0  0  0  0  0
  -23.7513  -30.6020   19.4065 H   0  0  0  0  0  0
  -22.7508  -29.2563   19.8621 H   0  0  0  0  0  0
  -25.1309  -36.1947   25.0825 H   0  0  0  0  0  0
  -20.9987  -28.3238   24.1416 H   0  0  0  0  0  0
  -20.5668  -26.2278   23.3597 H   0  0  0  0  0  0
  -21.6650  -26.7425   22.1199 H   0  0  0  0  0  0
  -19.6903  -25.6276   21.1227 H   0  0  0  0  0  0
  -19.6693  -27.3195   20.6751 H   0  0  0  0  0  0
  -17.4211  -26.6689   21.4019 H   0  0  0  0  0  0
  -18.0320  -26.0061   22.9016 H   0  0  0  0  0  0
  -19.7929  -30.7269   24.2236 H   0  0  0  0  0  0
  -17.5008  -31.6248   24.5171 H   0  0  0  0  0  0
  -15.5344  -30.2962   23.7630 H   0  0  0  0  0  0
  -15.8696  -28.0795   22.7052 H   0  0  0  0  0  0
  -24.5923  -30.7047   25.7797 H   0  0  0  0  0  0
  -24.8899  -32.2895   26.4861 H   0  0  0  0  0  0
  -25.8059  -30.8926   27.0251 H   0  0  0  0  0  0
  -26.2886  -29.6755   24.1213 H   0  0  0  0  0  0
  -27.4003  -29.7247   25.4682 H   0  0  0  0  0  0
  -27.8773  -30.4253   23.9415 H   0  0  0  0  0  0
  -27.2695  -33.3618   26.2069 H   0  0  0  0  0  0
  -28.3877  -32.6852   25.0310 H   0  0  0  0  0  0
  -28.0753  -31.8438   26.5395 H   0  0  0  0  0  0
  -28.2618  -38.0090   24.7498 H   0  0  0  0  0  0
  -28.1073  -36.2618   24.6327 H   0  0  0  0  0  0
  -27.2299  -37.1506   25.8862 H   0  0  0  0  0  0
  -20.9351  -29.8763   21.6925 H   0  0  0  0  0  0
  -26.0191  -38.2856   24.1384 H   0  0  0  0  0  0
  -29.3315  -15.9984   26.4176 H   0  0  0  0  0  0
  -30.6394  -14.1063   25.4745 H   0  0  0  0  0  0
  -28.3727  -17.7067   24.9195 H   0  0  0  0  0  0
  -30.9893  -13.9185   23.0683 H   0  0  0  0  0  0
  -28.5527  -18.8282   22.7949 H   0  0  0  0  0  0
  -27.4257  -17.6709   22.1515 H   0  0  0  0  0  0
  -26.2543  -15.7787   16.0404 H   0  0  0  0  0  0
  -25.1134  -17.0450   15.5824 H   0  0  0  0  0  0
  -26.8347  -17.3498   13.9056 H   0  0  0  0  0  0
  -28.1092  -17.0108   15.0762 H   0  0  0  0  0  0
  -29.9595  -22.7121   21.3540 H   0  0  0  0  0  0
  -30.6446  -22.4407   19.7777 H   0  0  0  0  0  0
  -26.3946  -22.1778   20.4627 H   0  0  0  0  0  0
  -27.4997  -22.6464   21.7094 H   0  0  0  0  0  0
  -29.6350  -24.4829   18.8669 H   0  0  0  0  0  0
  -30.5190  -24.8903   20.3051 H   0  0  0  0  0  0
  -26.2473  -24.5628   20.6696 H   0  0  0  0  0  0
  -26.9674  -24.1706   19.1131 H   0  0  0  0  0  0
  -31.1822  -17.4599   20.7933 H   0  0  0  0  0  0
  -30.2911  -16.9275   19.4027 H   0  0  0  0  0  0
  -27.1738  -17.0982   17.7856 H   0  0  0  0  0  0
  -25.5127  -17.6672   17.8612 H   0  0  0  0  0  0
  -26.4249  -19.5097   14.8519 H   0  0  0  0  0  0
  -28.1494  -19.3986   15.1431 H   0  0  0  0  0  0
  -28.2794  -17.7586   20.1212 H   0  0  0  0  0  0
  -28.3829  -22.2402   18.8144 H   0  0  0  0  0  0
  -28.4555  -25.1324   21.5954 H   0  0  0  0  0  0
  -26.8682  -19.1598   19.5854 H   0  0  0  0  0  0
  -26.6519  -20.7047   18.9144 H   0  0  0  0  0  0
  -28.7598  -18.8054   17.7661 H   0  0  0  0  0  0
  -28.3547  -20.4025   17.1999 H   0  0  0  0  0  0
  -26.0708  -19.6003   16.9016 H   0  0  0  0  0  0
  1 25  1  0  0  0
  1 30  2  0  0  0
  1 93  1  0  0  0
  2  3  1  0  0  0
  2 25  1  0  0  0
  2 97  1  0  0  0
  2 98  1  0  0  0
  3  4  1  0  0  0
  3 99  1  0  0  0
  3100  1  0  0  0
  4  5  1  0  0  0
  4101  1  0  0  0
  4102  1  0  0  0
  5  6  1  0  0  0
  5 26  1  0  0  0
  5103  1  0  0  0
  6 25  1  0  0  0
  6104  1  0  0  0
  6105  1  0  0  0
  7  8  2  0  0  0
  7 26  1  0  0  0
  7 29  1  0  0  0
  8  9  1  0  0  0
  8 22  1  0  0  0
  9 10  1  0  0  0
  9 27  2  0  0  0
 10 11  2  0  0  0
 10 15  1  0  0  0
 11 12  1  0  0  0
 11106  1  0  0  0
 12 13  2  0  0  0
 12107  1  0  0  0
 13 14  1  0  0  0
 13 31  1  0  0  0
 14 15  2  0  0  0
 14108  1  0  0  0
 15109  1  0  0  0
 16 17  2  0  0  0
 16 21  1  0  0  0
 16 31  1  0  0  0
 17 18  1  0  0  0
 17110  1  0  0  0
 18 19  2  0  0  0
 18111  1  0  0  0
 19 20  1  0  0  0
 19 24  1  0  0  0
 20 21  2  0  0  0
 20112  1  0  0  0
 21 23  1  0  0  0
 22 28  1  0  0  0
 22 32  2  0  0  0
 26 27  1  0  0  0
 28113  1  0  0  0
 28114  1  0  0  0
 29115  1  0  0  0
 29116  1  0  0  0
 33 34  1  0  0  0
 33 66  1  0  0  0
 33 70  2  0  0  0
 34 36  1  0  0  0
 34 59  1  0  0  0
 34117  1  0  0  0
 35 44  2  0  0  0
 35 45  1  0  0  0
 35 68  1  0  0  0
 36 56  1  0  0  0
 36118  1  0  0  0
 37 39  1  0  0  0
 37 47  1  0  0  0
 37 66  1  0  0  0
 37119  1  0  0  0
 38 43  2  0  0  0
 38 46  1  0  0  0
 38 47  1  0  0  0
 39 64  1  0  0  0
 39 67  2  0  0  0
 40 52  1  0  0  0
 40 53  2  0  0  0
 40 58  1  0  0  0
 41120  1  0  0  0
 41121  1  0  0  0
 41122  1  0  0  0
 41 48  1  0  0  0
 42 43  1  0  0  0
 42 66  1  0  0  0
 42123  1  0  0  0
 42124  1  0  0  0
 43 44  1  0  0  0
 44125  1  0  0  0
 45 46  2  0  0  0
 45126  1  0  0  0
 46127  1  0  0  0
 47128  1  0  0  0
 47129  1  0  0  0
 48 56  1  0  0  0
 48 65  1  0  0  0
 48130  1  0  0  0
 49 50  1  0  0  0
 49 53  1  0  0  0
 49 64  1  0  0  0
 49131  1  0  0  0
 50 51  1  0  0  0
 50132  1  0  0  0
 50133  1  0  0  0
 51 52  1  0  0  0
 51134  1  0  0  0
 51135  1  0  0  0
 52136  1  0  0  0
 52137  1  0  0  0
 53 54  1  0  0  0
 54 55  2  0  0  0
 54138  1  0  0  0
 55 57  1  0  0  0
 55139  1  0  0  0
 56 69  2  0  0  0
 57 58  2  0  0  0
 57140  1  0  0  0
 58141  1  0  0  0
 59 60  1  0  0  0
 59 61  1  0  0  0
 59 62  1  0  0  0
 60142  1  0  0  0
 60143  1  0  0  0
 60144  1  0  0  0
 61145  1  0  0  0
 61146  1  0  0  0
 61147  1  0  0  0
 62148  1  0  0  0
 62149  1  0  0  0
 62150  1  0  0  0
 63 65  1  0  0  0
 63151  1  0  0  0
 63152  1  0  0  0
 63153  1  0  0  0
 64154  1  0  0  0
 65155  1  0  0  0
 68 90  1  0  0  0
 71 72  2  0  0  0
 71 73  1  0  0  0
 71156  1  0  0  0
 72 74  1  0  0  0
 72157  1  0  0  0
 73 75  2  0  0  0
 73158  1  0  0  0
 74 76  2  0  0  0
 74159  1  0  0  0
 75 76  1  0  0  0
 75 78  1  0  0  0
 76 93  1  0  0  0
 77 94  1  0  0  0
 77 96  2  0  0  0
 77 88  1  0  0  0
 78 88  1  0  0  0
 78160  1  0  0  0
 78161  1  0  0  0
 79 80  1  0  0  0
 79 86  1  0  0  0
 79162  1  0  0  0
 79163  1  0  0  0
 80 87  1  0  0  0
 80164  1  0  0  0
 80165  1  0  0  0
 81 83  1  0  0  0
 81 89  1  0  0  0
 81166  1  0  0  0
 81167  1  0  0  0
 82 84  1  0  0  0
 82 89  1  0  0  0
 82168  1  0  0  0
 82169  1  0  0  0
 83 90  1  0  0  0
 83170  1  0  0  0
 83171  1  0  0  0
 84 90  1  0  0  0
 84172  1  0  0  0
 84173  1  0  0  0
 85 88  1  0  0  0
 85 93  1  0  0  0
 85174  1  0  0  0
 85175  1  0  0  0
 86 95  1  0  0  0
 86176  1  0  0  0
 86177  1  0  0  0
 87 95  1  0  0  0
 87178  1  0  0  0
 87179  1  0  0  0
 88180  1  0  0  0
 89 94  1  0  0  0
 89181  1  0  0  0
 90182  1  0  0  0
 91 92  1  0  0  0
 91 94  1  0  0  0
 91183  1  0  0  0
 91184  1  0  0  0
 92185  1  0  0  0
 92186  1  0  0  0
 92 95  1  0  0  0
 95187  1  0  0  0
M  CHG  1  95   1
M  ISO  4   1 100  68 101  90 101  93 100
M  END
> <chiral flag>
0

> <version>
0

> <s_m_source_file>
/data/baiqing/PycharmProjects/Reinvent-master-3.2/result/LINK_invent/BTK/process_docking_weight1_custom_product_contain_oxygen_bond_distance_aromatic_linkinvent_7_9_3/rearranged_h_0018.sdf

> <i_m_source_file_index>
24

> <r_mmod_Potential_Energy-OPLS-2005>
297.814483642578

> <r_mmod_Stretch_Energy-OPLS-2005>
93.16552734375

> <r_mmod_Bend_Energy-OPLS-2005>
203.014694213867

> <r_mmod_Torsional_Energy-OPLS-2005>
401.452728271484

> <r_mmod_Improper_Torsional_Energy-OPLS-2005>
5.25137233734131

> <r_mmod_Van_der_Waal_Energy-OPLS-2005>
161.98991394043

> <r_mmod_Electrostatic_Energy-OPLS-2005>
-130.848327636719

> <r_mmod_Solvation_Energy-OPLS-2005>
-471.740753173828

> <b_mmod_Minimization_Converged-OPLS-2005>
0

> <r_mmod_RMS_Derivative-OPLS-2005>
2.93414282798767

$$$$
24
                    3D
 Structure written by MMmdl.
165173  0  0  1  0            999 V2000
  -30.7398  -14.4636   20.6365 C   0  0  0  0  0  0
  -30.4175  -12.3240   19.4350 C   0  0  0  0  0  0
  -29.5054  -12.5348   18.2083 C   0  0  0  0  0  0
  -28.0222  -12.3834   18.6018 C   0  0  0  0  0  0
  -27.6608  -13.2092   19.8659 C   0  0  2  0  0  0
  -28.6922  -12.9689   20.9858 C   0  0  0  0  0  0
  -25.2601  -13.8160   20.5625 C   0  0  0  0  0  0
  -24.1859  -13.0441   20.9142 C   0  0  0  0  0  0
  -24.6383  -11.6905   20.8641 C   0  0  0  0  0  0
  -23.9029  -10.4303   21.0319 C   0  0  0  0  0  0
  -24.3598   -9.4246   21.9117 C   0  0  0  0  0  0
  -23.6285   -8.2283   22.0731 C   0  0  0  0  0  0
  -22.4268   -8.0284   21.3533 C   0  0  0  0  0  0
  -21.9889   -9.0224   20.4606 C   0  0  0  0  0  0
  -22.7197  -10.2114   20.2976 C   0  0  0  0  0  0
  -21.6849   -6.0742   22.5291 C   0  0  0  0  0  0
  -21.4005   -6.5636   23.8224 C   0  0  0  0  0  0
  -21.3671   -5.6781   24.9178 C   0  0  0  0  0  0
  -21.6041   -4.3043   24.7220 C   0  0  0  0  0  0
  -21.8823   -3.8148   23.4338 C   0  0  0  0  0  0
  -21.9200   -4.6973   22.3406 C   0  0  0  0  0  0
  -22.7895  -13.5248   21.1855 C   0  0  0  0  0  0
  -22.1667   -4.2158   21.0986 F   0  0  0  0  0  0
  -21.5641   -3.4529   25.7736 F   0  0  0  0  0  0
  -30.0228  -13.3102   20.4604 N   0  0  0  0  0  0
  -26.3013  -12.9323   20.3256 N   0  0  0  0  0  0
  -25.9300  -11.6469   20.5629 N   0  0  0  0  0  0
  -22.0554  -12.8178   22.0375 N   0  0  0  0  0  0
  -25.4351  -15.1876   20.4042 N   0  0  0  0  0  0
  -31.8459  -14.5952   20.0995 O   0  0  0  0  0  0
  -21.6633   -6.8885   21.4250 O   0  0  0  0  0  0
  -22.3569  -14.5577   20.6749 O   0  0  0  0  0  0
  -24.6108  -31.8703   23.2074 C   0  0  0  0  0  0
  -25.8990  -32.4850   23.8375 C   0  0  1  0  0  0
  -27.2217  -27.4388   20.1098 C   0  0  0  0  0  0
  -25.5829  -33.8642   24.2285 N   0  0  0  0  0  0
  -23.3976  -30.4948   21.5464 C   0  0  2  0  0  0
  -24.8443  -28.9604   20.1116 C   0  0  0  0  0  0
  -22.7405  -29.4687   22.4972 C   0  0  0  0  0  0
  -18.0270  -28.1417   22.8499 C   0  0  0  0  0  0
  -24.1469  -36.7321   23.2647 C   0  0  0  0  0  0
  -25.9261  -30.8410   21.3572 C   0  0  0  0  0  0
  -26.0024  -29.4725   20.7106 C   0  0  0  0  0  0
  -27.1958  -28.7176   20.7064 C   0  0  0  0  0  0
  -26.0542  -26.9430   19.4972 C   0  0  0  0  0  0
  -24.8637  -27.6931   19.5016 C   0  0  0  0  0  0
  -23.6055  -29.8257   20.1615 C   0  0  0  0  0  0
  -25.4096  -36.3141   24.0340 C   0  0  1  0  0  0
  -20.5859  -28.3676   23.1340 C   0  0  2  0  0  0
  -20.6761  -26.9416   22.5428 C   0  0  0  0  0  0
  -19.5721  -26.6408   21.5261 C   0  0  0  0  0  0
  -18.1891  -26.7990   22.1645 C   0  0  0  0  0  0
  -19.1525  -28.8866   23.2920 C   0  0  0  0  0  0
  -18.9453  -30.1487   23.8922 C   0  0  0  0  0  0
  -17.6468  -30.6612   24.0600 C   0  0  0  0  0  0
  -25.9019  -34.9497   23.5140 C   0  0  0  0  0  0
  -16.5349  -29.9128   23.6349 C   0  0  0  0  0  0
  -16.7263  -28.6561   23.0365 C   0  0  0  0  0  0
  -26.4403  -31.6623   25.0699 C   0  0  0  0  0  0
  -25.3645  -31.3673   26.1410 C   0  0  0  0  0  0
  -27.0252  -30.3100   24.6019 C   0  0  0  0  0  0
  -27.5993  -32.4312   25.7472 C   0  0  0  0  0  0
  -27.5568  -37.1818   24.8480 C   0  0  0  0  0  0
  -21.4132  -29.3049   22.3760 N   0  0  0  0  0  0
  -26.4287  -37.3829   23.9417 N   0  0  0  0  0  0
  -24.6635  -31.0828   22.0950 N   0  0  0  0  0  0
  -23.4198  -28.8229   23.2993 O   0  0  0  0  0  0
  -28.3811  -26.7022   20.0841 O   0  0  0  0  0  0
  -26.5655  -34.8957   22.4744 O   0  0  0  0  0  0
  -23.5299  -32.1441   23.7458 O   0  0  0  0  0  0
  -29.4934  -18.8381   22.0308 C   0  0  0  0  0  0
  -29.2062  -18.6398   19.6284 C   0  0  0  0  0  0
  -28.7640  -20.0519   22.0181 C   0  0  0  0  0  0
  -28.4921  -19.8568   19.6104 C   0  0  0  0  0  0
  -29.7253  -18.1201   20.8337 C   0  0  0  0  0  0
  -28.2755  -20.5782   20.8007 C   0  0  0  0  0  0
  -27.6076  -15.6687   23.9668 C   0  0  0  0  0  0
  -28.2814  -15.8952   22.8299 C   0  0  0  0  0  0
  -26.1700  -21.6439   21.1718 C   0  0  0  0  0  0
  -30.6469  -16.8901   20.7854 C   0  0  0  0  0  0
  -29.7428  -15.5345   22.6274 C   0  0  0  0  0  0
  -27.7873  -24.2777   20.4493 C   0  0  0  0  0  0
  -28.2862  -22.9936   21.1621 C   0  0  0  0  0  0
  -28.4414  -25.5788   20.9781 C   0  0  0  0  0  0
  -27.5575  -21.7884   20.7394 N   0  0  0  0  0  0
  -30.1349  -15.5541   21.2063 N   0  0  0  0  0  0
  -31.4681  -12.4050   19.1464 H   0  0  0  0  0  0
  -30.3074  -11.3106   19.8269 H   0  0  0  0  0  0
  -29.7625  -11.8251   17.4204 H   0  0  0  0  0  0
  -29.6752  -13.5323   17.7943 H   0  0  0  0  0  0
  -27.8288  -11.3257   18.7783 H   0  0  0  0  0  0
  -27.3816  -12.6712   17.7681 H   0  0  0  0  0  0
  -27.7106  -14.2619   19.5827 H   0  0  0  0  0  0
  -28.6854  -11.9189   21.2823 H   0  0  0  0  0  0
  -28.4130  -13.5052   21.8837 H   0  0  0  0  0  0
  -25.2747   -9.5765   22.4659 H   0  0  0  0  0  0
  -24.0005   -7.4701   22.7469 H   0  0  0  0  0  0
  -21.0824   -8.8682   19.8911 H   0  0  0  0  0  0
  -22.3618  -10.9606   19.6051 H   0  0  0  0  0  0
  -21.1959   -7.6136   23.9731 H   0  0  0  0  0  0
  -21.1492   -6.0506   25.9089 H   0  0  0  0  0  0
  -22.0584   -2.7603   23.2833 H   0  0  0  0  0  0
  -22.4162  -11.9782   22.4652 H   0  0  0  0  0  0
  -21.1180  -13.1180   22.2647 H   0  0  0  0  0  0
  -24.6800  -15.8498   20.5413 H   0  0  0  0  0  0
  -26.2854  -15.6188   20.0647 H   0  0  0  0  0  0
  -26.7048  -32.5555   23.1135 H   0  0  0  0  0  0
  -24.9957  -33.9813   25.0421 H   0  0  0  0  0  0
  -22.6863  -31.3105   21.4033 H   0  0  0  0  0  0
  -23.3768  -35.9622   23.3350 H   0  0  0  0  0  0
  -24.3582  -36.8911   22.2058 H   0  0  0  0  0  0
  -23.7193  -37.6520   23.6649 H   0  0  0  0  0  0
  -26.0382  -31.6010   20.5818 H   0  0  0  0  0  0
  -26.8176  -30.9021   21.9668 H   0  0  0  0  0  0
  -28.0951  -29.1088   21.1588 H   0  0  0  0  0  0
  -26.0726  -25.9775   19.0115 H   0  0  0  0  0  0
  -23.9703  -27.2969   19.0390 H   0  0  0  0  0  0
  -23.6958  -30.5988   19.3971 H   0  0  0  0  0  0
  -22.7320  -29.2380   19.8772 H   0  0  0  0  0  0
  -25.1271  -36.2021   25.0834 H   0  0  0  0  0  0
  -20.9954  -28.3222   24.1467 H   0  0  0  0  0  0
  -20.5741  -26.2262   23.3608 H   0  0  0  0  0  0
  -21.6605  -26.7517   22.1136 H   0  0  0  0  0  0
  -19.6869  -25.6339   21.1238 H   0  0  0  0  0  0
  -19.6655  -27.3265   20.6843 H   0  0  0  0  0  0
  -17.4176  -26.6812   21.4016 H   0  0  0  0  0  0
  -18.0177  -26.0157   22.9029 H   0  0  0  0  0  0
  -19.7945  -30.7301   24.2262 H   0  0  0  0  0  0
  -17.5039  -31.6299   24.5211 H   0  0  0  0  0  0
  -15.5353  -30.3057   23.7700 H   0  0  0  0  0  0
  -15.8658  -28.0915   22.7057 H   0  0  0  0  0  0
  -24.5894  -30.6939   25.7724 H   0  0  0  0  0  0
  -24.8721  -32.2784   26.4810 H   0  0  0  0  0  0
  -25.7964  -30.8885   27.0212 H   0  0  0  0  0  0
  -26.2788  -29.6856   24.1087 H   0  0  0  0  0  0
  -27.4138  -29.7287   25.4405 H   0  0  0  0  0  0
  -27.8543  -30.4498   23.9077 H   0  0  0  0  0  0
  -27.2690  -33.3667   26.1992 H   0  0  0  0  0  0
  -28.3850  -32.6789   25.0317 H   0  0  0  0  0  0
  -28.0615  -31.8461   26.5428 H   0  0  0  0  0  0
  -28.2608  -38.0100   24.7574 H   0  0  0  0  0  0
  -28.1044  -36.2644   24.6272 H   0  0  0  0  0  0
  -27.2295  -37.1457   25.8889 H   0  0  0  0  0  0
  -20.9269  -29.8808   21.7019 H   0  0  0  0  0  0
  -26.0180  -38.2903   24.1462 H   0  0  0  0  0  0
  -29.8913  -18.4824   22.9702 H   0  0  0  0  0  0
  -29.3887  -18.1312   18.6926 H   0  0  0  0  0  0
  -28.5919  -20.5774   22.9472 H   0  0  0  0  0  0
  -28.1302  -20.2441   18.6677 H   0  0  0  0  0  0
  -26.5680  -15.9436   24.0650 H   0  0  0  0  0  0
  -28.0847  -15.2079   24.8188 H   0  0  0  0  0  0
  -27.7692  -16.3691   22.0032 H   0  0  0  0  0  0
  -25.8341  -20.6040   21.1459 H   0  0  0  0  0  0
  -25.5102  -22.2227   20.5235 H   0  0  0  0  0  0
  -26.0376  -22.0062   22.1928 H   0  0  0  0  0  0
  -31.5359  -17.1118   21.3770 H   0  0  0  0  0  0
  -31.0056  -16.8424   19.7541 H   0  0  0  0  0  0
  -29.9577  -14.5737   23.1013 H   0  0  0  0  0  0
  -30.3498  -16.2466   23.1888 H   0  0  0  0  0  0
  -26.7093  -24.3668   20.5709 H   0  0  0  0  0  0
  -27.9798  -24.1855   19.3780 H   0  0  0  0  0  0
  -28.1934  -23.1017   22.2440 H   0  0  0  0  0  0
  -29.3519  -22.8636   20.9586 H   0  0  0  0  0  0
  -29.4981  -25.3857   21.1600 H   0  0  0  0  0  0
  -28.0189  -25.8313   21.9532 H   0  0  0  0  0  0
  1 25  1  0  0  0
  1 30  2  0  0  0
  1 86  1  0  0  0
  2  3  1  0  0  0
  2 25  1  0  0  0
  2 87  1  0  0  0
  2 88  1  0  0  0
  3  4  1  0  0  0
  3 89  1  0  0  0
  3 90  1  0  0  0
  4  5  1  0  0  0
  4 91  1  0  0  0
  4 92  1  0  0  0
  5  6  1  0  0  0
  5 26  1  0  0  0
  5 93  1  0  0  0
  6 25  1  0  0  0
  6 94  1  0  0  0
  6 95  1  0  0  0
  7  8  2  0  0  0
  7 26  1  0  0  0
  7 29  1  0  0  0
  8  9  1  0  0  0
  8 22  1  0  0  0
  9 10  1  0  0  0
  9 27  2  0  0  0
 10 11  2  0  0  0
 10 15  1  0  0  0
 11 12  1  0  0  0
 11 96  1  0  0  0
 12 13  2  0  0  0
 12 97  1  0  0  0
 13 14  1  0  0  0
 13 31  1  0  0  0
 14 15  2  0  0  0
 14 98  1  0  0  0
 15 99  1  0  0  0
 16 17  2  0  0  0
 16 21  1  0  0  0
 16 31  1  0  0  0
 17 18  1  0  0  0
 17100  1  0  0  0
 18 19  2  0  0  0
 18101  1  0  0  0
 19 20  1  0  0  0
 19 24  1  0  0  0
 20 21  2  0  0  0
 20102  1  0  0  0
 21 23  1  0  0  0
 22 28  1  0  0  0
 22 32  2  0  0  0
 26 27  1  0  0  0
 28103  1  0  0  0
 28104  1  0  0  0
 29105  1  0  0  0
 29106  1  0  0  0
 33 34  1  0  0  0
 33 66  1  0  0  0
 33 70  2  0  0  0
 34 36  1  0  0  0
 34 59  1  0  0  0
 34107  1  0  0  0
 35 44  2  0  0  0
 35 45  1  0  0  0
 35 68  1  0  0  0
 36 56  1  0  0  0
 36108  1  0  0  0
 37 39  1  0  0  0
 37 47  1  0  0  0
 37 66  1  0  0  0
 37109  1  0  0  0
 38 43  2  0  0  0
 38 46  1  0  0  0
 38 47  1  0  0  0
 39 64  1  0  0  0
 39 67  2  0  0  0
 40 52  1  0  0  0
 40 53  2  0  0  0
 40 58  1  0  0  0
 41110  1  0  0  0
 41111  1  0  0  0
 41112  1  0  0  0
 41 48  1  0  0  0
 42 43  1  0  0  0
 42 66  1  0  0  0
 42113  1  0  0  0
 42114  1  0  0  0
 43 44  1  0  0  0
 44115  1  0  0  0
 45 46  2  0  0  0
 45116  1  0  0  0
 46117  1  0  0  0
 47118  1  0  0  0
 47119  1  0  0  0
 48 56  1  0  0  0
 48 65  1  0  0  0
 48120  1  0  0  0
 49 50  1  0  0  0
 49 53  1  0  0  0
 49 64  1  0  0  0
 49121  1  0  0  0
 50 51  1  0  0  0
 50122  1  0  0  0
 50123  1  0  0  0
 51 52  1  0  0  0
 51124  1  0  0  0
 51125  1  0  0  0
 52126  1  0  0  0
 52127  1  0  0  0
 53 54  1  0  0  0
 54 55  2  0  0  0
 54128  1  0  0  0
 55 57  1  0  0  0
 55129  1  0  0  0
 56 69  2  0  0  0
 57 58  2  0  0  0
 57130  1  0  0  0
 58131  1  0  0  0
 59 60  1  0  0  0
 59 61  1  0  0  0
 59 62  1  0  0  0
 60132  1  0  0  0
 60133  1  0  0  0
 60134  1  0  0  0
 61135  1  0  0  0
 61136  1  0  0  0
 61137  1  0  0  0
 62138  1  0  0  0
 62139  1  0  0  0
 62140  1  0  0  0
 63 65  1  0  0  0
 63141  1  0  0  0
 63142  1  0  0  0
 63143  1  0  0  0
 64144  1  0  0  0
 65145  1  0  0  0
 68 84  1  0  0  0
 71 73  2  0  0  0
 71 75  1  0  0  0
 71146  1  0  0  0
 72 74  1  0  0  0
 72 75  2  0  0  0
 72147  1  0  0  0
 73 76  1  0  0  0
 73148  1  0  0  0
 74 76  2  0  0  0
 74149  1  0  0  0
 75 80  1  0  0  0
 76 85  1  0  0  0
 77 78  2  0  0  0
 77150  1  0  0  0
 77151  1  0  0  0
 78 81  1  0  0  0
 78152  1  0  0  0
 79 85  1  0  0  0
 79153  1  0  0  0
 79154  1  0  0  0
 79155  1  0  0  0
 80 86  1  0  0  0
 80156  1  0  0  0
 80157  1  0  0  0
 81 86  1  0  0  0
 81158  1  0  0  0
 81159  1  0  0  0
 82 83  1  0  0  0
 82 84  1  0  0  0
 82160  1  0  0  0
 82161  1  0  0  0
 83 85  1  0  0  0
 83162  1  0  0  0
 83163  1  0  0  0
 84164  1  0  0  0
 84165  1  0  0  0
M  ISO  4   1 100  68 101  84 101  86 100
M  END
> <chiral flag>
0

> <version>
0

> <s_m_source_file>
/data/baiqing/PycharmProjects/Reinvent-master-3.2/result/LINK_invent/BTK/process_docking_weight1_custom_product_contain_oxygen_bond_distance_aromatic_linkinvent_7_9_3/rearranged_h_0018.sdf

> <i_m_source_file_index>
25

> <r_mmod_Potential_Energy-OPLS-2005>
128.659515380859

> <r_mmod_Stretch_Energy-OPLS-2005>
42.9963531494141

> <r_mmod_Bend_Energy-OPLS-2005>
113.35132598877

> <r_mmod_Torsional_Energy-OPLS-2005>
304.653656005859

> <r_mmod_Improper_Torsional_Energy-OPLS-2005>
12.3316707611084

> <r_mmod_Van_der_Waal_Energy-OPLS-2005>
153.069274902344

> <r_mmod_Electrostatic_Energy-OPLS-2005>
-313.290130615234

> <r_mmod_Solvation_Energy-OPLS-2005>
-196.457305908203

> <b_mmod_Minimization_Converged-OPLS-2005>
0

> <r_mmod_RMS_Derivative-OPLS-2005>
4.56736660003662

$$$$
25
                    3D
 Structure written by MMmdl.
163172  0  0  1  0            999 V2000
  -30.6361  -14.7188   20.3683 C   0  0  0  0  0  0
  -30.4462  -12.3996   19.4849 C   0  0  0  0  0  0
  -29.5235  -12.3574   18.2479 C   0  0  0  0  0  0
  -28.0332  -12.2908   18.6564 C   0  0  0  0  0  0
  -27.6405  -13.2117   19.8476 C   0  0  2  0  0  0
  -28.6989  -13.1866   20.9670 C   0  0  0  0  0  0
  -25.2557  -13.8140   20.5751 C   0  0  0  0  0  0
  -24.1828  -13.0434   20.9288 C   0  0  0  0  0  0
  -24.6376  -11.6898   20.8821 C   0  0  0  0  0  0
  -23.9047  -10.4286   21.0432 C   0  0  0  0  0  0
  -24.3607   -9.4204   21.9201 C   0  0  0  0  0  0
  -23.6301   -8.2229   22.0759 C   0  0  0  0  0  0
  -22.4286   -8.0264   21.3538 C   0  0  0  0  0  0
  -21.9914   -9.0242   20.4656 C   0  0  0  0  0  0
  -22.7234  -10.2129   20.3072 C   0  0  0  0  0  0
  -21.6867   -6.0734   22.5280 C   0  0  0  0  0  0
  -21.4020   -6.5635   23.8210 C   0  0  0  0  0  0
  -21.3662   -5.6786   24.9168 C   0  0  0  0  0  0
  -21.6049   -4.3049   24.7216 C   0  0  0  0  0  0
  -21.8833   -3.8152   23.4337 C   0  0  0  0  0  0
  -21.9205   -4.6971   22.3403 C   0  0  0  0  0  0
  -22.7850  -13.5254   21.1923 C   0  0  0  0  0  0
  -22.1683   -4.2158   21.0982 F   0  0  0  0  0  0
  -21.5618   -3.4544   25.7727 F   0  0  0  0  0  0
  -29.9944  -13.5029   20.3547 N   0  0  0  0  0  0
  -26.2967  -12.9301   20.3384 N   0  0  0  0  0  0
  -25.9315  -11.6480   20.5904 N   0  0  0  0  0  0
  -22.0456  -12.8242   22.0438 N   0  0  0  0  0  0
  -25.4274  -15.1868   20.4106 N   0  0  0  0  0  0
  -31.8577  -14.7747   20.2102 O   0  0  0  0  0  0
  -21.6638   -6.8876   21.4245 O   0  0  0  0  0  0
  -22.3562  -14.5564   20.6761 O   0  0  0  0  0  0
  -24.6242  -31.8597   23.2039 C   0  0  0  0  0  0
  -25.9098  -32.4773   23.8361 C   0  0  1  0  0  0
  -27.2319  -27.3259   20.1309 C   0  0  0  0  0  0
  -25.5925  -33.8576   24.2289 N   0  0  0  0  0  0
  -23.4179  -30.4832   21.5456 C   0  0  2  0  0  0
  -24.8668  -28.9416   20.1135 C   0  0  0  0  0  0
  -22.7473  -29.4606   22.4940 C   0  0  0  0  0  0
  -18.0277  -28.1378   22.8481 C   0  0  0  0  0  0
  -24.1481  -36.7292   23.2640 C   0  0  0  0  0  0
  -25.9577  -30.7941   21.3757 C   0  0  0  0  0  0
  -26.0304  -29.4208   20.7236 C   0  0  0  0  0  0
  -27.2101  -28.6241   20.7278 C   0  0  0  0  0  0
  -26.0413  -26.8997   19.4931 C   0  0  0  0  0  0
  -24.8730  -27.6842   19.4915 C   0  0  0  0  0  0
  -23.6354  -29.8218   20.1586 C   0  0  0  0  0  0
  -25.4103  -36.3081   24.0330 C   0  0  1  0  0  0
  -20.5877  -28.3672   23.1298 C   0  0  2  0  0  0
  -20.6785  -26.9395   22.5424 C   0  0  0  0  0  0
  -19.5763  -26.6371   21.5216 C   0  0  0  0  0  0
  -18.1931  -26.7928   22.1610 C   0  0  0  0  0  0
  -19.1533  -28.8836   23.2884 C   0  0  0  0  0  0
  -18.9456  -30.1447   23.8896 C   0  0  0  0  0  0
  -17.6463  -30.6590   24.0553 C   0  0  0  0  0  0
  -25.9042  -34.9453   23.5103 C   0  0  0  0  0  0
  -16.5346  -29.9091   23.6332 C   0  0  0  0  0  0
  -16.7267  -28.6499   23.0351 C   0  0  0  0  0  0
  -26.4512  -31.6589   25.0727 C   0  0  0  0  0  0
  -25.3765  -31.3725   26.1464 C   0  0  0  0  0  0
  -27.0381  -30.3020   24.6193 C   0  0  0  0  0  0
  -27.6071  -32.4336   25.7499 C   0  0  0  0  0  0
  -27.5576  -37.1794   24.8466 C   0  0  0  0  0  0
  -21.4184  -29.3027   22.3696 N   0  0  0  0  0  0
  -26.4282  -37.3776   23.9415 N   0  0  0  0  0  0
  -24.6843  -31.0627   22.0987 N   0  0  0  0  0  0
  -23.4200  -28.8141   23.3013 O   0  0  0  0  0  0
  -28.3862  -26.5298   20.2029 O   0  0  0  0  0  0
  -26.5599  -34.8923   22.4674 O   0  0  0  0  0  0
  -23.5404  -32.1395   23.7383 O   0  0  0  0  0  0
  -29.0242  -19.1684   21.7074 C   0  0  0  0  0  0
  -30.7769  -19.5386   20.1075 C   0  0  0  0  0  0
  -29.1032  -17.7583   21.4807 C   0  0  0  0  0  0
  -30.8759  -18.1329   19.8966 C   0  0  0  0  0  0
  -29.8283  -20.1049   20.9970 C   0  0  0  0  0  0
  -30.0212  -17.1989   20.5500 C   0  0  0  0  0  0
  -26.7966  -22.9403   21.8398 C   0  0  0  0  0  0
  -27.7812  -24.0832   22.1237 C   0  0  0  0  0  0
  -27.4051  -22.1360   20.6810 C   0  0  0  0  0  0
  -28.8054  -24.0407   20.9758 C   0  0  2  0  0  0
  -29.5232  -15.9155   18.6058 C   0  0  0  0  0  0
  -29.7879  -21.6597   21.2808 C   0  0  0  0  0  0
  -28.4037  -25.0922   19.8478 C   0  0  0  0  0  0
  -29.8734  -15.8325   20.0363 N   0  0  0  0  0  0
  -28.8136  -22.5729   20.5463 N   0  3  1  0  0  0
  -31.4871  -12.5164   19.1777 H   0  0  0  0  0  0
  -30.3989  -11.4524   20.0267 H   0  0  0  0  0  0
  -29.7625  -11.4674   17.6633 H   0  0  0  0  0  0
  -29.7251  -13.1867   17.5741 H   0  0  0  0  0  0
  -27.8472  -11.2543   18.9374 H   0  0  0  0  0  0
  -27.3915  -12.4844   17.7967 H   0  0  0  0  0  0
  -27.5959  -14.2229   19.4590 H   0  0  0  0  0  0
  -28.7351  -12.2115   21.4519 H   0  0  0  0  0  0
  -28.4539  -13.9141   21.7416 H   0  0  0  0  0  0
  -25.2754   -9.5689   22.4770 H   0  0  0  0  0  0
  -24.0032   -7.4630   22.7483 H   0  0  0  0  0  0
  -21.0842   -8.8766   19.8966 H   0  0  0  0  0  0
  -22.3710  -10.9661   19.6164 H   0  0  0  0  0  0
  -21.2006   -7.6139   23.9711 H   0  0  0  0  0  0
  -21.1474   -6.0513   25.9069 H   0  0  0  0  0  0
  -22.0608   -2.7622   23.2831 H   0  0  0  0  0  0
  -22.4060  -11.9885   22.4801 H   0  0  0  0  0  0
  -21.1050  -13.1249   22.2584 H   0  0  0  0  0  0
  -24.6629  -15.8431   20.5255 H   0  0  0  0  0  0
  -26.2851  -15.6238   20.0971 H   0  0  0  0  0  0
  -26.7170  -32.5455   23.1110 H   0  0  0  0  0  0
  -25.0110  -33.9725   25.0457 H   0  0  0  0  0  0
  -22.7086  -31.3002   21.4025 H   0  0  0  0  0  0
  -23.3748  -35.9620   23.3304 H   0  0  0  0  0  0
  -24.3579  -36.8913   22.2056 H   0  0  0  0  0  0
  -23.7232  -37.6496   23.6661 H   0  0  0  0  0  0
  -26.0875  -31.5563   20.6057 H   0  0  0  0  0  0
  -26.8384  -30.8437   22.0050 H   0  0  0  0  0  0
  -28.0990  -28.9930   21.2198 H   0  0  0  0  0  0
  -25.9568  -25.9588   18.9776 H   0  0  0  0  0  0
  -23.9819  -27.3100   19.0051 H   0  0  0  0  0  0
  -23.7556  -30.6007   19.4034 H   0  0  0  0  0  0
  -22.7576  -29.2509   19.8542 H   0  0  0  0  0  0
  -25.1286  -36.1932   25.0820 H   0  0  0  0  0  0
  -20.9938  -28.3226   24.1427 H   0  0  0  0  0  0
  -20.5697  -26.2254   23.3603 H   0  0  0  0  0  0
  -21.6650  -26.7443   22.1194 H   0  0  0  0  0  0
  -19.6931  -25.6282   21.1238 H   0  0  0  0  0  0
  -19.6723  -27.3190   20.6752 H   0  0  0  0  0  0
  -17.4211  -26.6657   21.4014 H   0  0  0  0  0  0
  -18.0329  -26.0080   22.9011 H   0  0  0  0  0  0
  -19.7932  -30.7258   24.2260 H   0  0  0  0  0  0
  -17.5018  -31.6271   24.5163 H   0  0  0  0  0  0
  -15.5355  -30.2995   23.7675 H   0  0  0  0  0  0
  -15.8645  -28.0832   22.7076 H   0  0  0  0  0  0
  -24.5898  -30.7117   25.7808 H   0  0  0  0  0  0
  -24.9002  -32.2900   26.4935 H   0  0  0  0  0  0
  -25.8089  -30.8866   27.0217 H   0  0  0  0  0  0
  -26.2973  -29.6733   24.1232 H   0  0  0  0  0  0
  -27.4127  -29.7305   25.4701 H   0  0  0  0  0  0
  -27.8815  -30.4339   23.9405 H   0  0  0  0  0  0
  -27.2667  -33.3623   26.2096 H   0  0  0  0  0  0
  -28.3865  -32.6916   25.0318 H   0  0  0  0  0  0
  -28.0757  -31.8452   26.5398 H   0  0  0  0  0  0
  -28.2590  -38.0094   24.7516 H   0  0  0  0  0  0
  -28.1069  -36.2627   24.6280 H   0  0  0  0  0  0
  -27.2295  -37.1438   25.8868 H   0  0  0  0  0  0
  -20.9341  -29.8757   21.6927 H   0  0  0  0  0  0
  -26.0164  -38.2847   24.1441 H   0  0  0  0  0  0
  -28.3135  -19.5345   22.4361 H   0  0  0  0  0  0
  -31.4501  -20.1878   19.5648 H   0  0  0  0  0  0
  -28.4030  -17.1131   21.9949 H   0  0  0  0  0  0
  -31.5914  -17.7782   19.1661 H   0  0  0  0  0  0
  -25.8081  -23.3145   21.5723 H   0  0  0  0  0  0
  -26.6746  -22.3131   22.7249 H   0  0  0  0  0  0
  -28.2805  -23.8985   23.0755 H   0  0  0  0  0  0
  -27.2868  -25.0507   22.2157 H   0  0  0  0  0  0
  -26.8848  -22.3951   19.7585 H   0  0  0  0  0  0
  -27.2786  -21.0606   20.8005 H   0  0  0  0  0  0
  -29.7909  -24.3260   21.3458 H   0  0  0  0  0  0
  -30.4055  -16.0966   17.9882 H   0  0  0  0  0  0
  -28.8248  -16.7351   18.4303 H   0  0  0  0  0  0
  -29.0358  -15.0372   18.2090 H   0  0  0  0  0  0
  -30.7886  -22.0503   21.0952 H   0  0  0  0  0  0
  -29.6362  -21.7897   22.3528 H   0  0  0  0  0  0
  -27.4740  -24.7490   19.4113 H   0  0  0  0  0  0
  -29.1234  -25.0030   19.0337 H   0  0  0  0  0  0
  -29.0756  -22.5088   19.5727 H   0  0  0  0  0  0
  1 25  1  0  0  0
  1 30  2  0  0  0
  1 84  1  0  0  0
  2  3  1  0  0  0
  2 25  1  0  0  0
  2 86  1  0  0  0
  2 87  1  0  0  0
  3  4  1  0  0  0
  3 88  1  0  0  0
  3 89  1  0  0  0
  4  5  1  0  0  0
  4 90  1  0  0  0
  4 91  1  0  0  0
  5  6  1  0  0  0
  5 26  1  0  0  0
  5 92  1  0  0  0
  6 25  1  0  0  0
  6 93  1  0  0  0
  6 94  1  0  0  0
  7  8  2  0  0  0
  7 26  1  0  0  0
  7 29  1  0  0  0
  8  9  1  0  0  0
  8 22  1  0  0  0
  9 10  1  0  0  0
  9 27  2  0  0  0
 10 11  2  0  0  0
 10 15  1  0  0  0
 11 12  1  0  0  0
 11 95  1  0  0  0
 12 13  2  0  0  0
 12 96  1  0  0  0
 13 14  1  0  0  0
 13 31  1  0  0  0
 14 15  2  0  0  0
 14 97  1  0  0  0
 15 98  1  0  0  0
 16 17  2  0  0  0
 16 21  1  0  0  0
 16 31  1  0  0  0
 17 18  1  0  0  0
 17 99  1  0  0  0
 18 19  2  0  0  0
 18100  1  0  0  0
 19 20  1  0  0  0
 19 24  1  0  0  0
 20 21  2  0  0  0
 20101  1  0  0  0
 21 23  1  0  0  0
 22 28  1  0  0  0
 22 32  2  0  0  0
 26 27  1  0  0  0
 28102  1  0  0  0
 28103  1  0  0  0
 29104  1  0  0  0
 29105  1  0  0  0
 33 34  1  0  0  0
 33 66  1  0  0  0
 33 70  2  0  0  0
 34 36  1  0  0  0
 34 59  1  0  0  0
 34106  1  0  0  0
 35 44  2  0  0  0
 35 45  1  0  0  0
 35 68  1  0  0  0
 36 56  1  0  0  0
 36107  1  0  0  0
 37 39  1  0  0  0
 37 47  1  0  0  0
 37 66  1  0  0  0
 37108  1  0  0  0
 38 43  2  0  0  0
 38 46  1  0  0  0
 38 47  1  0  0  0
 39 64  1  0  0  0
 39 67  2  0  0  0
 40 52  1  0  0  0
 40 53  2  0  0  0
 40 58  1  0  0  0
 41109  1  0  0  0
 41110  1  0  0  0
 41111  1  0  0  0
 41 48  1  0  0  0
 42 43  1  0  0  0
 42 66  1  0  0  0
 42112  1  0  0  0
 42113  1  0  0  0
 43 44  1  0  0  0
 44114  1  0  0  0
 45 46  2  0  0  0
 45115  1  0  0  0
 46116  1  0  0  0
 47117  1  0  0  0
 47118  1  0  0  0
 48 56  1  0  0  0
 48 65  1  0  0  0
 48119  1  0  0  0
 49 50  1  0  0  0
 49 53  1  0  0  0
 49 64  1  0  0  0
 49120  1  0  0  0
 50 51  1  0  0  0
 50121  1  0  0  0
 50122  1  0  0  0
 51 52  1  0  0  0
 51123  1  0  0  0
 51124  1  0  0  0
 52125  1  0  0  0
 52126  1  0  0  0
 53 54  1  0  0  0
 54 55  2  0  0  0
 54127  1  0  0  0
 55 57  1  0  0  0
 55128  1  0  0  0
 56 69  2  0  0  0
 57 58  2  0  0  0
 57129  1  0  0  0
 58130  1  0  0  0
 59 60  1  0  0  0
 59 61  1  0  0  0
 59 62  1  0  0  0
 60131  1  0  0  0
 60132  1  0  0  0
 60133  1  0  0  0
 61134  1  0  0  0
 61135  1  0  0  0
 61136  1  0  0  0
 62137  1  0  0  0
 62138  1  0  0  0
 62139  1  0  0  0
 63 65  1  0  0  0
 63140  1  0  0  0
 63141  1  0  0  0
 63142  1  0  0  0
 64143  1  0  0  0
 65144  1  0  0  0
 68 83  1  0  0  0
 71 73  2  0  0  0
 71 75  1  0  0  0
 71145  1  0  0  0
 72 74  1  0  0  0
 72 75  2  0  0  0
 72146  1  0  0  0
 73 76  1  0  0  0
 73147  1  0  0  0
 74 76  2  0  0  0
 74148  1  0  0  0
 75 82  1  0  0  0
 76 84  1  0  0  0
 77 78  1  0  0  0
 77 79  1  0  0  0
 77149  1  0  0  0
 77150  1  0  0  0
 78 80  1  0  0  0
 78151  1  0  0  0
 78152  1  0  0  0
 79 85  1  0  0  0
 79153  1  0  0  0
 79154  1  0  0  0
 80 83  1  0  0  0
 80 85  1  0  0  0
 80155  1  0  0  0
 81 84  1  0  0  0
 81156  1  0  0  0
 81157  1  0  0  0
 81158  1  0  0  0
 82159  1  0  0  0
 82160  1  0  0  0
 82 85  1  0  0  0
 83161  1  0  0  0
 83162  1  0  0  0
 85163  1  0  0  0
M  CHG  1  85   1
M  ISO  4   1 100  68 101  83 101  84 100
M  END
> <chiral flag>
0

> <version>
0

> <s_m_source_file>
/data/baiqing/PycharmProjects/Reinvent-master-3.2/result/LINK_invent/BTK/process_docking_weight1_custom_product_contain_oxygen_bond_distance_aromatic_linkinvent_7_9_3/rearranged_h_0018.sdf

> <i_m_source_file_index>
26

> <r_mmod_Potential_Energy-OPLS-2005>
328.926177978516

> <r_mmod_Stretch_Energy-OPLS-2005>
85.8461532592773

> <r_mmod_Bend_Energy-OPLS-2005>
179.420166015625

> <r_mmod_Torsional_Energy-OPLS-2005>
393.027008056641

> <r_mmod_Improper_Torsional_Energy-OPLS-2005>
22.8528118133545

> <r_mmod_Van_der_Waal_Energy-OPLS-2005>
144.573226928711

> <r_mmod_Electrostatic_Energy-OPLS-2005>
-151.15983581543

> <r_mmod_Solvation_Energy-OPLS-2005>
-419.261199951172

> <b_mmod_Minimization_Converged-OPLS-2005>
0

> <r_mmod_RMS_Derivative-OPLS-2005>
3.28759908676147

$$$$
26
                    3D
 Structure written by MMmdl.
150158  0  0  1  0            999 V2000
  -30.1827  -15.9010   20.3170 C   0  0  0  0  0  0
  -30.3996  -13.2881   19.5164 C   0  0  0  0  0  0
  -29.5524  -12.7144   18.3358 C   0  0  0  0  0  0
  -28.1549  -12.2839   18.8033 C   0  0  0  0  0  0
  -27.5820  -13.3082   19.8005 C   0  0  2  0  0  0
  -28.5816  -13.7750   20.8915 C   0  0  0  0  0  0
  -25.2272  -13.8206   20.5793 C   0  0  0  0  0  0
  -24.1683  -13.0371   20.9308 C   0  0  0  0  0  0
  -24.6406  -11.6896   20.8784 C   0  0  0  0  0  0
  -23.9107  -10.4254   21.0405 C   0  0  0  0  0  0
  -24.3641   -9.4167   21.9186 C   0  0  0  0  0  0
  -23.6296   -8.2217   22.0760 C   0  0  0  0  0  0
  -22.4282   -8.0265   21.3548 C   0  0  0  0  0  0
  -21.9929   -9.0243   20.4644 C   0  0  0  0  0  0
  -22.7276  -10.2114   20.3047 C   0  0  0  0  0  0
  -21.6845   -6.0717   22.5279 C   0  0  0  0  0  0
  -21.4004   -6.5621   23.8211 C   0  0  0  0  0  0
  -21.3669   -5.6775   24.9176 C   0  0  0  0  0  0
  -21.6059   -4.3040   24.7228 C   0  0  0  0  0  0
  -21.8816   -3.8126   23.4347 C   0  0  0  0  0  0
  -21.9191   -4.6943   22.3404 C   0  0  0  0  0  0
  -22.7705  -13.5136   21.1920 C   0  0  0  0  0  0
  -22.1653   -4.2123   21.0981 F   0  0  0  0  0  0
  -21.5654   -3.4530   25.7743 F   0  0  0  0  0  0
  -29.7004  -14.4868   20.2055 N   0  0  0  0  0  0
  -26.2730  -12.9556   20.3251 N   0  0  0  0  0  0
  -25.9357  -11.6627   20.5719 N   0  0  0  0  0  0
  -22.0363  -12.8125   22.0471 N   0  0  0  0  0  0
  -25.3758  -15.1938   20.4200 N   0  0  0  0  0  0
  -31.4321  -15.7902   20.2995 O   0  0  0  0  0  0
  -21.6644   -6.8862   21.4240 O   0  0  0  0  0  0
  -22.3397  -14.5442   20.6750 O   0  0  0  0  0  0
  -24.7022  -31.7804   23.1354 C   0  0  0  0  0  0
  -25.9523  -32.4371   23.7966 C   0  0  1  0  0  0
  -27.2262  -26.5271   20.2537 C   0  0  0  0  0  0
  -25.6043  -33.8202   24.1859 N   0  0  0  0  0  0
  -23.5343  -30.3741   21.4947 C   0  0  2  0  0  0
  -24.9866  -28.6713   20.1336 C   0  0  0  0  0  0
  -22.7860  -29.4218   22.4687 C   0  0  0  0  0  0
  -18.0357  -28.1423   22.8451 C   0  0  0  0  0  0
  -24.1489  -36.7107   23.2653 C   0  0  0  0  0  0
  -26.1206  -30.4583   21.4192 C   0  0  0  0  0  0
  -26.1804  -28.9996   20.7849 C   0  0  0  0  0  0
  -27.2803  -27.9653   20.7984 C   0  0  0  0  0  0
  -25.9928  -26.4478   19.5437 C   0  0  0  0  0  0
  -24.9409  -27.4232   19.4862 C   0  0  0  0  0  0
  -23.7945  -29.6503   20.1401 C   0  0  0  0  0  0
  -25.4136  -36.2834   24.0285 C   0  0  1  0  0  0
  -20.6003  -28.3794   23.1127 C   0  0  2  0  0  0
  -20.6812  -26.9442   22.5402 C   0  0  0  0  0  0
  -19.5776  -26.6367   21.5225 C   0  0  0  0  0  0
  -18.1965  -26.7958   22.1617 C   0  0  0  0  0  0
  -19.1630  -28.8934   23.2767 C   0  0  0  0  0  0
  -18.9521  -30.1516   23.8815 C   0  0  0  0  0  0
  -17.6505  -30.6597   24.0543 C   0  0  0  0  0  0
  -25.9140  -34.9238   23.4912 C   0  0  0  0  0  0
  -16.5396  -29.9075   23.6342 C   0  0  0  0  0  0
  -16.7339  -28.6495   23.0371 C   0  0  0  0  0  0
  -26.4634  -31.6465   25.0652 C   0  0  0  0  0  0
  -25.3660  -31.3811   26.1243 C   0  0  0  0  0  0
  -27.0576  -30.2795   24.6621 C   0  0  0  0  0  0
  -27.6082  -32.4331   25.7466 C   0  0  0  0  0  0
  -27.5553  -37.1702   24.8466 C   0  0  0  0  0  0
  -21.4491  -29.3027   22.3450 N   0  0  0  0  0  0
  -26.4235  -37.3623   23.9442 N   0  0  0  0  0  0
  -24.8114  -30.9093   22.0687 N   0  0  0  0  0  0
  -23.4230  -28.7844   23.3100 O   0  0  0  0  0  0
  -28.2152  -25.2710   20.2354 O   0  0  0  0  0  0
  -26.5767  -34.8861   22.4522 O   0  0  0  0  0  0
  -23.6005  -32.0949   23.6213 O   0  0  0  0  0  0
  -27.9060  -20.2436   20.6938 C   0  0  0  0  0  0
  -29.9581  -20.6317   19.9104 C   0  0  0  0  0  0
  -27.5518  -21.9335   20.1569 C   0  0  0  0  0  0
  -29.7253  -22.3660   20.3711 C   0  0  0  0  0  0
  -29.2994  -19.1810   20.5772 C   0  0  2  0  0  0
  -28.3441  -23.4350   20.4931 C   0  0  1  0  0  0
  -28.0292  -17.1269   19.8005 C   0  0  0  0  0  0
  -29.3935  -17.3304   20.2716 N   0  0  0  0  0  0
  -31.3602  -13.6085   19.1104 H   0  0  0  0  0  0
  -30.6443  -12.5018   20.2335 H   0  0  0  0  0  0
  -30.0673  -11.8743   17.8665 H   0  0  0  0  0  0
  -29.4522  -13.4787   17.5651 H   0  0  0  0  0  0
  -28.2414  -11.3147   19.2937 H   0  0  0  0  0  0
  -27.4836  -12.1416   17.9541 H   0  0  0  0  0  0
  -27.3899  -14.1643   19.1599 H   0  0  0  0  0  0
  -28.9152  -12.9509   21.5231 H   0  0  0  0  0  0
  -28.0907  -14.4853   21.5580 H   0  0  0  0  0  0
  -25.2774   -9.5640   22.4776 H   0  0  0  0  0  0
  -23.9987   -7.4607   22.7489 H   0  0  0  0  0  0
  -21.0858   -8.8766   19.8954 H   0  0  0  0  0  0
  -22.3724  -10.9655   19.6163 H   0  0  0  0  0  0
  -21.1969   -7.6124   23.9705 H   0  0  0  0  0  0
  -21.1512   -6.0507   25.9082 H   0  0  0  0  0  0
  -22.0586   -2.7583   23.2859 H   0  0  0  0  0  0
  -22.4003  -11.9783   22.4828 H   0  0  0  0  0  0
  -21.0991  -13.1149   22.2709 H   0  0  0  0  0  0
  -24.5920  -15.8277   20.5288 H   0  0  0  0  0  0
  -26.2164  -15.6478   20.0931 H   0  0  0  0  0  0
  -26.7628  -32.4787   23.0688 H   0  0  0  0  0  0
  -25.0176  -33.9191   25.0016 H   0  0  0  0  0  0
  -22.8691  -31.2151   21.2879 H   0  0  0  0  0  0
  -23.3781  -35.9399   23.3204 H   0  0  0  0  0  0
  -24.3589  -36.8871   22.2089 H   0  0  0  0  0  0
  -23.7193  -37.6234   23.6798 H   0  0  0  0  0  0
  -26.3316  -31.1610   20.6117 H   0  0  0  0  0  0
  -26.9723  -30.5427   22.0820 H   0  0  0  0  0  0
  -28.1866  -28.2421   21.3173 H   0  0  0  0  0  0
  -25.8022  -25.5173   19.0296 H   0  0  0  0  0  0
  -24.0464  -27.1596   18.9380 H   0  0  0  0  0  0
  -23.9907  -30.3967   19.3699 H   0  0  0  0  0  0
  -22.8947  -29.1273   19.8101 H   0  0  0  0  0  0
  -25.1337  -36.1552   25.0769 H   0  0  0  0  0  0
  -21.0075  -28.3398   24.1261 H   0  0  0  0  0  0
  -20.5664  -26.2417   23.3675 H   0  0  0  0  0  0
  -21.6667  -26.7362   22.1216 H   0  0  0  0  0  0
  -19.6930  -25.6260   21.1288 H   0  0  0  0  0  0
  -19.6709  -27.3145   20.6732 H   0  0  0  0  0  0
  -17.4242  -26.6729   21.4014 H   0  0  0  0  0  0
  -18.0334  -26.0113   22.9014 H   0  0  0  0  0  0
  -19.7996  -30.7356   24.2154 H   0  0  0  0  0  0
  -17.5049  -31.6272   24.5156 H   0  0  0  0  0  0
  -15.5389  -30.2937   23.7722 H   0  0  0  0  0  0
  -15.8750  -28.0776   22.7144 H   0  0  0  0  0  0
  -24.5903  -30.7108   25.7527 H   0  0  0  0  0  0
  -24.8786  -32.3029   26.4419 H   0  0  0  0  0  0
  -25.7808  -30.9124   27.0177 H   0  0  0  0  0  0
  -26.3318  -29.6394   24.1603 H   0  0  0  0  0  0
  -27.3968  -29.7264   25.5387 H   0  0  0  0  0  0
  -27.9296  -30.3914   24.0184 H   0  0  0  0  0  0
  -27.2672  -33.3765   26.1737 H   0  0  0  0  0  0
  -28.4044  -32.6660   25.0384 H   0  0  0  0  0  0
  -28.0580  -31.8642   26.5610 H   0  0  0  0  0  0
  -28.2487  -38.0077   24.7575 H   0  0  0  0  0  0
  -28.1122  -36.2603   24.6177 H   0  0  0  0  0  0
  -27.2306  -37.1201   25.8876 H   0  0  0  0  0  0
  -20.9854  -29.8652   21.6459 H   0  0  0  0  0  0
  -26.0032  -38.2647   24.1494 H   0  0  0  0  0  0
  -27.0764  -19.6743   20.2770 H   0  0  0  0  0  0
  -27.6711  -20.2514   21.7589 H   0  0  0  0  0  0
  -31.0377  -20.4793   19.9458 H   0  0  0  0  0  0
  -29.7268  -20.5877   18.8450 H   0  0  0  0  0  0
  -26.5200  -22.1016   20.4698 H   0  0  0  0  0  0
  -27.4753  -21.8788   19.0700 H   0  0  0  0  0  0
  -30.4018  -22.9038   19.7071 H   0  0  0  0  0  0
  -30.2124  -22.4552   21.3428 H   0  0  0  0  0  0
  -29.7215  -19.1761   21.5827 H   0  0  0  0  0  0
  -28.1680  -23.4923   21.5679 H   0  0  0  0  0  0
  -27.3399  -17.1664   20.6438 H   0  0  0  0  0  0
  -27.8867  -16.1965   19.2642 H   0  0  0  0  0  0
  -27.7505  -17.9031   19.0877 H   0  0  0  0  0  0
  1 25  1  0  0  0
  1 30  2  0  0  0
  1 78  1  0  0  0
  2  3  1  0  0  0
  2 25  1  0  0  0
  2 79  1  0  0  0
  2 80  1  0  0  0
  3  4  1  0  0  0
  3 81  1  0  0  0
  3 82  1  0  0  0
  4  5  1  0  0  0
  4 83  1  0  0  0
  4 84  1  0  0  0
  5  6  1  0  0  0
  5 26  1  0  0  0
  5 85  1  0  0  0
  6 25  1  0  0  0
  6 86  1  0  0  0
  6 87  1  0  0  0
  7  8  2  0  0  0
  7 26  1  0  0  0
  7 29  1  0  0  0
  8  9  1  0  0  0
  8 22  1  0  0  0
  9 10  1  0  0  0
  9 27  2  0  0  0
 10 11  2  0  0  0
 10 15  1  0  0  0
 11 12  1  0  0  0
 11 88  1  0  0  0
 12 13  2  0  0  0
 12 89  1  0  0  0
 13 14  1  0  0  0
 13 31  1  0  0  0
 14 15  2  0  0  0
 14 90  1  0  0  0
 15 91  1  0  0  0
 16 17  2  0  0  0
 16 21  1  0  0  0
 16 31  1  0  0  0
 17 18  1  0  0  0
 17 92  1  0  0  0
 18 19  2  0  0  0
 18 93  1  0  0  0
 19 20  1  0  0  0
 19 24  1  0  0  0
 20 21  2  0  0  0
 20 94  1  0  0  0
 21 23  1  0  0  0
 22 28  1  0  0  0
 22 32  2  0  0  0
 26 27  1  0  0  0
 28 95  1  0  0  0
 28 96  1  0  0  0
 29 97  1  0  0  0
 29 98  1  0  0  0
 33 34  1  0  0  0
 33 66  1  0  0  0
 33 70  2  0  0  0
 34 36  1  0  0  0
 34 59  1  0  0  0
 34 99  1  0  0  0
 35 44  2  0  0  0
 35 45  1  0  0  0
 35 68  1  0  0  0
 36 56  1  0  0  0
 36100  1  0  0  0
 37 39  1  0  0  0
 37 47  1  0  0  0
 37 66  1  0  0  0
 37101  1  0  0  0
 38 43  2  0  0  0
 38 46  1  0  0  0
 38 47  1  0  0  0
 39 64  1  0  0  0
 39 67  2  0  0  0
 40 52  1  0  0  0
 40 53  2  0  0  0
 40 58  1  0  0  0
 41102  1  0  0  0
 41103  1  0  0  0
 41104  1  0  0  0
 41 48  1  0  0  0
 42 43  1  0  0  0
 42 66  1  0  0  0
 42105  1  0  0  0
 42106  1  0  0  0
 43 44  1  0  0  0
 44107  1  0  0  0
 45 46  2  0  0  0
 45108  1  0  0  0
 46109  1  0  0  0
 47110  1  0  0  0
 47111  1  0  0  0
 48 56  1  0  0  0
 48 65  1  0  0  0
 48112  1  0  0  0
 49 50  1  0  0  0
 49 53  1  0  0  0
 49 64  1  0  0  0
 49113  1  0  0  0
 50 51  1  0  0  0
 50114  1  0  0  0
 50115  1  0  0  0
 51 52  1  0  0  0
 51116  1  0  0  0
 51117  1  0  0  0
 52118  1  0  0  0
 52119  1  0  0  0
 53 54  1  0  0  0
 54 55  2  0  0  0
 54120  1  0  0  0
 55 57  1  0  0  0
 55121  1  0  0  0
 56 69  2  0  0  0
 57 58  2  0  0  0
 57122  1  0  0  0
 58123  1  0  0  0
 59 60  1  0  0  0
 59 61  1  0  0  0
 59 62  1  0  0  0
 60124  1  0  0  0
 60125  1  0  0  0
 60126  1  0  0  0
 61127  1  0  0  0
 61128  1  0  0  0
 61129  1  0  0  0
 62130  1  0  0  0
 62131  1  0  0  0
 62132  1  0  0  0
 63 65  1  0  0  0
 63133  1  0  0  0
 63134  1  0  0  0
 63135  1  0  0  0
 64136  1  0  0  0
 65137  1  0  0  0
 68 76  1  0  0  0
 71 73  1  0  0  0
 71 75  1  0  0  0
 71138  1  0  0  0
 71139  1  0  0  0
 72 74  1  0  0  0
 72 75  1  0  0  0
 72140  1  0  0  0
 72141  1  0  0  0
 73 76  1  0  0  0
 73142  1  0  0  0
 73143  1  0  0  0
 74 76  1  0  0  0
 74144  1  0  0  0
 74145  1  0  0  0
 75 78  1  0  0  0
 75146  1  0  0  0
 76147  1  0  0  0
 77 78  1  0  0  0
 77148  1  0  0  0
 77149  1  0  0  0
 77150  1  0  0  0
M  ISO  4   1 100  68 101  76 101  78 100
M  END
> <chiral flag>
0

> <version>
0

> <s_m_source_file>
/data/baiqing/PycharmProjects/Reinvent-master-3.2/result/LINK_invent/BTK/process_docking_weight1_custom_product_contain_oxygen_bond_distance_aromatic_linkinvent_7_9_3/rearranged_h_0018.sdf

> <i_m_source_file_index>
27

> <r_mmod_Potential_Energy-OPLS-2005>
3691.34765625

> <r_mmod_Stretch_Energy-OPLS-2005>
1381.32385253906

> <r_mmod_Bend_Energy-OPLS-2005>
1020.80969238281

> <r_mmod_Torsional_Energy-OPLS-2005>
330.405883789062

> <r_mmod_Improper_Torsional_Energy-OPLS-2005>
4.35735273361206

> <r_mmod_Van_der_Waal_Energy-OPLS-2005>
125.297576904297

> <r_mmod_Electrostatic_Energy-OPLS-2005>
-281.475738525391

> <r_mmod_Solvation_Energy-OPLS-2005>
-209.227767944336

> <b_mmod_Minimization_Converged-OPLS-2005>
0

> <r_mmod_RMS_Derivative-OPLS-2005>
2.33965992927551

$$$$
27
                    3D
 Structure written by MMmdl.
167175  0  0  1  0            999 V2000
  -30.7300  -14.5040   20.5581 C   0  0  0  0  0  0
  -30.4138  -12.3312   19.4224 C   0  0  0  0  0  0
  -29.4846  -12.4939   18.2037 C   0  0  0  0  0  0
  -28.0122  -12.3231   18.6236 C   0  0  0  0  0  0
  -27.6445  -13.1865   19.8565 C   0  0  2  0  0  0
  -28.6965  -13.0423   20.9834 C   0  0  0  0  0  0
  -25.2547  -13.8087   20.5668 C   0  0  0  0  0  0
  -24.1804  -13.0396   20.9209 C   0  0  0  0  0  0
  -24.6343  -11.6859   20.8775 C   0  0  0  0  0  0
  -23.9013  -10.4267   21.0431 C   0  0  0  0  0  0
  -24.3582   -9.4186   21.9200 C   0  0  0  0  0  0
  -23.6268   -8.2218   22.0760 C   0  0  0  0  0  0
  -22.4254   -8.0260   21.3544 C   0  0  0  0  0  0
  -21.9879   -9.0231   20.4650 C   0  0  0  0  0  0
  -22.7196  -10.2115   20.3067 C   0  0  0  0  0  0
  -21.6844   -6.0721   22.5279 C   0  0  0  0  0  0
  -21.4008   -6.5631   23.8210 C   0  0  0  0  0  0
  -21.3659   -5.6786   24.9174 C   0  0  0  0  0  0
  -21.6047   -4.3047   24.7227 C   0  0  0  0  0  0
  -21.8820   -3.8136   23.4348 C   0  0  0  0  0  0
  -21.9190   -4.6952   22.3403 C   0  0  0  0  0  0
  -22.7839  -13.5225   21.1857 C   0  0  0  0  0  0
  -22.1662   -4.2137   21.0982 F   0  0  0  0  0  0
  -21.5630   -3.4534   25.7741 F   0  0  0  0  0  0
  -30.0209  -13.3450   20.4164 N   0  0  0  0  0  0
  -26.2935  -12.9201   20.3316 N   0  0  0  0  0  0
  -25.9255  -11.6394   20.5791 N   0  0  0  0  0  0
  -22.0469  -12.8238   22.0415 N   0  0  0  0  0  0
  -25.4236  -15.1804   20.4014 N   0  0  0  0  0  0
  -31.8811  -14.6194   20.1270 O   0  0  0  0  0  0
  -21.6625   -6.8857   21.4238 O   0  0  0  0  0  0
  -22.3547  -14.5536   20.6694 O   0  0  0  0  0  0
  -24.6141  -31.8672   23.2085 C   0  0  0  0  0  0
  -25.9035  -32.4818   23.8381 C   0  0  1  0  0  0
  -27.2363  -27.4253   20.0901 C   0  0  0  0  0  0
  -25.5899  -33.8617   24.2316 N   0  0  0  0  0  0
  -23.4018  -30.4902   21.5493 C   0  0  2  0  0  0
  -24.8453  -28.9500   20.1166 C   0  0  0  0  0  0
  -22.7412  -29.4652   22.4988 C   0  0  0  0  0  0
  -18.0276  -28.1377   22.8499 C   0  0  0  0  0  0
  -24.1489  -36.7305   23.2637 C   0  0  0  0  0  0
  -25.9302  -30.8294   21.3611 C   0  0  0  0  0  0
  -26.0048  -29.4620   20.7094 C   0  0  0  0  0  0
  -27.1989  -28.7063   20.6912 C   0  0  0  0  0  0
  -26.0501  -26.9201   19.5082 C   0  0  0  0  0  0
  -24.8631  -27.6788   19.5161 C   0  0  0  0  0  0
  -23.6093  -29.8194   20.1645 C   0  0  0  0  0  0
  -25.4111  -36.3110   24.0341 C   0  0  1  0  0  0
  -20.5867  -28.3660   23.1325 C   0  0  2  0  0  0
  -20.6762  -26.9392   22.5427 C   0  0  0  0  0  0
  -19.5746  -26.6386   21.5216 C   0  0  0  0  0  0
  -18.1922  -26.7929   22.1620 C   0  0  0  0  0  0
  -19.1527  -28.8832   23.2911 C   0  0  0  0  0  0
  -18.9454  -30.1439   23.8922 C   0  0  0  0  0  0
  -17.6454  -30.6584   24.0567 C   0  0  0  0  0  0
  -25.9040  -34.9477   23.5127 C   0  0  0  0  0  0
  -16.5346  -29.9090   23.6325 C   0  0  0  0  0  0
  -16.7266  -28.6505   23.0354 C   0  0  0  0  0  0
  -26.4464  -31.6606   25.0715 C   0  0  0  0  0  0
  -25.3737  -31.3722   26.1477 C   0  0  0  0  0  0
  -27.0274  -30.3051   24.6074 C   0  0  0  0  0  0
  -27.6053  -32.4316   25.7466 C   0  0  0  0  0  0
  -27.5590  -37.1801   24.8459 C   0  0  0  0  0  0
  -21.4138  -29.3027   22.3731 N   0  0  0  0  0  0
  -26.4291  -37.3803   23.9418 N   0  0  0  0  0  0
  -24.6673  -31.0774   22.0981 N   0  0  0  0  0  0
  -23.4187  -28.8199   23.3029 O   0  0  0  0  0  0
  -28.4402  -26.7450   20.0910 O   0  0  0  0  0  0
  -26.5602  -34.8928   22.4689 O   0  0  0  0  0  0
  -23.5333  -32.1423   23.7484 O   0  0  0  0  0  0
  -28.1046  -18.5288   21.2373 C   0  0  0  0  0  0
  -27.9141  -19.9109   21.0481 C   0  0  0  0  0  0
  -29.0084  -17.7993   20.4357 C   0  0  0  0  0  0
  -29.7882  -18.5041   19.4750 C   0  0  0  0  0  0
  -29.6127  -19.9127   19.3024 C   0  0  0  0  0  0
  -28.6260  -20.6137   20.0572 C   0  0  0  0  0  0
  -30.7900  -17.7604   18.5921 C   0  0  0  0  0  0
  -30.4729  -20.6557   18.2812 C   0  0  0  0  0  0
  -27.7931  -22.2721   18.4815 C   0  0  0  0  0  0
  -30.9206  -16.3576   22.1234 C   0  0  0  0  0  0
  -28.9947  -16.2602   20.5551 C   0  0  0  0  0  0
  -28.2555  -24.3494   20.7455 C   0  0  0  0  0  0
  -28.9859  -22.9814   20.6023 C   0  0  0  0  0  0
  -28.5479  -25.3867   19.6313 C   0  0  0  0  0  0
  -28.2658  -21.9636   19.8289 N   0  0  0  0  0  0
  -30.1332  -15.5530   21.1861 N   0  0  0  0  0  0
  -31.4569  -12.4209   19.1139 H   0  0  0  0  0  0
  -30.3174  -11.3313   19.8484 H   0  0  0  0  0  0
  -29.7398  -11.7646   17.4336 H   0  0  0  0  0  0
  -29.6297  -13.4777   17.7537 H   0  0  0  0  0  0
  -27.8507  -11.2684   18.8493 H   0  0  0  0  0  0
  -27.3513  -12.5583   17.7885 H   0  0  0  0  0  0
  -27.6395  -14.2060   19.4924 H   0  0  0  0  0  0
  -28.6918  -12.0251   21.3781 H   0  0  0  0  0  0
  -28.4531  -13.6855   21.8299 H   0  0  0  0  0  0
  -25.2728   -9.5667   22.4769 H   0  0  0  0  0  0
  -23.9981   -7.4604   22.7471 H   0  0  0  0  0  0
  -21.0812   -8.8739   19.8954 H   0  0  0  0  0  0
  -22.3652  -10.9653   19.6178 H   0  0  0  0  0  0
  -21.1999   -7.6139   23.9708 H   0  0  0  0  0  0
  -21.1483   -6.0519   25.9076 H   0  0  0  0  0  0
  -22.0602   -2.7599   23.2848 H   0  0  0  0  0  0
  -22.4065  -11.9896   22.4812 H   0  0  0  0  0  0
  -21.1091  -13.1284   22.2614 H   0  0  0  0  0  0
  -24.6480  -15.8261   20.5002 H   0  0  0  0  0  0
  -26.2579  -15.6196   20.0372 H   0  0  0  0  0  0
  -26.7102  -32.5518   23.1140 H   0  0  0  0  0  0
  -25.0085  -33.9784   25.0485 H   0  0  0  0  0  0
  -22.6907  -31.3071   21.4094 H   0  0  0  0  0  0
  -23.3766  -35.9621   23.3293 H   0  0  0  0  0  0
  -24.3596  -36.8923   22.2053 H   0  0  0  0  0  0
  -23.7212  -37.6497   23.6653 H   0  0  0  0  0  0
  -26.0446  -31.5943   20.5917 H   0  0  0  0  0  0
  -26.8180  -30.8809   21.9797 H   0  0  0  0  0  0
  -28.0979  -29.1035   21.1427 H   0  0  0  0  0  0
  -26.0152  -25.9465   19.0436 H   0  0  0  0  0  0
  -23.9684  -27.2765   19.0606 H   0  0  0  0  0  0
  -23.7186  -30.5922   19.4024 H   0  0  0  0  0  0
  -22.7327  -29.2395   19.8701 H   0  0  0  0  0  0
  -25.1283  -36.1975   25.0834 H   0  0  0  0  0  0
  -20.9963  -28.3212   24.1444 H   0  0  0  0  0  0
  -20.5647  -26.2263   23.3611 H   0  0  0  0  0  0
  -21.6634  -26.7428   22.1224 H   0  0  0  0  0  0
  -19.6903  -25.6302   21.1227 H   0  0  0  0  0  0
  -19.6692  -27.3208   20.6757 H   0  0  0  0  0  0
  -17.4200  -26.6698   21.4010 H   0  0  0  0  0  0
  -18.0305  -26.0055   22.8998 H   0  0  0  0  0  0
  -19.7930  -30.7246   24.2297 H   0  0  0  0  0  0
  -17.5016  -31.6263   24.5171 H   0  0  0  0  0  0
  -15.5346  -30.3001   23.7638 H   0  0  0  0  0  0
  -15.8669  -28.0827   22.7061 H   0  0  0  0  0  0
  -24.5890  -30.7096   25.7819 H   0  0  0  0  0  0
  -24.8957  -32.2881   26.4963 H   0  0  0  0  0  0
  -25.8096  -30.8862   27.0214 H   0  0  0  0  0  0
  -26.2798  -29.6833   24.1135 H   0  0  0  0  0  0
  -27.4060  -29.7276   25.4517 H   0  0  0  0  0  0
  -27.8636  -30.4386   23.9204 H   0  0  0  0  0  0
  -27.2698  -33.3629   26.2047 H   0  0  0  0  0  0
  -28.3859  -32.6851   25.0281 H   0  0  0  0  0  0
  -28.0718  -31.8428   26.5373 H   0  0  0  0  0  0
  -28.2591  -38.0119   24.7553 H   0  0  0  0  0  0
  -28.1102  -36.2656   24.6223 H   0  0  0  0  0  0
  -27.2321  -37.1376   25.8864 H   0  0  0  0  0  0
  -20.9293  -29.8761   21.6969 H   0  0  0  0  0  0
  -26.0181  -38.2875   24.1452 H   0  0  0  0  0  0
  -27.4991  -18.0191   21.9734 H   0  0  0  0  0  0
  -27.1708  -20.4238   21.6419 H   0  0  0  0  0  0
  -30.6334  -16.6861   18.5533 H   0  0  0  0  0  0
  -31.8050  -17.9296   18.9525 H   0  0  0  0  0  0
  -30.7335  -18.1030   17.5586 H   0  0  0  0  0  0
  -31.4916  -20.2715   18.2530 H   0  0  0  0  0  0
  -30.5646  -21.7148   18.5125 H   0  0  0  0  0  0
  -30.0403  -20.5626   17.2851 H   0  0  0  0  0  0
  -27.5488  -21.3688   17.9191 H   0  0  0  0  0  0
  -28.5411  -22.8293   17.9166 H   0  0  0  0  0  0
  -26.8886  -22.8795   18.5306 H   0  0  0  0  0  0
  -30.2720  -16.9181   22.7970 H   0  0  0  0  0  0
  -31.5564  -17.0648   21.5888 H   0  0  0  0  0  0
  -31.5644  -15.7287   22.7407 H   0  0  0  0  0  0
  -28.8513  -15.9011   19.5369 H   0  0  0  0  0  0
  -28.0979  -15.9642   21.0987 H   0  0  0  0  0  0
  -28.6106  -24.7880   21.6788 H   0  0  0  0  0  0
  -27.1817  -24.2157   20.8824 H   0  0  0  0  0  0
  -29.1408  -22.5791   21.6053 H   0  0  0  0  0  0
  -29.9855  -23.1301   20.1924 H   0  0  0  0  0  0
  -27.9751  -25.1917   18.7260 H   0  0  0  0  0  0
  -29.5886  -25.2727   19.3264 H   0  0  0  0  0  0
  1 25  1  0  0  0
  1 30  2  0  0  0
  1 86  1  0  0  0
  2  3  1  0  0  0
  2 25  1  0  0  0
  2 87  1  0  0  0
  2 88  1  0  0  0
  3  4  1  0  0  0
  3 89  1  0  0  0
  3 90  1  0  0  0
  4  5  1  0  0  0
  4 91  1  0  0  0
  4 92  1  0  0  0
  5  6  1  0  0  0
  5 26  1  0  0  0
  5 93  1  0  0  0
  6 25  1  0  0  0
  6 94  1  0  0  0
  6 95  1  0  0  0
  7  8  2  0  0  0
  7 26  1  0  0  0
  7 29  1  0  0  0
  8  9  1  0  0  0
  8 22  1  0  0  0
  9 10  1  0  0  0
  9 27  2  0  0  0
 10 11  2  0  0  0
 10 15  1  0  0  0
 11 12  1  0  0  0
 11 96  1  0  0  0
 12 13  2  0  0  0
 12 97  1  0  0  0
 13 14  1  0  0  0
 13 31  1  0  0  0
 14 15  2  0  0  0
 14 98  1  0  0  0
 15 99  1  0  0  0
 16 17  2  0  0  0
 16 21  1  0  0  0
 16 31  1  0  0  0
 17 18  1  0  0  0
 17100  1  0  0  0
 18 19  2  0  0  0
 18101  1  0  0  0
 19 20  1  0  0  0
 19 24  1  0  0  0
 20 21  2  0  0  0
 20102  1  0  0  0
 21 23  1  0  0  0
 22 28  1  0  0  0
 22 32  2  0  0  0
 26 27  1  0  0  0
 28103  1  0  0  0
 28104  1  0  0  0
 29105  1  0  0  0
 29106  1  0  0  0
 33 34  1  0  0  0
 33 66  1  0  0  0
 33 70  2  0  0  0
 34 36  1  0  0  0
 34 59  1  0  0  0
 34107  1  0  0  0
 35 44  2  0  0  0
 35 45  1  0  0  0
 35 68  1  0  0  0
 36 56  1  0  0  0
 36108  1  0  0  0
 37 39  1  0  0  0
 37 47  1  0  0  0
 37 66  1  0  0  0
 37109  1  0  0  0
 38 43  2  0  0  0
 38 46  1  0  0  0
 38 47  1  0  0  0
 39 64  1  0  0  0
 39 67  2  0  0  0
 40 52  1  0  0  0
 40 53  2  0  0  0
 40 58  1  0  0  0
 41110  1  0  0  0
 41111  1  0  0  0
 41112  1  0  0  0
 41 48  1  0  0  0
 42 43  1  0  0  0
 42 66  1  0  0  0
 42113  1  0  0  0
 42114  1  0  0  0
 43 44  1  0  0  0
 44115  1  0  0  0
 45 46  2  0  0  0
 45116  1  0  0  0
 46117  1  0  0  0
 47118  1  0  0  0
 47119  1  0  0  0
 48 56  1  0  0  0
 48 65  1  0  0  0
 48120  1  0  0  0
 49 50  1  0  0  0
 49 53  1  0  0  0
 49 64  1  0  0  0
 49121  1  0  0  0
 50 51  1  0  0  0
 50122  1  0  0  0
 50123  1  0  0  0
 51 52  1  0  0  0
 51124  1  0  0  0
 51125  1  0  0  0
 52126  1  0  0  0
 52127  1  0  0  0
 53 54  1  0  0  0
 54 55  2  0  0  0
 54128  1  0  0  0
 55 57  1  0  0  0
 55129  1  0  0  0
 56 69  2  0  0  0
 57 58  2  0  0  0
 57130  1  0  0  0
 58131  1  0  0  0
 59 60  1  0  0  0
 59 61  1  0  0  0
 59 62  1  0  0  0
 60132  1  0  0  0
 60133  1  0  0  0
 60134  1  0  0  0
 61135  1  0  0  0
 61136  1  0  0  0
 61137  1  0  0  0
 62138  1  0  0  0
 62139  1  0  0  0
 62140  1  0  0  0
 63 65  1  0  0  0
 63141  1  0  0  0
 63142  1  0  0  0
 63143  1  0  0  0
 64144  1  0  0  0
 65145  1  0  0  0
 68 84  1  0  0  0
 71 72  2  0  0  0
 71 73  1  0  0  0
 71146  1  0  0  0
 72 76  1  0  0  0
 72147  1  0  0  0
 73 74  2  0  0  0
 73 81  1  0  0  0
 74 75  1  0  0  0
 74 77  1  0  0  0
 75 76  2  0  0  0
 75 78  1  0  0  0
 76 85  1  0  0  0
 77148  1  0  0  0
 77149  1  0  0  0
 77150  1  0  0  0
 78151  1  0  0  0
 78152  1  0  0  0
 78153  1  0  0  0
 79 85  1  0  0  0
 79154  1  0  0  0
 79155  1  0  0  0
 79156  1  0  0  0
 80 86  1  0  0  0
 80157  1  0  0  0
 80158  1  0  0  0
 80159  1  0  0  0
 81 86  1  0  0  0
 81160  1  0  0  0
 81161  1  0  0  0
 82 83  1  0  0  0
 82 84  1  0  0  0
 82162  1  0  0  0
 82163  1  0  0  0
 83 85  1  0  0  0
 83164  1  0  0  0
 83165  1  0  0  0
 84166  1  0  0  0
 84167  1  0  0  0
M  ISO  4   1 100  68 101  84 101  86 100
M  END
> <chiral flag>
0

> <version>
0

> <s_m_source_file>
/data/baiqing/PycharmProjects/Reinvent-master-3.2/result/LINK_invent/BTK/process_docking_weight1_custom_product_contain_oxygen_bond_distance_aromatic_linkinvent_7_9_3/rearranged_h_0018.sdf

> <i_m_source_file_index>
28

> <r_mmod_Potential_Energy-OPLS-2005>
104.500190734863

> <r_mmod_Stretch_Energy-OPLS-2005>
45.0988502502441

> <r_mmod_Bend_Energy-OPLS-2005>
126.005561828613

> <r_mmod_Torsional_Energy-OPLS-2005>
297.572052001953

> <r_mmod_Improper_Torsional_Energy-OPLS-2005>
6.30895566940308

> <r_mmod_Van_der_Waal_Energy-OPLS-2005>
157.771987915039

> <r_mmod_Electrostatic_Energy-OPLS-2005>
-344.830718994141

> <r_mmod_Solvation_Energy-OPLS-2005>
-201.704284667969

> <b_mmod_Minimization_Converged-OPLS-2005>
0

> <r_mmod_RMS_Derivative-OPLS-2005>
0.892669916152954

$$$$
28
                    3D
 Structure written by MMmdl.
155164  0  0  1  0            999 V2000
  -30.6433  -14.5261   20.5106 C   0  0  0  0  0  0
  -30.4450  -12.3282   19.4031 C   0  0  0  0  0  0
  -29.5081  -12.5284   18.1927 C   0  0  0  0  0  0
  -28.0203  -12.3872   18.5954 C   0  0  0  0  0  0
  -27.6666  -13.2019   19.8688 C   0  0  2  0  0  0
  -28.7202  -12.9701   20.9795 C   0  0  0  0  0  0
  -25.2649  -13.8100   20.5609 C   0  0  0  0  0  0
  -24.1898  -13.0406   20.9146 C   0  0  0  0  0  0
  -24.6445  -11.6865   20.8759 C   0  0  0  0  0  0
  -23.9091  -10.4265   21.0404 C   0  0  0  0  0  0
  -24.3648   -9.4176   21.9179 C   0  0  0  0  0  0
  -23.6301   -8.2234   22.0725 C   0  0  0  0  0  0
  -22.4277   -8.0297   21.3528 C   0  0  0  0  0  0
  -21.9937   -9.0275   20.4637 C   0  0  0  0  0  0
  -22.7274  -10.2136   20.3040 C   0  0  0  0  0  0
  -21.6868   -6.0745   22.5275 C   0  0  0  0  0  0
  -21.4041   -6.5645   23.8209 C   0  0  0  0  0  0
  -21.3634   -5.6793   24.9169 C   0  0  0  0  0  0
  -21.6031   -4.3050   24.7219 C   0  0  0  0  0  0
  -21.8824   -3.8145   23.4337 C   0  0  0  0  0  0
  -21.9198   -4.6972   22.3398 C   0  0  0  0  0  0
  -22.7929  -13.5226   21.1800 C   0  0  0  0  0  0
  -22.1665   -4.2151   21.0973 F   0  0  0  0  0  0
  -21.5606   -3.4530   25.7724 F   0  0  0  0  0  0
  -30.0422  -13.3054   20.4223 N   0  0  0  0  0  0
  -26.3096  -12.9284   20.3334 N   0  0  0  0  0  0
  -25.9389  -11.6443   20.5804 N   0  0  0  0  0  0
  -22.0580  -12.8229   22.0350 N   0  0  0  0  0  0
  -25.4347  -15.1806   20.3851 N   0  0  0  0  0  0
  -31.7959  -14.7439   20.1248 O   0  0  0  0  0  0
  -21.6620   -6.8905   21.4238 O   0  0  0  0  0  0
  -22.3631  -14.5537   20.6631 O   0  0  0  0  0  0
  -24.6216  -31.8661   23.2018 C   0  0  0  0  0  0
  -25.9064  -32.4798   23.8380 C   0  0  1  0  0  0
  -27.2333  -27.3941   20.0434 C   0  0  0  0  0  0
  -25.5905  -33.8609   24.2316 N   0  0  0  0  0  0
  -23.4118  -30.4911   21.5460 C   0  0  2  0  0  0
  -24.8499  -28.9443   20.1204 C   0  0  0  0  0  0
  -22.7480  -29.4674   22.4950 C   0  0  0  0  0  0
  -18.0234  -28.1333   22.8531 C   0  0  0  0  0  0
  -24.1452  -36.7333   23.2637 C   0  0  0  0  0  0
  -25.9474  -30.8151   21.3567 C   0  0  0  0  0  0
  -26.0196  -29.4443   20.7032 C   0  0  0  0  0  0
  -27.2114  -28.6727   20.6627 C   0  0  0  0  0  0
  -26.0232  -26.9120   19.4862 C   0  0  0  0  0  0
  -24.8496  -27.6808   19.5151 C   0  0  0  0  0  0
  -23.6215  -29.8205   20.1654 C   0  0  0  0  0  0
  -25.4082  -36.3112   24.0335 C   0  0  1  0  0  0
  -20.5837  -28.3595   23.1063 C   0  0  2  0  0  0
  -20.6646  -26.9352   22.5149 C   0  0  0  0  0  0
  -19.5505  -26.6334   21.5050 C   0  0  0  0  0  0
  -18.1797  -26.7862   22.1697 C   0  0  0  0  0  0
  -19.1536  -28.8765   23.2813 C   0  0  0  0  0  0
  -18.9540  -30.1367   23.8870 C   0  0  0  0  0  0
  -17.6570  -30.6572   24.0573 C   0  0  0  0  0  0
  -25.9043  -34.9469   23.5118 C   0  0  0  0  0  0
  -16.5408  -29.9125   23.6423 C   0  0  0  0  0  0
  -16.7257  -28.6481   23.0514 C   0  0  0  0  0  0
  -26.4449  -31.6622   25.0764 C   0  0  0  0  0  0
  -25.3657  -31.3805   26.1484 C   0  0  0  0  0  0
  -27.0268  -30.3051   24.6162 C   0  0  0  0  0  0
  -27.5990  -32.4366   25.7546 C   0  0  0  0  0  0
  -27.5543  -37.1823   24.8456 C   0  0  0  0  0  0
  -21.4202  -29.2975   22.3557 N   0  0  0  0  0  0
  -26.4249  -37.3804   23.9406 N   0  0  0  0  0  0
  -24.6813  -31.0723   22.0938 N   0  0  0  0  0  0
  -23.4239  -28.8317   23.3113 O   0  0  0  0  0  0
  -28.4180  -26.6656   19.9940 O   0  0  0  0  0  0
  -26.5618  -34.8930   22.4689 O   0  0  0  0  0  0
  -23.5397  -32.1437   23.7353 O   0  0  0  0  0  0
  -29.1235  -19.0759   19.9998 C   0  0  0  0  0  0
  -30.3584  -17.5901   22.0546 C   0  0  0  0  0  0
  -29.3602  -19.6941   21.2483 C   0  0  0  0  0  0
  -29.9456  -16.9295   20.8764 C   0  0  0  0  0  0
  -29.3871  -17.6958   19.8261 C   0  0  0  0  0  0
  -30.0463  -18.9568   22.2480 C   0  0  0  0  0  0
  -29.3829  -23.3595   20.8030 C   0  0  0  0  0  0
  -27.6524  -22.8005   19.8455 C   0  0  0  0  0  0
  -28.1689  -24.1783   20.2967 C   0  0  2  0  0  0
  -28.6611  -21.0125   21.6314 C   0  0  0  0  0  0
  -28.4723  -25.3610   19.3421 C   0  0  0  0  0  0
  -28.6652  -22.1840   20.7321 N   0  0  0  0  0  0
  -29.7950  -15.5092   20.8724 N   0  0  0  0  0  0
  -30.4951  -23.5913   21.2353 O   0  0  0  0  0  0
  -28.9936  -17.0819   18.6823 F   0  0  0  0  0  0
  -30.3172  -19.5292   23.4466 F   0  0  0  0  0  0
  -31.4874  -12.4511   19.1077 H   0  0  0  0  0  0
  -30.3717  -11.3134   19.7955 H   0  0  0  0  0  0
  -29.7554  -11.8301   17.3916 H   0  0  0  0  0  0
  -29.6699  -13.5258   17.7837 H   0  0  0  0  0  0
  -27.8111  -11.3308   18.7564 H   0  0  0  0  0  0
  -27.3823  -12.7022   17.7662 H   0  0  0  0  0  0
  -27.7080  -14.2528   19.5841 H   0  0  0  0  0  0
  -28.7094  -11.9270   21.2954 H   0  0  0  0  0  0
  -28.4939  -13.5514   21.8750 H   0  0  0  0  0  0
  -25.2816   -9.5606   22.4743 H   0  0  0  0  0  0
  -23.9992   -7.4599   22.7444 H   0  0  0  0  0  0
  -21.0866   -8.8843   19.8929 H   0  0  0  0  0  0
  -22.3801  -10.9698   19.6122 H   0  0  0  0  0  0
  -21.2071   -7.6155   23.9736 H   0  0  0  0  0  0
  -21.1433   -6.0498   25.9068 H   0  0  0  0  0  0
  -22.0628   -2.7613   23.2828 H   0  0  0  0  0  0
  -22.4264  -11.9920   22.4756 H   0  0  0  0  0  0
  -21.1173  -13.1228   22.2540 H   0  0  0  0  0  0
  -24.6483  -15.8187   20.4217 H   0  0  0  0  0  0
  -26.2579  -15.5973   19.9698 H   0  0  0  0  0  0
  -26.7155  -32.5507   23.1179 H   0  0  0  0  0  0
  -24.9962  -33.9760   25.0411 H   0  0  0  0  0  0
  -22.6949  -31.3046   21.3916 H   0  0  0  0  0  0
  -23.3691  -35.9689   23.3338 H   0  0  0  0  0  0
  -24.3526  -36.8946   22.2041 H   0  0  0  0  0  0
  -23.7236  -37.6556   23.6643 H   0  0  0  0  0  0
  -26.0547  -31.5664   20.5709 H   0  0  0  0  0  0
  -26.8419  -30.8840   21.9669 H   0  0  0  0  0  0
  -28.1235  -29.0574   21.0980 H   0  0  0  0  0  0
  -25.9460  -25.9433   19.0186 H   0  0  0  0  0  0
  -23.9461  -27.2877   19.0668 H   0  0  0  0  0  0
  -23.7488  -30.5858   19.3997 H   0  0  0  0  0  0
  -22.7436  -29.2492   19.8585 H   0  0  0  0  0  0
  -25.1247  -36.1957   25.0824 H   0  0  0  0  0  0
  -20.9928  -28.3054   24.1160 H   0  0  0  0  0  0
  -20.5526  -26.2260   23.3376 H   0  0  0  0  0  0
  -21.6458  -26.7263   22.0871 H   0  0  0  0  0  0
  -19.6524  -25.6194   21.1176 H   0  0  0  0  0  0
  -19.6322  -27.3083   20.6494 H   0  0  0  0  0  0
  -17.3939  -26.6476   21.4279 H   0  0  0  0  0  0
  -18.0327  -26.0033   22.9153 H   0  0  0  0  0  0
  -19.8104  -30.7074   24.2210 H   0  0  0  0  0  0
  -17.5158  -31.6275   24.5150 H   0  0  0  0  0  0
  -15.5413  -30.3001   23.7819 H   0  0  0  0  0  0
  -15.8569  -28.0843   22.7393 H   0  0  0  0  0  0
  -24.5794  -30.7178   25.7833 H   0  0  0  0  0  0
  -24.8888  -32.3009   26.4856 H   0  0  0  0  0  0
  -25.7974  -30.9015   27.0282 H   0  0  0  0  0  0
  -26.2838  -29.6889   24.1061 H   0  0  0  0  0  0
  -27.3852  -29.7207   25.4642 H   0  0  0  0  0  0
  -27.8755  -30.4382   23.9452 H   0  0  0  0  0  0
  -27.2552  -33.3647   26.2128 H   0  0  0  0  0  0
  -28.3808  -32.6996   25.0400 H   0  0  0  0  0  0
  -28.0644  -31.8506   26.5477 H   0  0  0  0  0  0
  -28.2588  -38.0089   24.7475 H   0  0  0  0  0  0
  -28.1024  -36.2627   24.6316 H   0  0  0  0  0  0
  -27.2276  -37.1524   25.8866 H   0  0  0  0  0  0
  -20.9474  -29.8549   21.6589 H   0  0  0  0  0  0
  -26.0145  -38.2875   24.1411 H   0  0  0  0  0  0
  -28.6174  -19.6200   19.2159 H   0  0  0  0  0  0
  -30.8025  -17.0244   22.8657 H   0  0  0  0  0  0
  -27.8145  -22.5841   18.7871 H   0  0  0  0  0  0
  -26.6099  -22.6066   20.1143 H   0  0  0  0  0  0
  -27.5546  -24.5110   21.1303 H   0  0  0  0  0  0
  -28.9735  -21.3273   22.6242 H   0  0  0  0  0  0
  -27.6146  -20.7417   21.7626 H   0  0  0  0  0  0
  -27.8504  -25.3106   18.4480 H   0  0  0  0  0  0
  -29.4772  -25.2478   18.9293 H   0  0  0  0  0  0
  -28.8459  -15.1918   21.0127 H   0  0  0  0  0  0
  1 25  1  0  0  0
  1 30  2  0  0  0
  1 83  1  0  0  0
  2  3  1  0  0  0
  2 25  1  0  0  0
  2 87  1  0  0  0
  2 88  1  0  0  0
  3  4  1  0  0  0
  3 89  1  0  0  0
  3 90  1  0  0  0
  4  5  1  0  0  0
  4 91  1  0  0  0
  4 92  1  0  0  0
  5  6  1  0  0  0
  5 26  1  0  0  0
  5 93  1  0  0  0
  6 25  1  0  0  0
  6 94  1  0  0  0
  6 95  1  0  0  0
  7  8  2  0  0  0
  7 26  1  0  0  0
  7 29  1  0  0  0
  8  9  1  0  0  0
  8 22  1  0  0  0
  9 10  1  0  0  0
  9 27  2  0  0  0
 10 11  2  0  0  0
 10 15  1  0  0  0
 11 12  1  0  0  0
 11 96  1  0  0  0
 12 13  2  0  0  0
 12 97  1  0  0  0
 13 14  1  0  0  0
 13 31  1  0  0  0
 14 15  2  0  0  0
 14 98  1  0  0  0
 15 99  1  0  0  0
 16 17  2  0  0  0
 16 21  1  0  0  0
 16 31  1  0  0  0
 17 18  1  0  0  0
 17100  1  0  0  0
 18 19  2  0  0  0
 18101  1  0  0  0
 19 20  1  0  0  0
 19 24  1  0  0  0
 20 21  2  0  0  0
 20102  1  0  0  0
 21 23  1  0  0  0
 22 28  1  0  0  0
 22 32  2  0  0  0
 26 27  1  0  0  0
 28103  1  0  0  0
 28104  1  0  0  0
 29105  1  0  0  0
 29106  1  0  0  0
 33 34  1  0  0  0
 33 66  1  0  0  0
 33 70  2  0  0  0
 34 36  1  0  0  0
 34 59  1  0  0  0
 34107  1  0  0  0
 35 44  2  0  0  0
 35 45  1  0  0  0
 35 68  1  0  0  0
 36 56  1  0  0  0
 36108  1  0  0  0
 37 39  1  0  0  0
 37 47  1  0  0  0
 37 66  1  0  0  0
 37109  1  0  0  0
 38 43  2  0  0  0
 38 46  1  0  0  0
 38 47  1  0  0  0
 39 64  1  0  0  0
 39 67  2  0  0  0
 40 52  1  0  0  0
 40 53  2  0  0  0
 40 58  1  0  0  0
 41110  1  0  0  0
 41111  1  0  0  0
 41112  1  0  0  0
 41 48  1  0  0  0
 42 43  1  0  0  0
 42 66  1  0  0  0
 42113  1  0  0  0
 42114  1  0  0  0
 43 44  1  0  0  0
 44115  1  0  0  0
 45 46  2  0  0  0
 45116  1  0  0  0
 46117  1  0  0  0
 47118  1  0  0  0
 47119  1  0  0  0
 48 56  1  0  0  0
 48 65  1  0  0  0
 48120  1  0  0  0
 49 50  1  0  0  0
 49 53  1  0  0  0
 49 64  1  0  0  0
 49121  1  0  0  0
 50 51  1  0  0  0
 50122  1  0  0  0
 50123  1  0  0  0
 51 52  1  0  0  0
 51124  1  0  0  0
 51125  1  0  0  0
 52126  1  0  0  0
 52127  1  0  0  0
 53 54  1  0  0  0
 54 55  2  0  0  0
 54128  1  0  0  0
 55 57  1  0  0  0
 55129  1  0  0  0
 56 69  2  0  0  0
 57 58  2  0  0  0
 57130  1  0  0  0
 58131  1  0  0  0
 59 60  1  0  0  0
 59 61  1  0  0  0
 59 62  1  0  0  0
 60132  1  0  0  0
 60133  1  0  0  0
 60134  1  0  0  0
 61135  1  0  0  0
 61136  1  0  0  0
 61137  1  0  0  0
 62138  1  0  0  0
 62139  1  0  0  0
 62140  1  0  0  0
 63 65  1  0  0  0
 63141  1  0  0  0
 63142  1  0  0  0
 63143  1  0  0  0
 64144  1  0  0  0
 65145  1  0  0  0
 68 81  1  0  0  0
 71 73  2  0  0  0
 71 75  1  0  0  0
 71146  1  0  0  0
 72 74  1  0  0  0
 72 76  2  0  0  0
 72147  1  0  0  0
 73 76  1  0  0  0
 73 80  1  0  0  0
 74 75  2  0  0  0
 74 83  1  0  0  0
 75 85  1  0  0  0
 76 86  1  0  0  0
 77 79  1  0  0  0
 77 82  1  0  0  0
 77 84  2  0  0  0
 78 79  1  0  0  0
 78 82  1  0  0  0
 78148  1  0  0  0
 78149  1  0  0  0
 79 81  1  0  0  0
 79150  1  0  0  0
 80 82  1  0  0  0
 80151  1  0  0  0
 80152  1  0  0  0
 81153  1  0  0  0
 81154  1  0  0  0
 83155  1  0  0  0
M  ISO  4   1 100  68 101  81 101  83 100
M  END
> <chiral flag>
0

> <version>
0

> <s_m_source_file>
/data/baiqing/PycharmProjects/Reinvent-master-3.2/result/LINK_invent/BTK/process_docking_weight1_custom_product_contain_oxygen_bond_distance_aromatic_linkinvent_7_9_3/rearranged_h_0018.sdf

> <i_m_source_file_index>
29

> <r_mmod_Potential_Energy-OPLS-2005>
-26.7016468048096

> <r_mmod_Stretch_Energy-OPLS-2005>
44.7888031005859

> <r_mmod_Bend_Energy-OPLS-2005>
121.754501342773

> <r_mmod_Torsional_Energy-OPLS-2005>
286.552612304688

> <r_mmod_Improper_Torsional_Energy-OPLS-2005>
12.2305402755737

> <r_mmod_Van_der_Waal_Energy-OPLS-2005>
142.473190307617

> <r_mmod_Electrostatic_Energy-OPLS-2005>
-421.181396484375

> <r_mmod_Solvation_Energy-OPLS-2005>
-234.965347290039

> <b_mmod_Minimization_Converged-OPLS-2005>
0

> <r_mmod_RMS_Derivative-OPLS-2005>
6.94632434844971

$$$$
29
                    3D
 Structure written by MMmdl.
161169  0  0  1  0            999 V2000
  -30.6783  -14.6302   20.5326 C   0  0  0  0  0  0
  -30.4225  -12.4022   19.4497 C   0  0  0  0  0  0
  -29.4992  -12.5297   18.2189 C   0  0  0  0  0  0
  -28.0230  -12.3686   18.6298 C   0  0  0  0  0  0
  -27.6521  -13.2288   19.8678 C   0  0  2  0  0  0
  -28.6978  -13.0801   20.9934 C   0  0  0  0  0  0
  -25.2546  -13.8195   20.5731 C   0  0  0  0  0  0
  -24.1820  -13.0438   20.9194 C   0  0  0  0  0  0
  -24.6410  -11.6914   20.8738 C   0  0  0  0  0  0
  -23.9085  -10.4290   21.0394 C   0  0  0  0  0  0
  -24.3623   -9.4206   21.9187 C   0  0  0  0  0  0
  -23.6288   -8.2245   22.0761 C   0  0  0  0  0  0
  -22.4278   -8.0291   21.3539 C   0  0  0  0  0  0
  -21.9930   -9.0259   20.4629 C   0  0  0  0  0  0
  -22.7266  -10.2126   20.3039 C   0  0  0  0  0  0
  -21.6843   -6.0750   22.5275 C   0  0  0  0  0  0
  -21.4011   -6.5645   23.8211 C   0  0  0  0  0  0
  -21.3660   -5.6793   24.9171 C   0  0  0  0  0  0
  -21.6046   -4.3056   24.7222 C   0  0  0  0  0  0
  -21.8818   -3.8156   23.4334 C   0  0  0  0  0  0
  -21.9188   -4.6977   22.3393 C   0  0  0  0  0  0
  -22.7836  -13.5222   21.1836 C   0  0  0  0  0  0
  -22.1656   -4.2166   21.0965 F   0  0  0  0  0  0
  -21.5630   -3.4537   25.7732 F   0  0  0  0  0  0
  -30.0078  -13.4332   20.4285 N   0  0  0  0  0  0
  -26.2988  -12.9403   20.3364 N   0  0  0  0  0  0
  -25.9346  -11.6542   20.5763 N   0  0  0  0  0  0
  -22.0457  -12.8185   22.0356 N   0  0  0  0  0  0
  -25.4250  -15.1932   20.4204 N   0  0  0  0  0  0
  -31.8244  -14.7251   20.0807 O   0  0  0  0  0  0
  -21.6629   -6.8899   21.4239 O   0  0  0  0  0  0
  -22.3523  -14.5531   20.6697 O   0  0  0  0  0  0
  -24.6250  -31.8595   23.2022 C   0  0  0  0  0  0
  -25.9092  -32.4780   23.8366 C   0  0  1  0  0  0
  -27.2303  -27.3399   20.1247 C   0  0  0  0  0  0
  -25.5908  -33.8582   24.2284 N   0  0  0  0  0  0
  -23.4192  -30.4813   21.5449 C   0  0  2  0  0  0
  -24.8706  -28.9396   20.1100 C   0  0  0  0  0  0
  -22.7483  -29.4598   22.4937 C   0  0  0  0  0  0
  -18.0285  -28.1356   22.8480 C   0  0  0  0  0  0
  -24.1473  -36.7288   23.2637 C   0  0  0  0  0  0
  -25.9580  -30.7973   21.3713 C   0  0  0  0  0  0
  -26.0356  -29.4252   20.7172 C   0  0  0  0  0  0
  -27.2224  -28.6379   20.7134 C   0  0  0  0  0  0
  -26.0502  -26.9029   19.4860 C   0  0  0  0  0  0
  -24.8779  -27.6830   19.4833 C   0  0  0  0  0  0
  -23.6366  -29.8157   20.1598 C   0  0  0  0  0  0
  -25.4101  -36.3084   24.0322 C   0  0  1  0  0  0
  -20.5886  -28.3652   23.1281 C   0  0  2  0  0  0
  -20.6770  -26.9388   22.5383 C   0  0  0  0  0  0
  -19.5741  -26.6378   21.5185 C   0  0  0  0  0  0
  -18.1913  -26.7900   22.1606 C   0  0  0  0  0  0
  -19.1543  -28.8821   23.2864 C   0  0  0  0  0  0
  -18.9472  -30.1430   23.8879 C   0  0  0  0  0  0
  -17.6475  -30.6554   24.0566 C   0  0  0  0  0  0
  -25.9045  -34.9453   23.5110 C   0  0  0  0  0  0
  -16.5361  -29.9064   23.6329 C   0  0  0  0  0  0
  -16.7284  -28.6488   23.0338 C   0  0  0  0  0  0
  -26.4486  -31.6579   25.0728 C   0  0  0  0  0  0
  -25.3723  -31.3649   26.1441 C   0  0  0  0  0  0
  -27.0396  -30.3045   24.6134 C   0  0  0  0  0  0
  -27.6011  -32.4338   25.7533 C   0  0  0  0  0  0
  -27.5552  -37.1819   24.8467 C   0  0  0  0  0  0
  -21.4193  -29.3026   22.3698 N   0  0  0  0  0  0
  -26.4271  -37.3786   23.9402 N   0  0  0  0  0  0
  -24.6858  -31.0626   22.0966 N   0  0  0  0  0  0
  -23.4220  -28.8131   23.2997 O   0  0  0  0  0  0
  -28.3378  -26.4887   20.1538 O   0  0  0  0  0  0
  -26.5626  -34.8921   22.4684 O   0  0  0  0  0  0
  -23.5416  -32.1389   23.7347 O   0  0  0  0  0  0
  -30.4418  -19.5912   19.7811 C   0  0  0  0  0  0
  -28.6822  -18.8890   21.2494 C   0  0  0  0  0  0
  -30.1133  -20.9605   20.0053 C   0  0  0  0  0  0
  -28.3746  -20.2597   21.4988 C   0  0  0  0  0  0
  -29.7536  -18.5097   20.4011 C   0  0  0  0  0  0
  -29.0851  -21.3435   20.9012 C   0  0  0  0  0  0
  -30.5539  -24.3935   20.6610 C   0  0  0  0  0  0
  -28.6685  -22.8721   22.7162 C   0  0  0  0  0  0
  -29.5976  -15.9915   22.2529 C   0  0  0  0  0  0
  -30.1610  -17.0321   20.0127 C   0  0  0  0  0  0
  -28.1122  -25.1659   20.7659 C   0  0  0  0  0  0
  -29.0953  -23.9435   20.4610 C   0  0  2  0  0  0
  -28.7896  -22.7077   21.2630 N   0  0  0  0  0  0
  -29.9737  -15.7798   20.8511 N   0  0  0  0  0  0
  -31.4658  -12.5018   19.1451 H   0  0  0  0  0  0
  -30.3409  -11.4066   19.8886 H   0  0  0  0  0  0
  -29.7622  -11.7853   17.4664 H   0  0  0  0  0  0
  -29.6429  -13.5041   17.7481 H   0  0  0  0  0  0
  -27.8539  -11.3136   18.8480 H   0  0  0  0  0  0
  -27.3690  -12.6138   17.7918 H   0  0  0  0  0  0
  -27.6706  -14.2690   19.5402 H   0  0  0  0  0  0
  -28.7144  -12.0534   21.3634 H   0  0  0  0  0  0
  -28.4350  -13.6948   21.8516 H   0  0  0  0  0  0
  -25.2757   -9.5676   22.4771 H   0  0  0  0  0  0
  -23.9986   -7.4643   22.7493 H   0  0  0  0  0  0
  -21.0870   -8.8778   19.8915 H   0  0  0  0  0  0
  -22.3746  -10.9667   19.6133 H   0  0  0  0  0  0
  -21.2000   -7.6152   23.9722 H   0  0  0  0  0  0
  -21.1485   -6.0522   25.9078 H   0  0  0  0  0  0
  -22.0597   -2.7624   23.2829 H   0  0  0  0  0  0
  -22.4057  -11.9831   22.4722 H   0  0  0  0  0  0
  -21.1054  -13.1173   22.2501 H   0  0  0  0  0  0
  -24.6621  -15.8503   20.5466 H   0  0  0  0  0  0
  -26.2897  -15.6368   20.1378 H   0  0  0  0  0  0
  -26.7181  -32.5474   23.1145 H   0  0  0  0  0  0
  -25.0056  -33.9741   25.0428 H   0  0  0  0  0  0
  -22.7096  -31.2982   21.3999 H   0  0  0  0  0  0
  -23.3756  -35.9596   23.3280 H   0  0  0  0  0  0
  -24.3563  -36.8951   22.2057 H   0  0  0  0  0  0
  -23.7211  -37.6466   23.6703 H   0  0  0  0  0  0
  -26.0808  -31.5563   20.5985 H   0  0  0  0  0  0
  -26.8434  -30.8542   21.9937 H   0  0  0  0  0  0
  -28.1161  -29.0057   21.1965 H   0  0  0  0  0  0
  -26.0272  -25.9413   18.9943 H   0  0  0  0  0  0
  -23.9890  -27.3066   18.9971 H   0  0  0  0  0  0
  -23.7545  -30.5932   19.4040 H   0  0  0  0  0  0
  -22.7599  -29.2399   19.8587 H   0  0  0  0  0  0
  -25.1278  -36.1935   25.0814 H   0  0  0  0  0  0
  -20.9957  -28.3209   24.1414 H   0  0  0  0  0  0
  -20.5676  -26.2247   23.3560 H   0  0  0  0  0  0
  -21.6635  -26.7401   22.1180 H   0  0  0  0  0  0
  -19.6897  -25.6310   21.1165 H   0  0  0  0  0  0
  -19.6665  -27.3226   20.6746 H   0  0  0  0  0  0
  -17.4181  -26.6672   21.4006 H   0  0  0  0  0  0
  -18.0310  -26.0010   22.8982 H   0  0  0  0  0  0
  -19.7955  -30.7241   24.2232 H   0  0  0  0  0  0
  -17.5041  -31.6236   24.5174 H   0  0  0  0  0  0
  -15.5368  -30.2965   23.7653 H   0  0  0  0  0  0
  -15.8682  -28.0822   22.7029 H   0  0  0  0  0  0
  -24.5878  -30.7044   25.7731 H   0  0  0  0  0  0
  -24.8940  -32.2794   26.4963 H   0  0  0  0  0  0
  -25.8043  -30.8731   27.0164 H   0  0  0  0  0  0
  -26.3007  -29.6753   24.1161 H   0  0  0  0  0  0
  -27.4192  -29.7307   25.4595 H   0  0  0  0  0  0
  -27.8799  -30.4418   23.9322 H   0  0  0  0  0  0
  -27.2615  -33.3683   26.2013 H   0  0  0  0  0  0
  -28.3888  -32.6820   25.0409 H   0  0  0  0  0  0
  -28.0594  -31.8517   26.5538 H   0  0  0  0  0  0
  -28.2542  -38.0135   24.7531 H   0  0  0  0  0  0
  -28.1079  -36.2670   24.6292 H   0  0  0  0  0  0
  -27.2269  -37.1470   25.8866 H   0  0  0  0  0  0
  -20.9355  -29.8813   21.6974 H   0  0  0  0  0  0
  -26.0137  -38.2851   24.1413 H   0  0  0  0  0  0
  -31.2504  -19.3765   19.0966 H   0  0  0  0  0  0
  -28.0701  -18.1370   21.7214 H   0  0  0  0  0  0
  -30.6941  -21.7124   19.4948 H   0  0  0  0  0  0
  -27.5588  -20.4724   22.1750 H   0  0  0  0  0  0
  -30.7733  -25.2709   20.0509 H   0  0  0  0  0  0
  -31.2698  -23.6259   20.3741 H   0  0  0  0  0  0
  -30.7576  -24.6602   21.6971 H   0  0  0  0  0  0
  -29.1829  -22.0806   23.2650 H   0  0  0  0  0  0
  -27.6211  -22.8636   23.0197 H   0  0  0  0  0  0
  -29.1047  -23.8083   23.0637 H   0  0  0  0  0  0
  -28.5132  -16.0266   22.3568 H   0  0  0  0  0  0
  -30.0154  -16.9213   22.6385 H   0  0  0  0  0  0
  -29.9630  -15.1989   22.9092 H   0  0  0  0  0  0
  -31.2194  -17.0991   19.7544 H   0  0  0  0  0  0
  -29.6590  -16.8301   19.0653 H   0  0  0  0  0  0
  -28.1258  -25.3662   21.8369 H   0  0  0  0  0  0
  -27.1025  -24.8072   20.5699 H   0  0  0  0  0  0
  -28.9706  -23.6805   19.4090 H   0  0  0  0  0  0
  1 25  1  0  0  0
  1 30  2  0  0  0
  1 84  1  0  0  0
  2  3  1  0  0  0
  2 25  1  0  0  0
  2 85  1  0  0  0
  2 86  1  0  0  0
  3  4  1  0  0  0
  3 87  1  0  0  0
  3 88  1  0  0  0
  4  5  1  0  0  0
  4 89  1  0  0  0
  4 90  1  0  0  0
  5  6  1  0  0  0
  5 26  1  0  0  0
  5 91  1  0  0  0
  6 25  1  0  0  0
  6 92  1  0  0  0
  6 93  1  0  0  0
  7  8  2  0  0  0
  7 26  1  0  0  0
  7 29  1  0  0  0
  8  9  1  0  0  0
  8 22  1  0  0  0
  9 10  1  0  0  0
  9 27  2  0  0  0
 10 11  2  0  0  0
 10 15  1  0  0  0
 11 12  1  0  0  0
 11 94  1  0  0  0
 12 13  2  0  0  0
 12 95  1  0  0  0
 13 14  1  0  0  0
 13 31  1  0  0  0
 14 15  2  0  0  0
 14 96  1  0  0  0
 15 97  1  0  0  0
 16 17  2  0  0  0
 16 21  1  0  0  0
 16 31  1  0  0  0
 17 18  1  0  0  0
 17 98  1  0  0  0
 18 19  2  0  0  0
 18 99  1  0  0  0
 19 20  1  0  0  0
 19 24  1  0  0  0
 20 21  2  0  0  0
 20100  1  0  0  0
 21 23  1  0  0  0
 22 28  1  0  0  0
 22 32  2  0  0  0
 26 27  1  0  0  0
 28101  1  0  0  0
 28102  1  0  0  0
 29103  1  0  0  0
 29104  1  0  0  0
 33 34  1  0  0  0
 33 66  1  0  0  0
 33 70  2  0  0  0
 34 36  1  0  0  0
 34 59  1  0  0  0
 34105  1  0  0  0
 35 44  2  0  0  0
 35 45  1  0  0  0
 35 68  1  0  0  0
 36 56  1  0  0  0
 36106  1  0  0  0
 37 39  1  0  0  0
 37 47  1  0  0  0
 37 66  1  0  0  0
 37107  1  0  0  0
 38 43  2  0  0  0
 38 46  1  0  0  0
 38 47  1  0  0  0
 39 64  1  0  0  0
 39 67  2  0  0  0
 40 52  1  0  0  0
 40 53  2  0  0  0
 40 58  1  0  0  0
 41108  1  0  0  0
 41109  1  0  0  0
 41110  1  0  0  0
 41 48  1  0  0  0
 42 43  1  0  0  0
 42 66  1  0  0  0
 42111  1  0  0  0
 42112  1  0  0  0
 43 44  1  0  0  0
 44113  1  0  0  0
 45 46  2  0  0  0
 45114  1  0  0  0
 46115  1  0  0  0
 47116  1  0  0  0
 47117  1  0  0  0
 48 56  1  0  0  0
 48 65  1  0  0  0
 48118  1  0  0  0
 49 50  1  0  0  0
 49 53  1  0  0  0
 49 64  1  0  0  0
 49119  1  0  0  0
 50 51  1  0  0  0
 50120  1  0  0  0
 50121  1  0  0  0
 51 52  1  0  0  0
 51122  1  0  0  0
 51123  1  0  0  0
 52124  1  0  0  0
 52125  1  0  0  0
 53 54  1  0  0  0
 54 55  2  0  0  0
 54126  1  0  0  0
 55 57  1  0  0  0
 55127  1  0  0  0
 56 69  2  0  0  0
 57 58  2  0  0  0
 57128  1  0  0  0
 58129  1  0  0  0
 59 60  1  0  0  0
 59 61  1  0  0  0
 59 62  1  0  0  0
 60130  1  0  0  0
 60131  1  0  0  0
 60132  1  0  0  0
 61133  1  0  0  0
 61134  1  0  0  0
 61135  1  0  0  0
 62136  1  0  0  0
 62137  1  0  0  0
 62138  1  0  0  0
 63 65  1  0  0  0
 63139  1  0  0  0
 63140  1  0  0  0
 63141  1  0  0  0
 64142  1  0  0  0
 65143  1  0  0  0
 68 81  1  0  0  0
 71 73  2  0  0  0
 71 75  1  0  0  0
 71144  1  0  0  0
 72 74  1  0  0  0
 72 75  2  0  0  0
 72145  1  0  0  0
 73 76  1  0  0  0
 73146  1  0  0  0
 74 76  2  0  0  0
 74147  1  0  0  0
 75 80  1  0  0  0
 76 83  1  0  0  0
 77148  1  0  0  0
 77149  1  0  0  0
 77150  1  0  0  0
 77 82  1  0  0  0
 78 83  1  0  0  0
 78151  1  0  0  0
 78152  1  0  0  0
 78153  1  0  0  0
 79 84  1  0  0  0
 79154  1  0  0  0
 79155  1  0  0  0
 79156  1  0  0  0
 80 84  1  0  0  0
 80157  1  0  0  0
 80158  1  0  0  0
 81 82  1  0  0  0
 81159  1  0  0  0
 81160  1  0  0  0
 82 83  1  0  0  0
 82161  1  0  0  0
M  ISO  4   1 100  68 101  81 101  84 100
M  END
> <chiral flag>
0

> <version>
0

> <s_m_source_file>
/data/baiqing/PycharmProjects/Reinvent-master-3.2/result/LINK_invent/BTK/process_docking_weight1_custom_product_contain_oxygen_bond_distance_aromatic_linkinvent_7_9_3/rearranged_h_0018.sdf

> <i_m_source_file_index>
30

> <r_mmod_Potential_Energy-OPLS-2005>
213.669982910156

> <r_mmod_Stretch_Energy-OPLS-2005>
83.8696899414062

> <r_mmod_Bend_Energy-OPLS-2005>
164.26416015625

> <r_mmod_Torsional_Energy-OPLS-2005>
283.068450927734

> <r_mmod_Improper_Torsional_Energy-OPLS-2005>
11.0250158309937

> <r_mmod_Van_der_Waal_Energy-OPLS-2005>
157.330001831055

> <r_mmod_Electrostatic_Energy-OPLS-2005>
-325.171936035156

> <r_mmod_Solvation_Energy-OPLS-2005>
-202.593185424805

> <b_mmod_Minimization_Converged-OPLS-2005>
0

> <r_mmod_RMS_Derivative-OPLS-2005>
2.22905158996582

$$$$
30
                    3D
 Structure written by MMmdl.
155163  0  0  1  0            999 V2000
  -30.6007  -14.6594   20.5107 C   0  0  0  0  0  0
  -30.4512  -12.4055   19.4539 C   0  0  0  0  0  0
  -29.5146  -12.5064   18.2272 C   0  0  0  0  0  0
  -28.0344  -12.3508   18.6348 C   0  0  0  0  0  0
  -27.6579  -13.2149   19.8665 C   0  0  2  0  0  0
  -28.7039  -13.0480   20.9922 C   0  0  0  0  0  0
  -25.2575  -13.8169   20.5692 C   0  0  0  0  0  0
  -24.1836  -13.0439   20.9205 C   0  0  0  0  0  0
  -24.6398  -11.6904   20.8739 C   0  0  0  0  0  0
  -23.9065  -10.4289   21.0411 C   0  0  0  0  0  0
  -24.3612   -9.4206   21.9197 C   0  0  0  0  0  0
  -23.6286   -8.2243   22.0757 C   0  0  0  0  0  0
  -22.4274   -8.0280   21.3542 C   0  0  0  0  0  0
  -21.9918   -9.0251   20.4640 C   0  0  0  0  0  0
  -22.7241  -10.2133   20.3052 C   0  0  0  0  0  0
  -21.6854   -6.0740   22.5284 C   0  0  0  0  0  0
  -21.4003   -6.5640   23.8216 C   0  0  0  0  0  0
  -21.3658   -5.6793   24.9173 C   0  0  0  0  0  0
  -21.6051   -4.3059   24.7226 C   0  0  0  0  0  0
  -21.8818   -3.8153   23.4346 C   0  0  0  0  0  0
  -21.9186   -4.6968   22.3402 C   0  0  0  0  0  0
  -22.7852  -13.5233   21.1869 C   0  0  0  0  0  0
  -22.1659   -4.2155   21.0980 F   0  0  0  0  0  0
  -21.5635   -3.4541   25.7743 F   0  0  0  0  0  0
  -30.0206  -13.4161   20.4397 N   0  0  0  0  0  0
  -26.3006  -12.9340   20.3324 N   0  0  0  0  0  0
  -25.9322  -11.6500   20.5745 N   0  0  0  0  0  0
  -22.0478  -12.8207   22.0402 N   0  0  0  0  0  0
  -25.4317  -15.1891   20.4118 N   0  0  0  0  0  0
  -31.7390  -14.8677   20.0782 O   0  0  0  0  0  0
  -21.6630   -6.8882   21.4241 O   0  0  0  0  0  0
  -22.3546  -14.5554   20.6743 O   0  0  0  0  0  0
  -24.6260  -31.8594   23.1983 C   0  0  0  0  0  0
  -25.9106  -32.4773   23.8329 C   0  0  1  0  0  0
  -27.2375  -27.3212   20.1213 C   0  0  0  0  0  0
  -25.5933  -33.8571   24.2260 N   0  0  0  0  0  0
  -23.4200  -30.4771   21.5432 C   0  0  2  0  0  0
  -24.8691  -28.9228   20.1159 C   0  0  0  0  0  0
  -22.7491  -29.4591   22.4953 C   0  0  0  0  0  0
  -18.0281  -28.1376   22.8464 C   0  0  0  0  0  0
  -24.1495  -36.7286   23.2642 C   0  0  0  0  0  0
  -25.9575  -30.7916   21.3646 C   0  0  0  0  0  0
  -26.0370  -29.4137   20.7147 C   0  0  0  0  0  0
  -27.2251  -28.6255   20.7017 C   0  0  0  0  0  0
  -26.0457  -26.8669   19.5175 C   0  0  0  0  0  0
  -24.8743  -27.6535   19.5117 C   0  0  0  0  0  0
  -23.6348  -29.8037   20.1606 C   0  0  0  0  0  0
  -25.4120  -36.3071   24.0336 C   0  0  1  0  0  0
  -20.5883  -28.3674   23.1298 C   0  0  2  0  0  0
  -20.6772  -26.9403   22.5412 C   0  0  0  0  0  0
  -19.5756  -26.6389   21.5197 C   0  0  0  0  0  0
  -18.1923  -26.7920   22.1602 C   0  0  0  0  0  0
  -19.1540  -28.8845   23.2861 C   0  0  0  0  0  0
  -18.9463  -30.1445   23.8876 C   0  0  0  0  0  0
  -17.6464  -30.6576   24.0562 C   0  0  0  0  0  0
  -25.9070  -34.9444   23.5107 C   0  0  0  0  0  0
  -16.5352  -29.9078   23.6333 C   0  0  0  0  0  0
  -16.7269  -28.6504   23.0334 C   0  0  0  0  0  0
  -26.4486  -31.6576   25.0701 C   0  0  0  0  0  0
  -25.3709  -31.3697   26.1423 C   0  0  0  0  0  0
  -27.0320  -30.3020   24.6087 C   0  0  0  0  0  0
  -27.6068  -32.4294   25.7456 C   0  0  0  0  0  0
  -27.5575  -37.1785   24.8464 C   0  0  0  0  0  0
  -21.4199  -29.3018   22.3696 N   0  0  0  0  0  0
  -26.4284  -37.3776   23.9415 N   0  0  0  0  0  0
  -24.6860  -31.0600   22.0935 N   0  0  0  0  0  0
  -23.4201  -28.8138   23.3038 O   0  0  0  0  0  0
  -28.3806  -26.5124   20.0894 O   0  0  0  0  0  0
  -26.5632  -34.8916   22.4665 O   0  0  0  0  0  0
  -23.5432  -32.1414   23.7317 O   0  0  0  0  0  0
  -28.5154  -17.6675   21.4869 C   0  0  0  0  0  0
  -30.4958  -18.0347   20.1930 C   0  0  0  0  0  0
  -28.2108  -19.0502   21.4250 C   0  0  0  0  0  0
  -30.1882  -19.4452   20.1456 C   0  0  0  0  0  0
  -29.6544  -17.1020   20.8710 C   0  0  0  0  0  0
  -29.0253  -20.0137   20.7608 C   0  0  0  0  0  0
  -27.6177  -21.7905   21.7330 C   0  0  0  0  0  0
  -28.6791  -23.8911   19.6836 C   0  0  0  0  0  0
  -29.4382  -22.5726   20.2241 C   0  0  0  0  0  0
  -28.3274  -25.1320   20.6261 C   0  0  0  0  0  0
  -29.7814  -15.6443   20.9974 N   0  0  0  0  0  0
  -28.6348  -21.4194   20.7467 N   0  0  0  0  0  0
  -31.4897  -12.5457   19.1515 H   0  0  0  0  0  0
  -30.4031  -11.4081   19.8931 H   0  0  0  0  0  0
  -29.7759  -11.7426   17.4926 H   0  0  0  0  0  0
  -29.6619  -13.4677   17.7325 H   0  0  0  0  0  0
  -27.8648  -11.2978   18.8600 H   0  0  0  0  0  0
  -27.3846  -12.5867   17.7919 H   0  0  0  0  0  0
  -27.6802  -14.2543   19.5371 H   0  0  0  0  0  0
  -28.7193  -12.0135   21.3379 H   0  0  0  0  0  0
  -28.4392  -13.6410   21.8683 H   0  0  0  0  0  0
  -25.2749   -9.5688   22.4779 H   0  0  0  0  0  0
  -23.9996   -7.4630   22.7477 H   0  0  0  0  0  0
  -21.0860   -8.8765   19.8933 H   0  0  0  0  0  0
  -22.3710  -10.9668   19.6160 H   0  0  0  0  0  0
  -21.1988   -7.6149   23.9721 H   0  0  0  0  0  0
  -21.1485   -6.0524   25.9083 H   0  0  0  0  0  0
  -22.0598   -2.7612   23.2845 H   0  0  0  0  0  0
  -22.4057  -11.9841   22.4768 H   0  0  0  0  0  0
  -21.1089  -13.1227   22.2587 H   0  0  0  0  0  0
  -24.6701  -15.8491   20.5206 H   0  0  0  0  0  0
  -26.2824  -15.6195   20.0716 H   0  0  0  0  0  0
  -26.7189  -32.5465   23.1096 H   0  0  0  0  0  0
  -25.0030  -33.9692   25.0368 H   0  0  0  0  0  0
  -22.7135  -31.2963   21.3973 H   0  0  0  0  0  0
  -23.3754  -35.9622   23.3292 H   0  0  0  0  0  0
  -24.3575  -36.8924   22.2057 H   0  0  0  0  0  0
  -23.7249  -37.6484   23.6675 H   0  0  0  0  0  0
  -26.0721  -31.5492   20.5889 H   0  0  0  0  0  0
  -26.8443  -30.8558   21.9826 H   0  0  0  0  0  0
  -28.1276  -29.0009   21.1656 H   0  0  0  0  0  0
  -26.0212  -25.8947   19.0455 H   0  0  0  0  0  0
  -23.9775  -27.2697   19.0449 H   0  0  0  0  0  0
  -23.7497  -30.5775   19.4005 H   0  0  0  0  0  0
  -22.7558  -29.2282   19.8629 H   0  0  0  0  0  0
  -25.1278  -36.1927   25.0831 H   0  0  0  0  0  0
  -20.9942  -28.3244   24.1435 H   0  0  0  0  0  0
  -20.5703  -26.2270   23.3590 H   0  0  0  0  0  0
  -21.6643  -26.7460   22.1189 H   0  0  0  0  0  0
  -19.6947  -25.6312   21.1198 H   0  0  0  0  0  0
  -19.6718  -27.3235   20.6746 H   0  0  0  0  0  0
  -17.4208  -26.6678   21.3983 H   0  0  0  0  0  0
  -18.0313  -26.0058   22.9004 H   0  0  0  0  0  0
  -19.7957  -30.7237   24.2257 H   0  0  0  0  0  0
  -17.5037  -31.6266   24.5156 H   0  0  0  0  0  0
  -15.5357  -30.2963   23.7690 H   0  0  0  0  0  0
  -15.8662  -28.0823   22.7040 H   0  0  0  0  0  0
  -24.5937  -30.6985   25.7729 H   0  0  0  0  0  0
  -24.8831  -32.2861   26.4777 H   0  0  0  0  0  0
  -25.8047  -30.8930   27.0231 H   0  0  0  0  0  0
  -26.2861  -29.6777   24.1157 H   0  0  0  0  0  0
  -27.4111  -29.7260   25.4531 H   0  0  0  0  0  0
  -27.8693  -30.4322   23.9221 H   0  0  0  0  0  0
  -27.2712  -33.3647   26.1945 H   0  0  0  0  0  0
  -28.3917  -32.6759   25.0287 H   0  0  0  0  0  0
  -28.0679  -31.8456   26.5433 H   0  0  0  0  0  0
  -28.2568  -38.0096   24.7499 H   0  0  0  0  0  0
  -28.1085  -36.2621   24.6293 H   0  0  0  0  0  0
  -27.2279  -37.1427   25.8859 H   0  0  0  0  0  0
  -20.9396  -29.8721   21.6873 H   0  0  0  0  0  0
  -26.0169  -38.2850   24.1444 H   0  0  0  0  0  0
  -27.8315  -17.0273   22.0263 H   0  0  0  0  0  0
  -31.3877  -17.6819   19.6942 H   0  0  0  0  0  0
  -27.2975  -19.3390   21.9206 H   0  0  0  0  0  0
  -30.8709  -20.0909   19.6137 H   0  0  0  0  0  0
  -27.8441  -21.3717   22.7149 H   0  0  0  0  0  0
  -26.6336  -21.4367   21.4220 H   0  0  0  0  0  0
  -27.5414  -22.8668   21.8730 H   0  0  0  0  0  0
  -27.7878  -23.6032   19.1247 H   0  0  0  0  0  0
  -29.3478  -24.3025   18.9275 H   0  0  0  0  0  0
  -30.1784  -22.8608   20.9723 H   0  0  0  0  0  0
  -30.0211  -22.1897   19.3862 H   0  0  0  0  0  0
  -29.0468  -25.1259   21.4447 H   0  0  0  0  0  0
  -27.3622  -24.9570   21.1003 H   0  0  0  0  0  0
  -28.9737  -15.2234   21.4302 H   0  0  0  0  0  0
  1 25  1  0  0  0
  1 30  2  0  0  0
  1 81  1  0  0  0
  2  3  1  0  0  0
  2 25  1  0  0  0
  2 83  1  0  0  0
  2 84  1  0  0  0
  3  4  1  0  0  0
  3 85  1  0  0  0
  3 86  1  0  0  0
  4  5  1  0  0  0
  4 87  1  0  0  0
  4 88  1  0  0  0
  5  6  1  0  0  0
  5 26  1  0  0  0
  5 89  1  0  0  0
  6 25  1  0  0  0
  6 90  1  0  0  0
  6 91  1  0  0  0
  7  8  2  0  0  0
  7 26  1  0  0  0
  7 29  1  0  0  0
  8  9  1  0  0  0
  8 22  1  0  0  0
  9 10  1  0  0  0
  9 27  2  0  0  0
 10 11  2  0  0  0
 10 15  1  0  0  0
 11 12  1  0  0  0
 11 92  1  0  0  0
 12 13  2  0  0  0
 12 93  1  0  0  0
 13 14  1  0  0  0
 13 31  1  0  0  0
 14 15  2  0  0  0
 14 94  1  0  0  0
 15 95  1  0  0  0
 16 17  2  0  0  0
 16 21  1  0  0  0
 16 31  1  0  0  0
 17 18  1  0  0  0
 17 96  1  0  0  0
 18 19  2  0  0  0
 18 97  1  0  0  0
 19 20  1  0  0  0
 19 24  1  0  0  0
 20 21  2  0  0  0
 20 98  1  0  0  0
 21 23  1  0  0  0
 22 28  1  0  0  0
 22 32  2  0  0  0
 26 27  1  0  0  0
 28 99  1  0  0  0
 28100  1  0  0  0
 29101  1  0  0  0
 29102  1  0  0  0
 33 34  1  0  0  0
 33 66  1  0  0  0
 33 70  2  0  0  0
 34 36  1  0  0  0
 34 59  1  0  0  0
 34103  1  0  0  0
 35 44  2  0  0  0
 35 45  1  0  0  0
 35 68  1  0  0  0
 36 56  1  0  0  0
 36104  1  0  0  0
 37 39  1  0  0  0
 37 47  1  0  0  0
 37 66  1  0  0  0
 37105  1  0  0  0
 38 43  2  0  0  0
 38 46  1  0  0  0
 38 47  1  0  0  0
 39 64  1  0  0  0
 39 67  2  0  0  0
 40 52  1  0  0  0
 40 53  2  0  0  0
 40 58  1  0  0  0
 41106  1  0  0  0
 41107  1  0  0  0
 41108  1  0  0  0
 41 48  1  0  0  0
 42 43  1  0  0  0
 42 66  1  0  0  0
 42109  1  0  0  0
 42110  1  0  0  0
 43 44  1  0  0  0
 44111  1  0  0  0
 45 46  2  0  0  0
 45112  1  0  0  0
 46113  1  0  0  0
 47114  1  0  0  0
 47115  1  0  0  0
 48 56  1  0  0  0
 48 65  1  0  0  0
 48116  1  0  0  0
 49 50  1  0  0  0
 49 53  1  0  0  0
 49 64  1  0  0  0
 49117  1  0  0  0
 50 51  1  0  0  0
 50118  1  0  0  0
 50119  1  0  0  0
 51 52  1  0  0  0
 51120  1  0  0  0
 51121  1  0  0  0
 52122  1  0  0  0
 52123  1  0  0  0
 53 54  1  0  0  0
 54 55  2  0  0  0
 54124  1  0  0  0
 55 57  1  0  0  0
 55125  1  0  0  0
 56 69  2  0  0  0
 57 58  2  0  0  0
 57126  1  0  0  0
 58127  1  0  0  0
 59 60  1  0  0  0
 59 61  1  0  0  0
 59 62  1  0  0  0
 60128  1  0  0  0
 60129  1  0  0  0
 60130  1  0  0  0
 61131  1  0  0  0
 61132  1  0  0  0
 61133  1  0  0  0
 62134  1  0  0  0
 62135  1  0  0  0
 62136  1  0  0  0
 63 65  1  0  0  0
 63137  1  0  0  0
 63138  1  0  0  0
 63139  1  0  0  0
 64140  1  0  0  0
 65141  1  0  0  0
 68 80  1  0  0  0
 71 73  2  0  0  0
 71 75  1  0  0  0
 71142  1  0  0  0
 72 74  1  0  0  0
 72 75  2  0  0  0
 72143  1  0  0  0
 73 76  1  0  0  0
 73144  1  0  0  0
 74 76  2  0  0  0
 74145  1  0  0  0
 75 81  1  0  0  0
 76 82  1  0  0  0
 77 82  1  0  0  0
 77146  1  0  0  0
 77147  1  0  0  0
 77148  1  0  0  0
 78 79  1  0  0  0
 78 80  1  0  0  0
 78149  1  0  0  0
 78150  1  0  0  0
 79 82  1  0  0  0
 79151  1  0  0  0
 79152  1  0  0  0
 80153  1  0  0  0
 80154  1  0  0  0
 81155  1  0  0  0
M  ISO  4   1 100  68 101  80 101  81 100
M  END
> <chiral flag>
0

> <version>
0

> <s_m_source_file>
/data/baiqing/PycharmProjects/Reinvent-master-3.2/result/LINK_invent/BTK/process_docking_weight1_custom_product_contain_oxygen_bond_distance_aromatic_linkinvent_7_9_3/rearranged_h_0018.sdf

> <i_m_source_file_index>
31

> <r_mmod_Potential_Energy-OPLS-2005>
96.0075302124023

> <r_mmod_Stretch_Energy-OPLS-2005>
90.3139038085938

> <r_mmod_Bend_Energy-OPLS-2005>
187.635864257812

> <r_mmod_Torsional_Energy-OPLS-2005>
230.668258666992

> <r_mmod_Improper_Torsional_Energy-OPLS-2005>
4.55378293991089

> <r_mmod_Van_der_Waal_Energy-OPLS-2005>
145.405334472656

> <r_mmod_Electrostatic_Energy-OPLS-2005>
-383.672637939453

> <r_mmod_Solvation_Energy-OPLS-2005>
-227.081100463867

> <b_mmod_Minimization_Converged-OPLS-2005>
0

> <r_mmod_RMS_Derivative-OPLS-2005>
2.64921760559082

$$$$
31
                    3D
 Structure written by MMmdl.
159167  0  0  1  0            999 V2000
  -30.6439  -14.6983   20.3215 C   0  0  0  0  0  0
  -30.4490  -12.3681   19.4976 C   0  0  0  0  0  0
  -29.5333  -12.3300   18.2560 C   0  0  0  0  0  0
  -28.0318  -12.3293   18.6387 C   0  0  0  0  0  0
  -27.6461  -13.2333   19.8469 C   0  0  2  0  0  0
  -28.7047  -13.1956   20.9684 C   0  0  0  0  0  0
  -25.2481  -13.8108   20.5669 C   0  0  0  0  0  0
  -24.1773  -13.0348   20.9154 C   0  0  0  0  0  0
  -24.6415  -11.6861   20.8753 C   0  0  0  0  0  0
  -23.9129  -10.4231   21.0437 C   0  0  0  0  0  0
  -24.3672   -9.4141   21.9209 C   0  0  0  0  0  0
  -23.6293   -8.2203   22.0766 C   0  0  0  0  0  0
  -22.4270   -8.0287   21.3544 C   0  0  0  0  0  0
  -21.9936   -9.0289   20.4655 C   0  0  0  0  0  0
  -22.7321  -10.2121   20.3067 C   0  0  0  0  0  0
  -21.6846   -6.0728   22.5266 C   0  0  0  0  0  0
  -21.4035   -6.5630   23.8207 C   0  0  0  0  0  0
  -21.3651   -5.6767   24.9150 C   0  0  0  0  0  0
  -21.6043   -4.3030   24.7193 C   0  0  0  0  0  0
  -21.8840   -3.8136   23.4316 C   0  0  0  0  0  0
  -21.9196   -4.6963   22.3382 C   0  0  0  0  0  0
  -22.7814  -13.5169   21.1814 C   0  0  0  0  0  0
  -22.1659   -4.2170   21.0962 F   0  0  0  0  0  0
  -21.5619   -3.4511   25.7708 F   0  0  0  0  0  0
  -30.0024  -13.4858   20.3460 N   0  0  0  0  0  0
  -26.2991  -12.9371   20.3339 N   0  0  0  0  0  0
  -25.9373  -11.6510   20.5832 N   0  0  0  0  0  0
  -22.0472  -12.8201   22.0418 N   0  0  0  0  0  0
  -25.4025  -15.1804   20.4138 N   0  0  0  0  0  0
  -31.8741  -14.7523   20.2765 O   0  0  0  0  0  0
  -21.6608   -6.8899   21.4248 O   0  0  0  0  0  0
  -22.3522  -14.5495   20.6696 O   0  0  0  0  0  0
  -24.6248  -31.8592   23.1999 C   0  0  0  0  0  0
  -25.9083  -32.4796   23.8332 C   0  0  1  0  0  0
  -27.2367  -27.3208   20.1289 C   0  0  0  0  0  0
  -25.5904  -33.8598   24.2280 N   0  0  0  0  0  0
  -23.4203  -30.4793   21.5421 C   0  0  2  0  0  0
  -24.8716  -28.9253   20.1187 C   0  0  0  0  0  0
  -22.7467  -29.4616   22.4930 C   0  0  0  0  0  0
  -18.0289  -28.1380   22.8489 C   0  0  0  0  0  0
  -24.1475  -36.7275   23.2644 C   0  0  0  0  0  0
  -25.9585  -30.7918   21.3669 C   0  0  0  0  0  0
  -26.0378  -29.4159   20.7163 C   0  0  0  0  0  0
  -27.2251  -28.6296   20.7045 C   0  0  0  0  0  0
  -26.0501  -26.8777   19.5064 C   0  0  0  0  0  0
  -24.8785  -27.6609   19.5070 C   0  0  0  0  0  0
  -23.6378  -29.8057   20.1598 C   0  0  0  0  0  0
  -25.4115  -36.3108   24.0343 C   0  0  1  0  0  0
  -20.5878  -28.3674   23.1287 C   0  0  2  0  0  0
  -20.6753  -26.9395   22.5411 C   0  0  0  0  0  0
  -19.5744  -26.6379   21.5198 C   0  0  0  0  0  0
  -18.1927  -26.7933   22.1615 C   0  0  0  0  0  0
  -19.1537  -28.8849   23.2880 C   0  0  0  0  0  0
  -18.9465  -30.1445   23.8901 C   0  0  0  0  0  0
  -17.6463  -30.6586   24.0564 C   0  0  0  0  0  0
  -25.9048  -34.9474   23.5125 C   0  0  0  0  0  0
  -16.5352  -29.9093   23.6335 C   0  0  0  0  0  0
  -16.7274  -28.6496   23.0367 C   0  0  0  0  0  0
  -26.4469  -31.6614   25.0706 C   0  0  0  0  0  0
  -25.3725  -31.3768   26.1456 C   0  0  0  0  0  0
  -27.0320  -30.3071   24.6126 C   0  0  0  0  0  0
  -27.6027  -32.4356   25.7483 C   0  0  0  0  0  0
  -27.5581  -37.1796   24.8479 C   0  0  0  0  0  0
  -21.4166  -29.3046   22.3681 N   0  0  0  0  0  0
  -26.4289  -37.3801   23.9427 N   0  0  0  0  0  0
  -24.6879  -31.0582   22.0954 N   0  0  0  0  0  0
  -23.4196  -28.8175   23.3023 O   0  0  0  0  0  0
  -28.3746  -26.5025   20.1278 O   0  0  0  0  0  0
  -26.5588  -34.8926   22.4678 O   0  0  0  0  0  0
  -23.5406  -32.1390   23.7310 O   0  0  0  0  0  0
  -30.4118  -19.5088   19.7729 C   0  0  0  0  0  0
  -30.7403  -18.1162   19.7850 C   0  0  0  0  0  0
  -28.1849  -18.9729   20.5007 C   0  0  0  0  0  0
  -29.1095  -19.9770   20.0988 C   0  0  0  0  0  0
  -29.7889  -17.1150   20.1290 C   0  0  0  0  0  0
  -28.5136  -17.5871   20.5233 C   0  0  0  0  0  0
  -29.8961  -15.6326   18.2391 C   0  0  0  0  0  0
  -29.7182  -22.5609   21.8471 C   0  0  0  0  0  0
  -28.6235  -21.4661   19.8801 C   0  0  0  0  0  0
  -29.1912  -24.0300   19.8240 C   0  0  0  0  0  0
  -28.2557  -25.0871   20.5646 C   0  0  0  0  0  0
  -29.9383  -15.7222   19.7102 N   0  0  0  0  0  0
  -29.4547  -22.6244   20.3916 N   0  3  1  0  0  0
  -27.5554  -16.6830   20.8201 F   0  0  0  0  0  0
  -31.4973  -12.4633   19.2049 H   0  0  0  0  0  0
  -30.3768  -11.4319   20.0524 H   0  0  0  0  0  0
  -29.7496  -11.4145   17.7018 H   0  0  0  0  0  0
  -29.7800  -13.1288   17.5648 H   0  0  0  0  0  0
  -27.7798  -11.2944   18.8710 H   0  0  0  0  0  0
  -27.4273  -12.5948   17.7706 H   0  0  0  0  0  0
  -27.6206  -14.2569   19.4793 H   0  0  0  0  0  0
  -28.7244  -12.2219   21.4607 H   0  0  0  0  0  0
  -28.4760  -13.9399   21.7344 H   0  0  0  0  0  0
  -25.2833   -9.5570   22.4779 H   0  0  0  0  0  0
  -23.9991   -7.4568   22.7475 H   0  0  0  0  0  0
  -21.0856   -8.8866   19.8953 H   0  0  0  0  0  0
  -22.3850  -10.9692   19.6178 H   0  0  0  0  0  0
  -21.2067   -7.6133   23.9748 H   0  0  0  0  0  0
  -21.1443   -6.0455   25.9064 H   0  0  0  0  0  0
  -22.0641   -2.7609   23.2787 H   0  0  0  0  0  0
  -22.4022  -11.9835   22.4795 H   0  0  0  0  0  0
  -21.1176  -13.1372   22.2741 H   0  0  0  0  0  0
  -24.6558  -15.8368   20.6097 H   0  0  0  0  0  0
  -26.3129  -15.6318   20.3602 H   0  0  0  0  0  0
  -26.7133  -32.5440   23.1044 H   0  0  0  0  0  0
  -25.0120  -33.9752   25.0476 H   0  0  0  0  0  0
  -22.7141  -31.3003   21.3950 H   0  0  0  0  0  0
  -23.3769  -35.9574   23.3344 H   0  0  0  0  0  0
  -24.3548  -36.8850   22.2046 H   0  0  0  0  0  0
  -23.7191  -37.6475   23.6635 H   0  0  0  0  0  0
  -26.0793  -31.5528   20.5952 H   0  0  0  0  0  0
  -26.8405  -30.8493   21.9920 H   0  0  0  0  0  0
  -28.1263  -29.0183   21.1561 H   0  0  0  0  0  0
  -26.0194  -25.9185   19.0099 H   0  0  0  0  0  0
  -23.9835  -27.2844   19.0324 H   0  0  0  0  0  0
  -23.7583  -30.5789   19.4014 H   0  0  0  0  0  0
  -22.7587  -29.2348   19.8567 H   0  0  0  0  0  0
  -25.1299  -36.1967   25.0836 H   0  0  0  0  0  0
  -20.9961  -28.3232   24.1415 H   0  0  0  0  0  0
  -20.5620  -26.2287   23.3606 H   0  0  0  0  0  0
  -21.6630  -26.7401   22.1238 H   0  0  0  0  0  0
  -19.6900  -25.6294   21.1238 H   0  0  0  0  0  0
  -19.6699  -27.3169   20.6716 H   0  0  0  0  0  0
  -17.4197  -26.6668   21.4019 H   0  0  0  0  0  0
  -18.0336  -26.0061   22.9001 H   0  0  0  0  0  0
  -19.7930  -30.7248   24.2264 H   0  0  0  0  0  0
  -17.5031  -31.6281   24.5156 H   0  0  0  0  0  0
  -15.5354  -30.3005   23.7659 H   0  0  0  0  0  0
  -15.8659  -28.0815   22.7100 H   0  0  0  0  0  0
  -24.5864  -30.7142   25.7803 H   0  0  0  0  0  0
  -24.8939  -32.2947   26.4894 H   0  0  0  0  0  0
  -25.8053  -30.8942   27.0231 H   0  0  0  0  0  0
  -26.2881  -29.6840   24.1144 H   0  0  0  0  0  0
  -27.4067  -29.7304   25.4587 H   0  0  0  0  0  0
  -27.8730  -30.4432   23.9325 H   0  0  0  0  0  0
  -27.2636  -33.3662   26.2053 H   0  0  0  0  0  0
  -28.3836  -32.6913   25.0311 H   0  0  0  0  0  0
  -28.0698  -31.8494   26.5400 H   0  0  0  0  0  0
  -28.2636  -38.0065   24.7518 H   0  0  0  0  0  0
  -28.1035  -36.2593   24.6326 H   0  0  0  0  0  0
  -27.2275  -37.1464   25.8875 H   0  0  0  0  0  0
  -20.9322  -29.8798   21.6908 H   0  0  0  0  0  0
  -26.0189  -38.2883   24.1426 H   0  0  0  0  0  0
  -31.1591  -20.2129   19.4340 H   0  0  0  0  0  0
  -31.7113  -17.8075   19.4208 H   0  0  0  0  0  0
  -27.1621  -19.2517   20.7151 H   0  0  0  0  0  0
  -29.7806  -16.6032   17.7509 H   0  0  0  0  0  0
  -29.0261  -15.0600   17.9331 H   0  0  0  0  0  0
  -30.7950  -15.1722   17.8154 H   0  0  0  0  0  0
  -30.3964  -23.3561   22.1610 H   0  0  0  0  0  0
  -30.1952  -21.6163   22.1139 H   0  0  0  0  0  0
  -28.7994  -22.6383   22.4245 H   0  0  0  0  0  0
  -27.6320  -21.5649   20.3266 H   0  0  0  0  0  0
  -28.4749  -21.5952   18.8060 H   0  0  0  0  0  0
  -30.1775  -24.4938   19.7717 H   0  0  0  0  0  0
  -28.8742  -23.9406   18.7856 H   0  0  0  0  0  0
  -28.5050  -25.0906   21.6269 H   0  0  0  0  0  0
  -27.2249  -24.7386   20.5178 H   0  0  0  0  0  0
  -30.3588  -22.4202   19.9925 H   0  0  0  0  0  0
  1 25  1  0  0  0
  1 30  2  0  0  0
  1 82  1  0  0  0
  2  3  1  0  0  0
  2 25  1  0  0  0
  2 85  1  0  0  0
  2 86  1  0  0  0
  3  4  1  0  0  0
  3 87  1  0  0  0
  3 88  1  0  0  0
  4  5  1  0  0  0
  4 89  1  0  0  0
  4 90  1  0  0  0
  5  6  1  0  0  0
  5 26  1  0  0  0
  5 91  1  0  0  0
  6 25  1  0  0  0
  6 92  1  0  0  0
  6 93  1  0  0  0
  7  8  2  0  0  0
  7 26  1  0  0  0
  7 29  1  0  0  0
  8  9  1  0  0  0
  8 22  1  0  0  0
  9 10  1  0  0  0
  9 27  2  0  0  0
 10 11  2  0  0  0
 10 15  1  0  0  0
 11 12  1  0  0  0
 11 94  1  0  0  0
 12 13  2  0  0  0
 12 95  1  0  0  0
 13 14  1  0  0  0
 13 31  1  0  0  0
 14 15  2  0  0  0
 14 96  1  0  0  0
 15 97  1  0  0  0
 16 17  2  0  0  0
 16 21  1  0  0  0
 16 31  1  0  0  0
 17 18  1  0  0  0
 17 98  1  0  0  0
 18 19  2  0  0  0
 18 99  1  0  0  0
 19 20  1  0  0  0
 19 24  1  0  0  0
 20 21  2  0  0  0
 20100  1  0  0  0
 21 23  1  0  0  0
 22 28  1  0  0  0
 22 32  2  0  0  0
 26 27  1  0  0  0
 28101  1  0  0  0
 28102  1  0  0  0
 29103  1  0  0  0
 29104  1  0  0  0
 33 34  1  0  0  0
 33 66  1  0  0  0
 33 70  2  0  0  0
 34 36  1  0  0  0
 34 59  1  0  0  0
 34105  1  0  0  0
 35 44  2  0  0  0
 35 45  1  0  0  0
 35 68  1  0  0  0
 36 56  1  0  0  0
 36106  1  0  0  0
 37 39  1  0  0  0
 37 47  1  0  0  0
 37 66  1  0  0  0
 37107  1  0  0  0
 38 43  2  0  0  0
 38 46  1  0  0  0
 38 47  1  0  0  0
 39 64  1  0  0  0
 39 67  2  0  0  0
 40 52  1  0  0  0
 40 53  2  0  0  0
 40 58  1  0  0  0
 41108  1  0  0  0
 41109  1  0  0  0
 41110  1  0  0  0
 41 48  1  0  0  0
 42 43  1  0  0  0
 42 66  1  0  0  0
 42111  1  0  0  0
 42112  1  0  0  0
 43 44  1  0  0  0
 44113  1  0  0  0
 45 46  2  0  0  0
 45114  1  0  0  0
 46115  1  0  0  0
 47116  1  0  0  0
 47117  1  0  0  0
 48 56  1  0  0  0
 48 65  1  0  0  0
 48118  1  0  0  0
 49 50  1  0  0  0
 49 53  1  0  0  0
 49 64  1  0  0  0
 49119  1  0  0  0
 50 51  1  0  0  0
 50120  1  0  0  0
 50121  1  0  0  0
 51 52  1  0  0  0
 51122  1  0  0  0
 51123  1  0  0  0
 52124  1  0  0  0
 52125  1  0  0  0
 53 54  1  0  0  0
 54 55  2  0  0  0
 54126  1  0  0  0
 55 57  1  0  0  0
 55127  1  0  0  0
 56 69  2  0  0  0
 57 58  2  0  0  0
 57128  1  0  0  0
 58129  1  0  0  0
 59 60  1  0  0  0
 59 61  1  0  0  0
 59 62  1  0  0  0
 60130  1  0  0  0
 60131  1  0  0  0
 60132  1  0  0  0
 61133  1  0  0  0
 61134  1  0  0  0
 61135  1  0  0  0
 62136  1  0  0  0
 62137  1  0  0  0
 62138  1  0  0  0
 63 65  1  0  0  0
 63139  1  0  0  0
 63140  1  0  0  0
 63141  1  0  0  0
 64142  1  0  0  0
 65143  1  0  0  0
 68 81  1  0  0  0
 71 72  2  0  0  0
 71 74  1  0  0  0
 71144  1  0  0  0
 72 75  1  0  0  0
 72145  1  0  0  0
 73 74  2  0  0  0
 73 76  1  0  0  0
 73146  1  0  0  0
 74 79  1  0  0  0
 75 76  2  0  0  0
 75 82  1  0  0  0
 76 84  1  0  0  0
 77 82  1  0  0  0
 77147  1  0  0  0
 77148  1  0  0  0
 77149  1  0  0  0
 78150  1  0  0  0
 78151  1  0  0  0
 78152  1  0  0  0
 78 83  1  0  0  0
 79 83  1  0  0  0
 79153  1  0  0  0
 79154  1  0  0  0
 80 81  1  0  0  0
 80 83  1  0  0  0
 80155  1  0  0  0
 80156  1  0  0  0
 81157  1  0  0  0
 81158  1  0  0  0
 83159  1  0  0  0
M  CHG  1  83   1
M  ISO  4   1 100  68 101  81 101  82 100
M  END
> <chiral flag>
0

> <version>
0

> <s_m_source_file>
/data/baiqing/PycharmProjects/Reinvent-master-3.2/result/LINK_invent/BTK/process_docking_weight1_custom_product_contain_oxygen_bond_distance_aromatic_linkinvent_7_9_3/rearranged_h_0018.sdf

> <i_m_source_file_index>
32

> <r_mmod_Potential_Energy-OPLS-2005>
230.53303527832

> <r_mmod_Stretch_Energy-OPLS-2005>
84.54736328125

> <r_mmod_Bend_Energy-OPLS-2005>
159.581939697266

> <r_mmod_Torsional_Energy-OPLS-2005>
366.066314697266

> <r_mmod_Improper_Torsional_Energy-OPLS-2005>
30.8203220367432

> <r_mmod_Van_der_Waal_Energy-OPLS-2005>
143.410415649414

> <r_mmod_Electrostatic_Energy-OPLS-2005>
-200.468154907227

> <r_mmod_Solvation_Energy-OPLS-2005>
-429.877899169922

> <b_mmod_Minimization_Converged-OPLS-2005>
0

> <r_mmod_RMS_Derivative-OPLS-2005>
5.1576886177063

$$$$
32
                    3D
 Structure written by MMmdl.
161169  0  0  1  0            999 V2000
  -30.6774  -14.6333   20.5513 C   0  0  0  0  0  0
  -30.4244  -12.4080   19.4572 C   0  0  0  0  0  0
  -29.5013  -12.5182   18.2248 C   0  0  0  0  0  0
  -28.0250  -12.3487   18.6324 C   0  0  0  0  0  0
  -27.6489  -13.2164   19.8629 C   0  0  2  0  0  0
  -28.6904  -13.0603   20.9887 C   0  0  0  0  0  0
  -25.2547  -13.8165   20.5676 C   0  0  0  0  0  0
  -24.1811  -13.0428   20.9151 C   0  0  0  0  0  0
  -24.6379  -11.6904   20.8714 C   0  0  0  0  0  0
  -23.9056  -10.4287   21.0390 C   0  0  0  0  0  0
  -24.3606   -9.4203   21.9174 C   0  0  0  0  0  0
  -23.6280   -8.2243   22.0764 C   0  0  0  0  0  0
  -22.4267   -8.0273   21.3549 C   0  0  0  0  0  0
  -21.9892   -9.0238   20.4652 C   0  0  0  0  0  0
  -22.7217  -10.2121   20.3046 C   0  0  0  0  0  0
  -21.6854   -6.0731   22.5282 C   0  0  0  0  0  0
  -21.4017   -6.5643   23.8209 C   0  0  0  0  0  0
  -21.3653   -5.6798   24.9170 C   0  0  0  0  0  0
  -21.6041   -4.3058   24.7230 C   0  0  0  0  0  0
  -21.8819   -3.8147   23.4348 C   0  0  0  0  0  0
  -21.9194   -4.6964   22.3402 C   0  0  0  0  0  0
  -22.7836  -13.5226   21.1797 C   0  0  0  0  0  0
  -22.1662   -4.2147   21.0979 F   0  0  0  0  0  0
  -21.5624   -3.4542   25.7740 F   0  0  0  0  0  0
  -29.9988  -13.4388   20.4339 N   0  0  0  0  0  0
  -26.2960  -12.9338   20.3315 N   0  0  0  0  0  0
  -25.9306  -11.6491   20.5748 N   0  0  0  0  0  0
  -22.0503  -12.8229   22.0379 N   0  0  0  0  0  0
  -25.4278  -15.1881   20.4121 N   0  0  0  0  0  0
  -31.8267  -14.7111   20.1031 O   0  0  0  0  0  0
  -21.6639   -6.8865   21.4241 O   0  0  0  0  0  0
  -22.3516  -14.5527   20.6643 O   0  0  0  0  0  0
  -24.6242  -31.8604   23.2027 C   0  0  0  0  0  0
  -25.9114  -32.4763   23.8338 C   0  0  1  0  0  0
  -27.2192  -27.3435   20.1117 C   0  0  0  0  0  0
  -25.5941  -33.8567   24.2252 N   0  0  0  0  0  0
  -23.4151  -30.4887   21.5451 C   0  0  2  0  0  0
  -24.8610  -28.9545   20.1094 C   0  0  0  0  0  0
  -22.7459  -29.4635   22.4916 C   0  0  0  0  0  0
  -18.0291  -28.1382   22.8474 C   0  0  0  0  0  0
  -24.1513  -36.7300   23.2632 C   0  0  0  0  0  0
  -25.9554  -30.8029   21.3713 C   0  0  0  0  0  0
  -26.0304  -29.4346   20.7117 C   0  0  0  0  0  0
  -27.2152  -28.6419   20.7013 C   0  0  0  0  0  0
  -26.0226  -26.9175   19.4841 C   0  0  0  0  0  0
  -24.8577  -27.7012   19.4861 C   0  0  0  0  0  0
  -23.6265  -29.8283   20.1605 C   0  0  0  0  0  0
  -25.4121  -36.3063   24.0317 C   0  0  1  0  0  0
  -20.5898  -28.3691   23.1260 C   0  0  2  0  0  0
  -20.6791  -26.9411   22.5399 C   0  0  0  0  0  0
  -19.5775  -26.6381   21.5198 C   0  0  0  0  0  0
  -18.1948  -26.7921   22.1596 C   0  0  0  0  0  0
  -19.1552  -28.8844   23.2870 C   0  0  0  0  0  0
  -18.9482  -30.1454   23.8888 C   0  0  0  0  0  0
  -17.6482  -30.6572   24.0577 C   0  0  0  0  0  0
  -25.9059  -34.9441   23.5072 C   0  0  0  0  0  0
  -16.5374  -29.9077   23.6336 C   0  0  0  0  0  0
  -16.7287  -28.6509   23.0330 C   0  0  0  0  0  0
  -26.4499  -31.6577   25.0714 C   0  0  0  0  0  0
  -25.3701  -31.3794   26.1424 C   0  0  0  0  0  0
  -27.0315  -30.2969   24.6191 C   0  0  0  0  0  0
  -27.6051  -32.4314   25.7487 C   0  0  0  0  0  0
  -27.5578  -37.1801   24.8446 C   0  0  0  0  0  0
  -21.4177  -29.3043   22.3655 N   0  0  0  0  0  0
  -26.4285  -37.3748   23.9397 N   0  0  0  0  0  0
  -24.6830  -31.0664   22.0956 N   0  0  0  0  0  0
  -23.4198  -28.8146   23.2939 O   0  0  0  0  0  0
  -28.3322  -26.4921   20.1645 O   0  0  0  0  0  0
  -26.5617  -34.8913   22.4627 O   0  0  0  0  0  0
  -23.5411  -32.1382   23.7389 O   0  0  0  0  0  0
  -28.7131  -18.9059   21.1315 C   0  0  0  0  0  0
  -28.3219  -20.2570   21.3521 C   0  0  0  0  0  0
  -30.2296  -21.0421   20.1370 C   0  0  0  0  0  0
  -29.9176  -18.5720   20.4606 C   0  0  0  0  0  0
  -30.6467  -19.6907   19.9370 C   0  0  0  0  0  0
  -29.0690  -21.3731   20.8775 C   0  0  0  0  0  0
  -31.9242  -19.4714   19.1384 C   0  0  0  0  0  0
  -28.1137  -22.9002   22.5235 C   0  0  0  0  0  0
  -29.3393  -15.9472   22.1680 C   0  0  0  0  0  0
  -30.4779  -17.1031   20.2382 C   0  0  0  0  0  0
  -29.1595  -23.9747   20.5259 C   0  0  0  0  0  0
  -28.0293  -25.0519   20.2477 C   0  0  0  0  0  0
  -28.6627  -22.7214   21.1765 N   0  0  0  0  0  0
  -30.0002  -15.8072   20.8675 N   0  0  0  0  0  0
  -31.4662  -12.5155   19.1500 H   0  0  0  0  0  0
  -30.3591  -11.4143   19.9005 H   0  0  0  0  0  0
  -29.7718  -11.7708   17.4783 H   0  0  0  0  0  0
  -29.6386  -13.4904   17.7478 H   0  0  0  0  0  0
  -27.8616  -11.2944   18.8589 H   0  0  0  0  0  0
  -27.3708  -12.5817   17.7914 H   0  0  0  0  0  0
  -27.6716  -14.2550   19.5321 H   0  0  0  0  0  0
  -28.7214  -12.0264   21.3356 H   0  0  0  0  0  0
  -28.4044  -13.6318   21.8648 H   0  0  0  0  0  0
  -25.2758   -9.5690   22.4732 H   0  0  0  0  0  0
  -23.9993   -7.4648   22.7494 H   0  0  0  0  0  0
  -21.0815   -8.8733   19.8964 H   0  0  0  0  0  0
  -22.3656  -10.9643   19.6144 H   0  0  0  0  0  0
  -21.2017   -7.6154   23.9708 H   0  0  0  0  0  0
  -21.1471   -6.0534   25.9071 H   0  0  0  0  0  0
  -22.0608   -2.7612   23.2851 H   0  0  0  0  0  0
  -22.4144  -11.9893   22.4740 H   0  0  0  0  0  0
  -21.1121  -13.1250   22.2611 H   0  0  0  0  0  0
  -24.6658  -15.8457   20.5332 H   0  0  0  0  0  0
  -26.2847  -15.6274   20.1012 H   0  0  0  0  0  0
  -26.7174  -32.5452   23.1094 H   0  0  0  0  0  0
  -25.0137  -33.9727   25.0431 H   0  0  0  0  0  0
  -22.7087  -31.3110   21.4053 H   0  0  0  0  0  0
  -23.3770  -35.9655   23.3271 H   0  0  0  0  0  0
  -24.3610  -36.8917   22.2050 H   0  0  0  0  0  0
  -23.7299  -37.6502   23.6664 H   0  0  0  0  0  0
  -26.0898  -31.5724   20.6087 H   0  0  0  0  0  0
  -26.8336  -30.8409   22.0044 H   0  0  0  0  0  0
  -28.1138  -29.0031   21.1817 H   0  0  0  0  0  0
  -25.9472  -25.9665   18.9835 H   0  0  0  0  0  0
  -23.9629  -27.3284   19.0084 H   0  0  0  0  0  0
  -23.7374  -30.6045   19.4034 H   0  0  0  0  0  0
  -22.7466  -29.2556   19.8589 H   0  0  0  0  0  0
  -25.1308  -36.1883   25.0811 H   0  0  0  0  0  0
  -21.0025  -28.3293   24.1366 H   0  0  0  0  0  0
  -20.5676  -26.2313   23.3605 H   0  0  0  0  0  0
  -21.6665  -26.7418   22.1210 H   0  0  0  0  0  0
  -19.6966  -25.6296   21.1216 H   0  0  0  0  0  0
  -19.6736  -27.3214   20.6748 H   0  0  0  0  0  0
  -17.4228  -26.6697   21.3974 H   0  0  0  0  0  0
  -18.0333  -26.0028   22.8953 H   0  0  0  0  0  0
  -19.7966  -30.7272   24.2226 H   0  0  0  0  0  0
  -17.5052  -31.6241   24.5207 H   0  0  0  0  0  0
  -15.5389  -30.2999   23.7651 H   0  0  0  0  0  0
  -15.8677  -28.0847   22.7018 H   0  0  0  0  0  0
  -24.5905  -30.7075   25.7788 H   0  0  0  0  0  0
  -24.8871  -32.3000   26.4700 H   0  0  0  0  0  0
  -25.7983  -30.9089   27.0283 H   0  0  0  0  0  0
  -26.2882  -29.6735   24.1182 H   0  0  0  0  0  0
  -27.3938  -29.7195   25.4714 H   0  0  0  0  0  0
  -27.8794  -30.4190   23.9441 H   0  0  0  0  0  0
  -27.2659  -33.3666   26.1958 H   0  0  0  0  0  0
  -28.3924  -32.6771   25.0343 H   0  0  0  0  0  0
  -28.0641  -31.8493   26.5479 H   0  0  0  0  0  0
  -28.2558  -38.0127   24.7488 H   0  0  0  0  0  0
  -28.1103  -36.2649   24.6262 H   0  0  0  0  0  0
  -27.2306  -37.1419   25.8849 H   0  0  0  0  0  0
  -20.9350  -29.8769   21.6877 H   0  0  0  0  0  0
  -26.0160  -38.2816   24.1411 H   0  0  0  0  0  0
  -28.0610  -18.1314   21.5040 H   0  0  0  0  0  0
  -27.4100  -20.4233   21.9064 H   0  0  0  0  0  0
  -30.8386  -21.8400   19.7348 H   0  0  0  0  0  0
  -32.1479  -20.3320   18.5067 H   0  0  0  0  0  0
  -31.8455  -18.6113   18.4734 H   0  0  0  0  0  0
  -32.7717  -19.3152   19.8059 H   0  0  0  0  0  0
  -27.0435  -22.6914   22.5438 H   0  0  0  0  0  0
  -28.2539  -23.9222   22.8805 H   0  0  0  0  0  0
  -28.6027  -22.2504   23.2495 H   0  0  0  0  0  0
  -28.2566  -15.8988   22.0448 H   0  0  0  0  0  0
  -29.5858  -16.8935   22.6484 H   0  0  0  0  0  0
  -29.6424  -15.1724   22.8734 H   0  0  0  0  0  0
  -31.5328  -17.1782   20.5056 H   0  0  0  0  0  0
  -30.4536  -16.9337   19.1603 H   0  0  0  0  0  0
  -29.9179  -24.4111   21.1772 H   0  0  0  0  0  0
  -29.6648  -23.7438   19.5891 H   0  0  0  0  0  0
  -27.2619  -24.9533   21.0176 H   0  0  0  0  0  0
  -27.5666  -24.7276   19.3174 H   0  0  0  0  0  0
  1 25  1  0  0  0
  1 30  2  0  0  0
  1 84  1  0  0  0
  2  3  1  0  0  0
  2 25  1  0  0  0
  2 85  1  0  0  0
  2 86  1  0  0  0
  3  4  1  0  0  0
  3 87  1  0  0  0
  3 88  1  0  0  0
  4  5  1  0  0  0
  4 89  1  0  0  0
  4 90  1  0  0  0
  5  6  1  0  0  0
  5 26  1  0  0  0
  5 91  1  0  0  0
  6 25  1  0  0  0
  6 92  1  0  0  0
  6 93  1  0  0  0
  7  8  2  0  0  0
  7 26  1  0  0  0
  7 29  1  0  0  0
  8  9  1  0  0  0
  8 22  1  0  0  0
  9 10  1  0  0  0
  9 27  2  0  0  0
 10 11  2  0  0  0
 10 15  1  0  0  0
 11 12  1  0  0  0
 11 94  1  0  0  0
 12 13  2  0  0  0
 12 95  1  0  0  0
 13 14  1  0  0  0
 13 31  1  0  0  0
 14 15  2  0  0  0
 14 96  1  0  0  0
 15 97  1  0  0  0
 16 17  2  0  0  0
 16 21  1  0  0  0
 16 31  1  0  0  0
 17 18  1  0  0  0
 17 98  1  0  0  0
 18 19  2  0  0  0
 18 99  1  0  0  0
 19 20  1  0  0  0
 19 24  1  0  0  0
 20 21  2  0  0  0
 20100  1  0  0  0
 21 23  1  0  0  0
 22 28  1  0  0  0
 22 32  2  0  0  0
 26 27  1  0  0  0
 28101  1  0  0  0
 28102  1  0  0  0
 29103  1  0  0  0
 29104  1  0  0  0
 33 34  1  0  0  0
 33 66  1  0  0  0
 33 70  2  0  0  0
 34 36  1  0  0  0
 34 59  1  0  0  0
 34105  1  0  0  0
 35 44  2  0  0  0
 35 45  1  0  0  0
 35 68  1  0  0  0
 36 56  1  0  0  0
 36106  1  0  0  0
 37 39  1  0  0  0
 37 47  1  0  0  0
 37 66  1  0  0  0
 37107  1  0  0  0
 38 43  2  0  0  0
 38 46  1  0  0  0
 38 47  1  0  0  0
 39 64  1  0  0  0
 39 67  2  0  0  0
 40 52  1  0  0  0
 40 53  2  0  0  0
 40 58  1  0  0  0
 41108  1  0  0  0
 41109  1  0  0  0
 41110  1  0  0  0
 41 48  1  0  0  0
 42 43  1  0  0  0
 42 66  1  0  0  0
 42111  1  0  0  0
 42112  1  0  0  0
 43 44  1  0  0  0
 44113  1  0  0  0
 45 46  2  0  0  0
 45114  1  0  0  0
 46115  1  0  0  0
 47116  1  0  0  0
 47117  1  0  0  0
 48 56  1  0  0  0
 48 65  1  0  0  0
 48118  1  0  0  0
 49 50  1  0  0  0
 49 53  1  0  0  0
 49 64  1  0  0  0
 49119  1  0  0  0
 50 51  1  0  0  0
 50120  1  0  0  0
 50121  1  0  0  0
 51 52  1  0  0  0
 51122  1  0  0  0
 51123  1  0  0  0
 52124  1  0  0  0
 52125  1  0  0  0
 53 54  1  0  0  0
 54 55  2  0  0  0
 54126  1  0  0  0
 55 57  1  0  0  0
 55127  1  0  0  0
 56 69  2  0  0  0
 57 58  2  0  0  0
 57128  1  0  0  0
 58129  1  0  0  0
 59 60  1  0  0  0
 59 61  1  0  0  0
 59 62  1  0  0  0
 60130  1  0  0  0
 60131  1  0  0  0
 60132  1  0  0  0
 61133  1  0  0  0
 61134  1  0  0  0
 61135  1  0  0  0
 62136  1  0  0  0
 62137  1  0  0  0
 62138  1  0  0  0
 63 65  1  0  0  0
 63139  1  0  0  0
 63140  1  0  0  0
 63141  1  0  0  0
 64142  1  0  0  0
 65143  1  0  0  0
 68 82  1  0  0  0
 71 72  2  0  0  0
 71 74  1  0  0  0
 71144  1  0  0  0
 72 76  1  0  0  0
 72145  1  0  0  0
 73 75  1  0  0  0
 73 76  2  0  0  0
 73146  1  0  0  0
 74 75  2  0  0  0
 74 80  1  0  0  0
 75 77  1  0  0  0
 76 83  1  0  0  0
 77147  1  0  0  0
 77148  1  0  0  0
 77149  1  0  0  0
 78 83  1  0  0  0
 78150  1  0  0  0
 78151  1  0  0  0
 78152  1  0  0  0
 79 84  1  0  0  0
 79153  1  0  0  0
 79154  1  0  0  0
 79155  1  0  0  0
 80 84  1  0  0  0
 80156  1  0  0  0
 80157  1  0  0  0
 81 82  1  0  0  0
 81 83  1  0  0  0
 81158  1  0  0  0
 81159  1  0  0  0
 82160  1  0  0  0
 82161  1  0  0  0
M  ISO  4   1 100  68 101  82 101  84 100
M  END
> <chiral flag>
0

> <version>
0

> <s_m_source_file>
/data/baiqing/PycharmProjects/Reinvent-master-3.2/result/LINK_invent/BTK/process_docking_weight1_custom_product_contain_oxygen_bond_distance_aromatic_linkinvent_7_9_3/rearranged_h_0018.sdf

> <i_m_source_file_index>
33

> <r_mmod_Potential_Energy-OPLS-2005>
218.105972290039

> <r_mmod_Stretch_Energy-OPLS-2005>
84.5386199951172

> <r_mmod_Bend_Energy-OPLS-2005>
174.456192016602

> <r_mmod_Torsional_Energy-OPLS-2005>
250.465072631836

> <r_mmod_Improper_Torsional_Energy-OPLS-2005>
10.9378728866577

> <r_mmod_Van_der_Waal_Energy-OPLS-2005>
173.126678466797

> <r_mmod_Electrostatic_Energy-OPLS-2005>
-307.5869140625

> <r_mmod_Solvation_Energy-OPLS-2005>
-210.163467407227

> <b_mmod_Minimization_Converged-OPLS-2005>
0

> <r_mmod_RMS_Derivative-OPLS-2005>
2.98521184921265

$$$$
33
                    3D
 Structure written by MMmdl.
153161  0  0  1  0            999 V2000
  -30.4282  -15.1879   20.3828 C   0  0  0  0  0  0
  -30.4507  -12.7522   19.5152 C   0  0  0  0  0  0
  -29.5375  -12.5673   18.2766 C   0  0  0  0  0  0
  -28.0796  -12.3054   18.7000 C   0  0  0  0  0  0
  -27.6191  -13.2636   19.8273 C   0  0  2  0  0  0
  -28.6575  -13.3809   20.9627 C   0  0  0  0  0  0
  -25.2420  -13.8222   20.5725 C   0  0  0  0  0  0
  -24.1760  -13.0429   20.9250 C   0  0  0  0  0  0
  -24.6400  -11.6921   20.8755 C   0  0  0  0  0  0
  -23.9084  -10.4290   21.0404 C   0  0  0  0  0  0
  -24.3628   -9.4204   21.9182 C   0  0  0  0  0  0
  -23.6299   -8.2240   22.0753 C   0  0  0  0  0  0
  -22.4279   -8.0280   21.3546 C   0  0  0  0  0  0
  -21.9918   -9.0252   20.4647 C   0  0  0  0  0  0
  -22.7253  -10.2129   20.3055 C   0  0  0  0  0  0
  -21.6854   -6.0735   22.5278 C   0  0  0  0  0  0
  -21.4014   -6.5639   23.8211 C   0  0  0  0  0  0
  -21.3661   -5.6791   24.9172 C   0  0  0  0  0  0
  -21.6044   -4.3053   24.7222 C   0  0  0  0  0  0
  -21.8819   -3.8146   23.4343 C   0  0  0  0  0  0
  -21.9192   -4.6963   22.3400 C   0  0  0  0  0  0
  -22.7781  -13.5192   21.1894 C   0  0  0  0  0  0
  -22.1663   -4.2152   21.0977 F   0  0  0  0  0  0
  -21.5629   -3.4536   25.7735 F   0  0  0  0  0  0
  -29.8995  -13.8745   20.3475 N   0  0  0  0  0  0
  -26.2846  -12.9478   20.3208 N   0  0  0  0  0  0
  -25.9335  -11.6594   20.5712 N   0  0  0  0  0  0
  -22.0430  -12.8184   22.0450 N   0  0  0  0  0  0
  -25.4038  -15.1954   20.4136 N   0  0  0  0  0  0
  -31.6473  -15.2513   20.1690 O   0  0  0  0  0  0
  -21.6642   -6.8876   21.4240 O   0  0  0  0  0  0
  -22.3461  -14.5492   20.6728 O   0  0  0  0  0  0
  -24.6586  -31.8282   23.1741 C   0  0  0  0  0  0
  -25.9288  -32.4612   23.8187 C   0  0  1  0  0  0
  -27.2195  -26.9768   20.1861 C   0  0  0  0  0  0
  -25.5974  -33.8423   24.2099 N   0  0  0  0  0  0
  -23.4704  -30.4408   21.5227 C   0  0  2  0  0  0
  -24.9220  -28.8320   20.1174 C   0  0  0  0  0  0
  -22.7641  -29.4464   22.4807 C   0  0  0  0  0  0
  -18.0318  -28.1404   22.8466 C   0  0  0  0  0  0
  -24.1493  -36.7218   23.2645 C   0  0  0  0  0  0
  -26.0359  -30.6521   21.3943 C   0  0  0  0  0  0
  -26.1052  -29.2450   20.7430 C   0  0  0  0  0  0
  -27.2523  -28.3394   20.7481 C   0  0  0  0  0  0
  -26.0066  -26.6994   19.5191 C   0  0  0  0  0  0
  -24.8945  -27.5781   19.4856 C   0  0  0  0  0  0
  -23.7070  -29.7558   20.1489 C   0  0  0  0  0  0
  -25.4131  -36.2984   24.0303 C   0  0  1  0  0  0
  -20.5938  -28.3742   23.1200 C   0  0  2  0  0  0
  -20.6794  -26.9427   22.5403 C   0  0  0  0  0  0
  -19.5769  -26.6377   21.5210 C   0  0  0  0  0  0
  -18.1951  -26.7938   22.1619 C   0  0  0  0  0  0
  -19.1577  -28.8892   23.2822 C   0  0  0  0  0  0
  -18.9489  -30.1484   23.8856 C   0  0  0  0  0  0
  -17.6482  -30.6594   24.0553 C   0  0  0  0  0  0
  -25.9092  -34.9364   23.5019 C   0  0  0  0  0  0
  -16.5374  -29.9081   23.6341 C   0  0  0  0  0  0
  -16.7299  -28.6502   23.0359 C   0  0  0  0  0  0
  -26.4554  -31.6541   25.0698 C   0  0  0  0  0  0
  -25.3696  -31.3773   26.1365 C   0  0  0  0  0  0
  -27.0441  -30.2918   24.6387 C   0  0  0  0  0  0
  -27.6054  -32.4337   25.7499 C   0  0  0  0  0  0
  -27.5571  -37.1766   24.8464 C   0  0  0  0  0  0
  -21.4316  -29.3042   22.3557 N   0  0  0  0  0  0
  -26.4280  -37.3715   23.9408 N   0  0  0  0  0  0
  -24.7428  -30.9993   22.0848 N   0  0  0  0  0  0
  -23.4211  -28.8029   23.3028 O   0  0  0  0  0  0
  -28.2571  -25.9230   20.2100 O   0  0  0  0  0  0
  -26.5695  -34.8892   22.4611 O   0  0  0  0  0  0
  -23.5668  -32.1225   23.6870 O   0  0  0  0  0  0
  -28.1820  -20.2154   19.8814 C   0  0  0  0  0  0
  -28.3485  -18.7419   19.9519 C   0  0  0  0  0  0
  -30.4832  -18.9876   20.7552 C   0  0  0  0  0  0
  -29.1486  -21.2391   20.2486 C   0  0  0  0  0  0
  -29.5198  -17.9750   20.3664 C   0  0  0  0  0  0
  -30.3166  -20.4658   20.7119 C   0  0  0  0  0  0
  -28.8899  -22.9964   18.3702 C   0  0  0  0  0  0
  -30.4851  -23.5412   20.1752 C   0  0  0  0  0  0
  -28.0623  -24.3129   20.4117 C   0  0  0  0  0  0
  -29.0860  -22.9603   19.8971 C   0  0  0  0  0  0
  -29.5585  -16.3693   20.4400 N   0  0  0  0  0  0
  -31.4003  -21.1535   21.1409 F   0  0  0  0  0  0
  -31.4706  -12.9636   19.1904 H   0  0  0  0  0  0
  -30.5110  -11.8304   20.0959 H   0  0  0  0  0  0
  -29.9020  -11.7506   17.6520 H   0  0  0  0  0  0
  -29.5802  -13.4657   17.6588 H   0  0  0  0  0  0
  -28.0187  -11.2744   19.0503 H   0  0  0  0  0  0
  -27.4129  -12.3767   17.8398 H   0  0  0  0  0  0
  -27.5501  -14.2435   19.3537 H   0  0  0  0  0  0
  -28.8063  -12.4246   21.4665 H   0  0  0  0  0  0
  -28.3149  -14.0813   21.7260 H   0  0  0  0  0  0
  -25.2771   -9.5683   22.4759 H   0  0  0  0  0  0
  -24.0010   -7.4631   22.7471 H   0  0  0  0  0  0
  -21.0851   -8.8769   19.8952 H   0  0  0  0  0  0
  -22.3707  -10.9665   19.6166 H   0  0  0  0  0  0
  -21.2009   -7.6147   23.9714 H   0  0  0  0  0  0
  -21.1484   -6.0521   25.9074 H   0  0  0  0  0  0
  -22.0598   -2.7609   23.2839 H   0  0  0  0  0  0
  -22.4056  -11.9863   22.4862 H   0  0  0  0  0  0
  -21.1038  -13.1194   22.2632 H   0  0  0  0  0  0
  -24.6253  -15.8372   20.5174 H   0  0  0  0  0  0
  -26.2278  -15.6353   20.0282 H   0  0  0  0  0  0
  -26.7355  -32.5168   23.0903 H   0  0  0  0  0  0
  -25.0086  -33.9502   25.0226 H   0  0  0  0  0  0
  -22.7817  -31.2712   21.3541 H   0  0  0  0  0  0
  -23.3767  -35.9536   23.3279 H   0  0  0  0  0  0
  -24.3574  -36.8890   22.2066 H   0  0  0  0  0  0
  -23.7235  -37.6395   23.6714 H   0  0  0  0  0  0
  -26.2070  -31.3936   20.6129 H   0  0  0  0  0  0
  -26.9004  -30.7110   22.0440 H   0  0  0  0  0  0
  -28.1553  -28.6580   21.2497 H   0  0  0  0  0  0
  -25.8954  -25.7442   19.0268 H   0  0  0  0  0  0
  -23.9954  -27.2562   18.9782 H   0  0  0  0  0  0
  -23.8601  -30.5229   19.3890 H   0  0  0  0  0  0
  -22.8178  -29.2072   19.8334 H   0  0  0  0  0  0
  -25.1328  -36.1789   25.0793 H   0  0  0  0  0  0
  -21.0026  -28.3345   24.1323 H   0  0  0  0  0  0
  -20.5673  -26.2357   23.3638 H   0  0  0  0  0  0
  -21.6659  -26.7406   22.1211 H   0  0  0  0  0  0
  -19.6926  -25.6278   21.1265 H   0  0  0  0  0  0
  -19.6710  -27.3165   20.6723 H   0  0  0  0  0  0
  -17.4219  -26.6677   21.4026 H   0  0  0  0  0  0
  -18.0348  -26.0093   22.9030 H   0  0  0  0  0  0
  -19.7963  -30.7310   24.2208 H   0  0  0  0  0  0
  -17.5033  -31.6270   24.5162 H   0  0  0  0  0  0
  -15.5371  -30.2967   23.7690 H   0  0  0  0  0  0
  -15.8701  -28.0808   22.7096 H   0  0  0  0  0  0
  -24.5893  -30.7105   25.7679 H   0  0  0  0  0  0
  -24.8868  -32.2967   26.4686 H   0  0  0  0  0  0
  -25.7945  -30.9014   27.0211 H   0  0  0  0  0  0
  -26.3093  -29.6609   24.1375 H   0  0  0  0  0  0
  -27.3978  -29.7266   25.5019 H   0  0  0  0  0  0
  -27.9031  -30.4119   23.9784 H   0  0  0  0  0  0
  -27.2631  -33.3676   26.1968 H   0  0  0  0  0  0
  -28.3924  -32.6831   25.0372 H   0  0  0  0  0  0
  -28.0654  -31.8535   26.5508 H   0  0  0  0  0  0
  -28.2569  -38.0081   24.7516 H   0  0  0  0  0  0
  -28.1085  -36.2606   24.6285 H   0  0  0  0  0  0
  -27.2287  -37.1404   25.8866 H   0  0  0  0  0  0
  -20.9564  -29.8739   21.6698 H   0  0  0  0  0  0
  -26.0133  -38.2775   24.1423 H   0  0  0  0  0  0
  -27.2438  -20.5681   19.4774 H   0  0  0  0  0  0
  -27.4917  -18.1649   19.6325 H   0  0  0  0  0  0
  -31.4308  -18.6290   21.1286 H   0  0  0  0  0  0
  -29.6355  -22.3926   17.8521 H   0  0  0  0  0  0
  -28.9610  -24.0116   17.9766 H   0  0  0  0  0  0
  -27.9078  -22.6126   18.0935 H   0  0  0  0  0  0
  -31.2657  -23.0083   19.6318 H   0  0  0  0  0  0
  -30.7179  -23.5072   21.2397 H   0  0  0  0  0  0
  -30.5565  -24.5858   19.8691 H   0  0  0  0  0  0
  -27.9905  -24.2122   21.4950 H   0  0  0  0  0  0
  -27.0557  -24.0805   20.0660 H   0  0  0  0  0  0
  -28.6169  -16.0123   20.4927 H   0  0  0  0  0  0
  1 25  1  0  0  0
  1 30  2  0  0  0
  1 81  1  0  0  0
  2  3  1  0  0  0
  2 25  1  0  0  0
  2 83  1  0  0  0
  2 84  1  0  0  0
  3  4  1  0  0  0
  3 85  1  0  0  0
  3 86  1  0  0  0
  4  5  1  0  0  0
  4 87  1  0  0  0
  4 88  1  0  0  0
  5  6  1  0  0  0
  5 26  1  0  0  0
  5 89  1  0  0  0
  6 25  1  0  0  0
  6 90  1  0  0  0
  6 91  1  0  0  0
  7  8  2  0  0  0
  7 26  1  0  0  0
  7 29  1  0  0  0
  8  9  1  0  0  0
  8 22  1  0  0  0
  9 10  1  0  0  0
  9 27  2  0  0  0
 10 11  2  0  0  0
 10 15  1  0  0  0
 11 12  1  0  0  0
 11 92  1  0  0  0
 12 13  2  0  0  0
 12 93  1  0  0  0
 13 14  1  0  0  0
 13 31  1  0  0  0
 14 15  2  0  0  0
 14 94  1  0  0  0
 15 95  1  0  0  0
 16 17  2  0  0  0
 16 21  1  0  0  0
 16 31  1  0  0  0
 17 18  1  0  0  0
 17 96  1  0  0  0
 18 19  2  0  0  0
 18 97  1  0  0  0
 19 20  1  0  0  0
 19 24  1  0  0  0
 20 21  2  0  0  0
 20 98  1  0  0  0
 21 23  1  0  0  0
 22 28  1  0  0  0
 22 32  2  0  0  0
 26 27  1  0  0  0
 28 99  1  0  0  0
 28100  1  0  0  0
 29101  1  0  0  0
 29102  1  0  0  0
 33 34  1  0  0  0
 33 66  1  0  0  0
 33 70  2  0  0  0
 34 36  1  0  0  0
 34 59  1  0  0  0
 34103  1  0  0  0
 35 44  2  0  0  0
 35 45  1  0  0  0
 35 68  1  0  0  0
 36 56  1  0  0  0
 36104  1  0  0  0
 37 39  1  0  0  0
 37 47  1  0  0  0
 37 66  1  0  0  0
 37105  1  0  0  0
 38 43  2  0  0  0
 38 46  1  0  0  0
 38 47  1  0  0  0
 39 64  1  0  0  0
 39 67  2  0  0  0
 40 52  1  0  0  0
 40 53  2  0  0  0
 40 58  1  0  0  0
 41106  1  0  0  0
 41107  1  0  0  0
 41108  1  0  0  0
 41 48  1  0  0  0
 42 43  1  0  0  0
 42 66  1  0  0  0
 42109  1  0  0  0
 42110  1  0  0  0
 43 44  1  0  0  0
 44111  1  0  0  0
 45 46  2  0  0  0
 45112  1  0  0  0
 46113  1  0  0  0
 47114  1  0  0  0
 47115  1  0  0  0
 48 56  1  0  0  0
 48 65  1  0  0  0
 48116  1  0  0  0
 49 50  1  0  0  0
 49 53  1  0  0  0
 49 64  1  0  0  0
 49117  1  0  0  0
 50 51  1  0  0  0
 50118  1  0  0  0
 50119  1  0  0  0
 51 52  1  0  0  0
 51120  1  0  0  0
 51121  1  0  0  0
 52122  1  0  0  0
 52123  1  0  0  0
 53 54  1  0  0  0
 54 55  2  0  0  0
 54124  1  0  0  0
 55 57  1  0  0  0
 55125  1  0  0  0
 56 69  2  0  0  0
 57 58  2  0  0  0
 57126  1  0  0  0
 58127  1  0  0  0
 59 60  1  0  0  0
 59 61  1  0  0  0
 59 62  1  0  0  0
 60128  1  0  0  0
 60129  1  0  0  0
 60130  1  0  0  0
 61131  1  0  0  0
 61132  1  0  0  0
 61133  1  0  0  0
 62134  1  0  0  0
 62135  1  0  0  0
 62136  1  0  0  0
 63 65  1  0  0  0
 63137  1  0  0  0
 63138  1  0  0  0
 63139  1  0  0  0
 64140  1  0  0  0
 65141  1  0  0  0
 68 79  1  0  0  0
 71 72  2  0  0  0
 71 74  1  0  0  0
 71142  1  0  0  0
 72 75  1  0  0  0
 72143  1  0  0  0
 73 75  2  0  0  0
 73 76  1  0  0  0
 73144  1  0  0  0
 74 76  2  0  0  0
 74 80  1  0  0  0
 75 81  1  0  0  0
 76 82  1  0  0  0
 77145  1  0  0  0
 77146  1  0  0  0
 77147  1  0  0  0
 77 80  1  0  0  0
 78 80  1  0  0  0
 78148  1  0  0  0
 78149  1  0  0  0
 78150  1  0  0  0
 79 80  1  0  0  0
 79151  1  0  0  0
 79152  1  0  0  0
 81153  1  0  0  0
M  ISO  4   1 100  68 101  79 101  81 100
M  END
> <chiral flag>
0

> <version>
0

> <s_m_source_file>
/data/baiqing/PycharmProjects/Reinvent-master-3.2/result/LINK_invent/BTK/process_docking_weight1_custom_product_contain_oxygen_bond_distance_aromatic_linkinvent_7_9_3/rearranged_h_0018.sdf

> <i_m_source_file_index>
34

> <r_mmod_Potential_Energy-OPLS-2005>
1098.93774414062

> <r_mmod_Stretch_Energy-OPLS-2005>
468.678985595703

> <r_mmod_Bend_Energy-OPLS-2005>
420.015594482422

> <r_mmod_Torsional_Energy-OPLS-2005>
239.971374511719

> <r_mmod_Improper_Torsional_Energy-OPLS-2005>
7.3079628944397

> <r_mmod_Van_der_Waal_Energy-OPLS-2005>
131.910507202148

> <r_mmod_Electrostatic_Energy-OPLS-2005>
-345.333709716797

> <r_mmod_Solvation_Energy-OPLS-2005>
-204.166976928711

> <b_mmod_Minimization_Converged-OPLS-2005>
0

> <r_mmod_RMS_Derivative-OPLS-2005>
0.643138825893402

$$$$
34
                    3D
 Structure written by MMmdl.
164172  0  0  1  0            999 V2000
  -30.7297  -14.5222   20.5633 C   0  0  0  0  0  0
  -30.4097  -12.3430   19.4274 C   0  0  0  0  0  0
  -29.4841  -12.5001   18.2050 C   0  0  0  0  0  0
  -28.0101  -12.3339   18.6217 C   0  0  0  0  0  0
  -27.6432  -13.1929   19.8579 C   0  0  2  0  0  0
  -28.6958  -13.0480   20.9846 C   0  0  0  0  0  0
  -25.2523  -13.8081   20.5675 C   0  0  0  0  0  0
  -24.1789  -13.0378   20.9203 C   0  0  0  0  0  0
  -24.6341  -11.6853   20.8771 C   0  0  0  0  0  0
  -23.9003  -10.4259   21.0430 C   0  0  0  0  0  0
  -24.3572   -9.4185   21.9204 C   0  0  0  0  0  0
  -23.6267   -8.2211   22.0765 C   0  0  0  0  0  0
  -22.4255   -8.0252   21.3545 C   0  0  0  0  0  0
  -21.9882   -9.0217   20.4649 C   0  0  0  0  0  0
  -22.7188  -10.2100   20.3069 C   0  0  0  0  0  0
  -21.6839   -6.0721   22.5280 C   0  0  0  0  0  0
  -21.4002   -6.5634   23.8209 C   0  0  0  0  0  0
  -21.3662   -5.6785   24.9179 C   0  0  0  0  0  0
  -21.6052   -4.3044   24.7227 C   0  0  0  0  0  0
  -21.8824   -3.8137   23.4344 C   0  0  0  0  0  0
  -21.9190   -4.6954   22.3405 C   0  0  0  0  0  0
  -22.7825  -13.5210   21.1857 C   0  0  0  0  0  0
  -22.1667   -4.2140   21.0980 F   0  0  0  0  0  0
  -21.5630   -3.4532   25.7743 F   0  0  0  0  0  0
  -30.0174  -13.3612   20.4195 N   0  0  0  0  0  0
  -26.2929  -12.9221   20.3324 N   0  0  0  0  0  0
  -25.9257  -11.6403   20.5790 N   0  0  0  0  0  0
  -22.0445  -12.8221   22.0412 N   0  0  0  0  0  0
  -25.4186  -15.1796   20.4083 N   0  0  0  0  0  0
  -31.8707  -14.6358   20.1062 O   0  0  0  0  0  0
  -21.6622   -6.8853   21.4242 O   0  0  0  0  0  0
  -22.3526  -14.5521   20.6698 O   0  0  0  0  0  0
  -24.6140  -31.8659   23.2061 C   0  0  0  0  0  0
  -25.9027  -32.4811   23.8368 C   0  0  1  0  0  0
  -27.2471  -27.4282   20.0875 C   0  0  0  0  0  0
  -25.5893  -33.8608   24.2309 N   0  0  0  0  0  0
  -23.4036  -30.4857   21.5449 C   0  0  2  0  0  0
  -24.8510  -28.9462   20.1108 C   0  0  0  0  0  0
  -22.7420  -29.4629   22.4962 C   0  0  0  0  0  0
  -18.0274  -28.1379   22.8498 C   0  0  0  0  0  0
  -24.1488  -36.7305   23.2638 C   0  0  0  0  0  0
  -25.9305  -30.8284   21.3578 C   0  0  0  0  0  0
  -26.0070  -29.4595   20.7083 C   0  0  0  0  0  0
  -27.2012  -28.7047   20.6976 C   0  0  0  0  0  0
  -26.0688  -26.9244   19.4905 C   0  0  0  0  0  0
  -24.8763  -27.6783   19.5007 C   0  0  0  0  0  0
  -23.6131  -29.8138   20.1605 C   0  0  0  0  0  0
  -25.4106  -36.3105   24.0343 C   0  0  1  0  0  0
  -20.5872  -28.3650   23.1321 C   0  0  2  0  0  0
  -20.6760  -26.9387   22.5417 C   0  0  0  0  0  0
  -19.5741  -26.6390   21.5210 C   0  0  0  0  0  0
  -18.1919  -26.7926   22.1623 C   0  0  0  0  0  0
  -19.1531  -28.8831   23.2908 C   0  0  0  0  0  0
  -18.9453  -30.1436   23.8917 C   0  0  0  0  0  0
  -17.6460  -30.6587   24.0563 C   0  0  0  0  0  0
  -25.9037  -34.9471   23.5128 C   0  0  0  0  0  0
  -16.5347  -29.9098   23.6320 C   0  0  0  0  0  0
  -16.7268  -28.6510   23.0353 C   0  0  0  0  0  0
  -26.4459  -31.6606   25.0704 C   0  0  0  0  0  0
  -25.3744  -31.3718   26.1473 C   0  0  0  0  0  0
  -27.0267  -30.3054   24.6046 C   0  0  0  0  0  0
  -27.6049  -32.4317   25.7458 C   0  0  0  0  0  0
  -27.5583  -37.1794   24.8458 C   0  0  0  0  0  0
  -21.4147  -29.3021   22.3728 N   0  0  0  0  0  0
  -26.4282  -37.3799   23.9423 N   0  0  0  0  0  0
  -24.6674  -31.0755   22.0950 N   0  0  0  0  0  0
  -23.4196  -28.8175   23.3009 O   0  0  0  0  0  0
  -28.4481  -26.7434   20.1169 O   0  0  0  0  0  0
  -26.5597  -34.8921   22.4684 O   0  0  0  0  0  0
  -23.5327  -32.1403   23.7450 O   0  0  0  0  0  0
  -29.9179  -18.5626   20.0307 C   0  0  0  0  0  0
  -29.7094  -19.9257   19.6941 C   0  0  0  0  0  0
  -27.4818  -19.8170   20.6398 C   0  0  0  0  0  0
  -28.8943  -17.8018   20.6459 C   0  0  0  0  0  0
  -28.4634  -20.5524   19.9425 C   0  0  0  0  0  0
  -27.6907  -18.4659   20.9851 C   0  0  0  0  0  0
  -31.0216  -16.3305   22.1690 C   0  0  0  0  0  0
  -28.3444  -21.3659   16.6394 C   0  0  0  0  0  0
  -28.9577  -16.2607   20.7735 C   0  0  0  0  0  0
  -28.2833  -24.2261   20.1966 C   0  0  0  0  0  0
  -29.0104  -22.9333   19.6977 C   0  0  0  0  0  0
  -28.6467  -25.5130   19.4014 C   0  0  0  0  0  0
  -28.1195  -21.8041   19.3781 N   0  0  0  0  0  0
  -30.1747  -15.5608   21.2528 N   0  0  0  0  0  0
  -26.8546  -23.3346   17.7023 O   0  0  0  0  0  0
  -26.0942  -20.9242   18.0451 O   0  0  0  0  0  0
  -26.6847  -17.7852   21.5835 F   0  0  0  0  0  0
  -27.1731  -21.9155   17.9148 S   0  0  0  0  0  0
  -31.4538  -12.4283   19.1218 H   0  0  0  0  0  0
  -30.3094  -11.3444   19.8560 H   0  0  0  0  0  0
  -29.7415  -11.7688   17.4373 H   0  0  0  0  0  0
  -29.6306  -13.4821   17.7522 H   0  0  0  0  0  0
  -27.8405  -11.2786   18.8396 H   0  0  0  0  0  0
  -27.3528  -12.5798   17.7869 H   0  0  0  0  0  0
  -27.6374  -14.2145   19.4973 H   0  0  0  0  0  0
  -28.6949  -12.0274   21.3710 H   0  0  0  0  0  0
  -28.4514  -13.6802   21.8383 H   0  0  0  0  0  0
  -25.2711   -9.5684   22.4773 H   0  0  0  0  0  0
  -23.9990   -7.4608   22.7478 H   0  0  0  0  0  0
  -21.0814   -8.8709   19.8951 H   0  0  0  0  0  0
  -22.3635  -10.9636   19.6179 H   0  0  0  0  0  0
  -21.1985   -7.6142   23.9702 H   0  0  0  0  0  0
  -21.1486   -6.0520   25.9076 H   0  0  0  0  0  0
  -22.0605   -2.7599   23.2825 H   0  0  0  0  0  0
  -22.4029  -11.9879   22.4829 H   0  0  0  0  0  0
  -21.1071  -13.1277   22.2584 H   0  0  0  0  0  0
  -24.6584  -15.8294   20.5758 H   0  0  0  0  0  0
  -26.2782  -15.6434   20.1529 H   0  0  0  0  0  0
  -26.7098  -32.5517   23.1130 H   0  0  0  0  0  0
  -25.0081  -33.9771   25.0480 H   0  0  0  0  0  0
  -22.6928  -31.3026   21.4028 H   0  0  0  0  0  0
  -23.3765  -35.9622   23.3284 H   0  0  0  0  0  0
  -24.3602  -36.8929   22.2057 H   0  0  0  0  0  0
  -23.7211  -37.6492   23.6655 H   0  0  0  0  0  0
  -26.0409  -31.5915   20.5856 H   0  0  0  0  0  0
  -26.8194  -30.8854   21.9737 H   0  0  0  0  0  0
  -28.0948  -29.1009   21.1584 H   0  0  0  0  0  0
  -26.0506  -25.9522   19.0196 H   0  0  0  0  0  0
  -23.9862  -27.2770   19.0359 H   0  0  0  0  0  0
  -23.7180  -30.5854   19.3967 H   0  0  0  0  0  0
  -22.7390  -29.2283   19.8695 H   0  0  0  0  0  0
  -25.1282  -36.1960   25.0838 H   0  0  0  0  0  0
  -20.9966  -28.3192   24.1441 H   0  0  0  0  0  0
  -20.5637  -26.2254   23.3602 H   0  0  0  0  0  0
  -21.6628  -26.7420   22.1203 H   0  0  0  0  0  0
  -19.6886  -25.6310   21.1210 H   0  0  0  0  0  0
  -19.6676  -27.3220   20.6756 H   0  0  0  0  0  0
  -17.4193  -26.6689   21.4022 H   0  0  0  0  0  0
  -18.0302  -26.0065   22.9015 H   0  0  0  0  0  0
  -19.7935  -30.7233   24.2300 H   0  0  0  0  0  0
  -17.5023  -31.6259   24.5176 H   0  0  0  0  0  0
  -15.5344  -30.3008   23.7624 H   0  0  0  0  0  0
  -15.8676  -28.0831   22.7059 H   0  0  0  0  0  0
  -24.5902  -30.7077   25.7827 H   0  0  0  0  0  0
  -24.8945  -32.2868   26.4951 H   0  0  0  0  0  0
  -25.8107  -30.8875   27.0217 H   0  0  0  0  0  0
  -26.2778  -29.6835   24.1118 H   0  0  0  0  0  0
  -27.4078  -29.7271   25.4470 H   0  0  0  0  0  0
  -27.8606  -30.4399   23.9155 H   0  0  0  0  0  0
  -27.2696  -33.3628   26.2042 H   0  0  0  0  0  0
  -28.3853  -32.6856   25.0276 H   0  0  0  0  0  0
  -28.0718  -31.8430   26.5359 H   0  0  0  0  0  0
  -28.2580  -38.0116   24.7554 H   0  0  0  0  0  0
  -28.1102  -36.2647   24.6225 H   0  0  0  0  0  0
  -27.2315  -37.1373   25.8865 H   0  0  0  0  0  0
  -20.9296  -29.8783   21.6992 H   0  0  0  0  0  0
  -26.0173  -38.2868   24.1463 H   0  0  0  0  0  0
  -30.8424  -18.0858   19.7416 H   0  0  0  0  0  0
  -30.4817  -20.4560   19.1553 H   0  0  0  0  0  0
  -26.5193  -20.2629   20.8411 H   0  0  0  0  0  0
  -30.4242  -16.9537   22.8347 H   0  0  0  0  0  0
  -31.7136  -16.9722   21.6223 H   0  0  0  0  0  0
  -31.6187  -15.6678   22.7969 H   0  0  0  0  0  0
  -29.1733  -22.0665   16.5772 H   0  0  0  0  0  0
  -27.8340  -21.3255   15.6804 H   0  0  0  0  0  0
  -28.7177  -20.3763   16.8908 H   0  0  0  0  0  0
  -28.7564  -15.9366   19.7548 H   0  0  0  0  0  0
  -28.1235  -15.9144   21.3831 H   0  0  0  0  0  0
  -28.5528  -24.3772   21.2420 H   0  0  0  0  0  0
  -27.2017  -24.0930   20.2007 H   0  0  0  0  0  0
  -29.7511  -22.6411   20.4444 H   0  0  0  0  0  0
  -29.5848  -23.1576   18.7979 H   0  0  0  0  0  0
  -28.1678  -25.5338   18.4217 H   0  0  0  0  0  0
  -29.7160  -25.4887   19.1879 H   0  0  0  0  0  0
  1 25  1  0  0  0
  1 30  2  0  0  0
  1 84  1  0  0  0
  2  3  1  0  0  0
  2 25  1  0  0  0
  2 89  1  0  0  0
  2 90  1  0  0  0
  3  4  1  0  0  0
  3 91  1  0  0  0
  3 92  1  0  0  0
  4  5  1  0  0  0
  4 93  1  0  0  0
  4 94  1  0  0  0
  5  6  1  0  0  0
  5 26  1  0  0  0
  5 95  1  0  0  0
  6 25  1  0  0  0
  6 96  1  0  0  0
  6 97  1  0  0  0
  7  8  2  0  0  0
  7 26  1  0  0  0
  7 29  1  0  0  0
  8  9  1  0  0  0
  8 22  1  0  0  0
  9 10  1  0  0  0
  9 27  2  0  0  0
 10 11  2  0  0  0
 10 15  1  0  0  0
 11 12  1  0  0  0
 11 98  1  0  0  0
 12 13  2  0  0  0
 12 99  1  0  0  0
 13 14  1  0  0  0
 13 31  1  0  0  0
 14 15  2  0  0  0
 14100  1  0  0  0
 15101  1  0  0  0
 16 17  2  0  0  0
 16 21  1  0  0  0
 16 31  1  0  0  0
 17 18  1  0  0  0
 17102  1  0  0  0
 18 19  2  0  0  0
 18103  1  0  0  0
 19 20  1  0  0  0
 19 24  1  0  0  0
 20 21  2  0  0  0
 20104  1  0  0  0
 21 23  1  0  0  0
 22 28  1  0  0  0
 22 32  2  0  0  0
 26 27  1  0  0  0
 28105  1  0  0  0
 28106  1  0  0  0
 29107  1  0  0  0
 29108  1  0  0  0
 33 34  1  0  0  0
 33 66  1  0  0  0
 33 70  2  0  0  0
 34 36  1  0  0  0
 34 59  1  0  0  0
 34109  1  0  0  0
 35 44  2  0  0  0
 35 45  1  0  0  0
 35 68  1  0  0  0
 36 56  1  0  0  0
 36110  1  0  0  0
 37 39  1  0  0  0
 37 47  1  0  0  0
 37 66  1  0  0  0
 37111  1  0  0  0
 38 43  2  0  0  0
 38 46  1  0  0  0
 38 47  1  0  0  0
 39 64  1  0  0  0
 39 67  2  0  0  0
 40 52  1  0  0  0
 40 53  2  0  0  0
 40 58  1  0  0  0
 41112  1  0  0  0
 41113  1  0  0  0
 41114  1  0  0  0
 41 48  1  0  0  0
 42 43  1  0  0  0
 42 66  1  0  0  0
 42115  1  0  0  0
 42116  1  0  0  0
 43 44  1  0  0  0
 44117  1  0  0  0
 45 46  2  0  0  0
 45118  1  0  0  0
 46119  1  0  0  0
 47120  1  0  0  0
 47121  1  0  0  0
 48 56  1  0  0  0
 48 65  1  0  0  0
 48122  1  0  0  0
 49 50  1  0  0  0
 49 53  1  0  0  0
 49 64  1  0  0  0
 49123  1  0  0  0
 50 51  1  0  0  0
 50124  1  0  0  0
 50125  1  0  0  0
 51 52  1  0  0  0
 51126  1  0  0  0
 51127  1  0  0  0
 52128  1  0  0  0
 52129  1  0  0  0
 53 54  1  0  0  0
 54 55  2  0  0  0
 54130  1  0  0  0
 55 57  1  0  0  0
 55131  1  0  0  0
 56 69  2  0  0  0
 57 58  2  0  0  0
 57132  1  0  0  0
 58133  1  0  0  0
 59 60  1  0  0  0
 59 61  1  0  0  0
 59 62  1  0  0  0
 60134  1  0  0  0
 60135  1  0  0  0
 60136  1  0  0  0
 61137  1  0  0  0
 61138  1  0  0  0
 61139  1  0  0  0
 62140  1  0  0  0
 62141  1  0  0  0
 62142  1  0  0  0
 63 65  1  0  0  0
 63143  1  0  0  0
 63144  1  0  0  0
 63145  1  0  0  0
 64146  1  0  0  0
 65147  1  0  0  0
 68 82  1  0  0  0
 71 72  2  0  0  0
 71 74  1  0  0  0
 71148  1  0  0  0
 72 75  1  0  0  0
 72149  1  0  0  0
 73 75  2  0  0  0
 73 76  1  0  0  0
 73150  1  0  0  0
 74 76  2  0  0  0
 74 79  1  0  0  0
 75 83  1  0  0  0
 76 87  1  0  0  0
 77 84  1  0  0  0
 77151  1  0  0  0
 77152  1  0  0  0
 77153  1  0  0  0
 78154  1  0  0  0
 78155  1  0  0  0
 78156  1  0  0  0
 78 88  1  0  0  0
 79 84  1  0  0  0
 79157  1  0  0  0
 79158  1  0  0  0
 80 81  1  0  0  0
 80 82  1  0  0  0
 80159  1  0  0  0
 80160  1  0  0  0
 81 83  1  0  0  0
 81161  1  0  0  0
 81162  1  0  0  0
 82163  1  0  0  0
 82164  1  0  0  0
 83 88  1  0  0  0
 85 88  2  0  0  0
 86 88  2  0  0  0
M  ISO  4   1 100  68 101  82 101  84 100
M  END
> <chiral flag>
0

> <version>
0

> <s_m_source_file>
/data/baiqing/PycharmProjects/Reinvent-master-3.2/result/LINK_invent/BTK/process_docking_weight1_custom_product_contain_oxygen_bond_distance_aromatic_linkinvent_7_9_3/rearranged_h_0018.sdf

> <i_m_source_file_index>
35

> <r_mmod_Potential_Energy-OPLS-2005>
-69.9063339233398

> <r_mmod_Stretch_Energy-OPLS-2005>
45.6585083007812

> <r_mmod_Bend_Energy-OPLS-2005>
128.367919921875

> <r_mmod_Torsional_Energy-OPLS-2005>
294.717895507812

> <r_mmod_Improper_Torsional_Energy-OPLS-2005>
6.23449993133545

> <r_mmod_Van_der_Waal_Energy-OPLS-2005>
141.229370117188

> <r_mmod_Electrostatic_Energy-OPLS-2005>
-482.044311523438

> <r_mmod_Solvation_Energy-OPLS-2005>
-223.262954711914

> <b_mmod_Minimization_Converged-OPLS-2005>
0

> <r_mmod_RMS_Derivative-OPLS-2005>
1.83319199085236

$$$$
35
                    3D
 Structure written by MMmdl.
191201  0  0  1  0            999 V2000
  -30.8012  -14.4722   20.3078 C   0  0  0  0  0  0
  -30.3871  -12.2860   19.3611 C   0  0  0  0  0  0
  -29.4396  -12.4414   18.1558 C   0  0  0  0  0  0
  -27.9766  -12.3078   18.6140 C   0  0  0  0  0  0
  -27.6385  -13.1877   19.8447 C   0  0  2  0  0  0
  -28.7284  -13.1307   20.9425 C   0  0  0  0  0  0
  -25.2494  -13.7929   20.5684 C   0  0  0  0  0  0
  -24.1786  -13.0239   20.9283 C   0  0  0  0  0  0
  -24.6399  -11.6768   20.8883 C   0  0  0  0  0  0
  -23.9042  -10.4193   21.0462 C   0  0  0  0  0  0
  -24.3596   -9.4127   21.9235 C   0  0  0  0  0  0
  -23.6256   -8.2177   22.0765 C   0  0  0  0  0  0
  -22.4244   -8.0239   21.3537 C   0  0  0  0  0  0
  -21.9884   -9.0213   20.4651 C   0  0  0  0  0  0
  -22.7212  -10.2089   20.3095 C   0  0  0  0  0  0
  -21.6843   -6.0725   22.5287 C   0  0  0  0  0  0
  -21.3988   -6.5637   23.8221 C   0  0  0  0  0  0
  -21.3624   -5.6789   24.9182 C   0  0  0  0  0  0
  -21.6023   -4.3052   24.7253 C   0  0  0  0  0  0
  -21.8816   -3.8155   23.4377 C   0  0  0  0  0  0
  -21.9198   -4.6952   22.3430 C   0  0  0  0  0  0
  -22.7832  -13.5128   21.1890 C   0  0  0  0  0  0
  -22.1660   -4.2124   21.1013 F   0  0  0  0  0  0
  -21.5618   -3.4563   25.7785 F   0  0  0  0  0  0
  -30.0313  -13.3538   20.2980 N   0  0  0  0  0  0
  -26.2985  -12.9141   20.3484 N   0  0  0  0  0  0
  -25.9364  -11.6336   20.6052 N   0  0  0  0  0  0
  -22.0434  -12.8188   22.0511 N   0  0  0  0  0  0
  -25.3931  -15.1554   20.3742 N   0  0  0  0  0  0
  -32.0045  -14.4155   20.5163 O   0  0  0  0  0  0
  -21.6593   -6.8851   21.4249 O   0  0  0  0  0  0
  -22.3603  -14.5450   20.6722 O   0  0  0  0  0  0
  -24.6080  -31.8711   23.2125 C   0  0  0  0  0  0
  -25.8996  -32.4835   23.8419 C   0  0  1  0  0  0
  -27.2563  -27.5022   20.0634 C   0  0  0  0  0  0
  -25.5874  -33.8637   24.2350 N   0  0  0  0  0  0
  -23.3971  -30.4897   21.5540 C   0  0  2  0  0  0
  -24.8459  -28.9687   20.1155 C   0  0  0  0  0  0
  -22.7360  -29.4634   22.5006 C   0  0  0  0  0  0
  -18.0266  -28.1393   22.8475 C   0  0  0  0  0  0
  -24.1458  -36.7295   23.2646 C   0  0  0  0  0  0
  -25.9200  -30.8509   21.3637 C   0  0  0  0  0  0
  -26.0006  -29.4912   20.7109 C   0  0  0  0  0  0
  -27.2038  -28.7583   20.6986 C   0  0  0  0  0  0
  -26.0827  -26.9767   19.4761 C   0  0  0  0  0  0
  -24.8773  -27.7042   19.5023 C   0  0  0  0  0  0
  -23.6034  -29.8273   20.1667 C   0  0  0  0  0  0
  -25.4088  -36.3106   24.0326 C   0  0  1  0  0  0
  -20.5843  -28.3664   23.1342 C   0  0  2  0  0  0
  -20.6743  -26.9421   22.5412 C   0  0  0  0  0  0
  -19.5725  -26.6393   21.5200 C   0  0  0  0  0  0
  -18.1906  -26.7933   22.1622 C   0  0  0  0  0  0
  -19.1513  -28.8838   23.2898 C   0  0  0  0  0  0
  -18.9463  -30.1446   23.8899 C   0  0  0  0  0  0
  -17.6476  -30.6587   24.0590 C   0  0  0  0  0  0
  -25.9018  -34.9474   23.5133 C   0  0  0  0  0  0
  -16.5360  -29.9101   23.6340 C   0  0  0  0  0  0
  -16.7263  -28.6526   23.0332 C   0  0  0  0  0  0
  -26.4474  -31.6592   25.0715 C   0  0  0  0  0  0
  -25.3813  -31.3714   26.1519 C   0  0  0  0  0  0
  -27.0292  -30.3030   24.6054 C   0  0  0  0  0  0
  -27.6058  -32.4312   25.7464 C   0  0  0  0  0  0
  -27.5557  -37.1798   24.8472 C   0  0  0  0  0  0
  -21.4090  -29.3025   22.3732 N   0  0  0  0  0  0
  -26.4273  -37.3783   23.9406 N   0  0  0  0  0  0
  -24.6600  -31.0808   22.1047 N   0  0  0  0  0  0
  -23.4122  -28.8206   23.3085 O   0  0  0  0  0  0
  -28.4351  -26.7964   20.0795 O   0  0  0  0  0  0
  -26.5588  -34.8914   22.4701 O   0  0  0  0  0  0
  -23.5253  -32.1472   23.7467 O   0  0  0  0  0  0
  -28.6169  -24.8316   15.6206 C   0  0  0  0  0  0
  -27.8357  -23.7553   16.0866 C   0  0  0  0  0  0
  -29.0632  -25.8273   16.5106 C   0  0  0  0  0  0
  -27.2296  -17.0925   18.4250 C   0  0  0  0  0  0
  -28.4073  -16.3376   18.3865 C   0  0  0  0  0  0
  -28.0620  -24.6027   18.3457 C   0  0  0  0  0  0
  -27.6057  -17.5345   20.7996 C   0  0  0  0  0  0
  -27.5290  -23.6394   17.4637 C   0  0  0  0  0  0
  -28.7687  -25.7237   17.8818 C   0  0  0  0  0  0
  -26.8346  -17.7121   19.6250 C   0  0  0  0  0  0
  -29.1961  -16.1674   19.5477 C   0  0  0  0  0  0
  -28.7794  -16.7540   20.7663 C   0  0  0  0  0  0
  -26.4589  -21.3205   17.0976 C   0  0  0  0  0  0
  -26.9255  -22.1412   19.4721 C   0  0  0  0  0  0
  -25.5510  -20.2483   17.7193 C   0  0  0  0  0  0
  -26.0333  -21.0110   19.9961 C   0  0  0  0  0  0
  -26.5844  -22.5621   18.0118 C   0  0  1  0  0  0
  -35.3148  -16.6365   20.1716 C   0  0  0  0  0  0
  -36.3194  -15.4332   18.2884 C   0  0  0  0  0  0
  -25.6119  -18.6020   19.6077 C   0  0  0  0  0  0
  -29.1992  -26.7963   18.8704 C   0  0  0  0  0  0
  -32.6401  -16.5441   18.6922 C   0  0  0  0  0  0
  -31.3122  -15.8366   18.3058 C   0  0  0  0  0  0
  -33.8870  -15.6829   18.3627 C   0  0  0  0  0  0
  -30.4119  -15.4442   19.4341 N   0  0  0  0  0  0
  -26.0769  -19.8832   19.0540 N   0  3  1  0  0  0
  -35.1929  -16.2900   18.7325 N   0  3  0  0  0  0
  -29.5178  -16.5998   21.8931 F   0  0  0  0  0  0
  -31.4231  -12.3484   19.0205 H   0  0  0  0  0  0
  -30.2739  -11.3081   19.8322 H   0  0  0  0  0  0
  -29.6554  -11.6967   17.3867 H   0  0  0  0  0  0
  -29.5792  -13.4119   17.6799 H   0  0  0  0  0  0
  -27.8027  -11.2596   18.8531 H   0  0  0  0  0  0
  -27.3007  -12.5446   17.7916 H   0  0  0  0  0  0
  -27.6034  -14.1928   19.4596 H   0  0  0  0  0  0
  -28.7178  -12.1609   21.4452 H   0  0  0  0  0  0
  -28.5481  -13.8875   21.7101 H   0  0  0  0  0  0
  -25.2720   -9.5590   22.4851 H   0  0  0  0  0  0
  -23.9923   -7.4552   22.7485 H   0  0  0  0  0  0
  -21.0809   -8.8726   19.8976 H   0  0  0  0  0  0
  -22.3640  -10.9645   19.6243 H   0  0  0  0  0  0
  -21.1946   -7.6139   23.9709 H   0  0  0  0  0  0
  -21.1439   -6.0535   25.9072 H   0  0  0  0  0  0
  -22.0636   -2.7624   23.2904 H   0  0  0  0  0  0
  -22.3903  -11.9752   22.4802 H   0  0  0  0  0  0
  -21.1113  -13.1324   22.2801 H   0  0  0  0  0  0
  -24.5608  -15.7334   20.3437 H   0  0  0  0  0  0
  -26.1706  -15.5499   19.8582 H   0  0  0  0  0  0
  -26.7115  -32.5557   23.1224 H   0  0  0  0  0  0
  -25.0035  -33.9875   25.0494 H   0  0  0  0  0  0
  -22.6853  -31.3046   21.4164 H   0  0  0  0  0  0
  -23.3690  -35.9650   23.3319 H   0  0  0  0  0  0
  -24.3589  -36.8892   22.2070 H   0  0  0  0  0  0
  -23.7225  -37.6502   23.6659 H   0  0  0  0  0  0
  -26.0301  -31.6209   20.5979 H   0  0  0  0  0  0
  -26.8090  -30.8988   21.9806 H   0  0  0  0  0  0
  -28.0883  -29.1594   21.1739 H   0  0  0  0  0  0
  -26.0765  -26.0109   18.9969 H   0  0  0  0  0  0
  -23.9885  -27.2897   19.0452 H   0  0  0  0  0  0
  -23.7128  -30.6075   19.4128 H   0  0  0  0  0  0
  -22.7285  -29.2449   19.8721 H   0  0  0  0  0  0
  -25.1260  -36.1971   25.0811 H   0  0  0  0  0  0
  -20.9961  -28.3263   24.1459 H   0  0  0  0  0  0
  -20.5633  -26.2313   23.3593 H   0  0  0  0  0  0
  -21.6626  -26.7469   22.1234 H   0  0  0  0  0  0
  -19.6913  -25.6305   21.1216 H   0  0  0  0  0  0
  -19.6644  -27.3219   20.6735 H   0  0  0  0  0  0
  -17.4166  -26.6648   21.4035 H   0  0  0  0  0  0
  -18.0331  -26.0098   22.9056 H   0  0  0  0  0  0
  -19.7958  -30.7245   24.2228 H   0  0  0  0  0  0
  -17.5056  -31.6262   24.5206 H   0  0  0  0  0  0
  -15.5364  -30.3033   23.7607 H   0  0  0  0  0  0
  -15.8667  -28.0852   22.7036 H   0  0  0  0  0  0
  -24.5868  -30.7186   25.7894 H   0  0  0  0  0  0
  -24.9157  -32.2897   26.5101 H   0  0  0  0  0  0
  -25.8221  -30.8776   27.0190 H   0  0  0  0  0  0
  -26.2837  -29.6769   24.1151 H   0  0  0  0  0  0
  -27.4139  -29.7254   25.4468 H   0  0  0  0  0  0
  -27.8610  -30.4298   23.9127 H   0  0  0  0  0  0
  -27.2669  -33.3573   26.2092 H   0  0  0  0  0  0
  -28.3837  -32.6949   25.0301 H   0  0  0  0  0  0
  -28.0755  -31.8432   26.5347 H   0  0  0  0  0  0
  -28.2593  -38.0077   24.7506 H   0  0  0  0  0  0
  -28.1044  -36.2626   24.6302 H   0  0  0  0  0  0
  -27.2311  -37.1447   25.8888 H   0  0  0  0  0  0
  -20.9219  -29.8782   21.6996 H   0  0  0  0  0  0
  -26.0135  -38.2827   24.1464 H   0  0  0  0  0  0
  -28.8634  -24.9011   14.5700 H   0  0  0  0  0  0
  -27.4841  -23.0342   15.3622 H   0  0  0  0  0  0
  -29.6292  -26.6694   16.1417 H   0  0  0  0  0  0
  -26.6436  -17.2021   17.5213 H   0  0  0  0  0  0
  -28.6960  -15.8724   17.4564 H   0  0  0  0  0  0
  -27.8777  -24.5529   19.4042 H   0  0  0  0  0  0
  -27.3115  -18.0092   21.7262 H   0  0  0  0  0  0
  -26.0396  -21.6008   16.1326 H   0  0  0  0  0  0
  -27.4378  -20.8875   16.8933 H   0  0  0  0  0  0
  -27.9723  -21.8359   19.5405 H   0  0  0  0  0  0
  -26.7996  -22.9708   20.1673 H   0  0  0  0  0  0
  -25.5252  -19.3732   17.0699 H   0  0  0  0  0  0
  -24.5257  -20.6170   17.7965 H   0  0  0  0  0  0
  -25.0045  -21.3458   20.1401 H   0  0  0  0  0  0
  -26.4110  -20.6921   20.9671 H   0  0  0  0  0  0
  -25.5983  -23.0309   18.0356 H   0  0  0  0  0  0
  -36.3007  -17.0481   20.3924 H   0  0  0  0  0  0
  -35.1692  -15.7585   20.8033 H   0  0  0  0  0  0
  -34.5909  -17.3931   20.4732 H   0  0  0  0  0  0
  -37.2781  -15.9242   18.4551 H   0  0  0  0  0  0
  -36.2509  -15.2067   17.2235 H   0  0  0  0  0  0
  -36.3276  -14.4868   18.8322 H   0  0  0  0  0  0
  -25.1957  -18.7022   20.6127 H   0  0  0  0  0  0
  -24.8317  -18.1516   18.9914 H   0  0  0  0  0  0
  -29.1807  -27.7795   18.3973 H   0  0  0  0  0  0
  -30.2363  -26.6034   19.1428 H   0  0  0  0  0  0
  -32.5998  -16.8260   19.7416 H   0  0  0  0  0  0
  -32.7164  -17.4866   18.1482 H   0  0  0  0  0  0
  -31.5099  -14.9523   17.6946 H   0  0  0  0  0  0
  -30.8135  -16.5234   17.6224 H   0  0  0  0  0  0
  -33.8916  -15.4826   17.2884 H   0  0  0  0  0  0
  -33.8138  -14.7083   18.8451 H   0  0  0  0  0  0
  -27.0587  -19.6982   18.9203 H   0  0  0  0  0  0
  -35.2759  -17.1541   18.2166 H   0  0  0  0  0  0
  1 25  1  0  0  0
  1 30  2  0  0  0
  1 95  1  0  0  0
  2  3  1  0  0  0
  2 25  1  0  0  0
  2 99  1  0  0  0
  2100  1  0  0  0
  3  4  1  0  0  0
  3101  1  0  0  0
  3102  1  0  0  0
  4  5  1  0  0  0
  4103  1  0  0  0
  4104  1  0  0  0
  5  6  1  0  0  0
  5 26  1  0  0  0
  5105  1  0  0  0
  6 25  1  0  0  0
  6106  1  0  0  0
  6107  1  0  0  0
  7  8  2  0  0  0
  7 26  1  0  0  0
  7 29  1  0  0  0
  8  9  1  0  0  0
  8 22  1  0  0  0
  9 10  1  0  0  0
  9 27  2  0  0  0
 10 11  2  0  0  0
 10 15  1  0  0  0
 11 12  1  0  0  0
 11108  1  0  0  0
 12 13  2  0  0  0
 12109  1  0  0  0
 13 14  1  0  0  0
 13 31  1  0  0  0
 14 15  2  0  0  0
 14110  1  0  0  0
 15111  1  0  0  0
 16 17  2  0  0  0
 16 21  1  0  0  0
 16 31  1  0  0  0
 17 18  1  0  0  0
 17112  1  0  0  0
 18 19  2  0  0  0
 18113  1  0  0  0
 19 20  1  0  0  0
 19 24  1  0  0  0
 20 21  2  0  0  0
 20114  1  0  0  0
 21 23  1  0  0  0
 22 28  1  0  0  0
 22 32  2  0  0  0
 26 27  1  0  0  0
 28115  1  0  0  0
 28116  1  0  0  0
 29117  1  0  0  0
 29118  1  0  0  0
 33 34  1  0  0  0
 33 66  1  0  0  0
 33 70  2  0  0  0
 34 36  1  0  0  0
 34 59  1  0  0  0
 34119  1  0  0  0
 35 44  2  0  0  0
 35 45  1  0  0  0
 35 68  1  0  0  0
 36 56  1  0  0  0
 36120  1  0  0  0
 37 39  1  0  0  0
 37 47  1  0  0  0
 37 66  1  0  0  0
 37121  1  0  0  0
 38 43  2  0  0  0
 38 46  1  0  0  0
 38 47  1  0  0  0
 39 64  1  0  0  0
 39 67  2  0  0  0
 40 52  1  0  0  0
 40 53  2  0  0  0
 40 58  1  0  0  0
 41122  1  0  0  0
 41123  1  0  0  0
 41124  1  0  0  0
 41 48  1  0  0  0
 42 43  1  0  0  0
 42 66  1  0  0  0
 42125  1  0  0  0
 42126  1  0  0  0
 43 44  1  0  0  0
 44127  1  0  0  0
 45 46  2  0  0  0
 45128  1  0  0  0
 46129  1  0  0  0
 47130  1  0  0  0
 47131  1  0  0  0
 48 56  1  0  0  0
 48 65  1  0  0  0
 48132  1  0  0  0
 49 50  1  0  0  0
 49 53  1  0  0  0
 49 64  1  0  0  0
 49133  1  0  0  0
 50 51  1  0  0  0
 50134  1  0  0  0
 50135  1  0  0  0
 51 52  1  0  0  0
 51136  1  0  0  0
 51137  1  0  0  0
 52138  1  0  0  0
 52139  1  0  0  0
 53 54  1  0  0  0
 54 55  2  0  0  0
 54140  1  0  0  0
 55 57  1  0  0  0
 55141  1  0  0  0
 56 69  2  0  0  0
 57 58  2  0  0  0
 57142  1  0  0  0
 58143  1  0  0  0
 59 60  1  0  0  0
 59 61  1  0  0  0
 59 62  1  0  0  0
 60144  1  0  0  0
 60145  1  0  0  0
 60146  1  0  0  0
 61147  1  0  0  0
 61148  1  0  0  0
 61149  1  0  0  0
 62150  1  0  0  0
 62151  1  0  0  0
 62152  1  0  0  0
 63 65  1  0  0  0
 63153  1  0  0  0
 63154  1  0  0  0
 63155  1  0  0  0
 64156  1  0  0  0
 65157  1  0  0  0
 68 91  1  0  0  0
 71 72  2  0  0  0
 71 73  1  0  0  0
 71158  1  0  0  0
 72 78  1  0  0  0
 72159  1  0  0  0
 73 79  2  0  0  0
 73160  1  0  0  0
 74 75  2  0  0  0
 74 80  1  0  0  0
 74161  1  0  0  0
 75 81  1  0  0  0
 75162  1  0  0  0
 76 78  2  0  0  0
 76 79  1  0  0  0
 76163  1  0  0  0
 77 80  2  0  0  0
 77 82  1  0  0  0
 77164  1  0  0  0
 78 87  1  0  0  0
 79 91  1  0  0  0
 80 90  1  0  0  0
 81 82  2  0  0  0
 81 95  1  0  0  0
 82 98  1  0  0  0
 83 85  1  0  0  0
 83 87  1  0  0  0
 83165  1  0  0  0
 83166  1  0  0  0
 84 86  1  0  0  0
 84 87  1  0  0  0
 84167  1  0  0  0
 84168  1  0  0  0
 85 96  1  0  0  0
 85169  1  0  0  0
 85170  1  0  0  0
 86 96  1  0  0  0
 86171  1  0  0  0
 86172  1  0  0  0
 87173  1  0  0  0
 88174  1  0  0  0
 88175  1  0  0  0
 88176  1  0  0  0
 88 97  1  0  0  0
 89 97  1  0  0  0
 89177  1  0  0  0
 89178  1  0  0  0
 89179  1  0  0  0
 90180  1  0  0  0
 90181  1  0  0  0
 90 96  1  0  0  0
 91182  1  0  0  0
 91183  1  0  0  0
 92 93  1  0  0  0
 92 94  1  0  0  0
 92184  1  0  0  0
 92185  1  0  0  0
 93 95  1  0  0  0
 93186  1  0  0  0
 93187  1  0  0  0
 94 97  1  0  0  0
 94188  1  0  0  0
 94189  1  0  0  0
 96190  1  0  0  0
 97191  1  0  0  0
M  CHG  2  96   1  97   1
M  ISO  4   1 100  68 101  91 101  95 100
M  END
> <chiral flag>
0

> <version>
0

> <s_m_source_file>
/data/baiqing/PycharmProjects/Reinvent-master-3.2/result/LINK_invent/BTK/process_docking_weight1_custom_product_contain_oxygen_bond_distance_aromatic_linkinvent_7_9_3/rearranged_h_0018.sdf

> <i_m_source_file_index>
36

> <r_mmod_Potential_Energy-OPLS-2005>
66.7875289916992

> <r_mmod_Stretch_Energy-OPLS-2005>
39.9580230712891

> <r_mmod_Bend_Energy-OPLS-2005>
122.026863098145

> <r_mmod_Torsional_Energy-OPLS-2005>
396.599395751953

> <r_mmod_Improper_Torsional_Energy-OPLS-2005>
28.3088798522949

> <r_mmod_Van_der_Waal_Energy-OPLS-2005>
190.21369934082

> <r_mmod_Electrostatic_Energy-OPLS-2005>
5.44914150238037

> <r_mmod_Solvation_Energy-OPLS-2005>
-781.283264160156

> <b_mmod_Minimization_Converged-OPLS-2005>
0

> <r_mmod_RMS_Derivative-OPLS-2005>
4.97897052764893

$$$$
36
                    3D
 Structure written by MMmdl.
166174  0  0  1  0            999 V2000
  -30.6060  -14.6404   20.5217 C   0  0  0  0  0  0
  -30.4455  -12.3992   19.4480 C   0  0  0  0  0  0
  -29.5100  -12.5155   18.2231 C   0  0  0  0  0  0
  -28.0315  -12.3533   18.6318 C   0  0  0  0  0  0
  -27.6553  -13.2132   19.8671 C   0  0  2  0  0  0
  -28.6993  -13.0463   20.9946 C   0  0  0  0  0  0
  -25.2558  -13.8147   20.5686 C   0  0  0  0  0  0
  -24.1828  -13.0423   20.9206 C   0  0  0  0  0  0
  -24.6400  -11.6895   20.8754 C   0  0  0  0  0  0
  -23.9067  -10.4283   21.0410 C   0  0  0  0  0  0
  -24.3618   -9.4198   21.9183 C   0  0  0  0  0  0
  -23.6292   -8.2239   22.0752 C   0  0  0  0  0  0
  -22.4272   -8.0289   21.3543 C   0  0  0  0  0  0
  -21.9913   -9.0262   20.4643 C   0  0  0  0  0  0
  -22.7247  -10.2135   20.3049 C   0  0  0  0  0  0
  -21.6849   -6.0745   22.5287 C   0  0  0  0  0  0
  -21.4014   -6.5645   23.8224 C   0  0  0  0  0  0
  -21.3661   -5.6793   24.9187 C   0  0  0  0  0  0
  -21.6036   -4.3055   24.7231 C   0  0  0  0  0  0
  -21.8824   -3.8151   23.4349 C   0  0  0  0  0  0
  -21.9198   -4.6971   22.3407 C   0  0  0  0  0  0
  -22.7853  -13.5226   21.1869 C   0  0  0  0  0  0
  -22.1662   -4.2156   21.0979 F   0  0  0  0  0  0
  -21.5631   -3.4534   25.7741 F   0  0  0  0  0  0
  -30.0161  -13.4046   20.4406 N   0  0  0  0  0  0
  -26.2995  -12.9332   20.3324 N   0  0  0  0  0  0
  -25.9319  -11.6491   20.5745 N   0  0  0  0  0  0
  -22.0479  -12.8224   22.0416 N   0  0  0  0  0  0
  -25.4252  -15.1871   20.4105 N   0  0  0  0  0  0
  -31.7576  -14.8370   20.1191 O   0  0  0  0  0  0
  -21.6639   -6.8882   21.4245 O   0  0  0  0  0  0
  -22.3555  -14.5542   20.6732 O   0  0  0  0  0  0
  -24.6225  -31.8602   23.2012 C   0  0  0  0  0  0
  -25.9081  -32.4790   23.8349 C   0  0  1  0  0  0
  -27.2194  -27.3403   20.1246 C   0  0  0  0  0  0
  -25.5888  -33.8589   24.2268 N   0  0  0  0  0  0
  -23.4147  -30.4845   21.5428 C   0  0  2  0  0  0
  -24.8615  -28.9385   20.1105 C   0  0  0  0  0  0
  -22.7457  -29.4633   22.4933 C   0  0  0  0  0  0
  -18.0285  -28.1395   22.8512 C   0  0  0  0  0  0
  -24.1475  -36.7294   23.2647 C   0  0  0  0  0  0
  -25.9541  -30.8009   21.3664 C   0  0  0  0  0  0
  -26.0280  -29.4279   20.7131 C   0  0  0  0  0  0
  -27.2155  -28.6414   20.7059 C   0  0  0  0  0  0
  -26.0348  -26.8906   19.5042 C   0  0  0  0  0  0
  -24.8652  -27.6756   19.4952 C   0  0  0  0  0  0
  -23.6283  -29.8168   20.1583 C   0  0  0  0  0  0
  -25.4108  -36.3093   24.0332 C   0  0  1  0  0  0
  -20.5881  -28.3683   23.1304 C   0  0  2  0  0  0
  -20.6773  -26.9407   22.5422 C   0  0  0  0  0  0
  -19.5744  -26.6395   21.5227 C   0  0  0  0  0  0
  -18.1926  -26.7949   22.1632 C   0  0  0  0  0  0
  -19.1541  -28.8857   23.2903 C   0  0  0  0  0  0
  -18.9467  -30.1470   23.8908 C   0  0  0  0  0  0
  -17.6468  -30.6607   24.0577 C   0  0  0  0  0  0
  -25.9043  -34.9464   23.5101 C   0  0  0  0  0  0
  -16.5355  -29.9112   23.6337 C   0  0  0  0  0  0
  -16.7274  -28.6526   23.0356 C   0  0  0  0  0  0
  -26.4479  -31.6594   25.0716 C   0  0  0  0  0  0
  -25.3724  -31.3734   26.1452 C   0  0  0  0  0  0
  -27.0305  -30.3020   24.6145 C   0  0  0  0  0  0
  -27.6037  -32.4333   25.7491 C   0  0  0  0  0  0
  -27.5575  -37.1807   24.8477 C   0  0  0  0  0  0
  -21.4175  -29.3034   22.3693 N   0  0  0  0  0  0
  -26.4283  -37.3785   23.9416 N   0  0  0  0  0  0
  -24.6825  -31.0658   22.0936 N   0  0  0  0  0  0
  -23.4211  -28.8180   23.2994 O   0  0  0  0  0  0
  -28.3407  -26.5084   20.1412 O   0  0  0  0  0  0
  -26.5630  -34.8937   22.4685 O   0  0  0  0  0  0
  -23.5392  -32.1375   23.7359 O   0  0  0  0  0  0
  -28.3725  -18.9955   19.8368 C   0  0  0  0  0  0
  -28.5354  -17.6103   20.1059 C   0  0  0  0  0  0
  -30.7581  -18.0200   20.9370 C   0  0  0  0  0  0
  -29.3943  -19.9388   20.1054 C   0  0  0  0  0  0
  -29.7373  -17.0754   20.6324 C   0  0  0  0  0  0
  -30.5901  -19.4312   20.6902 C   0  0  0  0  0  0
  -33.8286  -19.6309   21.3018 C   0  0  0  0  0  0
  -32.7341  -21.4436   22.7061 C   0  0  0  0  0  0
  -27.3841  -22.1284   21.0899 C   0  0  0  0  0  0
  -29.2576  -21.4333   19.6145 C   0  0  0  0  0  0
  -28.6505  -23.9067   19.8426 C   0  0  0  0  0  0
  -28.1802  -25.1545   20.7105 C   0  0  0  0  0  0
  -32.5346  -20.1189   21.9636 C   0  0  0  0  0  0
  -29.7829  -15.6488   20.9444 N   0  0  0  0  0  0
  -28.6887  -22.5238   20.5045 N   0  3  1  0  0  0
  -31.5541  -20.3768   20.9654 O   0  0  0  0  0  0
  -31.4835  -12.5436   19.1461 H   0  0  0  0  0  0
  -30.3968  -11.3984   19.8794 H   0  0  0  0  0  0
  -29.7743  -11.7657   17.4767 H   0  0  0  0  0  0
  -29.6530  -13.4858   17.7446 H   0  0  0  0  0  0
  -27.8669  -11.2981   18.8529 H   0  0  0  0  0  0
  -27.3795  -12.5926   17.7910 H   0  0  0  0  0  0
  -27.6775  -14.2519   19.5374 H   0  0  0  0  0  0
  -28.7124  -12.0145   21.3518 H   0  0  0  0  0  0
  -28.4397  -13.6536   21.8627 H   0  0  0  0  0  0
  -25.2761   -9.5689   22.4757 H   0  0  0  0  0  0
  -24.0015   -7.4629   22.7461 H   0  0  0  0  0  0
  -21.0853   -8.8783   19.8935 H   0  0  0  0  0  0
  -22.3715  -10.9680   19.6160 H   0  0  0  0  0  0
  -21.1996   -7.6150   23.9736 H   0  0  0  0  0  0
  -21.1474   -6.0513   25.9088 H   0  0  0  0  0  0
  -22.0596   -2.7611   23.2849 H   0  0  0  0  0  0
  -22.4085  -11.9879   22.4807 H   0  0  0  0  0  0
  -21.1092  -13.1249   22.2580 H   0  0  0  0  0  0
  -24.6548  -15.8380   20.5143 H   0  0  0  0  0  0
  -26.2647  -15.6201   20.0507 H   0  0  0  0  0  0
  -26.7156  -32.5470   23.1114 H   0  0  0  0  0  0
  -25.0034  -33.9736   25.0411 H   0  0  0  0  0  0
  -22.7065  -31.3036   21.4004 H   0  0  0  0  0  0
  -23.3740  -35.9623   23.3322 H   0  0  0  0  0  0
  -24.3561  -36.8897   22.2057 H   0  0  0  0  0  0
  -23.7231  -37.6504   23.6655 H   0  0  0  0  0  0
  -26.0798  -31.5627   20.5951 H   0  0  0  0  0  0
  -26.8377  -30.8522   21.9899 H   0  0  0  0  0  0
  -28.1138  -29.0157   21.1768 H   0  0  0  0  0  0
  -26.0068  -25.9199   19.0293 H   0  0  0  0  0  0
  -23.9709  -27.2984   19.0193 H   0  0  0  0  0  0
  -23.7428  -30.5915   19.3993 H   0  0  0  0  0  0
  -22.7495  -29.2441   19.8584 H   0  0  0  0  0  0
  -25.1289  -36.1948   25.0823 H   0  0  0  0  0  0
  -20.9988  -28.3259   24.1415 H   0  0  0  0  0  0
  -20.5680  -26.2286   23.3615 H   0  0  0  0  0  0
  -21.6650  -26.7454   22.1202 H   0  0  0  0  0  0
  -19.6900  -25.6306   21.1248 H   0  0  0  0  0  0
  -19.6689  -27.3226   20.6774 H   0  0  0  0  0  0
  -17.4193  -26.6710   21.4031 H   0  0  0  0  0  0
  -18.0312  -26.0101   22.9030 H   0  0  0  0  0  0
  -19.7940  -30.7301   24.2264 H   0  0  0  0  0  0
  -17.5018  -31.6284   24.5185 H   0  0  0  0  0  0
  -15.5356  -30.3018   23.7657 H   0  0  0  0  0  0
  -15.8669  -28.0857   22.7056 H   0  0  0  0  0  0
  -24.5895  -30.7079   25.7806 H   0  0  0  0  0  0
  -24.8926  -32.2901   26.4886 H   0  0  0  0  0  0
  -25.8061  -30.8927   27.0227 H   0  0  0  0  0  0
  -26.2865  -29.6795   24.1166 H   0  0  0  0  0  0
  -27.4019  -29.7253   25.4623 H   0  0  0  0  0  0
  -27.8722  -30.4328   23.9340 H   0  0  0  0  0  0
  -27.2636  -33.3637   26.2062 H   0  0  0  0  0  0
  -28.3851  -32.6896   25.0321 H   0  0  0  0  0  0
  -28.0697  -31.8468   26.5416 H   0  0  0  0  0  0
  -28.2612  -38.0084   24.7502 H   0  0  0  0  0  0
  -28.1033  -36.2617   24.6312 H   0  0  0  0  0  0
  -27.2284  -37.1481   25.8875 H   0  0  0  0  0  0
  -20.9339  -29.8742   21.6907 H   0  0  0  0  0  0
  -26.0158  -38.2852   24.1422 H   0  0  0  0  0  0
  -27.4488  -19.3304   19.3853 H   0  0  0  0  0  0
  -27.7128  -16.9486   19.8775 H   0  0  0  0  0  0
  -31.6725  -17.6464   21.3732 H   0  0  0  0  0  0
  -34.6038  -19.4568   22.0484 H   0  0  0  0  0  0
  -34.2104  -20.3627   20.5890 H   0  0  0  0  0  0
  -33.6744  -18.6960   20.7639 H   0  0  0  0  0  0
  -33.4959  -21.3535   23.4806 H   0  0  0  0  0  0
  -31.8092  -21.7595   23.1899 H   0  0  0  0  0  0
  -33.0376  -22.2412   22.0276 H   0  0  0  0  0  0
  -27.4442  -21.1576   21.5824 H   0  0  0  0  0  0
  -26.6107  -22.0682   20.3243 H   0  0  0  0  0  0
  -27.0543  -22.8368   21.8488 H   0  0  0  0  0  0
  -28.6523  -21.4085   18.7074 H   0  0  0  0  0  0
  -30.2440  -21.7586   19.2804 H   0  0  0  0  0  0
  -29.6540  -24.1211   19.4741 H   0  0  0  0  0  0
  -28.0174  -23.8506   18.9571 H   0  0  0  0  0  0
  -28.7565  -25.1578   21.6366 H   0  0  0  0  0  0
  -27.1484  -25.0009   21.0285 H   0  0  0  0  0  0
  -32.1873  -19.3859   22.6927 H   0  0  0  0  0  0
  -28.8979  -15.2744   21.2516 H   0  0  0  0  0  0
  -29.3331  -22.5857   21.2791 H   0  0  0  0  0  0
  1 25  1  0  0  0
  1 30  2  0  0  0
  1 84  1  0  0  0
  2  3  1  0  0  0
  2 25  1  0  0  0
  2 87  1  0  0  0
  2 88  1  0  0  0
  3  4  1  0  0  0
  3 89  1  0  0  0
  3 90  1  0  0  0
  4  5  1  0  0  0
  4 91  1  0  0  0
  4 92  1  0  0  0
  5  6  1  0  0  0
  5 26  1  0  0  0
  5 93  1  0  0  0
  6 25  1  0  0  0
  6 94  1  0  0  0
  6 95  1  0  0  0
  7  8  2  0  0  0
  7 26  1  0  0  0
  7 29  1  0  0  0
  8  9  1  0  0  0
  8 22  1  0  0  0
  9 10  1  0  0  0
  9 27  2  0  0  0
 10 11  2  0  0  0
 10 15  1  0  0  0
 11 12  1  0  0  0
 11 96  1  0  0  0
 12 13  2  0  0  0
 12 97  1  0  0  0
 13 14  1  0  0  0
 13 31  1  0  0  0
 14 15  2  0  0  0
 14 98  1  0  0  0
 15 99  1  0  0  0
 16 17  2  0  0  0
 16 21  1  0  0  0
 16 31  1  0  0  0
 17 18  1  0  0  0
 17100  1  0  0  0
 18 19  2  0  0  0
 18101  1  0  0  0
 19 20  1  0  0  0
 19 24  1  0  0  0
 20 21  2  0  0  0
 20102  1  0  0  0
 21 23  1  0  0  0
 22 28  1  0  0  0
 22 32  2  0  0  0
 26 27  1  0  0  0
 28103  1  0  0  0
 28104  1  0  0  0
 29105  1  0  0  0
 29106  1  0  0  0
 33 34  1  0  0  0
 33 66  1  0  0  0
 33 70  2  0  0  0
 34 36  1  0  0  0
 34 59  1  0  0  0
 34107  1  0  0  0
 35 44  2  0  0  0
 35 45  1  0  0  0
 35 68  1  0  0  0
 36 56  1  0  0  0
 36108  1  0  0  0
 37 39  1  0  0  0
 37 47  1  0  0  0
 37 66  1  0  0  0
 37109  1  0  0  0
 38 43  2  0  0  0
 38 46  1  0  0  0
 38 47  1  0  0  0
 39 64  1  0  0  0
 39 67  2  0  0  0
 40 52  1  0  0  0
 40 53  2  0  0  0
 40 58  1  0  0  0
 41110  1  0  0  0
 41111  1  0  0  0
 41112  1  0  0  0
 41 48  1  0  0  0
 42 43  1  0  0  0
 42 66  1  0  0  0
 42113  1  0  0  0
 42114  1  0  0  0
 43 44  1  0  0  0
 44115  1  0  0  0
 45 46  2  0  0  0
 45116  1  0  0  0
 46117  1  0  0  0
 47118  1  0  0  0
 47119  1  0  0  0
 48 56  1  0  0  0
 48 65  1  0  0  0
 48120  1  0  0  0
 49 50  1  0  0  0
 49 53  1  0  0  0
 49 64  1  0  0  0
 49121  1  0  0  0
 50 51  1  0  0  0
 50122  1  0  0  0
 50123  1  0  0  0
 51 52  1  0  0  0
 51124  1  0  0  0
 51125  1  0  0  0
 52126  1  0  0  0
 52127  1  0  0  0
 53 54  1  0  0  0
 54 55  2  0  0  0
 54128  1  0  0  0
 55 57  1  0  0  0
 55129  1  0  0  0
 56 69  2  0  0  0
 57 58  2  0  0  0
 57130  1  0  0  0
 58131  1  0  0  0
 59 60  1  0  0  0
 59 61  1  0  0  0
 59 62  1  0  0  0
 60132  1  0  0  0
 60133  1  0  0  0
 60134  1  0  0  0
 61135  1  0  0  0
 61136  1  0  0  0
 61137  1  0  0  0
 62138  1  0  0  0
 62139  1  0  0  0
 62140  1  0  0  0
 63 65  1  0  0  0
 63141  1  0  0  0
 63142  1  0  0  0
 63143  1  0  0  0
 64144  1  0  0  0
 65145  1  0  0  0
 68 82  1  0  0  0
 71 72  2  0  0  0
 71 74  1  0  0  0
 71146  1  0  0  0
 72 75  1  0  0  0
 72147  1  0  0  0
 73 75  2  0  0  0
 73 76  1  0  0  0
 73148  1  0  0  0
 74 76  2  0  0  0
 74 80  1  0  0  0
 75 84  1  0  0  0
 76 86  1  0  0  0
 77149  1  0  0  0
 77150  1  0  0  0
 77151  1  0  0  0
 77 83  1  0  0  0
 78 83  1  0  0  0
 78152  1  0  0  0
 78153  1  0  0  0
 78154  1  0  0  0
 79155  1  0  0  0
 79156  1  0  0  0
 79157  1  0  0  0
 79 85  1  0  0  0
 80 85  1  0  0  0
 80158  1  0  0  0
 80159  1  0  0  0
 81 82  1  0  0  0
 81 85  1  0  0  0
 81160  1  0  0  0
 81161  1  0  0  0
 82162  1  0  0  0
 82163  1  0  0  0
 83 86  1  0  0  0
 83164  1  0  0  0
 84165  1  0  0  0
 85166  1  0  0  0
M  CHG  1  85   1
M  ISO  4   1 100  68 101  82 101  84 100
M  END
> <chiral flag>
0

> <version>
0

> <s_m_source_file>
/data/baiqing/PycharmProjects/Reinvent-master-3.2/result/LINK_invent/BTK/process_docking_weight1_custom_product_contain_oxygen_bond_distance_aromatic_linkinvent_7_9_3/rearranged_h_0018.sdf

> <i_m_source_file_index>
37

> <r_mmod_Potential_Energy-OPLS-2005>
-49.2830352783203

> <r_mmod_Stretch_Energy-OPLS-2005>
77.9112548828125

> <r_mmod_Bend_Energy-OPLS-2005>
145.603546142578

> <r_mmod_Torsional_Energy-OPLS-2005>
245.908798217773

> <r_mmod_Improper_Torsional_Energy-OPLS-2005>
5.8287672996521

> <r_mmod_Van_der_Waal_Energy-OPLS-2005>
136.027404785156

> <r_mmod_Electrostatic_Energy-OPLS-2005>
-279.014007568359

> <r_mmod_Solvation_Energy-OPLS-2005>
-425.629638671875

> <b_mmod_Minimization_Converged-OPLS-2005>
0

> <r_mmod_RMS_Derivative-OPLS-2005>
2.08276152610779

$$$$
37
                    3D
 Structure written by MMmdl.
158166  0  0  1  0            999 V2000
  -30.6555  -14.6523   20.5448 C   0  0  0  0  0  0
  -30.4299  -12.4115   19.4705 C   0  0  0  0  0  0
  -29.5101  -12.5105   18.2328 C   0  0  0  0  0  0
  -28.0338  -12.3390   18.6383 C   0  0  0  0  0  0
  -27.6484  -13.2196   19.8550 C   0  0  2  0  0  0
  -28.6818  -13.0910   20.9904 C   0  0  0  0  0  0
  -25.2562  -13.8187   20.5680 C   0  0  0  0  0  0
  -24.1825  -13.0446   20.9168 C   0  0  0  0  0  0
  -24.6391  -11.6920   20.8710 C   0  0  0  0  0  0
  -23.9057  -10.4301   21.0392 C   0  0  0  0  0  0
  -24.3613   -9.4226   21.9170 C   0  0  0  0  0  0
  -23.6292   -8.2261   22.0759 C   0  0  0  0  0  0
  -22.4271   -8.0297   21.3554 C   0  0  0  0  0  0
  -21.9898   -9.0268   20.4649 C   0  0  0  0  0  0
  -22.7227  -10.2141   20.3050 C   0  0  0  0  0  0
  -21.6857   -6.0746   22.5286 C   0  0  0  0  0  0
  -21.4015   -6.5652   23.8222 C   0  0  0  0  0  0
  -21.3655   -5.6798   24.9175 C   0  0  0  0  0  0
  -21.6035   -4.3057   24.7216 C   0  0  0  0  0  0
  -21.8817   -3.8151   23.4340 C   0  0  0  0  0  0
  -21.9198   -4.6972   22.3402 C   0  0  0  0  0  0
  -22.7844  -13.5241   21.1833 C   0  0  0  0  0  0
  -22.1655   -4.2156   21.0976 F   0  0  0  0  0  0
  -21.5641   -3.4547   25.7733 F   0  0  0  0  0  0
  -30.0008  -13.4454   20.4414 N   0  0  0  0  0  0
  -26.2960  -12.9364   20.3250 N   0  0  0  0  0  0
  -25.9316  -11.6513   20.5697 N   0  0  0  0  0  0
  -22.0502  -12.8238   22.0394 N   0  0  0  0  0  0
  -25.4284  -15.1912   20.4145 N   0  0  0  0  0  0
  -31.7861  -14.7815   20.0633 O   0  0  0  0  0  0
  -21.6639   -6.8893   21.4252 O   0  0  0  0  0  0
  -22.3515  -14.5542   20.6684 O   0  0  0  0  0  0
  -24.6248  -31.8597   23.2002 C   0  0  0  0  0  0
  -25.9101  -32.4775   23.8338 C   0  0  1  0  0  0
  -27.2327  -27.3214   20.1164 C   0  0  0  0  0  0
  -25.5924  -33.8577   24.2277 N   0  0  0  0  0  0
  -23.4179  -30.4796   21.5425 C   0  0  2  0  0  0
  -24.8671  -28.9281   20.1092 C   0  0  0  0  0  0
  -22.7465  -29.4609   22.4937 C   0  0  0  0  0  0
  -18.0276  -28.1393   22.8487 C   0  0  0  0  0  0
  -24.1479  -36.7286   23.2636 C   0  0  0  0  0  0
  -25.9560  -30.7891   21.3682 C   0  0  0  0  0  0
  -26.0302  -29.4142   20.7164 C   0  0  0  0  0  0
  -27.2107  -28.6182   20.7142 C   0  0  0  0  0  0
  -26.0451  -26.8766   19.4954 C   0  0  0  0  0  0
  -24.8752  -27.6650   19.4921 C   0  0  0  0  0  0
  -23.6331  -29.8084   20.1586 C   0  0  0  0  0  0
  -25.4107  -36.3077   24.0326 C   0  0  1  0  0  0
  -20.5870  -28.3695   23.1294 C   0  0  2  0  0  0
  -20.6773  -26.9419   22.5419 C   0  0  0  0  0  0
  -19.5747  -26.6385   21.5221 C   0  0  0  0  0  0
  -18.1921  -26.7937   22.1626 C   0  0  0  0  0  0
  -19.1523  -28.8863   23.2893 C   0  0  0  0  0  0
  -18.9459  -30.1468   23.8915 C   0  0  0  0  0  0
  -17.6462  -30.6603   24.0568 C   0  0  0  0  0  0
  -25.9050  -34.9448   23.5103 C   0  0  0  0  0  0
  -16.5352  -29.9105   23.6324 C   0  0  0  0  0  0
  -16.7268  -28.6512   23.0354 C   0  0  0  0  0  0
  -26.4502  -31.6590   25.0707 C   0  0  0  0  0  0
  -25.3745  -31.3742   26.1445 C   0  0  0  0  0  0
  -27.0351  -30.3021   24.6147 C   0  0  0  0  0  0
  -27.6064  -32.4332   25.7485 C   0  0  0  0  0  0
  -27.5568  -37.1796   24.8468 C   0  0  0  0  0  0
  -21.4174  -29.3051   22.3689 N   0  0  0  0  0  0
  -26.4281  -37.3775   23.9410 N   0  0  0  0  0  0
  -24.6852  -31.0593   22.0954 N   0  0  0  0  0  0
  -23.4184  -28.8161   23.3031 O   0  0  0  0  0  0
  -28.3804  -26.5216   20.1951 O   0  0  0  0  0  0
  -26.5608  -34.8915   22.4662 O   0  0  0  0  0  0
  -23.5422  -32.1411   23.7331 O   0  0  0  0  0  0
  -29.4571  -19.4598   19.2591 C   0  0  0  0  0  0
  -29.4697  -19.2233   21.6400 C   0  0  0  0  0  0
  -29.2242  -20.8656   19.3840 C   0  0  0  0  0  0
  -29.2588  -20.6319   21.7648 C   0  0  0  0  0  0
  -29.6099  -18.5867   20.3739 C   0  0  0  0  0  0
  -29.1523  -21.5117   20.6448 C   0  0  0  0  0  0
  -29.7087  -23.4915   21.9926 C   0  0  0  0  0  0
  -29.6444  -15.9274   22.3749 C   0  0  0  0  0  0
  -29.9694  -17.0567   20.1127 C   0  0  0  0  0  0
  -28.0533  -23.8331   20.1476 C   0  0  0  0  0  0
  -28.5258  -25.2222   19.5097 C   0  0  0  0  0  0
  -29.0859  -22.9514   20.7852 N   0  0  0  0  0  0
  -29.9440  -15.7744   20.9408 N   0  0  0  0  0  0
  -31.4718  -12.5275   19.1689 H   0  0  0  0  0  0
  -30.3656  -11.4206   19.9232 H   0  0  0  0  0  0
  -29.7855  -11.7541   17.4973 H   0  0  0  0  0  0
  -29.6483  -13.4758   17.7426 H   0  0  0  0  0  0
  -27.8774  -11.2872   18.8792 H   0  0  0  0  0  0
  -27.3812  -12.5555   17.7928 H   0  0  0  0  0  0
  -27.6637  -14.2536   19.5091 H   0  0  0  0  0  0
  -28.7009  -12.0736   21.3840 H   0  0  0  0  0  0
  -28.3812  -13.7210   21.8241 H   0  0  0  0  0  0
  -25.2764   -9.5716   22.4730 H   0  0  0  0  0  0
  -24.0020   -7.4654   22.7475 H   0  0  0  0  0  0
  -21.0835   -8.8774   19.8951 H   0  0  0  0  0  0
  -22.3678  -10.9680   19.6152 H   0  0  0  0  0  0
  -21.2001   -7.6156   23.9725 H   0  0  0  0  0  0
  -21.1472   -6.0522   25.9075 H   0  0  0  0  0  0
  -22.0592   -2.7617   23.2834 H   0  0  0  0  0  0
  -22.4138  -11.9907   22.4780 H   0  0  0  0  0  0
  -21.1128  -13.1286   22.2620 H   0  0  0  0  0  0
  -24.6705  -15.8514   20.5514 H   0  0  0  0  0  0
  -26.2932  -15.6338   20.1293 H   0  0  0  0  0  0
  -26.7160  -32.5458   23.1078 H   0  0  0  0  0  0
  -25.0091  -33.9739   25.0431 H   0  0  0  0  0  0
  -22.7122  -31.2999   21.3973 H   0  0  0  0  0  0
  -23.3735  -35.9622   23.3310 H   0  0  0  0  0  0
  -24.3564  -36.8904   22.2049 H   0  0  0  0  0  0
  -23.7237  -37.6492   23.6656 H   0  0  0  0  0  0
  -26.0786  -31.5473   20.5932 H   0  0  0  0  0  0
  -26.8396  -30.8496   21.9909 H   0  0  0  0  0  0
  -28.1028  -28.9858   21.2009 H   0  0  0  0  0  0
  -25.9911  -25.9021   19.0327 H   0  0  0  0  0  0
  -23.9792  -27.2851   19.0208 H   0  0  0  0  0  0
  -23.7519  -30.5846   19.4018 H   0  0  0  0  0  0
  -22.7529  -29.2381   19.8562 H   0  0  0  0  0  0
  -25.1280  -36.1922   25.0819 H   0  0  0  0  0  0
  -20.9976  -28.3273   24.1406 H   0  0  0  0  0  0
  -20.5690  -26.2302   23.3616 H   0  0  0  0  0  0
  -21.6643  -26.7466   22.1201 H   0  0  0  0  0  0
  -19.6914  -25.6292   21.1262 H   0  0  0  0  0  0
  -19.6690  -27.3183   20.6743 H   0  0  0  0  0  0
  -17.4195  -26.6680   21.4024 H   0  0  0  0  0  0
  -18.0324  -26.0090   22.9039 H   0  0  0  0  0  0
  -19.7941  -30.7271   24.2295 H   0  0  0  0  0  0
  -17.5022  -31.6284   24.5173 H   0  0  0  0  0  0
  -15.5355  -30.3019   23.7657 H   0  0  0  0  0  0
  -15.8655  -28.0848   22.7068 H   0  0  0  0  0  0
  -24.5902  -30.7103   25.7783 H   0  0  0  0  0  0
  -24.8950  -32.2929   26.4858 H   0  0  0  0  0  0
  -25.8080  -30.8934   27.0227 H   0  0  0  0  0  0
  -26.2928  -29.6768   24.1173 H   0  0  0  0  0  0
  -27.4074  -29.7278   25.4639 H   0  0  0  0  0  0
  -27.8779  -30.4317   23.9347 H   0  0  0  0  0  0
  -27.2664  -33.3626   26.2071 H   0  0  0  0  0  0
  -28.3877  -32.6915   25.0319 H   0  0  0  0  0  0
  -28.0729  -31.8454   26.5407 H   0  0  0  0  0  0
  -28.2599  -38.0083   24.7501 H   0  0  0  0  0  0
  -28.1056  -36.2614   24.6306 H   0  0  0  0  0  0
  -27.2293  -37.1467   25.8878 H   0  0  0  0  0  0
  -20.9347  -29.8771   21.6894 H   0  0  0  0  0  0
  -26.0157  -38.2845   24.1428 H   0  0  0  0  0  0
  -29.5511  -19.0471   18.2641 H   0  0  0  0  0  0
  -29.5537  -18.6506   22.5498 H   0  0  0  0  0  0
  -29.1616  -21.4600   18.4822 H   0  0  0  0  0  0
  -29.1960  -21.0336   22.7664 H   0  0  0  0  0  0
  -29.0495  -23.3765   22.8537 H   0  0  0  0  0  0
  -29.9256  -24.5555   21.8861 H   0  0  0  0  0  0
  -30.6523  -22.9901   22.2156 H   0  0  0  0  0  0
  -30.3331  -16.6315   22.8387 H   0  0  0  0  0  0
  -29.7546  -14.9984   22.9381 H   0  0  0  0  0  0
  -28.6251  -16.2848   22.5213 H   0  0  0  0  0  0
  -28.8954  -17.0039   20.2983 H   0  0  0  0  0  0
  -30.8284  -17.3312   20.7282 H   0  0  0  0  0  0
  -27.5868  -23.2505   19.3526 H   0  0  0  0  0  0
  -27.2522  -24.0236   20.8630 H   0  0  0  0  0  0
  -28.0650  -25.3150   18.5260 H   0  0  0  0  0  0
  -29.5872  -25.1290   19.2758 H   0  0  0  0  0  0
  1 25  1  0  0  0
  1 30  2  0  0  0
  1 83  1  0  0  0
  2  3  1  0  0  0
  2 25  1  0  0  0
  2 84  1  0  0  0
  2 85  1  0  0  0
  3  4  1  0  0  0
  3 86  1  0  0  0
  3 87  1  0  0  0
  4  5  1  0  0  0
  4 88  1  0  0  0
  4 89  1  0  0  0
  5  6  1  0  0  0
  5 26  1  0  0  0
  5 90  1  0  0  0
  6 25  1  0  0  0
  6 91  1  0  0  0
  6 92  1  0  0  0
  7  8  2  0  0  0
  7 26  1  0  0  0
  7 29  1  0  0  0
  8  9  1  0  0  0
  8 22  1  0  0  0
  9 10  1  0  0  0
  9 27  2  0  0  0
 10 11  2  0  0  0
 10 15  1  0  0  0
 11 12  1  0  0  0
 11 93  1  0  0  0
 12 13  2  0  0  0
 12 94  1  0  0  0
 13 14  1  0  0  0
 13 31  1  0  0  0
 14 15  2  0  0  0
 14 95  1  0  0  0
 15 96  1  0  0  0
 16 17  2  0  0  0
 16 21  1  0  0  0
 16 31  1  0  0  0
 17 18  1  0  0  0
 17 97  1  0  0  0
 18 19  2  0  0  0
 18 98  1  0  0  0
 19 20  1  0  0  0
 19 24  1  0  0  0
 20 21  2  0  0  0
 20 99  1  0  0  0
 21 23  1  0  0  0
 22 28  1  0  0  0
 22 32  2  0  0  0
 26 27  1  0  0  0
 28100  1  0  0  0
 28101  1  0  0  0
 29102  1  0  0  0
 29103  1  0  0  0
 33 34  1  0  0  0
 33 66  1  0  0  0
 33 70  2  0  0  0
 34 36  1  0  0  0
 34 59  1  0  0  0
 34104  1  0  0  0
 35 44  2  0  0  0
 35 45  1  0  0  0
 35 68  1  0  0  0
 36 56  1  0  0  0
 36105  1  0  0  0
 37 39  1  0  0  0
 37 47  1  0  0  0
 37 66  1  0  0  0
 37106  1  0  0  0
 38 43  2  0  0  0
 38 46  1  0  0  0
 38 47  1  0  0  0
 39 64  1  0  0  0
 39 67  2  0  0  0
 40 52  1  0  0  0
 40 53  2  0  0  0
 40 58  1  0  0  0
 41107  1  0  0  0
 41108  1  0  0  0
 41109  1  0  0  0
 41 48  1  0  0  0
 42 43  1  0  0  0
 42 66  1  0  0  0
 42110  1  0  0  0
 42111  1  0  0  0
 43 44  1  0  0  0
 44112  1  0  0  0
 45 46  2  0  0  0
 45113  1  0  0  0
 46114  1  0  0  0
 47115  1  0  0  0
 47116  1  0  0  0
 48 56  1  0  0  0
 48 65  1  0  0  0
 48117  1  0  0  0
 49 50  1  0  0  0
 49 53  1  0  0  0
 49 64  1  0  0  0
 49118  1  0  0  0
 50 51  1  0  0  0
 50119  1  0  0  0
 50120  1  0  0  0
 51 52  1  0  0  0
 51121  1  0  0  0
 51122  1  0  0  0
 52123  1  0  0  0
 52124  1  0  0  0
 53 54  1  0  0  0
 54 55  2  0  0  0
 54125  1  0  0  0
 55 57  1  0  0  0
 55126  1  0  0  0
 56 69  2  0  0  0
 57 58  2  0  0  0
 57127  1  0  0  0
 58128  1  0  0  0
 59 60  1  0  0  0
 59 61  1  0  0  0
 59 62  1  0  0  0
 60129  1  0  0  0
 60130  1  0  0  0
 60131  1  0  0  0
 61132  1  0  0  0
 61133  1  0  0  0
 61134  1  0  0  0
 62135  1  0  0  0
 62136  1  0  0  0
 62137  1  0  0  0
 63 65  1  0  0  0
 63138  1  0  0  0
 63139  1  0  0  0
 63140  1  0  0  0
 64141  1  0  0  0
 65142  1  0  0  0
 68 81  1  0  0  0
 71 73  2  0  0  0
 71 75  1  0  0  0
 71143  1  0  0  0
 72 74  1  0  0  0
 72 75  2  0  0  0
 72144  1  0  0  0
 73 76  1  0  0  0
 73145  1  0  0  0
 74 76  2  0  0  0
 74146  1  0  0  0
 75 79  1  0  0  0
 76 82  1  0  0  0
 77 82  1  0  0  0
 77147  1  0  0  0
 77148  1  0  0  0
 77149  1  0  0  0
 78 83  1  0  0  0
 78150  1  0  0  0
 78151  1  0  0  0
 78152  1  0  0  0
 79 83  1  0  0  0
 79153  1  0  0  0
 79154  1  0  0  0
 80 81  1  0  0  0
 80 82  1  0  0  0
 80155  1  0  0  0
 80156  1  0  0  0
 81157  1  0  0  0
 81158  1  0  0  0
M  ISO  4   1 100  68 101  81 101  83 100
M  END
> <chiral flag>
0

> <version>
0

> <s_m_source_file>
/data/baiqing/PycharmProjects/Reinvent-master-3.2/result/LINK_invent/BTK/process_docking_weight1_custom_product_contain_oxygen_bond_distance_aromatic_linkinvent_7_9_3/rearranged_h_0018.sdf

> <i_m_source_file_index>
38

> <r_mmod_Potential_Energy-OPLS-2005>
439.037231445312

> <r_mmod_Stretch_Energy-OPLS-2005>
92.5135726928711

> <r_mmod_Bend_Energy-OPLS-2005>
379.099792480469

> <r_mmod_Torsional_Energy-OPLS-2005>
270.232360839844

> <r_mmod_Improper_Torsional_Energy-OPLS-2005>
9.45748710632324

> <r_mmod_Van_der_Waal_Energy-OPLS-2005>
151.953414916992

> <r_mmod_Electrostatic_Energy-OPLS-2005>
-298.704345703125

> <r_mmod_Solvation_Energy-OPLS-2005>
-213.23828125

> <b_mmod_Minimization_Converged-OPLS-2005>
0

> <r_mmod_RMS_Derivative-OPLS-2005>
2.17701935768127

$$$$
38
                    3D
 Structure written by MMmdl.
165173  0  0  1  0            999 V2000
  -29.4756  -15.5767   20.7003 C   0  0  0  0  0  0
  -30.2853  -13.1707   19.6752 C   0  0  0  0  0  0
  -29.5059  -12.6958   18.3996 C   0  0  0  0  0  0
  -28.0803  -12.2396   18.7582 C   0  0  0  0  0  0
  -27.4924  -13.1794   19.8310 C   0  0  2  0  0  0
  -28.3865  -13.3238   21.0508 C   0  0  0  0  0  0
  -25.1812  -13.7879   20.5676 C   0  0  0  0  0  0
  -24.1209  -13.0188   20.9244 C   0  0  0  0  0  0
  -24.5814  -11.6675   20.8773 C   0  0  0  0  0  0
  -23.8677  -10.4148   21.0464 C   0  0  0  0  0  0
  -24.3405   -9.4153   21.9204 C   0  0  0  0  0  0
  -23.6188   -8.2152   22.0760 C   0  0  0  0  0  0
  -22.4171   -8.0168   21.3551 C   0  0  0  0  0  0
  -21.9713   -9.0086   20.4649 C   0  0  0  0  0  0
  -22.6929  -10.1996   20.3065 C   0  0  0  0  0  0
  -21.6827   -6.0670   22.5283 C   0  0  0  0  0  0
  -21.3984   -6.5601   23.8196 C   0  0  0  0  0  0
  -21.3642   -5.6768   24.9160 C   0  0  0  0  0  0
  -21.6034   -4.3030   24.7225 C   0  0  0  0  0  0
  -21.8854   -3.8118   23.4357 C   0  0  0  0  0  0
  -21.9190   -4.6915   22.3405 C   0  0  0  0  0  0
  -22.7378  -13.5140   21.1984 C   0  0  0  0  0  0
  -22.1671   -4.2111   21.0981 F   0  0  0  0  0  0
  -21.5633   -3.4519   25.7747 F   0  0  0  0  0  0
  -29.4340  -14.1392   20.5242 N   0  0  0  0  0  0
  -26.1839  -12.8859   20.2818 N   0  0  0  0  0  0
  -25.8590  -11.6109   20.5537 N   0  0  0  0  0  0
  -22.0107  -12.8137   22.0573 N   0  0  0  0  0  0
  -25.3610  -15.1622   20.4472 N   0  0  0  0  0  0
  -30.7009  -15.8412   20.4992 O   0  0  0  0  0  0
  -21.6587   -6.8762   21.4236 O   0  0  0  0  0  0
  -22.3159  -14.5510   20.6884 O   0  0  0  0  0  0
  -24.6452  -31.9284   23.2347 C   0  0  0  0  0  0
  -25.9412  -32.5031   23.8627 C   0  0  1  0  0  0
  -26.1889  -27.2402   20.3553 C   0  0  0  0  0  0
  -25.6277  -33.8792   24.2524 N   0  0  0  0  0  0
  -23.4369  -30.5656   21.6110 C   0  0  2  0  0  0
  -24.8570  -29.3554   19.7962 C   0  0  0  0  0  0
  -23.0655  -29.4465   22.6341 C   0  0  0  0  0  0
  -18.6689  -27.6092   22.4668 C   0  0  0  0  0  0
  -24.1510  -36.7359   23.2598 C   0  0  0  0  0  0
  -25.9697  -30.8430   21.4357 C   0  0  0  0  0  0
  -25.9193  -29.5441   20.6776 C   0  0  0  0  0  0
  -26.7753  -28.4447   20.8577 C   0  0  0  0  0  0
  -25.9203  -27.2911   19.0207 C   0  0  0  0  0  0
  -25.0048  -28.3353   18.8038 C   0  0  0  0  0  0
  -23.5897  -30.1351   20.0988 C   0  0  0  0  0  0
  -25.4112  -36.3170   24.0337 C   0  0  1  0  0  0
  -21.3684  -27.8875   23.5069 C   0  0  2  0  0  0
  -22.3443  -26.2612   22.6809 C   0  0  0  0  0  0
  -20.7926  -25.2861   21.0962 C   0  0  0  0  0  0
  -19.0244  -26.2692   21.3519 C   0  0  0  0  0  0
  -19.6878  -28.3048   23.3185 C   0  0  0  0  0  0
  -19.2514  -29.5651   23.9415 C   0  0  0  0  0  0
  -17.9422  -30.1223   23.9333 C   0  0  0  0  0  0
  -25.9140  -34.9581   23.5155 C   0  0  0  0  0  0
  -16.9370  -29.3744   23.3120 C   0  0  0  0  0  0
  -17.3075  -28.1741   22.6114 C   0  0  0  0  0  0
  -26.4604  -31.6668   25.0947 C   0  0  0  0  0  0
  -25.3752  -31.3818   26.1580 C   0  0  0  0  0  0
  -27.0381  -30.3035   24.6427 C   0  0  0  0  0  0
  -27.6162  -32.4322   25.7768 C   0  0  0  0  0  0
  -27.5594  -37.1851   24.8452 C   0  0  0  0  0  0
  -21.8269  -29.2225   22.9987 N   0  0  0  0  0  0
  -26.4270  -37.3868   23.9454 N   0  0  0  0  0  0
  -24.6961  -31.1751   22.1086 N   0  0  0  0  0  0
  -23.9135  -28.7819   23.2072 O   0  0  0  0  0  0
  -24.8811  -26.9312   20.9076 O   0  0  0  0  0  0
  -26.5578  -34.8984   22.4638 O   0  0  0  0  0  0
  -23.5653  -32.2000   23.7818 O   0  0  0  0  0  0
  -25.0380  -20.5817   21.8932 C   0  0  0  0  0  0
  -24.8957  -18.3787   22.8144 C   0  0  0  0  0  0
  -23.1733  -20.2376   23.3528 C   0  0  0  0  0  0
  -25.7750  -19.0972   21.9530 C   0  0  0  0  0  0
  -23.6919  -21.2912   22.5493 C   0  0  0  0  0  0
  -23.7169  -18.9067   23.4604 C   0  0  0  0  0  0
  -27.8317  -16.8127   19.4218 C   0  0  0  0  0  0
  -20.1871  -22.8188   23.3605 C   0  0  0  0  0  0
  -27.4155  -18.1716   21.4337 C   0  0  0  0  0  0
  -22.6976  -22.9755   22.5405 C   0  0  0  0  0  0
  -21.2275  -27.4505   21.1875 C   0  0  0  0  0  0
  -20.3573  -25.5508   23.2551 C   0  0  0  0  0  0
  -23.1161  -27.1505   20.4688 C   0  0  0  0  0  0
  -28.1959  -16.5844   20.8340 N   0  0  0  0  0  0
  -21.2496  -23.8523   23.2879 N   0  3  1  0  0  0
  -23.0543  -18.0558   24.2796 F   0  0  0  0  0  0
  -31.2141  -13.6518   19.3696 H   0  0  0  0  0  0
  -30.5917  -12.3119   20.2797 H   0  0  0  0  0  0
  -30.0471  -11.9015   17.8823 H   0  0  0  0  0  0
  -29.4422  -13.5326   17.6975 H   0  0  0  0  0  0
  -28.1279  -11.2260   19.1562 H   0  0  0  0  0  0
  -27.4474  -12.1985   17.8711 H   0  0  0  0  0  0
  -27.3714  -14.1144   19.3037 H   0  0  0  0  0  0
  -28.7108  -12.3632   21.4492 H   0  0  0  0  0  0
  -27.8739  -13.8538   21.8567 H   0  0  0  0  0  0
  -25.2584   -9.5713   22.4691 H   0  0  0  0  0  0
  -23.9961   -7.4554   22.7466 H   0  0  0  0  0  0
  -21.0646   -8.8549   19.8964 H   0  0  0  0  0  0
  -22.3388  -10.9517   19.6153 H   0  0  0  0  0  0
  -21.1982   -7.6107   23.9681 H   0  0  0  0  0  0
  -21.1409   -6.0488   25.9045 H   0  0  0  0  0  0
  -22.0655   -2.7585   23.2857 H   0  0  0  0  0  0
  -22.3768  -11.9727   22.4840 H   0  0  0  0  0  0
  -21.0761  -13.1181   22.2933 H   0  0  0  0  0  0
  -24.6159  -15.8178   20.6520 H   0  0  0  0  0  0
  -26.2396  -15.6175   20.2437 H   0  0  0  0  0  0
  -26.7521  -32.5555   23.1400 H   0  0  0  0  0  0
  -25.0488  -33.9965   25.0699 H   0  0  0  0  0  0
  -22.6395  -31.3114   21.6333 H   0  0  0  0  0  0
  -23.3776  -35.9685   23.3211 H   0  0  0  0  0  0
  -24.3642  -36.9024   22.2027 H   0  0  0  0  0  0
  -23.7263  -37.6549   23.6634 H   0  0  0  0  0  0
  -26.2077  -31.6400   20.7306 H   0  0  0  0  0  0
  -26.8191  -30.7540   22.1022 H   0  0  0  0  0  0
  -27.5431  -28.4448   21.6169 H   0  0  0  0  0  0
  -25.8256  -26.3995   18.4200 H   0  0  0  0  0  0
  -24.3142  -28.2647   17.9738 H   0  0  0  0  0  0
  -23.6387  -31.0384   19.4891 H   0  0  0  0  0  0
  -22.6896  -29.6327   19.7488 H   0  0  0  0  0  0
  -25.1248  -36.2016   25.0825 H   0  0  0  0  0  0
  -21.5768  -27.8837   24.5771 H   0  0  0  0  0  0
  -22.6339  -25.6801   23.5592 H   0  0  0  0  0  0
  -23.4137  -26.3228   22.5219 H   0  0  0  0  0  0
  -20.6101  -24.2173   21.0775 H   0  0  0  0  0  0
  -21.1110  -25.3359   20.0538 H   0  0  0  0  0  0
  -18.7115  -26.6335   20.3707 H   0  0  0  0  0  0
  -18.2597  -25.5143   21.5404 H   0  0  0  0  0  0
  -19.9846  -30.1191   24.5139 H   0  0  0  0  0  0
  -17.7213  -31.0515   24.4416 H   0  0  0  0  0  0
  -15.9101  -29.7214   23.3153 H   0  0  0  0  0  0
  -16.5143  -27.6730   22.0720 H   0  0  0  0  0  0
  -24.5957  -30.7173   25.7837 H   0  0  0  0  0  0
  -24.8946  -32.3007   26.4931 H   0  0  0  0  0  0
  -25.7998  -30.9005   27.0402 H   0  0  0  0  0  0
  -26.2965  -29.6882   24.1327 H   0  0  0  0  0  0
  -27.3863  -29.7203   25.4969 H   0  0  0  0  0  0
  -27.8975  -30.4239   23.9828 H   0  0  0  0  0  0
  -27.2781  -33.3645   26.2300 H   0  0  0  0  0  0
  -28.4024  -32.6831   25.0637 H   0  0  0  0  0  0
  -28.0756  -31.8456   26.5741 H   0  0  0  0  0  0
  -28.2524  -38.0218   24.7568 H   0  0  0  0  0  0
  -28.1174  -36.2761   24.6154 H   0  0  0  0  0  0
  -27.2347  -37.1359   25.8854 H   0  0  0  0  0  0
  -21.0990  -29.8345   22.6560 H   0  0  0  0  0  0
  -26.0136  -38.2922   24.1494 H   0  0  0  0  0  0
  -25.5796  -21.2723   21.2611 H   0  0  0  0  0  0
  -25.1503  -17.3534   23.0517 H   0  0  0  0  0  0
  -22.2922  -20.4368   23.9431 H   0  0  0  0  0  0
  -26.8004  -17.1469   19.3050 H   0  0  0  0  0  0
  -27.9687  -15.9672   18.7503 H   0  0  0  0  0  0
  -28.4712  -17.5910   19.0028 H   0  0  0  0  0  0
  -20.5767  -21.8959   23.7801 H   0  0  0  0  0  0
  -19.7970  -22.5775   22.3719 H   0  0  0  0  0  0
  -19.3483  -23.1211   23.9871 H   0  0  0  0  0  0
  -28.0528  -18.3829   22.2921 H   0  0  0  0  0  0
  -27.7881  -18.8932   20.7048 H   0  0  0  0  0  0
  -22.4354  -23.0120   21.4815 H   0  0  0  0  0  0
  -23.5032  -23.7055   22.6213 H   0  0  0  0  0  0
  -20.8383  -28.4648   21.1386 H   0  0  0  0  0  0
  -20.7511  -27.3764   20.2018 H   0  0  0  0  0  0
  -19.3007  -25.3233   23.4099 H   0  0  0  0  0  0
  -20.5130  -25.8706   24.2889 H   0  0  0  0  0  0
  -22.9537  -27.5189   19.4680 H   0  0  0  0  0  0
  -23.0614  -26.1008   20.1765 H   0  0  0  0  0  0
  -21.5665  -23.8667   24.2459 H   0  0  0  0  0  0
  1 25  1  0  0  0
  1 30  2  0  0  0
  1 84  1  0  0  0
  2  3  1  0  0  0
  2 25  1  0  0  0
  2 87  1  0  0  0
  2 88  1  0  0  0
  3  4  1  0  0  0
  3 89  1  0  0  0
  3 90  1  0  0  0
  4  5  1  0  0  0
  4 91  1  0  0  0
  4 92  1  0  0  0
  5  6  1  0  0  0
  5 26  1  0  0  0
  5 93  1  0  0  0
  6 25  1  0  0  0
  6 94  1  0  0  0
  6 95  1  0  0  0
  7  8  2  0  0  0
  7 26  1  0  0  0
  7 29  1  0  0  0
  8  9  1  0  0  0
  8 22  1  0  0  0
  9 10  1  0  0  0
  9 27  2  0  0  0
 10 11  2  0  0  0
 10 15  1  0  0  0
 11 12  1  0  0  0
 11 96  1  0  0  0
 12 13  2  0  0  0
 12 97  1  0  0  0
 13 14  1  0  0  0
 13 31  1  0  0  0
 14 15  2  0  0  0
 14 98  1  0  0  0
 15 99  1  0  0  0
 16 17  2  0  0  0
 16 21  1  0  0  0
 16 31  1  0  0  0
 17 18  1  0  0  0
 17100  1  0  0  0
 18 19  2  0  0  0
 18101  1  0  0  0
 19 20  1  0  0  0
 19 24  1  0  0  0
 20 21  2  0  0  0
 20102  1  0  0  0
 21 23  1  0  0  0
 22 28  1  0  0  0
 22 32  2  0  0  0
 26 27  1  0  0  0
 28103  1  0  0  0
 28104  1  0  0  0
 29105  1  0  0  0
 29106  1  0  0  0
 33 34  1  0  0  0
 33 66  1  0  0  0
 33 70  2  0  0  0
 34 36  1  0  0  0
 34 59  1  0  0  0
 34107  1  0  0  0
 35 44  2  0  0  0
 35 45  1  0  0  0
 35 68  1  0  0  0
 36 56  1  0  0  0
 36108  1  0  0  0
 37 39  1  0  0  0
 37 47  1  0  0  0
 37 66  1  0  0  0
 37109  1  0  0  0
 38 43  2  0  0  0
 38 46  1  0  0  0
 38 47  1  0  0  0
 39 64  1  0  0  0
 39 67  2  0  0  0
 40 52  1  0  0  0
 40 53  2  0  0  0
 40 58  1  0  0  0
 41110  1  0  0  0
 41111  1  0  0  0
 41112  1  0  0  0
 41 48  1  0  0  0
 42 43  1  0  0  0
 42 66  1  0  0  0
 42113  1  0  0  0
 42114  1  0  0  0
 43 44  1  0  0  0
 44115  1  0  0  0
 45 46  2  0  0  0
 45116  1  0  0  0
 46117  1  0  0  0
 47118  1  0  0  0
 47119  1  0  0  0
 48 56  1  0  0  0
 48 65  1  0  0  0
 48120  1  0  0  0
 49 50  1  0  0  0
 49 53  1  0  0  0
 49 64  1  0  0  0
 49121  1  0  0  0
 50 51  1  0  0  0
 50122  1  0  0  0
 50123  1  0  0  0
 51 52  1  0  0  0
 51124  1  0  0  0
 51125  1  0  0  0
 52126  1  0  0  0
 52127  1  0  0  0
 53 54  1  0  0  0
 54 55  2  0  0  0
 54128  1  0  0  0
 55 57  1  0  0  0
 55129  1  0  0  0
 56 69  2  0  0  0
 57 58  2  0  0  0
 57130  1  0  0  0
 58131  1  0  0  0
 59 60  1  0  0  0
 59 61  1  0  0  0
 59 62  1  0  0  0
 60132  1  0  0  0
 60133  1  0  0  0
 60134  1  0  0  0
 61135  1  0  0  0
 61136  1  0  0  0
 61137  1  0  0  0
 62138  1  0  0  0
 62139  1  0  0  0
 62140  1  0  0  0
 63 65  1  0  0  0
 63141  1  0  0  0
 63142  1  0  0  0
 63143  1  0  0  0
 64144  1  0  0  0
 65145  1  0  0  0
 68 83  1  0  0  0
 71 74  2  0  0  0
 71 75  1  0  0  0
 71146  1  0  0  0
 72 74  1  0  0  0
 72 76  2  0  0  0
 72147  1  0  0  0
 73 75  2  0  0  0
 73 76  1  0  0  0
 73148  1  0  0  0
 74 79  1  0  0  0
 75 80  1  0  0  0
 76 86  1  0  0  0
 77 84  1  0  0  0
 77149  1  0  0  0
 77150  1  0  0  0
 77151  1  0  0  0
 78152  1  0  0  0
 78153  1  0  0  0
 78154  1  0  0  0
 78 85  1  0  0  0
 79 84  1  0  0  0
 79155  1  0  0  0
 79156  1  0  0  0
 80 85  1  0  0  0
 80157  1  0  0  0
 80158  1  0  0  0
 81 82  1  0  0  0
 81 83  1  0  0  0
 81159  1  0  0  0
 81160  1  0  0  0
 82 85  1  0  0  0
 82161  1  0  0  0
 82162  1  0  0  0
 83163  1  0  0  0
 83164  1  0  0  0
 85165  1  0  0  0
M  CHG  1  85   1
M  ISO  4   1 100  68 101  83 101  84 100
M  END
> <chiral flag>
0

> <version>
0

> <s_m_source_file>
/data/baiqing/PycharmProjects/Reinvent-master-3.2/result/LINK_invent/BTK/process_docking_weight1_custom_product_contain_oxygen_bond_distance_aromatic_linkinvent_7_9_3/rearranged_h_0018.sdf

> <i_m_source_file_index>
39

> <r_mmod_Potential_Energy-OPLS-2005>
13466.783203125

> <r_mmod_Stretch_Energy-OPLS-2005>
6342.53173828125

> <r_mmod_Bend_Energy-OPLS-2005>
1341.37060546875

> <r_mmod_Torsional_Energy-OPLS-2005>
584.816589355469

> <r_mmod_Improper_Torsional_Energy-OPLS-2005>
46.2538795471191

> <r_mmod_Van_der_Waal_Energy-OPLS-2005>
1904.7255859375

> <r_mmod_Electrostatic_Energy-OPLS-2005>
-232.841812133789

> <r_mmod_Solvation_Energy-OPLS-2005>
-435.109954833984

> <b_mmod_Minimization_Converged-OPLS-2005>
0

> <r_mmod_RMS_Derivative-OPLS-2005>
9.6284294128418

$$$$
39
                    3D
 Structure written by MMmdl.
143151  0  0  1  0            999 V2000
  -30.1150  -16.1801   20.2843 C   0  0  0  0  0  0
  -30.3682  -13.4912   19.5508 C   0  0  0  0  0  0
  -29.5649  -12.8134   18.3851 C   0  0  0  0  0  0
  -28.1881  -12.3359   18.8533 C   0  0  0  0  0  0
  -27.5798  -13.3727   19.8148 C   0  0  2  0  0  0
  -28.5519  -13.9347   20.8991 C   0  0  0  0  0  0
  -25.2230  -13.8390   20.5891 C   0  0  0  0  0  0
  -24.1679  -13.0452   20.9323 C   0  0  0  0  0  0
  -24.6469  -11.6990   20.8756 C   0  0  0  0  0  0
  -23.9182  -10.4307   21.0369 C   0  0  0  0  0  0
  -24.3694   -9.4217   21.9164 C   0  0  0  0  0  0
  -23.6339   -8.2265   22.0748 C   0  0  0  0  0  0
  -22.4316   -8.0304   21.3543 C   0  0  0  0  0  0
  -21.9975   -9.0282   20.4638 C   0  0  0  0  0  0
  -22.7335  -10.2146   20.3033 C   0  0  0  0  0  0
  -21.6869   -6.0751   22.5278 C   0  0  0  0  0  0
  -21.4026   -6.5649   23.8213 C   0  0  0  0  0  0
  -21.3663   -5.6797   24.9172 C   0  0  0  0  0  0
  -21.6044   -4.3060   24.7221 C   0  0  0  0  0  0
  -21.8818   -3.8155   23.4340 C   0  0  0  0  0  0
  -21.9198   -4.6976   22.3399 C   0  0  0  0  0  0
  -22.7675  -13.5129   21.1935 C   0  0  0  0  0  0
  -22.1663   -4.2160   21.0976 F   0  0  0  0  0  0
  -21.5625   -3.4541   25.7731 F   0  0  0  0  0  0
  -29.6376  -14.7221   20.2139 N   0  0  0  0  0  0
  -26.2761  -12.9850   20.3359 N   0  0  0  0  0  0
  -25.9446  -11.6844   20.5687 N   0  0  0  0  0  0
  -22.0359  -12.8088   22.0485 N   0  0  0  0  0  0
  -25.3740  -15.2143   20.4344 N   0  0  0  0  0  0
  -31.3522  -15.9919   20.1371 O   0  0  0  0  0  0
  -21.6663   -6.8907   21.4246 O   0  0  0  0  0  0
  -22.3330  -14.5419   20.6769 O   0  0  0  0  0  0
  -24.7190  -31.7547   23.1199 C   0  0  0  0  0  0
  -25.9591  -32.4244   23.7884 C   0  0  1  0  0  0
  -27.2453  -26.3241   20.2451 C   0  0  0  0  0  0
  -25.6014  -33.8091   24.1730 N   0  0  0  0  0  0
  -23.5629  -30.3385   21.4820 C   0  0  2  0  0  0
  -25.0259  -28.6005   20.1240 C   0  0  0  0  0  0
  -22.7926  -29.4068   22.4602 C   0  0  0  0  0  0
  -18.0362  -28.1441   22.8434 C   0  0  0  0  0  0
  -24.1497  -36.7057   23.2664 C   0  0  0  0  0  0
  -26.1565  -30.3606   21.4435 C   0  0  0  0  0  0
  -26.2174  -28.8836   20.7995 C   0  0  0  0  0  0
  -27.2885  -27.7843   20.8217 C   0  0  0  0  0  0
  -26.0224  -26.3507   19.4953 C   0  0  0  0  0  0
  -24.9906  -27.3643   19.4464 C   0  0  0  0  0  0
  -23.8381  -29.6002   20.1331 C   0  0  0  0  0  0
  -25.4162  -36.2765   24.0254 C   0  0  1  0  0  0
  -20.6014  -28.3814   23.1073 C   0  0  2  0  0  0
  -20.6806  -26.9438   22.5411 C   0  0  0  0  0  0
  -19.5790  -26.6356   21.5220 C   0  0  0  0  0  0
  -18.1972  -26.7960   22.1611 C   0  0  0  0  0  0
  -19.1638  -28.8960   23.2723 C   0  0  0  0  0  0
  -18.9538  -30.1535   23.8783 C   0  0  0  0  0  0
  -17.6523  -30.6613   24.0541 C   0  0  0  0  0  0
  -25.9164  -34.9165   23.4859 C   0  0  0  0  0  0
  -16.5409  -29.9088   23.6362 C   0  0  0  0  0  0
  -16.7340  -28.6514   23.0373 C   0  0  0  0  0  0
  -26.4652  -31.6446   25.0666 C   0  0  0  0  0  0
  -25.3621  -31.3869   26.1212 C   0  0  0  0  0  0
  -27.0647  -30.2744   24.6845 C   0  0  0  0  0  0
  -27.6027  -32.4400   25.7502 C   0  0  0  0  0  0
  -27.5550  -37.1685   24.8468 C   0  0  0  0  0  0
  -21.4540  -29.2982   22.3347 N   0  0  0  0  0  0
  -26.4256  -37.3567   23.9405 N   0  0  0  0  0  0
  -24.8407  -30.8609   22.0666 N   0  0  0  0  0  0
  -23.4192  -28.7733   23.3123 O   0  0  0  0  0  0
  -28.1524  -24.9320   20.3654 O   0  0  0  0  0  0
  -26.5860  -34.8818   22.4514 O   0  0  0  0  0  0
  -23.6131  -32.0800   23.5912 O   0  0  0  0  0  0
  -29.7093  -19.2779   20.0411 C   0  0  0  0  0  0
  -27.7985  -19.8113   21.1331 C   0  0  0  0  0  0
  -28.0759  -18.1749   20.8621 C   0  0  0  0  0  0
  -28.6374  -20.8651   20.2764 C   0  0  1  0  0  0
  -28.2051  -23.0067   20.0013 C   0  0  0  0  0  0
  -29.4229  -17.7278   20.3178 N   0  0  0  0  0  0
  -30.8262  -19.5312   19.5809 O   0  0  0  0  0  0
  -31.3195  -13.8125   19.1260 H   0  0  0  0  0  0
  -30.6533  -12.7495   20.2995 H   0  0  0  0  0  0
  -30.1296  -11.9817   17.9615 H   0  0  0  0  0  0
  -29.4378  -13.5387   17.5802 H   0  0  0  0  0  0
  -28.3130  -11.3868   19.3763 H   0  0  0  0  0  0
  -27.5296  -12.1443   18.0050 H   0  0  0  0  0  0
  -27.3717  -14.2186   19.1575 H   0  0  0  0  0  0
  -28.9275  -13.1501   21.5581 H   0  0  0  0  0  0
  -28.0136  -14.6267   21.5480 H   0  0  0  0  0  0
  -25.2830   -9.5686   22.4755 H   0  0  0  0  0  0
  -24.0031   -7.4660   22.7482 H   0  0  0  0  0  0
  -21.0902   -8.8818   19.8946 H   0  0  0  0  0  0
  -22.3794  -10.9686   19.6143 H   0  0  0  0  0  0
  -21.2024   -7.6158   23.9720 H   0  0  0  0  0  0
  -21.1483   -6.0525   25.9075 H   0  0  0  0  0  0
  -22.0593   -2.7617   23.2837 H   0  0  0  0  0  0
  -22.4027  -11.9779   22.4886 H   0  0  0  0  0  0
  -21.0953  -13.1050   22.2673 H   0  0  0  0  0  0
  -24.6001  -15.8594   20.5495 H   0  0  0  0  0  0
  -26.2219  -15.6619   20.1129 H   0  0  0  0  0  0
  -26.7713  -32.4629   23.0620 H   0  0  0  0  0  0
  -25.0009  -33.9064   24.9784 H   0  0  0  0  0  0
  -22.9101  -31.1852   21.2594 H   0  0  0  0  0  0
  -23.3785  -35.9359   23.3248 H   0  0  0  0  0  0
  -24.3549  -36.8822   22.2094 H   0  0  0  0  0  0
  -23.7238  -37.6191   23.6826 H   0  0  0  0  0  0
  -26.3990  -31.0593   20.6418 H   0  0  0  0  0  0
  -26.9934  -30.4412   22.1236 H   0  0  0  0  0  0
  -28.1703  -28.0191   21.4010 H   0  0  0  0  0  0
  -25.7948  -25.4415   18.9569 H   0  0  0  0  0  0
  -24.1040  -27.1320   18.8723 H   0  0  0  0  0  0
  -24.0420  -30.3446   19.3626 H   0  0  0  0  0  0
  -22.9358  -29.0842   19.8008 H   0  0  0  0  0  0
  -25.1393  -36.1472   25.0742 H   0  0  0  0  0  0
  -21.0082  -28.3469   24.1206 H   0  0  0  0  0  0
  -20.5635  -26.2447   23.3706 H   0  0  0  0  0  0
  -21.6663  -26.7319   22.1251 H   0  0  0  0  0  0
  -19.6939  -25.6237   21.1322 H   0  0  0  0  0  0
  -19.6750  -27.3107   20.6704 H   0  0  0  0  0  0
  -17.4244  -26.6708   21.4011 H   0  0  0  0  0  0
  -18.0345  -26.0130   22.9031 H   0  0  0  0  0  0
  -19.8015  -30.7378   24.2104 H   0  0  0  0  0  0
  -17.5073  -31.6281   24.5167 H   0  0  0  0  0  0
  -15.5405  -30.2955   23.7751 H   0  0  0  0  0  0
  -15.8741  -28.0795   22.7152 H   0  0  0  0  0  0
  -24.5857  -30.7169   25.7498 H   0  0  0  0  0  0
  -24.8760  -32.3122   26.4313 H   0  0  0  0  0  0
  -25.7712  -30.9241   27.0202 H   0  0  0  0  0  0
  -26.3433  -29.6235   24.1900 H   0  0  0  0  0  0
  -27.3983  -29.7352   25.5721 H   0  0  0  0  0  0
  -27.9446  -30.3785   24.0495 H   0  0  0  0  0  0
  -27.2521  -33.3821   26.1729 H   0  0  0  0  0  0
  -28.4011  -32.6770   25.0457 H   0  0  0  0  0  0
  -28.0505  -31.8773   26.5704 H   0  0  0  0  0  0
  -28.2519  -38.0021   24.7504 H   0  0  0  0  0  0
  -28.1092  -36.2537   24.6312 H   0  0  0  0  0  0
  -27.2260  -37.1331   25.8868 H   0  0  0  0  0  0
  -20.9934  -29.8577   21.6304 H   0  0  0  0  0  0
  -26.0049  -38.2599   24.1419 H   0  0  0  0  0  0
  -27.9959  -20.0203   22.1855 H   0  0  0  0  0  0
  -26.7339  -20.0088   21.0020 H   0  0  0  0  0  0
  -27.3298  -17.8206   20.1484 H   0  0  0  0  0  0
  -27.8746  -17.6204   21.7801 H   0  0  0  0  0  0
  -28.2148  -20.6970   19.2857 H   0  0  0  0  0  0
  -27.1486  -22.9120   19.7502 H   0  0  0  0  0  0
  -28.6934  -23.1126   19.0326 H   0  0  0  0  0  0
  1 25  1  0  0  0
  1 30  2  0  0  0
  1 76  1  0  0  0
  2  3  1  0  0  0
  2 25  1  0  0  0
  2 78  1  0  0  0
  2 79  1  0  0  0
  3  4  1  0  0  0
  3 80  1  0  0  0
  3 81  1  0  0  0
  4  5  1  0  0  0
  4 82  1  0  0  0
  4 83  1  0  0  0
  5  6  1  0  0  0
  5 26  1  0  0  0
  5 84  1  0  0  0
  6 25  1  0  0  0
  6 85  1  0  0  0
  6 86  1  0  0  0
  7  8  2  0  0  0
  7 26  1  0  0  0
  7 29  1  0  0  0
  8  9  1  0  0  0
  8 22  1  0  0  0
  9 10  1  0  0  0
  9 27  2  0  0  0
 10 11  2  0  0  0
 10 15  1  0  0  0
 11 12  1  0  0  0
 11 87  1  0  0  0
 12 13  2  0  0  0
 12 88  1  0  0  0
 13 14  1  0  0  0
 13 31  1  0  0  0
 14 15  2  0  0  0
 14 89  1  0  0  0
 15 90  1  0  0  0
 16 17  2  0  0  0
 16 21  1  0  0  0
 16 31  1  0  0  0
 17 18  1  0  0  0
 17 91  1  0  0  0
 18 19  2  0  0  0
 18 92  1  0  0  0
 19 20  1  0  0  0
 19 24  1  0  0  0
 20 21  2  0  0  0
 20 93  1  0  0  0
 21 23  1  0  0  0
 22 28  1  0  0  0
 22 32  2  0  0  0
 26 27  1  0  0  0
 28 94  1  0  0  0
 28 95  1  0  0  0
 29 96  1  0  0  0
 29 97  1  0  0  0
 33 34  1  0  0  0
 33 66  1  0  0  0
 33 70  2  0  0  0
 34 36  1  0  0  0
 34 59  1  0  0  0
 34 98  1  0  0  0
 35 44  2  0  0  0
 35 45  1  0  0  0
 35 68  1  0  0  0
 36 56  1  0  0  0
 36 99  1  0  0  0
 37 39  1  0  0  0
 37 47  1  0  0  0
 37 66  1  0  0  0
 37100  1  0  0  0
 38 43  2  0  0  0
 38 46  1  0  0  0
 38 47  1  0  0  0
 39 64  1  0  0  0
 39 67  2  0  0  0
 40 52  1  0  0  0
 40 53  2  0  0  0
 40 58  1  0  0  0
 41101  1  0  0  0
 41102  1  0  0  0
 41103  1  0  0  0
 41 48  1  0  0  0
 42 43  1  0  0  0
 42 66  1  0  0  0
 42104  1  0  0  0
 42105  1  0  0  0
 43 44  1  0  0  0
 44106  1  0  0  0
 45 46  2  0  0  0
 45107  1  0  0  0
 46108  1  0  0  0
 47109  1  0  0  0
 47110  1  0  0  0
 48 56  1  0  0  0
 48 65  1  0  0  0
 48111  1  0  0  0
 49 50  1  0  0  0
 49 53  1  0  0  0
 49 64  1  0  0  0
 49112  1  0  0  0
 50 51  1  0  0  0
 50113  1  0  0  0
 50114  1  0  0  0
 51 52  1  0  0  0
 51115  1  0  0  0
 51116  1  0  0  0
 52117  1  0  0  0
 52118  1  0  0  0
 53 54  1  0  0  0
 54 55  2  0  0  0
 54119  1  0  0  0
 55 57  1  0  0  0
 55120  1  0  0  0
 56 69  2  0  0  0
 57 58  2  0  0  0
 57121  1  0  0  0
 58122  1  0  0  0
 59 60  1  0  0  0
 59 61  1  0  0  0
 59 62  1  0  0  0
 60123  1  0  0  0
 60124  1  0  0  0
 60125  1  0  0  0
 61126  1  0  0  0
 61127  1  0  0  0
 61128  1  0  0  0
 62129  1  0  0  0
 62130  1  0  0  0
 62131  1  0  0  0
 63 65  1  0  0  0
 63132  1  0  0  0
 63133  1  0  0  0
 63134  1  0  0  0
 64135  1  0  0  0
 65136  1  0  0  0
 68 75  1  0  0  0
 71 74  1  0  0  0
 71 76  1  0  0  0
 71 77  2  0  0  0
 72 73  1  0  0  0
 72 74  1  0  0  0
 72137  1  0  0  0
 72138  1  0  0  0
 73 76  1  0  0  0
 73139  1  0  0  0
 73140  1  0  0  0
 74 75  1  0  0  0
 74141  1  0  0  0
 75142  1  0  0  0
 75143  1  0  0  0
M  ISO  4   1 100  68 101  75 101  76 100
M  END
> <chiral flag>
0

> <version>
0

> <s_m_source_file>
/data/baiqing/PycharmProjects/Reinvent-master-3.2/result/LINK_invent/BTK/process_docking_weight1_custom_product_contain_oxygen_bond_distance_aromatic_linkinvent_7_9_3/rearranged_h_0018.sdf

> <i_m_source_file_index>
40

> <r_mmod_Potential_Energy-OPLS-2005>
4931.34375

> <r_mmod_Stretch_Energy-OPLS-2005>
2028.87915039062

> <r_mmod_Bend_Energy-OPLS-2005>
1140.09350585938

> <r_mmod_Torsional_Energy-OPLS-2005>
267.510925292969

> <r_mmod_Improper_Torsional_Energy-OPLS-2005>
4.82612371444702

> <r_mmod_Van_der_Waal_Energy-OPLS-2005>
109.280746459961

> <r_mmod_Electrostatic_Energy-OPLS-2005>
-289.415100097656

> <r_mmod_Solvation_Energy-OPLS-2005>
-219.80158996582

> <b_mmod_Minimization_Converged-OPLS-2005>
0

> <r_mmod_RMS_Derivative-OPLS-2005>
0.243391200900078

$$$$
40
                    3D
 Structure written by MMmdl.
164172  0  0  1  0            999 V2000
  -30.6766  -14.7224   20.2352 C   0  0  0  0  0  0
  -30.4169  -12.4031   19.4414 C   0  0  0  0  0  0
  -29.4736  -12.3098   18.2269 C   0  0  0  0  0  0
  -27.9935  -12.2574   18.6566 C   0  0  0  0  0  0
  -27.6172  -13.1981   19.8355 C   0  0  2  0  0  0
  -28.6983  -13.2444   20.9265 C   0  0  0  0  0  0
  -25.2470  -13.8079   20.5876 C   0  0  0  0  0  0
  -24.1733  -13.0373   20.9306 C   0  0  0  0  0  0
  -24.6292  -11.6846   20.8862 C   0  0  0  0  0  0
  -23.8986  -10.4241   21.0458 C   0  0  0  0  0  0
  -24.3559   -9.4150   21.9210 C   0  0  0  0  0  0
  -23.6256   -8.2175   22.0742 C   0  0  0  0  0  0
  -22.4240   -8.0229   21.3518 C   0  0  0  0  0  0
  -21.9881   -9.0207   20.4625 C   0  0  0  0  0  0
  -22.7189  -10.2100   20.3068 C   0  0  0  0  0  0
  -21.6830   -6.0706   22.5266 C   0  0  0  0  0  0
  -21.3979   -6.5606   23.8197 C   0  0  0  0  0  0
  -21.3654   -5.6762   24.9166 C   0  0  0  0  0  0
  -21.6063   -4.3032   24.7223 C   0  0  0  0  0  0
  -21.8829   -3.8119   23.4338 C   0  0  0  0  0  0
  -21.9186   -4.6933   22.3393 C   0  0  0  0  0  0
  -22.7754  -13.5177   21.1898 C   0  0  0  0  0  0
  -22.1664   -4.2122   21.0973 F   0  0  0  0  0  0
  -21.5660   -3.4516   25.7737 F   0  0  0  0  0  0
  -29.9725  -13.5427   20.2603 N   0  0  0  0  0  0
  -26.2858  -12.9220   20.3500 N   0  0  0  0  0  0
  -25.9221  -11.6410   20.5990 N   0  0  0  0  0  0
  -22.0385  -12.8191   22.0443 N   0  0  0  0  0  0
  -25.4228  -15.1807   20.4304 N   0  0  0  0  0  0
  -31.8837  -14.6397   20.4556 O   0  0  0  0  0  0
  -21.6604   -6.8835   21.4221 O   0  0  0  0  0  0
  -22.3486  -14.5479   20.6702 O   0  0  0  0  0  0
  -24.6224  -31.8623   23.2017 C   0  0  0  0  0  0
  -25.9087  -32.4777   23.8329 C   0  0  1  0  0  0
  -27.2004  -27.3380   20.1064 C   0  0  0  0  0  0
  -25.5883  -33.8571   24.2266 N   0  0  0  0  0  0
  -23.4089  -30.4859   21.5504 C   0  0  2  0  0  0
  -24.8461  -28.9366   20.1151 C   0  0  0  0  0  0
  -22.7432  -29.4619   22.4998 C   0  0  0  0  0  0
  -18.0251  -28.1338   22.8484 C   0  0  0  0  0  0
  -24.1465  -36.7294   23.2644 C   0  0  0  0  0  0
  -25.9470  -30.8020   21.3583 C   0  0  0  0  0  0
  -26.0187  -29.4296   20.7028 C   0  0  0  0  0  0
  -27.2062  -28.6455   20.6742 C   0  0  0  0  0  0
  -26.0085  -26.8800   19.5110 C   0  0  0  0  0  0
  -24.8401  -27.6681   19.5115 C   0  0  0  0  0  0
  -23.6131  -29.8168   20.1671 C   0  0  0  0  0  0
  -25.4094  -36.3069   24.0323 C   0  0  1  0  0  0
  -20.5855  -28.3632   23.1286 C   0  0  2  0  0  0
  -20.6728  -26.9359   22.5404 C   0  0  0  0  0  0
  -19.5711  -26.6344   21.5189 C   0  0  0  0  0  0
  -18.1894  -26.7882   22.1611 C   0  0  0  0  0  0
  -19.1512  -28.8804   23.2867 C   0  0  0  0  0  0
  -18.9450  -30.1410   23.8880 C   0  0  0  0  0  0
  -17.6466  -30.6570   24.0529 C   0  0  0  0  0  0
  -25.9044  -34.9447   23.5114 C   0  0  0  0  0  0
  -16.5345  -29.9074   23.6324 C   0  0  0  0  0  0
  -16.7242  -28.6469   23.0388 C   0  0  0  0  0  0
  -26.4463  -31.6576   25.0698 C   0  0  0  0  0  0
  -25.3666  -31.3722   26.1403 C   0  0  0  0  0  0
  -27.0326  -30.3000   24.6153 C   0  0  0  0  0  0
  -27.6008  -32.4324   25.7483 C   0  0  0  0  0  0
  -27.5562  -37.1788   24.8470 C   0  0  0  0  0  0
  -21.4160  -29.2995   22.3711 N   0  0  0  0  0  0
  -26.4267  -37.3777   23.9414 N   0  0  0  0  0  0
  -24.6794  -31.0653   22.0953 N   0  0  0  0  0  0
  -23.4182  -28.8178   23.3067 O   0  0  0  0  0  0
  -28.3268  -26.5213   20.0826 O   0  0  0  0  0  0
  -26.5666  -34.8923   22.4712 O   0  0  0  0  0  0
  -23.5399  -32.1420   23.7371 O   0  0  0  0  0  0
  -28.2595  -17.6921   19.9746 C   0  0  0  0  0  0
  -27.7857  -19.0208   20.1625 C   0  0  0  0  0  0
  -30.4440  -18.3874   20.6666 C   0  0  0  0  0  0
  -29.6283  -17.3428   20.1364 C   0  0  0  0  0  0
  -28.6407  -20.0896   20.5472 C   0  0  0  0  0  0
  -29.9778  -19.7221   20.8520 C   0  0  0  0  0  0
  -28.6560  -22.5519   20.0134 C   0  0  0  0  0  0
  -26.8681  -20.8045   22.7683 C   0  0  0  0  0  0
  -31.5670  -16.5845   18.7373 C   0  0  0  0  0  0
  -29.4246  -15.8022   18.1201 C   0  0  0  0  0  0
  -27.8681  -23.9083   19.7837 C   0  0  0  0  0  0
  -26.8758  -21.6237   21.4589 C   0  0  0  0  0  0
  -28.2327  -25.1707   20.6684 C   0  0  0  0  0  0
  -30.2489  -16.0696   19.4123 C   0  0  0  0  0  0
  -28.1163  -21.4588   20.6715 N   0  0  0  0  0  0
  -29.7752  -22.4924   19.4940 O   0  0  0  0  0  0
  -30.8459  -20.6492   21.3251 F   0  0  0  0  0  0
  -31.4492  -12.5128   19.1018 H   0  0  0  0  0  0
  -30.3860  -11.4818   20.0252 H   0  0  0  0  0  0
  -29.7100  -11.4012   17.6694 H   0  0  0  0  0  0
  -29.6399  -13.1067   17.5173 H   0  0  0  0  0  0
  -27.8030  -11.2252   18.9507 H   0  0  0  0  0  0
  -27.3416  -12.4447   17.8025 H   0  0  0  0  0  0
  -27.5406  -14.1904   19.4318 H   0  0  0  0  0  0
  -28.7530  -12.2939   21.4602 H   0  0  0  0  0  0
  -28.4666  -14.0102   21.6685 H   0  0  0  0  0  0
  -25.2707   -9.5634   22.4797 H   0  0  0  0  0  0
  -23.9972   -7.4552   22.7436 H   0  0  0  0  0  0
  -21.0830   -8.8720   19.8909 H   0  0  0  0  0  0
  -22.3653  -10.9650   19.6184 H   0  0  0  0  0  0
  -21.1932   -7.6110   23.9696 H   0  0  0  0  0  0
  -21.1490   -6.0487   25.9071 H   0  0  0  0  0  0
  -22.0622   -2.7579   23.2840 H   0  0  0  0  0  0
  -22.3998  -11.9852   22.4853 H   0  0  0  0  0  0
  -21.0984  -13.1195   22.2609 H   0  0  0  0  0  0
  -24.6670  -15.8445   20.5556 H   0  0  0  0  0  0
  -26.3018  -15.6151   20.1881 H   0  0  0  0  0  0
  -26.7157  -32.5440   23.1081 H   0  0  0  0  0  0
  -24.9838  -33.9690   25.0270 H   0  0  0  0  0  0
  -22.6969  -31.3034   21.4142 H   0  0  0  0  0  0
  -23.3707  -35.9648   23.3340 H   0  0  0  0  0  0
  -24.3518  -36.8917   22.2050 H   0  0  0  0  0  0
  -23.7255  -37.6510   23.6673 H   0  0  0  0  0  0
  -26.0667  -31.5659   20.5880 H   0  0  0  0  0  0
  -26.8328  -30.8552   21.9804 H   0  0  0  0  0  0
  -28.1207  -29.0327   21.1007 H   0  0  0  0  0  0
  -25.9770  -25.9088   19.0384 H   0  0  0  0  0  0
  -23.9357  -27.2935   19.0508 H   0  0  0  0  0  0
  -23.7169  -30.5922   19.4072 H   0  0  0  0  0  0
  -22.7308  -29.2422   19.8752 H   0  0  0  0  0  0
  -25.1269  -36.1911   25.0812 H   0  0  0  0  0  0
  -20.9915  -28.3206   24.1422 H   0  0  0  0  0  0
  -20.5593  -26.2254   23.3609 H   0  0  0  0  0  0
  -21.6603  -26.7364   22.1229 H   0  0  0  0  0  0
  -19.6872  -25.6256   21.1228 H   0  0  0  0  0  0
  -19.6646  -27.3140   20.6710 H   0  0  0  0  0  0
  -17.4158  -26.6604   21.4026 H   0  0  0  0  0  0
  -18.0298  -26.0010   22.8994 H   0  0  0  0  0  0
  -19.7940  -30.7183   24.2278 H   0  0  0  0  0  0
  -17.5044  -31.6257   24.5109 H   0  0  0  0  0  0
  -15.5359  -30.2988   23.7654 H   0  0  0  0  0  0
  -15.8623  -28.0764   22.7190 H   0  0  0  0  0  0
  -24.5824  -30.7113   25.7705 H   0  0  0  0  0  0
  -24.8851  -32.2891   26.4804 H   0  0  0  0  0  0
  -25.7926  -30.8880   27.0200 H   0  0  0  0  0  0
  -26.2918  -29.6735   24.1175 H   0  0  0  0  0  0
  -27.4039  -29.7260   25.4657 H   0  0  0  0  0  0
  -27.8766  -30.4297   23.9374 H   0  0  0  0  0  0
  -27.2600  -33.3629   26.2037 H   0  0  0  0  0  0
  -28.3814  -32.6903   25.0314 H   0  0  0  0  0  0
  -28.0678  -31.8469   26.5410 H   0  0  0  0  0  0
  -28.2594  -38.0077   24.7500 H   0  0  0  0  0  0
  -28.1049  -36.2602   24.6314 H   0  0  0  0  0  0
  -27.2268  -37.1465   25.8876 H   0  0  0  0  0  0
  -20.9352  -29.8692   21.6894 H   0  0  0  0  0  0
  -26.0148  -38.2850   24.1432 H   0  0  0  0  0  0
  -27.5550  -16.9685   19.5959 H   0  0  0  0  0  0
  -26.7444  -19.2257   19.9583 H   0  0  0  0  0  0
  -31.4902  -18.2130   20.8561 H   0  0  0  0  0  0
  -26.0127  -21.0762   23.3874 H   0  0  0  0  0  0
  -27.7661  -20.9801   23.3614 H   0  0  0  0  0  0
  -26.7969  -19.7319   22.5861 H   0  0  0  0  0  0
  -31.3880  -17.4477   18.0927 H   0  0  0  0  0  0
  -32.0306  -15.8196   18.1125 H   0  0  0  0  0  0
  -32.3326  -16.8855   19.4507 H   0  0  0  0  0  0
  -29.3330  -16.7159   17.5312 H   0  0  0  0  0  0
  -28.4011  -15.4957   18.2548 H   0  0  0  0  0  0
  -29.9144  -15.1011   17.4547 H   0  0  0  0  0  0
  -26.7924  -23.7406   19.7889 H   0  0  0  0  0  0
  -28.0740  -24.1756   18.7475 H   0  0  0  0  0  0
  -26.7160  -22.6651   21.7423 H   0  0  0  0  0  0
  -26.0163  -21.3401   20.8510 H   0  0  0  0  0  0
  -29.2037  -24.9826   21.1265 H   0  0  0  0  0  0
  -27.5381  -25.2086   21.5075 H   0  0  0  0  0  0
  1 25  1  0  0  0
  1 30  2  0  0  0
  1 84  1  0  0  0
  2  3  1  0  0  0
  2 25  1  0  0  0
  2 88  1  0  0  0
  2 89  1  0  0  0
  3  4  1  0  0  0
  3 90  1  0  0  0
  3 91  1  0  0  0
  4  5  1  0  0  0
  4 92  1  0  0  0
  4 93  1  0  0  0
  5  6  1  0  0  0
  5 26  1  0  0  0
  5 94  1  0  0  0
  6 25  1  0  0  0
  6 95  1  0  0  0
  6 96  1  0  0  0
  7  8  2  0  0  0
  7 26  1  0  0  0
  7 29  1  0  0  0
  8  9  1  0  0  0
  8 22  1  0  0  0
  9 10  1  0  0  0
  9 27  2  0  0  0
 10 11  2  0  0  0
 10 15  1  0  0  0
 11 12  1  0  0  0
 11 97  1  0  0  0
 12 13  2  0  0  0
 12 98  1  0  0  0
 13 14  1  0  0  0
 13 31  1  0  0  0
 14 15  2  0  0  0
 14 99  1  0  0  0
 15100  1  0  0  0
 16 17  2  0  0  0
 16 21  1  0  0  0
 16 31  1  0  0  0
 17 18  1  0  0  0
 17101  1  0  0  0
 18 19  2  0  0  0
 18102  1  0  0  0
 19 20  1  0  0  0
 19 24  1  0  0  0
 20 21  2  0  0  0
 20103  1  0  0  0
 21 23  1  0  0  0
 22 28  1  0  0  0
 22 32  2  0  0  0
 26 27  1  0  0  0
 28104  1  0  0  0
 28105  1  0  0  0
 29106  1  0  0  0
 29107  1  0  0  0
 33 34  1  0  0  0
 33 66  1  0  0  0
 33 70  2  0  0  0
 34 36  1  0  0  0
 34 59  1  0  0  0
 34108  1  0  0  0
 35 44  2  0  0  0
 35 45  1  0  0  0
 35 68  1  0  0  0
 36 56  1  0  0  0
 36109  1  0  0  0
 37 39  1  0  0  0
 37 47  1  0  0  0
 37 66  1  0  0  0
 37110  1  0  0  0
 38 43  2  0  0  0
 38 46  1  0  0  0
 38 47  1  0  0  0
 39 64  1  0  0  0
 39 67  2  0  0  0
 40 52  1  0  0  0
 40 53  2  0  0  0
 40 58  1  0  0  0
 41111  1  0  0  0
 41112  1  0  0  0
 41113  1  0  0  0
 41 48  1  0  0  0
 42 43  1  0  0  0
 42 66  1  0  0  0
 42114  1  0  0  0
 42115  1  0  0  0
 43 44  1  0  0  0
 44116  1  0  0  0
 45 46  2  0  0  0
 45117  1  0  0  0
 46118  1  0  0  0
 47119  1  0  0  0
 47120  1  0  0  0
 48 56  1  0  0  0
 48 65  1  0  0  0
 48121  1  0  0  0
 49 50  1  0  0  0
 49 53  1  0  0  0
 49 64  1  0  0  0
 49122  1  0  0  0
 50 51  1  0  0  0
 50123  1  0  0  0
 50124  1  0  0  0
 51 52  1  0  0  0
 51125  1  0  0  0
 51126  1  0  0  0
 52127  1  0  0  0
 52128  1  0  0  0
 53 54  1  0  0  0
 54 55  2  0  0  0
 54129  1  0  0  0
 55 57  1  0  0  0
 55130  1  0  0  0
 56 69  2  0  0  0
 57 58  2  0  0  0
 57131  1  0  0  0
 58132  1  0  0  0
 59 60  1  0  0  0
 59 61  1  0  0  0
 59 62  1  0  0  0
 60133  1  0  0  0
 60134  1  0  0  0
 60135  1  0  0  0
 61136  1  0  0  0
 61137  1  0  0  0
 61138  1  0  0  0
 62139  1  0  0  0
 62140  1  0  0  0
 62141  1  0  0  0
 63 65  1  0  0  0
 63142  1  0  0  0
 63143  1  0  0  0
 63144  1  0  0  0
 64145  1  0  0  0
 65146  1  0  0  0
 68 83  1  0  0  0
 71 72  2  0  0  0
 71 74  1  0  0  0
 71147  1  0  0  0
 72 75  1  0  0  0
 72148  1  0  0  0
 73 74  2  0  0  0
 73 76  1  0  0  0
 73149  1  0  0  0
 74 84  1  0  0  0
 75 76  2  0  0  0
 75 85  1  0  0  0
 76 87  1  0  0  0
 77 81  1  0  0  0
 77 85  1  0  0  0
 77 86  2  0  0  0
 78 82  1  0  0  0
 78150  1  0  0  0
 78151  1  0  0  0
 78152  1  0  0  0
 79153  1  0  0  0
 79154  1  0  0  0
 79155  1  0  0  0
 79 84  1  0  0  0
 80 84  1  0  0  0
 80156  1  0  0  0
 80157  1  0  0  0
 80158  1  0  0  0
 81 83  1  0  0  0
 81159  1  0  0  0
 81160  1  0  0  0
 82 85  1  0  0  0
 82161  1  0  0  0
 82162  1  0  0  0
 83163  1  0  0  0
 83164  1  0  0  0
M  ISO  4   1 100  68 101  83 101  84 100
M  END
> <chiral flag>
0

> <version>
0

> <s_m_source_file>
/data/baiqing/PycharmProjects/Reinvent-master-3.2/result/LINK_invent/BTK/process_docking_weight1_custom_product_contain_oxygen_bond_distance_aromatic_linkinvent_7_9_3/rearranged_h_0018.sdf

> <i_m_source_file_index>
41

> <r_mmod_Potential_Energy-OPLS-2005>
435.218597412109

> <r_mmod_Stretch_Energy-OPLS-2005>
97.6059341430664

> <r_mmod_Bend_Energy-OPLS-2005>
187.602996826172

> <r_mmod_Torsional_Energy-OPLS-2005>
337.761383056641

> <r_mmod_Improper_Torsional_Energy-OPLS-2005>
20.6540718078613

> <r_mmod_Van_der_Waal_Energy-OPLS-2005>
174.56201171875

> <r_mmod_Electrostatic_Energy-OPLS-2005>
-285.434448242188

> <r_mmod_Solvation_Energy-OPLS-2005>
-202.353820800781

> <b_mmod_Minimization_Converged-OPLS-2005>
0

> <r_mmod_RMS_Derivative-OPLS-2005>
3.02920699119568

$$$$
41
                    3D
 Structure written by MMmdl.
158166  0  0  1  0            999 V2000
  -30.6211  -14.7321   20.5052 C   0  0  0  0  0  0
  -30.4365  -12.4631   19.4619 C   0  0  0  0  0  0
  -29.5084  -12.5190   18.2267 C   0  0  0  0  0  0
  -28.0322  -12.3460   18.6368 C   0  0  0  0  0  0
  -27.6447  -13.2263   19.8554 C   0  0  2  0  0  0
  -28.6897  -13.0979   20.9814 C   0  0  0  0  0  0
  -25.2511  -13.8175   20.5664 C   0  0  0  0  0  0
  -24.1795  -13.0424   20.9189 C   0  0  0  0  0  0
  -24.6388  -11.6905   20.8725 C   0  0  0  0  0  0
  -23.9068  -10.4284   21.0397 C   0  0  0  0  0  0
  -24.3627   -9.4207   21.9180 C   0  0  0  0  0  0
  -23.6306   -8.2238   22.0750 C   0  0  0  0  0  0
  -22.4287   -8.0265   21.3538 C   0  0  0  0  0  0
  -21.9917   -9.0241   20.4640 C   0  0  0  0  0  0
  -22.7241  -10.2125   20.3051 C   0  0  0  0  0  0
  -21.6858   -6.0743   22.5284 C   0  0  0  0  0  0
  -21.4010   -6.5643   23.8216 C   0  0  0  0  0  0
  -21.3661   -5.6791   24.9177 C   0  0  0  0  0  0
  -21.6058   -4.3055   24.7219 C   0  0  0  0  0  0
  -21.8821   -3.8147   23.4337 C   0  0  0  0  0  0
  -21.9189   -4.6972   22.3398 C   0  0  0  0  0  0
  -22.7825  -13.5209   21.1862 C   0  0  0  0  0  0
  -22.1660   -4.2164   21.0973 F   0  0  0  0  0  0
  -21.5639   -3.4529   25.7729 F   0  0  0  0  0  0
  -29.9876  -13.5045   20.4196 N   0  0  0  0  0  0
  -26.2945  -12.9386   20.3281 N   0  0  0  0  0  0
  -25.9316  -11.6535   20.5727 N   0  0  0  0  0  0
  -22.0467  -12.8210   22.0425 N   0  0  0  0  0  0
  -25.4162  -15.1889   20.4055 N   0  0  0  0  0  0
  -31.7728  -14.8354   20.0654 O   0  0  0  0  0  0
  -21.6638   -6.8876   21.4241 O   0  0  0  0  0  0
  -22.3510  -14.5514   20.6700 O   0  0  0  0  0  0
  -24.6288  -31.8540   23.1970 C   0  0  0  0  0  0
  -25.9136  -32.4725   23.8302 C   0  0  1  0  0  0
  -27.2341  -27.2773   20.1270 C   0  0  0  0  0  0
  -25.5951  -33.8529   24.2239 N   0  0  0  0  0  0
  -23.4259  -30.4726   21.5385 C   0  0  2  0  0  0
  -24.8759  -28.9171   20.1106 C   0  0  0  0  0  0
  -22.7502  -29.4583   22.4918 C   0  0  0  0  0  0
  -18.0294  -28.1384   22.8482 C   0  0  0  0  0  0
  -24.1506  -36.7270   23.2636 C   0  0  0  0  0  0
  -25.9673  -30.7702   21.3762 C   0  0  0  0  0  0
  -26.0419  -29.3931   20.7200 C   0  0  0  0  0  0
  -27.2180  -28.5836   20.7195 C   0  0  0  0  0  0
  -26.0413  -26.8555   19.4986 C   0  0  0  0  0  0
  -24.8799  -27.6564   19.4913 C   0  0  0  0  0  0
  -23.6454  -29.8010   20.1558 C   0  0  0  0  0  0
  -25.4132  -36.3047   24.0315 C   0  0  1  0  0  0
  -20.5895  -28.3699   23.1284 C   0  0  2  0  0  0
  -20.6797  -26.9422   22.5422 C   0  0  0  0  0  0
  -19.5767  -26.6385   21.5233 C   0  0  0  0  0  0
  -18.1940  -26.7925   22.1626 C   0  0  0  0  0  0
  -19.1541  -28.8861   23.2874 C   0  0  0  0  0  0
  -18.9463  -30.1462   23.8893 C   0  0  0  0  0  0
  -17.6459  -30.6585   24.0568 C   0  0  0  0  0  0
  -25.9069  -34.9415   23.5076 C   0  0  0  0  0  0
  -16.5355  -29.9086   23.6322 C   0  0  0  0  0  0
  -16.7280  -28.6505   23.0341 C   0  0  0  0  0  0
  -26.4535  -31.6537   25.0678 C   0  0  0  0  0  0
  -25.3762  -31.3683   26.1398 C   0  0  0  0  0  0
  -27.0397  -30.2949   24.6163 C   0  0  0  0  0  0
  -27.6079  -32.4284   25.7461 C   0  0  0  0  0  0
  -27.5578  -37.1793   24.8466 C   0  0  0  0  0  0
  -21.4208  -29.3032   22.3660 N   0  0  0  0  0  0
  -26.4302  -37.3745   23.9393 N   0  0  0  0  0  0
  -24.6917  -31.0528   22.0926 N   0  0  0  0  0  0
  -23.4206  -28.8142   23.3029 O   0  0  0  0  0  0
  -28.3739  -26.4498   20.2081 O   0  0  0  0  0  0
  -26.5632  -34.8897   22.4639 O   0  0  0  0  0  0
  -23.5446  -32.1364   23.7275 O   0  0  0  0  0  0
  -27.0265  -19.5010   20.6972 C   0  0  0  0  0  0
  -27.8883  -18.3900   20.5894 C   0  0  0  0  0  0
  -27.4948  -20.8266   20.5763 C   0  0  0  0  0  0
  -29.7235  -19.9363   20.2477 C   0  0  0  0  0  0
  -29.2723  -18.5590   20.3855 C   0  0  0  0  0  0
  -28.8578  -21.1135   20.3342 C   0  0  0  0  0  0
  -30.7263  -22.6735   20.0429 C   0  0  0  0  0  0
  -29.3357  -16.0020   22.1722 C   0  0  0  0  0  0
  -30.2214  -17.2776   20.2412 C   0  0  0  0  0  0
  -28.5217  -23.7497   20.6122 C   0  0  0  0  0  0
  -28.4888  -25.0610   19.6597 C   0  0  0  0  0  0
  -29.2777  -22.5019   20.1587 N   0  0  0  0  0  0
  -29.8965  -15.8902   20.8204 N   0  0  0  0  0  0
  -31.4740  -12.5995   19.1527 H   0  0  0  0  0  0
  -30.4041  -11.4776   19.9285 H   0  0  0  0  0  0
  -29.7925  -11.7450   17.5134 H   0  0  0  0  0  0
  -29.6374  -13.4699   17.7057 H   0  0  0  0  0  0
  -27.8786  -11.2930   18.8782 H   0  0  0  0  0  0
  -27.3775  -12.5621   17.7920 H   0  0  0  0  0  0
  -27.6536  -14.2597   19.5070 H   0  0  0  0  0  0
  -28.7353  -12.0663   21.3338 H   0  0  0  0  0  0
  -28.4013  -13.6743   21.8548 H   0  0  0  0  0  0
  -25.2777   -9.5695   22.4748 H   0  0  0  0  0  0
  -24.0027   -7.4627   22.7467 H   0  0  0  0  0  0
  -21.0851   -8.8756   19.8936 H   0  0  0  0  0  0
  -22.3698  -10.9665   19.6155 H   0  0  0  0  0  0
  -21.1997   -7.6145   23.9733 H   0  0  0  0  0  0
  -21.1493   -6.0509   25.9088 H   0  0  0  0  0  0
  -22.0600   -2.7606   23.2822 H   0  0  0  0  0  0
  -22.4096  -11.9896   22.4852 H   0  0  0  0  0  0
  -21.1076  -13.1227   22.2596 H   0  0  0  0  0  0
  -24.6424  -15.8361   20.5064 H   0  0  0  0  0  0
  -26.2634  -15.6274   20.0712 H   0  0  0  0  0  0
  -26.7183  -32.5396   23.1022 H   0  0  0  0  0  0
  -25.0134  -33.9665   25.0412 H   0  0  0  0  0  0
  -22.7200  -31.2922   21.3899 H   0  0  0  0  0  0
  -23.3758  -35.9615   23.3315 H   0  0  0  0  0  0
  -24.3592  -36.8878   22.2049 H   0  0  0  0  0  0
  -23.7295  -37.6481   23.6664 H   0  0  0  0  0  0
  -26.1108  -31.5324   20.6088 H   0  0  0  0  0  0
  -26.8408  -30.8153   22.0143 H   0  0  0  0  0  0
  -28.1106  -28.9462   21.2097 H   0  0  0  0  0  0
  -25.9702  -25.8873   19.0290 H   0  0  0  0  0  0
  -23.9843  -27.2843   19.0125 H   0  0  0  0  0  0
  -23.7695  -30.5731   19.3953 H   0  0  0  0  0  0
  -22.7668  -29.2276   19.8544 H   0  0  0  0  0  0
  -25.1330  -36.1872   25.0809 H   0  0  0  0  0  0
  -20.9976  -28.3290   24.1413 H   0  0  0  0  0  0
  -20.5746  -26.2314   23.3630 H   0  0  0  0  0  0
  -21.6662  -26.7482   22.1191 H   0  0  0  0  0  0
  -19.6945  -25.6304   21.1250 H   0  0  0  0  0  0
  -19.6698  -27.3211   20.6777 H   0  0  0  0  0  0
  -17.4231  -26.6687   21.4009 H   0  0  0  0  0  0
  -18.0313  -26.0065   22.9013 H   0  0  0  0  0  0
  -19.7940  -30.7277   24.2263 H   0  0  0  0  0  0
  -17.5016  -31.6259   24.5179 H   0  0  0  0  0  0
  -15.5356  -30.2987   23.7647 H   0  0  0  0  0  0
  -15.8684  -28.0829   22.7045 H   0  0  0  0  0  0
  -24.5947  -30.7025   25.7718 H   0  0  0  0  0  0
  -24.8957  -32.2857   26.4799 H   0  0  0  0  0  0
  -25.8080  -30.8866   27.0179 H   0  0  0  0  0  0
  -26.2974  -29.6651   24.1238 H   0  0  0  0  0  0
  -27.4147  -29.7246   25.4674 H   0  0  0  0  0  0
  -27.8827  -30.4222   23.9365 H   0  0  0  0  0  0
  -27.2672  -33.3587   26.2019 H   0  0  0  0  0  0
  -28.3901  -32.6827   25.0297 H   0  0  0  0  0  0
  -28.0734  -31.8420   26.5391 H   0  0  0  0  0  0
  -28.2600  -38.0080   24.7482 H   0  0  0  0  0  0
  -28.1066  -36.2607   24.6340 H   0  0  0  0  0  0
  -27.2282  -37.1493   25.8864 H   0  0  0  0  0  0
  -20.9414  -29.8722   21.6822 H   0  0  0  0  0  0
  -26.0170  -38.2815   24.1371 H   0  0  0  0  0  0
  -25.9712  -19.3334   20.8614 H   0  0  0  0  0  0
  -27.4664  -17.3989   20.6556 H   0  0  0  0  0  0
  -26.7590  -21.6120   20.6461 H   0  0  0  0  0  0
  -30.7768  -20.0724   20.0499 H   0  0  0  0  0  0
  -31.1338  -22.1069   19.2049 H   0  0  0  0  0  0
  -31.2258  -22.3442   20.9561 H   0  0  0  0  0  0
  -31.0075  -23.7153   19.8886 H   0  0  0  0  0  0
  -29.7517  -15.2613   22.8592 H   0  0  0  0  0  0
  -28.2525  -15.8851   22.1560 H   0  0  0  0  0  0
  -29.5506  -16.9748   22.6136 H   0  0  0  0  0  0
  -31.1941  -17.5614   20.6442 H   0  0  0  0  0  0
  -30.3865  -17.1428   19.1704 H   0  0  0  0  0  0
  -27.4992  -23.5197   20.9045 H   0  0  0  0  0  0
  -29.0015  -24.0447   21.5465 H   0  0  0  0  0  0
  -27.7976  -24.8871   18.8378 H   0  0  0  0  0  0
  -29.4524  -25.1020   19.1545 H   0  0  0  0  0  0
  1 25  1  0  0  0
  1 30  2  0  0  0
  1 83  1  0  0  0
  2  3  1  0  0  0
  2 25  1  0  0  0
  2 84  1  0  0  0
  2 85  1  0  0  0
  3  4  1  0  0  0
  3 86  1  0  0  0
  3 87  1  0  0  0
  4  5  1  0  0  0
  4 88  1  0  0  0
  4 89  1  0  0  0
  5  6  1  0  0  0
  5 26  1  0  0  0
  5 90  1  0  0  0
  6 25  1  0  0  0
  6 91  1  0  0  0
  6 92  1  0  0  0
  7  8  2  0  0  0
  7 26  1  0  0  0
  7 29  1  0  0  0
  8  9  1  0  0  0
  8 22  1  0  0  0
  9 10  1  0  0  0
  9 27  2  0  0  0
 10 11  2  0  0  0
 10 15  1  0  0  0
 11 12  1  0  0  0
 11 93  1  0  0  0
 12 13  2  0  0  0
 12 94  1  0  0  0
 13 14  1  0  0  0
 13 31  1  0  0  0
 14 15  2  0  0  0
 14 95  1  0  0  0
 15 96  1  0  0  0
 16 17  2  0  0  0
 16 21  1  0  0  0
 16 31  1  0  0  0
 17 18  1  0  0  0
 17 97  1  0  0  0
 18 19  2  0  0  0
 18 98  1  0  0  0
 19 20  1  0  0  0
 19 24  1  0  0  0
 20 21  2  0  0  0
 20 99  1  0  0  0
 21 23  1  0  0  0
 22 28  1  0  0  0
 22 32  2  0  0  0
 26 27  1  0  0  0
 28100  1  0  0  0
 28101  1  0  0  0
 29102  1  0  0  0
 29103  1  0  0  0
 33 34  1  0  0  0
 33 66  1  0  0  0
 33 70  2  0  0  0
 34 36  1  0  0  0
 34 59  1  0  0  0
 34104  1  0  0  0
 35 44  2  0  0  0
 35 45  1  0  0  0
 35 68  1  0  0  0
 36 56  1  0  0  0
 36105  1  0  0  0
 37 39  1  0  0  0
 37 47  1  0  0  0
 37 66  1  0  0  0
 37106  1  0  0  0
 38 43  2  0  0  0
 38 46  1  0  0  0
 38 47  1  0  0  0
 39 64  1  0  0  0
 39 67  2  0  0  0
 40 52  1  0  0  0
 40 53  2  0  0  0
 40 58  1  0  0  0
 41107  1  0  0  0
 41108  1  0  0  0
 41109  1  0  0  0
 41 48  1  0  0  0
 42 43  1  0  0  0
 42 66  1  0  0  0
 42110  1  0  0  0
 42111  1  0  0  0
 43 44  1  0  0  0
 44112  1  0  0  0
 45 46  2  0  0  0
 45113  1  0  0  0
 46114  1  0  0  0
 47115  1  0  0  0
 47116  1  0  0  0
 48 56  1  0  0  0
 48 65  1  0  0  0
 48117  1  0  0  0
 49 50  1  0  0  0
 49 53  1  0  0  0
 49 64  1  0  0  0
 49118  1  0  0  0
 50 51  1  0  0  0
 50119  1  0  0  0
 50120  1  0  0  0
 51 52  1  0  0  0
 51121  1  0  0  0
 51122  1  0  0  0
 52123  1  0  0  0
 52124  1  0  0  0
 53 54  1  0  0  0
 54 55  2  0  0  0
 54125  1  0  0  0
 55 57  1  0  0  0
 55126  1  0  0  0
 56 69  2  0  0  0
 57 58  2  0  0  0
 57127  1  0  0  0
 58128  1  0  0  0
 59 60  1  0  0  0
 59 61  1  0  0  0
 59 62  1  0  0  0
 60129  1  0  0  0
 60130  1  0  0  0
 60131  1  0  0  0
 61132  1  0  0  0
 61133  1  0  0  0
 61134  1  0  0  0
 62135  1  0  0  0
 62136  1  0  0  0
 62137  1  0  0  0
 63 65  1  0  0  0
 63138  1  0  0  0
 63139  1  0  0  0
 63140  1  0  0  0
 64141  1  0  0  0
 65142  1  0  0  0
 68 81  1  0  0  0
 71 72  2  0  0  0
 71 73  1  0  0  0
 71143  1  0  0  0
 72 75  1  0  0  0
 72144  1  0  0  0
 73 76  2  0  0  0
 73145  1  0  0  0
 74 75  2  0  0  0
 74 76  1  0  0  0
 74146  1  0  0  0
 75 79  1  0  0  0
 76 82  1  0  0  0
 77 82  1  0  0  0
 77147  1  0  0  0
 77148  1  0  0  0
 77149  1  0  0  0
 78 83  1  0  0  0
 78150  1  0  0  0
 78151  1  0  0  0
 78152  1  0  0  0
 79 83  1  0  0  0
 79153  1  0  0  0
 79154  1  0  0  0
 80 81  1  0  0  0
 80 82  1  0  0  0
 80155  1  0  0  0
 80156  1  0  0  0
 81157  1  0  0  0
 81158  1  0  0  0
M  ISO  4   1 100  68 101  81 101  83 100
M  END
> <chiral flag>
0

> <version>
0

> <s_m_source_file>
/data/baiqing/PycharmProjects/Reinvent-master-3.2/result/LINK_invent/BTK/process_docking_weight1_custom_product_contain_oxygen_bond_distance_aromatic_linkinvent_7_9_3/rearranged_h_0018.sdf

> <i_m_source_file_index>
42

> <r_mmod_Potential_Energy-OPLS-2005>
278.727081298828

> <r_mmod_Stretch_Energy-OPLS-2005>
129.624252319336

> <r_mmod_Bend_Energy-OPLS-2005>
194.03742980957

> <r_mmod_Torsional_Energy-OPLS-2005>
234.7236328125

> <r_mmod_Improper_Torsional_Energy-OPLS-2005>
10.5829162597656

> <r_mmod_Van_der_Waal_Energy-OPLS-2005>
151.486618041992

> <r_mmod_Electrostatic_Energy-OPLS-2005>
-297.901672363281

> <r_mmod_Solvation_Energy-OPLS-2005>
-214.885513305664

> <b_mmod_Minimization_Converged-OPLS-2005>
0

> <r_mmod_RMS_Derivative-OPLS-2005>
2.32754039764404

$$$$
42
                    3D
 Structure written by MMmdl.
158166  0  0  1  0            999 V2000
  -30.6978  -14.4572   20.5943 C   0  0  0  0  0  0
  -30.4262  -12.2984   19.4274 C   0  0  0  0  0  0
  -29.5041  -12.5156   18.2079 C   0  0  0  0  0  0
  -28.0182  -12.3913   18.6053 C   0  0  0  0  0  0
  -27.6695  -13.2071   19.8799 C   0  0  2  0  0  0
  -28.7063  -12.9628   21.0021 C   0  0  0  0  0  0
  -25.2633  -13.8168   20.5694 C   0  0  0  0  0  0
  -24.1859  -13.0434   20.9146 C   0  0  0  0  0  0
  -24.6394  -11.6911   20.8657 C   0  0  0  0  0  0
  -23.9025  -10.4309   21.0368 C   0  0  0  0  0  0
  -24.3580   -9.4231   21.9151 C   0  0  0  0  0  0
  -23.6290   -8.2246   22.0734 C   0  0  0  0  0  0
  -22.4271   -8.0281   21.3530 C   0  0  0  0  0  0
  -21.9873   -9.0241   20.4628 C   0  0  0  0  0  0
  -22.7183  -10.2138   20.3038 C   0  0  0  0  0  0
  -21.6852   -6.0729   22.5275 C   0  0  0  0  0  0
  -21.4008   -6.5631   23.8206 C   0  0  0  0  0  0
  -21.3658   -5.6768   24.9151 C   0  0  0  0  0  0
  -21.6070   -4.3038   24.7201 C   0  0  0  0  0  0
  -21.8824   -3.8141   23.4315 C   0  0  0  0  0  0
  -21.9191   -4.6955   22.3379 C   0  0  0  0  0  0
  -22.7889  -13.5269   21.1820 C   0  0  0  0  0  0
  -22.1669   -4.2141   21.0947 F   0  0  0  0  0  0
  -21.5632   -3.4513   25.7706 F   0  0  0  0  0  0
  -30.0452  -13.2696   20.4689 N   0  0  0  0  0  0
  -26.3058  -12.9335   20.3337 N   0  0  0  0  0  0
  -25.9334  -11.6489   20.5711 N   0  0  0  0  0  0
  -22.0506  -12.8304   22.0396 N   0  0  0  0  0  0
  -25.4392  -15.1882   20.4238 N   0  0  0  0  0  0
  -31.7892  -14.6830   20.0596 O   0  0  0  0  0  0
  -21.6634   -6.8887   21.4254 O   0  0  0  0  0  0
  -22.3597  -14.5585   20.6680 O   0  0  0  0  0  0
  -24.6117  -31.8681   23.2086 C   0  0  0  0  0  0
  -25.8993  -32.4836   23.8368 C   0  0  1  0  0  0
  -27.2388  -27.4413   20.0826 C   0  0  0  0  0  0
  -25.5824  -33.8636   24.2298 N   0  0  0  0  0  0
  -23.3989  -30.4888   21.5537 C   0  0  2  0  0  0
  -24.8444  -28.9596   20.1120 C   0  0  0  0  0  0
  -22.7372  -29.4615   22.5007 C   0  0  0  0  0  0
  -18.0240  -28.1366   22.8494 C   0  0  0  0  0  0
  -24.1459  -36.7313   23.2640 C   0  0  0  0  0  0
  -25.9269  -30.8333   21.3599 C   0  0  0  0  0  0
  -26.0049  -29.4699   20.7054 C   0  0  0  0  0  0
  -27.2024  -28.7192   20.6887 C   0  0  0  0  0  0
  -26.0587  -26.9508   19.4749 C   0  0  0  0  0  0
  -24.8675  -27.6989   19.4910 C   0  0  0  0  0  0
  -23.6030  -29.8202   20.1674 C   0  0  0  0  0  0
  -25.4089  -36.3140   24.0344 C   0  0  1  0  0  0
  -20.5833  -28.3611   23.1348 C   0  0  2  0  0  0
  -20.6706  -26.9334   22.5451 C   0  0  0  0  0  0
  -19.5704  -26.6355   21.5218 C   0  0  0  0  0  0
  -18.1879  -26.7921   22.1617 C   0  0  0  0  0  0
  -19.1497  -28.8813   23.2914 C   0  0  0  0  0  0
  -18.9433  -30.1426   23.8912 C   0  0  0  0  0  0
  -17.6438  -30.6578   24.0557 C   0  0  0  0  0  0
  -25.9010  -34.9495   23.5134 C   0  0  0  0  0  0
  -16.5323  -29.9081   23.6330 C   0  0  0  0  0  0
  -16.7225  -28.6495   23.0347 C   0  0  0  0  0  0
  -26.4407  -31.6605   25.0699 C   0  0  0  0  0  0
  -25.3654  -31.3721   26.1415 C   0  0  0  0  0  0
  -27.0168  -30.3028   24.6061 C   0  0  0  0  0  0
  -27.6012  -32.4295   25.7444 C   0  0  0  0  0  0
  -27.5573  -37.1807   24.8462 C   0  0  0  0  0  0
  -21.4103  -29.2990   22.3773 N   0  0  0  0  0  0
  -26.4276  -37.3813   23.9419 N   0  0  0  0  0  0
  -24.6657  -31.0760   22.1004 N   0  0  0  0  0  0
  -23.4160  -28.8154   23.3034 O   0  0  0  0  0  0
  -28.4235  -26.7259   20.1039 O   0  0  0  0  0  0
  -26.5595  -34.8949   22.4712 O   0  0  0  0  0  0
  -23.5319  -32.1394   23.7496 O   0  0  0  0  0  0
  -29.6666  -17.7702   21.9163 C   0  0  0  0  0  0
  -29.4081  -19.1206   21.5671 C   0  0  0  0  0  0
  -29.9594  -17.2197   19.5731 C   0  0  0  0  0  0
  -29.9260  -16.7977   20.9232 C   0  0  0  0  0  0
  -29.3770  -19.5297   20.2109 C   0  0  0  0  0  0
  -29.6928  -18.5590   19.2255 C   0  0  0  0  0  0
  -27.8328  -20.8764   18.8979 C   0  0  0  0  0  0
  -29.8240  -23.1688   19.6175 C   0  0  0  0  0  0
  -29.7153  -24.6310   20.1252 C   0  0  0  0  0  0
  -29.3004  -22.0538   20.5632 C   0  0  0  0  0  0
  -28.3854  -25.3312   19.7651 C   0  0  0  0  0  0
  -30.0502  -15.4165   21.2867 N   0  0  0  0  0  0
  -28.9740  -20.8335   19.8144 N   0  0  0  0  0  0
  -29.7316  -18.9068   17.9141 F   0  0  0  0  0  0
  -31.4718  -12.3995   19.1302 H   0  0  0  0  0  0
  -30.3270  -11.2817   19.8076 H   0  0  0  0  0  0
  -29.7434  -11.7938   17.4262 H   0  0  0  0  0  0
  -29.6897  -13.5002   17.7773 H   0  0  0  0  0  0
  -27.8049  -11.3371   18.7698 H   0  0  0  0  0  0
  -27.3792  -12.7047   17.7792 H   0  0  0  0  0  0
  -27.7220  -14.2606   19.6057 H   0  0  0  0  0  0
  -28.6736  -11.9232   21.3269 H   0  0  0  0  0  0
  -28.4611  -13.5443   21.8895 H   0  0  0  0  0  0
  -25.2746   -9.5690   22.4699 H   0  0  0  0  0  0
  -23.9981   -7.4642   22.7454 H   0  0  0  0  0  0
  -21.0787   -8.8751   19.8969 H   0  0  0  0  0  0
  -22.3621  -10.9661   19.6117 H   0  0  0  0  0  0
  -21.2001   -7.6140   23.9719 H   0  0  0  0  0  0
  -21.1491   -6.0480   25.9065 H   0  0  0  0  0  0
  -22.0620   -2.7611   23.2781 H   0  0  0  0  0  0
  -22.4074  -11.9952   22.4799 H   0  0  0  0  0  0
  -21.1160  -13.1424   22.2633 H   0  0  0  0  0  0
  -24.6841  -15.8488   20.5735 H   0  0  0  0  0  0
  -26.3178  -15.6377   20.1992 H   0  0  0  0  0  0
  -26.7069  -32.5529   23.1142 H   0  0  0  0  0  0
  -24.9914  -33.9773   25.0400 H   0  0  0  0  0  0
  -22.6866  -31.3056   21.4170 H   0  0  0  0  0  0
  -23.3738  -35.9621   23.3309 H   0  0  0  0  0  0
  -24.3563  -36.8913   22.2051 H   0  0  0  0  0  0
  -23.7168  -37.6511   23.6642 H   0  0  0  0  0  0
  -26.0310  -31.5984   20.5908 H   0  0  0  0  0  0
  -26.8185  -30.8923   21.9706 H   0  0  0  0  0  0
  -28.0980  -29.1158   21.1518 H   0  0  0  0  0  0
  -26.0394  -25.9966   18.9699 H   0  0  0  0  0  0
  -23.9804  -27.3042   19.0141 H   0  0  0  0  0  0
  -23.6931  -30.5931   19.4039 H   0  0  0  0  0  0
  -22.7321  -29.2289   19.8825 H   0  0  0  0  0  0
  -25.1275  -36.2019   25.0842 H   0  0  0  0  0  0
  -20.9918  -28.3161   24.1465 H   0  0  0  0  0  0
  -20.5526  -26.2214   23.3631 H   0  0  0  0  0  0
  -21.6595  -26.7306   22.1308 H   0  0  0  0  0  0
  -19.6836  -25.6267   21.1228 H   0  0  0  0  0  0
  -19.6702  -27.3188   20.6779 H   0  0  0  0  0  0
  -17.4160  -26.6661   21.4007 H   0  0  0  0  0  0
  -18.0263  -26.0058   22.9016 H   0  0  0  0  0  0
  -19.7905  -30.7236   24.2282 H   0  0  0  0  0  0
  -17.4989  -31.6262   24.5145 H   0  0  0  0  0  0
  -15.5326  -30.2996   23.7655 H   0  0  0  0  0  0
  -15.8604  -28.0830   22.7063 H   0  0  0  0  0  0
  -24.6040  -30.6793   25.7834 H   0  0  0  0  0  0
  -24.8558  -32.2835   26.4568 H   0  0  0  0  0  0
  -25.8023  -30.9225   27.0340 H   0  0  0  0  0  0
  -26.2699  -29.6904   24.1003 H   0  0  0  0  0  0
  -27.3778  -29.7175   25.4530 H   0  0  0  0  0  0
  -27.8621  -30.4307   23.9289 H   0  0  0  0  0  0
  -27.2687  -33.3682   26.1883 H   0  0  0  0  0  0
  -28.3876  -32.6676   25.0278 H   0  0  0  0  0  0
  -28.0561  -31.8452   26.5437 H   0  0  0  0  0  0
  -28.2605  -38.0095   24.7546 H   0  0  0  0  0  0
  -28.1050  -36.2632   24.6266 H   0  0  0  0  0  0
  -27.2287  -37.1450   25.8861 H   0  0  0  0  0  0
  -20.9224  -29.8745   21.7046 H   0  0  0  0  0  0
  -26.0173  -38.2896   24.1461 H   0  0  0  0  0  0
  -29.6397  -17.4794   22.9587 H   0  0  0  0  0  0
  -29.1783  -19.8237   22.3514 H   0  0  0  0  0  0
  -30.1470  -16.5158   18.7755 H   0  0  0  0  0  0
  -27.1050  -20.0965   19.1229 H   0  0  0  0  0  0
  -28.1557  -20.7538   17.8625 H   0  0  0  0  0  0
  -27.3083  -21.8303   18.9558 H   0  0  0  0  0  0
  -30.8702  -22.9487   19.4046 H   0  0  0  0  0  0
  -29.3283  -23.1180   18.6478 H   0  0  0  0  0  0
  -30.5175  -25.2056   19.6624 H   0  0  0  0  0  0
  -29.8977  -24.6873   21.1976 H   0  0  0  0  0  0
  -28.4086  -22.4007   21.0837 H   0  0  0  0  0  0
  -30.0436  -21.8506   21.3354 H   0  0  0  0  0  0
  -27.5671  -24.8303   20.2846 H   0  0  0  0  0  0
  -28.2003  -25.2357   18.6932 H   0  0  0  0  0  0
  -29.3439  -15.0735   21.9213 H   0  0  0  0  0  0
  1 25  1  0  0  0
  1 30  2  0  0  0
  1 82  1  0  0  0
  2  3  1  0  0  0
  2 25  1  0  0  0
  2 85  1  0  0  0
  2 86  1  0  0  0
  3  4  1  0  0  0
  3 87  1  0  0  0
  3 88  1  0  0  0
  4  5  1  0  0  0
  4 89  1  0  0  0
  4 90  1  0  0  0
  5  6  1  0  0  0
  5 26  1  0  0  0
  5 91  1  0  0  0
  6 25  1  0  0  0
  6 92  1  0  0  0
  6 93  1  0  0  0
  7  8  2  0  0  0
  7 26  1  0  0  0
  7 29  1  0  0  0
  8  9  1  0  0  0
  8 22  1  0  0  0
  9 10  1  0  0  0
  9 27  2  0  0  0
 10 11  2  0  0  0
 10 15  1  0  0  0
 11 12  1  0  0  0
 11 94  1  0  0  0
 12 13  2  0  0  0
 12 95  1  0  0  0
 13 14  1  0  0  0
 13 31  1  0  0  0
 14 15  2  0  0  0
 14 96  1  0  0  0
 15 97  1  0  0  0
 16 17  2  0  0  0
 16 21  1  0  0  0
 16 31  1  0  0  0
 17 18  1  0  0  0
 17 98  1  0  0  0
 18 19  2  0  0  0
 18 99  1  0  0  0
 19 20  1  0  0  0
 19 24  1  0  0  0
 20 21  2  0  0  0
 20100  1  0  0  0
 21 23  1  0  0  0
 22 28  1  0  0  0
 22 32  2  0  0  0
 26 27  1  0  0  0
 28101  1  0  0  0
 28102  1  0  0  0
 29103  1  0  0  0
 29104  1  0  0  0
 33 34  1  0  0  0
 33 66  1  0  0  0
 33 70  2  0  0  0
 34 36  1  0  0  0
 34 59  1  0  0  0
 34105  1  0  0  0
 35 44  2  0  0  0
 35 45  1  0  0  0
 35 68  1  0  0  0
 36 56  1  0  0  0
 36106  1  0  0  0
 37 39  1  0  0  0
 37 47  1  0  0  0
 37 66  1  0  0  0
 37107  1  0  0  0
 38 43  2  0  0  0
 38 46  1  0  0  0
 38 47  1  0  0  0
 39 64  1  0  0  0
 39 67  2  0  0  0
 40 52  1  0  0  0
 40 53  2  0  0  0
 40 58  1  0  0  0
 41108  1  0  0  0
 41109  1  0  0  0
 41110  1  0  0  0
 41 48  1  0  0  0
 42 43  1  0  0  0
 42 66  1  0  0  0
 42111  1  0  0  0
 42112  1  0  0  0
 43 44  1  0  0  0
 44113  1  0  0  0
 45 46  2  0  0  0
 45114  1  0  0  0
 46115  1  0  0  0
 47116  1  0  0  0
 47117  1  0  0  0
 48 56  1  0  0  0
 48 65  1  0  0  0
 48118  1  0  0  0
 49 50  1  0  0  0
 49 53  1  0  0  0
 49 64  1  0  0  0
 49119  1  0  0  0
 50 51  1  0  0  0
 50120  1  0  0  0
 50121  1  0  0  0
 51 52  1  0  0  0
 51122  1  0  0  0
 51123  1  0  0  0
 52124  1  0  0  0
 52125  1  0  0  0
 53 54  1  0  0  0
 54 55  2  0  0  0
 54126  1  0  0  0
 55 57  1  0  0  0
 55127  1  0  0  0
 56 69  2  0  0  0
 57 58  2  0  0  0
 57128  1  0  0  0
 58129  1  0  0  0
 59 60  1  0  0  0
 59 61  1  0  0  0
 59 62  1  0  0  0
 60130  1  0  0  0
 60131  1  0  0  0
 60132  1  0  0  0
 61133  1  0  0  0
 61134  1  0  0  0
 61135  1  0  0  0
 62136  1  0  0  0
 62137  1  0  0  0
 62138  1  0  0  0
 63 65  1  0  0  0
 63139  1  0  0  0
 63140  1  0  0  0
 63141  1  0  0  0
 64142  1  0  0  0
 65143  1  0  0  0
 68 81  1  0  0  0
 71 72  2  0  0  0
 71 74  1  0  0  0
 71144  1  0  0  0
 72 75  1  0  0  0
 72145  1  0  0  0
 73 74  2  0  0  0
 73 76  1  0  0  0
 73146  1  0  0  0
 74 82  1  0  0  0
 75 76  2  0  0  0
 75 83  1  0  0  0
 76 84  1  0  0  0
 77 83  1  0  0  0
 77147  1  0  0  0
 77148  1  0  0  0
 77149  1  0  0  0
 78 79  1  0  0  0
 78 80  1  0  0  0
 78150  1  0  0  0
 78151  1  0  0  0
 79 81  1  0  0  0
 79152  1  0  0  0
 79153  1  0  0  0
 80 83  1  0  0  0
 80154  1  0  0  0
 80155  1  0  0  0
 81156  1  0  0  0
 81157  1  0  0  0
 82158  1  0  0  0
M  ISO  4   1 100  68 101  81 101  82 100
M  END
> <chiral flag>
0

> <version>
0

> <s_m_source_file>
/data/baiqing/PycharmProjects/Reinvent-master-3.2/result/LINK_invent/BTK/process_docking_weight1_custom_product_contain_oxygen_bond_distance_aromatic_linkinvent_7_9_3/rearranged_h_0018.sdf

> <i_m_source_file_index>
43

> <r_mmod_Potential_Energy-OPLS-2005>
15.4999074935913

> <r_mmod_Stretch_Energy-OPLS-2005>
40.3852119445801

> <r_mmod_Bend_Energy-OPLS-2005>
109.997222900391

> <r_mmod_Torsional_Energy-OPLS-2005>
243.626159667969

> <r_mmod_Improper_Torsional_Energy-OPLS-2005>
4.96345710754395

> <r_mmod_Van_der_Waal_Energy-OPLS-2005>
155.695007324219

> <r_mmod_Electrostatic_Energy-OPLS-2005>
-333.582855224609

> <r_mmod_Solvation_Energy-OPLS-2005>
-216.569931030273

> <b_mmod_Minimization_Converged-OPLS-2005>
0

> <r_mmod_RMS_Derivative-OPLS-2005>
4.07270908355713

$$$$
43
                    3D
 Structure written by MMmdl.
164173  0  0  1  0            999 V2000
  -30.8549  -14.2292   20.7947 C   0  0  0  0  0  0
  -30.4102  -12.2698   19.3665 C   0  0  0  0  0  0
  -29.4734  -12.5425   18.1795 C   0  0  0  0  0  0
  -28.0032  -12.3857   18.6014 C   0  0  0  0  0  0
  -27.6689  -13.2018   19.8743 C   0  0  2  0  0  0
  -28.7019  -12.9365   20.9902 C   0  0  0  0  0  0
  -25.2619  -13.8169   20.5649 C   0  0  0  0  0  0
  -24.1859  -13.0454   20.9149 C   0  0  0  0  0  0
  -24.6395  -11.6915   20.8690 C   0  0  0  0  0  0
  -23.9052  -10.4303   21.0369 C   0  0  0  0  0  0
  -24.3602   -9.4231   21.9164 C   0  0  0  0  0  0
  -23.6285   -8.2265   22.0747 C   0  0  0  0  0  0
  -22.4267   -8.0291   21.3541 C   0  0  0  0  0  0
  -21.9899   -9.0252   20.4630 C   0  0  0  0  0  0
  -22.7221  -10.2134   20.3022 C   0  0  0  0  0  0
  -21.6858   -6.0743   22.5288 C   0  0  0  0  0  0
  -21.4013   -6.5642   23.8220 C   0  0  0  0  0  0
  -21.3648   -5.6790   24.9181 C   0  0  0  0  0  0
  -21.6034   -4.3054   24.7229 C   0  0  0  0  0  0
  -21.8817   -3.8152   23.4349 C   0  0  0  0  0  0
  -21.9194   -4.6971   22.3408 C   0  0  0  0  0  0
  -22.7884  -13.5258   21.1835 C   0  0  0  0  0  0
  -22.1664   -4.2159   21.0983 F   0  0  0  0  0  0
  -21.5618   -3.4535   25.7737 F   0  0  0  0  0  0
  -30.0658  -13.1721   20.4724 N   0  0  0  0  0  0
  -26.3055  -12.9331   20.3336 N   0  0  0  0  0  0
  -25.9314  -11.6493   20.5707 N   0  0  0  0  0  0
  -22.0517  -12.8225   22.0371 N   0  0  0  0  0  0
  -25.4367  -15.1880   20.4051 N   0  0  0  0  0  0
  -31.7111  -14.6857   20.0260 O   0  0  0  0  0  0
  -21.6640   -6.8883   21.4247 O   0  0  0  0  0  0
  -22.3572  -14.5584   20.6721 O   0  0  0  0  0  0
  -24.6096  -31.8701   23.2139 C   0  0  0  0  0  0
  -25.9005  -32.4836   23.8414 C   0  0  1  0  0  0
  -27.2363  -27.4670   20.0794 C   0  0  0  0  0  0
  -25.5872  -33.8632   24.2347 N   0  0  0  0  0  0
  -23.3949  -30.4946   21.5544 C   0  0  2  0  0  0
  -24.8385  -28.9664   20.1162 C   0  0  0  0  0  0
  -22.7380  -29.4662   22.5024 C   0  0  0  0  0  0
  -18.0263  -28.1363   22.8510 C   0  0  0  0  0  0
  -24.1478  -36.7326   23.2638 C   0  0  0  0  0  0
  -25.9195  -30.8444   21.3620 C   0  0  0  0  0  0
  -25.9952  -29.4796   20.7133 C   0  0  0  0  0  0
  -27.1917  -28.7340   20.6988 C   0  0  0  0  0  0
  -26.0590  -26.9667   19.4703 C   0  0  0  0  0  0
  -24.8632  -27.7070   19.4969 C   0  0  0  0  0  0
  -23.5989  -29.8284   20.1679 C   0  0  0  0  0  0
  -25.4099  -36.3124   24.0343 C   0  0  1  0  0  0
  -20.5849  -28.3635   23.1347 C   0  0  2  0  0  0
  -20.6748  -26.9373   22.5444 C   0  0  0  0  0  0
  -19.5732  -26.6378   21.5228 C   0  0  0  0  0  0
  -18.1904  -26.7924   22.1618 C   0  0  0  0  0  0
  -19.1511  -28.8817   23.2929 C   0  0  0  0  0  0
  -18.9442  -30.1428   23.8937 C   0  0  0  0  0  0
  -17.6440  -30.6575   24.0569 C   0  0  0  0  0  0
  -25.9022  -34.9484   23.5146 C   0  0  0  0  0  0
  -16.5335  -29.9080   23.6318 C   0  0  0  0  0  0
  -16.7253  -28.6489   23.0356 C   0  0  0  0  0  0
  -26.4451  -31.6594   25.0720 C   0  0  0  0  0  0
  -25.3736  -31.3664   26.1475 C   0  0  0  0  0  0
  -27.0267  -30.3047   24.6043 C   0  0  0  0  0  0
  -27.6027  -32.4304   25.7493 C   0  0  0  0  0  0
  -27.5579  -37.1821   24.8460 C   0  0  0  0  0  0
  -21.4113  -29.3012   22.3764 N   0  0  0  0  0  0
  -26.4288  -37.3805   23.9408 N   0  0  0  0  0  0
  -24.6596  -31.0831   22.1024 N   0  0  0  0  0  0
  -23.4175  -28.8201   23.3045 O   0  0  0  0  0  0
  -28.4452  -26.8069   20.0796 O   0  0  0  0  0  0
  -26.5586  -34.8922   22.4709 O   0  0  0  0  0  0
  -23.5302  -32.1435   23.7562 O   0  0  0  0  0  0
  -28.3255  -18.9811   21.2725 C   0  0  0  0  0  0
  -28.3081  -20.3835   21.3115 C   0  0  0  0  0  0
  -30.1621  -20.3668   22.8926 C   0  0  0  0  0  0
  -29.2728  -18.2657   22.0255 C   0  0  0  0  0  0
  -30.1861  -18.9569   22.8588 C   0  0  0  0  0  0
  -29.2436  -21.0881   22.1027 C   0  0  0  0  0  0
  -29.2305  -24.6390   20.8281 C   0  0  0  0  0  0
  -29.3107  -16.7588   21.8950 C   0  0  0  0  0  0
  -31.2355  -18.2163   23.6815 C   0  0  0  0  0  0
  -31.1043  -16.6835   23.6434 C   0  0  0  0  0  0
  -30.6942  -16.1918   22.2391 C   0  0  1  0  0  0
  -30.7865  -13.8659   23.2262 C   0  0  0  0  0  0
  -28.9959  -23.1301   20.8248 C   0  0  0  0  0  0
  -28.4887  -25.4209   19.7429 C   0  0  0  0  0  0
  -29.2970  -22.4867   22.1030 N   0  0  0  0  0  0
  -30.6730  -14.7318   22.0401 N   0  0  0  0  0  0
  -29.9710  -25.1789   21.6599 O   0  0  0  0  0  0
  -31.4519  -12.3735   19.0550 H   0  0  0  0  0  0
  -30.3028  -11.2369   19.7009 H   0  0  0  0  0  0
  -29.6994  -11.8603   17.3589 H   0  0  0  0  0  0
  -29.6442  -13.5509   17.7978 H   0  0  0  0  0  0
  -27.8143  -11.3256   18.7771 H   0  0  0  0  0  0
  -27.3451  -12.6804   17.7827 H   0  0  0  0  0  0
  -27.7322  -14.2568   19.6070 H   0  0  0  0  0  0
  -28.6313  -11.9057   21.3394 H   0  0  0  0  0  0
  -28.4506  -13.5604   21.8485 H   0  0  0  0  0  0
  -25.2745   -9.5725   22.4732 H   0  0  0  0  0  0
  -23.9998   -7.4669   22.7476 H   0  0  0  0  0  0
  -21.0831   -8.8753   19.8941 H   0  0  0  0  0  0
  -22.3673  -10.9655   19.6115 H   0  0  0  0  0  0
  -21.2005   -7.6148   23.9729 H   0  0  0  0  0  0
  -21.1458   -6.0519   25.9084 H   0  0  0  0  0  0
  -22.0597   -2.7614   23.2852 H   0  0  0  0  0  0
  -22.4112  -11.9848   22.4696 H   0  0  0  0  0  0
  -21.1133  -13.1250   22.2578 H   0  0  0  0  0  0
  -24.6716  -15.8468   20.5006 H   0  0  0  0  0  0
  -26.2953  -15.6206   20.0881 H   0  0  0  0  0  0
  -26.7076  -32.5561   23.1183 H   0  0  0  0  0  0
  -25.0011  -33.9797   25.0485 H   0  0  0  0  0  0
  -22.6824  -31.3107   21.4188 H   0  0  0  0  0  0
  -23.3736  -35.9661   23.3310 H   0  0  0  0  0  0
  -24.3584  -36.8932   22.2053 H   0  0  0  0  0  0
  -23.7225  -37.6532   23.6646 H   0  0  0  0  0  0
  -26.0211  -31.6083   20.5902 H   0  0  0  0  0  0
  -26.8122  -30.9031   21.9731 H   0  0  0  0  0  0
  -28.0867  -29.1307   21.1574 H   0  0  0  0  0  0
  -26.0303  -26.0272   18.9410 H   0  0  0  0  0  0
  -23.9754  -27.3127   19.0221 H   0  0  0  0  0  0
  -23.6999  -30.6026   19.4068 H   0  0  0  0  0  0
  -22.7246  -29.2426   19.8764 H   0  0  0  0  0  0
  -25.1274  -36.2003   25.0836 H   0  0  0  0  0  0
  -20.9936  -28.3188   24.1467 H   0  0  0  0  0  0
  -20.5640  -26.2238   23.3623 H   0  0  0  0  0  0
  -21.6622  -26.7414   22.1236 H   0  0  0  0  0  0
  -19.6888  -25.6295   21.1232 H   0  0  0  0  0  0
  -19.6685  -27.3220   20.6784 H   0  0  0  0  0  0
  -17.4188  -26.6714   21.4000 H   0  0  0  0  0  0
  -18.0269  -26.0046   22.8983 H   0  0  0  0  0  0
  -19.7908  -30.7242   24.2329 H   0  0  0  0  0  0
  -17.4985  -31.6259   24.5153 H   0  0  0  0  0  0
  -15.5335  -30.2988   23.7617 H   0  0  0  0  0  0
  -15.8651  -28.0811   22.7064 H   0  0  0  0  0  0
  -24.5976  -30.6919   25.7841 H   0  0  0  0  0  0
  -24.8843  -32.2787   26.4887 H   0  0  0  0  0  0
  -25.8128  -30.8904   27.0250 H   0  0  0  0  0  0
  -26.2790  -29.6847   24.1080 H   0  0  0  0  0  0
  -27.4041  -29.7234   25.4467 H   0  0  0  0  0  0
  -27.8622  -30.4391   23.9172 H   0  0  0  0  0  0
  -27.2635  -33.3582   26.2112 H   0  0  0  0  0  0
  -28.3819  -32.6895   25.0316 H   0  0  0  0  0  0
  -28.0703  -31.8399   26.5378 H   0  0  0  0  0  0
  -28.2596  -38.0117   24.7496 H   0  0  0  0  0  0
  -28.1072  -36.2649   24.6289 H   0  0  0  0  0  0
  -27.2299  -37.1478   25.8864 H   0  0  0  0  0  0
  -20.9263  -29.8738   21.6999 H   0  0  0  0  0  0
  -26.0181  -38.2884   24.1414 H   0  0  0  0  0  0
  -27.6195  -18.4578   20.6432 H   0  0  0  0  0  0
  -27.5700  -20.8932   20.7110 H   0  0  0  0  0  0
  -30.8799  -20.8907   23.5082 H   0  0  0  0  0  0
  -29.0291  -16.4858   20.8765 H   0  0  0  0  0  0
  -28.5511  -16.3340   22.5534 H   0  0  0  0  0  0
  -31.2008  -18.5636   24.7149 H   0  0  0  0  0  0
  -32.2155  -18.5015   23.2961 H   0  0  0  0  0  0
  -30.3469  -16.3827   24.3687 H   0  0  0  0  0  0
  -32.0464  -16.2417   23.9704 H   0  0  0  0  0  0
  -31.4184  -16.6246   21.5448 H   0  0  0  0  0  0
  -30.0085  -14.1010   23.9527 H   0  0  0  0  0  0
  -31.7580  -13.9897   23.7051 H   0  0  0  0  0  0
  -30.6906  -12.8044   22.9929 H   0  0  0  0  0  0
  -29.6054  -22.6897   20.0333 H   0  0  0  0  0  0
  -27.9516  -22.9657   20.5600 H   0  0  0  0  0  0
  -27.5124  -24.9537   19.6561 H   0  0  0  0  0  0
  -29.0007  -25.2912   18.7897 H   0  0  0  0  0  0
  -30.0662  -22.9227   22.6069 H   0  0  0  0  0  0
  1 25  1  0  0  0
  1 30  2  0  0  0
  1 86  1  0  0  0
  2  3  1  0  0  0
  2 25  1  0  0  0
  2 88  1  0  0  0
  2 89  1  0  0  0
  3  4  1  0  0  0
  3 90  1  0  0  0
  3 91  1  0  0  0
  4  5  1  0  0  0
  4 92  1  0  0  0
  4 93  1  0  0  0
  5  6  1  0  0  0
  5 26  1  0  0  0
  5 94  1  0  0  0
  6 25  1  0  0  0
  6 95  1  0  0  0
  6 96  1  0  0  0
  7  8  2  0  0  0
  7 26  1  0  0  0
  7 29  1  0  0  0
  8  9  1  0  0  0
  8 22  1  0  0  0
  9 10  1  0  0  0
  9 27  2  0  0  0
 10 11  2  0  0  0
 10 15  1  0  0  0
 11 12  1  0  0  0
 11 97  1  0  0  0
 12 13  2  0  0  0
 12 98  1  0  0  0
 13 14  1  0  0  0
 13 31  1  0  0  0
 14 15  2  0  0  0
 14 99  1  0  0  0
 15100  1  0  0  0
 16 17  2  0  0  0
 16 21  1  0  0  0
 16 31  1  0  0  0
 17 18  1  0  0  0
 17101  1  0  0  0
 18 19  2  0  0  0
 18102  1  0  0  0
 19 20  1  0  0  0
 19 24  1  0  0  0
 20 21  2  0  0  0
 20103  1  0  0  0
 21 23  1  0  0  0
 22 28  1  0  0  0
 22 32  2  0  0  0
 26 27  1  0  0  0
 28104  1  0  0  0
 28105  1  0  0  0
 29106  1  0  0  0
 29107  1  0  0  0
 33 34  1  0  0  0
 33 66  1  0  0  0
 33 70  2  0  0  0
 34 36  1  0  0  0
 34 59  1  0  0  0
 34108  1  0  0  0
 35 44  2  0  0  0
 35 45  1  0  0  0
 35 68  1  0  0  0
 36 56  1  0  0  0
 36109  1  0  0  0
 37 39  1  0  0  0
 37 47  1  0  0  0
 37 66  1  0  0  0
 37110  1  0  0  0
 38 43  2  0  0  0
 38 46  1  0  0  0
 38 47  1  0  0  0
 39 64  1  0  0  0
 39 67  2  0  0  0
 40 52  1  0  0  0
 40 53  2  0  0  0
 40 58  1  0  0  0
 41111  1  0  0  0
 41112  1  0  0  0
 41113  1  0  0  0
 41 48  1  0  0  0
 42 43  1  0  0  0
 42 66  1  0  0  0
 42114  1  0  0  0
 42115  1  0  0  0
 43 44  1  0  0  0
 44116  1  0  0  0
 45 46  2  0  0  0
 45117  1  0  0  0
 46118  1  0  0  0
 47119  1  0  0  0
 47120  1  0  0  0
 48 56  1  0  0  0
 48 65  1  0  0  0
 48121  1  0  0  0
 49 50  1  0  0  0
 49 53  1  0  0  0
 49 64  1  0  0  0
 49122  1  0  0  0
 50 51  1  0  0  0
 50123  1  0  0  0
 50124  1  0  0  0
 51 52  1  0  0  0
 51125  1  0  0  0
 51126  1  0  0  0
 52127  1  0  0  0
 52128  1  0  0  0
 53 54  1  0  0  0
 54 55  2  0  0  0
 54129  1  0  0  0
 55 57  1  0  0  0
 55130  1  0  0  0
 56 69  2  0  0  0
 57 58  2  0  0  0
 57131  1  0  0  0
 58132  1  0  0  0
 59 60  1  0  0  0
 59 61  1  0  0  0
 59 62  1  0  0  0
 60133  1  0  0  0
 60134  1  0  0  0
 60135  1  0  0  0
 61136  1  0  0  0
 61137  1  0  0  0
 61138  1  0  0  0
 62139  1  0  0  0
 62140  1  0  0  0
 62141  1  0  0  0
 63 65  1  0  0  0
 63142  1  0  0  0
 63143  1  0  0  0
 63144  1  0  0  0
 64145  1  0  0  0
 65146  1  0  0  0
 68 84  1  0  0  0
 71 72  2  0  0  0
 71 74  1  0  0  0
 71147  1  0  0  0
 72 76  1  0  0  0
 72148  1  0  0  0
 73 75  1  0  0  0
 73 76  2  0  0  0
 73149  1  0  0  0
 74 75  2  0  0  0
 74 78  1  0  0  0
 75 79  1  0  0  0
 76 85  1  0  0  0
 77 83  1  0  0  0
 77 84  1  0  0  0
 77 87  2  0  0  0
 78 81  1  0  0  0
 78150  1  0  0  0
 78151  1  0  0  0
 79 80  1  0  0  0
 79152  1  0  0  0
 79153  1  0  0  0
 80 81  1  0  0  0
 80154  1  0  0  0
 80155  1  0  0  0
 81 86  1  0  0  0
 81156  1  0  0  0
 82 86  1  0  0  0
 82157  1  0  0  0
 82158  1  0  0  0
 82159  1  0  0  0
 83 85  1  0  0  0
 83160  1  0  0  0
 83161  1  0  0  0
 84162  1  0  0  0
 84163  1  0  0  0
 85164  1  0  0  0
M  ISO  4   1 100  68 101  84 101  86 100
M  END
> <chiral flag>
0

> <version>
0

> <s_m_source_file>
/data/baiqing/PycharmProjects/Reinvent-master-3.2/result/LINK_invent/BTK/process_docking_weight1_custom_product_contain_oxygen_bond_distance_aromatic_linkinvent_7_9_3/rearranged_h_0018.sdf

> <i_m_source_file_index>
44

> <r_mmod_Potential_Energy-OPLS-2005>
134.237274169922

> <r_mmod_Stretch_Energy-OPLS-2005>
34.3906402587891

> <r_mmod_Bend_Energy-OPLS-2005>
99.2854614257812

> <r_mmod_Torsional_Energy-OPLS-2005>
292.303283691406

> <r_mmod_Improper_Torsional_Energy-OPLS-2005>
6.10437250137329

> <r_mmod_Van_der_Waal_Energy-OPLS-2005>
174.25080871582

> <r_mmod_Electrostatic_Energy-OPLS-2005>
-254.355331420898

> <r_mmod_Solvation_Energy-OPLS-2005>
-230.333236694336

> <b_mmod_Minimization_Converged-OPLS-2005>
0

> <r_mmod_RMS_Derivative-OPLS-2005>
1.23782634735107

$$$$
44
                    3D
 Structure written by MMmdl.
155163  0  0  1  0            999 V2000
  -30.6441  -14.6747   20.4704 C   0  0  0  0  0  0
  -30.4313  -12.4032   19.4697 C   0  0  0  0  0  0
  -29.5127  -12.4700   18.2316 C   0  0  0  0  0  0
  -28.0378  -12.3076   18.6515 C   0  0  0  0  0  0
  -27.6505  -13.2175   19.8484 C   0  0  2  0  0  0
  -28.6952  -13.1516   20.9873 C   0  0  0  0  0  0
  -25.2591  -13.8195   20.5613 C   0  0  0  0  0  0
  -24.1886  -13.0477   20.9113 C   0  0  0  0  0  0
  -24.6436  -11.6927   20.8730 C   0  0  0  0  0  0
  -23.9116  -10.4316   21.0390 C   0  0  0  0  0  0
  -24.3644   -9.4229   21.9178 C   0  0  0  0  0  0
  -23.6297   -8.2285   22.0778 C   0  0  0  0  0  0
  -22.4288   -8.0314   21.3565 C   0  0  0  0  0  0
  -21.9921   -9.0285   20.4680 C   0  0  0  0  0  0
  -22.7275  -10.2158   20.3055 C   0  0  0  0  0  0
  -21.6842   -6.0743   22.5267 C   0  0  0  0  0  0
  -21.4014   -6.5641   23.8201 C   0  0  0  0  0  0
  -21.3650   -5.6780   24.9169 C   0  0  0  0  0  0
  -21.6039   -4.3046   24.7199 C   0  0  0  0  0  0
  -21.8828   -3.8147   23.4300 C   0  0  0  0  0  0
  -21.9190   -4.6977   22.3375 C   0  0  0  0  0  0
  -22.7910  -13.5279   21.1748 C   0  0  0  0  0  0
  -22.1658   -4.2183   21.0946 F   0  0  0  0  0  0
  -21.5627   -3.4502   25.7680 F   0  0  0  0  0  0
  -29.9965  -13.4674   20.3980 N   0  0  0  0  0  0
  -26.3026  -12.9367   20.3284 N   0  0  0  0  0  0
  -25.9388  -11.6516   20.5840 N   0  0  0  0  0  0
  -22.0548  -12.8332   22.0337 N   0  0  0  0  0  0
  -25.4286  -15.1927   20.4020 N   0  0  0  0  0  0
  -31.8506  -14.7422   20.2155 O   0  0  0  0  0  0
  -21.6642   -6.8903   21.4231 O   0  0  0  0  0  0
  -22.3616  -14.5579   20.6576 O   0  0  0  0  0  0
  -24.6251  -31.8600   23.2006 C   0  0  0  0  0  0
  -25.9128  -32.4767   23.8322 C   0  0  1  0  0  0
  -27.2240  -27.3182   20.1261 C   0  0  0  0  0  0
  -25.5969  -33.8568   24.2270 N   0  0  0  0  0  0
  -23.4169  -30.4860   21.5405 C   0  0  2  0  0  0
  -24.8613  -28.9313   20.1113 C   0  0  0  0  0  0
  -22.7450  -29.4654   22.4888 C   0  0  0  0  0  0
  -18.0281  -28.1417   22.8456 C   0  0  0  0  0  0
  -24.1479  -36.7281   23.2635 C   0  0  0  0  0  0
  -25.9551  -30.7933   21.3665 C   0  0  0  0  0  0
  -26.0262  -29.4171   20.7143 C   0  0  0  0  0  0
  -27.2050  -28.6199   20.7110 C   0  0  0  0  0  0
  -26.0367  -26.8757   19.5003 C   0  0  0  0  0  0
  -24.8703  -27.6677   19.4982 C   0  0  0  0  0  0
  -23.6307  -29.8148   20.1568 C   0  0  0  0  0  0
  -25.4111  -36.3064   24.0319 C   0  0  1  0  0  0
  -20.5892  -28.3712   23.1262 C   0  0  2  0  0  0
  -20.6788  -26.9455   22.5379 C   0  0  0  0  0  0
  -19.5752  -26.6431   21.5177 C   0  0  0  0  0  0
  -18.1932  -26.7981   22.1595 C   0  0  0  0  0  0
  -19.1533  -28.8864   23.2894 C   0  0  0  0  0  0
  -18.9468  -30.1462   23.8938 C   0  0  0  0  0  0
  -17.6473  -30.6609   24.0612 C   0  0  0  0  0  0
  -25.9062  -34.9442   23.5093 C   0  0  0  0  0  0
  -16.5359  -29.9121   23.6350 C   0  0  0  0  0  0
  -16.7270  -28.6555   23.0320 C   0  0  0  0  0  0
  -26.4545  -31.6582   25.0685 C   0  0  0  0  0  0
  -25.3789  -31.3721   26.1409 C   0  0  0  0  0  0
  -27.0388  -30.3014   24.6125 C   0  0  0  0  0  0
  -27.6119  -32.4298   25.7472 C   0  0  0  0  0  0
  -27.5577  -37.1802   24.8479 C   0  0  0  0  0  0
  -21.4161  -29.3075   22.3645 N   0  0  0  0  0  0
  -26.4294  -37.3774   23.9414 N   0  0  0  0  0  0
  -24.6850  -31.0631   22.0939 N   0  0  0  0  0  0
  -23.4179  -28.8205   23.2968 O   0  0  0  0  0  0
  -28.3727  -26.5254   20.2193 O   0  0  0  0  0  0
  -26.5599  -34.8912   22.4632 O   0  0  0  0  0  0
  -23.5436  -32.1375   23.7374 O   0  0  0  0  0  0
  -28.2470  -19.1589   21.3831 C   0  0  0  0  0  0
  -30.4661  -19.1568   20.4687 C   0  0  0  0  0  0
  -28.1396  -20.5770   21.1686 C   0  0  0  0  0  0
  -30.3558  -20.5587   20.2356 C   0  0  0  0  0  0
  -29.4050  -18.3996   21.0263 C   0  0  0  0  0  0
  -29.1993  -21.3180   20.5657 C   0  0  0  0  0  0
  -29.9387  -16.3874   18.9423 C   0  0  0  0  0  0
  -29.5358  -16.8445   21.3463 C   0  0  0  0  0  0
  -28.3540  -23.8695   20.6693 C   0  0  0  0  0  0
  -28.4765  -25.1441   19.7110 C   0  0  0  0  0  0
  -29.2247  -22.7224   20.2459 N   0  0  0  0  0  0
  -29.8656  -15.8094   20.2869 N   0  0  0  0  0  0
  -31.4746  -12.5113   19.1728 H   0  0  0  0  0  0
  -30.3608  -11.4224   19.9447 H   0  0  0  0  0  0
  -29.7927  -11.6871   17.5233 H   0  0  0  0  0  0
  -29.6604  -13.4178   17.7124 H   0  0  0  0  0  0
  -27.8963  -11.2637   18.9326 H   0  0  0  0  0  0
  -27.3734  -12.4720   17.8034 H   0  0  0  0  0  0
  -27.6469  -14.2364   19.4610 H   0  0  0  0  0  0
  -28.7214  -12.1646   21.4490 H   0  0  0  0  0  0
  -28.4537  -13.8673   21.7739 H   0  0  0  0  0  0
  -25.2808   -9.5706   22.4737 H   0  0  0  0  0  0
  -23.9958   -7.4669   22.7514 H   0  0  0  0  0  0
  -21.0846   -8.8865   19.9002 H   0  0  0  0  0  0
  -22.3747  -10.9678   19.6165 H   0  0  0  0  0  0
  -21.2021   -7.6144   23.9729 H   0  0  0  0  0  0
  -21.1439   -6.0505   25.9072 H   0  0  0  0  0  0
  -22.0608   -2.7595   23.2793 H   0  0  0  0  0  0
  -22.4095  -11.9992   22.4768 H   0  0  0  0  0  0
  -21.1190  -13.1418   22.2510 H   0  0  0  0  0  0
  -24.6558  -15.8366   20.5409 H   0  0  0  0  0  0
  -26.2985  -15.6524   20.1723 H   0  0  0  0  0  0
  -26.7183  -32.5455   23.1065 H   0  0  0  0  0  0
  -25.0141  -33.9697   25.0429 H   0  0  0  0  0  0
  -22.7113  -31.3079   21.3986 H   0  0  0  0  0  0
  -23.3746  -35.9618   23.3305 H   0  0  0  0  0  0
  -24.3560  -36.8890   22.2053 H   0  0  0  0  0  0
  -23.7238  -37.6493   23.6640 H   0  0  0  0  0  0
  -26.0728  -31.5519   20.5909 H   0  0  0  0  0  0
  -26.8430  -30.8498   21.9856 H   0  0  0  0  0  0
  -28.1039  -28.9826   21.1913 H   0  0  0  0  0  0
  -25.9766  -25.9049   19.0307 H   0  0  0  0  0  0
  -23.9718  -27.2868   19.0315 H   0  0  0  0  0  0
  -23.7580  -30.5928   19.4013 H   0  0  0  0  0  0
  -22.7479  -29.2522   19.8450 H   0  0  0  0  0  0
  -25.1292  -36.1917   25.0821 H   0  0  0  0  0  0
  -21.0043  -28.3292   24.1339 H   0  0  0  0  0  0
  -20.5692  -26.2335   23.3576 H   0  0  0  0  0  0
  -21.6660  -26.7514   22.1166 H   0  0  0  0  0  0
  -19.6915  -25.6337   21.1209 H   0  0  0  0  0  0
  -19.6700  -27.3220   20.6679 H   0  0  0  0  0  0
  -17.4216  -26.6744   21.3994 H   0  0  0  0  0  0
  -18.0363  -26.0147   22.9006 H   0  0  0  0  0  0
  -19.7966  -30.7267   24.2296 H   0  0  0  0  0  0
  -17.5041  -31.6268   24.5248 H   0  0  0  0  0  0
  -15.5360  -30.3018   23.7710 H   0  0  0  0  0  0
  -15.8654  -28.0915   22.6974 H   0  0  0  0  0  0
  -24.5975  -30.7066   25.7741 H   0  0  0  0  0  0
  -24.8980  -32.2886   26.4840 H   0  0  0  0  0  0
  -25.8120  -30.8905   27.0183 H   0  0  0  0  0  0
  -26.2944  -29.6750   24.1203 H   0  0  0  0  0  0
  -27.4164  -29.7295   25.4623 H   0  0  0  0  0  0
  -27.8772  -30.4316   23.9268 H   0  0  0  0  0  0
  -27.2750  -33.3594   26.2071 H   0  0  0  0  0  0
  -28.3937  -32.6861   25.0306 H   0  0  0  0  0  0
  -28.0764  -31.8392   26.5381 H   0  0  0  0  0  0
  -28.2618  -38.0075   24.7495 H   0  0  0  0  0  0
  -28.1033  -36.2611   24.6327 H   0  0  0  0  0  0
  -27.2275  -37.1480   25.8876 H   0  0  0  0  0  0
  -20.9366  -29.8811   21.6846 H   0  0  0  0  0  0
  -26.0158  -38.2846   24.1440 H   0  0  0  0  0  0
  -27.4127  -18.6558   21.8563 H   0  0  0  0  0  0
  -31.3975  -18.6615   20.2216 H   0  0  0  0  0  0
  -27.2254  -21.0742   21.4825 H   0  0  0  0  0  0
  -31.2040  -21.0641   19.7945 H   0  0  0  0  0  0
  -29.9051  -15.6324   18.1540 H   0  0  0  0  0  0
  -30.8771  -16.9266   18.8194 H   0  0  0  0  0  0
  -29.1122  -17.0734   18.7571 H   0  0  0  0  0  0
  -28.5981  -16.5213   21.8039 H   0  0  0  0  0  0
  -30.2792  -16.7636   22.1409 H   0  0  0  0  0  0
  -27.3105  -23.5585   20.7421 H   0  0  0  0  0  0
  -28.6574  -24.1725   21.6744 H   0  0  0  0  0  0
  -27.8750  -24.9861   18.8188 H   0  0  0  0  0  0
  -29.4964  -25.1209   19.3262 H   0  0  0  0  0  0
  -30.0894  -23.0413   19.8077 H   0  0  0  0  0  0
  1 25  1  0  0  0
  1 30  2  0  0  0
  1 82  1  0  0  0
  2  3  1  0  0  0
  2 25  1  0  0  0
  2 83  1  0  0  0
  2 84  1  0  0  0
  3  4  1  0  0  0
  3 85  1  0  0  0
  3 86  1  0  0  0
  4  5  1  0  0  0
  4 87  1  0  0  0
  4 88  1  0  0  0
  5  6  1  0  0  0
  5 26  1  0  0  0
  5 89  1  0  0  0
  6 25  1  0  0  0
  6 90  1  0  0  0
  6 91  1  0  0  0
  7  8  2  0  0  0
  7 26  1  0  0  0
  7 29  1  0  0  0
  8  9  1  0  0  0
  8 22  1  0  0  0
  9 10  1  0  0  0
  9 27  2  0  0  0
 10 11  2  0  0  0
 10 15  1  0  0  0
 11 12  1  0  0  0
 11 92  1  0  0  0
 12 13  2  0  0  0
 12 93  1  0  0  0
 13 14  1  0  0  0
 13 31  1  0  0  0
 14 15  2  0  0  0
 14 94  1  0  0  0
 15 95  1  0  0  0
 16 17  2  0  0  0
 16 21  1  0  0  0
 16 31  1  0  0  0
 17 18  1  0  0  0
 17 96  1  0  0  0
 18 19  2  0  0  0
 18 97  1  0  0  0
 19 20  1  0  0  0
 19 24  1  0  0  0
 20 21  2  0  0  0
 20 98  1  0  0  0
 21 23  1  0  0  0
 22 28  1  0  0  0
 22 32  2  0  0  0
 26 27  1  0  0  0
 28 99  1  0  0  0
 28100  1  0  0  0
 29101  1  0  0  0
 29102  1  0  0  0
 33 34  1  0  0  0
 33 66  1  0  0  0
 33 70  2  0  0  0
 34 36  1  0  0  0
 34 59  1  0  0  0
 34103  1  0  0  0
 35 44  2  0  0  0
 35 45  1  0  0  0
 35 68  1  0  0  0
 36 56  1  0  0  0
 36104  1  0  0  0
 37 39  1  0  0  0
 37 47  1  0  0  0
 37 66  1  0  0  0
 37105  1  0  0  0
 38 43  2  0  0  0
 38 46  1  0  0  0
 38 47  1  0  0  0
 39 64  1  0  0  0
 39 67  2  0  0  0
 40 52  1  0  0  0
 40 53  2  0  0  0
 40 58  1  0  0  0
 41106  1  0  0  0
 41107  1  0  0  0
 41108  1  0  0  0
 41 48  1  0  0  0
 42 43  1  0  0  0
 42 66  1  0  0  0
 42109  1  0  0  0
 42110  1  0  0  0
 43 44  1  0  0  0
 44111  1  0  0  0
 45 46  2  0  0  0
 45112  1  0  0  0
 46113  1  0  0  0
 47114  1  0  0  0
 47115  1  0  0  0
 48 56  1  0  0  0
 48 65  1  0  0  0
 48116  1  0  0  0
 49 50  1  0  0  0
 49 53  1  0  0  0
 49 64  1  0  0  0
 49117  1  0  0  0
 50 51  1  0  0  0
 50118  1  0  0  0
 50119  1  0  0  0
 51 52  1  0  0  0
 51120  1  0  0  0
 51121  1  0  0  0
 52122  1  0  0  0
 52123  1  0  0  0
 53 54  1  0  0  0
 54 55  2  0  0  0
 54124  1  0  0  0
 55 57  1  0  0  0
 55125  1  0  0  0
 56 69  2  0  0  0
 57 58  2  0  0  0
 57126  1  0  0  0
 58127  1  0  0  0
 59 60  1  0  0  0
 59 61  1  0  0  0
 59 62  1  0  0  0
 60128  1  0  0  0
 60129  1  0  0  0
 60130  1  0  0  0
 61131  1  0  0  0
 61132  1  0  0  0
 61133  1  0  0  0
 62134  1  0  0  0
 62135  1  0  0  0
 62136  1  0  0  0
 63 65  1  0  0  0
 63137  1  0  0  0
 63138  1  0  0  0
 63139  1  0  0  0
 64140  1  0  0  0
 65141  1  0  0  0
 68 80  1  0  0  0
 71 73  2  0  0  0
 71 75  1  0  0  0
 71142  1  0  0  0
 72 74  1  0  0  0
 72 75  2  0  0  0
 72143  1  0  0  0
 73 76  1  0  0  0
 73144  1  0  0  0
 74 76  2  0  0  0
 74145  1  0  0  0
 75 78  1  0  0  0
 76 81  1  0  0  0
 77 82  1  0  0  0
 77146  1  0  0  0
 77147  1  0  0  0
 77148  1  0  0  0
 78 82  1  0  0  0
 78149  1  0  0  0
 78150  1  0  0  0
 79 80  1  0  0  0
 79 81  1  0  0  0
 79151  1  0  0  0
 79152  1  0  0  0
 80153  1  0  0  0
 80154  1  0  0  0
 81155  1  0  0  0
M  ISO  4   1 100  68 101  80 101  82 100
M  END
> <chiral flag>
0

> <version>
0

> <s_m_source_file>
/data/baiqing/PycharmProjects/Reinvent-master-3.2/result/LINK_invent/BTK/process_docking_weight1_custom_product_contain_oxygen_bond_distance_aromatic_linkinvent_7_9_3/rearranged_h_0018.sdf

> <i_m_source_file_index>
45

> <r_mmod_Potential_Energy-OPLS-2005>
237.70915222168

> <r_mmod_Stretch_Energy-OPLS-2005>
87.9696731567383

> <r_mmod_Bend_Energy-OPLS-2005>
183.502593994141

> <r_mmod_Torsional_Energy-OPLS-2005>
271.560668945312

> <r_mmod_Improper_Torsional_Energy-OPLS-2005>
20.6355228424072

> <r_mmod_Van_der_Waal_Energy-OPLS-2005>
138.258041381836

> <r_mmod_Electrostatic_Energy-OPLS-2005>
-316.160308837891

> <r_mmod_Solvation_Energy-OPLS-2005>
-206.954437255859

> <b_mmod_Minimization_Converged-OPLS-2005>
0

> <r_mmod_RMS_Derivative-OPLS-2005>
6.12823820114136

$$$$
45
                    3D
 Structure written by MMmdl.
163172  0  0  1  0            999 V2000
  -30.6577  -14.6274   20.5761 C   0  0  0  0  0  0
  -30.4275  -12.4112   19.4407 C   0  0  0  0  0  0
  -29.4994  -12.5258   18.2111 C   0  0  0  0  0  0
  -28.0216  -12.3609   18.6180 C   0  0  0  0  0  0
  -27.6483  -13.2198   19.8530 C   0  0  2  0  0  0
  -28.6851  -13.0522   20.9779 C   0  0  0  0  0  0
  -25.2546  -13.8187   20.5665 C   0  0  0  0  0  0
  -24.1820  -13.0436   20.9182 C   0  0  0  0  0  0
  -24.6401  -11.6921   20.8733 C   0  0  0  0  0  0
  -23.9079  -10.4300   21.0412 C   0  0  0  0  0  0
  -24.3625   -9.4215   21.9197 C   0  0  0  0  0  0
  -23.6292   -8.2248   22.0769 C   0  0  0  0  0  0
  -22.4278   -8.0289   21.3542 C   0  0  0  0  0  0
  -21.9923   -9.0268   20.4637 C   0  0  0  0  0  0
  -22.7257  -10.2141   20.3053 C   0  0  0  0  0  0
  -21.6856   -6.0740   22.5287 C   0  0  0  0  0  0
  -21.4012   -6.5645   23.8217 C   0  0  0  0  0  0
  -21.3658   -5.6795   24.9180 C   0  0  0  0  0  0
  -21.6052   -4.3057   24.7230 C   0  0  0  0  0  0
  -21.8824   -3.8148   23.4352 C   0  0  0  0  0  0
  -21.9192   -4.6966   22.3409 C   0  0  0  0  0  0
  -22.7838  -13.5217   21.1857 C   0  0  0  0  0  0
  -22.1664   -4.2150   21.0981 F   0  0  0  0  0  0
  -21.5625   -3.4538   25.7741 F   0  0  0  0  0  0
  -30.0040  -13.4213   20.4364 N   0  0  0  0  0  0
  -26.2951  -12.9367   20.3231 N   0  0  0  0  0  0
  -25.9314  -11.6523   20.5702 N   0  0  0  0  0  0
  -22.0481  -12.8167   22.0386 N   0  0  0  0  0  0
  -25.4282  -15.1905   20.4119 N   0  0  0  0  0  0
  -31.7582  -14.8035   20.0425 O   0  0  0  0  0  0
  -21.6629   -6.8888   21.4245 O   0  0  0  0  0  0
  -22.3524  -14.5530   20.6733 O   0  0  0  0  0  0
  -24.6284  -31.8584   23.1986 C   0  0  0  0  0  0
  -25.9124  -32.4764   23.8336 C   0  0  1  0  0  0
  -27.2305  -27.3091   20.1233 C   0  0  0  0  0  0
  -25.5928  -33.8561   24.2242 N   0  0  0  0  0  0
  -23.4219  -30.4785   21.5422 C   0  0  2  0  0  0
  -24.8692  -28.9244   20.1172 C   0  0  0  0  0  0
  -22.7469  -29.4615   22.4929 C   0  0  0  0  0  0
  -18.0279  -28.1404   22.8484 C   0  0  0  0  0  0
  -24.1474  -36.7284   23.2629 C   0  0  0  0  0  0
  -25.9619  -30.7878   21.3658 C   0  0  0  0  0  0
  -26.0388  -29.4104   20.7162 C   0  0  0  0  0  0
  -27.2240  -28.6159   20.7051 C   0  0  0  0  0  0
  -26.0390  -26.8723   19.5050 C   0  0  0  0  0  0
  -24.8708  -27.6610   19.5043 C   0  0  0  0  0  0
  -23.6376  -29.8063   20.1614 C   0  0  0  0  0  0
  -25.4105  -36.3066   24.0310 C   0  0  1  0  0  0
  -20.5877  -28.3717   23.1274 C   0  0  2  0  0  0
  -20.6768  -26.9437   22.5418 C   0  0  0  0  0  0
  -19.5754  -26.6408   21.5210 C   0  0  0  0  0  0
  -18.1921  -26.7954   22.1611 C   0  0  0  0  0  0
  -19.1532  -28.8876   23.2870 C   0  0  0  0  0  0
  -18.9456  -30.1468   23.8908 C   0  0  0  0  0  0
  -17.6465  -30.6603   24.0581 C   0  0  0  0  0  0
  -25.9062  -34.9442   23.5078 C   0  0  0  0  0  0
  -16.5351  -29.9106   23.6339 C   0  0  0  0  0  0
  -16.7270  -28.6517   23.0360 C   0  0  0  0  0  0
  -26.4516  -31.6579   25.0706 C   0  0  0  0  0  0
  -25.3747  -31.3690   26.1413 C   0  0  0  0  0  0
  -27.0380  -30.3006   24.6168 C   0  0  0  0  0  0
  -27.6039  -32.4338   25.7517 C   0  0  0  0  0  0
  -27.5590  -37.1770   24.8439 C   0  0  0  0  0  0
  -21.4177  -29.3061   22.3659 N   0  0  0  0  0  0
  -26.4258  -37.3790   23.9443 N   0  0  0  0  0  0
  -24.6904  -31.0583   22.0940 N   0  0  0  0  0  0
  -23.4178  -28.8165   23.3027 O   0  0  0  0  0  0
  -28.3618  -26.4784   20.1126 O   0  0  0  0  0  0
  -26.5643  -34.8923   22.4655 O   0  0  0  0  0  0
  -23.5439  -32.1374   23.7311 O   0  0  0  0  0  0
  -29.9929  -18.9681   19.3104 C   0  0  0  0  0  0
  -30.2342  -17.6017   19.6657 C   0  0  0  0  0  0
  -28.8510  -19.3239   21.3793 C   0  0  0  0  0  0
  -29.2865  -19.8749   20.1515 C   0  0  0  0  0  0
  -29.8073  -17.0404   20.9061 C   0  0  0  0  0  0
  -29.0991  -17.9681   21.7466 C   0  0  0  0  0  0
  -31.2703  -23.8525   20.8977 C   0  0  0  0  0  0
  -30.5782  -24.4247   19.6666 C   0  0  0  0  0  0
  -30.6382  -22.4686   21.0317 C   0  0  0  0  0  0
  -29.1239  -23.9407   19.8121 C   0  0  2  0  0  0
  -30.0717  -15.3445   22.7675 C   0  0  0  0  0  0
  -28.8934  -21.3344   19.6737 C   0  0  0  0  0  0
  -28.2368  -25.0600   20.5509 C   0  0  0  0  0  0
  -30.0656  -15.6290   21.3203 N   0  0  0  0  0  0
  -29.2543  -22.5646   20.4960 N   0  3  1  0  0  0
  -28.5984  -17.5779   22.9419 F   0  0  0  0  0  0
  -31.4659  -12.5387   19.1344 H   0  0  0  0  0  0
  -30.3696  -11.4101   19.8719 H   0  0  0  0  0  0
  -29.7645  -11.7775   17.4624 H   0  0  0  0  0  0
  -29.6403  -13.4969   17.7351 H   0  0  0  0  0  0
  -27.8502  -11.3057   18.8321 H   0  0  0  0  0  0
  -27.3712  -12.6063   17.7776 H   0  0  0  0  0  0
  -27.6751  -14.2616   19.5341 H   0  0  0  0  0  0
  -28.6964  -12.0195   21.3307 H   0  0  0  0  0  0
  -28.3867  -13.6473   21.8345 H   0  0  0  0  0  0
  -25.2774   -9.5679   22.4782 H   0  0  0  0  0  0
  -23.9999   -7.4641   22.7495 H   0  0  0  0  0  0
  -21.0871   -8.8796   19.8931 H   0  0  0  0  0  0
  -22.3739  -10.9685   19.6167 H   0  0  0  0  0  0
  -21.2006   -7.6153   23.9706 H   0  0  0  0  0  0
  -21.1475   -6.0529   25.9076 H   0  0  0  0  0  0
  -22.0600   -2.7613   23.2850 H   0  0  0  0  0  0
  -22.4101  -11.9808   22.4730 H   0  0  0  0  0  0
  -21.1090  -13.1168   22.2584 H   0  0  0  0  0  0
  -24.6717  -15.8545   20.5396 H   0  0  0  0  0  0
  -26.2922  -15.6277   20.1147 H   0  0  0  0  0  0
  -26.7190  -32.5441   23.1085 H   0  0  0  0  0  0
  -25.0050  -33.9701   25.0372 H   0  0  0  0  0  0
  -22.7161  -31.2989   21.3957 H   0  0  0  0  0  0
  -23.3791  -35.9553   23.3162 H   0  0  0  0  0  0
  -24.3590  -36.9078   22.2079 H   0  0  0  0  0  0
  -23.7155  -37.6397   23.6776 H   0  0  0  0  0  0
  -26.0815  -31.5449   20.5915 H   0  0  0  0  0  0
  -26.8452  -30.8473   21.9906 H   0  0  0  0  0  0
  -28.1263  -28.9889   21.1700 H   0  0  0  0  0  0
  -25.9997  -25.9104   19.0138 H   0  0  0  0  0  0
  -23.9740  -27.2844   19.0318 H   0  0  0  0  0  0
  -23.7539  -30.5782   19.3998 H   0  0  0  0  0  0
  -22.7578  -29.2333   19.8656 H   0  0  0  0  0  0
  -25.1273  -36.1884   25.0796 H   0  0  0  0  0  0
  -20.9962  -28.3317   24.1400 H   0  0  0  0  0  0
  -20.5675  -26.2329   23.3616 H   0  0  0  0  0  0
  -21.6638  -26.7468   22.1231 H   0  0  0  0  0  0
  -19.6924  -25.6317   21.1252 H   0  0  0  0  0  0
  -19.6694  -27.3209   20.6727 H   0  0  0  0  0  0
  -17.4199  -26.6706   21.3998 H   0  0  0  0  0  0
  -18.0307  -26.0081   22.8995 H   0  0  0  0  0  0
  -19.7925  -30.7272   24.2286 H   0  0  0  0  0  0
  -17.5021  -31.6277   24.5207 H   0  0  0  0  0  0
  -15.5352  -30.3028   23.7644 H   0  0  0  0  0  0
  -15.8659  -28.0843   22.7088 H   0  0  0  0  0  0
  -24.5953  -30.7002   25.7738 H   0  0  0  0  0  0
  -24.8893  -32.2830   26.4826 H   0  0  0  0  0  0
  -25.8074  -30.8889   27.0194 H   0  0  0  0  0  0
  -26.2951  -29.6730   24.1221 H   0  0  0  0  0  0
  -27.4107  -29.7285   25.4678 H   0  0  0  0  0  0
  -27.8807  -30.4291   23.9369 H   0  0  0  0  0  0
  -27.2632  -33.3677   26.2007 H   0  0  0  0  0  0
  -28.3916  -32.6837   25.0398 H   0  0  0  0  0  0
  -28.0627  -31.8521   26.5521 H   0  0  0  0  0  0
  -28.2476  -38.0197   24.7678 H   0  0  0  0  0  0
  -28.1210  -36.2738   24.6019 H   0  0  0  0  0  0
  -27.2333  -37.1127   25.8834 H   0  0  0  0  0  0
  -20.9354  -29.8757   21.6845 H   0  0  0  0  0  0
  -26.0114  -38.2819   24.1597 H   0  0  0  0  0  0
  -30.3349  -19.3113   18.3429 H   0  0  0  0  0  0
  -30.7667  -16.9854   18.9548 H   0  0  0  0  0  0
  -28.2816  -19.9375   22.0611 H   0  0  0  0  0  0
  -31.0383  -24.4541   21.7774 H   0  0  0  0  0  0
  -32.3561  -23.8090   20.7988 H   0  0  0  0  0  0
  -31.0214  -23.9925   18.7670 H   0  0  0  0  0  0
  -30.6819  -25.5063   19.5859 H   0  0  0  0  0  0
  -30.6475  -22.1039   22.0598 H   0  0  0  0  0  0
  -31.2297  -21.7675   20.4380 H   0  0  0  0  0  0
  -28.6967  -23.8099   18.8175 H   0  0  0  0  0  0
  -30.6184  -16.1175   23.3073 H   0  0  0  0  0  0
  -30.5449  -14.3956   23.0315 H   0  0  0  0  0  0
  -29.0573  -15.3061   23.1652 H   0  0  0  0  0  0
  -27.8152  -21.3498   19.5143 H   0  0  0  0  0  0
  -29.3314  -21.4723   18.6846 H   0  0  0  0  0  0
  -28.5052  -25.0597   21.6073 H   0  0  0  0  0  0
  -27.1975  -24.7353   20.5322 H   0  0  0  0  0  0
  -28.6322  -22.5560   21.2923 H   0  0  0  0  0  0
  1 25  1  0  0  0
  1 30  2  0  0  0
  1 84  1  0  0  0
  2  3  1  0  0  0
  2 25  1  0  0  0
  2 87  1  0  0  0
  2 88  1  0  0  0
  3  4  1  0  0  0
  3 89  1  0  0  0
  3 90  1  0  0  0
  4  5  1  0  0  0
  4 91  1  0  0  0
  4 92  1  0  0  0
  5  6  1  0  0  0
  5 26  1  0  0  0
  5 93  1  0  0  0
  6 25  1  0  0  0
  6 94  1  0  0  0
  6 95  1  0  0  0
  7  8  2  0  0  0
  7 26  1  0  0  0
  7 29  1  0  0  0
  8  9  1  0  0  0
  8 22  1  0  0  0
  9 10  1  0  0  0
  9 27  2  0  0  0
 10 11  2  0  0  0
 10 15  1  0  0  0
 11 12  1  0  0  0
 11 96  1  0  0  0
 12 13  2  0  0  0
 12 97  1  0  0  0
 13 14  1  0  0  0
 13 31  1  0  0  0
 14 15  2  0  0  0
 14 98  1  0  0  0
 15 99  1  0  0  0
 16 17  2  0  0  0
 16 21  1  0  0  0
 16 31  1  0  0  0
 17 18  1  0  0  0
 17100  1  0  0  0
 18 19  2  0  0  0
 18101  1  0  0  0
 19 20  1  0  0  0
 19 24  1  0  0  0
 20 21  2  0  0  0
 20102  1  0  0  0
 21 23  1  0  0  0
 22 28  1  0  0  0
 22 32  2  0  0  0
 26 27  1  0  0  0
 28103  1  0  0  0
 28104  1  0  0  0
 29105  1  0  0  0
 29106  1  0  0  0
 33 34  1  0  0  0
 33 66  1  0  0  0
 33 70  2  0  0  0
 34 36  1  0  0  0
 34 59  1  0  0  0
 34107  1  0  0  0
 35 44  2  0  0  0
 35 45  1  0  0  0
 35 68  1  0  0  0
 36 56  1  0  0  0
 36108  1  0  0  0
 37 39  1  0  0  0
 37 47  1  0  0  0
 37 66  1  0  0  0
 37109  1  0  0  0
 38 43  2  0  0  0
 38 46  1  0  0  0
 38 47  1  0  0  0
 39 64  1  0  0  0
 39 67  2  0  0  0
 40 52  1  0  0  0
 40 53  2  0  0  0
 40 58  1  0  0  0
 41110  1  0  0  0
 41111  1  0  0  0
 41112  1  0  0  0
 41 48  1  0  0  0
 42 43  1  0  0  0
 42 66  1  0  0  0
 42113  1  0  0  0
 42114  1  0  0  0
 43 44  1  0  0  0
 44115  1  0  0  0
 45 46  2  0  0  0
 45116  1  0  0  0
 46117  1  0  0  0
 47118  1  0  0  0
 47119  1  0  0  0
 48 56  1  0  0  0
 48 65  1  0  0  0
 48120  1  0  0  0
 49 50  1  0  0  0
 49 53  1  0  0  0
 49 64  1  0  0  0
 49121  1  0  0  0
 50 51  1  0  0  0
 50122  1  0  0  0
 50123  1  0  0  0
 51 52  1  0  0  0
 51124  1  0  0  0
 51125  1  0  0  0
 52126  1  0  0  0
 52127  1  0  0  0
 53 54  1  0  0  0
 54 55  2  0  0  0
 54128  1  0  0  0
 55 57  1  0  0  0
 55129  1  0  0  0
 56 69  2  0  0  0
 57 58  2  0  0  0
 57130  1  0  0  0
 58131  1  0  0  0
 59 60  1  0  0  0
 59 61  1  0  0  0
 59 62  1  0  0  0
 60132  1  0  0  0
 60133  1  0  0  0
 60134  1  0  0  0
 61135  1  0  0  0
 61136  1  0  0  0
 61137  1  0  0  0
 62138  1  0  0  0
 62139  1  0  0  0
 62140  1  0  0  0
 63 65  1  0  0  0
 63141  1  0  0  0
 63142  1  0  0  0
 63143  1  0  0  0
 64144  1  0  0  0
 65145  1  0  0  0
 68 83  1  0  0  0
 71 72  2  0  0  0
 71 74  1  0  0  0
 71146  1  0  0  0
 72 75  1  0  0  0
 72147  1  0  0  0
 73 74  2  0  0  0
 73 76  1  0  0  0
 73148  1  0  0  0
 74 82  1  0  0  0
 75 76  2  0  0  0
 75 84  1  0  0  0
 76 86  1  0  0  0
 77 78  1  0  0  0
 77 79  1  0  0  0
 77149  1  0  0  0
 77150  1  0  0  0
 78 80  1  0  0  0
 78151  1  0  0  0
 78152  1  0  0  0
 79 85  1  0  0  0
 79153  1  0  0  0
 79154  1  0  0  0
 80 83  1  0  0  0
 80 85  1  0  0  0
 80155  1  0  0  0
 81 84  1  0  0  0
 81156  1  0  0  0
 81157  1  0  0  0
 81158  1  0  0  0
 82159  1  0  0  0
 82160  1  0  0  0
 82 85  1  0  0  0
 83161  1  0  0  0
 83162  1  0  0  0
 85163  1  0  0  0
M  CHG  1  85   1
M  ISO  4   1 100  68 101  83 101  84 100
M  END
> <chiral flag>
0

> <version>
0

> <s_m_source_file>
/data/baiqing/PycharmProjects/Reinvent-master-3.2/result/LINK_invent/BTK/process_docking_weight1_custom_product_contain_oxygen_bond_distance_aromatic_linkinvent_7_9_3/rearranged_h_0018.sdf

> <i_m_source_file_index>
46

> <r_mmod_Potential_Energy-OPLS-2005>
236.419052124023

> <r_mmod_Stretch_Energy-OPLS-2005>
101.532073974609

> <r_mmod_Bend_Energy-OPLS-2005>
172.996597290039

> <r_mmod_Torsional_Energy-OPLS-2005>
350.48681640625

> <r_mmod_Improper_Torsional_Energy-OPLS-2005>
3.00839710235596

> <r_mmod_Van_der_Waal_Energy-OPLS-2005>
150.268539428711

> <r_mmod_Electrostatic_Energy-OPLS-2005>
-166.404296875

> <r_mmod_Solvation_Energy-OPLS-2005>
-419.643768310547

> <b_mmod_Minimization_Converged-OPLS-2005>
0

> <r_mmod_RMS_Derivative-OPLS-2005>
2.70439553260803

$$$$
46
                    3D
 Structure written by MMmdl.
165174  0  0  1  0            999 V2000
  -30.7380  -14.6932   20.2770 C   0  0  0  0  0  0
  -30.4166  -12.3989   19.4304 C   0  0  0  0  0  0
  -29.4688  -12.3066   18.2185 C   0  0  0  0  0  0
  -27.9937  -12.2617   18.6561 C   0  0  0  0  0  0
  -27.6231  -13.2208   19.8233 C   0  0  2  0  0  0
  -28.7064  -13.2645   20.9177 C   0  0  0  0  0  0
  -25.2501  -13.8187   20.5812 C   0  0  0  0  0  0
  -24.1774  -13.0442   20.9276 C   0  0  0  0  0  0
  -24.6353  -11.6917   20.8845 C   0  0  0  0  0  0
  -23.9037  -10.4292   21.0455 C   0  0  0  0  0  0
  -24.3597   -9.4196   21.9214 C   0  0  0  0  0  0
  -23.6281   -8.2226   22.0760 C   0  0  0  0  0  0
  -22.4267   -8.0270   21.3542 C   0  0  0  0  0  0
  -21.9905   -9.0247   20.4649 C   0  0  0  0  0  0
  -22.7225  -10.2135   20.3081 C   0  0  0  0  0  0
  -21.6844   -6.0730   22.5276 C   0  0  0  0  0  0
  -21.4009   -6.5636   23.8209 C   0  0  0  0  0  0
  -21.3658   -5.6790   24.9173 C   0  0  0  0  0  0
  -21.6047   -4.3053   24.7224 C   0  0  0  0  0  0
  -21.8820   -3.8145   23.4344 C   0  0  0  0  0  0
  -21.9190   -4.6961   22.3400 C   0  0  0  0  0  0
  -22.7794  -13.5229   21.1882 C   0  0  0  0  0  0
  -22.1659   -4.2147   21.0977 F   0  0  0  0  0  0
  -21.5632   -3.4538   25.7738 F   0  0  0  0  0  0
  -29.9879  -13.5422   20.2544 N   0  0  0  0  0  0
  -26.2908  -12.9364   20.3423 N   0  0  0  0  0  0
  -25.9291  -11.6529   20.5952 N   0  0  0  0  0  0
  -22.0423  -12.8225   22.0427 N   0  0  0  0  0  0
  -25.4212  -15.1912   20.4225 N   0  0  0  0  0  0
  -31.9305  -14.5602   20.5276 O   0  0  0  0  0  0
  -21.6629   -6.8871   21.4237 O   0  0  0  0  0  0
  -22.3494  -14.5529   20.6707 O   0  0  0  0  0  0
  -24.6224  -31.8623   23.2042 C   0  0  0  0  0  0
  -25.9085  -32.4792   23.8365 C   0  0  1  0  0  0
  -27.2203  -27.3516   20.1287 C   0  0  0  0  0  0
  -25.5914  -33.8590   24.2295 N   0  0  0  0  0  0
  -23.4144  -30.4847   21.5461 C   0  0  2  0  0  0
  -24.8606  -28.9389   20.1155 C   0  0  0  0  0  0
  -22.7453  -29.4635   22.4958 C   0  0  0  0  0  0
  -18.0282  -28.1383   22.8493 C   0  0  0  0  0  0
  -24.1486  -36.7300   23.2641 C   0  0  0  0  0  0
  -25.9504  -30.8055   21.3674 C   0  0  0  0  0  0
  -26.0265  -29.4333   20.7151 C   0  0  0  0  0  0
  -27.2139  -28.6513   20.7087 C   0  0  0  0  0  0
  -26.0390  -26.8938   19.5128 C   0  0  0  0  0  0
  -24.8664  -27.6734   19.5051 C   0  0  0  0  0  0
  -23.6273  -29.8164   20.1618 C   0  0  0  0  0  0
  -25.4110  -36.3092   24.0332 C   0  0  1  0  0  0
  -20.5879  -28.3683   23.1296 C   0  0  2  0  0  0
  -20.6769  -26.9411   22.5414 C   0  0  0  0  0  0
  -19.5744  -26.6387   21.5215 C   0  0  0  0  0  0
  -18.1924  -26.7930   22.1626 C   0  0  0  0  0  0
  -19.1534  -28.8851   23.2889 C   0  0  0  0  0  0
  -18.9458  -30.1455   23.8902 C   0  0  0  0  0  0
  -17.6457  -30.6587   24.0568 C   0  0  0  0  0  0
  -25.9045  -34.9459   23.5115 C   0  0  0  0  0  0
  -16.5348  -29.9088   23.6330 C   0  0  0  0  0  0
  -16.7270  -28.6505   23.0352 C   0  0  0  0  0  0
  -26.4486  -31.6592   25.0724 C   0  0  0  0  0  0
  -25.3734  -31.3707   26.1462 C   0  0  0  0  0  0
  -27.0335  -30.3031   24.6144 C   0  0  0  0  0  0
  -27.6054  -32.4324   25.7487 C   0  0  0  0  0  0
  -27.5577  -37.1805   24.8467 C   0  0  0  0  0  0
  -21.4172  -29.3039   22.3695 N   0  0  0  0  0  0
  -26.4292  -37.3783   23.9408 N   0  0  0  0  0  0
  -24.6811  -31.0668   22.0971 N   0  0  0  0  0  0
  -23.4194  -28.8180   23.3027 O   0  0  0  0  0  0
  -28.3455  -26.5344   20.1336 O   0  0  0  0  0  0
  -26.5611  -34.8920   22.4679 O   0  0  0  0  0  0
  -23.5397  -32.1401   23.7394 O   0  0  0  0  0  0
  -28.4126  -17.7102   19.4518 C   0  0  0  0  0  0
  -27.9718  -19.0546   19.5529 C   0  0  0  0  0  0
  -29.7808  -19.5465   21.0435 C   0  0  0  0  0  0
  -29.6240  -17.2615   20.0459 C   0  0  0  0  0  0
  -28.6898  -20.0462   20.2753 C   0  0  0  0  0  0
  -30.2275  -18.1912   20.9458 C   0  0  0  0  0  0
  -28.9133  -22.6002   20.6249 C   0  0  0  0  0  0
  -27.0949  -23.4020   19.3138 C   0  0  0  0  0  0
  -27.2445  -21.8732   19.2249 C   0  0  0  0  0  0
  -28.3889  -23.9091   19.9476 C   0  0  1  0  0  0
  -29.8080  -15.6314   18.0462 C   0  0  0  0  0  0
  -28.2394  -25.2322   20.8099 C   0  0  0  0  0  0
  -31.8224  -16.6261   18.9701 C   0  0  0  0  0  0
  -30.4201  -16.0362   19.4168 C   0  0  2  0  0  0
  -28.3132  -21.4682   20.1443 N   0  0  0  0  0  0
  -31.7580  -17.8096   18.0806 N   0  3  0  0  0  0
  -29.7903  -22.6314   21.4931 O   0  0  0  0  0  0
  -31.3318  -17.8296   21.6392 F   0  0  0  0  0  0
  -31.4480  -12.4977   19.0865 H   0  0  0  0  0  0
  -30.3805  -11.4804   20.0187 H   0  0  0  0  0  0
  -29.6977  -11.3960   17.6627 H   0  0  0  0  0  0
  -29.6240  -13.0965   17.4964 H   0  0  0  0  0  0
  -27.8085  -11.2326   18.9645 H   0  0  0  0  0  0
  -27.3390  -12.4352   17.8014 H   0  0  0  0  0  0
  -27.5588  -14.2180   19.4047 H   0  0  0  0  0  0
  -28.7529  -12.3210   21.4635 H   0  0  0  0  0  0
  -28.4798  -14.0430   21.6481 H   0  0  0  0  0  0
  -25.2734   -9.5672   22.4800 H   0  0  0  0  0  0
  -23.9993   -7.4608   22.7469 H   0  0  0  0  0  0
  -21.0844   -8.8762   19.8942 H   0  0  0  0  0  0
  -22.3682  -10.9682   19.6198 H   0  0  0  0  0  0
  -21.1998   -7.6144   23.9713 H   0  0  0  0  0  0
  -21.1483   -6.0521   25.9077 H   0  0  0  0  0  0
  -22.0601   -2.7607   23.2842 H   0  0  0  0  0  0
  -22.4031  -11.9889   22.4827 H   0  0  0  0  0  0
  -21.1036  -13.1247   22.2609 H   0  0  0  0  0  0
  -24.6605  -15.8490   20.5535 H   0  0  0  0  0  0
  -26.2922  -15.6379   20.1670 H   0  0  0  0  0  0
  -26.7158  -32.5477   23.1123 H   0  0  0  0  0  0
  -25.0070  -33.9742   25.0444 H   0  0  0  0  0  0
  -22.7067  -31.3039   21.4034 H   0  0  0  0  0  0
  -23.3747  -35.9635   23.3312 H   0  0  0  0  0  0
  -24.3577  -36.8913   22.2055 H   0  0  0  0  0  0
  -23.7239  -37.6503   23.6660 H   0  0  0  0  0  0
  -26.0730  -31.5678   20.5969 H   0  0  0  0  0  0
  -26.8340  -30.8584   21.9919 H   0  0  0  0  0  0
  -28.1139  -29.0276   21.1748 H   0  0  0  0  0  0
  -26.0188  -25.9250   19.0383 H   0  0  0  0  0  0
  -23.9724  -27.2893   19.0331 H   0  0  0  0  0  0
  -23.7442  -30.5910   19.4030 H   0  0  0  0  0  0
  -22.7480  -29.2432   19.8623 H   0  0  0  0  0  0
  -25.1287  -36.1952   25.0824 H   0  0  0  0  0  0
  -20.9969  -28.3258   24.1418 H   0  0  0  0  0  0
  -20.5676  -26.2293   23.3609 H   0  0  0  0  0  0
  -21.6637  -26.7447   22.1205 H   0  0  0  0  0  0
  -19.6905  -25.6301   21.1240 H   0  0  0  0  0  0
  -19.6680  -27.3202   20.6749 H   0  0  0  0  0  0
  -17.4193  -26.6687   21.4026 H   0  0  0  0  0  0
  -18.0317  -26.0069   22.9018 H   0  0  0  0  0  0
  -19.7931  -30.7273   24.2272 H   0  0  0  0  0  0
  -17.5009  -31.6266   24.5172 H   0  0  0  0  0  0
  -15.5349  -30.2990   23.7650 H   0  0  0  0  0  0
  -15.8670  -28.0826   22.7062 H   0  0  0  0  0  0
  -24.5911  -30.7053   25.7790 H   0  0  0  0  0  0
  -24.8918  -32.2861   26.4909 H   0  0  0  0  0  0
  -25.8072  -30.8873   27.0225 H   0  0  0  0  0  0
  -26.2900  -29.6774   24.1191 H   0  0  0  0  0  0
  -27.4087  -29.7288   25.4625 H   0  0  0  0  0  0
  -27.8741  -30.4345   23.9325 H   0  0  0  0  0  0
  -27.2677  -33.3625   26.2067 H   0  0  0  0  0  0
  -28.3856  -32.6881   25.0305 H   0  0  0  0  0  0
  -28.0733  -31.8448   26.5396 H   0  0  0  0  0  0
  -28.2600  -38.0097   24.7510 H   0  0  0  0  0  0
  -28.1067  -36.2628   24.6299 H   0  0  0  0  0  0
  -27.2296  -37.1463   25.8871 H   0  0  0  0  0  0
  -20.9348  -29.8763   21.6908 H   0  0  0  0  0  0
  -26.0177  -38.2859   24.1408 H   0  0  0  0  0  0
  -27.8516  -17.0720   18.7858 H   0  0  0  0  0  0
  -27.0953  -19.3186   18.9790 H   0  0  0  0  0  0
  -30.3511  -20.2136   21.6722 H   0  0  0  0  0  0
  -26.2396  -23.6490   19.9447 H   0  0  0  0  0  0
  -26.9182  -23.8452   18.3335 H   0  0  0  0  0  0
  -27.5180  -21.5824   18.2092 H   0  0  0  0  0  0
  -26.3013  -21.3850   19.4740 H   0  0  0  0  0  0
  -29.1124  -24.1123   19.1578 H   0  0  0  0  0  0
  -29.6457  -16.4825   17.3856 H   0  0  0  0  0  0
  -28.8459  -15.1443   18.1206 H   0  0  0  0  0  0
  -30.4841  -14.9755   17.5005 H   0  0  0  0  0  0
  -29.0361  -25.2374   21.5543 H   0  0  0  0  0  0
  -27.3218  -25.1838   21.3989 H   0  0  0  0  0  0
  -32.4063  -15.8698   18.4403 H   0  0  0  0  0  0
  -32.4393  -16.9023   19.8250 H   0  0  0  0  0  0
  -31.2783  -17.5867   17.2264 H   0  0  0  0  0  0
  -32.6892  -18.1061   17.8438 H   0  0  0  0  0  0
  -31.2888  -18.5775   18.5256 H   0  0  0  0  0  0
  1 25  1  0  0  0
  1 30  2  0  0  0
  1 84  1  0  0  0
  2  3  1  0  0  0
  2 25  1  0  0  0
  2 89  1  0  0  0
  2 90  1  0  0  0
  3  4  1  0  0  0
  3 91  1  0  0  0
  3 92  1  0  0  0
  4  5  1  0  0  0
  4 93  1  0  0  0
  4 94  1  0  0  0
  5  6  1  0  0  0
  5 26  1  0  0  0
  5 95  1  0  0  0
  6 25  1  0  0  0
  6 96  1  0  0  0
  6 97  1  0  0  0
  7  8  2  0  0  0
  7 26  1  0  0  0
  7 29  1  0  0  0
  8  9  1  0  0  0
  8 22  1  0  0  0
  9 10  1  0  0  0
  9 27  2  0  0  0
 10 11  2  0  0  0
 10 15  1  0  0  0
 11 12  1  0  0  0
 11 98  1  0  0  0
 12 13  2  0  0  0
 12 99  1  0  0  0
 13 14  1  0  0  0
 13 31  1  0  0  0
 14 15  2  0  0  0
 14100  1  0  0  0
 15101  1  0  0  0
 16 17  2  0  0  0
 16 21  1  0  0  0
 16 31  1  0  0  0
 17 18  1  0  0  0
 17102  1  0  0  0
 18 19  2  0  0  0
 18103  1  0  0  0
 19 20  1  0  0  0
 19 24  1  0  0  0
 20 21  2  0  0  0
 20104  1  0  0  0
 21 23  1  0  0  0
 22 28  1  0  0  0
 22 32  2  0  0  0
 26 27  1  0  0  0
 28105  1  0  0  0
 28106  1  0  0  0
 29107  1  0  0  0
 29108  1  0  0  0
 33 34  1  0  0  0
 33 66  1  0  0  0
 33 70  2  0  0  0
 34 36  1  0  0  0
 34 59  1  0  0  0
 34109  1  0  0  0
 35 44  2  0  0  0
 35 45  1  0  0  0
 35 68  1  0  0  0
 36 56  1  0  0  0
 36110  1  0  0  0
 37 39  1  0  0  0
 37 47  1  0  0  0
 37 66  1  0  0  0
 37111  1  0  0  0
 38 43  2  0  0  0
 38 46  1  0  0  0
 38 47  1  0  0  0
 39 64  1  0  0  0
 39 67  2  0  0  0
 40 52  1  0  0  0
 40 53  2  0  0  0
 40 58  1  0  0  0
 41112  1  0  0  0
 41113  1  0  0  0
 41114  1  0  0  0
 41 48  1  0  0  0
 42 43  1  0  0  0
 42 66  1  0  0  0
 42115  1  0  0  0
 42116  1  0  0  0
 43 44  1  0  0  0
 44117  1  0  0  0
 45 46  2  0  0  0
 45118  1  0  0  0
 46119  1  0  0  0
 47120  1  0  0  0
 47121  1  0  0  0
 48 56  1  0  0  0
 48 65  1  0  0  0
 48122  1  0  0  0
 49 50  1  0  0  0
 49 53  1  0  0  0
 49 64  1  0  0  0
 49123  1  0  0  0
 50 51  1  0  0  0
 50124  1  0  0  0
 50125  1  0  0  0
 51 52  1  0  0  0
 51126  1  0  0  0
 51127  1  0  0  0
 52128  1  0  0  0
 52129  1  0  0  0
 53 54  1  0  0  0
 54 55  2  0  0  0
 54130  1  0  0  0
 55 57  1  0  0  0
 55131  1  0  0  0
 56 69  2  0  0  0
 57 58  2  0  0  0
 57132  1  0  0  0
 58133  1  0  0  0
 59 60  1  0  0  0
 59 61  1  0  0  0
 59 62  1  0  0  0
 60134  1  0  0  0
 60135  1  0  0  0
 60136  1  0  0  0
 61137  1  0  0  0
 61138  1  0  0  0
 61139  1  0  0  0
 62140  1  0  0  0
 62141  1  0  0  0
 62142  1  0  0  0
 63 65  1  0  0  0
 63143  1  0  0  0
 63144  1  0  0  0
 63145  1  0  0  0
 64146  1  0  0  0
 65147  1  0  0  0
 68 82  1  0  0  0
 71 72  2  0  0  0
 71 74  1  0  0  0
 71148  1  0  0  0
 72 75  1  0  0  0
 72149  1  0  0  0
 73 75  2  0  0  0
 73 76  1  0  0  0
 73150  1  0  0  0
 74 76  2  0  0  0
 74 84  1  0  0  0
 75 85  1  0  0  0
 76 88  1  0  0  0
 77 80  1  0  0  0
 77 85  1  0  0  0
 77 87  2  0  0  0
 78 79  1  0  0  0
 78 80  1  0  0  0
 78151  1  0  0  0
 78152  1  0  0  0
 79 85  1  0  0  0
 79153  1  0  0  0
 79154  1  0  0  0
 80 82  1  0  0  0
 80155  1  0  0  0
 81156  1  0  0  0
 81157  1  0  0  0
 81158  1  0  0  0
 81 84  1  0  0  0
 82159  1  0  0  0
 82160  1  0  0  0
 83 84  1  0  0  0
 83 86  1  0  0  0
 83161  1  0  0  0
 83162  1  0  0  0
 86163  1  0  0  0
 86164  1  0  0  0
 86165  1  0  0  0
M  CHG  1  86   1
M  ISO  4   1 100  68 101  82 101  84 100
M  END
> <chiral flag>
0

> <version>
0

> <s_m_source_file>
/data/baiqing/PycharmProjects/Reinvent-master-3.2/result/LINK_invent/BTK/process_docking_weight1_custom_product_contain_oxygen_bond_distance_aromatic_linkinvent_7_9_3/rearranged_h_0018.sdf

> <i_m_source_file_index>
47

> <r_mmod_Potential_Energy-OPLS-2005>
178.129547119141

> <r_mmod_Stretch_Energy-OPLS-2005>
90.7560501098633

> <r_mmod_Bend_Energy-OPLS-2005>
196.964019775391

> <r_mmod_Torsional_Energy-OPLS-2005>
356.612152099609

> <r_mmod_Improper_Torsional_Energy-OPLS-2005>
24.4485492706299

> <r_mmod_Van_der_Waal_Energy-OPLS-2005>
169.361129760742

> <r_mmod_Electrostatic_Energy-OPLS-2005>
-291.002014160156

> <r_mmod_Solvation_Energy-OPLS-2005>
-475.487243652344

> <b_mmod_Minimization_Converged-OPLS-2005>
0

> <r_mmod_RMS_Derivative-OPLS-2005>
0.445024102926254

$$$$
47
                    3D
 Structure written by MMmdl.
155163  0  0  1  0            999 V2000
  -30.6283  -14.6324   20.4788 C   0  0  0  0  0  0
  -30.4311  -12.3864   19.4384 C   0  0  0  0  0  0
  -29.5057  -12.5312   18.2119 C   0  0  0  0  0  0
  -28.0266  -12.3677   18.6169 C   0  0  0  0  0  0
  -27.6535  -13.2198   19.8587 C   0  0  2  0  0  0
  -28.6995  -13.0701   20.9860 C   0  0  0  0  0  0
  -25.2586  -13.8186   20.5640 C   0  0  0  0  0  0
  -24.1850  -13.0445   20.9154 C   0  0  0  0  0  0
  -24.6415  -11.6910   20.8695 C   0  0  0  0  0  0
  -23.9079  -10.4290   21.0370 C   0  0  0  0  0  0
  -24.3649   -9.4202   21.9150 C   0  0  0  0  0  0
  -23.6320   -8.2243   22.0743 C   0  0  0  0  0  0
  -22.4299   -8.0269   21.3538 C   0  0  0  0  0  0
  -21.9915   -9.0248   20.4635 C   0  0  0  0  0  0
  -22.7254  -10.2116   20.3025 C   0  0  0  0  0  0
  -21.6857   -6.0720   22.5274 C   0  0  0  0  0  0
  -21.4019   -6.5624   23.8210 C   0  0  0  0  0  0
  -21.3665   -5.6786   24.9171 C   0  0  0  0  0  0
  -21.6055   -4.3052   24.7231 C   0  0  0  0  0  0
  -21.8819   -3.8133   23.4352 C   0  0  0  0  0  0
  -21.9205   -4.6942   22.3400 C   0  0  0  0  0  0
  -22.7875  -13.5212   21.1808 C   0  0  0  0  0  0
  -22.1659   -4.2123   21.0978 F   0  0  0  0  0  0
  -21.5638   -3.4539   25.7741 F   0  0  0  0  0  0
  -30.0176  -13.4073   20.4241 N   0  0  0  0  0  0
  -26.3009  -12.9362   20.3286 N   0  0  0  0  0  0
  -25.9351  -11.6511   20.5726 N   0  0  0  0  0  0
  -22.0528  -12.8215   22.0384 N   0  0  0  0  0  0
  -25.4322  -15.1913   20.4048 N   0  0  0  0  0  0
  -31.7964  -14.7729   20.1125 O   0  0  0  0  0  0
  -21.6658   -6.8867   21.4242 O   0  0  0  0  0  0
  -22.3530  -14.5502   20.6637 O   0  0  0  0  0  0
  -24.6239  -31.8629   23.2037 C   0  0  0  0  0  0
  -25.9096  -32.4789   23.8370 C   0  0  1  0  0  0
  -27.2308  -27.3375   20.1139 C   0  0  0  0  0  0
  -25.5910  -33.8583   24.2291 N   0  0  0  0  0  0
  -23.4179  -30.4849   21.5488 C   0  0  2  0  0  0
  -24.8655  -28.9488   20.1082 C   0  0  0  0  0  0
  -22.7470  -29.4634   22.4983 C   0  0  0  0  0  0
  -18.0279  -28.1390   22.8476 C   0  0  0  0  0  0
  -24.1486  -36.7308   23.2639 C   0  0  0  0  0  0
  -25.9586  -30.7995   21.3748 C   0  0  0  0  0  0
  -26.0345  -29.4308   20.7117 C   0  0  0  0  0  0
  -27.2210  -28.6395   20.7010 C   0  0  0  0  0  0
  -26.0374  -26.9098   19.4847 C   0  0  0  0  0  0
  -24.8710  -27.6946   19.4804 C   0  0  0  0  0  0
  -23.6282  -29.8214   20.1635 C   0  0  0  0  0  0
  -25.4113  -36.3100   24.0335 C   0  0  1  0  0  0
  -20.5868  -28.3679   23.1299 C   0  0  2  0  0  0
  -20.6770  -26.9410   22.5416 C   0  0  0  0  0  0
  -19.5758  -26.6385   21.5209 C   0  0  0  0  0  0
  -18.1931  -26.7933   22.1613 C   0  0  0  0  0  0
  -19.1524  -28.8861   23.2873 C   0  0  0  0  0  0
  -18.9451  -30.1468   23.8887 C   0  0  0  0  0  0
  -17.6448  -30.6590   24.0563 C   0  0  0  0  0  0
  -25.9047  -34.9460   23.5113 C   0  0  0  0  0  0
  -16.5336  -29.9080   23.6330 C   0  0  0  0  0  0
  -16.7268  -28.6498   23.0342 C   0  0  0  0  0  0
  -26.4472  -31.6593   25.0746 C   0  0  0  0  0  0
  -25.3684  -31.3723   26.1455 C   0  0  0  0  0  0
  -27.0326  -30.3020   24.6220 C   0  0  0  0  0  0
  -27.6046  -32.4319   25.7502 C   0  0  0  0  0  0
  -27.5584  -37.1801   24.8454 C   0  0  0  0  0  0
  -21.4186  -29.3029   22.3702 N   0  0  0  0  0  0
  -26.4297  -37.3787   23.9399 N   0  0  0  0  0  0
  -24.6851  -31.0645   22.0991 N   0  0  0  0  0  0
  -23.4193  -28.8181   23.3074 O   0  0  0  0  0  0
  -28.3496  -26.4908   20.1695 O   0  0  0  0  0  0
  -26.5627  -34.8925   22.4688 O   0  0  0  0  0  0
  -23.5405  -32.1434   23.7364 O   0  0  0  0  0  0
  -28.9939  -19.4130   21.1185 C   0  0  0  0  0  0
  -29.0631  -18.0022   21.3497 C   0  0  0  0  0  0
  -30.6136  -19.1702   19.3730 C   0  0  0  0  0  0
  -29.7557  -20.0460   20.1015 C   0  0  0  0  0  0
  -29.9002  -17.1310   20.5953 C   0  0  0  0  0  0
  -30.6810  -17.7627   19.5890 C   0  0  0  0  0  0
  -29.8426  -21.7343   18.3447 C   0  0  0  0  0  0
  -29.2595  -23.9933   20.3837 C   0  0  0  0  0  0
  -28.8260  -22.4566   20.4922 C   0  0  0  0  0  0
  -28.1003  -25.0356   20.0974 C   0  0  0  0  0  0
  -29.8299  -15.6859   20.8410 N   0  0  0  0  0  0
  -29.6733  -21.4547   19.7748 N   0  0  0  0  0  0
  -31.4852  -17.0374   18.7770 F   0  0  0  0  0  0
  -31.4729  -12.5023   19.1357 H   0  0  0  0  0  0
  -30.3482  -11.3842   19.8603 H   0  0  0  0  0  0
  -29.7716  -11.8079   17.4416 H   0  0  0  0  0  0
  -29.6538  -13.5167   17.7654 H   0  0  0  0  0  0
  -27.8511  -11.3115   18.8201 H   0  0  0  0  0  0
  -27.3790  -12.6295   17.7789 H   0  0  0  0  0  0
  -27.6691  -14.2575   19.5296 H   0  0  0  0  0  0
  -28.7081  -12.0477   21.3662 H   0  0  0  0  0  0
  -28.4488  -13.7074   21.8354 H   0  0  0  0  0  0
  -25.2794   -9.5683   22.4727 H   0  0  0  0  0  0
  -24.0021   -7.4632   22.7460 H   0  0  0  0  0  0
  -21.0836   -8.8774   19.8950 H   0  0  0  0  0  0
  -22.3712  -10.9661   19.6128 H   0  0  0  0  0  0
  -21.2012   -7.6131   23.9706 H   0  0  0  0  0  0
  -21.1487   -6.0510   25.9076 H   0  0  0  0  0  0
  -22.0606   -2.7589   23.2870 H   0  0  0  0  0  0
  -22.4160  -11.9903   22.4817 H   0  0  0  0  0  0
  -21.1137  -13.1216   22.2540 H   0  0  0  0  0  0
  -24.6710  -15.8558   20.5049 H   0  0  0  0  0  0
  -26.2887  -15.6263   20.0868 H   0  0  0  0  0  0
  -26.7177  -32.5472   23.1129 H   0  0  0  0  0  0
  -25.0009  -33.9713   25.0399 H   0  0  0  0  0  0
  -22.7103  -31.3052   21.4100 H   0  0  0  0  0  0
  -23.3758  -35.9630   23.3292 H   0  0  0  0  0  0
  -24.3591  -36.8939   22.2061 H   0  0  0  0  0  0
  -23.7221  -37.6496   23.6669 H   0  0  0  0  0  0
  -26.0940  -31.5715   20.6156 H   0  0  0  0  0  0
  -26.8355  -30.8398   22.0088 H   0  0  0  0  0  0
  -28.1178  -29.0094   21.1768 H   0  0  0  0  0  0
  -25.9747  -25.9546   18.9872 H   0  0  0  0  0  0
  -23.9830  -27.3185   18.9914 H   0  0  0  0  0  0
  -23.7307  -30.6003   19.4077 H   0  0  0  0  0  0
  -22.7499  -29.2421   19.8692 H   0  0  0  0  0  0
  -25.1287  -36.1965   25.0830 H   0  0  0  0  0  0
  -20.9955  -28.3260   24.1420 H   0  0  0  0  0  0
  -20.5680  -26.2287   23.3612 H   0  0  0  0  0  0
  -21.6637  -26.7460   22.1197 H   0  0  0  0  0  0
  -19.6915  -25.6297   21.1242 H   0  0  0  0  0  0
  -19.6706  -27.3187   20.6742 H   0  0  0  0  0  0
  -17.4203  -26.6682   21.4014 H   0  0  0  0  0  0
  -18.0333  -26.0080   22.9016 H   0  0  0  0  0  0
  -19.7926  -30.7285   24.2245 H   0  0  0  0  0  0
  -17.4998  -31.6265   24.5166 H   0  0  0  0  0  0
  -15.5334  -30.2968   23.7674 H   0  0  0  0  0  0
  -15.8668  -28.0819   22.7056 H   0  0  0  0  0  0
  -24.5858  -30.7092   25.7746 H   0  0  0  0  0  0
  -24.8870  -32.2881   26.4902 H   0  0  0  0  0  0
  -25.7976  -30.8859   27.0225 H   0  0  0  0  0  0
  -26.2924  -29.6767   24.1225 H   0  0  0  0  0  0
  -27.3988  -29.7288   25.4746 H   0  0  0  0  0  0
  -27.8800  -30.4306   23.9485 H   0  0  0  0  0  0
  -27.2686  -33.3620   26.2104 H   0  0  0  0  0  0
  -28.3838  -32.6881   25.0302 H   0  0  0  0  0  0
  -28.0752  -31.8432   26.5389 H   0  0  0  0  0  0
  -28.2583  -38.0116   24.7530 H   0  0  0  0  0  0
  -28.1102  -36.2649   24.6244 H   0  0  0  0  0  0
  -27.2312  -37.1403   25.8858 H   0  0  0  0  0  0
  -20.9376  -29.8733   21.6883 H   0  0  0  0  0  0
  -26.0194  -38.2867   24.1397 H   0  0  0  0  0  0
  -28.3158  -19.9939   21.7297 H   0  0  0  0  0  0
  -28.4383  -17.5846   22.1269 H   0  0  0  0  0  0
  -31.2446  -19.5680   18.5932 H   0  0  0  0  0  0
  -30.8873  -21.9463   18.1094 H   0  0  0  0  0  0
  -29.2546  -22.6007   18.0340 H   0  0  0  0  0  0
  -29.5070  -20.9083   17.7132 H   0  0  0  0  0  0
  -30.0298  -24.1201   19.6229 H   0  0  0  0  0  0
  -29.7540  -24.2719   21.3160 H   0  0  0  0  0  0
  -27.8059  -22.3549   20.1191 H   0  0  0  0  0  0
  -28.7717  -22.1925   21.5480 H   0  0  0  0  0  0
  -27.2768  -24.7976   20.7746 H   0  0  0  0  0  0
  -27.7518  -24.8033   19.0903 H   0  0  0  0  0  0
  -28.9630  -15.3833   21.2575 H   0  0  0  0  0  0
  1 25  1  0  0  0
  1 30  2  0  0  0
  1 81  1  0  0  0
  2  3  1  0  0  0
  2 25  1  0  0  0
  2 84  1  0  0  0
  2 85  1  0  0  0
  3  4  1  0  0  0
  3 86  1  0  0  0
  3 87  1  0  0  0
  4  5  1  0  0  0
  4 88  1  0  0  0
  4 89  1  0  0  0
  5  6  1  0  0  0
  5 26  1  0  0  0
  5 90  1  0  0  0
  6 25  1  0  0  0
  6 91  1  0  0  0
  6 92  1  0  0  0
  7  8  2  0  0  0
  7 26  1  0  0  0
  7 29  1  0  0  0
  8  9  1  0  0  0
  8 22  1  0  0  0
  9 10  1  0  0  0
  9 27  2  0  0  0
 10 11  2  0  0  0
 10 15  1  0  0  0
 11 12  1  0  0  0
 11 93  1  0  0  0
 12 13  2  0  0  0
 12 94  1  0  0  0
 13 14  1  0  0  0
 13 31  1  0  0  0
 14 15  2  0  0  0
 14 95  1  0  0  0
 15 96  1  0  0  0
 16 17  2  0  0  0
 16 21  1  0  0  0
 16 31  1  0  0  0
 17 18  1  0  0  0
 17 97  1  0  0  0
 18 19  2  0  0  0
 18 98  1  0  0  0
 19 20  1  0  0  0
 19 24  1  0  0  0
 20 21  2  0  0  0
 20 99  1  0  0  0
 21 23  1  0  0  0
 22 28  1  0  0  0
 22 32  2  0  0  0
 26 27  1  0  0  0
 28100  1  0  0  0
 28101  1  0  0  0
 29102  1  0  0  0
 29103  1  0  0  0
 33 34  1  0  0  0
 33 66  1  0  0  0
 33 70  2  0  0  0
 34 36  1  0  0  0
 34 59  1  0  0  0
 34104  1  0  0  0
 35 44  2  0  0  0
 35 45  1  0  0  0
 35 68  1  0  0  0
 36 56  1  0  0  0
 36105  1  0  0  0
 37 39  1  0  0  0
 37 47  1  0  0  0
 37 66  1  0  0  0
 37106  1  0  0  0
 38 43  2  0  0  0
 38 46  1  0  0  0
 38 47  1  0  0  0
 39 64  1  0  0  0
 39 67  2  0  0  0
 40 52  1  0  0  0
 40 53  2  0  0  0
 40 58  1  0  0  0
 41107  1  0  0  0
 41108  1  0  0  0
 41109  1  0  0  0
 41 48  1  0  0  0
 42 43  1  0  0  0
 42 66  1  0  0  0
 42110  1  0  0  0
 42111  1  0  0  0
 43 44  1  0  0  0
 44112  1  0  0  0
 45 46  2  0  0  0
 45113  1  0  0  0
 46114  1  0  0  0
 47115  1  0  0  0
 47116  1  0  0  0
 48 56  1  0  0  0
 48 65  1  0  0  0
 48117  1  0  0  0
 49 50  1  0  0  0
 49 53  1  0  0  0
 49 64  1  0  0  0
 49118  1  0  0  0
 50 51  1  0  0  0
 50119  1  0  0  0
 50120  1  0  0  0
 51 52  1  0  0  0
 51121  1  0  0  0
 51122  1  0  0  0
 52123  1  0  0  0
 52124  1  0  0  0
 53 54  1  0  0  0
 54 55  2  0  0  0
 54125  1  0  0  0
 55 57  1  0  0  0
 55126  1  0  0  0
 56 69  2  0  0  0
 57 58  2  0  0  0
 57127  1  0  0  0
 58128  1  0  0  0
 59 60  1  0  0  0
 59 61  1  0  0  0
 59 62  1  0  0  0
 60129  1  0  0  0
 60130  1  0  0  0
 60131  1  0  0  0
 61132  1  0  0  0
 61133  1  0  0  0
 61134  1  0  0  0
 62135  1  0  0  0
 62136  1  0  0  0
 62137  1  0  0  0
 63 65  1  0  0  0
 63138  1  0  0  0
 63139  1  0  0  0
 63140  1  0  0  0
 64141  1  0  0  0
 65142  1  0  0  0
 68 80  1  0  0  0
 71 72  2  0  0  0
 71 74  1  0  0  0
 71143  1  0  0  0
 72 75  1  0  0  0
 72144  1  0  0  0
 73 74  2  0  0  0
 73 76  1  0  0  0
 73145  1  0  0  0
 74 82  1  0  0  0
 75 76  2  0  0  0
 75 81  1  0  0  0
 76 83  1  0  0  0
 77 82  1  0  0  0
 77146  1  0  0  0
 77147  1  0  0  0
 77148  1  0  0  0
 78 79  1  0  0  0
 78 80  1  0  0  0
 78149  1  0  0  0
 78150  1  0  0  0
 79 82  1  0  0  0
 79151  1  0  0  0
 79152  1  0  0  0
 80153  1  0  0  0
 80154  1  0  0  0
 81155  1  0  0  0
M  ISO  4   1 100  68 101  80 101  81 100
M  END
> <chiral flag>
0

> <version>
0

> <s_m_source_file>
/data/baiqing/PycharmProjects/Reinvent-master-3.2/result/LINK_invent/BTK/process_docking_weight1_custom_product_contain_oxygen_bond_distance_aromatic_linkinvent_7_9_3/rearranged_h_0018.sdf

> <i_m_source_file_index>
48

> <r_mmod_Potential_Energy-OPLS-2005>
32.3138389587402

> <r_mmod_Stretch_Energy-OPLS-2005>
79.0290222167969

> <r_mmod_Bend_Energy-OPLS-2005>
145.368286132812

> <r_mmod_Torsional_Energy-OPLS-2005>
223.43359375

> <r_mmod_Improper_Torsional_Energy-OPLS-2005>
5.92296504974365

> <r_mmod_Van_der_Waal_Energy-OPLS-2005>
158.602645874023

> <r_mmod_Electrostatic_Energy-OPLS-2005>
-388.854034423828

> <r_mmod_Solvation_Energy-OPLS-2005>
-235.412231445312

> <b_mmod_Minimization_Converged-OPLS-2005>
0

> <r_mmod_RMS_Derivative-OPLS-2005>
3.11085104942322

$$$$
48
                    3D
 Structure written by MMmdl.
162170  0  0  1  0            999 V2000
  -30.7555  -14.4121   20.6627 C   0  0  0  0  0  0
  -30.4123  -12.3016   19.4194 C   0  0  0  0  0  0
  -29.4979  -12.5202   18.1988 C   0  0  0  0  0  0
  -28.0141  -12.3899   18.5926 C   0  0  0  0  0  0
  -27.6578  -13.2126   19.8574 C   0  0  2  0  0  0
  -28.6828  -12.9791   20.9821 C   0  0  0  0  0  0
  -25.2584  -13.8192   20.5631 C   0  0  0  0  0  0
  -24.1853  -13.0453   20.9136 C   0  0  0  0  0  0
  -24.6409  -11.6924   20.8706 C   0  0  0  0  0  0
  -23.9065  -10.4301   21.0397 C   0  0  0  0  0  0
  -24.3623   -9.4219   21.9179 C   0  0  0  0  0  0
  -23.6309   -8.2251   22.0748 C   0  0  0  0  0  0
  -22.4285   -8.0286   21.3538 C   0  0  0  0  0  0
  -21.9907   -9.0260   20.4646 C   0  0  0  0  0  0
  -22.7226  -10.2142   20.3055 C   0  0  0  0  0  0
  -21.6865   -6.0741   22.5281 C   0  0  0  0  0  0
  -21.4011   -6.5637   23.8217 C   0  0  0  0  0  0
  -21.3664   -5.6793   24.9177 C   0  0  0  0  0  0
  -21.6049   -4.3053   24.7229 C   0  0  0  0  0  0
  -21.8821   -3.8148   23.4344 C   0  0  0  0  0  0
  -21.9190   -4.6971   22.3406 C   0  0  0  0  0  0
  -22.7867  -13.5231   21.1865 C   0  0  0  0  0  0
  -22.1665   -4.2146   21.0985 F   0  0  0  0  0  0
  -21.5632   -3.4540   25.7740 F   0  0  0  0  0  0
  -30.0300  -13.2732   20.4583 N   0  0  0  0  0  0
  -26.2991  -12.9368   20.3207 N   0  0  0  0  0  0
  -25.9316  -11.6520   20.5639 N   0  0  0  0  0  0
  -22.0514  -12.8236   22.0418 N   0  0  0  0  0  0
  -25.4331  -15.1915   20.4100 N   0  0  0  0  0  0
  -31.8126  -14.6350   20.0607 O   0  0  0  0  0  0
  -21.6648   -6.8883   21.4243 O   0  0  0  0  0  0
  -22.3540  -14.5564   20.6722 O   0  0  0  0  0  0
  -24.6184  -31.8634   23.2065 C   0  0  0  0  0  0
  -25.9061  -32.4807   23.8382 C   0  0  1  0  0  0
  -27.2396  -27.4263   20.0864 C   0  0  0  0  0  0
  -25.5893  -33.8607   24.2304 N   0  0  0  0  0  0
  -23.4062  -30.4879   21.5488 C   0  0  2  0  0  0
  -24.8516  -28.9425   20.1240 C   0  0  0  0  0  0
  -22.7413  -29.4655   22.4998 C   0  0  0  0  0  0
  -18.0274  -28.1393   22.8486 C   0  0  0  0  0  0
  -24.1476  -36.7317   23.2644 C   0  0  0  0  0  0
  -25.9329  -30.8323   21.3523 C   0  0  0  0  0  0
  -26.0161  -29.4615   20.7056 C   0  0  0  0  0  0
  -27.2183  -28.7137   20.6742 C   0  0  0  0  0  0
  -26.0522  -26.9105   19.5272 C   0  0  0  0  0  0
  -24.8642  -27.6658   19.5359 C   0  0  0  0  0  0
  -23.6146  -29.8130   20.1649 C   0  0  0  0  0  0
  -25.4092  -36.3113   24.0347 C   0  0  1  0  0  0
  -20.5865  -28.3676   23.1306 C   0  0  2  0  0  0
  -20.6774  -26.9411   22.5417 C   0  0  0  0  0  0
  -19.5747  -26.6385   21.5221 C   0  0  0  0  0  0
  -18.1914  -26.7938   22.1625 C   0  0  0  0  0  0
  -19.1525  -28.8851   23.2899 C   0  0  0  0  0  0
  -18.9465  -30.1461   23.8901 C   0  0  0  0  0  0
  -17.6467  -30.6603   24.0564 C   0  0  0  0  0  0
  -25.9021  -34.9480   23.5118 C   0  0  0  0  0  0
  -16.5350  -29.9106   23.6335 C   0  0  0  0  0  0
  -16.7265  -28.6528   23.0346 C   0  0  0  0  0  0
  -26.4472  -31.6608   25.0726 C   0  0  0  0  0  0
  -25.3718  -31.3709   26.1469 C   0  0  0  0  0  0
  -27.0318  -30.3080   24.6059 C   0  0  0  0  0  0
  -27.6067  -32.4318   25.7458 C   0  0  0  0  0  0
  -27.5581  -37.1797   24.8463 C   0  0  0  0  0  0
  -21.4146  -29.3027   22.3719 N   0  0  0  0  0  0
  -26.4280  -37.3806   23.9426 N   0  0  0  0  0  0
  -24.6723  -31.0759   22.0950 N   0  0  0  0  0  0
  -23.4169  -28.8204   23.3056 O   0  0  0  0  0  0
  -28.4073  -26.6932   20.0385 O   0  0  0  0  0  0
  -26.5610  -34.8940   22.4690 O   0  0  0  0  0  0
  -23.5378  -32.1376   23.7473 O   0  0  0  0  0  0
  -30.0142  -18.4724   19.3727 C   0  0  0  0  0  0
  -29.9631  -17.1192   19.7825 C   0  0  0  0  0  0
  -30.3749  -19.1469   21.6663 C   0  0  0  0  0  0
  -30.2437  -19.5032   20.3101 C   0  0  0  0  0  0
  -30.1819  -16.7399   21.1375 C   0  0  0  0  0  0
  -30.3576  -17.7985   22.0770 C   0  0  0  0  0  0
  -30.2589  -14.9546   22.9440 C   0  0  0  0  0  0
  -28.4251  -21.3186   18.5263 C   0  0  0  0  0  0
  -30.4564  -20.9680   19.8872 C   0  0  0  0  0  0
  -28.2191  -24.1495   19.8533 C   0  0  0  0  0  0
  -29.4875  -23.2569   19.6869 C   0  0  0  0  0  0
  -28.3891  -25.4322   20.7273 C   0  0  0  0  0  0
  -30.2465  -15.3346   21.5189 N   0  0  0  0  0  0
  -29.2175  -21.7791   19.6944 N   0  3  1  0  0  0
  -30.5519  -17.5641   23.3946 F   0  0  0  0  0  0
  -31.4604  -12.3861   19.1235 H   0  0  0  0  0  0
  -30.3006  -11.2847   19.7977 H   0  0  0  0  0  0
  -29.7434  -11.8051   17.4099 H   0  0  0  0  0  0
  -29.6856  -13.5110   17.7803 H   0  0  0  0  0  0
  -27.8065  -11.3325   18.7632 H   0  0  0  0  0  0
  -27.3818  -12.6959   17.7591 H   0  0  0  0  0  0
  -27.7085  -14.2670   19.5812 H   0  0  0  0  0  0
  -28.6403  -11.9453   21.3293 H   0  0  0  0  0  0
  -28.3938  -13.5849   21.8372 H   0  0  0  0  0  0
  -25.2771   -9.5705   22.4743 H   0  0  0  0  0  0
  -24.0024   -7.4640   22.7461 H   0  0  0  0  0  0
  -21.0831   -8.8777   19.8961 H   0  0  0  0  0  0
  -22.3679  -10.9684   19.6170 H   0  0  0  0  0  0
  -21.2005   -7.6140   23.9717 H   0  0  0  0  0  0
  -21.1490   -6.0522   25.9082 H   0  0  0  0  0  0
  -22.0599   -2.7605   23.2850 H   0  0  0  0  0  0
  -22.4119  -11.9895   22.4821 H   0  0  0  0  0  0
  -21.1126  -13.1283   22.2622 H   0  0  0  0  0  0
  -24.6787  -15.8535   20.5426 H   0  0  0  0  0  0
  -26.2991  -15.6295   20.1253 H   0  0  0  0  0  0
  -26.7110  -32.5533   23.1142 H   0  0  0  0  0  0
  -25.0052  -33.9752   25.0458 H   0  0  0  0  0  0
  -22.6955  -31.3051   21.4041 H   0  0  0  0  0  0
  -23.3753  -35.9640   23.3313 H   0  0  0  0  0  0
  -24.3554  -36.8931   22.2053 H   0  0  0  0  0  0
  -23.7208  -37.6519   23.6644 H   0  0  0  0  0  0
  -26.0244  -31.5872   20.5702 H   0  0  0  0  0  0
  -26.8274  -30.9023   21.9587 H   0  0  0  0  0  0
  -28.1276  -29.1141   21.1009 H   0  0  0  0  0  0
  -26.0432  -25.9283   19.0765 H   0  0  0  0  0  0
  -23.9649  -27.2530   19.1000 H   0  0  0  0  0  0
  -23.7229  -30.5811   19.3970 H   0  0  0  0  0  0
  -22.7364  -29.2329   19.8782 H   0  0  0  0  0  0
  -25.1263  -36.1981   25.0844 H   0  0  0  0  0  0
  -20.9944  -28.3248   24.1444 H   0  0  0  0  0  0
  -20.5660  -26.2287   23.3612 H   0  0  0  0  0  0
  -21.6644  -26.7449   22.1216 H   0  0  0  0  0  0
  -19.6904  -25.6289   21.1262 H   0  0  0  0  0  0
  -19.6707  -27.3193   20.6744 H   0  0  0  0  0  0
  -17.4189  -26.6683   21.4033 H   0  0  0  0  0  0
  -18.0334  -26.0082   22.9018 H   0  0  0  0  0  0
  -19.7931  -30.7288   24.2262 H   0  0  0  0  0  0
  -17.5018  -31.6283   24.5177 H   0  0  0  0  0  0
  -15.5350  -30.3018   23.7676 H   0  0  0  0  0  0
  -15.8658  -28.0870   22.7053 H   0  0  0  0  0  0
  -24.5903  -30.7038   25.7798 H   0  0  0  0  0  0
  -24.8893  -32.2866   26.4909 H   0  0  0  0  0  0
  -25.8079  -30.8885   27.0223 H   0  0  0  0  0  0
  -26.2858  -29.6823   24.1139 H   0  0  0  0  0  0
  -27.4164  -29.7340   25.4496 H   0  0  0  0  0  0
  -27.8644  -30.4477   23.9156 H   0  0  0  0  0  0
  -27.2728  -33.3626   26.2051 H   0  0  0  0  0  0
  -28.3859  -32.6845   25.0253 H   0  0  0  0  0  0
  -28.0725  -31.8403   26.5350 H   0  0  0  0  0  0
  -28.2599  -38.0101   24.7560 H   0  0  0  0  0  0
  -28.1078  -36.2645   24.6224 H   0  0  0  0  0  0
  -27.2308  -37.1378   25.8868 H   0  0  0  0  0  0
  -20.9324  -29.8742   21.6930 H   0  0  0  0  0  0
  -26.0184  -38.2882   24.1477 H   0  0  0  0  0  0
  -29.9027  -18.7050   18.3220 H   0  0  0  0  0  0
  -29.7901  -16.3704   19.0222 H   0  0  0  0  0  0
  -30.5453  -19.9110   22.4120 H   0  0  0  0  0  0
  -29.4129  -15.3977   23.4717 H   0  0  0  0  0  0
  -31.1844  -15.2739   23.4198 H   0  0  0  0  0  0
  -30.1994  -13.8794   23.1149 H   0  0  0  0  0  0
  -28.0762  -20.2966   18.6808 H   0  0  0  0  0  0
  -29.0179  -21.3370   17.6102 H   0  0  0  0  0  0
  -27.5356  -21.9267   18.3683 H   0  0  0  0  0  0
  -31.0700  -21.0133   18.9865 H   0  0  0  0  0  0
  -31.0623  -21.4303   20.6678 H   0  0  0  0  0  0
  -27.4411  -23.5514   20.3254 H   0  0  0  0  0  0
  -27.8205  -24.4032   18.8688 H   0  0  0  0  0  0
  -30.1861  -23.4790   20.4961 H   0  0  0  0  0  0
  -30.0114  -23.5350   18.7684 H   0  0  0  0  0  0
  -27.5987  -25.4434   21.4820 H   0  0  0  0  0  0
  -29.3149  -25.3699   21.3009 H   0  0  0  0  0  0
  -28.6572  -21.5992   20.5121 H   0  0  0  0  0  0
  1 25  1  0  0  0
  1 30  2  0  0  0
  1 83  1  0  0  0
  2  3  1  0  0  0
  2 25  1  0  0  0
  2 86  1  0  0  0
  2 87  1  0  0  0
  3  4  1  0  0  0
  3 88  1  0  0  0
  3 89  1  0  0  0
  4  5  1  0  0  0
  4 90  1  0  0  0
  4 91  1  0  0  0
  5  6  1  0  0  0
  5 26  1  0  0  0
  5 92  1  0  0  0
  6 25  1  0  0  0
  6 93  1  0  0  0
  6 94  1  0  0  0
  7  8  2  0  0  0
  7 26  1  0  0  0
  7 29  1  0  0  0
  8  9  1  0  0  0
  8 22  1  0  0  0
  9 10  1  0  0  0
  9 27  2  0  0  0
 10 11  2  0  0  0
 10 15  1  0  0  0
 11 12  1  0  0  0
 11 95  1  0  0  0
 12 13  2  0  0  0
 12 96  1  0  0  0
 13 14  1  0  0  0
 13 31  1  0  0  0
 14 15  2  0  0  0
 14 97  1  0  0  0
 15 98  1  0  0  0
 16 17  2  0  0  0
 16 21  1  0  0  0
 16 31  1  0  0  0
 17 18  1  0  0  0
 17 99  1  0  0  0
 18 19  2  0  0  0
 18100  1  0  0  0
 19 20  1  0  0  0
 19 24  1  0  0  0
 20 21  2  0  0  0
 20101  1  0  0  0
 21 23  1  0  0  0
 22 28  1  0  0  0
 22 32  2  0  0  0
 26 27  1  0  0  0
 28102  1  0  0  0
 28103  1  0  0  0
 29104  1  0  0  0
 29105  1  0  0  0
 33 34  1  0  0  0
 33 66  1  0  0  0
 33 70  2  0  0  0
 34 36  1  0  0  0
 34 59  1  0  0  0
 34106  1  0  0  0
 35 44  2  0  0  0
 35 45  1  0  0  0
 35 68  1  0  0  0
 36 56  1  0  0  0
 36107  1  0  0  0
 37 39  1  0  0  0
 37 47  1  0  0  0
 37 66  1  0  0  0
 37108  1  0  0  0
 38 43  2  0  0  0
 38 46  1  0  0  0
 38 47  1  0  0  0
 39 64  1  0  0  0
 39 67  2  0  0  0
 40 52  1  0  0  0
 40 53  2  0  0  0
 40 58  1  0  0  0
 41109  1  0  0  0
 41110  1  0  0  0
 41111  1  0  0  0
 41 48  1  0  0  0
 42 43  1  0  0  0
 42 66  1  0  0  0
 42112  1  0  0  0
 42113  1  0  0  0
 43 44  1  0  0  0
 44114  1  0  0  0
 45 46  2  0  0  0
 45115  1  0  0  0
 46116  1  0  0  0
 47117  1  0  0  0
 47118  1  0  0  0
 48 56  1  0  0  0
 48 65  1  0  0  0
 48119  1  0  0  0
 49 50  1  0  0  0
 49 53  1  0  0  0
 49 64  1  0  0  0
 49120  1  0  0  0
 50 51  1  0  0  0
 50121  1  0  0  0
 50122  1  0  0  0
 51 52  1  0  0  0
 51123  1  0  0  0
 51124  1  0  0  0
 52125  1  0  0  0
 52126  1  0  0  0
 53 54  1  0  0  0
 54 55  2  0  0  0
 54127  1  0  0  0
 55 57  1  0  0  0
 55128  1  0  0  0
 56 69  2  0  0  0
 57 58  2  0  0  0
 57129  1  0  0  0
 58130  1  0  0  0
 59 60  1  0  0  0
 59 61  1  0  0  0
 59 62  1  0  0  0
 60131  1  0  0  0
 60132  1  0  0  0
 60133  1  0  0  0
 61134  1  0  0  0
 61135  1  0  0  0
 61136  1  0  0  0
 62137  1  0  0  0
 62138  1  0  0  0
 62139  1  0  0  0
 63 65  1  0  0  0
 63140  1  0  0  0
 63141  1  0  0  0
 63142  1  0  0  0
 64143  1  0  0  0
 65144  1  0  0  0
 68 82  1  0  0  0
 71 72  2  0  0  0
 71 74  1  0  0  0
 71145  1  0  0  0
 72 75  1  0  0  0
 72146  1  0  0  0
 73 74  2  0  0  0
 73 76  1  0  0  0
 73147  1  0  0  0
 74 79  1  0  0  0
 75 76  2  0  0  0
 75 83  1  0  0  0
 76 85  1  0  0  0
 77 83  1  0  0  0
 77148  1  0  0  0
 77149  1  0  0  0
 77150  1  0  0  0
 78151  1  0  0  0
 78152  1  0  0  0
 78153  1  0  0  0
 78 84  1  0  0  0
 79 84  1  0  0  0
 79154  1  0  0  0
 79155  1  0  0  0
 80 81  1  0  0  0
 80 82  1  0  0  0
 80156  1  0  0  0
 80157  1  0  0  0
 81 84  1  0  0  0
 81158  1  0  0  0
 81159  1  0  0  0
 82160  1  0  0  0
 82161  1  0  0  0
 84162  1  0  0  0
M  CHG  1  84   1
M  ISO  4   1 100  68 101  82 101  83 100
M  END
> <chiral flag>
0

> <version>
0

> <s_m_source_file>
/data/baiqing/PycharmProjects/Reinvent-master-3.2/result/LINK_invent/BTK/process_docking_weight1_custom_product_contain_oxygen_bond_distance_aromatic_linkinvent_7_9_3/rearranged_h_0018.sdf

> <i_m_source_file_index>
49

> <r_mmod_Potential_Energy-OPLS-2005>
-5.08770847320557

> <r_mmod_Stretch_Energy-OPLS-2005>
47.7403793334961

> <r_mmod_Bend_Energy-OPLS-2005>
107.14151763916

> <r_mmod_Torsional_Energy-OPLS-2005>
307.034240722656

> <r_mmod_Improper_Torsional_Energy-OPLS-2005>
3.27989721298218

> <r_mmod_Van_der_Waal_Energy-OPLS-2005>
167.20915222168

> <r_mmod_Electrostatic_Energy-OPLS-2005>
-203.203659057617

> <r_mmod_Solvation_Energy-OPLS-2005>
-444.204864501953

> <b_mmod_Minimization_Converged-OPLS-2005>
0

> <r_mmod_RMS_Derivative-OPLS-2005>
3.97116446495056

$$$$
49
                    3D
 Structure written by MMmdl.
141148  0  0  1  0            999 V2000
  -30.1908  -15.8716   20.3057 C   0  0  0  0  0  0
  -30.4143  -13.2407   19.5756 C   0  0  0  0  0  0
  -29.5692  -12.7268   18.3649 C   0  0  0  0  0  0
  -28.1568  -12.3177   18.8028 C   0  0  0  0  0  0
  -27.5915  -13.3367   19.8132 C   0  0  2  0  0  0
  -28.5836  -13.7552   20.9295 C   0  0  0  0  0  0
  -25.2295  -13.8333   20.5817 C   0  0  0  0  0  0
  -24.1706  -13.0444   20.9282 C   0  0  0  0  0  0
  -24.6443  -11.6966   20.8740 C   0  0  0  0  0  0
  -23.9149  -10.4300   21.0377 C   0  0  0  0  0  0
  -24.3673   -9.4214   21.9168 C   0  0  0  0  0  0
  -23.6326   -8.2259   22.0750 C   0  0  0  0  0  0
  -22.4305   -8.0297   21.3544 C   0  0  0  0  0  0
  -21.9956   -9.0272   20.4641 C   0  0  0  0  0  0
  -22.7307  -10.2140   20.3038 C   0  0  0  0  0  0
  -21.6864   -6.0747   22.5279 C   0  0  0  0  0  0
  -21.4023   -6.5647   23.8213 C   0  0  0  0  0  0
  -21.3662   -5.6796   24.9173 C   0  0  0  0  0  0
  -21.6044   -4.3059   24.7222 C   0  0  0  0  0  0
  -21.8818   -3.8153   23.4342 C   0  0  0  0  0  0
  -21.9196   -4.6973   22.3400 C   0  0  0  0  0  0
  -22.7712  -13.5151   21.1923 C   0  0  0  0  0  0
  -22.1663   -4.2157   21.0978 F   0  0  0  0  0  0
  -21.5626   -3.4541   25.7734 F   0  0  0  0  0  0
  -29.7445  -14.4425   20.2960 N   0  0  0  0  0  0
  -26.2771  -12.9717   20.3240 N   0  0  0  0  0  0
  -25.9401  -11.6755   20.5661 N   0  0  0  0  0  0
  -22.0391  -12.8117   22.0477 N   0  0  0  0  0  0
  -25.3871  -15.2083   20.4306 N   0  0  0  0  0  0
  -31.4142  -15.7763   20.0575 O   0  0  0  0  0  0
  -21.6657   -6.8898   21.4245 O   0  0  0  0  0  0
  -22.3374  -14.5447   20.6764 O   0  0  0  0  0  0
  -24.6991  -31.7798   23.1368 C   0  0  0  0  0  0
  -25.9493  -32.4365   23.7978 C   0  0  1  0  0  0
  -27.2368  -26.5336   20.2291 C   0  0  0  0  0  0
  -25.6003  -33.8201   24.1847 N   0  0  0  0  0  0
  -23.5338  -30.3730   21.4937 C   0  0  2  0  0  0
  -24.9950  -28.6789   20.1177 C   0  0  0  0  0  0
  -22.7839  -29.4203   22.4655 C   0  0  0  0  0  0
  -18.0349  -28.1430   22.8446 C   0  0  0  0  0  0
  -24.1497  -36.7110   23.2657 C   0  0  0  0  0  0
  -26.1203  -30.4555   21.4284 C   0  0  0  0  0  0
  -26.1838  -29.0020   20.7808 C   0  0  0  0  0  0
  -27.2773  -27.9606   20.8032 C   0  0  0  0  0  0
  -26.0175  -26.4653   19.4954 C   0  0  0  0  0  0
  -24.9613  -27.4392   19.4504 C   0  0  0  0  0  0
  -23.7976  -29.6537   20.1357 C   0  0  0  0  0  0
  -25.4154  -36.2836   24.0268 C   0  0  1  0  0  0
  -20.5992  -28.3797   23.1109 C   0  0  2  0  0  0
  -20.6806  -26.9440   22.5407 C   0  0  0  0  0  0
  -19.5785  -26.6364   21.5219 C   0  0  0  0  0  0
  -18.1968  -26.7954   22.1616 C   0  0  0  0  0  0
  -19.1620  -28.8942   23.2753 C   0  0  0  0  0  0
  -18.9522  -30.1521   23.8806 C   0  0  0  0  0  0
  -17.6510  -30.6608   24.0546 C   0  0  0  0  0  0
  -25.9143  -34.9231   23.4909 C   0  0  0  0  0  0
  -16.5399  -29.9086   23.6355 C   0  0  0  0  0  0
  -16.7328  -28.6510   23.0370 C   0  0  0  0  0  0
  -26.4619  -31.6476   25.0675 C   0  0  0  0  0  0
  -25.3640  -31.3843   26.1259 C   0  0  0  0  0  0
  -27.0582  -30.2795   24.6704 C   0  0  0  0  0  0
  -27.6032  -32.4381   25.7503 C   0  0  0  0  0  0
  -27.5558  -37.1712   24.8467 C   0  0  0  0  0  0
  -21.4470  -29.3009   22.3407 N   0  0  0  0  0  0
  -26.4266  -37.3616   23.9405 N   0  0  0  0  0  0
  -24.8096  -30.9072   22.0715 N   0  0  0  0  0  0
  -23.4203  -28.7835   23.3082 O   0  0  0  0  0  0
  -28.1759  -25.2404   20.3560 O   0  0  0  0  0  0
  -26.5811  -34.8842   22.4545 O   0  0  0  0  0  0
  -23.5975  -32.0953   23.6214 O   0  0  0  0  0  0
  -29.4162  -17.6546   20.6126 C   0  0  0  0  0  0
  -29.2228  -19.6106   20.0193 C   0  0  0  0  0  0
  -28.7965  -21.5428   20.5759 C   0  0  0  0  0  0
  -28.1976  -23.4230   20.0026 C   0  0  0  0  0  0
  -31.3992  -13.5189   19.2003 H   0  0  0  0  0  0
  -30.6113  -12.4269   20.2758 H   0  0  0  0  0  0
  -30.0699  -11.8906   17.8754 H   0  0  0  0  0  0
  -29.4999  -13.5217   17.6210 H   0  0  0  0  0  0
  -28.2194  -11.3356   19.2732 H   0  0  0  0  0  0
  -27.4970  -12.2099   17.9410 H   0  0  0  0  0  0
  -27.4299  -14.2327   19.2120 H   0  0  0  0  0  0
  -28.8775  -12.9063   21.5488 H   0  0  0  0  0  0
  -28.1013  -14.4642   21.6037 H   0  0  0  0  0  0
  -25.2812   -9.5687   22.4753 H   0  0  0  0  0  0
  -24.0024   -7.4654   22.7481 H   0  0  0  0  0  0
  -21.0884   -8.8803   19.8950 H   0  0  0  0  0  0
  -22.3765  -10.9679   19.6148 H   0  0  0  0  0  0
  -21.2019   -7.6155   23.9720 H   0  0  0  0  0  0
  -21.1484   -6.0525   25.9077 H   0  0  0  0  0  0
  -22.0593   -2.7615   23.2840 H   0  0  0  0  0  0
  -22.4047  -11.9798   22.4868 H   0  0  0  0  0  0
  -21.0993  -13.1097   22.2679 H   0  0  0  0  0  0
  -24.6179  -15.8576   20.5548 H   0  0  0  0  0  0
  -26.2385  -15.6578   20.1185 H   0  0  0  0  0  0
  -26.7591  -32.4793   23.0697 H   0  0  0  0  0  0
  -25.0029  -33.9210   24.9921 H   0  0  0  0  0  0
  -22.8687  -31.2145   21.2889 H   0  0  0  0  0  0
  -23.3780  -35.9417   23.3256 H   0  0  0  0  0  0
  -24.3557  -36.8848   22.2084 H   0  0  0  0  0  0
  -23.7239  -37.6257   23.6792 H   0  0  0  0  0  0
  -26.3419  -31.1689   20.6335 H   0  0  0  0  0  0
  -26.9643  -30.5292   22.1014 H   0  0  0  0  0  0
  -28.1626  -28.2166   21.3681 H   0  0  0  0  0  0
  -25.8253  -25.5363   18.9775 H   0  0  0  0  0  0
  -24.0696  -27.1810   18.8959 H   0  0  0  0  0  0
  -23.9847  -30.4068   19.3695 H   0  0  0  0  0  0
  -22.8993  -29.1273   19.8085 H   0  0  0  0  0  0
  -25.1373  -36.1573   25.0758 H   0  0  0  0  0  0
  -21.0070  -28.3438   24.1238 H   0  0  0  0  0  0
  -20.5652  -26.2427   23.3685 H   0  0  0  0  0  0
  -21.6666  -26.7354   22.1237 H   0  0  0  0  0  0
  -19.6938  -25.6250   21.1308 H   0  0  0  0  0  0
  -19.6734  -27.3124   20.6710 H   0  0  0  0  0  0
  -17.4238  -26.6697   21.4019 H   0  0  0  0  0  0
  -18.0350  -26.0118   22.9033 H   0  0  0  0  0  0
  -19.7998  -30.7359   24.2136 H   0  0  0  0  0  0
  -17.5060  -31.6278   24.5167 H   0  0  0  0  0  0
  -15.5395  -30.2960   23.7731 H   0  0  0  0  0  0
  -15.8729  -28.0799   22.7136 H   0  0  0  0  0  0
  -24.5859  -30.7160   25.7552 H   0  0  0  0  0  0
  -24.8796  -32.3080   26.4431 H   0  0  0  0  0  0
  -25.7777  -30.9168   27.0203 H   0  0  0  0  0  0
  -26.3333  -29.6352   24.1720 H   0  0  0  0  0  0
  -27.3962  -29.7314   25.5510 H   0  0  0  0  0  0
  -27.9330  -30.3880   24.0293 H   0  0  0  0  0  0
  -27.2547  -33.3773   26.1812 H   0  0  0  0  0  0
  -28.3978  -32.6799   25.0431 H   0  0  0  0  0  0
  -28.0554  -31.8696   26.5640 H   0  0  0  0  0  0
  -28.2535  -38.0043   24.7511 H   0  0  0  0  0  0
  -28.1094  -36.2562   24.6300 H   0  0  0  0  0  0
  -27.2271  -37.1350   25.8868 H   0  0  0  0  0  0
  -20.9815  -29.8636   21.6423 H   0  0  0  0  0  0
  -26.0077  -38.2656   24.1419 H   0  0  0  0  0  0
  -28.3790  -17.3734   20.7944 H   0  0  0  0  0  0
  -29.8087  -17.8033   21.6183 H   0  0  0  0  0  0
  -28.4970  -19.4834   19.2158 H   0  0  0  0  0  0
  -30.1569  -19.7543   19.4758 H   0  0  0  0  0  0
  -29.7199  -21.7915   21.0993 H   0  0  0  0  0  0
  -28.0968  -21.3640   21.3924 H   0  0  0  0  0  0
  -27.1407  -23.2591   19.7918 H   0  0  0  0  0  0
  -28.6410  -23.4682   19.0079 H   0  0  0  0  0  0
  1 25  1  0  0  0
  1 30  2  0  0  0
  1 71  1  0  0  0
  2  3  1  0  0  0
  2 25  1  0  0  0
  2 75  1  0  0  0
  2 76  1  0  0  0
  3  4  1  0  0  0
  3 77  1  0  0  0
  3 78  1  0  0  0
  4  5  1  0  0  0
  4 79  1  0  0  0
  4 80  1  0  0  0
  5  6  1  0  0  0
  5 26  1  0  0  0
  5 81  1  0  0  0
  6 25  1  0  0  0
  6 82  1  0  0  0
  6 83  1  0  0  0
  7  8  2  0  0  0
  7 26  1  0  0  0
  7 29  1  0  0  0
  8  9  1  0  0  0
  8 22  1  0  0  0
  9 10  1  0  0  0
  9 27  2  0  0  0
 10 11  2  0  0  0
 10 15  1  0  0  0
 11 12  1  0  0  0
 11 84  1  0  0  0
 12 13  2  0  0  0
 12 85  1  0  0  0
 13 14  1  0  0  0
 13 31  1  0  0  0
 14 15  2  0  0  0
 14 86  1  0  0  0
 15 87  1  0  0  0
 16 17  2  0  0  0
 16 21  1  0  0  0
 16 31  1  0  0  0
 17 18  1  0  0  0
 17 88  1  0  0  0
 18 19  2  0  0  0
 18 89  1  0  0  0
 19 20  1  0  0  0
 19 24  1  0  0  0
 20 21  2  0  0  0
 20 90  1  0  0  0
 21 23  1  0  0  0
 22 28  1  0  0  0
 22 32  2  0  0  0
 26 27  1  0  0  0
 28 91  1  0  0  0
 28 92  1  0  0  0
 29 93  1  0  0  0
 29 94  1  0  0  0
 33 34  1  0  0  0
 33 66  1  0  0  0
 33 70  2  0  0  0
 34 36  1  0  0  0
 34 59  1  0  0  0
 34 95  1  0  0  0
 35 44  2  0  0  0
 35 45  1  0  0  0
 35 68  1  0  0  0
 36 56  1  0  0  0
 36 96  1  0  0  0
 37 39  1  0  0  0
 37 47  1  0  0  0
 37 66  1  0  0  0
 37 97  1  0  0  0
 38 43  2  0  0  0
 38 46  1  0  0  0
 38 47  1  0  0  0
 39 64  1  0  0  0
 39 67  2  0  0  0
 40 52  1  0  0  0
 40 53  2  0  0  0
 40 58  1  0  0  0
 41 98  1  0  0  0
 41 99  1  0  0  0
 41100  1  0  0  0
 41 48  1  0  0  0
 42 43  1  0  0  0
 42 66  1  0  0  0
 42101  1  0  0  0
 42102  1  0  0  0
 43 44  1  0  0  0
 44103  1  0  0  0
 45 46  2  0  0  0
 45104  1  0  0  0
 46105  1  0  0  0
 47106  1  0  0  0
 47107  1  0  0  0
 48 56  1  0  0  0
 48 65  1  0  0  0
 48108  1  0  0  0
 49 50  1  0  0  0
 49 53  1  0  0  0
 49 64  1  0  0  0
 49109  1  0  0  0
 50 51  1  0  0  0
 50110  1  0  0  0
 50111  1  0  0  0
 51 52  1  0  0  0
 51112  1  0  0  0
 51113  1  0  0  0
 52114  1  0  0  0
 52115  1  0  0  0
 53 54  1  0  0  0
 54 55  2  0  0  0
 54116  1  0  0  0
 55 57  1  0  0  0
 55117  1  0  0  0
 56 69  2  0  0  0
 57 58  2  0  0  0
 57118  1  0  0  0
 58119  1  0  0  0
 59 60  1  0  0  0
 59 61  1  0  0  0
 59 62  1  0  0  0
 60120  1  0  0  0
 60121  1  0  0  0
 60122  1  0  0  0
 61123  1  0  0  0
 61124  1  0  0  0
 61125  1  0  0  0
 62126  1  0  0  0
 62127  1  0  0  0
 62128  1  0  0  0
 63 65  1  0  0  0
 63129  1  0  0  0
 63130  1  0  0  0
 63131  1  0  0  0
 64132  1  0  0  0
 65133  1  0  0  0
 68 74  1  0  0  0
 71 72  1  0  0  0
 71134  1  0  0  0
 71135  1  0  0  0
 72 73  1  0  0  0
 72136  1  0  0  0
 72137  1  0  0  0
 73 74  1  0  0  0
 73138  1  0  0  0
 73139  1  0  0  0
 74140  1  0  0  0
 74141  1  0  0  0
M  ISO  4   1 100  68 101  71 100  74 101
M  END
> <chiral flag>
0

> <version>
0

> <s_m_source_file>
/data/baiqing/PycharmProjects/Reinvent-master-3.2/result/LINK_invent/BTK/process_docking_weight1_custom_product_contain_oxygen_bond_distance_aromatic_linkinvent_7_9_3/rearranged_h_0018.sdf

> <i_m_source_file_index>
50

> <r_mmod_Potential_Energy-OPLS-2005>
3668.06030273438

> <r_mmod_Stretch_Energy-OPLS-2005>
1750.03735351562

> <r_mmod_Bend_Energy-OPLS-2005>
824.422912597656

> <r_mmod_Torsional_Energy-OPLS-2005>
187.771408081055

> <r_mmod_Improper_Torsional_Energy-OPLS-2005>
1.5564923286438

> <r_mmod_Van_der_Waal_Energy-OPLS-2005>
112.782829284668

> <r_mmod_Electrostatic_Energy-OPLS-2005>
-301.606292724609

> <r_mmod_Solvation_Energy-OPLS-2005>
-195.708908081055

> <b_mmod_Minimization_Converged-OPLS-2005>
1

> <r_mmod_RMS_Derivative-OPLS-2005>
0.0465158149600029

$$$$
50
                    3D
 Structure written by MMmdl.
161169  0  0  1  0            999 V2000
  -30.7211  -14.4673   20.5798 C   0  0  0  0  0  0
  -30.4219  -12.3165   19.4155 C   0  0  0  0  0  0
  -29.4882  -12.4906   18.2027 C   0  0  0  0  0  0
  -28.0140  -12.3308   18.6223 C   0  0  0  0  0  0
  -27.6527  -13.1895   19.8605 C   0  0  2  0  0  0
  -28.6982  -12.9995   20.9832 C   0  0  0  0  0  0
  -25.2575  -13.8095   20.5743 C   0  0  0  0  0  0
  -24.1802  -13.0383   20.9177 C   0  0  0  0  0  0
  -24.6351  -11.6853   20.8723 C   0  0  0  0  0  0
  -23.9030  -10.4249   21.0401 C   0  0  0  0  0  0
  -24.3588   -9.4178   21.9187 C   0  0  0  0  0  0
  -23.6262   -8.2218   22.0765 C   0  0  0  0  0  0
  -22.4242   -8.0268   21.3560 C   0  0  0  0  0  0
  -21.9875   -9.0234   20.4656 C   0  0  0  0  0  0
  -22.7206  -10.2100   20.3056 C   0  0  0  0  0  0
  -21.6845   -6.0730   22.5292 C   0  0  0  0  0  0
  -21.4012   -6.5628   23.8227 C   0  0  0  0  0  0
  -21.3654   -5.6776   24.9182 C   0  0  0  0  0  0
  -21.6038   -4.3040   24.7222 C   0  0  0  0  0  0
  -21.8832   -3.8144   23.4340 C   0  0  0  0  0  0
  -21.9189   -4.6963   22.3404 C   0  0  0  0  0  0
  -22.7828  -13.5214   21.1853 C   0  0  0  0  0  0
  -22.1655   -4.2154   21.0981 F   0  0  0  0  0  0
  -21.5618   -3.4520   25.7732 F   0  0  0  0  0  0
  -30.0232  -13.3097   20.4251 N   0  0  0  0  0  0
  -26.2971  -12.9231   20.3302 N   0  0  0  0  0  0
  -25.9262  -11.6406   20.5699 N   0  0  0  0  0  0
  -22.0451  -12.8233   22.0404 N   0  0  0  0  0  0
  -25.4309  -15.1824   20.4433 N   0  0  0  0  0  0
  -31.8653  -14.6228   20.1525 O   0  0  0  0  0  0
  -21.6617   -6.8868   21.4251 O   0  0  0  0  0  0
  -22.3531  -14.5545   20.6725 O   0  0  0  0  0  0
  -24.6111  -31.8702   23.2104 C   0  0  0  0  0  0
  -25.9012  -32.4833   23.8392 C   0  0  1  0  0  0
  -27.2339  -27.4576   20.0929 C   0  0  0  0  0  0
  -25.5867  -33.8627   24.2308 N   0  0  0  0  0  0
  -23.3978  -30.4891   21.5537 C   0  0  2  0  0  0
  -24.8444  -28.9539   20.1220 C   0  0  0  0  0  0
  -22.7380  -29.4634   22.5032 C   0  0  0  0  0  0
  -18.0286  -28.1346   22.8477 C   0  0  0  0  0  0
  -24.1499  -36.7327   23.2634 C   0  0  0  0  0  0
  -25.9216  -30.8408   21.3609 C   0  0  0  0  0  0
  -26.0014  -29.4719   20.7210 C   0  0  0  0  0  0
  -27.2005  -28.7267   20.7134 C   0  0  0  0  0  0
  -26.0690  -26.9497   19.4879 C   0  0  0  0  0  0
  -24.8692  -27.6887   19.5086 C   0  0  0  0  0  0
  -23.6051  -29.8169   20.1708 C   0  0  0  0  0  0
  -25.4117  -36.3117   24.0332 C   0  0  1  0  0  0
  -20.5864  -28.3588   23.1362 C   0  0  2  0  0  0
  -20.6751  -26.9366   22.5341 C   0  0  0  0  0  0
  -19.5758  -26.6462   21.5104 C   0  0  0  0  0  0
  -18.1939  -26.7917   22.1567 C   0  0  0  0  0  0
  -19.1544  -28.8778   23.2940 C   0  0  0  0  0  0
  -18.9509  -30.1377   23.8968 C   0  0  0  0  0  0
  -17.6545  -30.6563   24.0609 C   0  0  0  0  0  0
  -25.9029  -34.9473   23.5120 C   0  0  0  0  0  0
  -16.5411  -29.9095   23.6368 C   0  0  0  0  0  0
  -16.7290  -28.6519   23.0349 C   0  0  0  0  0  0
  -26.4437  -31.6594   25.0699 C   0  0  0  0  0  0
  -25.3722  -31.3690   26.1463 C   0  0  0  0  0  0
  -27.0248  -30.3042   24.6029 C   0  0  0  0  0  0
  -27.5999  -32.4312   25.7463 C   0  0  0  0  0  0
  -27.5585  -37.1817   24.8465 C   0  0  0  0  0  0
  -21.4109  -29.3010   22.3803 N   0  0  0  0  0  0
  -26.4304  -37.3798   23.9394 N   0  0  0  0  0  0
  -24.6620  -31.0802   22.1017 N   0  0  0  0  0  0
  -23.4172  -28.8157   23.3051 O   0  0  0  0  0  0
  -28.3893  -26.7231   20.0123 O   0  0  0  0  0  0
  -26.5601  -34.8926   22.4686 O   0  0  0  0  0  0
  -23.5314  -32.1412   23.7521 O   0  0  0  0  0  0
  -29.1809  -18.5199   21.6443 C   0  0  0  0  0  0
  -27.4491  -18.0889   20.0099 C   0  0  0  0  0  0
  -28.7724  -19.8711   21.7105 C   0  0  0  0  0  0
  -27.0452  -19.4377   20.0831 C   0  0  0  0  0  0
  -28.5170  -17.6073   20.7911 C   0  0  0  0  0  0
  -27.6867  -20.3711   20.9389 C   0  0  0  0  0  0
  -26.0416  -22.0646   20.2523 C   0  0  0  0  0  0
  -28.8997  -16.1276   20.6590 C   0  0  0  0  0  0
  -27.5421  -24.0542   22.0572 C   0  0  0  0  0  0
  -28.6874  -24.5976   21.1814 C   0  0  0  0  0  0
  -27.5335  -22.5129   22.2229 C   0  0  0  0  0  0
  -28.8437  -26.1357   21.2266 C   0  0  0  0  0  0
  -30.1116  -15.4972   21.1943 N   0  0  0  0  0  0
  -27.2637  -21.7354   20.9997 N   0  0  0  0  0  0
  -31.4632  -12.4242   19.1057 H   0  0  0  0  0  0
  -30.3415  -11.3076   19.8256 H   0  0  0  0  0  0
  -29.7336  -11.7583   17.4346 H   0  0  0  0  0  0
  -29.6454  -13.4711   17.7521 H   0  0  0  0  0  0
  -27.8487  -11.2763   18.8451 H   0  0  0  0  0  0
  -27.3547  -12.5713   17.7891 H   0  0  0  0  0  0
  -27.6771  -14.2211   19.5179 H   0  0  0  0  0  0
  -28.6850  -11.9679   21.3394 H   0  0  0  0  0  0
  -28.4593  -13.6147   21.8504 H   0  0  0  0  0  0
  -25.2730   -9.5656   22.4753 H   0  0  0  0  0  0
  -23.9976   -7.4614   22.7484 H   0  0  0  0  0  0
  -21.0812   -8.8768   19.8959 H   0  0  0  0  0  0
  -22.3699  -10.9648   19.6164 H   0  0  0  0  0  0
  -21.2026   -7.6145   23.9734 H   0  0  0  0  0  0
  -21.1446   -6.0502   25.9083 H   0  0  0  0  0  0
  -22.0621   -2.7609   23.2844 H   0  0  0  0  0  0
  -22.3992  -11.9845   22.4774 H   0  0  0  0  0  0
  -21.1094  -13.1311   22.2616 H   0  0  0  0  0  0
  -24.6890  -15.8357   20.6690 H   0  0  0  0  0  0
  -26.3129  -15.6355   20.2507 H   0  0  0  0  0  0
  -26.7066  -32.5551   23.1155 H   0  0  0  0  0  0
  -25.0035  -33.9813   25.0461 H   0  0  0  0  0  0
  -22.6854  -31.3038   21.4125 H   0  0  0  0  0  0
  -23.3753  -35.9672   23.3315 H   0  0  0  0  0  0
  -24.3589  -36.8929   22.2045 H   0  0  0  0  0  0
  -23.7268  -37.6541   23.6641 H   0  0  0  0  0  0
  -26.0225  -31.5999   20.5842 H   0  0  0  0  0  0
  -26.8156  -30.9045   21.9695 H   0  0  0  0  0  0
  -28.0993  -29.1261   21.1614 H   0  0  0  0  0  0
  -26.0940  -25.9861   18.9990 H   0  0  0  0  0  0
  -23.9813  -27.2854   19.0416 H   0  0  0  0  0  0
  -23.7064  -30.5877   19.4064 H   0  0  0  0  0  0
  -22.7328  -29.2285   19.8833 H   0  0  0  0  0  0
  -25.1301  -36.1984   25.0828 H   0  0  0  0  0  0
  -20.9968  -28.3085   24.1473 H   0  0  0  0  0  0
  -20.5576  -26.2126   23.3424 H   0  0  0  0  0  0
  -21.6637  -26.7405   22.1174 H   0  0  0  0  0  0
  -19.6963  -25.6430   21.0976 H   0  0  0  0  0  0
  -19.6682  -27.3379   20.6712 H   0  0  0  0  0  0
  -17.4181  -26.6620   21.3991 H   0  0  0  0  0  0
  -18.0408  -26.0025   22.8938 H   0  0  0  0  0  0
  -19.8006  -30.7147   24.2402 H   0  0  0  0  0  0
  -17.5133  -31.6257   24.5205 H   0  0  0  0  0  0
  -15.5428  -30.3022   23.7731 H   0  0  0  0  0  0
  -15.8666  -28.0867   22.7051 H   0  0  0  0  0  0
  -24.5886  -30.7045   25.7811 H   0  0  0  0  0  0
  -24.8928  -32.2849   26.4925 H   0  0  0  0  0  0
  -25.8103  -30.8850   27.0203 H   0  0  0  0  0  0
  -26.2774  -29.6833   24.1075 H   0  0  0  0  0  0
  -27.4029  -29.7237   25.4448 H   0  0  0  0  0  0
  -27.8598  -30.4370   23.9147 H   0  0  0  0  0  0
  -27.2590  -33.3590   26.2070 H   0  0  0  0  0  0
  -28.3789  -32.6912   25.0284 H   0  0  0  0  0  0
  -28.0675  -31.8420   26.5363 H   0  0  0  0  0  0
  -28.2612  -38.0101   24.7494 H   0  0  0  0  0  0
  -28.1076  -36.2633   24.6322 H   0  0  0  0  0  0
  -27.2299  -37.1499   25.8867 H   0  0  0  0  0  0
  -20.9237  -29.8783   21.7089 H   0  0  0  0  0  0
  -26.0203  -38.2884   24.1372 H   0  0  0  0  0  0
  -30.0095  -18.1933   22.2572 H   0  0  0  0  0  0
  -26.9303  -17.4251   19.3349 H   0  0  0  0  0  0
  -29.3400  -20.5000   22.3770 H   0  0  0  0  0  0
  -26.2209  -19.7160   19.4444 H   0  0  0  0  0  0
  -25.7238  -23.0966   20.3774 H   0  0  0  0  0  0
  -25.2049  -21.4451   20.5806 H   0  0  0  0  0  0
  -26.1887  -21.9152   19.1814 H   0  0  0  0  0  0
  -28.6238  -16.1403   21.7155 H   0  0  0  0  0  0
  -29.6253  -16.6290   20.0116 H   0  0  0  0  0  0
  -26.5818  -24.4381   21.7187 H   0  0  0  0  0  0
  -27.6689  -24.4745   23.0548 H   0  0  0  0  0  0
  -28.5700  -24.2576   20.1495 H   0  0  0  0  0  0
  -29.6180  -24.1531   21.5339 H   0  0  0  0  0  0
  -26.7858  -22.2376   22.9701 H   0  0  0  0  0  0
  -28.4957  -22.2642   22.6603 H   0  0  0  0  0  0
  -29.9027  -26.3819   21.3223 H   0  0  0  0  0  0
  -28.3602  -26.5601   22.1089 H   0  0  0  0  0  0
  -30.7751  -16.1751   21.5373 H   0  0  0  0  0  0
  1 25  1  0  0  0
  1 30  2  0  0  0
  1 83  1  0  0  0
  2  3  1  0  0  0
  2 25  1  0  0  0
  2 85  1  0  0  0
  2 86  1  0  0  0
  3  4  1  0  0  0
  3 87  1  0  0  0
  3 88  1  0  0  0
  4  5  1  0  0  0
  4 89  1  0  0  0
  4 90  1  0  0  0
  5  6  1  0  0  0
  5 26  1  0  0  0
  5 91  1  0  0  0
  6 25  1  0  0  0
  6 92  1  0  0  0
  6 93  1  0  0  0
  7  8  2  0  0  0
  7 26  1  0  0  0
  7 29  1  0  0  0
  8  9  1  0  0  0
  8 22  1  0  0  0
  9 10  1  0  0  0
  9 27  2  0  0  0
 10 11  2  0  0  0
 10 15  1  0  0  0
 11 12  1  0  0  0
 11 94  1  0  0  0
 12 13  2  0  0  0
 12 95  1  0  0  0
 13 14  1  0  0  0
 13 31  1  0  0  0
 14 15  2  0  0  0
 14 96  1  0  0  0
 15 97  1  0  0  0
 16 17  2  0  0  0
 16 21  1  0  0  0
 16 31  1  0  0  0
 17 18  1  0  0  0
 17 98  1  0  0  0
 18 19  2  0  0  0
 18 99  1  0  0  0
 19 20  1  0  0  0
 19 24  1  0  0  0
 20 21  2  0  0  0
 20100  1  0  0  0
 21 23  1  0  0  0
 22 28  1  0  0  0
 22 32  2  0  0  0
 26 27  1  0  0  0
 28101  1  0  0  0
 28102  1  0  0  0
 29103  1  0  0  0
 29104  1  0  0  0
 33 34  1  0  0  0
 33 66  1  0  0  0
 33 70  2  0  0  0
 34 36  1  0  0  0
 34 59  1  0  0  0
 34105  1  0  0  0
 35 44  2  0  0  0
 35 45  1  0  0  0
 35 68  1  0  0  0
 36 56  1  0  0  0
 36106  1  0  0  0
 37 39  1  0  0  0
 37 47  1  0  0  0
 37 66  1  0  0  0
 37107  1  0  0  0
 38 43  2  0  0  0
 38 46  1  0  0  0
 38 47  1  0  0  0
 39 64  1  0  0  0
 39 67  2  0  0  0
 40 52  1  0  0  0
 40 53  2  0  0  0
 40 58  1  0  0  0
 41108  1  0  0  0
 41109  1  0  0  0
 41110  1  0  0  0
 41 48  1  0  0  0
 42 43  1  0  0  0
 42 66  1  0  0  0
 42111  1  0  0  0
 42112  1  0  0  0
 43 44  1  0  0  0
 44113  1  0  0  0
 45 46  2  0  0  0
 45114  1  0  0  0
 46115  1  0  0  0
 47116  1  0  0  0
 47117  1  0  0  0
 48 56  1  0  0  0
 48 65  1  0  0  0
 48118  1  0  0  0
 49 50  1  0  0  0
 49 53  1  0  0  0
 49 64  1  0  0  0
 49119  1  0  0  0
 50 51  1  0  0  0
 50120  1  0  0  0
 50121  1  0  0  0
 51 52  1  0  0  0
 51122  1  0  0  0
 51123  1  0  0  0
 52124  1  0  0  0
 52125  1  0  0  0
 53 54  1  0  0  0
 54 55  2  0  0  0
 54126  1  0  0  0
 55 57  1  0  0  0
 55127  1  0  0  0
 56 69  2  0  0  0
 57 58  2  0  0  0
 57128  1  0  0  0
 58129  1  0  0  0
 59 60  1  0  0  0
 59 61  1  0  0  0
 59 62  1  0  0  0
 60130  1  0  0  0
 60131  1  0  0  0
 60132  1  0  0  0
 61133  1  0  0  0
 61134  1  0  0  0
 61135  1  0  0  0
 62136  1  0  0  0
 62137  1  0  0  0
 62138  1  0  0  0
 63 65  1  0  0  0
 63139  1  0  0  0
 63140  1  0  0  0
 63141  1  0  0  0
 64142  1  0  0  0
 65143  1  0  0  0
 68 82  1  0  0  0
 71 73  2  0  0  0
 71 75  1  0  0  0
 71144  1  0  0  0
 72 74  1  0  0  0
 72 75  2  0  0  0
 72145  1  0  0  0
 73 76  1  0  0  0
 73146  1  0  0  0
 74 76  2  0  0  0
 74147  1  0  0  0
 75 78  1  0  0  0
 76 84  1  0  0  0
 77 84  1  0  0  0
 77148  1  0  0  0
 77149  1  0  0  0
 77150  1  0  0  0
 78 83  1  0  0  0
 78151  1  0  0  0
 78152  1  0  0  0
 79 80  1  0  0  0
 79 81  1  0  0  0
 79153  1  0  0  0
 79154  1  0  0  0
 80 82  1  0  0  0
 80155  1  0  0  0
 80156  1  0  0  0
 81 84  1  0  0  0
 81157  1  0  0  0
 81158  1  0  0  0
 82159  1  0  0  0
 82160  1  0  0  0
 83161  1  0  0  0
M  ISO  4   1 100  68 101  82 101  83 100
M  END
> <chiral flag>
0

> <version>
0

> <s_m_source_file>
/data/baiqing/PycharmProjects/Reinvent-master-3.2/result/LINK_invent/BTK/process_docking_weight1_custom_product_contain_oxygen_bond_distance_aromatic_linkinvent_7_9_3/rearranged_h_0018.sdf

> <i_m_source_file_index>
51

> <r_mmod_Potential_Energy-OPLS-2005>
177.511703491211

> <r_mmod_Stretch_Energy-OPLS-2005>
37.9989852905273

> <r_mmod_Bend_Energy-OPLS-2005>
318.895751953125

> <r_mmod_Torsional_Energy-OPLS-2005>
278.526397705078

> <r_mmod_Improper_Torsional_Energy-OPLS-2005>
8.00125598907471

> <r_mmod_Van_der_Waal_Energy-OPLS-2005>
165.627487182617

> <r_mmod_Electrostatic_Energy-OPLS-2005>
-426.815338134766

> <r_mmod_Solvation_Energy-OPLS-2005>
-217.720886230469

> <b_mmod_Minimization_Converged-OPLS-2005>
0

> <r_mmod_RMS_Derivative-OPLS-2005>
3.8131799697876

$$$$
51
                    3D
 Structure written by MMmdl.
158166  0  0  1  0            999 V2000
  -30.7351  -14.4559   20.6322 C   0  0  0  0  0  0
  -30.4216  -12.3272   19.4100 C   0  0  0  0  0  0
  -29.4821  -12.4975   18.2005 C   0  0  0  0  0  0
  -28.0132  -12.3365   18.6303 C   0  0  0  0  0  0
  -27.6582  -13.2017   19.8671 C   0  0  2  0  0  0
  -28.6989  -13.0025   20.9903 C   0  0  0  0  0  0
  -25.2601  -13.8159   20.5670 C   0  0  0  0  0  0
  -24.1847  -13.0444   20.9180 C   0  0  0  0  0  0
  -24.6392  -11.6911   20.8765 C   0  0  0  0  0  0
  -23.9063  -10.4296   21.0440 C   0  0  0  0  0  0
  -24.3615   -9.4203   21.9209 C   0  0  0  0  0  0
  -23.6287   -8.2238   22.0765 C   0  0  0  0  0  0
  -22.4270   -8.0282   21.3551 C   0  0  0  0  0  0
  -21.9912   -9.0271   20.4660 C   0  0  0  0  0  0
  -22.7246  -10.2145   20.3078 C   0  0  0  0  0  0
  -21.6844   -6.0745   22.5285 C   0  0  0  0  0  0
  -21.4009   -6.5647   23.8221 C   0  0  0  0  0  0
  -21.3655   -5.6799   24.9186 C   0  0  0  0  0  0
  -21.6033   -4.3061   24.7232 C   0  0  0  0  0  0
  -21.8816   -3.8155   23.4356 C   0  0  0  0  0  0
  -21.9192   -4.6973   22.3416 C   0  0  0  0  0  0
  -22.7871  -13.5256   21.1849 C   0  0  0  0  0  0
  -22.1655   -4.2155   21.0991 F   0  0  0  0  0  0
  -21.5632   -3.4546   25.7748 F   0  0  0  0  0  0
  -30.0283  -13.3096   20.4345 N   0  0  0  0  0  0
  -26.3011  -12.9306   20.3340 N   0  0  0  0  0  0
  -25.9307  -11.6482   20.5786 N   0  0  0  0  0  0
  -22.0504  -12.8261   22.0399 N   0  0  0  0  0  0
  -25.4372  -15.1870   20.4076 N   0  0  0  0  0  0
  -31.8357  -14.6531   20.1131 O   0  0  0  0  0  0
  -21.6625   -6.8886   21.4244 O   0  0  0  0  0  0
  -22.3565  -14.5570   20.6695 O   0  0  0  0  0  0
  -24.6164  -31.8677   23.2110 C   0  0  0  0  0  0
  -25.9058  -32.4819   23.8406 C   0  0  1  0  0  0
  -27.2194  -27.4112   20.0965 C   0  0  0  0  0  0
  -25.5908  -33.8618   24.2332 N   0  0  0  0  0  0
  -23.4035  -30.4945   21.5525 C   0  0  2  0  0  0
  -24.8453  -28.9621   20.1143 C   0  0  0  0  0  0
  -22.7416  -29.4666   22.4991 C   0  0  0  0  0  0
  -18.0268  -28.1378   22.8484 C   0  0  0  0  0  0
  -24.1486  -36.7321   23.2639 C   0  0  0  0  0  0
  -25.9368  -30.8263   21.3682 C   0  0  0  0  0  0
  -26.0103  -29.4622   20.7087 C   0  0  0  0  0  0
  -27.2018  -28.6965   20.6928 C   0  0  0  0  0  0
  -26.0312  -26.9366   19.4910 C   0  0  0  0  0  0
  -24.8514  -27.6998   19.5016 C   0  0  0  0  0  0
  -23.6110  -29.8323   20.1652 C   0  0  0  0  0  0
  -25.4105  -36.3111   24.0338 C   0  0  1  0  0  0
  -20.5862  -28.3671   23.1308 C   0  0  2  0  0  0
  -20.6762  -26.9408   22.5406 C   0  0  0  0  0  0
  -19.5738  -26.6389   21.5205 C   0  0  0  0  0  0
  -18.1920  -26.7918   22.1624 C   0  0  0  0  0  0
  -19.1520  -28.8842   23.2893 C   0  0  0  0  0  0
  -18.9448  -30.1447   23.8904 C   0  0  0  0  0  0
  -17.6451  -30.6584   24.0567 C   0  0  0  0  0  0
  -25.9031  -34.9477   23.5134 C   0  0  0  0  0  0
  -16.5342  -29.9086   23.6327 C   0  0  0  0  0  0
  -16.7260  -28.6505   23.0344 C   0  0  0  0  0  0
  -26.4472  -31.6594   25.0737 C   0  0  0  0  0  0
  -25.3738  -31.3711   26.1492 C   0  0  0  0  0  0
  -27.0299  -30.3026   24.6134 C   0  0  0  0  0  0
  -27.6059  -32.4310   25.7491 C   0  0  0  0  0  0
  -27.5576  -37.1815   24.8465 C   0  0  0  0  0  0
  -21.4146  -29.3040   22.3719 N   0  0  0  0  0  0
  -26.4296  -37.3794   23.9403 N   0  0  0  0  0  0
  -24.6706  -31.0770   22.1013 N   0  0  0  0  0  0
  -23.4188  -28.8200   23.3026 O   0  0  0  0  0  0
  -28.3732  -26.6460   20.1292 O   0  0  0  0  0  0
  -26.5596  -34.8931   22.4694 O   0  0  0  0  0  0
  -23.5355  -32.1442   23.7494 O   0  0  0  0  0  0
  -29.5403  -18.6713   21.8707 C   0  0  0  0  0  0
  -29.4684  -20.0563   21.5756 C   0  0  0  0  0  0
  -31.6639  -19.9421   20.5794 C   0  0  0  0  0  0
  -30.6947  -17.9120   21.5642 C   0  0  0  0  0  0
  -30.5532  -20.7352   20.9672 C   0  0  0  0  0  0
  -31.7482  -18.5652   20.8793 C   0  0  0  0  0  0
  -31.8831  -22.7857   20.6625 C   0  0  0  0  0  0
  -30.8553  -16.4780   22.1074 C   0  0  0  0  0  0
  -29.4765  -24.4387   20.4617 C   0  0  0  0  0  0
  -29.3612  -22.8824   20.3685 C   0  0  0  0  0  0
  -28.2030  -25.2130   20.0547 C   0  0  0  0  0  0
  -30.1567  -15.3795   21.4209 N   0  0  0  0  0  0
  -30.5681  -22.1529   20.8131 N   0  0  0  0  0  0
  -33.1996  -17.7348   20.4415 Cl  0  0  0  0  0  0
  -31.4609  -12.4414   19.0949 H   0  0  0  0  0  0
  -30.3457  -11.3187   19.8177 H   0  0  0  0  0  0
  -29.7257  -11.7649   17.4299 H   0  0  0  0  0  0
  -29.6286  -13.4794   17.7488 H   0  0  0  0  0  0
  -27.8532  -11.2822   18.8642 H   0  0  0  0  0  0
  -27.3442  -12.5618   17.7997 H   0  0  0  0  0  0
  -27.7002  -14.2435   19.5487 H   0  0  0  0  0  0
  -28.6839  -11.9702   21.3423 H   0  0  0  0  0  0
  -28.4428  -13.6087   21.8601 H   0  0  0  0  0  0
  -25.2767   -9.5662   22.4784 H   0  0  0  0  0  0
  -23.9991   -7.4625   22.7482 H   0  0  0  0  0  0
  -21.0844   -8.8811   19.8964 H   0  0  0  0  0  0
  -22.3733  -10.9694   19.6186 H   0  0  0  0  0  0
  -21.1990   -7.6153   23.9727 H   0  0  0  0  0  0
  -21.1474   -6.0532   25.9089 H   0  0  0  0  0  0
  -22.0595   -2.7613   23.2864 H   0  0  0  0  0  0
  -22.4092  -11.9901   22.4778 H   0  0  0  0  0  0
  -21.1133  -13.1314   22.2624 H   0  0  0  0  0  0
  -24.6788  -15.8515   20.5190 H   0  0  0  0  0  0
  -26.2996  -15.6185   20.0977 H   0  0  0  0  0  0
  -26.7119  -32.5511   23.1164 H   0  0  0  0  0  0
  -25.0050  -33.9784   25.0472 H   0  0  0  0  0  0
  -22.6930  -31.3124   21.4158 H   0  0  0  0  0  0
  -23.3736  -35.9668   23.3322 H   0  0  0  0  0  0
  -24.3577  -36.8911   22.2047 H   0  0  0  0  0  0
  -23.7259  -37.6542   23.6638 H   0  0  0  0  0  0
  -26.0583  -31.5954   20.6042 H   0  0  0  0  0  0
  -26.8222  -30.8713   21.9907 H   0  0  0  0  0  0
  -28.1004  -29.0759   21.1591 H   0  0  0  0  0  0
  -25.9886  -25.9730   19.0060 H   0  0  0  0  0  0
  -23.9543  -27.3103   19.0403 H   0  0  0  0  0  0
  -23.7235  -30.6104   19.4095 H   0  0  0  0  0  0
  -22.7330  -29.2562   19.8658 H   0  0  0  0  0  0
  -25.1280  -36.1980   25.0833 H   0  0  0  0  0  0
  -20.9945  -28.3233   24.1434 H   0  0  0  0  0  0
  -20.5661  -26.2281   23.3593 H   0  0  0  0  0  0
  -21.6635  -26.7447   22.1203 H   0  0  0  0  0  0
  -19.6905  -25.6304   21.1222 H   0  0  0  0  0  0
  -19.6676  -27.3211   20.6743 H   0  0  0  0  0  0
  -17.4183  -26.6654   21.4035 H   0  0  0  0  0  0
  -18.0342  -26.0063   22.9027 H   0  0  0  0  0  0
  -19.7931  -30.7257   24.2278 H   0  0  0  0  0  0
  -17.5013  -31.6263   24.5172 H   0  0  0  0  0  0
  -15.5347  -30.2993   23.7652 H   0  0  0  0  0  0
  -15.8658  -28.0832   22.7053 H   0  0  0  0  0  0
  -24.5917  -30.7043   25.7838 H   0  0  0  0  0  0
  -24.8926  -32.2866   26.4938 H   0  0  0  0  0  0
  -25.8101  -30.8888   27.0250 H   0  0  0  0  0  0
  -26.2847  -29.6794   24.1172 H   0  0  0  0  0  0
  -27.4025  -29.7258   25.4609 H   0  0  0  0  0  0
  -27.8707  -30.4323   23.9322 H   0  0  0  0  0  0
  -27.2685  -33.3596   26.2107 H   0  0  0  0  0  0
  -28.3846  -32.6885   25.0300 H   0  0  0  0  0  0
  -28.0754  -31.8409   26.5370 H   0  0  0  0  0  0
  -28.2612  -38.0092   24.7487 H   0  0  0  0  0  0
  -28.1053  -36.2624   24.6321 H   0  0  0  0  0  0
  -27.2293  -37.1505   25.8870 H   0  0  0  0  0  0
  -20.9308  -29.8778   21.6954 H   0  0  0  0  0  0
  -26.0183  -38.2875   24.1395 H   0  0  0  0  0  0
  -28.7189  -18.2061   22.3980 H   0  0  0  0  0  0
  -28.5894  -20.5989   21.8901 H   0  0  0  0  0  0
  -32.5098  -20.3809   20.0743 H   0  0  0  0  0  0
  -31.8926  -23.7913   21.0831 H   0  0  0  0  0  0
  -32.1690  -22.8520   19.6115 H   0  0  0  0  0  0
  -32.6640  -22.2479   21.2010 H   0  0  0  0  0  0
  -30.4808  -16.4823   23.1324 H   0  0  0  0  0  0
  -31.9123  -16.2328   22.2222 H   0  0  0  0  0  0
  -30.2817  -24.7870   19.8138 H   0  0  0  0  0  0
  -29.7446  -24.7272   21.4793 H   0  0  0  0  0  0
  -29.1387  -22.5962   19.3384 H   0  0  0  0  0  0
  -28.5041  -22.5635   20.9622 H   0  0  0  0  0  0
  -27.3888  -24.9018   20.7137 H   0  0  0  0  0  0
  -27.9318  -24.9266   19.0371 H   0  0  0  0  0  0
  -29.2254  -15.1660   21.7441 H   0  0  0  0  0  0
  1 25  1  0  0  0
  1 30  2  0  0  0
  1 82  1  0  0  0
  2  3  1  0  0  0
  2 25  1  0  0  0
  2 85  1  0  0  0
  2 86  1  0  0  0
  3  4  1  0  0  0
  3 87  1  0  0  0
  3 88  1  0  0  0
  4  5  1  0  0  0
  4 89  1  0  0  0
  4 90  1  0  0  0
  5  6  1  0  0  0
  5 26  1  0  0  0
  5 91  1  0  0  0
  6 25  1  0  0  0
  6 92  1  0  0  0
  6 93  1  0  0  0
  7  8  2  0  0  0
  7 26  1  0  0  0
  7 29  1  0  0  0
  8  9  1  0  0  0
  8 22  1  0  0  0
  9 10  1  0  0  0
  9 27  2  0  0  0
 10 11  2  0  0  0
 10 15  1  0  0  0
 11 12  1  0  0  0
 11 94  1  0  0  0
 12 13  2  0  0  0
 12 95  1  0  0  0
 13 14  1  0  0  0
 13 31  1  0  0  0
 14 15  2  0  0  0
 14 96  1  0  0  0
 15 97  1  0  0  0
 16 17  2  0  0  0
 16 21  1  0  0  0
 16 31  1  0  0  0
 17 18  1  0  0  0
 17 98  1  0  0  0
 18 19  2  0  0  0
 18 99  1  0  0  0
 19 20  1  0  0  0
 19 24  1  0  0  0
 20 21  2  0  0  0
 20100  1  0  0  0
 21 23  1  0  0  0
 22 28  1  0  0  0
 22 32  2  0  0  0
 26 27  1  0  0  0
 28101  1  0  0  0
 28102  1  0  0  0
 29103  1  0  0  0
 29104  1  0  0  0
 33 34  1  0  0  0
 33 66  1  0  0  0
 33 70  2  0  0  0
 34 36  1  0  0  0
 34 59  1  0  0  0
 34105  1  0  0  0
 35 44  2  0  0  0
 35 45  1  0  0  0
 35 68  1  0  0  0
 36 56  1  0  0  0
 36106  1  0  0  0
 37 39  1  0  0  0
 37 47  1  0  0  0
 37 66  1  0  0  0
 37107  1  0  0  0
 38 43  2  0  0  0
 38 46  1  0  0  0
 38 47  1  0  0  0
 39 64  1  0  0  0
 39 67  2  0  0  0
 40 52  1  0  0  0
 40 53  2  0  0  0
 40 58  1  0  0  0
 41108  1  0  0  0
 41109  1  0  0  0
 41110  1  0  0  0
 41 48  1  0  0  0
 42 43  1  0  0  0
 42 66  1  0  0  0
 42111  1  0  0  0
 42112  1  0  0  0
 43 44  1  0  0  0
 44113  1  0  0  0
 45 46  2  0  0  0
 45114  1  0  0  0
 46115  1  0  0  0
 47116  1  0  0  0
 47117  1  0  0  0
 48 56  1  0  0  0
 48 65  1  0  0  0
 48118  1  0  0  0
 49 50  1  0  0  0
 49 53  1  0  0  0
 49 64  1  0  0  0
 49119  1  0  0  0
 50 51  1  0  0  0
 50120  1  0  0  0
 50121  1  0  0  0
 51 52  1  0  0  0
 51122  1  0  0  0
 51123  1  0  0  0
 52124  1  0  0  0
 52125  1  0  0  0
 53 54  1  0  0  0
 54 55  2  0  0  0
 54126  1  0  0  0
 55 57  1  0  0  0
 55127  1  0  0  0
 56 69  2  0  0  0
 57 58  2  0  0  0
 57128  1  0  0  0
 58129  1  0  0  0
 59 60  1  0  0  0
 59 61  1  0  0  0
 59 62  1  0  0  0
 60130  1  0  0  0
 60131  1  0  0  0
 60132  1  0  0  0
 61133  1  0  0  0
 61134  1  0  0  0
 61135  1  0  0  0
 62136  1  0  0  0
 62137  1  0  0  0
 62138  1  0  0  0
 63 65  1  0  0  0
 63139  1  0  0  0
 63140  1  0  0  0
 63141  1  0  0  0
 64142  1  0  0  0
 65143  1  0  0  0
 68 81  1  0  0  0
 71 72  2  0  0  0
 71 74  1  0  0  0
 71144  1  0  0  0
 72 75  1  0  0  0
 72145  1  0  0  0
 73 75  2  0  0  0
 73 76  1  0  0  0
 73146  1  0  0  0
 74 76  2  0  0  0
 74 78  1  0  0  0
 75 83  1  0  0  0
 76 84  1  0  0  0
 77 83  1  0  0  0
 77147  1  0  0  0
 77148  1  0  0  0
 77149  1  0  0  0
 78 82  1  0  0  0
 78150  1  0  0  0
 78151  1  0  0  0
 79 80  1  0  0  0
 79 81  1  0  0  0
 79152  1  0  0  0
 79153  1  0  0  0
 80 83  1  0  0  0
 80154  1  0  0  0
 80155  1  0  0  0
 81156  1  0  0  0
 81157  1  0  0  0
 82158  1  0  0  0
M  ISO  4   1 100  68 101  81 101  82 100
M  END
> <chiral flag>
0

> <version>
0

> <s_m_source_file>
/data/baiqing/PycharmProjects/Reinvent-master-3.2/result/LINK_invent/BTK/process_docking_weight1_custom_product_contain_oxygen_bond_distance_aromatic_linkinvent_7_9_3/rearranged_h_0018.sdf

> <i_m_source_file_index>
52

> <r_mmod_Potential_Energy-OPLS-2005>
-65.2804718017578

> <r_mmod_Stretch_Energy-OPLS-2005>
43.4112091064453

> <r_mmod_Bend_Energy-OPLS-2005>
108.690124511719

> <r_mmod_Torsional_Energy-OPLS-2005>
204.969955444336

> <r_mmod_Improper_Torsional_Energy-OPLS-2005>
3.98026251792908

> <r_mmod_Van_der_Waal_Energy-OPLS-2005>
166.533630371094

> <r_mmod_Electrostatic_Energy-OPLS-2005>
-374.514099121094

> <r_mmod_Solvation_Energy-OPLS-2005>
-233.370071411133

> <b_mmod_Minimization_Converged-OPLS-2005>
0

> <r_mmod_RMS_Derivative-OPLS-2005>
1.79727911949158

$$$$
52
                    3D
 Structure written by MMmdl.
152160  0  0  1  0            999 V2000
  -30.5241  -14.9140   20.4248 C   0  0  0  0  0  0
  -30.4496  -12.5628   19.4915 C   0  0  0  0  0  0
  -29.5227  -12.5333   18.2527 C   0  0  0  0  0  0
  -28.0560  -12.3214   18.6719 C   0  0  0  0  0  0
  -27.6396  -13.2411   19.8490 C   0  0  2  0  0  0
  -28.6832  -13.2337   20.9874 C   0  0  0  0  0  0
  -25.2509  -13.8204   20.5718 C   0  0  0  0  0  0
  -24.1804  -13.0440   20.9192 C   0  0  0  0  0  0
  -24.6419  -11.6924   20.8756 C   0  0  0  0  0  0
  -23.9099  -10.4292   21.0419 C   0  0  0  0  0  0
  -24.3644   -9.4207   21.9195 C   0  0  0  0  0  0
  -23.6311   -8.2248   22.0767 C   0  0  0  0  0  0
  -22.4285   -8.0296   21.3551 C   0  0  0  0  0  0
  -21.9934   -9.0269   20.4650 C   0  0  0  0  0  0
  -22.7274  -10.2145   20.3063 C   0  0  0  0  0  0
  -21.6855   -6.0751   22.5276 C   0  0  0  0  0  0
  -21.4016   -6.5654   23.8211 C   0  0  0  0  0  0
  -21.3653   -5.6803   24.9166 C   0  0  0  0  0  0
  -21.6049   -4.3067   24.7215 C   0  0  0  0  0  0
  -21.8819   -3.8162   23.4332 C   0  0  0  0  0  0
  -21.9192   -4.6982   22.3394 C   0  0  0  0  0  0
  -22.7820  -13.5225   21.1845 C   0  0  0  0  0  0
  -22.1661   -4.2174   21.0967 F   0  0  0  0  0  0
  -21.5625   -3.4549   25.7723 F   0  0  0  0  0  0
  -29.9668  -13.6399   20.3991 N   0  0  0  0  0  0
  -26.2944  -12.9430   20.3294 N   0  0  0  0  0  0
  -25.9355  -11.6565   20.5763 N   0  0  0  0  0  0
  -22.0473  -12.8204   22.0406 N   0  0  0  0  0  0
  -25.4188  -15.1937   20.4193 N   0  0  0  0  0  0
  -31.7125  -15.0319   20.1071 O   0  0  0  0  0  0
  -21.6640   -6.8900   21.4244 O   0  0  0  0  0  0
  -22.3507  -14.5526   20.6698 O   0  0  0  0  0  0
  -24.6410  -31.8434   23.1899 C   0  0  0  0  0  0
  -25.9190  -32.4692   23.8273 C   0  0  1  0  0  0
  -27.2235  -27.1559   20.1377 C   0  0  0  0  0  0
  -25.5950  -33.8501   24.2198 N   0  0  0  0  0  0
  -23.4431  -30.4661   21.5326 C   0  0  2  0  0  0
  -24.8925  -28.8947   20.1080 C   0  0  0  0  0  0
  -22.7568  -29.4546   22.4842 C   0  0  0  0  0  0
  -18.0303  -28.1390   22.8441 C   0  0  0  0  0  0
  -24.1493  -36.7256   23.2649 C   0  0  0  0  0  0
  -25.9968  -30.7269   21.3834 C   0  0  0  0  0  0
  -26.0679  -29.3397   20.7232 C   0  0  0  0  0  0
  -27.2286  -28.4837   20.7265 C   0  0  0  0  0  0
  -26.0165  -26.8038   19.4929 C   0  0  0  0  0  0
  -24.8778  -27.6379   19.4845 C   0  0  0  0  0  0
  -23.6701  -29.7971   20.1507 C   0  0  0  0  0  0
  -25.4115  -36.3037   24.0337 C   0  0  1  0  0  0
  -20.5912  -28.3706   23.1228 C   0  0  2  0  0  0
  -20.6779  -26.9408   22.5404 C   0  0  0  0  0  0
  -19.5764  -26.6367   21.5200 C   0  0  0  0  0  0
  -18.1942  -26.7921   22.1598 C   0  0  0  0  0  0
  -19.1561  -28.8860   23.2822 C   0  0  0  0  0  0
  -18.9487  -30.1448   23.8855 C   0  0  0  0  0  0
  -17.6493  -30.6575   24.0548 C   0  0  0  0  0  0
  -25.9074  -34.9412   23.5078 C   0  0  0  0  0  0
  -16.5376  -29.9071   23.6335 C   0  0  0  0  0  0
  -16.7294  -28.6505   23.0324 C   0  0  0  0  0  0
  -26.4525  -31.6549   25.0703 C   0  0  0  0  0  0
  -25.3723  -31.3745   26.1416 C   0  0  0  0  0  0
  -27.0406  -30.2956   24.6267 C   0  0  0  0  0  0
  -27.6042  -32.4319   25.7482 C   0  0  0  0  0  0
  -27.5575  -37.1770   24.8464 C   0  0  0  0  0  0
  -21.4263  -29.3048   22.3617 N   0  0  0  0  0  0
  -26.4266  -37.3756   23.9437 N   0  0  0  0  0  0
  -24.7134  -31.0326   22.0915 N   0  0  0  0  0  0
  -23.4229  -28.8117   23.2993 O   0  0  0  0  0  0
  -28.3041  -26.2109   20.2404 O   0  0  0  0  0  0
  -26.5653  -34.8913   22.4653 O   0  0  0  0  0  0
  -23.5534  -32.1276   23.7151 O   0  0  0  0  0  0
  -30.6158  -19.7982   19.7829 C   0  0  0  0  0  0
  -30.7261  -18.3596   19.9412 C   0  0  0  0  0  0
  -28.4713  -19.8011   20.7349 C   0  0  0  0  0  0
  -29.4918  -20.6363   20.1646 C   0  0  0  0  0  0
  -29.6947  -17.5436   20.4909 C   0  0  0  0  0  0
  -28.5644  -18.3508   20.8766 C   0  0  0  0  0  0
  -30.7553  -22.6115   19.4647 C   0  0  0  0  0  0
  -28.5881  -23.2981   20.4998 C   0  0  0  0  0  0
  -28.3524  -24.7628   19.6801 C   0  0  0  0  0  0
  -29.6754  -16.0219   20.6532 N   0  0  0  0  0  0
  -29.4558  -22.1237   19.9374 N   0  0  0  0  0  0
  -27.5001  -17.6990   21.4040 F   0  0  0  0  0  0
  -31.4820  -12.7272   19.1778 H   0  0  0  0  0  0
  -30.4427  -11.5993   20.0035 H   0  0  0  0  0  0
  -29.8331  -11.7462   17.5643 H   0  0  0  0  0  0
  -29.6136  -13.4725   17.7048 H   0  0  0  0  0  0
  -27.9457  -11.2778   18.9673 H   0  0  0  0  0  0
  -27.3909  -12.4692   17.8207 H   0  0  0  0  0  0
  -27.6135  -14.2503   19.4376 H   0  0  0  0  0  0
  -28.7592  -12.2489   21.4506 H   0  0  0  0  0  0
  -28.3880  -13.9219   21.7811 H   0  0  0  0  0  0
  -25.2794   -9.5677   22.4765 H   0  0  0  0  0  0
  -24.0017   -7.4643   22.7494 H   0  0  0  0  0  0
  -21.0866   -8.8806   19.8952 H   0  0  0  0  0  0
  -22.3752  -10.9692   19.6175 H   0  0  0  0  0  0
  -21.2013   -7.6162   23.9723 H   0  0  0  0  0  0
  -21.1474   -6.0526   25.9070 H   0  0  0  0  0  0
  -22.0604   -2.7630   23.2818 H   0  0  0  0  0  0
  -22.4100  -11.9858   22.4759 H   0  0  0  0  0  0
  -21.1101  -13.1239   22.2635 H   0  0  0  0  0  0
  -24.6603  -15.8487   20.5679 H   0  0  0  0  0  0
  -26.2797  -15.6509   20.1507 H   0  0  0  0  0  0
  -26.7253  -32.5304   23.0996 H   0  0  0  0  0  0
  -25.0092  -33.9610   25.0344 H   0  0  0  0  0  0
  -22.7433  -31.2913   21.3798 H   0  0  0  0  0  0
  -23.3767  -35.9569   23.3270 H   0  0  0  0  0  0
  -24.3593  -36.8919   22.2074 H   0  0  0  0  0  0
  -23.7234  -37.6443   23.6695 H   0  0  0  0  0  0
  -26.1493  -31.4857   20.6145 H   0  0  0  0  0  0
  -26.8688  -30.7764   22.0242 H   0  0  0  0  0  0
  -28.1218  -28.8202   21.2351 H   0  0  0  0  0  0
  -25.8984  -25.8420   19.0229 H   0  0  0  0  0  0
  -23.9760  -27.2853   19.0034 H   0  0  0  0  0  0
  -23.8116  -30.5730   19.3972 H   0  0  0  0  0  0
  -22.7844  -29.2439   19.8351 H   0  0  0  0  0  0
  -25.1294  -36.1855   25.0826 H   0  0  0  0  0  0
  -20.9972  -28.3284   24.1360 H   0  0  0  0  0  0
  -20.5644  -26.2328   23.3626 H   0  0  0  0  0  0
  -21.6648  -26.7397   22.1223 H   0  0  0  0  0  0
  -19.6935  -25.6281   21.1228 H   0  0  0  0  0  0
  -19.6705  -27.3163   20.6722 H   0  0  0  0  0  0
  -17.4217  -26.6652   21.4003 H   0  0  0  0  0  0
  -18.0328  -26.0074   22.9004 H   0  0  0  0  0  0
  -19.7981  -30.7246   24.2205 H   0  0  0  0  0  0
  -17.5069  -31.6251   24.5158 H   0  0  0  0  0  0
  -15.5378  -30.2961   23.7693 H   0  0  0  0  0  0
  -15.8695  -28.0825   22.7034 H   0  0  0  0  0  0
  -24.5914  -30.7070   25.7761 H   0  0  0  0  0  0
  -24.8898  -32.2932   26.4760 H   0  0  0  0  0  0
  -25.8011  -30.8990   27.0245 H   0  0  0  0  0  0
  -26.3033  -29.6659   24.1277 H   0  0  0  0  0  0
  -27.4067  -29.7281   25.4835 H   0  0  0  0  0  0
  -27.8907  -30.4235   23.9560 H   0  0  0  0  0  0
  -27.2638  -33.3661   26.1966 H   0  0  0  0  0  0
  -28.3886  -32.6804   25.0319 H   0  0  0  0  0  0
  -28.0664  -31.8506   26.5477 H   0  0  0  0  0  0
  -28.2547  -38.0110   24.7542 H   0  0  0  0  0  0
  -28.1118  -36.2638   24.6221 H   0  0  0  0  0  0
  -27.2311  -37.1329   25.8872 H   0  0  0  0  0  0
  -20.9470  -29.8823   21.6854 H   0  0  0  0  0  0
  -26.0140  -38.2821   24.1454 H   0  0  0  0  0  0
  -31.4802  -20.2467   19.3186 H   0  0  0  0  0  0
  -31.6352  -17.8786   19.6103 H   0  0  0  0  0  0
  -27.5568  -20.2699   21.0671 H   0  0  0  0  0  0
  -30.9828  -22.2250   18.4702 H   0  0  0  0  0  0
  -31.5522  -22.3130   20.1473 H   0  0  0  0  0  0
  -30.8206  -23.6948   19.4033 H   0  0  0  0  0  0
  -27.6016  -22.8949   20.7344 H   0  0  0  0  0  0
  -29.0175  -23.5435   21.4710 H   0  0  0  0  0  0
  -27.5102  -24.5937   19.0169 H   0  0  0  0  0  0
  -29.1656  -24.8529   18.9647 H   0  0  0  0  0  0
  -28.7695  -15.7009   20.9602 H   0  0  0  0  0  0
  1 25  1  0  0  0
  1 30  2  0  0  0
  1 80  1  0  0  0
  2  3  1  0  0  0
  2 25  1  0  0  0
  2 83  1  0  0  0
  2 84  1  0  0  0
  3  4  1  0  0  0
  3 85  1  0  0  0
  3 86  1  0  0  0
  4  5  1  0  0  0
  4 87  1  0  0  0
  4 88  1  0  0  0
  5  6  1  0  0  0
  5 26  1  0  0  0
  5 89  1  0  0  0
  6 25  1  0  0  0
  6 90  1  0  0  0
  6 91  1  0  0  0
  7  8  2  0  0  0
  7 26  1  0  0  0
  7 29  1  0  0  0
  8  9  1  0  0  0
  8 22  1  0  0  0
  9 10  1  0  0  0
  9 27  2  0  0  0
 10 11  2  0  0  0
 10 15  1  0  0  0
 11 12  1  0  0  0
 11 92  1  0  0  0
 12 13  2  0  0  0
 12 93  1  0  0  0
 13 14  1  0  0  0
 13 31  1  0  0  0
 14 15  2  0  0  0
 14 94  1  0  0  0
 15 95  1  0  0  0
 16 17  2  0  0  0
 16 21  1  0  0  0
 16 31  1  0  0  0
 17 18  1  0  0  0
 17 96  1  0  0  0
 18 19  2  0  0  0
 18 97  1  0  0  0
 19 20  1  0  0  0
 19 24  1  0  0  0
 20 21  2  0  0  0
 20 98  1  0  0  0
 21 23  1  0  0  0
 22 28  1  0  0  0
 22 32  2  0  0  0
 26 27  1  0  0  0
 28 99  1  0  0  0
 28100  1  0  0  0
 29101  1  0  0  0
 29102  1  0  0  0
 33 34  1  0  0  0
 33 66  1  0  0  0
 33 70  2  0  0  0
 34 36  1  0  0  0
 34 59  1  0  0  0
 34103  1  0  0  0
 35 44  2  0  0  0
 35 45  1  0  0  0
 35 68  1  0  0  0
 36 56  1  0  0  0
 36104  1  0  0  0
 37 39  1  0  0  0
 37 47  1  0  0  0
 37 66  1  0  0  0
 37105  1  0  0  0
 38 43  2  0  0  0
 38 46  1  0  0  0
 38 47  1  0  0  0
 39 64  1  0  0  0
 39 67  2  0  0  0
 40 52  1  0  0  0
 40 53  2  0  0  0
 40 58  1  0  0  0
 41106  1  0  0  0
 41107  1  0  0  0
 41108  1  0  0  0
 41 48  1  0  0  0
 42 43  1  0  0  0
 42 66  1  0  0  0
 42109  1  0  0  0
 42110  1  0  0  0
 43 44  1  0  0  0
 44111  1  0  0  0
 45 46  2  0  0  0
 45112  1  0  0  0
 46113  1  0  0  0
 47114  1  0  0  0
 47115  1  0  0  0
 48 56  1  0  0  0
 48 65  1  0  0  0
 48116  1  0  0  0
 49 50  1  0  0  0
 49 53  1  0  0  0
 49 64  1  0  0  0
 49117  1  0  0  0
 50 51  1  0  0  0
 50118  1  0  0  0
 50119  1  0  0  0
 51 52  1  0  0  0
 51120  1  0  0  0
 51121  1  0  0  0
 52122  1  0  0  0
 52123  1  0  0  0
 53 54  1  0  0  0
 54 55  2  0  0  0
 54124  1  0  0  0
 55 57  1  0  0  0
 55125  1  0  0  0
 56 69  2  0  0  0
 57 58  2  0  0  0
 57126  1  0  0  0
 58127  1  0  0  0
 59 60  1  0  0  0
 59 61  1  0  0  0
 59 62  1  0  0  0
 60128  1  0  0  0
 60129  1  0  0  0
 60130  1  0  0  0
 61131  1  0  0  0
 61132  1  0  0  0
 61133  1  0  0  0
 62134  1  0  0  0
 62135  1  0  0  0
 62136  1  0  0  0
 63 65  1  0  0  0
 63137  1  0  0  0
 63138  1  0  0  0
 63139  1  0  0  0
 64140  1  0  0  0
 65141  1  0  0  0
 68 79  1  0  0  0
 71 72  2  0  0  0
 71 74  1  0  0  0
 71142  1  0  0  0
 72 75  1  0  0  0
 72143  1  0  0  0
 73 74  2  0  0  0
 73 76  1  0  0  0
 73144  1  0  0  0
 74 81  1  0  0  0
 75 76  2  0  0  0
 75 80  1  0  0  0
 76 82  1  0  0  0
 77 81  1  0  0  0
 77145  1  0  0  0
 77146  1  0  0  0
 77147  1  0  0  0
 78 79  1  0  0  0
 78 81  1  0  0  0
 78148  1  0  0  0
 78149  1  0  0  0
 79150  1  0  0  0
 79151  1  0  0  0
 80152  1  0  0  0
M  ISO  4   1 100  68 101  79 101  80 100
M  END
> <chiral flag>
0

> <version>
0

> <s_m_source_file>
/data/baiqing/PycharmProjects/Reinvent-master-3.2/result/LINK_invent/BTK/process_docking_weight1_custom_product_contain_oxygen_bond_distance_aromatic_linkinvent_7_9_3/rearranged_h_0018.sdf

> <i_m_source_file_index>
53

> <r_mmod_Potential_Energy-OPLS-2005>
422.703674316406

> <r_mmod_Stretch_Energy-OPLS-2005>
226.532485961914

> <r_mmod_Bend_Energy-OPLS-2005>
287.821533203125

> <r_mmod_Torsional_Energy-OPLS-2005>
202.968505859375

> <r_mmod_Improper_Torsional_Energy-OPLS-2005>
4.99595546722412

> <r_mmod_Van_der_Waal_Energy-OPLS-2005>
146.032180786133

> <r_mmod_Electrostatic_Energy-OPLS-2005>
-393.502685546875

> <r_mmod_Solvation_Energy-OPLS-2005>
-222.135986328125

> <b_mmod_Minimization_Converged-OPLS-2005>
0

> <r_mmod_RMS_Derivative-OPLS-2005>
2.36566257476807

$$$$
53
                    3D
 Structure written by MMmdl.
160168  0  0  1  0            999 V2000
  -30.6927  -14.4674   20.5512 C   0  0  0  0  0  0
  -30.4250  -12.2959   19.4259 C   0  0  0  0  0  0
  -29.4976  -12.5002   18.2092 C   0  0  0  0  0  0
  -28.0171  -12.3662   18.6195 C   0  0  0  0  0  0
  -27.6639  -13.2056   19.8767 C   0  0  2  0  0  0
  -28.7041  -12.9807   20.9980 C   0  0  0  0  0  0
  -25.2603  -13.8165   20.5682 C   0  0  0  0  0  0
  -24.1848  -13.0443   20.9168 C   0  0  0  0  0  0
  -24.6398  -11.6907   20.8733 C   0  0  0  0  0  0
  -23.9062  -10.4293   21.0407 C   0  0  0  0  0  0
  -24.3614   -9.4209   21.9186 C   0  0  0  0  0  0
  -23.6288   -8.2245   22.0757 C   0  0  0  0  0  0
  -22.4273   -8.0282   21.3548 C   0  0  0  0  0  0
  -21.9905   -9.0256   20.4651 C   0  0  0  0  0  0
  -22.7234  -10.2134   20.3056 C   0  0  0  0  0  0
  -21.6851   -6.0733   22.5280 C   0  0  0  0  0  0
  -21.4012   -6.5641   23.8213 C   0  0  0  0  0  0
  -21.3657   -5.6793   24.9175 C   0  0  0  0  0  0
  -21.6044   -4.3055   24.7227 C   0  0  0  0  0  0
  -21.8819   -3.8145   23.4348 C   0  0  0  0  0  0
  -21.9193   -4.6961   22.3404 C   0  0  0  0  0  0
  -22.7872  -13.5244   21.1832 C   0  0  0  0  0  0
  -22.1662   -4.2147   21.0982 F   0  0  0  0  0  0
  -21.5629   -3.4539   25.7737 F   0  0  0  0  0  0
  -30.0393  -13.2788   20.4502 N   0  0  0  0  0  0
  -26.3036  -12.9330   20.3368 N   0  0  0  0  0  0
  -25.9326  -11.6489   20.5768 N   0  0  0  0  0  0
  -22.0507  -12.8243   22.0389 N   0  0  0  0  0  0
  -25.4348  -15.1880   20.4104 N   0  0  0  0  0  0
  -31.8306  -14.6385   20.1057 O   0  0  0  0  0  0
  -21.6640   -6.8877   21.4242 O   0  0  0  0  0  0
  -22.3560  -14.5554   20.6685 O   0  0  0  0  0  0
  -24.6135  -31.8683   23.2106 C   0  0  0  0  0  0
  -25.9030  -32.4827   23.8399 C   0  0  1  0  0  0
  -27.2355  -27.4505   20.0962 C   0  0  0  0  0  0
  -25.5888  -33.8623   24.2340 N   0  0  0  0  0  0
  -23.4013  -30.4919   21.5498 C   0  0  2  0  0  0
  -24.8505  -28.9592   20.1124 C   0  0  0  0  0  0
  -22.7404  -29.4665   22.4987 C   0  0  0  0  0  0
  -18.0267  -28.1375   22.8501 C   0  0  0  0  0  0
  -24.1485  -36.7316   23.2637 C   0  0  0  0  0  0
  -25.9284  -30.8397   21.3604 C   0  0  0  0  0  0
  -26.0091  -29.4749   20.7088 C   0  0  0  0  0  0
  -27.2082  -28.7274   20.6989 C   0  0  0  0  0  0
  -26.0664  -26.9460   19.4912 C   0  0  0  0  0  0
  -24.8730  -27.6932   19.5002 C   0  0  0  0  0  0
  -23.6101  -29.8229   20.1642 C   0  0  0  0  0  0
  -25.4100  -36.3109   24.0346 C   0  0  1  0  0  0
  -20.5860  -28.3657   23.1324 C   0  0  2  0  0  0
  -20.6763  -26.9397   22.5419 C   0  0  0  0  0  0
  -19.5739  -26.6385   21.5216 C   0  0  0  0  0  0
  -18.1916  -26.7925   22.1625 C   0  0  0  0  0  0
  -19.1519  -28.8831   23.2913 C   0  0  0  0  0  0
  -18.9450  -30.1441   23.8917 C   0  0  0  0  0  0
  -17.6455  -30.6586   24.0570 C   0  0  0  0  0  0
  -25.9026  -34.9476   23.5137 C   0  0  0  0  0  0
  -16.5343  -29.9094   23.6325 C   0  0  0  0  0  0
  -16.7258  -28.6509   23.0347 C   0  0  0  0  0  0
  -26.4463  -31.6593   25.0719 C   0  0  0  0  0  0
  -25.3741  -31.3704   26.1478 C   0  0  0  0  0  0
  -27.0279  -30.3038   24.6066 C   0  0  0  0  0  0
  -27.6048  -32.4298   25.7475 C   0  0  0  0  0  0
  -27.5583  -37.1801   24.8458 C   0  0  0  0  0  0
  -21.4132  -29.3034   22.3736 N   0  0  0  0  0  0
  -26.4284  -37.3796   23.9423 N   0  0  0  0  0  0
  -24.6659  -31.0801   22.0994 N   0  0  0  0  0  0
  -23.4186  -28.8207   23.3018 O   0  0  0  0  0  0
  -28.3715  -26.6778   20.1115 O   0  0  0  0  0  0
  -26.5592  -34.8931   22.4701 O   0  0  0  0  0  0
  -23.5330  -32.1421   23.7515 O   0  0  0  0  0  0
  -28.7750  -19.0164   20.8533 C   0  0  0  0  0  0
  -28.9273  -17.6725   21.2544 C   0  0  0  0  0  0
  -30.8214  -17.4502   19.7584 C   0  0  0  0  0  0
  -29.6247  -19.5876   19.8801 C   0  0  0  0  0  0
  -30.6826  -18.7988   19.3451 C   0  0  0  0  0  0
  -29.9367  -16.8598   20.6958 C   0  0  0  0  0  0
  -29.0557  -23.3641   20.0590 C   0  0  0  0  0  0
  -30.6720  -21.9511   21.3024 C   0  0  0  0  0  0
  -29.3240  -21.0120   19.3804 C   0  0  0  0  0  0
  -29.4006  -24.5595   20.9773 C   0  0  0  0  0  0
  -28.3035  -25.6436   21.1034 C   0  0  0  0  0  0
  -31.6572  -19.3568   18.3039 C   0  0  0  0  0  0
  -29.9618  -15.4747   21.0717 N   0  0  0  0  0  0
  -29.6463  -22.1532   20.2688 N   0  0  0  0  0  0
  -28.2450  -23.5408   19.1440 O   0  0  0  0  0  0
  -32.6906  -18.5391   18.0969 F   0  0  0  0  0  0
  -31.0305  -19.5219   17.1389 F   0  0  0  0  0  0
  -32.1542  -20.5293   18.6984 F   0  0  0  0  0  0
  -31.4704  -12.3915   19.1254 H   0  0  0  0  0  0
  -30.3232  -11.2844   19.8211 H   0  0  0  0  0  0
  -29.7358  -11.7750   17.4298 H   0  0  0  0  0  0
  -29.6709  -13.4855   17.7724 H   0  0  0  0  0  0
  -27.8236  -11.3107   18.8144 H   0  0  0  0  0  0
  -27.3691  -12.6438   17.7876 H   0  0  0  0  0  0
  -27.7104  -14.2541   19.5809 H   0  0  0  0  0  0
  -28.6753  -11.9451   21.3398 H   0  0  0  0  0  0
  -28.4672  -13.5809   21.8776 H   0  0  0  0  0  0
  -25.2760   -9.5684   22.4757 H   0  0  0  0  0  0
  -24.0000   -7.4634   22.7477 H   0  0  0  0  0  0
  -21.0834   -8.8771   19.8958 H   0  0  0  0  0  0
  -22.3695  -10.9668   19.6162 H   0  0  0  0  0  0
  -21.2004   -7.6148   23.9715 H   0  0  0  0  0  0
  -21.1479   -6.0524   25.9079 H   0  0  0  0  0  0
  -22.0601   -2.7605   23.2848 H   0  0  0  0  0  0
  -22.4109  -11.9898   22.4770 H   0  0  0  0  0  0
  -21.1126  -13.1279   22.2593 H   0  0  0  0  0  0
  -24.6709  -15.8461   20.5210 H   0  0  0  0  0  0
  -26.2906  -15.6251   20.0917 H   0  0  0  0  0  0
  -26.7110  -32.5550   23.1174 H   0  0  0  0  0  0
  -25.0042  -33.9782   25.0488 H   0  0  0  0  0  0
  -22.6896  -31.3081   21.4103 H   0  0  0  0  0  0
  -23.3747  -35.9644   23.3277 H   0  0  0  0  0  0
  -24.3595  -36.8948   22.2057 H   0  0  0  0  0  0
  -23.7229  -37.6516   23.6656 H   0  0  0  0  0  0
  -26.0365  -31.6053   20.5909 H   0  0  0  0  0  0
  -26.8185  -30.8963   21.9753 H   0  0  0  0  0  0
  -28.1025  -29.1178   21.1646 H   0  0  0  0  0  0
  -26.0821  -25.9708   19.0243 H   0  0  0  0  0  0
  -23.9828  -27.2902   19.0372 H   0  0  0  0  0  0
  -23.7172  -30.5972   19.4037 H   0  0  0  0  0  0
  -22.7351  -29.2408   19.8698 H   0  0  0  0  0  0
  -25.1271  -36.1966   25.0836 H   0  0  0  0  0  0
  -20.9954  -28.3214   24.1442 H   0  0  0  0  0  0
  -20.5659  -26.2265   23.3603 H   0  0  0  0  0  0
  -21.6633  -26.7442   22.1205 H   0  0  0  0  0  0
  -19.6899  -25.6302   21.1227 H   0  0  0  0  0  0
  -19.6677  -27.3214   20.6761 H   0  0  0  0  0  0
  -17.4189  -26.6681   21.4025 H   0  0  0  0  0  0
  -18.0313  -26.0062   22.9013 H   0  0  0  0  0  0
  -19.7930  -30.7255   24.2285 H   0  0  0  0  0  0
  -17.5015  -31.6267   24.5169 H   0  0  0  0  0  0
  -15.5347  -30.3006   23.7640 H   0  0  0  0  0  0
  -15.8657  -28.0845   22.7038 H   0  0  0  0  0  0
  -24.5891  -30.7073   25.7823 H   0  0  0  0  0  0
  -24.8962  -32.2870   26.4951 H   0  0  0  0  0  0
  -25.8105  -30.8851   27.0219 H   0  0  0  0  0  0
  -26.2811  -29.6813   24.1124 H   0  0  0  0  0  0
  -27.4072  -29.7252   25.4498 H   0  0  0  0  0  0
  -27.8635  -30.4368   23.9190 H   0  0  0  0  0  0
  -27.2679  -33.3594   26.2072 H   0  0  0  0  0  0
  -28.3848  -32.6859   25.0291 H   0  0  0  0  0  0
  -28.0721  -31.8403   26.5375 H   0  0  0  0  0  0
  -28.2571  -38.0128   24.7543 H   0  0  0  0  0  0
  -28.1110  -36.2664   24.6217 H   0  0  0  0  0  0
  -27.2321  -37.1366   25.8864 H   0  0  0  0  0  0
  -20.9276  -29.8780   21.6992 H   0  0  0  0  0  0
  -26.0170  -38.2868   24.1442 H   0  0  0  0  0  0
  -27.9699  -19.6041   21.2727 H   0  0  0  0  0  0
  -28.2342  -17.2644   21.9778 H   0  0  0  0  0  0
  -31.6090  -16.8690   19.3081 H   0  0  0  0  0  0
  -30.2039  -21.8445   22.2817 H   0  0  0  0  0  0
  -31.3700  -22.7880   21.3452 H   0  0  0  0  0  0
  -31.2864  -21.0686   21.1347 H   0  0  0  0  0  0
  -28.2524  -21.0197   19.1692 H   0  0  0  0  0  0
  -29.7876  -21.1963   18.4125 H   0  0  0  0  0  0
  -30.3422  -25.0062   20.6581 H   0  0  0  0  0  0
  -29.5643  -24.1772   21.9840 H   0  0  0  0  0  0
  -28.4037  -26.1229   22.0784 H   0  0  0  0  0  0
  -27.3214  -25.1652   21.1143 H   0  0  0  0  0  0
  -29.1438  -15.1558   21.5685 H   0  0  0  0  0  0
  1 25  1  0  0  0
  1 30  2  0  0  0
  1 83  1  0  0  0
  2  3  1  0  0  0
  2 25  1  0  0  0
  2 89  1  0  0  0
  2 90  1  0  0  0
  3  4  1  0  0  0
  3 91  1  0  0  0
  3 92  1  0  0  0
  4  5  1  0  0  0
  4 93  1  0  0  0
  4 94  1  0  0  0
  5  6  1  0  0  0
  5 26  1  0  0  0
  5 95  1  0  0  0
  6 25  1  0  0  0
  6 96  1  0  0  0
  6 97  1  0  0  0
  7  8  2  0  0  0
  7 26  1  0  0  0
  7 29  1  0  0  0
  8  9  1  0  0  0
  8 22  1  0  0  0
  9 10  1  0  0  0
  9 27  2  0  0  0
 10 11  2  0  0  0
 10 15  1  0  0  0
 11 12  1  0  0  0
 11 98  1  0  0  0
 12 13  2  0  0  0
 12 99  1  0  0  0
 13 14  1  0  0  0
 13 31  1  0  0  0
 14 15  2  0  0  0
 14100  1  0  0  0
 15101  1  0  0  0
 16 17  2  0  0  0
 16 21  1  0  0  0
 16 31  1  0  0  0
 17 18  1  0  0  0
 17102  1  0  0  0
 18 19  2  0  0  0
 18103  1  0  0  0
 19 20  1  0  0  0
 19 24  1  0  0  0
 20 21  2  0  0  0
 20104  1  0  0  0
 21 23  1  0  0  0
 22 28  1  0  0  0
 22 32  2  0  0  0
 26 27  1  0  0  0
 28105  1  0  0  0
 28106  1  0  0  0
 29107  1  0  0  0
 29108  1  0  0  0
 33 34  1  0  0  0
 33 66  1  0  0  0
 33 70  2  0  0  0
 34 36  1  0  0  0
 34 59  1  0  0  0
 34109  1  0  0  0
 35 44  2  0  0  0
 35 45  1  0  0  0
 35 68  1  0  0  0
 36 56  1  0  0  0
 36110  1  0  0  0
 37 39  1  0  0  0
 37 47  1  0  0  0
 37 66  1  0  0  0
 37111  1  0  0  0
 38 43  2  0  0  0
 38 46  1  0  0  0
 38 47  1  0  0  0
 39 64  1  0  0  0
 39 67  2  0  0  0
 40 52  1  0  0  0
 40 53  2  0  0  0
 40 58  1  0  0  0
 41112  1  0  0  0
 41113  1  0  0  0
 41114  1  0  0  0
 41 48  1  0  0  0
 42 43  1  0  0  0
 42 66  1  0  0  0
 42115  1  0  0  0
 42116  1  0  0  0
 43 44  1  0  0  0
 44117  1  0  0  0
 45 46  2  0  0  0
 45118  1  0  0  0
 46119  1  0  0  0
 47120  1  0  0  0
 47121  1  0  0  0
 48 56  1  0  0  0
 48 65  1  0  0  0
 48122  1  0  0  0
 49 50  1  0  0  0
 49 53  1  0  0  0
 49 64  1  0  0  0
 49123  1  0  0  0
 50 51  1  0  0  0
 50124  1  0  0  0
 50125  1  0  0  0
 51 52  1  0  0  0
 51126  1  0  0  0
 51127  1  0  0  0
 52128  1  0  0  0
 52129  1  0  0  0
 53 54  1  0  0  0
 54 55  2  0  0  0
 54130  1  0  0  0
 55 57  1  0  0  0
 55131  1  0  0  0
 56 69  2  0  0  0
 57 58  2  0  0  0
 57132  1  0  0  0
 58133  1  0  0  0
 59 60  1  0  0  0
 59 61  1  0  0  0
 59 62  1  0  0  0
 60134  1  0  0  0
 60135  1  0  0  0
 60136  1  0  0  0
 61137  1  0  0  0
 61138  1  0  0  0
 61139  1  0  0  0
 62140  1  0  0  0
 62141  1  0  0  0
 62142  1  0  0  0
 63 65  1  0  0  0
 63143  1  0  0  0
 63144  1  0  0  0
 63145  1  0  0  0
 64146  1  0  0  0
 65147  1  0  0  0
 68 81  1  0  0  0
 71 72  2  0  0  0
 71 74  1  0  0  0
 71148  1  0  0  0
 72 76  1  0  0  0
 72149  1  0  0  0
 73 75  1  0  0  0
 73 76  2  0  0  0
 73150  1  0  0  0
 74 75  2  0  0  0
 74 79  1  0  0  0
 75 82  1  0  0  0
 76 83  1  0  0  0
 77 80  1  0  0  0
 77 84  1  0  0  0
 77 85  2  0  0  0
 78 84  1  0  0  0
 78151  1  0  0  0
 78152  1  0  0  0
 78153  1  0  0  0
 79 84  1  0  0  0
 79154  1  0  0  0
 79155  1  0  0  0
 80 81  1  0  0  0
 80156  1  0  0  0
 80157  1  0  0  0
 81158  1  0  0  0
 81159  1  0  0  0
 82 86  1  0  0  0
 82 87  1  0  0  0
 82 88  1  0  0  0
 83160  1  0  0  0
M  ISO  4   1 100  68 101  81 101  83 100
M  END
> <chiral flag>
0

> <version>
0

> <s_m_source_file>
/data/baiqing/PycharmProjects/Reinvent-master-3.2/result/LINK_invent/BTK/process_docking_weight1_custom_product_contain_oxygen_bond_distance_aromatic_linkinvent_7_9_3/rearranged_h_0018.sdf

> <i_m_source_file_index>
54

> <r_mmod_Potential_Energy-OPLS-2005>
-10.7069568634033

> <r_mmod_Stretch_Energy-OPLS-2005>
41.8038139343262

> <r_mmod_Bend_Energy-OPLS-2005>
102.213279724121

> <r_mmod_Torsional_Energy-OPLS-2005>
252.083602905273

> <r_mmod_Improper_Torsional_Energy-OPLS-2005>
4.264892578125

> <r_mmod_Van_der_Waal_Energy-OPLS-2005>
168.766845703125

> <r_mmod_Electrostatic_Energy-OPLS-2005>
-368.841613769531

> <r_mmod_Solvation_Energy-OPLS-2005>
-223.541839599609

> <b_mmod_Minimization_Converged-OPLS-2005>
0

> <r_mmod_RMS_Derivative-OPLS-2005>
0.783284962177277

$$$$
54
                    3D
 Structure written by MMmdl.
139146  0  0  1  0            999 V2000
  -29.8717  -16.7333   20.2566 C   0  0  0  0  0  0
  -30.2943  -13.9213   19.5243 C   0  0  0  0  0  0
  -29.5762  -13.0129   18.4322 C   0  0  0  0  0  0
  -28.2614  -12.4120   18.9305 C   0  0  0  0  0  0
  -27.5747  -13.4534   19.8222 C   0  0  2  0  0  0
  -28.4984  -14.2162   20.8536 C   0  0  0  0  0  0
  -25.2146  -13.8521   20.5966 C   0  0  0  0  0  0
  -24.1677  -13.0475   20.9352 C   0  0  0  0  0  0
  -24.6583  -11.7054   20.8737 C   0  0  0  0  0  0
  -23.9297  -10.4330   21.0327 C   0  0  0  0  0  0
  -24.3763   -9.4234   21.9142 C   0  0  0  0  0  0
  -23.6377   -8.2294   22.0745 C   0  0  0  0  0  0
  -22.4352   -8.0334   21.3544 C   0  0  0  0  0  0
  -22.0036   -9.0317   20.4633 C   0  0  0  0  0  0
  -22.7428  -10.2166   20.3012 C   0  0  0  0  0  0
  -21.6883   -6.0770   22.5278 C   0  0  0  0  0  0
  -21.4037   -6.5660   23.8215 C   0  0  0  0  0  0
  -21.3666   -5.6804   24.9170 C   0  0  0  0  0  0
  -21.6043   -4.3066   24.7216 C   0  0  0  0  0  0
  -21.8816   -3.8166   23.4333 C   0  0  0  0  0  0
  -21.9202   -4.6991   22.3395 C   0  0  0  0  0  0
  -22.7644  -13.5078   21.1941 C   0  0  0  0  0  0
  -22.1664   -4.2175   21.0971 F   0  0  0  0  0  0
  -21.5623   -3.4544   25.7725 F   0  0  0  0  0  0
  -29.4757  -15.1732   20.1405 N   0  0  0  0  0  0
  -26.2833  -13.0177   20.3517 N   0  0  0  0  0  0
  -25.9606  -11.7070   20.5666 N   0  0  0  0  0  0
  -22.0351  -12.8021   22.0494 N   0  0  0  0  0  0
  -25.3449  -15.2282   20.4365 N   0  0  0  0  0  0
  -31.1221  -16.4841   20.2208 O   0  0  0  0  0  0
  -21.6684   -6.8940   21.4251 O   0  0  0  0  0  0
  -22.3267  -14.5355   20.6772 O   0  0  0  0  0  0
  -24.7564  -31.7058   23.0881 C   0  0  0  0  0  0
  -25.9762  -32.4020   23.7716 C   0  0  1  0  0  0
  -27.2734  -25.9431   20.2733 C   0  0  0  0  0  0
  -25.6015  -33.7889   24.1514 N   0  0  0  0  0  0
  -23.6162  -30.2699   21.4614 C   0  0  2  0  0  0
  -25.0803  -28.4452   20.1437 C   0  0  0  0  0  0
  -22.8085  -29.3809   22.4522 C   0  0  0  0  0  0
  -18.0383  -28.1461   22.8415 C   0  0  0  0  0  0
  -24.1499  -36.6965   23.2676 C   0  0  0  0  0  0
  -26.2187  -30.1859   21.4668 C   0  0  0  0  0  0
  -26.2787  -28.6642   20.8307 C   0  0  0  0  0  0
  -27.3186  -27.4713   20.8409 C   0  0  0  0  0  0
  -26.0367  -26.1271   19.5224 C   0  0  0  0  0  0
  -25.0432  -27.2055   19.4633 C   0  0  0  0  0  0
  -23.9101  -29.4905   20.1327 C   0  0  0  0  0  0
  -25.4177  -36.2638   24.0229 C   0  0  1  0  0  0
  -20.6050  -28.3843   23.1012 C   0  0  2  0  0  0
  -20.6806  -26.9434   22.5424 C   0  0  0  0  0  0
  -19.5798  -26.6342   21.5227 C   0  0  0  0  0  0
  -18.1980  -26.7972   22.1607 C   0  0  0  0  0  0
  -19.1667  -28.8995   23.2670 C   0  0  0  0  0  0
  -18.9562  -30.1560   23.8747 C   0  0  0  0  0  0
  -17.6544  -30.6622   24.0534 C   0  0  0  0  0  0
  -25.9195  -34.9045   23.4771 C   0  0  0  0  0  0
  -16.5428  -29.9092   23.6368 C   0  0  0  0  0  0
  -16.7358  -28.6521   23.0377 C   0  0  0  0  0  0
  -26.4710  -31.6391   25.0646 C   0  0  0  0  0  0
  -25.3585  -31.3903   26.1120 C   0  0  0  0  0  0
  -27.0772  -30.2669   24.7071 C   0  0  0  0  0  0
  -27.6008  -32.4441   25.7502 C   0  0  0  0  0  0
  -27.5534  -37.1643   24.8473 C   0  0  0  0  0  0
  -21.4670  -29.2930   22.3249 N   0  0  0  0  0  0
  -26.4245  -37.3475   23.9396 N   0  0  0  0  0  0
  -24.8977  -30.7725   22.0574 N   0  0  0  0  0  0
  -23.4166  -28.7553   23.3227 O   0  0  0  0  0  0
  -28.1631  -24.3956   20.3161 O   0  0  0  0  0  0
  -26.5952  -34.8774   22.4470 O   0  0  0  0  0  0
  -23.6427  -32.0482   23.5348 O   0  0  0  0  0  0
  -29.1786  -20.2085   20.2789 C   0  0  0  0  0  0
  -27.6684  -18.0701   20.2027 C   0  0  0  0  0  0
  -28.1399  -22.2332   20.2170 C   0  0  0  0  0  0
  -29.0953  -18.3874   20.2496 N   0  0  0  0  0  0
  -30.3771  -20.4937   20.3701 O   0  0  0  0  0  0
  -31.1776  -14.3282   19.0310 H   0  0  0  0  0  0
  -30.7175  -13.2981   20.3149 H   0  0  0  0  0  0
  -30.2458  -12.2227   18.0902 H   0  0  0  0  0  0
  -29.3685  -13.6315   17.5580 H   0  0  0  0  0  0
  -28.4788  -11.5194   19.5186 H   0  0  0  0  0  0
  -27.6243  -12.1025   18.1007 H   0  0  0  0  0  0
  -27.3057  -14.2246   19.0980 H   0  0  0  0  0  0
  -28.9791  -13.5298   21.5534 H   0  0  0  0  0  0
  -27.8758  -14.8485   21.4865 H   0  0  0  0  0  0
  -25.2893   -9.5693   22.4745 H   0  0  0  0  0  0
  -24.0054   -7.4696   22.7494 H   0  0  0  0  0  0
  -21.0957   -8.8871   19.8945 H   0  0  0  0  0  0
  -22.3888  -10.9704   19.6119 H   0  0  0  0  0  0
  -21.2038   -7.6168   23.9728 H   0  0  0  0  0  0
  -21.1487   -6.0528   25.9074 H   0  0  0  0  0  0
  -22.0584   -2.7628   23.2826 H   0  0  0  0  0  0
  -22.4047  -11.9730   22.4905 H   0  0  0  0  0  0
  -21.0934  -13.0954   22.2678 H   0  0  0  0  0  0
  -24.5575  -15.8592   20.5380 H   0  0  0  0  0  0
  -26.1841  -15.6849   20.1068 H   0  0  0  0  0  0
  -26.7947  -32.4366   23.0512 H   0  0  0  0  0  0
  -24.9934  -33.8794   24.9518 H   0  0  0  0  0  0
  -22.9871  -31.1245   21.2038 H   0  0  0  0  0  0
  -23.3781  -35.9271   23.3257 H   0  0  0  0  0  0
  -24.3531  -36.8753   22.2106 H   0  0  0  0  0  0
  -23.7257  -37.6093   23.6869 H   0  0  0  0  0  0
  -26.4963  -30.8584   20.6542 H   0  0  0  0  0  0
  -27.0452  -30.2755   22.1572 H   0  0  0  0  0  0
  -28.2061  -27.6850   21.4195 H   0  0  0  0  0  0
  -25.7525  -25.2549   18.9507 H   0  0  0  0  0  0
  -24.1650  -27.0077   18.8640 H   0  0  0  0  0  0
  -24.1441  -30.2156   19.3525 H   0  0  0  0  0  0
  -23.0010  -28.9920   19.7926 H   0  0  0  0  0  0
  -25.1429  -36.1297   25.0717 H   0  0  0  0  0  0
  -21.0099  -28.3523   24.1154 H   0  0  0  0  0  0
  -20.5596  -26.2489   23.3751 H   0  0  0  0  0  0
  -21.6662  -26.7255   22.1291 H   0  0  0  0  0  0
  -19.6939  -25.6213   21.1353 H   0  0  0  0  0  0
  -19.6769  -27.3071   20.6697 H   0  0  0  0  0  0
  -17.4255  -26.6719   21.4003 H   0  0  0  0  0  0
  -18.0337  -26.0151   22.9033 H   0  0  0  0  0  0
  -19.8040  -30.7408   24.2055 H   0  0  0  0  0  0
  -17.5095  -31.6287   24.5168 H   0  0  0  0  0  0
  -15.5424  -30.2952   23.7778 H   0  0  0  0  0  0
  -15.8757  -28.0794   22.7174 H   0  0  0  0  0  0
  -24.5849  -30.7182   25.7388 H   0  0  0  0  0  0
  -24.8701  -32.3180   26.4108 H   0  0  0  0  0  0
  -25.7594  -30.9345   27.0182 H   0  0  0  0  0  0
  -26.3609  -29.6029   24.2229 H   0  0  0  0  0  0
  -27.4077  -29.7440   25.6057 H   0  0  0  0  0  0
  -27.9624  -30.3656   24.0791 H   0  0  0  0  0  0
  -27.2446  -33.3898   26.1599 H   0  0  0  0  0  0
  -28.4049  -32.6756   25.0504 H   0  0  0  0  0  0
  -28.0424  -31.8913   26.5803 H   0  0  0  0  0  0
  -28.2503  -37.9975   24.7472 H   0  0  0  0  0  0
  -28.1074  -36.2482   24.6367 H   0  0  0  0  0  0
  -27.2235  -37.1340   25.8872 H   0  0  0  0  0  0
  -21.0159  -29.8458   21.6091 H   0  0  0  0  0  0
  -26.0008  -38.2497   24.1387 H   0  0  0  0  0  0
  -27.0234  -18.9498   20.1900 H   0  0  0  0  0  0
  -27.3832  -17.4770   21.0727 H   0  0  0  0  0  0
  -27.4378  -17.4913   19.3071 H   0  0  0  0  0  0
  -27.6164  -22.1104   19.2693 H   0  0  0  0  0  0
  -27.3661  -22.0347   20.9577 H   0  0  0  0  0  0
  1 25  1  0  0  0
  1 30  2  0  0  0
  1 74  1  0  0  0
  2  3  1  0  0  0
  2 25  1  0  0  0
  2 76  1  0  0  0
  2 77  1  0  0  0
  3  4  1  0  0  0
  3 78  1  0  0  0
  3 79  1  0  0  0
  4  5  1  0  0  0
  4 80  1  0  0  0
  4 81  1  0  0  0
  5  6  1  0  0  0
  5 26  1  0  0  0
  5 82  1  0  0  0
  6 25  1  0  0  0
  6 83  1  0  0  0
  6 84  1  0  0  0
  7  8  2  0  0  0
  7 26  1  0  0  0
  7 29  1  0  0  0
  8  9  1  0  0  0
  8 22  1  0  0  0
  9 10  1  0  0  0
  9 27  2  0  0  0
 10 11  2  0  0  0
 10 15  1  0  0  0
 11 12  1  0  0  0
 11 85  1  0  0  0
 12 13  2  0  0  0
 12 86  1  0  0  0
 13 14  1  0  0  0
 13 31  1  0  0  0
 14 15  2  0  0  0
 14 87  1  0  0  0
 15 88  1  0  0  0
 16 17  2  0  0  0
 16 21  1  0  0  0
 16 31  1  0  0  0
 17 18  1  0  0  0
 17 89  1  0  0  0
 18 19  2  0  0  0
 18 90  1  0  0  0
 19 20  1  0  0  0
 19 24  1  0  0  0
 20 21  2  0  0  0
 20 91  1  0  0  0
 21 23  1  0  0  0
 22 28  1  0  0  0
 22 32  2  0  0  0
 26 27  1  0  0  0
 28 92  1  0  0  0
 28 93  1  0  0  0
 29 94  1  0  0  0
 29 95  1  0  0  0
 33 34  1  0  0  0
 33 66  1  0  0  0
 33 70  2  0  0  0
 34 36  1  0  0  0
 34 59  1  0  0  0
 34 96  1  0  0  0
 35 44  2  0  0  0
 35 45  1  0  0  0
 35 68  1  0  0  0
 36 56  1  0  0  0
 36 97  1  0  0  0
 37 39  1  0  0  0
 37 47  1  0  0  0
 37 66  1  0  0  0
 37 98  1  0  0  0
 38 43  2  0  0  0
 38 46  1  0  0  0
 38 47  1  0  0  0
 39 64  1  0  0  0
 39 67  2  0  0  0
 40 52  1  0  0  0
 40 53  2  0  0  0
 40 58  1  0  0  0
 41 99  1  0  0  0
 41100  1  0  0  0
 41101  1  0  0  0
 41 48  1  0  0  0
 42 43  1  0  0  0
 42 66  1  0  0  0
 42102  1  0  0  0
 42103  1  0  0  0
 43 44  1  0  0  0
 44104  1  0  0  0
 45 46  2  0  0  0
 45105  1  0  0  0
 46106  1  0  0  0
 47107  1  0  0  0
 47108  1  0  0  0
 48 56  1  0  0  0
 48 65  1  0  0  0
 48109  1  0  0  0
 49 50  1  0  0  0
 49 53  1  0  0  0
 49 64  1  0  0  0
 49110  1  0  0  0
 50 51  1  0  0  0
 50111  1  0  0  0
 50112  1  0  0  0
 51 52  1  0  0  0
 51113  1  0  0  0
 51114  1  0  0  0
 52115  1  0  0  0
 52116  1  0  0  0
 53 54  1  0  0  0
 54 55  2  0  0  0
 54117  1  0  0  0
 55 57  1  0  0  0
 55118  1  0  0  0
 56 69  2  0  0  0
 57 58  2  0  0  0
 57119  1  0  0  0
 58120  1  0  0  0
 59 60  1  0  0  0
 59 61  1  0  0  0
 59 62  1  0  0  0
 60121  1  0  0  0
 60122  1  0  0  0
 60123  1  0  0  0
 61124  1  0  0  0
 61125  1  0  0  0
 61126  1  0  0  0
 62127  1  0  0  0
 62128  1  0  0  0
 62129  1  0  0  0
 63 65  1  0  0  0
 63130  1  0  0  0
 63131  1  0  0  0
 63132  1  0  0  0
 64133  1  0  0  0
 65134  1  0  0  0
 68 73  1  0  0  0
 71 73  1  0  0  0
 71 74  1  0  0  0
 71 75  2  0  0  0
 72 74  1  0  0  0
 72135  1  0  0  0
 72136  1  0  0  0
 72137  1  0  0  0
 73138  1  0  0  0
 73139  1  0  0  0
M  ISO  4   1 100  68 101  73 101  74 100
M  END
> <chiral flag>
0

> <version>
0

> <s_m_source_file>
/data/baiqing/PycharmProjects/Reinvent-master-3.2/result/LINK_invent/BTK/process_docking_weight1_custom_product_contain_oxygen_bond_distance_aromatic_linkinvent_7_9_3/rearranged_h_0018.sdf

> <i_m_source_file_index>
55

> <r_mmod_Potential_Energy-OPLS-2005>
7690.583984375

> <r_mmod_Stretch_Energy-OPLS-2005>
3333.59912109375

> <r_mmod_Bend_Energy-OPLS-2005>
1200.26184082031

> <r_mmod_Torsional_Energy-OPLS-2005>
269.712036132812

> <r_mmod_Improper_Torsional_Energy-OPLS-2005>
4.97679376602173

> <r_mmod_Van_der_Waal_Energy-OPLS-2005>
118.897552490234

> <r_mmod_Electrostatic_Energy-OPLS-2005>
-298.088134765625

> <r_mmod_Solvation_Energy-OPLS-2005>
-232.206787109375

> <b_mmod_Minimization_Converged-OPLS-2005>
0

> <r_mmod_RMS_Derivative-OPLS-2005>
0.225311383605003

$$$$
55
                    3D
 Structure written by MMmdl.
161170  0  0  1  0            999 V2000
  -30.7525  -14.4563   20.6136 C   0  0  0  0  0  0
  -30.4172  -12.3197   19.4147 C   0  0  0  0  0  0
  -29.4879  -12.5082   18.2004 C   0  0  0  0  0  0
  -28.0140  -12.3485   18.6184 C   0  0  0  0  0  0
  -27.6562  -13.1963   19.8661 C   0  0  2  0  0  0
  -28.7025  -13.0068   20.9897 C   0  0  0  0  0  0
  -25.2587  -13.8128   20.5676 C   0  0  0  0  0  0
  -24.1837  -13.0423   20.9190 C   0  0  0  0  0  0
  -24.6376  -11.6885   20.8741 C   0  0  0  0  0  0
  -23.9038  -10.4283   21.0410 C   0  0  0  0  0  0
  -24.3597   -9.4201   21.9185 C   0  0  0  0  0  0
  -23.6280   -8.2236   22.0754 C   0  0  0  0  0  0
  -22.4264   -8.0274   21.3545 C   0  0  0  0  0  0
  -21.9894   -9.0244   20.4645 C   0  0  0  0  0  0
  -22.7214  -10.2124   20.3056 C   0  0  0  0  0  0
  -21.6847   -6.0730   22.5279 C   0  0  0  0  0  0
  -21.4007   -6.5633   23.8211 C   0  0  0  0  0  0
  -21.3661   -5.6788   24.9174 C   0  0  0  0  0  0
  -21.6047   -4.3050   24.7227 C   0  0  0  0  0  0
  -21.8820   -3.8141   23.4347 C   0  0  0  0  0  0
  -21.9190   -4.6957   22.3403 C   0  0  0  0  0  0
  -22.7865  -13.5239   21.1847 C   0  0  0  0  0  0
  -22.1662   -4.2144   21.0979 F   0  0  0  0  0  0
  -21.5634   -3.4535   25.7742 F   0  0  0  0  0  0
  -30.0347  -13.3087   20.4373 N   0  0  0  0  0  0
  -26.3000  -12.9269   20.3335 N   0  0  0  0  0  0
  -25.9297  -11.6446   20.5759 N   0  0  0  0  0  0
  -22.0496  -12.8240   22.0401 N   0  0  0  0  0  0
  -25.4306  -15.1847   20.4069 N   0  0  0  0  0  0
  -31.8550  -14.6308   20.0844 O   0  0  0  0  0  0
  -21.6629   -6.8873   21.4241 O   0  0  0  0  0  0
  -22.3562  -14.5547   20.6690 O   0  0  0  0  0  0
  -24.6143  -31.8688   23.2115 C   0  0  0  0  0  0
  -25.9031  -32.4827   23.8414 C   0  0  1  0  0  0
  -27.2288  -27.4286   20.0931 C   0  0  0  0  0  0
  -25.5887  -33.8625   24.2341 N   0  0  0  0  0  0
  -23.4029  -30.4943   21.5525 C   0  0  2  0  0  0
  -24.8483  -28.9664   20.1127 C   0  0  0  0  0  0
  -22.7408  -29.4663   22.4985 C   0  0  0  0  0  0
  -18.0266  -28.1382   22.8494 C   0  0  0  0  0  0
  -24.1485  -36.7319   23.2638 C   0  0  0  0  0  0
  -25.9342  -30.8339   21.3660 C   0  0  0  0  0  0
  -26.0114  -29.4704   20.7081 C   0  0  0  0  0  0
  -27.2058  -28.7106   20.6928 C   0  0  0  0  0  0
  -26.0444  -26.9504   19.4815 C   0  0  0  0  0  0
  -24.8602  -27.7064   19.4957 C   0  0  0  0  0  0
  -23.6109  -29.8327   20.1653 C   0  0  0  0  0  0
  -25.4106  -36.3115   24.0340 C   0  0  1  0  0  0
  -20.5858  -28.3672   23.1315 C   0  0  2  0  0  0
  -20.6763  -26.9409   22.5416 C   0  0  0  0  0  0
  -19.5739  -26.6392   21.5214 C   0  0  0  0  0  0
  -18.1916  -26.7932   22.1624 C   0  0  0  0  0  0
  -19.1516  -28.8839   23.2904 C   0  0  0  0  0  0
  -18.9442  -30.1449   23.8913 C   0  0  0  0  0  0
  -17.6446  -30.6587   24.0567 C   0  0  0  0  0  0
  -25.9032  -34.9475   23.5139 C   0  0  0  0  0  0
  -16.5337  -29.9090   23.6325 C   0  0  0  0  0  0
  -16.7257  -28.6512   23.0346 C   0  0  0  0  0  0
  -26.4461  -31.6602   25.0737 C   0  0  0  0  0  0
  -25.3720  -31.3688   26.1478 C   0  0  0  0  0  0
  -27.0305  -30.3049   24.6121 C   0  0  0  0  0  0
  -27.6047  -32.4317   25.7475 C   0  0  0  0  0  0
  -27.5584  -37.1810   24.8464 C   0  0  0  0  0  0
  -21.4133  -29.3039   22.3723 N   0  0  0  0  0  0
  -26.4298  -37.3795   23.9408 N   0  0  0  0  0  0
  -24.6689  -31.0790   22.1018 N   0  0  0  0  0  0
  -23.4179  -28.8197   23.3021 O   0  0  0  0  0  0
  -28.3836  -26.6656   20.1298 O   0  0  0  0  0  0
  -26.5595  -34.8916   22.4703 O   0  0  0  0  0  0
  -23.5336  -32.1438   23.7506 O   0  0  0  0  0  0
  -30.0359  -18.3375   19.8430 C   0  0  0  0  0  0
  -30.1670  -19.7390   19.7142 C   0  0  0  0  0  0
  -29.1047  -20.0353   21.8709 C   0  0  0  0  0  0
  -29.4089  -17.7729   20.9741 C   0  0  0  0  0  0
  -29.6733  -20.6230   20.7096 C   0  0  0  0  0  0
  -28.9647  -18.6368   21.9985 C   0  0  0  0  0  0
  -29.0235  -23.0198   21.1233 C   0  0  0  0  0  0
  -30.5029  -24.1817   19.6309 C   0  0  0  0  0  0
  -30.6345  -22.6537   19.5095 C   0  0  0  0  0  0
  -29.4017  -24.4342   20.6641 C   0  0  1  0  0  0
  -31.1381  -15.9569   22.4818 C   0  0  0  0  0  0
  -29.1388  -16.2632   21.0481 C   0  0  0  0  0  0
  -28.1884  -25.2364   20.1278 C   0  0  0  0  0  0
  -29.7646  -22.0580   20.5243 N   0  0  0  0  0  0
  -30.2519  -15.3844   21.4650 N   0  0  0  0  0  0
  -28.1290  -22.8420   21.9568 O   0  0  0  0  0  0
  -28.3796  -18.1270   23.1088 F   0  0  0  0  0  0
  -31.4606  -12.4117   19.1079 H   0  0  0  0  0  0
  -30.3191  -11.3107   19.8183 H   0  0  0  0  0  0
  -29.7351  -11.7855   17.4217 H   0  0  0  0  0  0
  -29.6445  -13.4959   17.7635 H   0  0  0  0  0  0
  -27.8410  -11.2919   18.8271 H   0  0  0  0  0  0
  -27.3567  -12.6047   17.7866 H   0  0  0  0  0  0
  -27.6791  -14.2305   19.5366 H   0  0  0  0  0  0
  -28.6858  -11.9776   21.3515 H   0  0  0  0  0  0
  -28.4548  -13.6206   21.8561 H   0  0  0  0  0  0
  -25.2743   -9.5681   22.4753 H   0  0  0  0  0  0
  -23.9996   -7.4627   22.7470 H   0  0  0  0  0  0
  -21.0830   -8.8755   19.8947 H   0  0  0  0  0  0
  -22.3675  -10.9663   19.6163 H   0  0  0  0  0  0
  -21.1992   -7.6141   23.9716 H   0  0  0  0  0  0
  -21.1487   -6.0515   25.9078 H   0  0  0  0  0  0
  -22.0597   -2.7605   23.2847 H   0  0  0  0  0  0
  -22.4107  -11.9909   22.4808 H   0  0  0  0  0  0
  -21.1107  -13.1266   22.2578 H   0  0  0  0  0  0
  -24.6612  -15.8367   20.5153 H   0  0  0  0  0  0
  -26.2758  -15.6253   20.0692 H   0  0  0  0  0  0
  -26.7106  -32.5540   23.1187 H   0  0  0  0  0  0
  -25.0013  -33.9790   25.0470 H   0  0  0  0  0  0
  -22.6915  -31.3113   21.4162 H   0  0  0  0  0  0
  -23.3738  -35.9662   23.3310 H   0  0  0  0  0  0
  -24.3577  -36.8929   22.2051 H   0  0  0  0  0  0
  -23.7248  -37.6532   23.6646 H   0  0  0  0  0  0
  -26.0481  -31.6030   20.6006 H   0  0  0  0  0  0
  -26.8210  -30.8850   21.9860 H   0  0  0  0  0  0
  -28.1027  -29.0936   21.1603 H   0  0  0  0  0  0
  -26.0121  -25.9902   18.9884 H   0  0  0  0  0  0
  -23.9669  -27.3148   19.0282 H   0  0  0  0  0  0
  -23.7202  -30.6105   19.4084 H   0  0  0  0  0  0
  -22.7338  -29.2550   19.8680 H   0  0  0  0  0  0
  -25.1282  -36.1989   25.0834 H   0  0  0  0  0  0
  -20.9949  -28.3246   24.1436 H   0  0  0  0  0  0
  -20.5679  -26.2277   23.3601 H   0  0  0  0  0  0
  -21.6634  -26.7462   22.1198 H   0  0  0  0  0  0
  -19.6900  -25.6307   21.1234 H   0  0  0  0  0  0
  -19.6674  -27.3209   20.6751 H   0  0  0  0  0  0
  -17.4185  -26.6669   21.4026 H   0  0  0  0  0  0
  -18.0319  -26.0076   22.9023 H   0  0  0  0  0  0
  -19.7918  -30.7262   24.2291 H   0  0  0  0  0  0
  -17.5000  -31.6264   24.5174 H   0  0  0  0  0  0
  -15.5343  -30.2999   23.7645 H   0  0  0  0  0  0
  -15.8655  -28.0846   22.7042 H   0  0  0  0  0  0
  -24.5895  -30.7043   25.7798 H   0  0  0  0  0  0
  -24.8894  -32.2829   26.4947 H   0  0  0  0  0  0
  -25.8064  -30.8831   27.0226 H   0  0  0  0  0  0
  -26.2866  -29.6792   24.1181 H   0  0  0  0  0  0
  -27.4094  -29.7302   25.4586 H   0  0  0  0  0  0
  -27.8686  -30.4381   23.9274 H   0  0  0  0  0  0
  -27.2698  -33.3622   26.2072 H   0  0  0  0  0  0
  -28.3826  -32.6877   25.0265 H   0  0  0  0  0  0
  -28.0755  -31.8429   26.5360 H   0  0  0  0  0  0
  -28.2605  -38.0105   24.7521 H   0  0  0  0  0  0
  -28.1084  -36.2640   24.6289 H   0  0  0  0  0  0
  -27.2299  -37.1464   25.8866 H   0  0  0  0  0  0
  -20.9292  -29.8781   21.6963 H   0  0  0  0  0  0
  -26.0191  -38.2878   24.1406 H   0  0  0  0  0  0
  -30.3895  -17.6967   19.0467 H   0  0  0  0  0  0
  -30.6300  -20.1180   18.8142 H   0  0  0  0  0  0
  -28.7501  -20.6408   22.6901 H   0  0  0  0  0  0
  -30.2671  -24.6292   18.6644 H   0  0  0  0  0  0
  -31.4412  -24.6254   19.9652 H   0  0  0  0  0  0
  -31.6681  -22.3355   19.6525 H   0  0  0  0  0  0
  -30.3135  -22.3351   18.5166 H   0  0  0  0  0  0
  -29.8133  -24.9467   21.5337 H   0  0  0  0  0  0
  -30.5649  -16.4459   23.2697 H   0  0  0  0  0  0
  -31.8130  -16.6920   22.0407 H   0  0  0  0  0  0
  -31.7460  -15.1836   22.9548 H   0  0  0  0  0  0
  -28.7948  -15.9842   20.0532 H   0  0  0  0  0  0
  -28.2931  -16.0796   21.7114 H   0  0  0  0  0  0
  -27.3208  -25.0023   20.7484 H   0  0  0  0  0  0
  -27.9515  -24.8993   19.1178 H   0  0  0  0  0  0
  1 25  1  0  0  0
  1 30  2  0  0  0
  1 85  1  0  0  0
  2  3  1  0  0  0
  2 25  1  0  0  0
  2 88  1  0  0  0
  2 89  1  0  0  0
  3  4  1  0  0  0
  3 90  1  0  0  0
  3 91  1  0  0  0
  4  5  1  0  0  0
  4 92  1  0  0  0
  4 93  1  0  0  0
  5  6  1  0  0  0
  5 26  1  0  0  0
  5 94  1  0  0  0
  6 25  1  0  0  0
  6 95  1  0  0  0
  6 96  1  0  0  0
  7  8  2  0  0  0
  7 26  1  0  0  0
  7 29  1  0  0  0
  8  9  1  0  0  0
  8 22  1  0  0  0
  9 10  1  0  0  0
  9 27  2  0  0  0
 10 11  2  0  0  0
 10 15  1  0  0  0
 11 12  1  0  0  0
 11 97  1  0  0  0
 12 13  2  0  0  0
 12 98  1  0  0  0
 13 14  1  0  0  0
 13 31  1  0  0  0
 14 15  2  0  0  0
 14 99  1  0  0  0
 15100  1  0  0  0
 16 17  2  0  0  0
 16 21  1  0  0  0
 16 31  1  0  0  0
 17 18  1  0  0  0
 17101  1  0  0  0
 18 19  2  0  0  0
 18102  1  0  0  0
 19 20  1  0  0  0
 19 24  1  0  0  0
 20 21  2  0  0  0
 20103  1  0  0  0
 21 23  1  0  0  0
 22 28  1  0  0  0
 22 32  2  0  0  0
 26 27  1  0  0  0
 28104  1  0  0  0
 28105  1  0  0  0
 29106  1  0  0  0
 29107  1  0  0  0
 33 34  1  0  0  0
 33 66  1  0  0  0
 33 70  2  0  0  0
 34 36  1  0  0  0
 34 59  1  0  0  0
 34108  1  0  0  0
 35 44  2  0  0  0
 35 45  1  0  0  0
 35 68  1  0  0  0
 36 56  1  0  0  0
 36109  1  0  0  0
 37 39  1  0  0  0
 37 47  1  0  0  0
 37 66  1  0  0  0
 37110  1  0  0  0
 38 43  2  0  0  0
 38 46  1  0  0  0
 38 47  1  0  0  0
 39 64  1  0  0  0
 39 67  2  0  0  0
 40 52  1  0  0  0
 40 53  2  0  0  0
 40 58  1  0  0  0
 41111  1  0  0  0
 41112  1  0  0  0
 41113  1  0  0  0
 41 48  1  0  0  0
 42 43  1  0  0  0
 42 66  1  0  0  0
 42114  1  0  0  0
 42115  1  0  0  0
 43 44  1  0  0  0
 44116  1  0  0  0
 45 46  2  0  0  0
 45117  1  0  0  0
 46118  1  0  0  0
 47119  1  0  0  0
 47120  1  0  0  0
 48 56  1  0  0  0
 48 65  1  0  0  0
 48121  1  0  0  0
 49 50  1  0  0  0
 49 53  1  0  0  0
 49 64  1  0  0  0
 49122  1  0  0  0
 50 51  1  0  0  0
 50123  1  0  0  0
 50124  1  0  0  0
 51 52  1  0  0  0
 51125  1  0  0  0
 51126  1  0  0  0
 52127  1  0  0  0
 52128  1  0  0  0
 53 54  1  0  0  0
 54 55  2  0  0  0
 54129  1  0  0  0
 55 57  1  0  0  0
 55130  1  0  0  0
 56 69  2  0  0  0
 57 58  2  0  0  0
 57131  1  0  0  0
 58132  1  0  0  0
 59 60  1  0  0  0
 59 61  1  0  0  0
 59 62  1  0  0  0
 60133  1  0  0  0
 60134  1  0  0  0
 60135  1  0  0  0
 61136  1  0  0  0
 61137  1  0  0  0
 61138  1  0  0  0
 62139  1  0  0  0
 62140  1  0  0  0
 62141  1  0  0  0
 63 65  1  0  0  0
 63142  1  0  0  0
 63143  1  0  0  0
 63144  1  0  0  0
 64145  1  0  0  0
 65146  1  0  0  0
 68 83  1  0  0  0
 71 72  2  0  0  0
 71 74  1  0  0  0
 71147  1  0  0  0
 72 75  1  0  0  0
 72148  1  0  0  0
 73 75  2  0  0  0
 73 76  1  0  0  0
 73149  1  0  0  0
 74 76  2  0  0  0
 74 82  1  0  0  0
 75 84  1  0  0  0
 76 87  1  0  0  0
 77 80  1  0  0  0
 77 84  1  0  0  0
 77 86  2  0  0  0
 78 79  1  0  0  0
 78 80  1  0  0  0
 78150  1  0  0  0
 78151  1  0  0  0
 79 84  1  0  0  0
 79152  1  0  0  0
 79153  1  0  0  0
 80 83  1  0  0  0
 80154  1  0  0  0
 81 85  1  0  0  0
 81155  1  0  0  0
 81156  1  0  0  0
 81157  1  0  0  0
 82 85  1  0  0  0
 82158  1  0  0  0
 82159  1  0  0  0
 83160  1  0  0  0
 83161  1  0  0  0
M  ISO  4   1 100  68 101  83 101  85 100
M  END
> <chiral flag>
0

> <version>
0

> <s_m_source_file>
/data/baiqing/PycharmProjects/Reinvent-master-3.2/result/LINK_invent/BTK/process_docking_weight1_custom_product_contain_oxygen_bond_distance_aromatic_linkinvent_7_9_3/rearranged_h_0018.sdf

> <i_m_source_file_index>
56

> <r_mmod_Potential_Energy-OPLS-2005>
182.762313842773

> <r_mmod_Stretch_Energy-OPLS-2005>
43.021556854248

> <r_mmod_Bend_Energy-OPLS-2005>
118.348907470703

> <r_mmod_Torsional_Energy-OPLS-2005>
325.863372802734

> <r_mmod_Improper_Torsional_Energy-OPLS-2005>
4.27722358703613

> <r_mmod_Van_der_Waal_Energy-OPLS-2005>
162.970443725586

> <r_mmod_Electrostatic_Energy-OPLS-2005>
-281.097045898438

> <r_mmod_Solvation_Energy-OPLS-2005>
-204.325057983398

> <b_mmod_Minimization_Converged-OPLS-2005>
0

> <r_mmod_RMS_Derivative-OPLS-2005>
0.936352014541626

$$$$
56
                    3D
 Structure written by MMmdl.
161169  0  0  1  0            999 V2000
  -30.8063  -14.4409   20.6560 C   0  0  0  0  0  0
  -30.3939  -12.3157   19.4563 C   0  0  0  0  0  0
  -29.4933  -12.5400   18.2247 C   0  0  0  0  0  0
  -28.0154  -12.3705   18.6153 C   0  0  0  0  0  0
  -27.6528  -13.2080   19.8680 C   0  0  2  0  0  0
  -28.6824  -12.9983   20.9982 C   0  0  0  0  0  0
  -25.2537  -13.8155   20.5658 C   0  0  0  0  0  0
  -24.1800  -13.0431   20.9135 C   0  0  0  0  0  0
  -24.6351  -11.6898   20.8676 C   0  0  0  0  0  0
  -23.9036  -10.4290   21.0364 C   0  0  0  0  0  0
  -24.3592   -9.4234   21.9160 C   0  0  0  0  0  0
  -23.6271   -8.2277   22.0762 C   0  0  0  0  0  0
  -22.4257   -8.0298   21.3546 C   0  0  0  0  0  0
  -21.9875   -9.0265   20.4650 C   0  0  0  0  0  0
  -22.7198  -10.2139   20.3039 C   0  0  0  0  0  0
  -21.6846   -6.0739   22.5280 C   0  0  0  0  0  0
  -21.4028   -6.5644   23.8216 C   0  0  0  0  0  0
  -21.3672   -5.6792   24.9171 C   0  0  0  0  0  0
  -21.6052   -4.3057   24.7216 C   0  0  0  0  0  0
  -21.8813   -3.8150   23.4334 C   0  0  0  0  0  0
  -21.9194   -4.6970   22.3396 C   0  0  0  0  0  0
  -22.7838  -13.5260   21.1830 C   0  0  0  0  0  0
  -22.1656   -4.2157   21.0972 F   0  0  0  0  0  0
  -21.5629   -3.4545   25.7730 F   0  0  0  0  0  0
  -30.0290  -13.3198   20.4819 N   0  0  0  0  0  0
  -26.2947  -12.9320   20.3270 N   0  0  0  0  0  0
  -25.9268  -11.6474   20.5675 N   0  0  0  0  0  0
  -22.0473  -12.8271   22.0393 N   0  0  0  0  0  0
  -25.4241  -15.1880   20.4165 N   0  0  0  0  0  0
  -31.8838  -14.5311   20.0528 O   0  0  0  0  0  0
  -21.6637   -6.8881   21.4240 O   0  0  0  0  0  0
  -22.3546  -14.5583   20.6694 O   0  0  0  0  0  0
  -24.6126  -31.8701   23.2104 C   0  0  0  0  0  0
  -25.9051  -32.4813   23.8400 C   0  0  1  0  0  0
  -27.2510  -27.4492   20.0950 C   0  0  0  0  0  0
  -25.5966  -33.8616   24.2346 N   0  0  0  0  0  0
  -23.3981  -30.4900   21.5485 C   0  0  2  0  0  0
  -24.8493  -28.9559   20.1187 C   0  0  0  0  0  0
  -22.7391  -29.4638   22.4989 C   0  0  0  0  0  0
  -18.0254  -28.1399   22.8496 C   0  0  0  0  0  0
  -24.1485  -36.7215   23.2643 C   0  0  0  0  0  0
  -25.9275  -30.8410   21.3604 C   0  0  0  0  0  0
  -26.0074  -29.4754   20.7070 C   0  0  0  0  0  0
  -27.2061  -28.7321   20.6879 C   0  0  0  0  0  0
  -26.0669  -26.9324   19.5180 C   0  0  0  0  0  0
  -24.8731  -27.6830   19.5241 C   0  0  0  0  0  0
  -23.6091  -29.8191   20.1631 C   0  0  0  0  0  0
  -25.4132  -36.3090   24.0339 C   0  0  1  0  0  0
  -20.5842  -28.3640   23.1346 C   0  0  2  0  0  0
  -20.6739  -26.9386   22.5414 C   0  0  0  0  0  0
  -19.5737  -26.6398   21.5204 C   0  0  0  0  0  0
  -18.1915  -26.7954   22.1614 C   0  0  0  0  0  0
  -19.1503  -28.8839   23.2909 C   0  0  0  0  0  0
  -18.9453  -30.1460   23.8895 C   0  0  0  0  0  0
  -17.6464  -30.6609   24.0580 C   0  0  0  0  0  0
  -25.9088  -34.9466   23.5126 C   0  0  0  0  0  0
  -16.5342  -29.9141   23.6332 C   0  0  0  0  0  0
  -16.7239  -28.6550   23.0345 C   0  0  0  0  0  0
  -26.4499  -31.6559   25.0715 C   0  0  0  0  0  0
  -25.3781  -31.3609   26.1463 C   0  0  0  0  0  0
  -27.0306  -30.3018   24.6058 C   0  0  0  0  0  0
  -27.6088  -32.4228   25.7512 C   0  0  0  0  0  0
  -27.5579  -37.1772   24.8505 C   0  0  0  0  0  0
  -21.4117  -29.2995   22.3747 N   0  0  0  0  0  0
  -26.4307  -37.3791   23.9435 N   0  0  0  0  0  0
  -24.6629  -31.0854   22.0965 N   0  0  0  0  0  0
  -23.4166  -28.8173   23.3023 O   0  0  0  0  0  0
  -28.4706  -26.7992   20.0946 O   0  0  0  0  0  0
  -26.5622  -34.8928   22.4668 O   0  0  0  0  0  0
  -23.5319  -32.1398   23.7535 O   0  0  0  0  0  0
  -30.3551  -18.7805   22.6159 C   0  0  0  0  0  0
  -29.9595  -18.8911   20.2265 C   0  0  0  0  0  0
  -29.8311  -20.0814   22.7618 C   0  0  0  0  0  0
  -29.4581  -20.2037   20.3721 C   0  0  0  0  0  0
  -30.4165  -18.1624   21.3494 C   0  0  0  0  0  0
  -29.3796  -20.8229   21.6444 C   0  0  0  0  0  0
  -27.8668  -22.2685   22.8739 C   0  0  0  0  0  0
  -29.6876  -15.4497   22.6520 C   0  0  0  0  0  0
  -31.1228  -16.8134   21.1668 C   0  0  0  0  0  0
  -28.6103  -24.5288   21.0262 C   0  0  0  0  0  0
  -28.8306  -23.0368   20.6670 C   0  0  0  0  0  0
  -28.5950  -25.4140   19.7657 C   0  0  0  0  0  0
  -28.8804  -22.1354   21.8249 N   0  0  0  0  0  0
  -30.3634  -15.5365   21.3509 N   0  0  0  0  0  0
  -31.4424  -12.3557   19.1590 H   0  0  0  0  0  0
  -30.2572  -11.3061   19.8494 H   0  0  0  0  0  0
  -29.7605  -11.8459   17.4269 H   0  0  0  0  0  0
  -29.6513  -13.5433   17.8228 H   0  0  0  0  0  0
  -27.8399  -11.3109   18.8084 H   0  0  0  0  0  0
  -27.3697  -12.6390   17.7778 H   0  0  0  0  0  0
  -27.6930  -14.2565   19.5726 H   0  0  0  0  0  0
  -28.6581  -11.9598   21.3338 H   0  0  0  0  0  0
  -28.3640  -13.5543   21.8690 H   0  0  0  0  0  0
  -25.2735   -9.5730   22.4723 H   0  0  0  0  0  0
  -23.9989   -7.4674   22.7481 H   0  0  0  0  0  0
  -21.0814   -8.8765   19.8956 H   0  0  0  0  0  0
  -22.3637  -10.9672   19.6147 H   0  0  0  0  0  0
  -21.2030   -7.6150   23.9720 H   0  0  0  0  0  0
  -21.1500   -6.0519   25.9072 H   0  0  0  0  0  0
  -22.0579   -2.7617   23.2825 H   0  0  0  0  0  0
  -22.4045  -11.9916   22.4769 H   0  0  0  0  0  0
  -21.1107  -13.1343   22.2595 H   0  0  0  0  0  0
  -24.6580  -15.8404   20.5457 H   0  0  0  0  0  0
  -26.2936  -15.6425   20.1644 H   0  0  0  0  0  0
  -26.7126  -32.5500   23.1163 H   0  0  0  0  0  0
  -25.0205  -33.9799   25.0558 H   0  0  0  0  0  0
  -22.6835  -31.3017   21.4047 H   0  0  0  0  0  0
  -23.3809  -35.9486   23.3377 H   0  0  0  0  0  0
  -24.3574  -36.8749   22.2045 H   0  0  0  0  0  0
  -23.7186  -37.6419   23.6595 H   0  0  0  0  0  0
  -26.0608  -31.6109   20.5985 H   0  0  0  0  0  0
  -26.8091  -30.8833   21.9857 H   0  0  0  0  0  0
  -28.1011  -29.1419   21.1325 H   0  0  0  0  0  0
  -26.0271  -25.9608   19.0518 H   0  0  0  0  0  0
  -23.9777  -27.2737   19.0767 H   0  0  0  0  0  0
  -23.7156  -30.5876   19.3975 H   0  0  0  0  0  0
  -22.7354  -29.2365   19.8651 H   0  0  0  0  0  0
  -25.1324  -36.1941   25.0833 H   0  0  0  0  0  0
  -20.9929  -28.3199   24.1469 H   0  0  0  0  0  0
  -20.5683  -26.2223   23.3574 H   0  0  0  0  0  0
  -21.6618  -26.7467   22.1208 H   0  0  0  0  0  0
  -19.6907  -25.6327   21.1213 H   0  0  0  0  0  0
  -19.6721  -27.3236   20.6760 H   0  0  0  0  0  0
  -17.4182  -26.6664   21.4016 H   0  0  0  0  0  0
  -18.0325  -26.0094   22.9013 H   0  0  0  0  0  0
  -19.7923  -30.7272   24.2255 H   0  0  0  0  0  0
  -17.5030  -31.6302   24.5183 H   0  0  0  0  0  0
  -15.5356  -30.3077   23.7672 H   0  0  0  0  0  0
  -15.8599  -28.0912   22.7064 H   0  0  0  0  0  0
  -24.5991  -30.6939   25.7787 H   0  0  0  0  0  0
  -24.8931  -32.2713   26.4962 H   0  0  0  0  0  0
  -25.8175  -30.8730   27.0170 H   0  0  0  0  0  0
  -26.2792  -29.6810   24.1166 H   0  0  0  0  0  0
  -27.4159  -29.7247   25.4476 H   0  0  0  0  0  0
  -27.8631  -30.4378   23.9156 H   0  0  0  0  0  0
  -27.2763  -33.3526   26.2145 H   0  0  0  0  0  0
  -28.3935  -32.6789   25.0379 H   0  0  0  0  0  0
  -28.0734  -31.8285   26.5410 H   0  0  0  0  0  0
  -28.2662  -38.0017   24.7568 H   0  0  0  0  0  0
  -28.1012  -36.2560   24.6325 H   0  0  0  0  0  0
  -27.2279  -37.1422   25.8907 H   0  0  0  0  0  0
  -20.9265  -29.8620   21.6898 H   0  0  0  0  0  0
  -26.0186  -38.2857   24.1474 H   0  0  0  0  0  0
  -30.7436  -18.2769   23.4888 H   0  0  0  0  0  0
  -30.0321  -18.4728   19.2321 H   0  0  0  0  0  0
  -29.8052  -20.5196   23.7487 H   0  0  0  0  0  0
  -29.1396  -20.7236   19.4822 H   0  0  0  0  0  0
  -27.4389  -21.3103   23.1725 H   0  0  0  0  0  0
  -27.0316  -22.8851   22.5437 H   0  0  0  0  0  0
  -28.2963  -22.7425   23.7559 H   0  0  0  0  0  0
  -29.8628  -14.4913   23.1442 H   0  0  0  0  0  0
  -28.6157  -15.6159   22.5369 H   0  0  0  0  0  0
  -30.0415  -16.1980   23.3540 H   0  0  0  0  0  0
  -31.9780  -16.7963   21.8453 H   0  0  0  0  0  0
  -31.5529  -16.8680   20.1636 H   0  0  0  0  0  0
  -29.4025  -24.8670   21.6973 H   0  0  0  0  0  0
  -27.6734  -24.6751   21.5629 H   0  0  0  0  0  0
  -29.7715  -22.9527   20.1178 H   0  0  0  0  0  0
  -28.0473  -22.7043   19.9844 H   0  0  0  0  0  0
  -27.8687  -25.0565   19.0387 H   0  0  0  0  0  0
  -29.5583  -25.3080   19.2670 H   0  0  0  0  0  0
  1 25  1  0  0  0
  1 30  2  0  0  0
  1 84  1  0  0  0
  2  3  1  0  0  0
  2 25  1  0  0  0
  2 85  1  0  0  0
  2 86  1  0  0  0
  3  4  1  0  0  0
  3 87  1  0  0  0
  3 88  1  0  0  0
  4  5  1  0  0  0
  4 89  1  0  0  0
  4 90  1  0  0  0
  5  6  1  0  0  0
  5 26  1  0  0  0
  5 91  1  0  0  0
  6 25  1  0  0  0
  6 92  1  0  0  0
  6 93  1  0  0  0
  7  8  2  0  0  0
  7 26  1  0  0  0
  7 29  1  0  0  0
  8  9  1  0  0  0
  8 22  1  0  0  0
  9 10  1  0  0  0
  9 27  2  0  0  0
 10 11  2  0  0  0
 10 15  1  0  0  0
 11 12  1  0  0  0
 11 94  1  0  0  0
 12 13  2  0  0  0
 12 95  1  0  0  0
 13 14  1  0  0  0
 13 31  1  0  0  0
 14 15  2  0  0  0
 14 96  1  0  0  0
 15 97  1  0  0  0
 16 17  2  0  0  0
 16 21  1  0  0  0
 16 31  1  0  0  0
 17 18  1  0  0  0
 17 98  1  0  0  0
 18 19  2  0  0  0
 18 99  1  0  0  0
 19 20  1  0  0  0
 19 24  1  0  0  0
 20 21  2  0  0  0
 20100  1  0  0  0
 21 23  1  0  0  0
 22 28  1  0  0  0
 22 32  2  0  0  0
 26 27  1  0  0  0
 28101  1  0  0  0
 28102  1  0  0  0
 29103  1  0  0  0
 29104  1  0  0  0
 33 34  1  0  0  0
 33 66  1  0  0  0
 33 70  2  0  0  0
 34 36  1  0  0  0
 34 59  1  0  0  0
 34105  1  0  0  0
 35 44  2  0  0  0
 35 45  1  0  0  0
 35 68  1  0  0  0
 36 56  1  0  0  0
 36106  1  0  0  0
 37 39  1  0  0  0
 37 47  1  0  0  0
 37 66  1  0  0  0
 37107  1  0  0  0
 38 43  2  0  0  0
 38 46  1  0  0  0
 38 47  1  0  0  0
 39 64  1  0  0  0
 39 67  2  0  0  0
 40 52  1  0  0  0
 40 53  2  0  0  0
 40 58  1  0  0  0
 41108  1  0  0  0
 41109  1  0  0  0
 41110  1  0  0  0
 41 48  1  0  0  0
 42 43  1  0  0  0
 42 66  1  0  0  0
 42111  1  0  0  0
 42112  1  0  0  0
 43 44  1  0  0  0
 44113  1  0  0  0
 45 46  2  0  0  0
 45114  1  0  0  0
 46115  1  0  0  0
 47116  1  0  0  0
 47117  1  0  0  0
 48 56  1  0  0  0
 48 65  1  0  0  0
 48118  1  0  0  0
 49 50  1  0  0  0
 49 53  1  0  0  0
 49 64  1  0  0  0
 49119  1  0  0  0
 50 51  1  0  0  0
 50120  1  0  0  0
 50121  1  0  0  0
 51 52  1  0  0  0
 51122  1  0  0  0
 51123  1  0  0  0
 52124  1  0  0  0
 52125  1  0  0  0
 53 54  1  0  0  0
 54 55  2  0  0  0
 54126  1  0  0  0
 55 57  1  0  0  0
 55127  1  0  0  0
 56 69  2  0  0  0
 57 58  2  0  0  0
 57128  1  0  0  0
 58129  1  0  0  0
 59 60  1  0  0  0
 59 61  1  0  0  0
 59 62  1  0  0  0
 60130  1  0  0  0
 60131  1  0  0  0
 60132  1  0  0  0
 61133  1  0  0  0
 61134  1  0  0  0
 61135  1  0  0  0
 62136  1  0  0  0
 62137  1  0  0  0
 62138  1  0  0  0
 63 65  1  0  0  0
 63139  1  0  0  0
 63140  1  0  0  0
 63141  1  0  0  0
 64142  1  0  0  0
 65143  1  0  0  0
 68 82  1  0  0  0
 71 73  2  0  0  0
 71 75  1  0  0  0
 71144  1  0  0  0
 72 74  1  0  0  0
 72 75  2  0  0  0
 72145  1  0  0  0
 73 76  1  0  0  0
 73146  1  0  0  0
 74 76  2  0  0  0
 74147  1  0  0  0
 75 79  1  0  0  0
 76 83  1  0  0  0
 77 83  1  0  0  0
 77148  1  0  0  0
 77149  1  0  0  0
 77150  1  0  0  0
 78 84  1  0  0  0
 78151  1  0  0  0
 78152  1  0  0  0
 78153  1  0  0  0
 79 84  1  0  0  0
 79154  1  0  0  0
 79155  1  0  0  0
 80 81  1  0  0  0
 80 82  1  0  0  0
 80156  1  0  0  0
 80157  1  0  0  0
 81 83  1  0  0  0
 81158  1  0  0  0
 81159  1  0  0  0
 82160  1  0  0  0
 82161  1  0  0  0
M  ISO  4   1 100  68 101  82 101  84 100
M  END
> <chiral flag>
0

> <version>
0

> <s_m_source_file>
/data/baiqing/PycharmProjects/Reinvent-master-3.2/result/LINK_invent/BTK/process_docking_weight1_custom_product_contain_oxygen_bond_distance_aromatic_linkinvent_7_9_3/rearranged_h_0018.sdf

> <i_m_source_file_index>
57

> <r_mmod_Potential_Energy-OPLS-2005>
100.385414123535

> <r_mmod_Stretch_Energy-OPLS-2005>
46.212100982666

> <r_mmod_Bend_Energy-OPLS-2005>
142.126251220703

> <r_mmod_Torsional_Energy-OPLS-2005>
238.704498291016

> <r_mmod_Improper_Torsional_Energy-OPLS-2005>
7.92415904998779

> <r_mmod_Van_der_Waal_Energy-OPLS-2005>
180.791030883789

> <r_mmod_Electrostatic_Energy-OPLS-2005>
-317.921661376953

> <r_mmod_Solvation_Energy-OPLS-2005>
-212.284820556641

> <b_mmod_Minimization_Converged-OPLS-2005>
0

> <r_mmod_RMS_Derivative-OPLS-2005>
4.60344171524048

$$$$
57
                    3D
 Structure written by MMmdl.
164172  0  0  1  0            999 V2000
  -30.7660  -14.3977   20.6684 C   0  0  0  0  0  0
  -30.4125  -12.3079   19.3952 C   0  0  0  0  0  0
  -29.4759  -12.5269   18.1929 C   0  0  0  0  0  0
  -28.0034  -12.3643   18.6123 C   0  0  0  0  0  0
  -27.6590  -13.1817   19.8822 C   0  0  2  0  0  0
  -28.7066  -12.9425   20.9959 C   0  0  0  0  0  0
  -25.2594  -13.8097   20.5691 C   0  0  0  0  0  0
  -24.1828  -13.0407   20.9196 C   0  0  0  0  0  0
  -24.6355  -11.6864   20.8767 C   0  0  0  0  0  0
  -23.9019  -10.4272   21.0428 C   0  0  0  0  0  0
  -24.3580   -9.4192   21.9206 C   0  0  0  0  0  0
  -23.6268   -8.2222   22.0764 C   0  0  0  0  0  0
  -22.4254   -8.0270   21.3548 C   0  0  0  0  0  0
  -21.9892   -9.0235   20.4640 C   0  0  0  0  0  0
  -22.7208  -10.2120   20.3058 C   0  0  0  0  0  0
  -21.6840   -6.0734   22.5278 C   0  0  0  0  0  0
  -21.4007   -6.5638   23.8214 C   0  0  0  0  0  0
  -21.3659   -5.6791   24.9176 C   0  0  0  0  0  0
  -21.6043   -4.3055   24.7227 C   0  0  0  0  0  0
  -21.8823   -3.8150   23.4347 C   0  0  0  0  0  0
  -21.9187   -4.6966   22.3400 C   0  0  0  0  0  0
  -22.7862  -13.5234   21.1843 C   0  0  0  0  0  0
  -22.1660   -4.2154   21.0978 F   0  0  0  0  0  0
  -21.5629   -3.4538   25.7740 F   0  0  0  0  0  0
  -30.0391  -13.2631   20.4531 N   0  0  0  0  0  0
  -26.3004  -12.9205   20.3414 N   0  0  0  0  0  0
  -25.9269  -11.6397   20.5809 N   0  0  0  0  0  0
  -22.0480  -12.8226   22.0382 N   0  0  0  0  0  0
  -25.4320  -15.1814   20.4071 N   0  0  0  0  0  0
  -31.8181  -14.6271   20.0605 O   0  0  0  0  0  0
  -21.6621   -6.8871   21.4239 O   0  0  0  0  0  0
  -22.3574  -14.5554   20.6705 O   0  0  0  0  0  0
  -24.6100  -31.8704   23.2116 C   0  0  0  0  0  0
  -25.9006  -32.4833   23.8406 C   0  0  1  0  0  0
  -27.2466  -27.4685   20.0826 C   0  0  0  0  0  0
  -25.5870  -33.8631   24.2331 N   0  0  0  0  0  0
  -23.3967  -30.4930   21.5508 C   0  0  2  0  0  0
  -24.8440  -28.9563   20.1176 C   0  0  0  0  0  0
  -22.7371  -29.4681   22.5001 C   0  0  0  0  0  0
  -18.0262  -28.1377   22.8513 C   0  0  0  0  0  0
  -24.1488  -36.7325   23.2637 C   0  0  0  0  0  0
  -25.9200  -30.8424   21.3603 C   0  0  0  0  0  0
  -25.9978  -29.4749   20.7162 C   0  0  0  0  0  0
  -27.1948  -28.7315   20.7086 C   0  0  0  0  0  0
  -26.0708  -26.9473   19.4944 C   0  0  0  0  0  0
  -24.8716  -27.6876   19.5115 C   0  0  0  0  0  0
  -23.6046  -29.8210   20.1660 C   0  0  0  0  0  0
  -25.4106  -36.3121   24.0339 C   0  0  1  0  0  0
  -20.5848  -28.3674   23.1331 C   0  0  2  0  0  0
  -20.6763  -26.9419   22.5422 C   0  0  0  0  0  0
  -19.5738  -26.6400   21.5221 C   0  0  0  0  0  0
  -18.1913  -26.7934   22.1630 C   0  0  0  0  0  0
  -19.1510  -28.8837   23.2926 C   0  0  0  0  0  0
  -18.9442  -30.1446   23.8934 C   0  0  0  0  0  0
  -17.6449  -30.6597   24.0574 C   0  0  0  0  0  0
  -25.9037  -34.9480   23.5136 C   0  0  0  0  0  0
  -16.5338  -29.9108   23.6319 C   0  0  0  0  0  0
  -16.7255  -28.6512   23.0368 C   0  0  0  0  0  0
  -26.4456  -31.6593   25.0709 C   0  0  0  0  0  0
  -25.3726  -31.3608   26.1437 C   0  0  0  0  0  0
  -27.0317  -30.3066   24.6035 C   0  0  0  0  0  0
  -27.6020  -32.4309   25.7494 C   0  0  0  0  0  0
  -27.5587  -37.1807   24.8456 C   0  0  0  0  0  0
  -21.4107  -29.3048   22.3731 N   0  0  0  0  0  0
  -26.4287  -37.3810   23.9417 N   0  0  0  0  0  0
  -24.6602  -31.0828   22.1000 N   0  0  0  0  0  0
  -23.4151  -28.8239   23.3047 O   0  0  0  0  0  0
  -28.4515  -26.8039   20.0898 O   0  0  0  0  0  0
  -26.5619  -34.8931   22.4709 O   0  0  0  0  0  0
  -23.5300  -32.1452   23.7529 O   0  0  0  0  0  0
  -29.6251  -19.1613   19.3993 C   0  0  0  0  0  0
  -29.7182  -19.8690   21.7167 C   0  0  0  0  0  0
  -29.4919  -17.8147   19.7961 C   0  0  0  0  0  0
  -29.4548  -17.4852   21.1794 C   0  0  0  0  0  0
  -29.7156  -20.2024   20.3485 C   0  0  0  0  0  0
  -29.5854  -18.5280   22.1284 C   0  0  0  0  0  0
  -29.3863  -16.7782   18.6893 C   0  0  0  0  0  0
  -31.4511  -15.6529   22.6273 C   0  0  0  0  0  0
  -29.2214  -16.0539   21.6807 C   0  0  0  0  0  0
  -29.1607  -23.4461   18.4783 C   0  0  0  0  0  0
  -28.6058  -24.4276   19.5245 C   0  0  0  0  0  0
  -28.9761  -21.9646   18.8292 C   0  0  0  0  0  0
  -28.7472  -25.8813   19.0472 C   0  0  0  0  0  0
  -29.7995  -21.5511   19.9631 N   0  0  0  0  0  0
  -30.4060  -15.1760   21.7158 N   0  0  0  0  0  0
  -29.5687  -18.2495   23.4546 F   0  0  0  0  0  0
  -31.4524  -12.4108   19.0812 H   0  0  0  0  0  0
  -30.3219  -11.2871   19.7688 H   0  0  0  0  0  0
  -29.7155  -11.8250   17.3931 H   0  0  0  0  0  0
  -29.6323  -13.5256   17.7816 H   0  0  0  0  0  0
  -27.8180  -11.3049   18.7910 H   0  0  0  0  0  0
  -27.3451  -12.6525   17.7922 H   0  0  0  0  0  0
  -27.6924  -14.2230   19.5874 H   0  0  0  0  0  0
  -28.6880  -11.8961   21.3036 H   0  0  0  0  0  0
  -28.4599  -13.4995   21.8991 H   0  0  0  0  0  0
  -25.2718   -9.5683   22.4786 H   0  0  0  0  0  0
  -23.9984   -7.4621   22.7486 H   0  0  0  0  0  0
  -21.0828   -8.8747   19.8936 H   0  0  0  0  0  0
  -22.3673  -10.9663   19.6168 H   0  0  0  0  0  0
  -21.2003   -7.6146   23.9722 H   0  0  0  0  0  0
  -21.1474   -6.0519   25.9079 H   0  0  0  0  0  0
  -22.0603   -2.7614   23.2845 H   0  0  0  0  0  0
  -22.4065  -11.9860   22.4744 H   0  0  0  0  0  0
  -21.1103  -13.1269   22.2579 H   0  0  0  0  0  0
  -24.6597  -15.8310   20.5093 H   0  0  0  0  0  0
  -26.2757  -15.6236   20.0673 H   0  0  0  0  0  0
  -26.7074  -32.5576   23.1175 H   0  0  0  0  0  0
  -24.9967  -33.9800   25.0440 H   0  0  0  0  0  0
  -22.6852  -31.3088   21.4110 H   0  0  0  0  0  0
  -23.3760  -35.9642   23.3267 H   0  0  0  0  0  0
  -24.3585  -36.8985   22.2058 H   0  0  0  0  0  0
  -23.7223  -37.6507   23.6682 H   0  0  0  0  0  0
  -26.0220  -31.6042   20.5854 H   0  0  0  0  0  0
  -26.8113  -30.9045   21.9722 H   0  0  0  0  0  0
  -28.0889  -29.1325   21.1663 H   0  0  0  0  0  0
  -26.0659  -25.9726   19.0285 H   0  0  0  0  0  0
  -23.9808  -27.2764   19.0572 H   0  0  0  0  0  0
  -23.7123  -30.5943   19.4040 H   0  0  0  0  0  0
  -22.7289  -29.2397   19.8724 H   0  0  0  0  0  0
  -25.1273  -36.1985   25.0828 H   0  0  0  0  0  0
  -20.9941  -28.3253   24.1452 H   0  0  0  0  0  0
  -20.5702  -26.2280   23.3602 H   0  0  0  0  0  0
  -21.6634  -26.7495   22.1202 H   0  0  0  0  0  0
  -19.6911  -25.6319   21.1236 H   0  0  0  0  0  0
  -19.6664  -27.3223   20.6759 H   0  0  0  0  0  0
  -17.4187  -26.6700   21.4027 H   0  0  0  0  0  0
  -18.0305  -26.0059   22.9006 H   0  0  0  0  0  0
  -19.7913  -30.7250   24.2330 H   0  0  0  0  0  0
  -17.5004  -31.6279   24.5171 H   0  0  0  0  0  0
  -15.5343  -30.3035   23.7605 H   0  0  0  0  0  0
  -15.8655  -28.0837   22.7083 H   0  0  0  0  0  0
  -24.5930  -30.6948   25.7722 H   0  0  0  0  0  0
  -24.8872  -32.2714   26.4948 H   0  0  0  0  0  0
  -25.8088  -30.8714   27.0155 H   0  0  0  0  0  0
  -26.2853  -29.6798   24.1136 H   0  0  0  0  0  0
  -27.4193  -29.7311   25.4456 H   0  0  0  0  0  0
  -27.8630  -30.4441   23.9112 H   0  0  0  0  0  0
  -27.2641  -33.3618   26.2060 H   0  0  0  0  0  0
  -28.3839  -32.6848   25.0324 H   0  0  0  0  0  0
  -28.0667  -31.8429   26.5419 H   0  0  0  0  0  0
  -28.2545  -38.0171   24.7605 H   0  0  0  0  0  0
  -28.1156  -36.2699   24.6173 H   0  0  0  0  0  0
  -27.2303  -37.1317   25.8857 H   0  0  0  0  0  0
  -20.9257  -29.8761   21.6951 H   0  0  0  0  0  0
  -26.0176  -38.2878   24.1466 H   0  0  0  0  0  0
  -29.6569  -19.3790   18.3415 H   0  0  0  0  0  0
  -29.7997  -20.6396   22.4696 H   0  0  0  0  0  0
  -28.9960  -17.2249   17.7738 H   0  0  0  0  0  0
  -28.7138  -15.9675   18.9403 H   0  0  0  0  0  0
  -30.3677  -16.3639   18.4590 H   0  0  0  0  0  0
  -31.0324  -15.9213   23.5974 H   0  0  0  0  0  0
  -31.9545  -16.5287   22.2163 H   0  0  0  0  0  0
  -32.2063  -14.8849   22.8040 H   0  0  0  0  0  0
  -28.4124  -15.6250   21.1004 H   0  0  0  0  0  0
  -28.8119  -16.0917   22.6909 H   0  0  0  0  0  0
  -30.2169  -23.6519   18.2970 H   0  0  0  0  0  0
  -28.6564  -23.6349   17.5285 H   0  0  0  0  0  0
  -29.1429  -24.3028   20.4646 H   0  0  0  0  0  0
  -27.5595  -24.2019   19.7337 H   0  0  0  0  0  0
  -29.2417  -21.3881   17.9432 H   0  0  0  0  0  0
  -27.9258  -21.7534   19.0385 H   0  0  0  0  0  0
  -28.1691  -26.0653   18.1405 H   0  0  0  0  0  0
  -29.7867  -26.0603   18.7692 H   0  0  0  0  0  0
  -29.8544  -22.2232   20.7235 H   0  0  0  0  0  0
  1 25  1  0  0  0
  1 30  2  0  0  0
  1 85  1  0  0  0
  2  3  1  0  0  0
  2 25  1  0  0  0
  2 87  1  0  0  0
  2 88  1  0  0  0
  3  4  1  0  0  0
  3 89  1  0  0  0
  3 90  1  0  0  0
  4  5  1  0  0  0
  4 91  1  0  0  0
  4 92  1  0  0  0
  5  6  1  0  0  0
  5 26  1  0  0  0
  5 93  1  0  0  0
  6 25  1  0  0  0
  6 94  1  0  0  0
  6 95  1  0  0  0
  7  8  2  0  0  0
  7 26  1  0  0  0
  7 29  1  0  0  0
  8  9  1  0  0  0
  8 22  1  0  0  0
  9 10  1  0  0  0
  9 27  2  0  0  0
 10 11  2  0  0  0
 10 15  1  0  0  0
 11 12  1  0  0  0
 11 96  1  0  0  0
 12 13  2  0  0  0
 12 97  1  0  0  0
 13 14  1  0  0  0
 13 31  1  0  0  0
 14 15  2  0  0  0
 14 98  1  0  0  0
 15 99  1  0  0  0
 16 17  2  0  0  0
 16 21  1  0  0  0
 16 31  1  0  0  0
 17 18  1  0  0  0
 17100  1  0  0  0
 18 19  2  0  0  0
 18101  1  0  0  0
 19 20  1  0  0  0
 19 24  1  0  0  0
 20 21  2  0  0  0
 20102  1  0  0  0
 21 23  1  0  0  0
 22 28  1  0  0  0
 22 32  2  0  0  0
 26 27  1  0  0  0
 28103  1  0  0  0
 28104  1  0  0  0
 29105  1  0  0  0
 29106  1  0  0  0
 33 34  1  0  0  0
 33 66  1  0  0  0
 33 70  2  0  0  0
 34 36  1  0  0  0
 34 59  1  0  0  0
 34107  1  0  0  0
 35 44  2  0  0  0
 35 45  1  0  0  0
 35 68  1  0  0  0
 36 56  1  0  0  0
 36108  1  0  0  0
 37 39  1  0  0  0
 37 47  1  0  0  0
 37 66  1  0  0  0
 37109  1  0  0  0
 38 43  2  0  0  0
 38 46  1  0  0  0
 38 47  1  0  0  0
 39 64  1  0  0  0
 39 67  2  0  0  0
 40 52  1  0  0  0
 40 53  2  0  0  0
 40 58  1  0  0  0
 41110  1  0  0  0
 41111  1  0  0  0
 41112  1  0  0  0
 41 48  1  0  0  0
 42 43  1  0  0  0
 42 66  1  0  0  0
 42113  1  0  0  0
 42114  1  0  0  0
 43 44  1  0  0  0
 44115  1  0  0  0
 45 46  2  0  0  0
 45116  1  0  0  0
 46117  1  0  0  0
 47118  1  0  0  0
 47119  1  0  0  0
 48 56  1  0  0  0
 48 65  1  0  0  0
 48120  1  0  0  0
 49 50  1  0  0  0
 49 53  1  0  0  0
 49 64  1  0  0  0
 49121  1  0  0  0
 50 51  1  0  0  0
 50122  1  0  0  0
 50123  1  0  0  0
 51 52  1  0  0  0
 51124  1  0  0  0
 51125  1  0  0  0
 52126  1  0  0  0
 52127  1  0  0  0
 53 54  1  0  0  0
 54 55  2  0  0  0
 54128  1  0  0  0
 55 57  1  0  0  0
 55129  1  0  0  0
 56 69  2  0  0  0
 57 58  2  0  0  0
 57130  1  0  0  0
 58131  1  0  0  0
 59 60  1  0  0  0
 59 61  1  0  0  0
 59 62  1  0  0  0
 60132  1  0  0  0
 60133  1  0  0  0
 60134  1  0  0  0
 61135  1  0  0  0
 61136  1  0  0  0
 61137  1  0  0  0
 62138  1  0  0  0
 62139  1  0  0  0
 62140  1  0  0  0
 63 65  1  0  0  0
 63141  1  0  0  0
 63142  1  0  0  0
 63143  1  0  0  0
 64144  1  0  0  0
 65145  1  0  0  0
 68 83  1  0  0  0
 71 73  2  0  0  0
 71 75  1  0  0  0
 71146  1  0  0  0
 72 75  2  0  0  0
 72 76  1  0  0  0
 72147  1  0  0  0
 73 74  1  0  0  0
 73 77  1  0  0  0
 74 76  2  0  0  0
 74 79  1  0  0  0
 75 84  1  0  0  0
 76 86  1  0  0  0
 77148  1  0  0  0
 77149  1  0  0  0
 77150  1  0  0  0
 78 85  1  0  0  0
 78151  1  0  0  0
 78152  1  0  0  0
 78153  1  0  0  0
 79 85  1  0  0  0
 79154  1  0  0  0
 79155  1  0  0  0
 80 81  1  0  0  0
 80 82  1  0  0  0
 80156  1  0  0  0
 80157  1  0  0  0
 81 83  1  0  0  0
 81158  1  0  0  0
 81159  1  0  0  0
 82 84  1  0  0  0
 82160  1  0  0  0
 82161  1  0  0  0
 83162  1  0  0  0
 83163  1  0  0  0
 84164  1  0  0  0
M  ISO  4   1 100  68 101  83 101  85 100
M  END
> <chiral flag>
0

> <version>
0

> <s_m_source_file>
/data/baiqing/PycharmProjects/Reinvent-master-3.2/result/LINK_invent/BTK/process_docking_weight1_custom_product_contain_oxygen_bond_distance_aromatic_linkinvent_7_9_3/rearranged_h_0018.sdf

> <i_m_source_file_index>
58

> <r_mmod_Potential_Energy-OPLS-2005>
77.8968658447266

> <r_mmod_Stretch_Energy-OPLS-2005>
35.5179557800293

> <r_mmod_Bend_Energy-OPLS-2005>
106.480667114258

> <r_mmod_Torsional_Energy-OPLS-2005>
264.355926513672

> <r_mmod_Improper_Torsional_Energy-OPLS-2005>
9.46822547912598

> <r_mmod_Van_der_Waal_Energy-OPLS-2005>
155.417205810547

> <r_mmod_Electrostatic_Energy-OPLS-2005>
-301.061370849609

> <r_mmod_Solvation_Energy-OPLS-2005>
-200.792831420898

> <b_mmod_Minimization_Converged-OPLS-2005>
0

> <r_mmod_RMS_Derivative-OPLS-2005>
1.3201208114624

$$$$
58
                    3D
 Structure written by MMmdl.
158166  0  0  1  0            999 V2000
  -30.5732  -14.6730   20.5108 C   0  0  0  0  0  0
  -30.4526  -12.4176   19.4468 C   0  0  0  0  0  0
  -29.5116  -12.5209   18.2235 C   0  0  0  0  0  0
  -28.0355  -12.3447   18.6367 C   0  0  0  0  0  0
  -27.6560  -13.2089   19.8669 C   0  0  2  0  0  0
  -28.7017  -13.0431   20.9932 C   0  0  0  0  0  0
  -25.2573  -13.8140   20.5660 C   0  0  0  0  0  0
  -24.1840  -13.0423   20.9201 C   0  0  0  0  0  0
  -24.6399  -11.6892   20.8752 C   0  0  0  0  0  0
  -23.9062  -10.4284   21.0415 C   0  0  0  0  0  0
  -24.3613   -9.4198   21.9192 C   0  0  0  0  0  0
  -23.6288   -8.2235   22.0757 C   0  0  0  0  0  0
  -22.4271   -8.0278   21.3544 C   0  0  0  0  0  0
  -21.9907   -9.0253   20.4647 C   0  0  0  0  0  0
  -22.7237  -10.2132   20.3059 C   0  0  0  0  0  0
  -21.6849   -6.0733   22.5280 C   0  0  0  0  0  0
  -21.4012   -6.5641   23.8214 C   0  0  0  0  0  0
  -21.3658   -5.6793   24.9177 C   0  0  0  0  0  0
  -21.6043   -4.3055   24.7226 C   0  0  0  0  0  0
  -21.8821   -3.8145   23.4348 C   0  0  0  0  0  0
  -21.9192   -4.6962   22.3402 C   0  0  0  0  0  0
  -22.7864  -13.5228   21.1857 C   0  0  0  0  0  0
  -22.1663   -4.2147   21.0980 F   0  0  0  0  0  0
  -21.5626   -3.4538   25.7740 F   0  0  0  0  0  0
  -30.0145  -13.4204   20.4387 N   0  0  0  0  0  0
  -26.3000  -12.9308   20.3315 N   0  0  0  0  0  0
  -25.9325  -11.6475   20.5760 N   0  0  0  0  0  0
  -22.0496  -12.8226   22.0408 N   0  0  0  0  0  0
  -25.4268  -15.1851   20.3997 N   0  0  0  0  0  0
  -31.7208  -14.8923   20.1073 O   0  0  0  0  0  0
  -21.6634   -6.8878   21.4242 O   0  0  0  0  0  0
  -22.3558  -14.5533   20.6696 O   0  0  0  0  0  0
  -24.6258  -31.8580   23.1999 C   0  0  0  0  0  0
  -25.9105  -32.4768   23.8336 C   0  0  1  0  0  0
  -27.2366  -27.3176   20.1300 C   0  0  0  0  0  0
  -25.5914  -33.8568   24.2263 N   0  0  0  0  0  0
  -23.4208  -30.4769   21.5425 C   0  0  2  0  0  0
  -24.8698  -28.9198   20.1190 C   0  0  0  0  0  0
  -22.7472  -29.4607   22.4947 C   0  0  0  0  0  0
  -18.0285  -28.1376   22.8484 C   0  0  0  0  0  0
  -24.1484  -36.7293   23.2641 C   0  0  0  0  0  0
  -25.9597  -30.7887   21.3693 C   0  0  0  0  0  0
  -26.0368  -29.4128   20.7166 C   0  0  0  0  0  0
  -27.2251  -28.6257   20.7036 C   0  0  0  0  0  0
  -26.0475  -26.8622   19.5252 C   0  0  0  0  0  0
  -24.8762  -27.6496   19.5147 C   0  0  0  0  0  0
  -23.6371  -29.8018   20.1613 C   0  0  0  0  0  0
  -25.4113  -36.3081   24.0327 C   0  0  1  0  0  0
  -20.5882  -28.3677   23.1284 C   0  0  2  0  0  0
  -20.6771  -26.9404   22.5403 C   0  0  0  0  0  0
  -19.5743  -26.6380   21.5205 C   0  0  0  0  0  0
  -18.1926  -26.7920   22.1622 C   0  0  0  0  0  0
  -19.1538  -28.8844   23.2878 C   0  0  0  0  0  0
  -18.9466  -30.1448   23.8888 C   0  0  0  0  0  0
  -17.6466  -30.6579   24.0559 C   0  0  0  0  0  0
  -25.9050  -34.9448   23.5101 C   0  0  0  0  0  0
  -16.5354  -29.9080   23.6325 C   0  0  0  0  0  0
  -16.7274  -28.6497   23.0347 C   0  0  0  0  0  0
  -26.4488  -31.6588   25.0716 C   0  0  0  0  0  0
  -25.3716  -31.3721   26.1440 C   0  0  0  0  0  0
  -27.0353  -30.3017   24.6185 C   0  0  0  0  0  0
  -27.6034  -32.4338   25.7496 C   0  0  0  0  0  0
  -27.5577  -37.1807   24.8465 C   0  0  0  0  0  0
  -21.4186  -29.3033   22.3685 N   0  0  0  0  0  0
  -26.4288  -37.3778   23.9408 N   0  0  0  0  0  0
  -24.6874  -31.0587   22.0946 N   0  0  0  0  0  0
  -23.4189  -28.8160   23.3043 O   0  0  0  0  0  0
  -28.3811  -26.5116   20.1085 O   0  0  0  0  0  0
  -26.5629  -34.8919   22.4674 O   0  0  0  0  0  0
  -23.5420  -32.1381   23.7324 O   0  0  0  0  0  0
  -30.5296  -18.0770   20.4110 C   0  0  0  0  0  0
  -30.2229  -19.4859   20.3669 C   0  0  0  0  0  0
  -28.2775  -17.6357   21.0874 C   0  0  0  0  0  0
  -29.5568  -17.1065   20.7903 C   0  0  0  0  0  0
  -28.9349  -20.0180   20.6940 C   0  0  0  0  0  0
  -27.9669  -19.0207   21.0300 C   0  0  0  0  0  0
  -29.4271  -24.4176   18.4180 C   0  0  0  0  0  0
  -27.7386  -21.8264   21.8586 C   0  0  0  0  0  0
  -29.3899  -22.5594   20.1596 C   0  0  0  0  0  0
  -28.3326  -25.1119   20.6050 C   0  0  0  0  0  0
  -28.6282  -23.8822   19.6190 C   0  0  1  0  0  0
  -29.7092  -15.6504   20.9404 N   0  0  0  0  0  0
  -28.5901  -21.4344   20.7341 N   0  0  0  0  0  0
  -26.6877  -19.3762   21.3097 F   0  0  0  0  0  0
  -31.4882  -12.5741   19.1401 H   0  0  0  0  0  0
  -30.4156  -11.4161   19.8789 H   0  0  0  0  0  0
  -29.7816  -11.7751   17.4749 H   0  0  0  0  0  0
  -29.6407  -13.4928   17.7443 H   0  0  0  0  0  0
  -27.8801  -11.2902   18.8675 H   0  0  0  0  0  0
  -27.3773  -12.5721   17.7971 H   0  0  0  0  0  0
  -27.6779  -14.2462   19.5331 H   0  0  0  0  0  0
  -28.7262  -12.0093   21.3413 H   0  0  0  0  0  0
  -28.4361  -13.6365   21.8696 H   0  0  0  0  0  0
  -25.2758   -9.5671   22.4768 H   0  0  0  0  0  0
  -23.9994   -7.4624   22.7476 H   0  0  0  0  0  0
  -21.0836   -8.8773   19.8952 H   0  0  0  0  0  0
  -22.3698  -10.9673   19.6168 H   0  0  0  0  0  0
  -21.2007   -7.6151   23.9716 H   0  0  0  0  0  0
  -21.1479   -6.0524   25.9079 H   0  0  0  0  0  0
  -22.0602   -2.7607   23.2849 H   0  0  0  0  0  0
  -22.4105  -11.9883   22.4794 H   0  0  0  0  0  0
  -21.1112  -13.1256   22.2608 H   0  0  0  0  0  0
  -24.6429  -15.8247   20.4716 H   0  0  0  0  0  0
  -26.2414  -15.6052   19.9727 H   0  0  0  0  0  0
  -26.7177  -32.5439   23.1088 H   0  0  0  0  0  0
  -25.0031  -33.9698   25.0389 H   0  0  0  0  0  0
  -22.7146  -31.2967   21.3944 H   0  0  0  0  0  0
  -23.3745  -35.9627   23.3299 H   0  0  0  0  0  0
  -24.3569  -36.8924   22.2056 H   0  0  0  0  0  0
  -23.7237  -37.6492   23.6669 H   0  0  0  0  0  0
  -26.0901  -31.5508   20.5996 H   0  0  0  0  0  0
  -26.8398  -30.8401   21.9987 H   0  0  0  0  0  0
  -28.1286  -29.0077   21.1583 H   0  0  0  0  0  0
  -26.0272  -25.8882   19.0574 H   0  0  0  0  0  0
  -23.9802  -27.2641   19.0475 H   0  0  0  0  0  0
  -23.7593  -30.5737   19.4004 H   0  0  0  0  0  0
  -22.7569  -29.2307   19.8605 H   0  0  0  0  0  0
  -25.1296  -36.1928   25.0819 H   0  0  0  0  0  0
  -20.9967  -28.3250   24.1407 H   0  0  0  0  0  0
  -20.5670  -26.2290   23.3601 H   0  0  0  0  0  0
  -21.6641  -26.7437   22.1198 H   0  0  0  0  0  0
  -19.6903  -25.6294   21.1227 H   0  0  0  0  0  0
  -19.6671  -27.3192   20.6733 H   0  0  0  0  0  0
  -17.4195  -26.6664   21.4025 H   0  0  0  0  0  0
  -18.0331  -26.0061   22.9015 H   0  0  0  0  0  0
  -19.7946  -30.7262   24.2248 H   0  0  0  0  0  0
  -17.5026  -31.6256   24.5168 H   0  0  0  0  0  0
  -15.5354  -30.2981   23.7651 H   0  0  0  0  0  0
  -15.8676  -28.0813   22.7062 H   0  0  0  0  0  0
  -24.5869  -30.7104   25.7756 H   0  0  0  0  0  0
  -24.8930  -32.2888   26.4891 H   0  0  0  0  0  0
  -25.8031  -30.8863   27.0199 H   0  0  0  0  0  0
  -26.2947  -29.6751   24.1203 H   0  0  0  0  0  0
  -27.4051  -29.7286   25.4698 H   0  0  0  0  0  0
  -27.8805  -30.4313   23.9422 H   0  0  0  0  0  0
  -27.2627  -33.3632   26.2069 H   0  0  0  0  0  0
  -28.3843  -32.6914   25.0329 H   0  0  0  0  0  0
  -28.0705  -31.8474   26.5417 H   0  0  0  0  0  0
  -28.2594  -38.0109   24.7523 H   0  0  0  0  0  0
  -28.1077  -36.2639   24.6281 H   0  0  0  0  0  0
  -27.2291  -37.1446   25.8867 H   0  0  0  0  0  0
  -20.9367  -29.8755   21.6893 H   0  0  0  0  0  0
  -26.0167  -38.2851   24.1409 H   0  0  0  0  0  0
  -31.5332  -17.7554   20.1695 H   0  0  0  0  0  0
  -31.0175  -20.1664   20.0992 H   0  0  0  0  0  0
  -27.4825  -16.9659   21.3792 H   0  0  0  0  0  0
  -29.5617  -23.6513   17.6539 H   0  0  0  0  0  0
  -30.4156  -24.7627   18.7227 H   0  0  0  0  0  0
  -28.9161  -25.2532   17.9392 H   0  0  0  0  0  0
  -26.6936  -21.8787   21.5504 H   0  0  0  0  0  0
  -28.0173  -22.8068   22.2460 H   0  0  0  0  0  0
  -27.8145  -21.1318   22.6968 H   0  0  0  0  0  0
  -30.1533  -22.8548   20.8812 H   0  0  0  0  0  0
  -29.9449  -22.1275   19.3254 H   0  0  0  0  0  0
  -29.0855  -25.0740   21.3926 H   0  0  0  0  0  0
  -27.3885  -24.9348   21.1224 H   0  0  0  0  0  0
  -27.6686  -23.5630   19.2100 H   0  0  0  0  0  0
  -28.8758  -15.2111   21.3003 H   0  0  0  0  0  0
  1 25  1  0  0  0
  1 30  2  0  0  0
  1 82  1  0  0  0
  2  3  1  0  0  0
  2 25  1  0  0  0
  2 85  1  0  0  0
  2 86  1  0  0  0
  3  4  1  0  0  0
  3 87  1  0  0  0
  3 88  1  0  0  0
  4  5  1  0  0  0
  4 89  1  0  0  0
  4 90  1  0  0  0
  5  6  1  0  0  0
  5 26  1  0  0  0
  5 91  1  0  0  0
  6 25  1  0  0  0
  6 92  1  0  0  0
  6 93  1  0  0  0
  7  8  2  0  0  0
  7 26  1  0  0  0
  7 29  1  0  0  0
  8  9  1  0  0  0
  8 22  1  0  0  0
  9 10  1  0  0  0
  9 27  2  0  0  0
 10 11  2  0  0  0
 10 15  1  0  0  0
 11 12  1  0  0  0
 11 94  1  0  0  0
 12 13  2  0  0  0
 12 95  1  0  0  0
 13 14  1  0  0  0
 13 31  1  0  0  0
 14 15  2  0  0  0
 14 96  1  0  0  0
 15 97  1  0  0  0
 16 17  2  0  0  0
 16 21  1  0  0  0
 16 31  1  0  0  0
 17 18  1  0  0  0
 17 98  1  0  0  0
 18 19  2  0  0  0
 18 99  1  0  0  0
 19 20  1  0  0  0
 19 24  1  0  0  0
 20 21  2  0  0  0
 20100  1  0  0  0
 21 23  1  0  0  0
 22 28  1  0  0  0
 22 32  2  0  0  0
 26 27  1  0  0  0
 28101  1  0  0  0
 28102  1  0  0  0
 29103  1  0  0  0
 29104  1  0  0  0
 33 34  1  0  0  0
 33 66  1  0  0  0
 33 70  2  0  0  0
 34 36  1  0  0  0
 34 59  1  0  0  0
 34105  1  0  0  0
 35 44  2  0  0  0
 35 45  1  0  0  0
 35 68  1  0  0  0
 36 56  1  0  0  0
 36106  1  0  0  0
 37 39  1  0  0  0
 37 47  1  0  0  0
 37 66  1  0  0  0
 37107  1  0  0  0
 38 43  2  0  0  0
 38 46  1  0  0  0
 38 47  1  0  0  0
 39 64  1  0  0  0
 39 67  2  0  0  0
 40 52  1  0  0  0
 40 53  2  0  0  0
 40 58  1  0  0  0
 41108  1  0  0  0
 41109  1  0  0  0
 41110  1  0  0  0
 41 48  1  0  0  0
 42 43  1  0  0  0
 42 66  1  0  0  0
 42111  1  0  0  0
 42112  1  0  0  0
 43 44  1  0  0  0
 44113  1  0  0  0
 45 46  2  0  0  0
 45114  1  0  0  0
 46115  1  0  0  0
 47116  1  0  0  0
 47117  1  0  0  0
 48 56  1  0  0  0
 48 65  1  0  0  0
 48118  1  0  0  0
 49 50  1  0  0  0
 49 53  1  0  0  0
 49 64  1  0  0  0
 49119  1  0  0  0
 50 51  1  0  0  0
 50120  1  0  0  0
 50121  1  0  0  0
 51 52  1  0  0  0
 51122  1  0  0  0
 51123  1  0  0  0
 52124  1  0  0  0
 52125  1  0  0  0
 53 54  1  0  0  0
 54 55  2  0  0  0
 54126  1  0  0  0
 55 57  1  0  0  0
 55127  1  0  0  0
 56 69  2  0  0  0
 57 58  2  0  0  0
 57128  1  0  0  0
 58129  1  0  0  0
 59 60  1  0  0  0
 59 61  1  0  0  0
 59 62  1  0  0  0
 60130  1  0  0  0
 60131  1  0  0  0
 60132  1  0  0  0
 61133  1  0  0  0
 61134  1  0  0  0
 61135  1  0  0  0
 62136  1  0  0  0
 62137  1  0  0  0
 62138  1  0  0  0
 63 65  1  0  0  0
 63139  1  0  0  0
 63140  1  0  0  0
 63141  1  0  0  0
 64142  1  0  0  0
 65143  1  0  0  0
 68 80  1  0  0  0
 71 72  2  0  0  0
 71 74  1  0  0  0
 71144  1  0  0  0
 72 75  1  0  0  0
 72145  1  0  0  0
 73 74  2  0  0  0
 73 76  1  0  0  0
 73146  1  0  0  0
 74 82  1  0  0  0
 75 76  2  0  0  0
 75 83  1  0  0  0
 76 84  1  0  0  0
 77147  1  0  0  0
 77148  1  0  0  0
 77149  1  0  0  0
 77 81  1  0  0  0
 78 83  1  0  0  0
 78150  1  0  0  0
 78151  1  0  0  0
 78152  1  0  0  0
 79 81  1  0  0  0
 79 83  1  0  0  0
 79153  1  0  0  0
 79154  1  0  0  0
 80 81  1  0  0  0
 80155  1  0  0  0
 80156  1  0  0  0
 81157  1  0  0  0
 82158  1  0  0  0
M  ISO  4   1 100  68 101  80 101  82 100
M  END
> <chiral flag>
0

> <version>
0

> <s_m_source_file>
/data/baiqing/PycharmProjects/Reinvent-master-3.2/result/LINK_invent/BTK/process_docking_weight1_custom_product_contain_oxygen_bond_distance_aromatic_linkinvent_7_9_3/rearranged_h_0018.sdf

> <i_m_source_file_index>
59

> <r_mmod_Potential_Energy-OPLS-2005>
183.751403808594

> <r_mmod_Stretch_Energy-OPLS-2005>
93.1056976318359

> <r_mmod_Bend_Energy-OPLS-2005>
183.656295776367

> <r_mmod_Torsional_Energy-OPLS-2005>
248.351928710938

> <r_mmod_Improper_Torsional_Energy-OPLS-2005>
6.06484603881836

> <r_mmod_Van_der_Waal_Energy-OPLS-2005>
141.350952148438

> <r_mmod_Electrostatic_Energy-OPLS-2005>
-326.733581542969

> <r_mmod_Solvation_Energy-OPLS-2005>
-214.633514404297

> <b_mmod_Minimization_Converged-OPLS-2005>
0

> <r_mmod_RMS_Derivative-OPLS-2005>
0.632791996002197

$$$$
59
                    3D
 Structure written by MMmdl.
172181  0  0  1  0            999 V2000
  -30.7193  -14.4157   20.6329 C   0  0  0  0  0  0
  -30.4219  -12.3065   19.3943 C   0  0  0  0  0  0
  -29.4847  -12.5357   18.1899 C   0  0  0  0  0  0
  -28.0038  -12.3956   18.5994 C   0  0  0  0  0  0
  -27.6631  -13.1963   19.8814 C   0  0  2  0  0  0
  -28.7021  -12.8850   20.9752 C   0  0  0  0  0  0
  -25.2604  -13.8145   20.5678 C   0  0  0  0  0  0
  -24.1840  -13.0433   20.9125 C   0  0  0  0  0  0
  -24.6375  -11.6890   20.8696 C   0  0  0  0  0  0
  -23.9042  -10.4285   21.0395 C   0  0  0  0  0  0
  -24.3605   -9.4207   21.9173 C   0  0  0  0  0  0
  -23.6275   -8.2244   22.0759 C   0  0  0  0  0  0
  -22.4254   -8.0279   21.3563 C   0  0  0  0  0  0
  -21.9882   -9.0243   20.4660 C   0  0  0  0  0  0
  -22.7204  -10.2120   20.3059 C   0  0  0  0  0  0
  -21.6843   -6.0742   22.5301 C   0  0  0  0  0  0
  -21.3996   -6.5646   23.8231 C   0  0  0  0  0  0
  -21.3658   -5.6803   24.9199 C   0  0  0  0  0  0
  -21.6047   -4.3064   24.7241 C   0  0  0  0  0  0
  -21.8818   -3.8165   23.4359 C   0  0  0  0  0  0
  -21.9180   -4.6978   22.3417 C   0  0  0  0  0  0
  -22.7883  -13.5239   21.1807 C   0  0  0  0  0  0
  -22.1624   -4.2172   21.0990 F   0  0  0  0  0  0
  -21.5646   -3.4526   25.7739 F   0  0  0  0  0  0
  -30.0281  -13.2534   20.4517 N   0  0  0  0  0  0
  -26.3025  -12.9286   20.3383 N   0  0  0  0  0  0
  -25.9293  -11.6452   20.5742 N   0  0  0  0  0  0
  -22.0513  -12.8274   22.0389 N   0  0  0  0  0  0
  -25.4368  -15.1867   20.4173 N   0  0  0  0  0  0
  -31.8286  -14.5867   20.1136 O   0  0  0  0  0  0
  -21.6634   -6.8869   21.4255 O   0  0  0  0  0  0
  -22.3572  -14.5537   20.6647 O   0  0  0  0  0  0
  -24.6123  -31.8702   23.2119 C   0  0  0  0  0  0
  -25.9029  -32.4832   23.8402 C   0  0  1  0  0  0
  -27.2377  -27.4693   20.0619 C   0  0  0  0  0  0
  -25.5897  -33.8632   24.2334 N   0  0  0  0  0  0
  -23.3972  -30.4951   21.5536 C   0  0  2  0  0  0
  -24.8402  -28.9642   20.1160 C   0  0  0  0  0  0
  -22.7394  -29.4672   22.5009 C   0  0  0  0  0  0
  -18.0267  -28.1379   22.8493 C   0  0  0  0  0  0
  -24.1487  -36.7325   23.2635 C   0  0  0  0  0  0
  -25.9235  -30.8418   21.3614 C   0  0  0  0  0  0
  -25.9990  -29.4782   20.7094 C   0  0  0  0  0  0
  -27.1962  -28.7320   20.6909 C   0  0  0  0  0  0
  -26.0495  -26.9477   19.4988 C   0  0  0  0  0  0
  -24.8568  -27.6930   19.5177 C   0  0  0  0  0  0
  -23.6020  -29.8288   20.1677 C   0  0  0  0  0  0
  -25.4106  -36.3119   24.0336 C   0  0  1  0  0  0
  -20.5857  -28.3662   23.1330 C   0  0  2  0  0  0
  -20.6763  -26.9406   22.5417 C   0  0  0  0  0  0
  -19.5740  -26.6391   21.5213 C   0  0  0  0  0  0
  -18.1918  -26.7926   22.1624 C   0  0  0  0  0  0
  -19.1517  -28.8834   23.2909 C   0  0  0  0  0  0
  -18.9446  -30.1440   23.8918 C   0  0  0  0  0  0
  -17.6449  -30.6584   24.0569 C   0  0  0  0  0  0
  -25.9031  -34.9483   23.5130 C   0  0  0  0  0  0
  -16.5341  -29.9090   23.6323 C   0  0  0  0  0  0
  -16.7257  -28.6509   23.0342 C   0  0  0  0  0  0
  -26.4460  -31.6604   25.0719 C   0  0  0  0  0  0
  -25.3735  -31.3711   26.1476 C   0  0  0  0  0  0
  -27.0277  -30.3048   24.6073 C   0  0  0  0  0  0
  -27.6044  -32.4314   25.7477 C   0  0  0  0  0  0
  -27.5581  -37.1816   24.8460 C   0  0  0  0  0  0
  -21.4127  -29.3035   22.3745 N   0  0  0  0  0  0
  -26.4295  -37.3800   23.9402 N   0  0  0  0  0  0
  -24.6627  -31.0825   22.1009 N   0  0  0  0  0  0
  -23.4177  -28.8219   23.3046 O   0  0  0  0  0  0
  -28.4293  -26.7808   20.0554 O   0  0  0  0  0  0
  -26.5595  -34.8930   22.4691 O   0  0  0  0  0  0
  -23.5328  -32.1449   23.7535 O   0  0  0  0  0  0
  -28.6351  -18.6896   20.7808 C   0  0  0  0  0  0
  -28.6698  -17.2755   18.8063 C   0  0  0  0  0  0
  -27.6724  -19.5139   20.1725 C   0  0  0  0  0  0
  -27.7113  -18.1104   18.1932 C   0  0  0  0  0  0
  -29.1685  -17.5909   20.0861 C   0  0  0  0  0  0
  -27.2375  -19.2769   18.8456 C   0  0  0  0  0  0
  -27.5949  -22.3761   18.7417 C   0  0  0  0  0  0
  -25.5651  -21.4691   16.3296 C   0  0  0  0  0  0
  -25.2990  -22.2265   17.6313 C   0  0  0  0  0  0
  -26.0765  -20.0902   16.7679 C   0  0  0  0  0  0
  -26.2637  -21.5924   18.6403 C   0  0  1  0  0  0
  -29.4790  -15.4751   22.5092 C   0  0  0  0  0  0
  -30.3487  -16.8330   20.6703 C   0  0  0  0  0  0
  -29.6323  -24.8244   19.3210 C   0  0  0  0  0  0
  -28.9356  -23.8316   20.2734 C   0  0  0  0  0  0
  -28.7647  -26.0148   18.8975 C   0  0  0  0  0  0
  -26.3845  -20.2018   18.1917 N   0  0  0  0  0  0
  -27.6996  -23.2319   19.7658 N   0  0  0  0  0  0
  -30.0390  -15.4747   21.1493 N   0  0  0  0  0  0
  -28.5138  -22.1617   17.9484 O   0  0  0  0  0  0
  -31.4610  -12.4205   19.0809 H   0  0  0  0  0  0
  -30.3403  -11.2801   19.7551 H   0  0  0  0  0  0
  -29.7226  -11.8289   17.3945 H   0  0  0  0  0  0
  -29.6565  -13.5314   17.7766 H   0  0  0  0  0  0
  -27.8018  -11.3350   18.7600 H   0  0  0  0  0  0
  -27.3514  -12.7097   17.7841 H   0  0  0  0  0  0
  -27.7315  -14.2575   19.6395 H   0  0  0  0  0  0
  -28.6979  -11.8204   21.2102 H   0  0  0  0  0  0
  -28.4260  -13.3419   21.9156 H   0  0  0  0  0  0
  -25.2762   -9.5662   22.4742 H   0  0  0  0  0  0
  -23.9981   -7.4628   22.7481 H   0  0  0  0  0  0
  -21.0820   -8.8744   19.8966 H   0  0  0  0  0  0
  -22.3656  -10.9652   19.6162 H   0  0  0  0  0  0
  -21.1959   -7.6147   23.9738 H   0  0  0  0  0  0
  -21.1476   -6.0531   25.9104 H   0  0  0  0  0  0
  -22.0592   -2.7623   23.2875 H   0  0  0  0  0  0
  -22.4083  -11.9946   22.4835 H   0  0  0  0  0  0
  -21.1142  -13.1364   22.2541 H   0  0  0  0  0  0
  -24.6825  -15.8496   20.5588 H   0  0  0  0  0  0
  -26.3102  -15.6339   20.1674 H   0  0  0  0  0  0
  -26.7102  -32.5544   23.1171 H   0  0  0  0  0  0
  -25.0045  -33.9802   25.0478 H   0  0  0  0  0  0
  -22.6849  -31.3111   21.4176 H   0  0  0  0  0  0
  -23.3739  -35.9669   23.3312 H   0  0  0  0  0  0
  -24.3584  -36.8924   22.2047 H   0  0  0  0  0  0
  -23.7255  -37.6541   23.6640 H   0  0  0  0  0  0
  -26.0308  -31.6078   20.5923 H   0  0  0  0  0  0
  -26.8146  -30.8965   21.9747 H   0  0  0  0  0  0
  -28.0947  -29.1298   21.1415 H   0  0  0  0  0  0
  -26.0152  -25.9631   19.0579 H   0  0  0  0  0  0
  -23.9600  -27.2820   19.0755 H   0  0  0  0  0  0
  -23.7087  -30.6039   19.4081 H   0  0  0  0  0  0
  -22.7256  -29.2486   19.8725 H   0  0  0  0  0  0
  -25.1283  -36.1985   25.0830 H   0  0  0  0  0  0
  -20.9943  -28.3221   24.1452 H   0  0  0  0  0  0
  -20.5681  -26.2266   23.3597 H   0  0  0  0  0  0
  -21.6635  -26.7464   22.1200 H   0  0  0  0  0  0
  -19.6907  -25.6307   21.1228 H   0  0  0  0  0  0
  -19.6682  -27.3217   20.6755 H   0  0  0  0  0  0
  -17.4193  -26.6676   21.4023 H   0  0  0  0  0  0
  -18.0319  -26.0063   22.9014 H   0  0  0  0  0  0
  -19.7922  -30.7251   24.2301 H   0  0  0  0  0  0
  -17.5006  -31.6267   24.5167 H   0  0  0  0  0  0
  -15.5345  -30.3001   23.7635 H   0  0  0  0  0  0
  -15.8654  -28.0837   22.7045 H   0  0  0  0  0  0
  -24.5898  -30.7065   25.7815 H   0  0  0  0  0  0
  -24.8937  -32.2873   26.4934 H   0  0  0  0  0  0
  -25.8095  -30.8870   27.0227 H   0  0  0  0  0  0
  -26.2808  -29.6825   24.1125 H   0  0  0  0  0  0
  -27.4054  -29.7261   25.4512 H   0  0  0  0  0  0
  -27.8641  -30.4365   23.9203 H   0  0  0  0  0  0
  -27.2665  -33.3597   26.2099 H   0  0  0  0  0  0
  -28.3833  -32.6908   25.0292 H   0  0  0  0  0  0
  -28.0739  -31.8413   26.5360 H   0  0  0  0  0  0
  -28.2608  -38.0103   24.7502 H   0  0  0  0  0  0
  -28.1071  -36.2641   24.6294 H   0  0  0  0  0  0
  -27.2303  -37.1469   25.8865 H   0  0  0  0  0  0
  -20.9284  -29.8750   21.6963 H   0  0  0  0  0  0
  -26.0186  -38.2880   24.1399 H   0  0  0  0  0  0
  -28.9994  -18.9401   21.7672 H   0  0  0  0  0  0
  -29.0601  -16.4257   18.2638 H   0  0  0  0  0  0
  -27.3222  -20.3662   20.7356 H   0  0  0  0  0  0
  -27.3913  -17.8554   17.1935 H   0  0  0  0  0  0
  -26.3430  -21.9815   15.7624 H   0  0  0  0  0  0
  -24.6829  -21.4060   15.6920 H   0  0  0  0  0  0
  -24.2712  -22.0544   17.9533 H   0  0  0  0  0  0
  -25.4302  -23.3041   17.5233 H   0  0  0  0  0  0
  -26.9508  -19.8135   16.1767 H   0  0  0  0  0  0
  -25.3130  -19.3252   16.6144 H   0  0  0  0  0  0
  -25.7808  -21.6016   19.6192 H   0  0  0  0  0  0
  -29.8268  -14.6223   23.0955 H   0  0  0  0  0  0
  -28.3891  -15.4508   22.4631 H   0  0  0  0  0  0
  -29.7467  -16.3645   23.0817 H   0  0  0  0  0  0
  -30.7999  -17.4155   21.4737 H   0  0  0  0  0  0
  -31.1083  -16.8395   19.8881 H   0  0  0  0  0  0
  -29.9782  -24.3007   18.4301 H   0  0  0  0  0  0
  -30.5361  -25.1984   19.8050 H   0  0  0  0  0  0
  -28.6966  -24.3397   21.2083 H   0  0  0  0  0  0
  -29.6296  -23.0326   20.5383 H   0  0  0  0  0  0
  -27.9229  -25.6509   18.3122 H   0  0  0  0  0  0
  -29.3371  -26.6552   18.2254 H   0  0  0  0  0  0
  -26.8726  -23.3592   20.3346 H   0  0  0  0  0  0
  1 25  1  0  0  0
  1 30  2  0  0  0
  1 89  1  0  0  0
  2  3  1  0  0  0
  2 25  1  0  0  0
  2 91  1  0  0  0
  2 92  1  0  0  0
  3  4  1  0  0  0
  3 93  1  0  0  0
  3 94  1  0  0  0
  4  5  1  0  0  0
  4 95  1  0  0  0
  4 96  1  0  0  0
  5  6  1  0  0  0
  5 26  1  0  0  0
  5 97  1  0  0  0
  6 25  1  0  0  0
  6 98  1  0  0  0
  6 99  1  0  0  0
  7  8  2  0  0  0
  7 26  1  0  0  0
  7 29  1  0  0  0
  8  9  1  0  0  0
  8 22  1  0  0  0
  9 10  1  0  0  0
  9 27  2  0  0  0
 10 11  2  0  0  0
 10 15  1  0  0  0
 11 12  1  0  0  0
 11100  1  0  0  0
 12 13  2  0  0  0
 12101  1  0  0  0
 13 14  1  0  0  0
 13 31  1  0  0  0
 14 15  2  0  0  0
 14102  1  0  0  0
 15103  1  0  0  0
 16 17  2  0  0  0
 16 21  1  0  0  0
 16 31  1  0  0  0
 17 18  1  0  0  0
 17104  1  0  0  0
 18 19  2  0  0  0
 18105  1  0  0  0
 19 20  1  0  0  0
 19 24  1  0  0  0
 20 21  2  0  0  0
 20106  1  0  0  0
 21 23  1  0  0  0
 22 28  1  0  0  0
 22 32  2  0  0  0
 26 27  1  0  0  0
 28107  1  0  0  0
 28108  1  0  0  0
 29109  1  0  0  0
 29110  1  0  0  0
 33 34  1  0  0  0
 33 66  1  0  0  0
 33 70  2  0  0  0
 34 36  1  0  0  0
 34 59  1  0  0  0
 34111  1  0  0  0
 35 44  2  0  0  0
 35 45  1  0  0  0
 35 68  1  0  0  0
 36 56  1  0  0  0
 36112  1  0  0  0
 37 39  1  0  0  0
 37 47  1  0  0  0
 37 66  1  0  0  0
 37113  1  0  0  0
 38 43  2  0  0  0
 38 46  1  0  0  0
 38 47  1  0  0  0
 39 64  1  0  0  0
 39 67  2  0  0  0
 40 52  1  0  0  0
 40 53  2  0  0  0
 40 58  1  0  0  0
 41114  1  0  0  0
 41115  1  0  0  0
 41116  1  0  0  0
 41 48  1  0  0  0
 42 43  1  0  0  0
 42 66  1  0  0  0
 42117  1  0  0  0
 42118  1  0  0  0
 43 44  1  0  0  0
 44119  1  0  0  0
 45 46  2  0  0  0
 45120  1  0  0  0
 46121  1  0  0  0
 47122  1  0  0  0
 47123  1  0  0  0
 48 56  1  0  0  0
 48 65  1  0  0  0
 48124  1  0  0  0
 49 50  1  0  0  0
 49 53  1  0  0  0
 49 64  1  0  0  0
 49125  1  0  0  0
 50 51  1  0  0  0
 50126  1  0  0  0
 50127  1  0  0  0
 51 52  1  0  0  0
 51128  1  0  0  0
 51129  1  0  0  0
 52130  1  0  0  0
 52131  1  0  0  0
 53 54  1  0  0  0
 54 55  2  0  0  0
 54132  1  0  0  0
 55 57  1  0  0  0
 55133  1  0  0  0
 56 69  2  0  0  0
 57 58  2  0  0  0
 57134  1  0  0  0
 58135  1  0  0  0
 59 60  1  0  0  0
 59 61  1  0  0  0
 59 62  1  0  0  0
 60136  1  0  0  0
 60137  1  0  0  0
 60138  1  0  0  0
 61139  1  0  0  0
 61140  1  0  0  0
 61141  1  0  0  0
 62142  1  0  0  0
 62143  1  0  0  0
 62144  1  0  0  0
 63 65  1  0  0  0
 63145  1  0  0  0
 63146  1  0  0  0
 63147  1  0  0  0
 64148  1  0  0  0
 65149  1  0  0  0
 68 86  1  0  0  0
 71 73  2  0  0  0
 71 75  1  0  0  0
 71150  1  0  0  0
 72 74  1  0  0  0
 72 75  2  0  0  0
 72151  1  0  0  0
 73 76  1  0  0  0
 73152  1  0  0  0
 74 76  2  0  0  0
 74153  1  0  0  0
 75 83  1  0  0  0
 76 87  1  0  0  0
 77 88  1  0  0  0
 77 90  2  0  0  0
 77 81  1  0  0  0
 78 79  1  0  0  0
 78 80  1  0  0  0
 78154  1  0  0  0
 78155  1  0  0  0
 79 81  1  0  0  0
 79156  1  0  0  0
 79157  1  0  0  0
 80 87  1  0  0  0
 80158  1  0  0  0
 80159  1  0  0  0
 81 87  1  0  0  0
 81160  1  0  0  0
 82 89  1  0  0  0
 82161  1  0  0  0
 82162  1  0  0  0
 82163  1  0  0  0
 83 89  1  0  0  0
 83164  1  0  0  0
 83165  1  0  0  0
 84 85  1  0  0  0
 84 86  1  0  0  0
 84166  1  0  0  0
 84167  1  0  0  0
 85 88  1  0  0  0
 85168  1  0  0  0
 85169  1  0  0  0
 86170  1  0  0  0
 86171  1  0  0  0
 88172  1  0  0  0
M  ISO  4   1 100  68 101  86 101  89 100
M  END
> <chiral flag>
0

> <version>
0

> <s_m_source_file>
/data/baiqing/PycharmProjects/Reinvent-master-3.2/result/LINK_invent/BTK/process_docking_weight1_custom_product_contain_oxygen_bond_distance_aromatic_linkinvent_7_9_3/rearranged_h_0018.sdf

> <i_m_source_file_index>
60

> <r_mmod_Potential_Energy-OPLS-2005>
105.637115478516

> <r_mmod_Stretch_Energy-OPLS-2005>
37.6553916931152

> <r_mmod_Bend_Energy-OPLS-2005>
147.23095703125

> <r_mmod_Torsional_Energy-OPLS-2005>
323.832183837891

> <r_mmod_Improper_Torsional_Energy-OPLS-2005>
11.4769420623779

> <r_mmod_Van_der_Waal_Energy-OPLS-2005>
163.559036254883

> <r_mmod_Electrostatic_Energy-OPLS-2005>
-354.879486083984

> <r_mmod_Solvation_Energy-OPLS-2005>
-233.333847045898

> <b_mmod_Minimization_Converged-OPLS-2005>
0

> <r_mmod_RMS_Derivative-OPLS-2005>
2.73197245597839

$$$$
60
                    3D
 Structure written by MMmdl.
165173  0  0  1  0            999 V2000
  -30.7126  -14.4972   20.4082 C   0  0  0  0  0  0
  -30.4241  -12.2830   19.4357 C   0  0  0  0  0  0
  -29.4961  -12.4177   18.2076 C   0  0  0  0  0  0
  -28.0174  -12.3007   18.6269 C   0  0  0  0  0  0
  -27.6541  -13.1975   19.8408 C   0  0  2  0  0  0
  -28.7005  -13.0938   20.9738 C   0  0  0  0  0  0
  -25.2646  -13.8130   20.5671 C   0  0  0  0  0  0
  -24.1888  -13.0431   20.9233 C   0  0  0  0  0  0
  -24.6397  -11.6894   20.8715 C   0  0  0  0  0  0
  -23.9061  -10.4285   21.0378 C   0  0  0  0  0  0
  -24.3639   -9.4218   21.9167 C   0  0  0  0  0  0
  -23.6321   -8.2239   22.0745 C   0  0  0  0  0  0
  -22.4296   -8.0271   21.3549 C   0  0  0  0  0  0
  -21.9938   -9.0257   20.4639 C   0  0  0  0  0  0
  -22.7234  -10.2141   20.3032 C   0  0  0  0  0  0
  -21.6877   -6.0732   22.5253 C   0  0  0  0  0  0
  -21.4022   -6.5626   23.8180 C   0  0  0  0  0  0
  -21.3664   -5.6765   24.9156 C   0  0  0  0  0  0
  -21.6069   -4.3033   24.7199 C   0  0  0  0  0  0
  -21.8824   -3.8141   23.4318 C   0  0  0  0  0  0
  -21.9225   -4.6977   22.3374 C   0  0  0  0  0  0
  -22.7901  -13.5229   21.1866 C   0  0  0  0  0  0
  -22.1681   -4.2163   21.0956 F   0  0  0  0  0  0
  -21.5668   -3.4487   25.7702 F   0  0  0  0  0  0
  -30.0258  -13.3270   20.3859 N   0  0  0  0  0  0
  -26.3027  -12.9275   20.3248 N   0  0  0  0  0  0
  -25.9316  -11.6464   20.5752 N   0  0  0  0  0  0
  -22.0552  -12.8176   22.0405 N   0  0  0  0  0  0
  -25.4400  -15.1822   20.4088 N   0  0  0  0  0  0
  -31.9437  -14.5342   20.3516 O   0  0  0  0  0  0
  -21.6662   -6.8876   21.4209 O   0  0  0  0  0  0
  -22.3571  -14.5510   20.6683 O   0  0  0  0  0  0
  -24.6081  -31.8712   23.2118 C   0  0  0  0  0  0
  -25.9009  -32.4824   23.8393 C   0  0  1  0  0  0
  -27.2457  -27.4898   20.0891 C   0  0  0  0  0  0
  -25.5875  -33.8621   24.2342 N   0  0  0  0  0  0
  -23.3962  -30.4932   21.5520 C   0  0  2  0  0  0
  -24.8443  -28.9553   20.1241 C   0  0  0  0  0  0
  -22.7387  -29.4675   22.5007 C   0  0  0  0  0  0
  -18.0269  -28.1379   22.8495 C   0  0  0  0  0  0
  -24.1491  -36.7315   23.2642 C   0  0  0  0  0  0
  -25.9184  -30.8472   21.3623 C   0  0  0  0  0  0
  -25.9957  -29.4814   20.7225 C   0  0  0  0  0  0
  -27.2007  -28.7526   20.7070 C   0  0  0  0  0  0
  -26.0823  -26.9524   19.5027 C   0  0  0  0  0  0
  -24.8757  -27.6825   19.5214 C   0  0  0  0  0  0
  -23.6035  -29.8180   20.1686 C   0  0  0  0  0  0
  -25.4117  -36.3117   24.0338 C   0  0  1  0  0  0
  -20.5852  -28.3659   23.1324 C   0  0  2  0  0  0
  -20.6769  -26.9403   22.5416 C   0  0  0  0  0  0
  -19.5743  -26.6402   21.5210 C   0  0  0  0  0  0
  -18.1918  -26.7932   22.1628 C   0  0  0  0  0  0
  -19.1516  -28.8840   23.2906 C   0  0  0  0  0  0
  -18.9453  -30.1449   23.8909 C   0  0  0  0  0  0
  -17.6461  -30.6579   24.0574 C   0  0  0  0  0  0
  -25.9026  -34.9482   23.5142 C   0  0  0  0  0  0
  -16.5349  -29.9088   23.6329 C   0  0  0  0  0  0
  -16.7266  -28.6508   23.0338 C   0  0  0  0  0  0
  -26.4466  -31.6581   25.0699 C   0  0  0  0  0  0
  -25.3753  -31.3633   26.1461 C   0  0  0  0  0  0
  -27.0317  -30.3054   24.6037 C   0  0  0  0  0  0
  -27.6076  -32.4286   25.7430 C   0  0  0  0  0  0
  -27.5588  -37.1808   24.8469 C   0  0  0  0  0  0
  -21.4131  -29.3021   22.3737 N   0  0  0  0  0  0
  -26.4307  -37.3806   23.9406 N   0  0  0  0  0  0
  -24.6587  -31.0850   22.1002 N   0  0  0  0  0  0
  -23.4181  -28.8245   23.3051 O   0  0  0  0  0  0
  -28.4386  -26.8278   19.9976 O   0  0  0  0  0  0
  -26.5613  -34.8938   22.4724 O   0  0  0  0  0  0
  -23.5293  -32.1443   23.7551 O   0  0  0  0  0  0
  -29.1690  -18.4083   18.7372 C   0  0  0  0  0  0
  -29.5611  -19.6953   18.3389 C   0  0  0  0  0  0
  -30.0430  -18.8307   20.9703 C   0  0  0  0  0  0
  -29.4723  -17.9371   20.0360 C   0  0  0  0  0  0
  -30.1536  -20.5781   19.2611 C   0  0  0  0  0  0
  -30.3677  -20.1498   20.5905 C   0  0  0  0  0  0
  -30.5814  -15.8123   18.3941 C   0  0  0  0  0  0
  -28.6873  -22.8959   17.4321 C   0  0  0  0  0  0
  -29.1979  -16.4758   20.4080 C   0  0  0  0  0  0
  -30.5414  -21.9796   18.8208 C   0  0  0  0  0  0
  -28.5602  -24.4859   20.4606 C   0  0  0  0  0  0
  -29.5534  -24.2192   19.3186 C   0  0  0  0  0  0
  -28.6926  -25.8964   21.0354 C   0  0  0  0  0  0
  -30.0586  -15.4739   19.7345 N   0  0  0  0  0  0
  -29.3463  -22.8599   18.7632 N   0  3  1  0  0  0
  -30.9135  -20.9952   21.4980 F   0  0  0  0  0  0
  -30.3225  -11.2988   19.8975 H   0  0  0  0  0  0
  -31.4738  -12.3652   19.1452 H   0  0  0  0  0  0
  -29.7263  -11.6457   17.4718 H   0  0  0  0  0  0
  -29.6638  -13.3692   17.7021 H   0  0  0  0  0  0
  -27.8266  -11.2551   18.8712 H   0  0  0  0  0  0
  -27.3658  -12.5246   17.7833 H   0  0  0  0  0  0
  -27.6678  -14.2143   19.4552 H   0  0  0  0  0  0
  -28.4846  -13.8193   21.7624 H   0  0  0  0  0  0
  -28.6703  -12.1119   21.4481 H   0  0  0  0  0  0
  -25.2814   -9.5682   22.4715 H   0  0  0  0  0  0
  -24.0061   -7.4625   22.7428 H   0  0  0  0  0  0
  -21.0898   -8.8758   19.8912 H   0  0  0  0  0  0
  -22.3718  -10.9695   19.6118 H   0  0  0  0  0  0
  -21.1951   -7.6121   23.9666 H   0  0  0  0  0  0
  -21.1504   -6.0503   25.9055 H   0  0  0  0  0  0
  -22.0605   -2.7610   23.2784 H   0  0  0  0  0  0
  -22.4223  -11.9867   22.4809 H   0  0  0  0  0  0
  -21.1165  -13.1146   22.2596 H   0  0  0  0  0  0
  -24.6716  -15.8333   20.5211 H   0  0  0  0  0  0
  -26.2852  -15.6194   20.0671 H   0  0  0  0  0  0
  -26.7086  -32.5580   23.1158 H   0  0  0  0  0  0
  -24.9988  -33.9804   25.0454 H   0  0  0  0  0  0
  -22.6816  -31.3066   21.4114 H   0  0  0  0  0  0
  -23.3748  -35.9647   23.3304 H   0  0  0  0  0  0
  -24.3581  -36.8944   22.2059 H   0  0  0  0  0  0
  -23.7252  -37.6529   23.6648 H   0  0  0  0  0  0
  -26.0260  -31.6070   20.5864 H   0  0  0  0  0  0
  -26.8114  -30.9068   21.9741 H   0  0  0  0  0  0
  -28.1025  -29.1606   21.1439 H   0  0  0  0  0  0
  -26.1142  -25.9865   19.0172 H   0  0  0  0  0  0
  -23.9892  -27.2683   19.0602 H   0  0  0  0  0  0
  -23.7123  -30.5909   19.4062 H   0  0  0  0  0  0
  -22.7289  -29.2341   19.8754 H   0  0  0  0  0  0
  -25.1283  -36.1986   25.0826 H   0  0  0  0  0  0
  -20.9950  -28.3230   24.1440 H   0  0  0  0  0  0
  -20.5691  -26.2266   23.3601 H   0  0  0  0  0  0
  -21.6637  -26.7464   22.1193 H   0  0  0  0  0  0
  -19.6909  -25.6323   21.1208 H   0  0  0  0  0  0
  -19.6672  -27.3242   20.6765 H   0  0  0  0  0  0
  -17.4199  -26.6687   21.4021 H   0  0  0  0  0  0
  -18.0310  -26.0043   22.9001 H   0  0  0  0  0  0
  -19.7925  -30.7260   24.2271 H   0  0  0  0  0  0
  -17.5013  -31.6252   24.5181 H   0  0  0  0  0  0
  -15.5346  -30.3008   23.7628 H   0  0  0  0  0  0
  -15.8668  -28.0851   22.7028 H   0  0  0  0  0  0
  -24.5925  -30.6995   25.7767 H   0  0  0  0  0  0
  -24.8929  -32.2763   26.4970 H   0  0  0  0  0  0
  -25.8131  -30.8745   27.0177 H   0  0  0  0  0  0
  -26.2841  -29.6760   24.1215 H   0  0  0  0  0  0
  -27.4268  -29.7343   25.4443 H   0  0  0  0  0  0
  -27.8569  -30.4405   23.9046 H   0  0  0  0  0  0
  -27.2733  -33.3584   26.2047 H   0  0  0  0  0  0
  -28.3836  -32.6871   25.0200 H   0  0  0  0  0  0
  -28.0791  -31.8378   26.5297 H   0  0  0  0  0  0
  -28.2616  -38.0102   24.7536 H   0  0  0  0  0  0
  -28.1084  -36.2645   24.6257 H   0  0  0  0  0  0
  -27.2301  -37.1404   25.8875 H   0  0  0  0  0  0
  -20.9303  -29.8681   21.6903 H   0  0  0  0  0  0
  -26.0190  -38.2883   24.1430 H   0  0  0  0  0  0
  -28.6906  -17.7675   18.0091 H   0  0  0  0  0  0
  -29.4078  -19.9928   17.3119 H   0  0  0  0  0  0
  -30.2450  -18.5115   21.9826 H   0  0  0  0  0  0
  -29.7631  -15.8931   17.6773 H   0  0  0  0  0  0
  -31.2595  -15.0544   17.9996 H   0  0  0  0  0  0
  -31.1619  -16.7350   18.3984 H   0  0  0  0  0  0
  -28.3465  -21.9132   17.1107 H   0  0  0  0  0  0
  -29.3606  -23.2898   16.6707 H   0  0  0  0  0  0
  -27.8056  -23.5373   17.4587 H   0  0  0  0  0  0
  -29.2595  -16.3657   21.4933 H   0  0  0  0  0  0
  -28.1574  -16.2820   20.1544 H   0  0  0  0  0  0
  -31.0522  -21.9524   17.8560 H   0  0  0  0  0  0
  -31.2779  -22.3499   19.5337 H   0  0  0  0  0  0
  -28.7247  -23.7652   21.2628 H   0  0  0  0  0  0
  -27.5401  -24.3346   20.1076 H   0  0  0  0  0  0
  -30.5697  -24.3639   19.6839 H   0  0  0  0  0  0
  -29.4284  -24.9700   18.5353 H   0  0  0  0  0  0
  -29.7062  -26.0576   21.4047 H   0  0  0  0  0  0
  -28.0220  -26.0225   21.8878 H   0  0  0  0  0  0
  -28.6864  -22.4231   19.3882 H   0  0  0  0  0  0
  1 25  1  0  0  0
  1 30  2  0  0  0
  1 84  1  0  0  0
  2  3  1  0  0  0
  2 25  1  0  0  0
  2 87  1  0  0  0
  2 88  1  0  0  0
  3  4  1  0  0  0
  3 89  1  0  0  0
  3 90  1  0  0  0
  4  5  1  0  0  0
  4 91  1  0  0  0
  4 92  1  0  0  0
  5  6  1  0  0  0
  5 26  1  0  0  0
  5 93  1  0  0  0
  6 25  1  0  0  0
  6 94  1  0  0  0
  6 95  1  0  0  0
  7  8  2  0  0  0
  7 26  1  0  0  0
  7 29  1  0  0  0
  8  9  1  0  0  0
  8 22  1  0  0  0
  9 10  1  0  0  0
  9 27  2  0  0  0
 10 11  2  0  0  0
 10 15  1  0  0  0
 11 12  1  0  0  0
 11 96  1  0  0  0
 12 13  2  0  0  0
 12 97  1  0  0  0
 13 14  1  0  0  0
 13 31  1  0  0  0
 14 15  2  0  0  0
 14 98  1  0  0  0
 15 99  1  0  0  0
 16 17  2  0  0  0
 16 21  1  0  0  0
 16 31  1  0  0  0
 17 18  1  0  0  0
 17100  1  0  0  0
 18 19  2  0  0  0
 18101  1  0  0  0
 19 20  1  0  0  0
 19 24  1  0  0  0
 20 21  2  0  0  0
 20102  1  0  0  0
 21 23  1  0  0  0
 22 28  1  0  0  0
 22 32  2  0  0  0
 26 27  1  0  0  0
 28103  1  0  0  0
 28104  1  0  0  0
 29105  1  0  0  0
 29106  1  0  0  0
 33 34  1  0  0  0
 33 66  1  0  0  0
 33 70  2  0  0  0
 34 36  1  0  0  0
 34 59  1  0  0  0
 34107  1  0  0  0
 35 44  2  0  0  0
 35 45  1  0  0  0
 35 68  1  0  0  0
 36 56  1  0  0  0
 36108  1  0  0  0
 37 39  1  0  0  0
 37 47  1  0  0  0
 37 66  1  0  0  0
 37109  1  0  0  0
 38 43  2  0  0  0
 38 46  1  0  0  0
 38 47  1  0  0  0
 39 64  1  0  0  0
 39 67  2  0  0  0
 40 52  1  0  0  0
 40 53  2  0  0  0
 40 58  1  0  0  0
 41110  1  0  0  0
 41111  1  0  0  0
 41112  1  0  0  0
 41 48  1  0  0  0
 42 43  1  0  0  0
 42 66  1  0  0  0
 42113  1  0  0  0
 42114  1  0  0  0
 43 44  1  0  0  0
 44115  1  0  0  0
 45 46  2  0  0  0
 45116  1  0  0  0
 46117  1  0  0  0
 47118  1  0  0  0
 47119  1  0  0  0
 48 56  1  0  0  0
 48 65  1  0  0  0
 48120  1  0  0  0
 49 50  1  0  0  0
 49 53  1  0  0  0
 49 64  1  0  0  0
 49121  1  0  0  0
 50 51  1  0  0  0
 50122  1  0  0  0
 50123  1  0  0  0
 51 52  1  0  0  0
 51124  1  0  0  0
 51125  1  0  0  0
 52126  1  0  0  0
 52127  1  0  0  0
 53 54  1  0  0  0
 54 55  2  0  0  0
 54128  1  0  0  0
 55 57  1  0  0  0
 55129  1  0  0  0
 56 69  2  0  0  0
 57 58  2  0  0  0
 57130  1  0  0  0
 58131  1  0  0  0
 59 60  1  0  0  0
 59 61  1  0  0  0
 59 62  1  0  0  0
 60132  1  0  0  0
 60133  1  0  0  0
 60134  1  0  0  0
 61135  1  0  0  0
 61136  1  0  0  0
 61137  1  0  0  0
 62138  1  0  0  0
 62139  1  0  0  0
 62140  1  0  0  0
 63 65  1  0  0  0
 63141  1  0  0  0
 63142  1  0  0  0
 63143  1  0  0  0
 64144  1  0  0  0
 65145  1  0  0  0
 68 83  1  0  0  0
 71 72  2  0  0  0
 71 74  1  0  0  0
 71146  1  0  0  0
 72 75  1  0  0  0
 72147  1  0  0  0
 73 74  2  0  0  0
 73 76  1  0  0  0
 73148  1  0  0  0
 74 79  1  0  0  0
 75 76  2  0  0  0
 75 80  1  0  0  0
 76 86  1  0  0  0
 77 84  1  0  0  0
 77149  1  0  0  0
 77150  1  0  0  0
 77151  1  0  0  0
 78152  1  0  0  0
 78153  1  0  0  0
 78154  1  0  0  0
 78 85  1  0  0  0
 79 84  1  0  0  0
 79155  1  0  0  0
 79156  1  0  0  0
 80 85  1  0  0  0
 80157  1  0  0  0
 80158  1  0  0  0
 81 82  1  0  0  0
 81 83  1  0  0  0
 81159  1  0  0  0
 81160  1  0  0  0
 82 85  1  0  0  0
 82161  1  0  0  0
 82162  1  0  0  0
 83163  1  0  0  0
 83164  1  0  0  0
 85165  1  0  0  0
M  CHG  1  85   1
M  ISO  4   1 100  68 101  83 101  84 100
M  END
> <chiral flag>
0

> <version>
0

> <s_m_source_file>
/data/baiqing/PycharmProjects/Reinvent-master-3.2/result/LINK_invent/BTK/process_docking_weight1_custom_product_contain_oxygen_bond_distance_aromatic_linkinvent_7_9_3/rearranged_h_0018.sdf

> <i_m_source_file_index>
61

> <r_mmod_Potential_Energy-OPLS-2005>
19.3048477172852

> <r_mmod_Stretch_Energy-OPLS-2005>
34.0043716430664

> <r_mmod_Bend_Energy-OPLS-2005>
93.1738433837891

> <r_mmod_Torsional_Energy-OPLS-2005>
328.671234130859

> <r_mmod_Improper_Torsional_Energy-OPLS-2005>
30.9154891967773

> <r_mmod_Van_der_Waal_Energy-OPLS-2005>
160.376327514648

> <r_mmod_Electrostatic_Energy-OPLS-2005>
-242.605209350586

> <r_mmod_Solvation_Energy-OPLS-2005>
-420.481781005859

> <b_mmod_Minimization_Converged-OPLS-2005>
0

> <r_mmod_RMS_Derivative-OPLS-2005>
4.50510787963867

$$$$
61
                    3D
 Structure written by MMmdl.
160169  0  0  1  0            999 V2000
  -30.5237  -14.7701   20.3988 C   0  0  0  0  0  0
  -30.4427  -12.4531   19.4616 C   0  0  0  0  0  0
  -29.5144  -12.4660   18.2273 C   0  0  0  0  0  0
  -28.0334  -12.3038   18.6378 C   0  0  0  0  0  0
  -27.6314  -13.2120   19.8320 C   0  0  2  0  0  0
  -28.6774  -13.1513   20.9606 C   0  0  0  0  0  0
  -25.2528  -13.8160   20.5675 C   0  0  0  0  0  0
  -24.1766  -13.0434   20.9159 C   0  0  0  0  0  0
  -24.6326  -11.6898   20.8698 C   0  0  0  0  0  0
  -23.9015  -10.4284   21.0368 C   0  0  0  0  0  0
  -24.3589   -9.4211   21.9141 C   0  0  0  0  0  0
  -23.6275   -8.2244   22.0746 C   0  0  0  0  0  0
  -22.4253   -8.0250   21.3539 C   0  0  0  0  0  0
  -21.9869   -9.0212   20.4651 C   0  0  0  0  0  0
  -22.7188  -10.2103   20.3042 C   0  0  0  0  0  0
  -21.6867   -6.0715   22.5262 C   0  0  0  0  0  0
  -21.4013   -6.5632   23.8192 C   0  0  0  0  0  0
  -21.3661   -5.6791   24.9156 C   0  0  0  0  0  0
  -21.6044   -4.3046   24.7204 C   0  0  0  0  0  0
  -21.8833   -3.8129   23.4328 C   0  0  0  0  0  0
  -21.9194   -4.6946   22.3384 C   0  0  0  0  0  0
  -22.7805  -13.5248   21.1799 C   0  0  0  0  0  0
  -22.1674   -4.2140   21.0971 F   0  0  0  0  0  0
  -21.5623   -3.4530   25.7715 F   0  0  0  0  0  0
  -29.9637  -13.5196   20.3595 N   0  0  0  0  0  0
  -26.2885  -12.9303   20.3182 N   0  0  0  0  0  0
  -25.9249  -11.6477   20.5672 N   0  0  0  0  0  0
  -22.0487  -12.8256   22.0385 N   0  0  0  0  0  0
  -25.4251  -15.1891   20.4219 N   0  0  0  0  0  0
  -31.7447  -14.9104   20.2658 O   0  0  0  0  0  0
  -21.6640   -6.8830   21.4214 O   0  0  0  0  0  0
  -22.3502  -14.5543   20.6623 O   0  0  0  0  0  0
  -24.6386  -31.8580   23.1898 C   0  0  0  0  0  0
  -25.9251  -32.4734   23.8236 C   0  0  1  0  0  0
  -27.2152  -27.2680   20.1074 C   0  0  0  0  0  0
  -25.6048  -33.8495   24.2250 N   0  0  0  0  0  0
  -23.4285  -30.4821   21.5345 C   0  0  2  0  0  0
  -24.8672  -28.9246   20.1069 C   0  0  0  0  0  0
  -22.7540  -29.4628   22.4865 C   0  0  0  0  0  0
  -18.0335  -28.1404   22.8520 C   0  0  0  0  0  0
  -24.1502  -36.7234   23.2619 C   0  0  0  0  0  0
  -25.9732  -30.7778   21.3554 C   0  0  0  0  0  0
  -26.0405  -29.3963   20.7036 C   0  0  0  0  0  0
  -27.2156  -28.5831   20.6877 C   0  0  0  0  0  0
  -26.0060  -26.8497   19.5145 C   0  0  0  0  0  0
  -24.8503  -27.6582   19.5045 C   0  0  0  0  0  0
  -23.6430  -29.8149   20.1504 C   0  0  0  0  0  0
  -25.4100  -36.3015   24.0355 C   0  0  1  0  0  0
  -20.5930  -28.3711   23.1277 C   0  0  2  0  0  0
  -20.6787  -26.9430   22.5399 C   0  0  0  0  0  0
  -19.5732  -26.6424   21.5222 C   0  0  0  0  0  0
  -18.1929  -26.7944   22.1652 C   0  0  0  0  0  0
  -19.1584  -28.8875   23.2889 C   0  0  0  0  0  0
  -18.9497  -30.1454   23.8944 C   0  0  0  0  0  0
  -17.6497  -30.6597   24.0579 C   0  0  0  0  0  0
  -25.9089  -34.9417   23.5104 C   0  0  0  0  0  0
  -16.5388  -29.9116   23.6320 C   0  0  0  0  0  0
  -16.7308  -28.6509   23.0368 C   0  0  0  0  0  0
  -26.4592  -31.6497   25.0618 C   0  0  0  0  0  0
  -25.3847  -31.3692   26.1379 C   0  0  0  0  0  0
  -27.0369  -30.2896   24.6019 C   0  0  0  0  0  0
  -27.6130  -32.4190   25.7455 C   0  0  0  0  0  0
  -27.5577  -37.1732   24.8478 C   0  0  0  0  0  0
  -21.4239  -29.3068   22.3658 N   0  0  0  0  0  0
  -26.4248  -37.3741   23.9490 N   0  0  0  0  0  0
  -24.7007  -31.0558   22.0863 N   0  0  0  0  0  0
  -23.4262  -28.8182   23.2949 O   0  0  0  0  0  0
  -28.3433  -26.4158   20.1590 O   0  0  0  0  0  0
  -26.5550  -34.8928   22.4627 O   0  0  0  0  0  0
  -23.5548  -32.1364   23.7248 O   0  0  0  0  0  0
  -28.8795  -17.1545   22.0372 C   0  0  0  0  0  0
  -28.4909  -18.3510   22.6717 C   0  0  0  0  0  0
  -29.4857  -18.4603   20.0745 C   0  0  0  0  0  0
  -29.0893  -19.7198   20.7139 C   0  0  0  0  0  0
  -29.4211  -17.1541   20.7329 C   0  0  0  0  0  0
  -28.6130  -19.6044   22.0371 C   0  0  0  0  0  0
  -25.9734  -22.9857   20.4348 C   0  0  0  0  0  0
  -26.9288  -23.7933   21.3151 C   0  0  0  0  0  0
  -26.8365  -21.7862   20.0357 C   0  0  0  0  0  0
  -28.2716  -23.7004   20.5648 C   0  0  2  0  0  0
  -29.3290  -21.2092   20.1466 C   0  0  0  0  0  0
  -28.3837  -25.0129   19.6066 C   0  0  0  0  0  0
  -29.6521  -15.8215   20.1237 N   0  0  0  0  0  0
  -28.2306  -22.2883   19.9084 N   0  3  1  0  0  0
  -28.2719  -20.7193   22.7277 F   0  0  0  0  0  0
  -31.4835  -12.6054   19.1720 H   0  0  0  0  0  0
  -30.4049  -11.4885   19.9714 H   0  0  0  0  0  0
  -29.7985  -11.6667   17.5434 H   0  0  0  0  0  0
  -29.6389  -13.3967   17.6735 H   0  0  0  0  0  0
  -27.8817  -11.2544   18.8995 H   0  0  0  0  0  0
  -27.3852  -12.4996   17.7841 H   0  0  0  0  0  0
  -27.6135  -14.2269   19.4391 H   0  0  0  0  0  0
  -28.7232  -12.1510   21.3937 H   0  0  0  0  0  0
  -28.4184  -13.8296   21.7762 H   0  0  0  0  0  0
  -25.2743   -9.5727   22.4689 H   0  0  0  0  0  0
  -23.9996   -7.4663   22.7516 H   0  0  0  0  0  0
  -21.0779   -8.8726   19.8983 H   0  0  0  0  0  0
  -22.3616  -10.9616   19.6150 H   0  0  0  0  0  0
  -21.2030   -7.6146   23.9686 H   0  0  0  0  0  0
  -21.1465   -6.0521   25.9062 H   0  0  0  0  0  0
  -22.0608   -2.7589   23.2827 H   0  0  0  0  0  0
  -22.4133  -11.9957   22.4805 H   0  0  0  0  0  0
  -21.1100  -13.1261   22.2574 H   0  0  0  0  0  0
  -24.6614  -15.8389   20.5840 H   0  0  0  0  0  0
  -26.2832  -15.6456   20.1416 H   0  0  0  0  0  0
  -26.7311  -32.5397   23.0944 H   0  0  0  0  0  0
  -25.0370  -33.9531   25.0511 H   0  0  0  0  0  0
  -22.7273  -31.3075   21.3859 H   0  0  0  0  0  0
  -23.3779  -35.9551   23.3234 H   0  0  0  0  0  0
  -24.3629  -36.8887   22.2051 H   0  0  0  0  0  0
  -23.7241  -37.6436   23.6617 H   0  0  0  0  0  0
  -26.0990  -31.5323   20.5759 H   0  0  0  0  0  0
  -26.8583  -30.8347   21.9788 H   0  0  0  0  0  0
  -28.1186  -28.9520   21.1493 H   0  0  0  0  0  0
  -25.9042  -25.8712   19.0806 H   0  0  0  0  0  0
  -23.9410  -27.2795   19.0595 H   0  0  0  0  0  0
  -23.7828  -30.5896   19.3948 H   0  0  0  0  0  0
  -22.7611  -29.2543   19.8360 H   0  0  0  0  0  0
  -25.1260  -36.1811   25.0830 H   0  0  0  0  0  0
  -21.0023  -28.3271   24.1395 H   0  0  0  0  0  0
  -20.5711  -26.2333   23.3619 H   0  0  0  0  0  0
  -21.6655  -26.7467   22.1175 H   0  0  0  0  0  0
  -19.6875  -25.6362   21.1208 H   0  0  0  0  0  0
  -19.6614  -27.3300   20.6804 H   0  0  0  0  0  0
  -17.4203  -26.6767   21.4038 H   0  0  0  0  0  0
  -18.0250  -26.0062   22.9019 H   0  0  0  0  0  0
  -19.7960  -30.7231   24.2345 H   0  0  0  0  0  0
  -17.5059  -31.6274   24.5194 H   0  0  0  0  0  0
  -15.5377  -30.3049   23.7572 H   0  0  0  0  0  0
  -15.8699  -28.0818   22.7083 H   0  0  0  0  0  0
  -24.6044  -30.6963   25.7798 H   0  0  0  0  0  0
  -24.9029  -32.2893   26.4683 H   0  0  0  0  0  0
  -25.8260  -30.9023   27.0203 H   0  0  0  0  0  0
  -26.2931  -29.6723   24.0964 H   0  0  0  0  0  0
  -27.4003  -29.7023   25.4459 H   0  0  0  0  0  0
  -27.8830  -30.4145   23.9256 H   0  0  0  0  0  0
  -27.2718  -33.3488   26.1990 H   0  0  0  0  0  0
  -28.4021  -32.6738   25.0373 H   0  0  0  0  0  0
  -28.0675  -31.8321   26.5437 H   0  0  0  0  0  0
  -28.2557  -38.0063   24.7602 H   0  0  0  0  0  0
  -28.1110  -36.2616   24.6181 H   0  0  0  0  0  0
  -27.2328  -37.1264   25.8880 H   0  0  0  0  0  0
  -20.9420  -29.8823   21.6898 H   0  0  0  0  0  0
  -26.0126  -38.2805   24.1543 H   0  0  0  0  0  0
  -28.7344  -16.2273   22.5746 H   0  0  0  0  0  0
  -28.0969  -18.3087   23.6773 H   0  0  0  0  0  0
  -29.8694  -18.5086   19.0654 H   0  0  0  0  0  0
  -25.6799  -23.5545   19.5507 H   0  0  0  0  0  0
  -25.0554  -22.7008   20.9530 H   0  0  0  0  0  0
  -27.0146  -23.3261   22.2995 H   0  0  0  0  0  0
  -26.5942  -24.8182   21.4845 H   0  0  0  0  0  0
  -26.4883  -21.3044   19.1229 H   0  0  0  0  0  0
  -26.7541  -21.0587   20.8384 H   0  0  0  0  0  0
  -29.0858  -23.7532   21.2894 H   0  0  0  0  0  0
  -29.8458  -21.0916   19.1926 H   0  0  0  0  0  0
  -30.0779  -21.6587   20.7950 H   0  0  0  0  0  0
  -27.6991  -24.9115   18.7687 H   0  0  0  0  0  0
  -29.3597  -24.9672   19.1202 H   0  0  0  0  0  0
  -28.8119  -15.4449   19.7138 H   0  0  0  0  0  0
  -28.3423  -22.4856   18.9233 H   0  0  0  0  0  0
  1 25  1  0  0  0
  1 30  2  0  0  0
  1 83  1  0  0  0
  2  3  1  0  0  0
  2 25  1  0  0  0
  2 86  1  0  0  0
  2 87  1  0  0  0
  3  4  1  0  0  0
  3 88  1  0  0  0
  3 89  1  0  0  0
  4  5  1  0  0  0
  4 90  1  0  0  0
  4 91  1  0  0  0
  5  6  1  0  0  0
  5 26  1  0  0  0
  5 92  1  0  0  0
  6 25  1  0  0  0
  6 93  1  0  0  0
  6 94  1  0  0  0
  7  8  2  0  0  0
  7 26  1  0  0  0
  7 29  1  0  0  0
  8  9  1  0  0  0
  8 22  1  0  0  0
  9 10  1  0  0  0
  9 27  2  0  0  0
 10 11  2  0  0  0
 10 15  1  0  0  0
 11 12  1  0  0  0
 11 95  1  0  0  0
 12 13  2  0  0  0
 12 96  1  0  0  0
 13 14  1  0  0  0
 13 31  1  0  0  0
 14 15  2  0  0  0
 14 97  1  0  0  0
 15 98  1  0  0  0
 16 17  2  0  0  0
 16 21  1  0  0  0
 16 31  1  0  0  0
 17 18  1  0  0  0
 17 99  1  0  0  0
 18 19  2  0  0  0
 18100  1  0  0  0
 19 20  1  0  0  0
 19 24  1  0  0  0
 20 21  2  0  0  0
 20101  1  0  0  0
 21 23  1  0  0  0
 22 28  1  0  0  0
 22 32  2  0  0  0
 26 27  1  0  0  0
 28102  1  0  0  0
 28103  1  0  0  0
 29104  1  0  0  0
 29105  1  0  0  0
 33 34  1  0  0  0
 33 66  1  0  0  0
 33 70  2  0  0  0
 34 36  1  0  0  0
 34 59  1  0  0  0
 34106  1  0  0  0
 35 44  2  0  0  0
 35 45  1  0  0  0
 35 68  1  0  0  0
 36 56  1  0  0  0
 36107  1  0  0  0
 37 39  1  0  0  0
 37 47  1  0  0  0
 37 66  1  0  0  0
 37108  1  0  0  0
 38 43  2  0  0  0
 38 46  1  0  0  0
 38 47  1  0  0  0
 39 64  1  0  0  0
 39 67  2  0  0  0
 40 52  1  0  0  0
 40 53  2  0  0  0
 40 58  1  0  0  0
 41109  1  0  0  0
 41110  1  0  0  0
 41111  1  0  0  0
 41 48  1  0  0  0
 42 43  1  0  0  0
 42 66  1  0  0  0
 42112  1  0  0  0
 42113  1  0  0  0
 43 44  1  0  0  0
 44114  1  0  0  0
 45 46  2  0  0  0
 45115  1  0  0  0
 46116  1  0  0  0
 47117  1  0  0  0
 47118  1  0  0  0
 48 56  1  0  0  0
 48 65  1  0  0  0
 48119  1  0  0  0
 49 50  1  0  0  0
 49 53  1  0  0  0
 49 64  1  0  0  0
 49120  1  0  0  0
 50 51  1  0  0  0
 50121  1  0  0  0
 50122  1  0  0  0
 51 52  1  0  0  0
 51123  1  0  0  0
 51124  1  0  0  0
 52125  1  0  0  0
 52126  1  0  0  0
 53 54  1  0  0  0
 54 55  2  0  0  0
 54127  1  0  0  0
 55 57  1  0  0  0
 55128  1  0  0  0
 56 69  2  0  0  0
 57 58  2  0  0  0
 57129  1  0  0  0
 58130  1  0  0  0
 59 60  1  0  0  0
 59 61  1  0  0  0
 59 62  1  0  0  0
 60131  1  0  0  0
 60132  1  0  0  0
 60133  1  0  0  0
 61134  1  0  0  0
 61135  1  0  0  0
 61136  1  0  0  0
 62137  1  0  0  0
 62138  1  0  0  0
 62139  1  0  0  0
 63 65  1  0  0  0
 63140  1  0  0  0
 63141  1  0  0  0
 63142  1  0  0  0
 64143  1  0  0  0
 65144  1  0  0  0
 68 82  1  0  0  0
 71 72  2  0  0  0
 71 75  1  0  0  0
 71145  1  0  0  0
 72 76  1  0  0  0
 72146  1  0  0  0
 73 74  1  0  0  0
 73 75  2  0  0  0
 73147  1  0  0  0
 74 76  2  0  0  0
 74 81  1  0  0  0
 75 83  1  0  0  0
 76 85  1  0  0  0
 77 78  1  0  0  0
 77 79  1  0  0  0
 77148  1  0  0  0
 77149  1  0  0  0
 78 80  1  0  0  0
 78150  1  0  0  0
 78151  1  0  0  0
 79 84  1  0  0  0
 79152  1  0  0  0
 79153  1  0  0  0
 80 82  1  0  0  0
 80 84  1  0  0  0
 80154  1  0  0  0
 81155  1  0  0  0
 81156  1  0  0  0
 81 84  1  0  0  0
 82157  1  0  0  0
 82158  1  0  0  0
 83159  1  0  0  0
 84160  1  0  0  0
M  CHG  1  84   1
M  ISO  4   1 100  68 101  82 101  83 100
M  END
> <chiral flag>
0

> <version>
0

> <s_m_source_file>
/data/baiqing/PycharmProjects/Reinvent-master-3.2/result/LINK_invent/BTK/process_docking_weight1_custom_product_contain_oxygen_bond_distance_aromatic_linkinvent_7_9_3/rearranged_h_0018.sdf

> <i_m_source_file_index>
62

> <r_mmod_Potential_Energy-OPLS-2005>
237.063903808594

> <r_mmod_Stretch_Energy-OPLS-2005>
137.303558349609

> <r_mmod_Bend_Energy-OPLS-2005>
228.903366088867

> <r_mmod_Torsional_Energy-OPLS-2005>
322.249053955078

> <r_mmod_Improper_Torsional_Energy-OPLS-2005>
17.5553684234619

> <r_mmod_Van_der_Waal_Energy-OPLS-2005>
125.728073120117

> <r_mmod_Electrostatic_Energy-OPLS-2005>
-255.716323852539

> <r_mmod_Solvation_Energy-OPLS-2005>
-436.383453369141

> <b_mmod_Minimization_Converged-OPLS-2005>
0

> <r_mmod_RMS_Derivative-OPLS-2005>
5.42412757873535

$$$$
62
                    3D
 Structure written by MMmdl.
168177  0  0  1  0            999 V2000
  -30.4095  -15.3785   20.3483 C   0  0  0  0  0  0
  -30.4300  -12.8894   19.5366 C   0  0  0  0  0  0
  -29.5310  -12.5892   18.3074 C   0  0  0  0  0  0
  -28.0917  -12.2802   18.7541 C   0  0  0  0  0  0
  -27.5980  -13.2790   19.8280 C   0  0  2  0  0  0
  -28.6357  -13.5017   20.9521 C   0  0  0  0  0  0
  -25.2189  -13.7901   20.5787 C   0  0  0  0  0  0
  -24.1598  -13.0141   20.9296 C   0  0  0  0  0  0
  -24.6391  -11.6723   20.8836 C   0  0  0  0  0  0
  -23.9134  -10.4131   21.0427 C   0  0  0  0  0  0
  -24.3665   -9.4063   21.9188 C   0  0  0  0  0  0
  -23.6313   -8.2127   22.0737 C   0  0  0  0  0  0
  -22.4287   -8.0224   21.3520 C   0  0  0  0  0  0
  -21.9943   -9.0211   20.4637 C   0  0  0  0  0  0
  -22.7312  -10.2060   20.3056 C   0  0  0  0  0  0
  -21.6808   -6.0774   22.5295 C   0  0  0  0  0  0
  -21.3965   -6.5680   23.8239 C   0  0  0  0  0  0
  -21.3647   -5.6823   24.9181 C   0  0  0  0  0  0
  -21.6032   -4.3079   24.7227 C   0  0  0  0  0  0
  -21.8831   -3.8192   23.4337 C   0  0  0  0  0  0
  -21.9177   -4.7009   22.3404 C   0  0  0  0  0  0
  -22.7639  -13.4961   21.1963 C   0  0  0  0  0  0
  -22.1661   -4.2211   21.0975 F   0  0  0  0  0  0
  -21.5597   -3.4556   25.7733 F   0  0  0  0  0  0
  -29.8477  -14.0522   20.3142 N   0  0  0  0  0  0
  -26.2767  -12.9388   20.3337 N   0  0  0  0  0  0
  -25.9350  -11.6488   20.5844 N   0  0  0  0  0  0
  -22.0333  -12.7962   22.0566 N   0  0  0  0  0  0
  -25.3451  -15.1492   20.4205 N   0  0  0  0  0  0
  -31.6361  -15.3363   20.1398 O   0  0  0  0  0  0
  -21.6581   -6.8874   21.4251 O   0  0  0  0  0  0
  -22.3399  -14.5331   20.6871 O   0  0  0  0  0  0
  -24.6615  -31.8226   23.1705 C   0  0  0  0  0  0
  -25.9282  -32.4595   23.8172 C   0  0  1  0  0  0
  -27.2323  -26.9303   20.1717 C   0  0  0  0  0  0
  -25.5964  -33.8417   24.2064 N   0  0  0  0  0  0
  -23.4790  -30.4333   21.5197 C   0  0  2  0  0  0
  -24.9349  -28.8201   20.1156 C   0  0  0  0  0  0
  -22.7669  -29.4448   22.4774 C   0  0  0  0  0  0
  -18.0328  -28.1413   22.8460 C   0  0  0  0  0  0
  -24.1501  -36.7236   23.2638 C   0  0  0  0  0  0
  -26.0461  -30.6277   21.4035 C   0  0  0  0  0  0
  -26.1183  -29.2165   20.7502 C   0  0  0  0  0  0
  -27.2595  -28.2920   20.7579 C   0  0  0  0  0  0
  -26.0178  -26.6890   19.4894 C   0  0  0  0  0  0
  -24.9097  -27.5756   19.4658 C   0  0  0  0  0  0
  -23.7216  -29.7491   20.1469 C   0  0  0  0  0  0
  -25.4144  -36.2979   24.0279 C   0  0  1  0  0  0
  -20.5952  -28.3772   23.1195 C   0  0  2  0  0  0
  -20.6840  -26.9464   22.5394 C   0  0  0  0  0  0
  -19.5797  -26.6367   21.5233 C   0  0  0  0  0  0
  -18.1995  -26.7925   22.1666 C   0  0  0  0  0  0
  -19.1587  -28.8918   23.2795 C   0  0  0  0  0  0
  -18.9502  -30.1509   23.8823 C   0  0  0  0  0  0
  -17.6494  -30.6620   24.0549 C   0  0  0  0  0  0
  -25.9089  -34.9354   23.4999 C   0  0  0  0  0  0
  -16.5381  -29.9117   23.6333 C   0  0  0  0  0  0
  -16.7305  -28.6531   23.0360 C   0  0  0  0  0  0
  -26.4543  -31.6531   25.0686 C   0  0  0  0  0  0
  -25.3667  -31.3819   26.1342 C   0  0  0  0  0  0
  -27.0416  -30.2891   24.6416 C   0  0  0  0  0  0
  -27.6045  -32.4325   25.7489 C   0  0  0  0  0  0
  -27.5576  -37.1780   24.8457 C   0  0  0  0  0  0
  -21.4335  -29.3078   22.3541 N   0  0  0  0  0  0
  -26.4291  -37.3710   23.9395 N   0  0  0  0  0  0
  -24.7503  -30.9879   22.0851 N   0  0  0  0  0  0
  -23.4205  -28.7992   23.3006 O   0  0  0  0  0  0
  -28.2318  -25.8154   20.2462 O   0  0  0  0  0  0
  -26.5720  -34.8893   22.4599 O   0  0  0  0  0  0
  -23.5677  -32.1196   23.6793 O   0  0  0  0  0  0
  -29.0169  -21.5036   20.2126 C   0  0  0  0  0  0
  -28.7025  -22.7712   20.1603 C   0  0  0  0  0  0
  -26.8035  -17.5560   22.5444 C   0  0  0  0  0  0
  -26.2283  -17.8984   20.2011 C   0  0  0  0  0  0
  -28.0059  -16.9249   22.1535 C   0  0  0  0  0  0
  -27.4081  -17.2341   19.8097 C   0  0  0  0  0  0
  -25.9167  -18.0758   21.5672 C   0  0  0  0  0  0
  -28.3280  -16.7923   20.7855 C   0  0  0  0  0  0
  -21.9444  -19.4239   23.8442 C   0  0  0  0  0  0
  -22.8917  -20.2363   24.7200 C   0  0  0  0  0  0
  -22.7980  -18.2184   23.4490 C   0  0  0  0  0  0
  -24.2887  -19.9562   24.1485 C   0  0  0  0  0  0
  -29.0300  -19.8277   20.2869 C   0  0  0  0  0  0
  -27.9109  -24.2299   19.9379 C   0  0  0  0  0  0
  -24.6594  -18.8757   21.9149 C   0  0  0  0  0  0
  -30.0855  -18.3364   20.1797 C   0  0  0  0  0  0
  -29.6864  -16.7123   20.4068 N   0  0  0  0  0  0
  -24.1893  -18.7222   23.3190 N   0  3  0  0  0  0
  -31.4388  -13.1118   19.1878 H   0  0  0  0  0  0
  -30.5302  -12.0057   20.1695 H   0  0  0  0  0  0
  -29.9406  -11.7508   17.7404 H   0  0  0  0  0  0
  -29.5356  -13.4468   17.6322 H   0  0  0  0  0  0
  -28.0973  -11.2809   19.1943 H   0  0  0  0  0  0
  -27.4111  -12.2360   17.9012 H   0  0  0  0  0  0
  -27.4849  -14.2307   19.3066 H   0  0  0  0  0  0
  -28.8356  -12.5807   21.5033 H   0  0  0  0  0  0
  -28.2534  -14.2110   21.6838 H   0  0  0  0  0  0
  -25.2782   -9.5544   22.4808 H   0  0  0  0  0  0
  -24.0009   -7.4504   22.7454 H   0  0  0  0  0  0
  -21.0848   -8.8779   19.8959 H   0  0  0  0  0  0
  -22.3763  -10.9649   19.6227 H   0  0  0  0  0  0
  -21.1940   -7.6182   23.9757 H   0  0  0  0  0  0
  -21.1445   -6.0524   25.9086 H   0  0  0  0  0  0
  -22.0621   -2.7660   23.2793 H   0  0  0  0  0  0
  -22.3955  -11.9593   22.4877 H   0  0  0  0  0  0
  -21.1011  -13.1048   22.2913 H   0  0  0  0  0  0
  -24.5604  -15.7728   20.5619 H   0  0  0  0  0  0
  -26.2179  -15.6454   20.2871 H   0  0  0  0  0  0
  -26.7351  -32.5132   23.0876 H   0  0  0  0  0  0
  -25.0060  -33.9516   25.0189 H   0  0  0  0  0  0
  -22.7923  -31.2624   21.3470 H   0  0  0  0  0  0
  -23.3766  -35.9565   23.3261 H   0  0  0  0  0  0
  -24.3570  -36.8929   22.2067 H   0  0  0  0  0  0
  -23.7264  -37.6416   23.6725 H   0  0  0  0  0  0
  -26.2183  -31.3649   20.6188 H   0  0  0  0  0  0
  -26.9089  -30.6937   22.0525 H   0  0  0  0  0  0
  -28.1491  -28.5928   21.2931 H   0  0  0  0  0  0
  -25.8893  -25.7453   18.9805 H   0  0  0  0  0  0
  -24.0127  -27.2683   18.9448 H   0  0  0  0  0  0
  -23.8812  -30.5200   19.3909 H   0  0  0  0  0  0
  -22.8325  -29.2024   19.8256 H   0  0  0  0  0  0
  -25.1351  -36.1775   25.0771 H   0  0  0  0  0  0
  -21.0029  -28.3400   24.1313 H   0  0  0  0  0  0
  -20.5822  -26.2398   23.3637 H   0  0  0  0  0  0
  -21.6699  -26.7536   22.1138 H   0  0  0  0  0  0
  -19.6973  -25.6241   21.1362 H   0  0  0  0  0  0
  -19.6724  -27.3091   20.6698 H   0  0  0  0  0  0
  -17.4247  -26.6594   21.4101 H   0  0  0  0  0  0
  -18.0451  -26.0128   22.9135 H   0  0  0  0  0  0
  -19.7987  -30.7340   24.2160 H   0  0  0  0  0  0
  -17.5063  -31.6295   24.5162 H   0  0  0  0  0  0
  -15.5387  -30.3013   23.7684 H   0  0  0  0  0  0
  -15.8701  -28.0827   22.7115 H   0  0  0  0  0  0
  -24.5795  -30.7237   25.7638 H   0  0  0  0  0  0
  -24.8926  -32.3059   26.4683 H   0  0  0  0  0  0
  -25.7864  -30.9005   27.0188 H   0  0  0  0  0  0
  -26.3064  -29.6576   24.1420 H   0  0  0  0  0  0
  -27.3944  -29.7242   25.5064 H   0  0  0  0  0  0
  -27.9017  -30.4061   23.9813 H   0  0  0  0  0  0
  -27.2626  -33.3691   26.1916 H   0  0  0  0  0  0
  -28.3943  -32.6781   25.0367 H   0  0  0  0  0  0
  -28.0603  -31.8533   26.5538 H   0  0  0  0  0  0
  -28.2567  -38.0101   24.7502 H   0  0  0  0  0  0
  -28.1101  -36.2632   24.6286 H   0  0  0  0  0  0
  -27.2288  -37.1412   25.8854 H   0  0  0  0  0  0
  -20.9594  -29.8765   21.6657 H   0  0  0  0  0  0
  -26.0138  -38.2767   24.1412 H   0  0  0  0  0  0
  -26.6279  -17.7013   23.5996 H   0  0  0  0  0  0
  -25.5730  -18.2950   19.4372 H   0  0  0  0  0  0
  -28.7340  -16.6696   22.9126 H   0  0  0  0  0  0
  -27.6703  -17.2033   18.7598 H   0  0  0  0  0  0
  -21.6606  -19.9993   22.9635 H   0  0  0  0  0  0
  -21.0307  -19.1421   24.3701 H   0  0  0  0  0  0
  -22.8320  -19.8825   25.7500 H   0  0  0  0  0  0
  -22.6429  -21.2983   24.7281 H   0  0  0  0  0  0
  -22.4190  -17.7021   22.5669 H   0  0  0  0  0  0
  -22.7859  -17.4924   24.2608 H   0  0  0  0  0  0
  -25.0069  -19.8066   24.9583 H   0  0  0  0  0  0
  -24.6396  -20.8219   23.5836 H   0  0  0  0  0  0
  -28.3095  -19.6552   19.4887 H   0  0  0  0  0  0
  -28.4594  -19.6734   21.2038 H   0  0  0  0  0  0
  -26.9541  -24.0511   20.4268 H   0  0  0  0  0  0
  -27.6672  -24.2159   18.8748 H   0  0  0  0  0  0
  -23.8782  -18.5677   21.2176 H   0  0  0  0  0  0
  -24.8523  -19.9172   21.6592 H   0  0  0  0  0  0
  -30.9323  -18.5069   20.8432 H   0  0  0  0  0  0
  -30.5209  -18.3562   19.1779 H   0  0  0  0  0  0
  -24.7980  -18.0286   23.7301 H   0  0  0  0  0  0
  1 25  1  0  0  0
  1 30  2  0  0  0
  1 87  1  0  0  0
  2  3  1  0  0  0
  2 25  1  0  0  0
  2 89  1  0  0  0
  2 90  1  0  0  0
  3  4  1  0  0  0
  3 91  1  0  0  0
  3 92  1  0  0  0
  4  5  1  0  0  0
  4 93  1  0  0  0
  4 94  1  0  0  0
  5  6  1  0  0  0
  5 26  1  0  0  0
  5 95  1  0  0  0
  6 25  1  0  0  0
  6 96  1  0  0  0
  6 97  1  0  0  0
  7  8  2  0  0  0
  7 26  1  0  0  0
  7 29  1  0  0  0
  8  9  1  0  0  0
  8 22  1  0  0  0
  9 10  1  0  0  0
  9 27  2  0  0  0
 10 11  2  0  0  0
 10 15  1  0  0  0
 11 12  1  0  0  0
 11 98  1  0  0  0
 12 13  2  0  0  0
 12 99  1  0  0  0
 13 14  1  0  0  0
 13 31  1  0  0  0
 14 15  2  0  0  0
 14100  1  0  0  0
 15101  1  0  0  0
 16 17  2  0  0  0
 16 21  1  0  0  0
 16 31  1  0  0  0
 17 18  1  0  0  0
 17102  1  0  0  0
 18 19  2  0  0  0
 18103  1  0  0  0
 19 20  1  0  0  0
 19 24  1  0  0  0
 20 21  2  0  0  0
 20104  1  0  0  0
 21 23  1  0  0  0
 22 28  1  0  0  0
 22 32  2  0  0  0
 26 27  1  0  0  0
 28105  1  0  0  0
 28106  1  0  0  0
 29107  1  0  0  0
 29108  1  0  0  0
 33 34  1  0  0  0
 33 66  1  0  0  0
 33 70  2  0  0  0
 34 36  1  0  0  0
 34 59  1  0  0  0
 34109  1  0  0  0
 35 44  2  0  0  0
 35 45  1  0  0  0
 35 68  1  0  0  0
 36 56  1  0  0  0
 36110  1  0  0  0
 37 39  1  0  0  0
 37 47  1  0  0  0
 37 66  1  0  0  0
 37111  1  0  0  0
 38 43  2  0  0  0
 38 46  1  0  0  0
 38 47  1  0  0  0
 39 64  1  0  0  0
 39 67  2  0  0  0
 40 52  1  0  0  0
 40 53  2  0  0  0
 40 58  1  0  0  0
 41112  1  0  0  0
 41113  1  0  0  0
 41114  1  0  0  0
 41 48  1  0  0  0
 42 43  1  0  0  0
 42 66  1  0  0  0
 42115  1  0  0  0
 42116  1  0  0  0
 43 44  1  0  0  0
 44117  1  0  0  0
 45 46  2  0  0  0
 45118  1  0  0  0
 46119  1  0  0  0
 47120  1  0  0  0
 47121  1  0  0  0
 48 56  1  0  0  0
 48 65  1  0  0  0
 48122  1  0  0  0
 49 50  1  0  0  0
 49 53  1  0  0  0
 49 64  1  0  0  0
 49123  1  0  0  0
 50 51  1  0  0  0
 50124  1  0  0  0
 50125  1  0  0  0
 51 52  1  0  0  0
 51126  1  0  0  0
 51127  1  0  0  0
 52128  1  0  0  0
 52129  1  0  0  0
 53 54  1  0  0  0
 54 55  2  0  0  0
 54130  1  0  0  0
 55 57  1  0  0  0
 55131  1  0  0  0
 56 69  2  0  0  0
 57 58  2  0  0  0
 57132  1  0  0  0
 58133  1  0  0  0
 59 60  1  0  0  0
 59 61  1  0  0  0
 59 62  1  0  0  0
 60134  1  0  0  0
 60135  1  0  0  0
 60136  1  0  0  0
 61137  1  0  0  0
 61138  1  0  0  0
 61139  1  0  0  0
 62140  1  0  0  0
 62141  1  0  0  0
 62142  1  0  0  0
 63 65  1  0  0  0
 63143  1  0  0  0
 63144  1  0  0  0
 63145  1  0  0  0
 64146  1  0  0  0
 65147  1  0  0  0
 68 84  1  0  0  0
 71 72  3  0  0  0
 71 83  1  0  0  0
 72 84  1  0  0  0
 73 75  2  0  0  0
 73 77  1  0  0  0
 73148  1  0  0  0
 74 76  1  0  0  0
 74 77  2  0  0  0
 74149  1  0  0  0
 75 78  1  0  0  0
 75150  1  0  0  0
 76 78  2  0  0  0
 76151  1  0  0  0
 77 85  1  0  0  0
 78 87  1  0  0  0
 79 80  1  0  0  0
 79 81  1  0  0  0
 79152  1  0  0  0
 79153  1  0  0  0
 80 82  1  0  0  0
 80154  1  0  0  0
 80155  1  0  0  0
 81 88  1  0  0  0
 81156  1  0  0  0
 81157  1  0  0  0
 82 88  1  0  0  0
 82158  1  0  0  0
 82159  1  0  0  0
 83 86  1  0  0  0
 83160  1  0  0  0
 83161  1  0  0  0
 84162  1  0  0  0
 84163  1  0  0  0
 85164  1  0  0  0
 85165  1  0  0  0
 85 88  1  0  0  0
 86 87  1  0  0  0
 86166  1  0  0  0
 86167  1  0  0  0
 88168  1  0  0  0
M  CHG  1  88   1
M  ISO  4   1 100  68 101  84 101  87 100
M  END
> <chiral flag>
0

> <version>
0

> <s_m_source_file>
/data/baiqing/PycharmProjects/Reinvent-master-3.2/result/LINK_invent/BTK/process_docking_weight1_custom_product_contain_oxygen_bond_distance_aromatic_linkinvent_7_9_3/rearranged_h_0018.sdf

> <i_m_source_file_index>
63

> <r_mmod_Potential_Energy-OPLS-2005>
1555.40881347656

> <r_mmod_Stretch_Energy-OPLS-2005>
621.936279296875

> <r_mmod_Bend_Energy-OPLS-2005>
495.178771972656

> <r_mmod_Torsional_Energy-OPLS-2005>
358.283203125

> <r_mmod_Improper_Torsional_Energy-OPLS-2005>
9.98445320129395

> <r_mmod_Van_der_Waal_Energy-OPLS-2005>
137.560241699219

> <r_mmod_Electrostatic_Energy-OPLS-2005>
-153.017822265625

> <r_mmod_Solvation_Energy-OPLS-2005>
-442.919097900391

> <b_mmod_Minimization_Converged-OPLS-2005>
0

> <r_mmod_RMS_Derivative-OPLS-2005>
5.16006469726562

$$$$
63
                    3D
 Structure written by MMmdl.
161169  0  0  1  0            999 V2000
  -30.6522  -14.6445   20.5993 C   0  0  0  0  0  0
  -30.4370  -12.4304   19.4466 C   0  0  0  0  0  0
  -29.5051  -12.5328   18.2175 C   0  0  0  0  0  0
  -28.0256  -12.3575   18.6187 C   0  0  0  0  0  0
  -27.6487  -13.2137   19.8530 C   0  0  2  0  0  0
  -28.6846  -13.0258   20.9734 C   0  0  0  0  0  0
  -25.2539  -13.8176   20.5646 C   0  0  0  0  0  0
  -24.1799  -13.0447   20.9161 C   0  0  0  0  0  0
  -24.6360  -11.6910   20.8695 C   0  0  0  0  0  0
  -23.9035  -10.4291   21.0386 C   0  0  0  0  0  0
  -24.3594   -9.4218   21.9175 C   0  0  0  0  0  0
  -23.6278   -8.2251   22.0762 C   0  0  0  0  0  0
  -22.4257   -8.0275   21.3564 C   0  0  0  0  0  0
  -21.9885   -9.0242   20.4661 C   0  0  0  0  0  0
  -22.7208  -10.2121   20.3050 C   0  0  0  0  0  0
  -21.6853   -6.0718   22.5275 C   0  0  0  0  0  0
  -21.4016   -6.5625   23.8204 C   0  0  0  0  0  0
  -21.3670   -5.6787   24.9173 C   0  0  0  0  0  0
  -21.6043   -4.3050   24.7225 C   0  0  0  0  0  0
  -21.8829   -3.8138   23.4351 C   0  0  0  0  0  0
  -21.9197   -4.6949   22.3402 C   0  0  0  0  0  0
  -22.7835  -13.5241   21.1854 C   0  0  0  0  0  0
  -22.1664   -4.2132   21.0978 F   0  0  0  0  0  0
  -21.5624   -3.4538   25.7742 F   0  0  0  0  0  0
  -30.0029  -13.4326   20.4497 N   0  0  0  0  0  0
  -26.2941  -12.9347   20.3214 N   0  0  0  0  0  0
  -25.9270  -11.6506   20.5642 N   0  0  0  0  0  0
  -22.0477  -12.8223   22.0399 N   0  0  0  0  0  0
  -25.4276  -15.1902   20.4136 N   0  0  0  0  0  0
  -31.7509  -14.8198   20.0600 O   0  0  0  0  0  0
  -21.6645   -6.8857   21.4237 O   0  0  0  0  0  0
  -22.3520  -14.5561   20.6721 O   0  0  0  0  0  0
  -24.6254  -31.8573   23.1998 C   0  0  0  0  0  0
  -25.9101  -32.4765   23.8336 C   0  0  1  0  0  0
  -27.2356  -27.3221   20.1231 C   0  0  0  0  0  0
  -25.5919  -33.8568   24.2264 N   0  0  0  0  0  0
  -23.4203  -30.4787   21.5408 C   0  0  2  0  0  0
  -24.8713  -28.9244   20.1137 C   0  0  0  0  0  0
  -22.7471  -29.4615   22.4920 C   0  0  0  0  0  0
  -18.0304  -28.1369   22.8501 C   0  0  0  0  0  0
  -24.1492  -36.7298   23.2649 C   0  0  0  0  0  0
  -25.9603  -30.7899   21.3712 C   0  0  0  0  0  0
  -26.0364  -29.4139   20.7184 C   0  0  0  0  0  0
  -27.2238  -28.6250   20.7086 C   0  0  0  0  0  0
  -26.0483  -26.8715   19.5119 C   0  0  0  0  0  0
  -24.8780  -27.6588   19.5011 C   0  0  0  0  0  0
  -23.6381  -29.8064   20.1578 C   0  0  0  0  0  0
  -25.4125  -36.3078   24.0325 C   0  0  1  0  0  0
  -20.5899  -28.3703   23.1312 C   0  0  2  0  0  0
  -20.6801  -26.9412   22.5476 C   0  0  0  0  0  0
  -19.5791  -26.6340   21.5274 C   0  0  0  0  0  0
  -18.1960  -26.7909   22.1651 C   0  0  0  0  0  0
  -19.1551  -28.8850   23.2887 C   0  0  0  0  0  0
  -18.9470  -30.1457   23.8882 C   0  0  0  0  0  0
  -17.6466  -30.6579   24.0554 C   0  0  0  0  0  0
  -25.9056  -34.9444   23.5101 C   0  0  0  0  0  0
  -16.5358  -29.9088   23.6314 C   0  0  0  0  0  0
  -16.7287  -28.6499   23.0361 C   0  0  0  0  0  0
  -26.4501  -31.6573   25.0704 C   0  0  0  0  0  0
  -25.3750  -31.3679   26.1438 C   0  0  0  0  0  0
  -27.0362  -30.3005   24.6147 C   0  0  0  0  0  0
  -27.6043  -32.4324   25.7483 C   0  0  0  0  0  0
  -27.5579  -37.1815   24.8468 C   0  0  0  0  0  0
  -21.4178  -29.3057   22.3685 N   0  0  0  0  0  0
  -26.4299  -37.3774   23.9398 N   0  0  0  0  0  0
  -24.6873  -31.0598   22.0937 N   0  0  0  0  0  0
  -23.4187  -28.8158   23.3010 O   0  0  0  0  0  0
  -28.3724  -26.5056   20.0960 O   0  0  0  0  0  0
  -26.5629  -34.8912   22.4669 O   0  0  0  0  0  0
  -23.5419  -32.1369   23.7324 O   0  0  0  0  0  0
  -28.7393  -18.6845   19.2786 C   0  0  0  0  0  0
  -29.1041  -17.3591   19.6549 C   0  0  0  0  0  0
  -29.9908  -19.5796   21.0937 C   0  0  0  0  0  0
  -30.4137  -18.2577   21.4622 C   0  0  0  0  0  0
  -29.1081  -19.8513   20.0176 C   0  0  0  0  0  0
  -29.9084  -17.0844   20.7897 C   0  0  0  0  0  0
  -29.6475  -15.4636   22.6789 C   0  0  0  0  0  0
  -27.3274  -21.1151   18.9569 C   0  0  0  0  0  0
  -28.6287  -23.8589   19.7570 C   0  0  0  0  0  0
  -28.7987  -22.4302   20.4891 C   0  0  0  0  0  0
  -28.2946  -25.1369   20.6569 C   0  0  0  0  0  0
  -31.4400  -18.2014   22.5966 C   0  0  0  0  0  0
  -30.0317  -15.6875   21.2726 N   0  0  0  0  0  0
  -28.6058  -21.1745   19.6755 N   0  0  0  0  0  0
  -32.1566  -17.0777   22.6038 F   0  0  0  0  0  0
  -32.3101  -19.2036   22.4663 F   0  0  0  0  0  0
  -30.8335  -18.3521   23.7738 F   0  0  0  0  0  0
  -31.4740  -12.5703   19.1381 H   0  0  0  0  0  0
  -30.3971  -11.4290   19.8761 H   0  0  0  0  0  0
  -29.7813  -11.7807   17.4776 H   0  0  0  0  0  0
  -29.6414  -13.5029   17.7351 H   0  0  0  0  0  0
  -27.8601  -11.3015   18.8378 H   0  0  0  0  0  0
  -27.3744  -12.5992   17.7783 H   0  0  0  0  0  0
  -27.6809  -14.2569   19.5380 H   0  0  0  0  0  0
  -28.7152  -11.9797   21.2817 H   0  0  0  0  0  0
  -28.3556  -13.5530   21.8579 H   0  0  0  0  0  0
  -25.2741   -9.5700   22.4740 H   0  0  0  0  0  0
  -24.0012   -7.4636   22.7477 H   0  0  0  0  0  0
  -21.0819   -8.8744   19.8953 H   0  0  0  0  0  0
  -22.3669  -10.9650   19.6146 H   0  0  0  0  0  0
  -21.2009   -7.6135   23.9705 H   0  0  0  0  0  0
  -21.1481   -6.0517   25.9076 H   0  0  0  0  0  0
  -22.0599   -2.7598   23.2859 H   0  0  0  0  0  0
  -22.4092  -11.9906   22.4823 H   0  0  0  0  0  0
  -21.1102  -13.1258   22.2594 H   0  0  0  0  0  0
  -24.6734  -15.8532   20.5552 H   0  0  0  0  0  0
  -26.2977  -15.6329   20.1479 H   0  0  0  0  0  0
  -26.7156  -32.5436   23.1076 H   0  0  0  0  0  0
  -25.0069  -33.9704   25.0409 H   0  0  0  0  0  0
  -22.7140  -31.2985   21.3941 H   0  0  0  0  0  0
  -23.3740  -35.9646   23.3336 H   0  0  0  0  0  0
  -24.3570  -36.8899   22.2056 H   0  0  0  0  0  0
  -23.7260  -37.6512   23.6666 H   0  0  0  0  0  0
  -26.0928  -31.5508   20.6008 H   0  0  0  0  0  0
  -26.8402  -30.8398   22.0010 H   0  0  0  0  0  0
  -28.1242  -29.0008   21.1740 H   0  0  0  0  0  0
  -26.0283  -25.9004   19.0384 H   0  0  0  0  0  0
  -23.9865  -27.2820   19.0203 H   0  0  0  0  0  0
  -23.7566  -30.5823   19.4009 H   0  0  0  0  0  0
  -22.7600  -29.2334   19.8544 H   0  0  0  0  0  0
  -25.1308  -36.1936   25.0817 H   0  0  0  0  0  0
  -21.0001  -28.3324   24.1434 H   0  0  0  0  0  0
  -20.5673  -26.2327   23.3695 H   0  0  0  0  0  0
  -21.6687  -26.7443   22.1319 H   0  0  0  0  0  0
  -19.6985  -25.6233   21.1364 H   0  0  0  0  0  0
  -19.6733  -27.3099   20.6769 H   0  0  0  0  0  0
  -17.4230  -26.6638   21.4063 H   0  0  0  0  0  0
  -18.0362  -26.0072   22.9054 H   0  0  0  0  0  0
  -19.7943  -30.7293   24.2246 H   0  0  0  0  0  0
  -17.5015  -31.6263   24.5154 H   0  0  0  0  0  0
  -15.5357  -30.2991   23.7643 H   0  0  0  0  0  0
  -15.8679  -28.0824   22.7078 H   0  0  0  0  0  0
  -24.5913  -30.7049   25.7756 H   0  0  0  0  0  0
  -24.8966  -32.2833   26.4926 H   0  0  0  0  0  0
  -25.8097  -30.8802   27.0172 H   0  0  0  0  0  0
  -26.2926  -29.6725   24.1224 H   0  0  0  0  0  0
  -27.4132  -29.7282   25.4633 H   0  0  0  0  0  0
  -27.8761  -30.4305   23.9320 H   0  0  0  0  0  0
  -27.2627  -33.3607   26.2079 H   0  0  0  0  0  0
  -28.3851  -32.6915   25.0320 H   0  0  0  0  0  0
  -28.0727  -31.8449   26.5392 H   0  0  0  0  0  0
  -28.2612  -38.0097   24.7490 H   0  0  0  0  0  0
  -28.1057  -36.2624   24.6331 H   0  0  0  0  0  0
  -27.2293  -37.1511   25.8871 H   0  0  0  0  0  0
  -20.9345  -29.8797   21.6911 H   0  0  0  0  0  0
  -26.0180  -38.2853   24.1374 H   0  0  0  0  0  0
  -28.1170  -18.7745   18.4007 H   0  0  0  0  0  0
  -28.7087  -16.5373   19.0746 H   0  0  0  0  0  0
  -30.3622  -20.4055   21.6803 H   0  0  0  0  0  0
  -29.9759  -14.4932   23.0592 H   0  0  0  0  0  0
  -30.0540  -16.1889   23.3704 H   0  0  0  0  0  0
  -28.5625  -15.5242   22.7811 H   0  0  0  0  0  0
  -26.6802  -20.3374   19.3669 H   0  0  0  0  0  0
  -27.4888  -20.9103   17.8978 H   0  0  0  0  0  0
  -26.7519  -22.0363   19.0303 H   0  0  0  0  0  0
  -29.5471  -24.0620   19.2039 H   0  0  0  0  0  0
  -27.8522  -23.8127   18.9961 H   0  0  0  0  0  0
  -28.0907  -22.3831   21.3172 H   0  0  0  0  0  0
  -29.7852  -22.4095   20.9539 H   0  0  0  0  0  0
  -29.0006  -25.1376   21.4881 H   0  0  0  0  0  0
  -27.3213  -24.9823   21.1246 H   0  0  0  0  0  0
  1 25  1  0  0  0
  1 30  2  0  0  0
  1 83  1  0  0  0
  2  3  1  0  0  0
  2 25  1  0  0  0
  2 88  1  0  0  0
  2 89  1  0  0  0
  3  4  1  0  0  0
  3 90  1  0  0  0
  3 91  1  0  0  0
  4  5  1  0  0  0
  4 92  1  0  0  0
  4 93  1  0  0  0
  5  6  1  0  0  0
  5 26  1  0  0  0
  5 94  1  0  0  0
  6 25  1  0  0  0
  6 95  1  0  0  0
  6 96  1  0  0  0
  7  8  2  0  0  0
  7 26  1  0  0  0
  7 29  1  0  0  0
  8  9  1  0  0  0
  8 22  1  0  0  0
  9 10  1  0  0  0
  9 27  2  0  0  0
 10 11  2  0  0  0
 10 15  1  0  0  0
 11 12  1  0  0  0
 11 97  1  0  0  0
 12 13  2  0  0  0
 12 98  1  0  0  0
 13 14  1  0  0  0
 13 31  1  0  0  0
 14 15  2  0  0  0
 14 99  1  0  0  0
 15100  1  0  0  0
 16 17  2  0  0  0
 16 21  1  0  0  0
 16 31  1  0  0  0
 17 18  1  0  0  0
 17101  1  0  0  0
 18 19  2  0  0  0
 18102  1  0  0  0
 19 20  1  0  0  0
 19 24  1  0  0  0
 20 21  2  0  0  0
 20103  1  0  0  0
 21 23  1  0  0  0
 22 28  1  0  0  0
 22 32  2  0  0  0
 26 27  1  0  0  0
 28104  1  0  0  0
 28105  1  0  0  0
 29106  1  0  0  0
 29107  1  0  0  0
 33 34  1  0  0  0
 33 66  1  0  0  0
 33 70  2  0  0  0
 34 36  1  0  0  0
 34 59  1  0  0  0
 34108  1  0  0  0
 35 44  2  0  0  0
 35 45  1  0  0  0
 35 68  1  0  0  0
 36 56  1  0  0  0
 36109  1  0  0  0
 37 39  1  0  0  0
 37 47  1  0  0  0
 37 66  1  0  0  0
 37110  1  0  0  0
 38 43  2  0  0  0
 38 46  1  0  0  0
 38 47  1  0  0  0
 39 64  1  0  0  0
 39 67  2  0  0  0
 40 52  1  0  0  0
 40 53  2  0  0  0
 40 58  1  0  0  0
 41111  1  0  0  0
 41112  1  0  0  0
 41113  1  0  0  0
 41 48  1  0  0  0
 42 43  1  0  0  0
 42 66  1  0  0  0
 42114  1  0  0  0
 42115  1  0  0  0
 43 44  1  0  0  0
 44116  1  0  0  0
 45 46  2  0  0  0
 45117  1  0  0  0
 46118  1  0  0  0
 47119  1  0  0  0
 47120  1  0  0  0
 48 56  1  0  0  0
 48 65  1  0  0  0
 48121  1  0  0  0
 49 50  1  0  0  0
 49 53  1  0  0  0
 49 64  1  0  0  0
 49122  1  0  0  0
 50 51  1  0  0  0
 50123  1  0  0  0
 50124  1  0  0  0
 51 52  1  0  0  0
 51125  1  0  0  0
 51126  1  0  0  0
 52127  1  0  0  0
 52128  1  0  0  0
 53 54  1  0  0  0
 54 55  2  0  0  0
 54129  1  0  0  0
 55 57  1  0  0  0
 55130  1  0  0  0
 56 69  2  0  0  0
 57 58  2  0  0  0
 57131  1  0  0  0
 58132  1  0  0  0
 59 60  1  0  0  0
 59 61  1  0  0  0
 59 62  1  0  0  0
 60133  1  0  0  0
 60134  1  0  0  0
 60135  1  0  0  0
 61136  1  0  0  0
 61137  1  0  0  0
 61138  1  0  0  0
 62139  1  0  0  0
 62140  1  0  0  0
 62141  1  0  0  0
 63 65  1  0  0  0
 63142  1  0  0  0
 63143  1  0  0  0
 63144  1  0  0  0
 64145  1  0  0  0
 65146  1  0  0  0
 68 81  1  0  0  0
 71 72  2  0  0  0
 71 75  1  0  0  0
 71147  1  0  0  0
 72 76  1  0  0  0
 72148  1  0  0  0
 73 74  1  0  0  0
 73 75  2  0  0  0
 73149  1  0  0  0
 74 76  2  0  0  0
 74 82  1  0  0  0
 75 84  1  0  0  0
 76 83  1  0  0  0
 77 83  1  0  0  0
 77150  1  0  0  0
 77151  1  0  0  0
 77152  1  0  0  0
 78 84  1  0  0  0
 78153  1  0  0  0
 78154  1  0  0  0
 78155  1  0  0  0
 79 80  1  0  0  0
 79 81  1  0  0  0
 79156  1  0  0  0
 79157  1  0  0  0
 80 84  1  0  0  0
 80158  1  0  0  0
 80159  1  0  0  0
 81160  1  0  0  0
 81161  1  0  0  0
 82 85  1  0  0  0
 82 86  1  0  0  0
 82 87  1  0  0  0
M  ISO  4   1 100  68 101  81 101  83 100
M  END
> <chiral flag>
0

> <version>
0

> <s_m_source_file>
/data/baiqing/PycharmProjects/Reinvent-master-3.2/result/LINK_invent/BTK/process_docking_weight1_custom_product_contain_oxygen_bond_distance_aromatic_linkinvent_7_9_3/rearranged_h_0018.sdf

> <i_m_source_file_index>
64

> <r_mmod_Potential_Energy-OPLS-2005>
283.088928222656

> <r_mmod_Stretch_Energy-OPLS-2005>
101.641235351562

> <r_mmod_Bend_Energy-OPLS-2005>
165.527297973633

> <r_mmod_Torsional_Energy-OPLS-2005>
313.415893554688

> <r_mmod_Improper_Torsional_Energy-OPLS-2005>
5.52816677093506

> <r_mmod_Van_der_Waal_Energy-OPLS-2005>
161.423858642578

> <r_mmod_Electrostatic_Energy-OPLS-2005>
-296.833435058594

> <r_mmod_Solvation_Energy-OPLS-2005>
-211.169937133789

> <b_mmod_Minimization_Converged-OPLS-2005>
0

> <r_mmod_RMS_Derivative-OPLS-2005>
2.6486451625824

$$$$
64
                    3D
 Structure written by MMmdl.
168177  0  0  1  0            999 V2000
  -30.6700  -14.6505   20.4106 C   0  0  0  0  0  0
  -30.4219  -12.3767   19.4379 C   0  0  0  0  0  0
  -29.4964  -12.4344   18.2089 C   0  0  0  0  0  0
  -28.0189  -12.3160   18.6340 C   0  0  0  0  0  0
  -27.6442  -13.2247   19.8394 C   0  0  2  0  0  0
  -28.6958  -13.1467   20.9618 C   0  0  0  0  0  0
  -25.2574  -13.8192   20.5610 C   0  0  0  0  0  0
  -24.1824  -13.0446   20.9152 C   0  0  0  0  0  0
  -24.6386  -11.6936   20.8726 C   0  0  0  0  0  0
  -23.9039  -10.4312   21.0438 C   0  0  0  0  0  0
  -24.3573   -9.4233   21.9229 C   0  0  0  0  0  0
  -23.6250   -8.2264   22.0818 C   0  0  0  0  0  0
  -22.4236   -8.0274   21.3597 C   0  0  0  0  0  0
  -21.9897   -9.0243   20.4688 C   0  0  0  0  0  0
  -22.7202  -10.2138   20.3104 C   0  0  0  0  0  0
  -21.6849   -6.0729   22.5273 C   0  0  0  0  0  0
  -21.4000   -6.5628   23.8200 C   0  0  0  0  0  0
  -21.3660   -5.6766   24.9160 C   0  0  0  0  0  0
  -21.6035   -4.3026   24.7212 C   0  0  0  0  0  0
  -21.8832   -3.8138   23.4333 C   0  0  0  0  0  0
  -21.9199   -4.6960   22.3401 C   0  0  0  0  0  0
  -22.7859  -13.5263   21.1777 C   0  0  0  0  0  0
  -22.1704   -4.2158   21.0984 F   0  0  0  0  0  0
  -21.5637   -3.4527   25.7744 F   0  0  0  0  0  0
  -29.9971  -13.4550   20.3571 N   0  0  0  0  0  0
  -26.2977  -12.9367   20.3231 N   0  0  0  0  0  0
  -25.9319  -11.6517   20.5731 N   0  0  0  0  0  0
  -22.0490  -12.8304   22.0365 N   0  0  0  0  0  0
  -25.4241  -15.1897   20.3966 N   0  0  0  0  0  0
  -31.8892  -14.6821   20.2236 O   0  0  0  0  0  0
  -21.6600   -6.8866   21.4249 O   0  0  0  0  0  0
  -22.3578  -14.5532   20.6586 O   0  0  0  0  0  0
  -24.6196  -31.8630   23.1964 C   0  0  0  0  0  0
  -25.9037  -32.4800   23.8353 C   0  0  1  0  0  0
  -27.2199  -27.3096   20.0979 C   0  0  0  0  0  0
  -25.5869  -33.8637   24.2213 N   0  0  0  0  0  0
  -23.4159  -30.4835   21.5391 C   0  0  2  0  0  0
  -24.8637  -28.9417   20.1020 C   0  0  0  0  0  0
  -22.7415  -29.4658   22.4883 C   0  0  0  0  0  0
  -18.0262  -28.1359   22.8479 C   0  0  0  0  0  0
  -24.1471  -36.7309   23.2655 C   0  0  0  0  0  0
  -25.9631  -30.7781   21.3872 C   0  0  0  0  0  0
  -26.0300  -29.4090   20.7168 C   0  0  0  0  0  0
  -27.2052  -28.6044   20.7115 C   0  0  0  0  0  0
  -26.0394  -26.9129   19.4362 C   0  0  0  0  0  0
  -24.8730  -27.6976   19.4518 C   0  0  0  0  0  0
  -23.6263  -29.8093   20.1560 C   0  0  0  0  0  0
  -25.4125  -36.3107   24.0309 C   0  0  1  0  0  0
  -20.5855  -28.3717   23.1211 C   0  0  2  0  0  0
  -20.6737  -26.9410   22.5395 C   0  0  0  0  0  0
  -19.5739  -26.6340   21.5180 C   0  0  0  0  0  0
  -18.1911  -26.7913   22.1580 C   0  0  0  0  0  0
  -19.1514  -28.8846   23.2853 C   0  0  0  0  0  0
  -18.9468  -30.1454   23.8891 C   0  0  0  0  0  0
  -17.6481  -30.6599   24.0564 C   0  0  0  0  0  0
  -25.9080  -34.9472   23.5072 C   0  0  0  0  0  0
  -16.5353  -29.9108   23.6352 C   0  0  0  0  0  0
  -16.7251  -28.6492   23.0391 C   0  0  0  0  0  0
  -26.4398  -31.6708   25.0794 C   0  0  0  0  0  0
  -25.3627  -31.3944   26.1515 C   0  0  0  0  0  0
  -27.0373  -30.3104   24.6514 C   0  0  0  0  0  0
  -27.5857  -32.4589   25.7590 C   0  0  0  0  0  0
  -27.5585  -37.1795   24.8439 C   0  0  0  0  0  0
  -21.4118  -29.3112   22.3627 N   0  0  0  0  0  0
  -26.4298  -37.3795   23.9389 N   0  0  0  0  0  0
  -24.6830  -31.0643   22.0928 N   0  0  0  0  0  0
  -23.4118  -28.8173   23.2935 O   0  0  0  0  0  0
  -28.3349  -26.4603   20.1808 O   0  0  0  0  0  0
  -26.5703  -34.8915   22.4664 O   0  0  0  0  0  0
  -23.5333  -32.1498   23.7216 O   0  0  0  0  0  0
  -28.1411  -18.9022   20.4236 C   0  0  0  0  0  0
  -27.9967  -20.2818   20.1117 C   0  0  0  0  0  0
  -30.4614  -19.2423   20.8861 C   0  0  0  0  0  0
  -29.3770  -18.3288   20.8014 C   0  0  0  0  0  0
  -29.0804  -21.2112   20.1485 C   0  0  0  0  0  0
  -30.3255  -20.6340   20.5619 C   0  0  0  0  0  0
  -27.1850  -22.6859   18.0601 C   0  0  0  0  0  0
  -26.7598  -23.2424   19.4389 C   0  0  0  0  0  0
  -28.7034  -22.4390   18.1856 C   0  0  0  0  0  0
  -28.0951  -23.6901   20.0526 C   0  0  2  0  0  0
  -31.0326  -17.8963   17.0090 C   0  0  0  0  0  0
  -29.4651  -16.7891   21.1454 C   0  0  0  0  0  0
  -28.4471  -25.1636   19.4582 C   0  0  0  0  0  0
  -31.2343  -17.0217   18.2693 C   0  0  0  0  0  0
  -29.9352  -16.3023   18.7264 C   0  0  0  0  0  0
  -29.0103  -22.5670   19.6076 N   0  0  0  0  0  0
  -29.9454  -15.7946   20.1225 N   0  0  0  0  0  0
  -31.4353  -21.4107   20.6102 F   0  0  0  0  0  0
  -31.4589  -12.4941   19.1121 H   0  0  0  0  0  0
  -30.3650  -11.4100   19.9353 H   0  0  0  0  0  0
  -29.7530  -11.6510   17.4935 H   0  0  0  0  0  0
  -29.6437  -13.3641   17.6666 H   0  0  0  0  0  0
  -27.8397  -11.2693   18.8937 H   0  0  0  0  0  0
  -27.3607  -12.5419   17.7954 H   0  0  0  0  0  0
  -27.6415  -14.2414   19.4465 H   0  0  0  0  0  0
  -28.7105  -12.1553   21.4175 H   0  0  0  0  0  0
  -28.4610  -13.8507   21.7602 H   0  0  0  0  0  0
  -25.2739   -9.5695   22.4746 H   0  0  0  0  0  0
  -24.0001   -7.4645   22.7500 H   0  0  0  0  0  0
  -21.0892   -8.8700   19.8911 H   0  0  0  0  0  0
  -22.3689  -10.9652   19.6162 H   0  0  0  0  0  0
  -21.1993   -7.6129   23.9700 H   0  0  0  0  0  0
  -21.1483   -6.0506   25.9049 H   0  0  0  0  0  0
  -22.0634   -2.7612   23.2804 H   0  0  0  0  0  0
  -22.4054  -11.9956   22.4774 H   0  0  0  0  0  0
  -21.1109  -13.1383   22.2445 H   0  0  0  0  0  0
  -24.6543  -15.8415   20.4909 H   0  0  0  0  0  0
  -26.2666  -15.6221   20.0419 H   0  0  0  0  0  0
  -26.7077  -32.5446   23.1079 H   0  0  0  0  0  0
  -24.9853  -33.9811   25.0228 H   0  0  0  0  0  0
  -22.7152  -31.3062   21.3854 H   0  0  0  0  0  0
  -23.3748  -35.9635   23.3337 H   0  0  0  0  0  0
  -24.3511  -36.8968   22.2066 H   0  0  0  0  0  0
  -23.7198  -37.6477   23.6714 H   0  0  0  0  0  0
  -26.1314  -31.5480   20.6331 H   0  0  0  0  0  0
  -26.8257  -30.7960   22.0456 H   0  0  0  0  0  0
  -28.0961  -28.9624   21.2056 H   0  0  0  0  0  0
  -25.9795  -25.9877   18.8947 H   0  0  0  0  0  0
  -23.9857  -27.3408   18.9465 H   0  0  0  0  0  0
  -23.7099  -30.5797   19.3850 H   0  0  0  0  0  0
  -22.7523  -29.2169   19.8777 H   0  0  0  0  0  0
  -25.1287  -36.1970   25.0814 H   0  0  0  0  0  0
  -20.9964  -28.3339   24.1325 H   0  0  0  0  0  0
  -20.5536  -26.2380   23.3653 H   0  0  0  0  0  0
  -21.6627  -26.7387   22.1272 H   0  0  0  0  0  0
  -19.6927  -25.6226   21.1301 H   0  0  0  0  0  0
  -19.6667  -27.3087   20.6659 H   0  0  0  0  0  0
  -17.4159  -26.6637   21.3983 H   0  0  0  0  0  0
  -18.0307  -26.0040   22.8967 H   0  0  0  0  0  0
  -19.7961  -30.7239   24.2227 H   0  0  0  0  0  0
  -17.5071  -31.6292   24.5156 H   0  0  0  0  0  0
  -15.5366  -30.3033   23.7695 H   0  0  0  0  0  0
  -15.8626  -28.0831   22.7147 H   0  0  0  0  0  0
  -24.5537  -30.7632   25.7780 H   0  0  0  0  0  0
  -24.9134  -32.3206   26.5131 H   0  0  0  0  0  0
  -25.7851  -30.8845   27.0192 H   0  0  0  0  0  0
  -26.3121  -29.6776   24.1367 H   0  0  0  0  0  0
  -27.3735  -29.7451   25.5227 H   0  0  0  0  0  0
  -27.9081  -30.4285   24.0066 H   0  0  0  0  0  0
  -27.2200  -33.3650   26.2448 H   0  0  0  0  0  0
  -28.3455  -32.7663   25.0395 H   0  0  0  0  0  0
  -28.0830  -31.8727   26.5326 H   0  0  0  0  0  0
  -28.2586  -38.0094   24.7497 H   0  0  0  0  0  0
  -28.1083  -36.2634   24.6232 H   0  0  0  0  0  0
  -27.2331  -37.1421   25.8847 H   0  0  0  0  0  0
  -20.9263  -29.8961   21.6979 H   0  0  0  0  0  0
  -26.0194  -38.2876   24.1413 H   0  0  0  0  0  0
  -27.2724  -18.2610   20.3537 H   0  0  0  0  0  0
  -27.0174  -20.5711   19.7710 H   0  0  0  0  0  0
  -31.4311  -18.8675   21.1900 H   0  0  0  0  0  0
  -27.0114  -23.3941   17.2501 H   0  0  0  0  0  0
  -26.6373  -21.7761   17.8004 H   0  0  0  0  0  0
  -26.3001  -22.4733   20.0590 H   0  0  0  0  0  0
  -26.0029  -24.0160   19.3765 H   0  0  0  0  0  0
  -29.2647  -23.1897   17.6229 H   0  0  0  0  0  0
  -28.9899  -21.4713   17.7679 H   0  0  0  0  0  0
  -28.0375  -23.7290   21.1414 H   0  0  0  0  0  0
  -31.9407  -18.4660   16.7979 H   0  0  0  0  0  0
  -30.2263  -18.6263   17.1523 H   0  0  0  0  0  0
  -30.8055  -17.3031   16.1154 H   0  0  0  0  0  0
  -28.4448  -16.4758   21.3760 H   0  0  0  0  0  0
  -29.9969  -16.6449   22.0881 H   0  0  0  0  0  0
  -27.9595  -25.2817   18.4924 H   0  0  0  0  0  0
  -29.5000  -25.1372   19.1837 H   0  0  0  0  0  0
  -31.6183  -17.6443   19.0803 H   0  0  0  0  0  0
  -32.0271  -16.2959   18.0722 H   0  0  0  0  0  0
  -29.7479  -15.4770   18.0421 H   0  0  0  0  0  0
  -29.0791  -16.9590   18.5946 H   0  0  0  0  0  0
  1 25  1  0  0  0
  1 30  2  0  0  0
  1 87  1  0  0  0
  2  3  1  0  0  0
  2 25  1  0  0  0
  2 89  1  0  0  0
  2 90  1  0  0  0
  3  4  1  0  0  0
  3 91  1  0  0  0
  3 92  1  0  0  0
  4  5  1  0  0  0
  4 93  1  0  0  0
  4 94  1  0  0  0
  5  6  1  0  0  0
  5 26  1  0  0  0
  5 95  1  0  0  0
  6 25  1  0  0  0
  6 96  1  0  0  0
  6 97  1  0  0  0
  7  8  2  0  0  0
  7 26  1  0  0  0
  7 29  1  0  0  0
  8  9  1  0  0  0
  8 22  1  0  0  0
  9 10  1  0  0  0
  9 27  2  0  0  0
 10 11  2  0  0  0
 10 15  1  0  0  0
 11 12  1  0  0  0
 11 98  1  0  0  0
 12 13  2  0  0  0
 12 99  1  0  0  0
 13 14  1  0  0  0
 13 31  1  0  0  0
 14 15  2  0  0  0
 14100  1  0  0  0
 15101  1  0  0  0
 16 17  2  0  0  0
 16 21  1  0  0  0
 16 31  1  0  0  0
 17 18  1  0  0  0
 17102  1  0  0  0
 18 19  2  0  0  0
 18103  1  0  0  0
 19 20  1  0  0  0
 19 24  1  0  0  0
 20 21  2  0  0  0
 20104  1  0  0  0
 21 23  1  0  0  0
 22 28  1  0  0  0
 22 32  2  0  0  0
 26 27  1  0  0  0
 28105  1  0  0  0
 28106  1  0  0  0
 29107  1  0  0  0
 29108  1  0  0  0
 33 34  1  0  0  0
 33 66  1  0  0  0
 33 70  2  0  0  0
 34 36  1  0  0  0
 34 59  1  0  0  0
 34109  1  0  0  0
 35 44  2  0  0  0
 35 45  1  0  0  0
 35 68  1  0  0  0
 36 56  1  0  0  0
 36110  1  0  0  0
 37 39  1  0  0  0
 37 47  1  0  0  0
 37 66  1  0  0  0
 37111  1  0  0  0
 38 43  2  0  0  0
 38 46  1  0  0  0
 38 47  1  0  0  0
 39 64  1  0  0  0
 39 67  2  0  0  0
 40 52  1  0  0  0
 40 53  2  0  0  0
 40 58  1  0  0  0
 41112  1  0  0  0
 41113  1  0  0  0
 41114  1  0  0  0
 41 48  1  0  0  0
 42 43  1  0  0  0
 42 66  1  0  0  0
 42115  1  0  0  0
 42116  1  0  0  0
 43 44  1  0  0  0
 44117  1  0  0  0
 45 46  2  0  0  0
 45118  1  0  0  0
 46119  1  0  0  0
 47120  1  0  0  0
 47121  1  0  0  0
 48 56  1  0  0  0
 48 65  1  0  0  0
 48122  1  0  0  0
 49 50  1  0  0  0
 49 53  1  0  0  0
 49 64  1  0  0  0
 49123  1  0  0  0
 50 51  1  0  0  0
 50124  1  0  0  0
 50125  1  0  0  0
 51 52  1  0  0  0
 51126  1  0  0  0
 51127  1  0  0  0
 52128  1  0  0  0
 52129  1  0  0  0
 53 54  1  0  0  0
 54 55  2  0  0  0
 54130  1  0  0  0
 55 57  1  0  0  0
 55131  1  0  0  0
 56 69  2  0  0  0
 57 58  2  0  0  0
 57132  1  0  0  0
 58133  1  0  0  0
 59 60  1  0  0  0
 59 61  1  0  0  0
 59 62  1  0  0  0
 60134  1  0  0  0
 60135  1  0  0  0
 60136  1  0  0  0
 61137  1  0  0  0
 61138  1  0  0  0
 61139  1  0  0  0
 62140  1  0  0  0
 62141  1  0  0  0
 62142  1  0  0  0
 63 65  1  0  0  0
 63143  1  0  0  0
 63144  1  0  0  0
 63145  1  0  0  0
 64146  1  0  0  0
 65147  1  0  0  0
 68 83  1  0  0  0
 71 72  2  0  0  0
 71 74  1  0  0  0
 71148  1  0  0  0
 72 75  1  0  0  0
 72149  1  0  0  0
 73 74  2  0  0  0
 73 76  1  0  0  0
 73150  1  0  0  0
 74 82  1  0  0  0
 75 76  2  0  0  0
 75 86  1  0  0  0
 76 88  1  0  0  0
 77 78  1  0  0  0
 77 79  1  0  0  0
 77151  1  0  0  0
 77152  1  0  0  0
 78 80  1  0  0  0
 78153  1  0  0  0
 78154  1  0  0  0
 79 86  1  0  0  0
 79155  1  0  0  0
 79156  1  0  0  0
 80 83  1  0  0  0
 80 86  1  0  0  0
 80157  1  0  0  0
 81 84  1  0  0  0
 81158  1  0  0  0
 81159  1  0  0  0
 81160  1  0  0  0
 82 87  1  0  0  0
 82161  1  0  0  0
 82162  1  0  0  0
 83163  1  0  0  0
 83164  1  0  0  0
 84 85  1  0  0  0
 84165  1  0  0  0
 84166  1  0  0  0
 85 87  1  0  0  0
 85167  1  0  0  0
 85168  1  0  0  0
M  ISO  4   1 100  68 101  83 101  87 100
M  END
> <chiral flag>
0

> <version>
0

> <s_m_source_file>
/data/baiqing/PycharmProjects/Reinvent-master-3.2/result/LINK_invent/BTK/process_docking_weight1_custom_product_contain_oxygen_bond_distance_aromatic_linkinvent_7_9_3/rearranged_h_0018.sdf

> <i_m_source_file_index>
65

> <r_mmod_Potential_Energy-OPLS-2005>
496.030670166016

> <r_mmod_Stretch_Energy-OPLS-2005>
102.36971282959

> <r_mmod_Bend_Energy-OPLS-2005>
216.621597290039

> <r_mmod_Torsional_Energy-OPLS-2005>
391.323303222656

> <r_mmod_Improper_Torsional_Energy-OPLS-2005>
26.1963558197021

> <r_mmod_Van_der_Waal_Energy-OPLS-2005>
144.445220947266

> <r_mmod_Electrostatic_Energy-OPLS-2005>
-243.970275878906

> <r_mmod_Solvation_Energy-OPLS-2005>
-204.645462036133

> <b_mmod_Minimization_Converged-OPLS-2005>
0

> <r_mmod_RMS_Derivative-OPLS-2005>
8.47803688049316

$$$$
65
                    3D
 Structure written by MMmdl.
166175  0  0  1  0            999 V2000
  -30.7249  -14.4758   20.6125 C   0  0  0  0  0  0
  -30.4194  -12.3299   19.4179 C   0  0  0  0  0  0
  -29.4871  -12.5074   18.2031 C   0  0  0  0  0  0
  -28.0137  -12.3452   18.6222 C   0  0  0  0  0  0
  -27.6539  -13.1971   19.8663 C   0  0  2  0  0  0
  -28.6970  -13.0012   20.9891 C   0  0  0  0  0  0
  -25.2554  -13.8124   20.5661 C   0  0  0  0  0  0
  -24.1814  -13.0424   20.9184 C   0  0  0  0  0  0
  -24.6356  -11.6885   20.8742 C   0  0  0  0  0  0
  -23.9030  -10.4282   21.0410 C   0  0  0  0  0  0
  -24.3598   -9.4203   21.9182 C   0  0  0  0  0  0
  -23.6285   -8.2233   22.0746 C   0  0  0  0  0  0
  -22.4261   -8.0273   21.3545 C   0  0  0  0  0  0
  -21.9893   -9.0244   20.4643 C   0  0  0  0  0  0
  -22.7208  -10.2127   20.3054 C   0  0  0  0  0  0
  -21.6852   -6.0733   22.5275 C   0  0  0  0  0  0
  -21.4011   -6.5633   23.8213 C   0  0  0  0  0  0
  -21.3657   -5.6786   24.9174 C   0  0  0  0  0  0
  -21.6043   -4.3049   24.7226 C   0  0  0  0  0  0
  -21.8821   -3.8144   23.4348 C   0  0  0  0  0  0
  -21.9194   -4.6961   22.3402 C   0  0  0  0  0  0
  -22.7844  -13.5228   21.1871 C   0  0  0  0  0  0
  -22.1665   -4.2147   21.0982 F   0  0  0  0  0  0
  -21.5634   -3.4536   25.7742 F   0  0  0  0  0  0
  -30.0253  -13.3165   20.4382 N   0  0  0  0  0  0
  -26.2973  -12.9276   20.3324 N   0  0  0  0  0  0
  -25.9274  -11.6448   20.5754 N   0  0  0  0  0  0
  -22.0495  -12.8214   22.0425 N   0  0  0  0  0  0
  -25.4262  -15.1845   20.4027 N   0  0  0  0  0  0
  -31.8379  -14.6499   20.1042 O   0  0  0  0  0  0
  -21.6627   -6.8874   21.4238 O   0  0  0  0  0  0
  -22.3524  -14.5540   20.6721 O   0  0  0  0  0  0
  -24.6162  -31.8687   23.2097 C   0  0  0  0  0  0
  -25.9043  -32.4824   23.8403 C   0  0  1  0  0  0
  -27.2171  -27.4085   20.0986 C   0  0  0  0  0  0
  -25.5895  -33.8620   24.2327 N   0  0  0  0  0  0
  -23.4044  -30.4987   21.5488 C   0  0  2  0  0  0
  -24.8456  -28.9668   20.1097 C   0  0  0  0  0  0
  -22.7411  -29.4691   22.4942 C   0  0  0  0  0  0
  -18.0286  -28.1342   22.8454 C   0  0  0  0  0  0
  -24.1487  -36.7325   23.2640 C   0  0  0  0  0  0
  -25.9366  -30.8270   21.3663 C   0  0  0  0  0  0
  -26.0074  -29.4607   20.7137 C   0  0  0  0  0  0
  -27.1939  -28.6881   20.7087 C   0  0  0  0  0  0
  -26.0394  -26.9568   19.4558 C   0  0  0  0  0  0
  -24.8575  -27.7160   19.4779 C   0  0  0  0  0  0
  -23.6125  -29.8388   20.1609 C   0  0  0  0  0  0
  -25.4105  -36.3109   24.0345 C   0  0  1  0  0  0
  -20.5875  -28.3715   23.1324 C   0  0  2  0  0  0
  -20.6827  -26.9452   22.5414 C   0  0  0  0  0  0
  -19.5820  -26.6416   21.5189 C   0  0  0  0  0  0
  -18.1995  -26.7880   22.1616 C   0  0  0  0  0  0
  -19.1514  -28.8842   23.2879 C   0  0  0  0  0  0
  -18.9392  -30.1451   23.8883 C   0  0  0  0  0  0
  -17.6367  -30.6522   24.0579 C   0  0  0  0  0  0
  -25.9033  -34.9478   23.5135 C   0  0  0  0  0  0
  -16.5293  -29.8987   23.6314 C   0  0  0  0  0  0
  -16.7264  -28.6433   23.0295 C   0  0  0  0  0  0
  -26.4474  -31.6586   25.0717 C   0  0  0  0  0  0
  -25.3760  -31.3684   26.1483 C   0  0  0  0  0  0
  -27.0295  -30.3024   24.6083 C   0  0  0  0  0  0
  -27.6050  -32.4306   25.7473 C   0  0  0  0  0  0
  -27.5578  -37.1818   24.8471 C   0  0  0  0  0  0
  -21.4130  -29.3104   22.3739 N   0  0  0  0  0  0
  -26.4283  -37.3799   23.9419 N   0  0  0  0  0  0
  -24.6712  -31.0801   22.0992 N   0  0  0  0  0  0
  -23.4188  -28.8200   23.2956 O   0  0  0  0  0  0
  -28.3777  -26.6518   20.1508 O   0  0  0  0  0  0
  -26.5600  -34.8924   22.4699 O   0  0  0  0  0  0
  -23.5350  -32.1428   23.7496 O   0  0  0  0  0  0
  -29.6158  -20.0375   20.2771 C   0  0  0  0  0  0
  -29.6277  -18.6299   20.1329 C   0  0  0  0  0  0
  -28.6717  -19.7958   22.4980 C   0  0  0  0  0  0
  -29.1243  -20.6413   21.4574 C   0  0  0  0  0  0
  -29.1411  -17.7902   21.1617 C   0  0  0  0  0  0
  -28.6629  -18.3920   22.3491 C   0  0  0  0  0  0
  -26.1395  -23.4803   22.5650 C   0  0  0  0  0  0
  -26.5923  -24.7531   21.8730 C   0  0  0  0  0  0
  -26.6405  -22.4084   21.6048 C   0  0  0  0  0  0
  -27.9632  -24.3930   21.2659 C   0  0  2  0  0  0
  -31.0489  -16.0204   22.4503 C   0  0  0  0  0  0
  -29.0573  -16.2654   20.9596 C   0  0  0  0  0  0
  -29.1261  -22.1729   21.6365 C   0  0  0  0  0  0
  -28.3238  -25.2108   19.9788 C   0  0  0  0  0  0
  -30.1862  -15.4202   21.4270 N   0  0  0  0  0  0
  -27.9406  -22.8948   21.0713 N   0  3  1  0  0  0
  -28.1759  -17.6228   23.3517 F   0  0  0  0  0  0
  -31.4608  -12.4342   19.1087 H   0  0  0  0  0  0
  -30.3353  -11.3203   19.8232 H   0  0  0  0  0  0
  -29.7374  -11.7830   17.4268 H   0  0  0  0  0  0
  -29.6368  -13.4933   17.7608 H   0  0  0  0  0  0
  -27.8469  -11.2893   18.8389 H   0  0  0  0  0  0
  -27.3536  -12.5900   17.7892 H   0  0  0  0  0  0
  -27.6860  -14.2342   19.5415 H   0  0  0  0  0  0
  -28.6820  -11.9676   21.3357 H   0  0  0  0  0  0
  -28.4464  -13.6015   21.8635 H   0  0  0  0  0  0
  -25.2753   -9.5674   22.4749 H   0  0  0  0  0  0
  -24.0007   -7.4613   22.7441 H   0  0  0  0  0  0
  -21.0840   -8.8752   19.8943 H   0  0  0  0  0  0
  -22.3671  -10.9668   19.6161 H   0  0  0  0  0  0
  -21.1997   -7.6141   23.9713 H   0  0  0  0  0  0
  -21.1480   -6.0518   25.9077 H   0  0  0  0  0  0
  -22.0604   -2.7608   23.2843 H   0  0  0  0  0  0
  -22.4127  -11.9882   22.4810 H   0  0  0  0  0  0
  -21.1113  -13.1230   22.2654 H   0  0  0  0  0  0
  -24.6532  -15.8343   20.4944 H   0  0  0  0  0  0
  -26.2687  -15.6221   20.0563 H   0  0  0  0  0  0
  -26.7114  -32.5536   23.1167 H   0  0  0  0  0  0
  -25.0021  -33.9799   25.0456 H   0  0  0  0  0  0
  -22.6966  -31.3193   21.4130 H   0  0  0  0  0  0
  -23.3729  -35.9681   23.3309 H   0  0  0  0  0  0
  -24.3573  -36.8931   22.2053 H   0  0  0  0  0  0
  -23.7266  -37.6543   23.6649 H   0  0  0  0  0  0
  -26.0517  -31.5907   20.5949 H   0  0  0  0  0  0
  -26.8245  -30.8789   21.9853 H   0  0  0  0  0  0
  -28.0884  -29.0637   21.1882 H   0  0  0  0  0  0
  -25.9864  -26.0139   18.9361 H   0  0  0  0  0  0
  -23.9663  -27.3351   18.9982 H   0  0  0  0  0  0
  -23.7281  -30.6171   19.4061 H   0  0  0  0  0  0
  -22.7340  -29.2653   19.8570 H   0  0  0  0  0  0
  -25.1280  -36.1971   25.0837 H   0  0  0  0  0  0
  -20.9932  -28.3321   24.1469 H   0  0  0  0  0  0
  -20.5700  -26.2350   23.3607 H   0  0  0  0  0  0
  -21.6713  -26.7498   22.1215 H   0  0  0  0  0  0
  -19.6948  -25.6328   21.1195 H   0  0  0  0  0  0
  -19.6728  -27.3249   20.6738 H   0  0  0  0  0  0
  -17.4275  -26.6513   21.4024 H   0  0  0  0  0  0
  -18.0479  -26.0020   22.9043 H   0  0  0  0  0  0
  -19.7837  -30.7323   24.2237 H   0  0  0  0  0  0
  -17.4847  -31.6157   24.5243 H   0  0  0  0  0  0
  -15.5265  -30.2819   23.7657 H   0  0  0  0  0  0
  -15.8687  -28.0738   22.6969 H   0  0  0  0  0  0
  -24.5938  -30.7020   25.7830 H   0  0  0  0  0  0
  -24.8955  -32.2835   26.4945 H   0  0  0  0  0  0
  -25.8141  -30.8853   27.0227 H   0  0  0  0  0  0
  -26.2829  -29.6763   24.1189 H   0  0  0  0  0  0
  -27.4113  -29.7264   25.4519 H   0  0  0  0  0  0
  -27.8639  -30.4316   23.9192 H   0  0  0  0  0  0
  -27.2668  -33.3591   26.2085 H   0  0  0  0  0  0
  -28.3838  -32.6892   25.0286 H   0  0  0  0  0  0
  -28.0741  -31.8411   26.5360 H   0  0  0  0  0  0
  -28.2608  -38.0099   24.7493 H   0  0  0  0  0  0
  -28.1055  -36.2634   24.6313 H   0  0  0  0  0  0
  -27.2308  -37.1503   25.8876 H   0  0  0  0  0  0
  -20.9265  -29.8865   21.7005 H   0  0  0  0  0  0
  -26.0159  -38.2870   24.1422 H   0  0  0  0  0  0
  -29.9922  -20.6517   19.4704 H   0  0  0  0  0  0
  -29.9927  -18.1955   19.2121 H   0  0  0  0  0  0
  -28.3074  -20.2196   23.4227 H   0  0  0  0  0  0
  -25.0611  -23.4405   22.7170 H   0  0  0  0  0  0
  -26.6214  -23.3760   23.5377 H   0  0  0  0  0  0
  -26.6395  -25.6095   22.5473 H   0  0  0  0  0  0
  -25.8620  -24.9745   21.0961 H   0  0  0  0  0  0
  -25.9443  -22.3208   20.7687 H   0  0  0  0  0  0
  -26.6644  -21.4314   22.0817 H   0  0  0  0  0  0
  -28.7163  -24.6273   22.0204 H   0  0  0  0  0  0
  -31.6375  -16.8395   22.0342 H   0  0  0  0  0  0
  -31.7447  -15.2897   22.8668 H   0  0  0  0  0  0
  -30.4597  -16.4001   23.2847 H   0  0  0  0  0  0
  -28.8944  -16.1032   19.8920 H   0  0  0  0  0  0
  -28.1503  -15.9141   21.4527 H   0  0  0  0  0  0
  -30.0337  -22.5717   21.1820 H   0  0  0  0  0  0
  -29.2033  -22.3950   22.7030 H   0  0  0  0  0  0
  -27.7057  -24.9136   19.1346 H   0  0  0  0  0  0
  -29.3293  -24.9171   19.6765 H   0  0  0  0  0  0
  -27.9344  -22.6899   20.0822 H   0  0  0  0  0  0
  1 25  1  0  0  0
  1 30  2  0  0  0
  1 85  1  0  0  0
  2  3  1  0  0  0
  2 25  1  0  0  0
  2 88  1  0  0  0
  2 89  1  0  0  0
  3  4  1  0  0  0
  3 90  1  0  0  0
  3 91  1  0  0  0
  4  5  1  0  0  0
  4 92  1  0  0  0
  4 93  1  0  0  0
  5  6  1  0  0  0
  5 26  1  0  0  0
  5 94  1  0  0  0
  6 25  1  0  0  0
  6 95  1  0  0  0
  6 96  1  0  0  0
  7  8  2  0  0  0
  7 26  1  0  0  0
  7 29  1  0  0  0
  8  9  1  0  0  0
  8 22  1  0  0  0
  9 10  1  0  0  0
  9 27  2  0  0  0
 10 11  2  0  0  0
 10 15  1  0  0  0
 11 12  1  0  0  0
 11 97  1  0  0  0
 12 13  2  0  0  0
 12 98  1  0  0  0
 13 14  1  0  0  0
 13 31  1  0  0  0
 14 15  2  0  0  0
 14 99  1  0  0  0
 15100  1  0  0  0
 16 17  2  0  0  0
 16 21  1  0  0  0
 16 31  1  0  0  0
 17 18  1  0  0  0
 17101  1  0  0  0
 18 19  2  0  0  0
 18102  1  0  0  0
 19 20  1  0  0  0
 19 24  1  0  0  0
 20 21  2  0  0  0
 20103  1  0  0  0
 21 23  1  0  0  0
 22 28  1  0  0  0
 22 32  2  0  0  0
 26 27  1  0  0  0
 28104  1  0  0  0
 28105  1  0  0  0
 29106  1  0  0  0
 29107  1  0  0  0
 33 34  1  0  0  0
 33 66  1  0  0  0
 33 70  2  0  0  0
 34 36  1  0  0  0
 34 59  1  0  0  0
 34108  1  0  0  0
 35 44  2  0  0  0
 35 45  1  0  0  0
 35 68  1  0  0  0
 36 56  1  0  0  0
 36109  1  0  0  0
 37 39  1  0  0  0
 37 47  1  0  0  0
 37 66  1  0  0  0
 37110  1  0  0  0
 38 43  2  0  0  0
 38 46  1  0  0  0
 38 47  1  0  0  0
 39 64  1  0  0  0
 39 67  2  0  0  0
 40 52  1  0  0  0
 40 53  2  0  0  0
 40 58  1  0  0  0
 41111  1  0  0  0
 41112  1  0  0  0
 41113  1  0  0  0
 41 48  1  0  0  0
 42 43  1  0  0  0
 42 66  1  0  0  0
 42114  1  0  0  0
 42115  1  0  0  0
 43 44  1  0  0  0
 44116  1  0  0  0
 45 46  2  0  0  0
 45117  1  0  0  0
 46118  1  0  0  0
 47119  1  0  0  0
 47120  1  0  0  0
 48 56  1  0  0  0
 48 65  1  0  0  0
 48121  1  0  0  0
 49 50  1  0  0  0
 49 53  1  0  0  0
 49 64  1  0  0  0
 49122  1  0  0  0
 50 51  1  0  0  0
 50123  1  0  0  0
 50124  1  0  0  0
 51 52  1  0  0  0
 51125  1  0  0  0
 51126  1  0  0  0
 52127  1  0  0  0
 52128  1  0  0  0
 53 54  1  0  0  0
 54 55  2  0  0  0
 54129  1  0  0  0
 55 57  1  0  0  0
 55130  1  0  0  0
 56 69  2  0  0  0
 57 58  2  0  0  0
 57131  1  0  0  0
 58132  1  0  0  0
 59 60  1  0  0  0
 59 61  1  0  0  0
 59 62  1  0  0  0
 60133  1  0  0  0
 60134  1  0  0  0
 60135  1  0  0  0
 61136  1  0  0  0
 61137  1  0  0  0
 61138  1  0  0  0
 62139  1  0  0  0
 62140  1  0  0  0
 62141  1  0  0  0
 63 65  1  0  0  0
 63142  1  0  0  0
 63143  1  0  0  0
 63144  1  0  0  0
 64145  1  0  0  0
 65146  1  0  0  0
 68 84  1  0  0  0
 71 72  2  0  0  0
 71 74  1  0  0  0
 71147  1  0  0  0
 72 75  1  0  0  0
 72148  1  0  0  0
 73 74  2  0  0  0
 73 76  1  0  0  0
 73149  1  0  0  0
 74 83  1  0  0  0
 75 76  2  0  0  0
 75 82  1  0  0  0
 76 87  1  0  0  0
 77 78  1  0  0  0
 77 79  1  0  0  0
 77150  1  0  0  0
 77151  1  0  0  0
 78 80  1  0  0  0
 78152  1  0  0  0
 78153  1  0  0  0
 79 86  1  0  0  0
 79154  1  0  0  0
 79155  1  0  0  0
 80 84  1  0  0  0
 80 86  1  0  0  0
 80156  1  0  0  0
 81 85  1  0  0  0
 81157  1  0  0  0
 81158  1  0  0  0
 81159  1  0  0  0
 82 85  1  0  0  0
 82160  1  0  0  0
 82161  1  0  0  0
 83162  1  0  0  0
 83163  1  0  0  0
 83 86  1  0  0  0
 84164  1  0  0  0
 84165  1  0  0  0
 86166  1  0  0  0
M  CHG  1  86   1
M  ISO  4   1 100  68 101  84 101  85 100
M  END
> <chiral flag>
0

> <version>
0

> <s_m_source_file>
/data/baiqing/PycharmProjects/Reinvent-master-3.2/result/LINK_invent/BTK/process_docking_weight1_custom_product_contain_oxygen_bond_distance_aromatic_linkinvent_7_9_3/rearranged_h_0018.sdf

> <i_m_source_file_index>
66

> <r_mmod_Potential_Energy-OPLS-2005>
84.7449722290039

> <r_mmod_Stretch_Energy-OPLS-2005>
47.73388671875

> <r_mmod_Bend_Energy-OPLS-2005>
135.802032470703

> <r_mmod_Torsional_Energy-OPLS-2005>
316.240631103516

> <r_mmod_Improper_Torsional_Energy-OPLS-2005>
4.03636264801025

> <r_mmod_Van_der_Waal_Energy-OPLS-2005>
149.387222290039

> <r_mmod_Electrostatic_Energy-OPLS-2005>
-167.505905151367

> <r_mmod_Solvation_Energy-OPLS-2005>
-417.537292480469

> <b_mmod_Minimization_Converged-OPLS-2005>
0

> <r_mmod_RMS_Derivative-OPLS-2005>
2.46329379081726

$$$$
66
                    3D
 Structure written by MMmdl.
157165  0  0  1  0            999 V2000
  -30.6945  -14.6279   20.2880 C   0  0  0  0  0  0
  -30.4167  -12.3652   19.4037 C   0  0  0  0  0  0
  -29.4743  -12.4443   18.1880 C   0  0  0  0  0  0
  -28.0051  -12.3104   18.6327 C   0  0  0  0  0  0
  -27.6411  -13.2065   19.8488 C   0  0  2  0  0  0
  -28.7189  -13.1672   20.9499 C   0  0  0  0  0  0
  -25.2573  -13.8155   20.5791 C   0  0  0  0  0  0
  -24.1823  -13.0430   20.9256 C   0  0  0  0  0  0
  -24.6382  -11.6907   20.8799 C   0  0  0  0  0  0
  -23.9061  -10.4297   21.0430 C   0  0  0  0  0  0
  -24.3623   -9.4209   21.9199 C   0  0  0  0  0  0
  -23.6302   -8.2242   22.0755 C   0  0  0  0  0  0
  -22.4287   -8.0280   21.3540 C   0  0  0  0  0  0
  -21.9922   -9.0256   20.4644 C   0  0  0  0  0  0
  -22.7246  -10.2137   20.3061 C   0  0  0  0  0  0
  -21.6859   -6.0730   22.5273 C   0  0  0  0  0  0
  -21.4014   -6.5635   23.8200 C   0  0  0  0  0  0
  -21.3665   -5.6791   24.9165 C   0  0  0  0  0  0
  -21.6048   -4.3055   24.7211 C   0  0  0  0  0  0
  -21.8819   -3.8140   23.4334 C   0  0  0  0  0  0
  -21.9194   -4.6959   22.3391 C   0  0  0  0  0  0
  -22.7852  -13.5238   21.1871 C   0  0  0  0  0  0
  -22.1663   -4.2144   21.0968 F   0  0  0  0  0  0
  -21.5642   -3.4544   25.7729 F   0  0  0  0  0  0
  -30.0058  -13.4501   20.3021 N   0  0  0  0  0  0
  -26.2983  -12.9311   20.3433 N   0  0  0  0  0  0
  -25.9308  -11.6481   20.5854 N   0  0  0  0  0  0
  -22.0467  -12.8229   22.0400 N   0  0  0  0  0  0
  -25.4284  -15.1871   20.4211 N   0  0  0  0  0  0
  -31.9138  -14.6312   20.4618 O   0  0  0  0  0  0
  -21.6645   -6.8879   21.4238 O   0  0  0  0  0  0
  -22.3568  -14.5549   20.6703 O   0  0  0  0  0  0
  -24.6168  -31.8646   23.2060 C   0  0  0  0  0  0
  -25.9040  -32.4812   23.8386 C   0  0  1  0  0  0
  -27.2343  -27.4016   20.1141 C   0  0  0  0  0  0
  -25.5880  -33.8611   24.2328 N   0  0  0  0  0  0
  -23.4089  -30.4866   21.5464 C   0  0  2  0  0  0
  -24.8574  -28.9424   20.1194 C   0  0  0  0  0  0
  -22.7434  -29.4661   22.4968 C   0  0  0  0  0  0
  -18.0284  -28.1396   22.8508 C   0  0  0  0  0  0
  -24.1477  -36.7296   23.2646 C   0  0  0  0  0  0
  -25.9390  -30.8242   21.3596 C   0  0  0  0  0  0
  -26.0193  -29.4539   20.7113 C   0  0  0  0  0  0
  -27.2148  -28.6937   20.6987 C   0  0  0  0  0  0
  -26.0577  -26.9108   19.5131 C   0  0  0  0  0  0
  -24.8736  -27.6729   19.5139 C   0  0  0  0  0  0
  -23.6206  -29.8125   20.1642 C   0  0  0  0  0  0
  -25.4102  -36.3116   24.0355 C   0  0  1  0  0  0
  -20.5878  -28.3700   23.1313 C   0  0  2  0  0  0
  -20.6775  -26.9431   22.5425 C   0  0  0  0  0  0
  -19.5748  -26.6394   21.5226 C   0  0  0  0  0  0
  -18.1924  -26.7949   22.1632 C   0  0  0  0  0  0
  -19.1533  -28.8865   23.2904 C   0  0  0  0  0  0
  -18.9463  -30.1475   23.8909 C   0  0  0  0  0  0
  -17.6459  -30.6596   24.0588 C   0  0  0  0  0  0
  -25.9029  -34.9477   23.5139 C   0  0  0  0  0  0
  -16.5351  -29.9106   23.6331 C   0  0  0  0  0  0
  -16.7272  -28.6527   23.0344 C   0  0  0  0  0  0
  -26.4464  -31.6594   25.0715 C   0  0  0  0  0  0
  -25.3730  -31.3689   26.1466 C   0  0  0  0  0  0
  -27.0306  -30.3050   24.6071 C   0  0  0  0  0  0
  -27.6052  -32.4311   25.7459 C   0  0  0  0  0  0
  -27.5580  -37.1802   24.8477 C   0  0  0  0  0  0
  -21.4160  -29.3054   22.3713 N   0  0  0  0  0  0
  -26.4287  -37.3803   23.9429 N   0  0  0  0  0  0
  -24.6739  -31.0734   22.0958 N   0  0  0  0  0  0
  -23.4197  -28.8215   23.3025 O   0  0  0  0  0  0
  -28.3804  -26.6293   20.1003 O   0  0  0  0  0  0
  -26.5588  -34.8938   22.4704 O   0  0  0  0  0  0
  -23.5353  -32.1370   23.7450 O   0  0  0  0  0  0
  -27.7144  -19.0108   19.4142 C   0  0  0  0  0  0
  -27.3692  -17.8570   18.6912 C   0  0  0  0  0  0
  -29.6713  -17.8460   20.3006 C   0  0  0  0  0  0
  -28.8973  -19.0493   20.1850 C   0  0  0  0  0  0
  -29.3244  -16.6616   19.5771 C   0  0  0  0  0  0
  -28.1927  -16.7198   18.7268 C   0  0  0  0  0  0
  -29.2951  -20.3468   20.8774 C   0  0  0  0  0  0
  -31.1211  -15.8039   18.2273 C   0  0  0  0  0  0
  -28.6012  -24.0794   20.0711 C   0  0  0  0  0  0
  -28.9147  -22.8467   20.9885 C   0  0  0  0  0  0
  -28.3313  -25.3990   20.8653 C   0  0  0  0  0  0
  -28.8451  -21.5119   20.3442 N   0  0  0  0  0  0
  -30.2341  -15.5560   19.3812 N   0  0  0  0  0  0
  -30.0124  -20.3175   21.8784 O   0  0  0  0  0  0
  -27.9284  -15.7112   17.8625 F   0  0  0  0  0  0
  -31.4545  -12.4681   19.0799 H   0  0  0  0  0  0
  -30.3414  -11.3993   19.9031 H   0  0  0  0  0  0
  -29.7192  -11.6617   17.4699 H   0  0  0  0  0  0
  -29.6081  -13.3880   17.6594 H   0  0  0  0  0  0
  -27.8428  -11.2648   18.8902 H   0  0  0  0  0  0
  -27.3381  -12.5199   17.7952 H   0  0  0  0  0  0
  -27.6221  -14.2212   19.4856 H   0  0  0  0  0  0
  -28.7442  -12.1935   21.4403 H   0  0  0  0  0  0
  -28.5108  -13.9111   21.7203 H   0  0  0  0  0  0
  -25.2758   -9.5700   22.4780 H   0  0  0  0  0  0
  -24.0007   -7.4632   22.7474 H   0  0  0  0  0  0
  -21.0844   -8.8779   19.8958 H   0  0  0  0  0  0
  -22.3700  -10.9683   19.6177 H   0  0  0  0  0  0
  -21.2005   -7.6143   23.9703 H   0  0  0  0  0  0
  -21.1498   -6.0520   25.9070 H   0  0  0  0  0  0
  -22.0597   -2.7604   23.2827 H   0  0  0  0  0  0
  -22.4084  -11.9901   22.4812 H   0  0  0  0  0  0
  -21.1075  -13.1248   22.2551 H   0  0  0  0  0  0
  -24.6609  -15.8428   20.5119 H   0  0  0  0  0  0
  -26.2742  -15.6141   20.0688 H   0  0  0  0  0  0
  -26.7116  -32.5522   23.1164 H   0  0  0  0  0  0
  -25.0087  -33.9775   25.0515 H   0  0  0  0  0  0
  -22.6983  -31.3032   21.4018 H   0  0  0  0  0  0
  -23.3752  -35.9612   23.3311 H   0  0  0  0  0  0
  -24.3568  -36.8883   22.2053 H   0  0  0  0  0  0
  -23.7189  -37.6498   23.6636 H   0  0  0  0  0  0
  -26.0472  -31.5853   20.5862 H   0  0  0  0  0  0
  -26.8288  -30.8841   21.9745 H   0  0  0  0  0  0
  -28.1157  -29.0891   21.1469 H   0  0  0  0  0  0
  -26.0565  -25.9355   19.0470 H   0  0  0  0  0  0
  -23.9799  -27.2750   19.0529 H   0  0  0  0  0  0
  -23.7398  -30.5819   19.4003 H   0  0  0  0  0  0
  -22.7446  -29.2342   19.8664 H   0  0  0  0  0  0
  -25.1273  -36.1992   25.0846 H   0  0  0  0  0  0
  -20.9981  -28.3260   24.1428 H   0  0  0  0  0  0
  -20.5694  -26.2295   23.3605 H   0  0  0  0  0  0
  -21.6639  -26.7468   22.1203 H   0  0  0  0  0  0
  -19.6886  -25.6303   21.1245 H   0  0  0  0  0  0
  -19.6677  -27.3223   20.6770 H   0  0  0  0  0  0
  -17.4196  -26.6729   21.4027 H   0  0  0  0  0  0
  -18.0315  -26.0087   22.9023 H   0  0  0  0  0  0
  -19.7931  -30.7309   24.2257 H   0  0  0  0  0  0
  -17.5005  -31.6271   24.5206 H   0  0  0  0  0  0
  -15.5355  -30.3007   23.7639 H   0  0  0  0  0  0
  -15.8676  -28.0850   22.7028 H   0  0  0  0  0  0
  -24.5931  -30.7001   25.7800 H   0  0  0  0  0  0
  -24.8903  -32.2844   26.4904 H   0  0  0  0  0  0
  -25.8099  -30.8873   27.0223 H   0  0  0  0  0  0
  -26.2838  -29.6775   24.1193 H   0  0  0  0  0  0
  -27.4176  -29.7316   25.4502 H   0  0  0  0  0  0
  -27.8624  -30.4397   23.9152 H   0  0  0  0  0  0
  -27.2702  -33.3631   26.2029 H   0  0  0  0  0  0
  -28.3864  -32.6826   25.0268 H   0  0  0  0  0  0
  -28.0715  -31.8426   26.5373 H   0  0  0  0  0  0
  -28.2626  -38.0080   24.7550 H   0  0  0  0  0  0
  -28.1053  -36.2620   24.6285 H   0  0  0  0  0  0
  -27.2306  -37.1432   25.8883 H   0  0  0  0  0  0
  -20.9309  -29.8745   21.6914 H   0  0  0  0  0  0
  -26.0179  -38.2879   24.1448 H   0  0  0  0  0  0
  -27.0751  -19.8798   19.3333 H   0  0  0  0  0  0
  -26.4962  -17.8638   18.0560 H   0  0  0  0  0  0
  -30.5832  -17.8657   20.8798 H   0  0  0  0  0  0
  -31.9914  -16.3942   18.5214 H   0  0  0  0  0  0
  -30.6121  -16.3497   17.4309 H   0  0  0  0  0  0
  -31.4820  -14.8733   17.7867 H   0  0  0  0  0  0
  -27.7383  -23.8726   19.4383 H   0  0  0  0  0  0
  -29.4445  -24.2403   19.3982 H   0  0  0  0  0  0
  -28.2124  -22.8423   21.8244 H   0  0  0  0  0  0
  -29.9036  -22.9828   21.4316 H   0  0  0  0  0  0
  -29.0947  -25.4918   21.6384 H   0  0  0  0  0  0
  -27.3882  -25.3029   21.4094 H   0  0  0  0  0  0
  -28.3133  -21.4389   19.4871 H   0  0  0  0  0  0
  1 25  1  0  0  0
  1 30  2  0  0  0
  1 83  1  0  0  0
  2  3  1  0  0  0
  2 25  1  0  0  0
  2 86  1  0  0  0
  2 87  1  0  0  0
  3  4  1  0  0  0
  3 88  1  0  0  0
  3 89  1  0  0  0
  4  5  1  0  0  0
  4 90  1  0  0  0
  4 91  1  0  0  0
  5  6  1  0  0  0
  5 26  1  0  0  0
  5 92  1  0  0  0
  6 25  1  0  0  0
  6 93  1  0  0  0
  6 94  1  0  0  0
  7  8  2  0  0  0
  7 26  1  0  0  0
  7 29  1  0  0  0
  8  9  1  0  0  0
  8 22  1  0  0  0
  9 10  1  0  0  0
  9 27  2  0  0  0
 10 11  2  0  0  0
 10 15  1  0  0  0
 11 12  1  0  0  0
 11 95  1  0  0  0
 12 13  2  0  0  0
 12 96  1  0  0  0
 13 14  1  0  0  0
 13 31  1  0  0  0
 14 15  2  0  0  0
 14 97  1  0  0  0
 15 98  1  0  0  0
 16 17  2  0  0  0
 16 21  1  0  0  0
 16 31  1  0  0  0
 17 18  1  0  0  0
 17 99  1  0  0  0
 18 19  2  0  0  0
 18100  1  0  0  0
 19 20  1  0  0  0
 19 24  1  0  0  0
 20 21  2  0  0  0
 20101  1  0  0  0
 21 23  1  0  0  0
 22 28  1  0  0  0
 22 32  2  0  0  0
 26 27  1  0  0  0
 28102  1  0  0  0
 28103  1  0  0  0
 29104  1  0  0  0
 29105  1  0  0  0
 33 34  1  0  0  0
 33 66  1  0  0  0
 33 70  2  0  0  0
 34 36  1  0  0  0
 34 59  1  0  0  0
 34106  1  0  0  0
 35 44  2  0  0  0
 35 45  1  0  0  0
 35 68  1  0  0  0
 36 56  1  0  0  0
 36107  1  0  0  0
 37 39  1  0  0  0
 37 47  1  0  0  0
 37 66  1  0  0  0
 37108  1  0  0  0
 38 43  2  0  0  0
 38 46  1  0  0  0
 38 47  1  0  0  0
 39 64  1  0  0  0
 39 67  2  0  0  0
 40 52  1  0  0  0
 40 53  2  0  0  0
 40 58  1  0  0  0
 41109  1  0  0  0
 41110  1  0  0  0
 41111  1  0  0  0
 41 48  1  0  0  0
 42 43  1  0  0  0
 42 66  1  0  0  0
 42112  1  0  0  0
 42113  1  0  0  0
 43 44  1  0  0  0
 44114  1  0  0  0
 45 46  2  0  0  0
 45115  1  0  0  0
 46116  1  0  0  0
 47117  1  0  0  0
 47118  1  0  0  0
 48 56  1  0  0  0
 48 65  1  0  0  0
 48119  1  0  0  0
 49 50  1  0  0  0
 49 53  1  0  0  0
 49 64  1  0  0  0
 49120  1  0  0  0
 50 51  1  0  0  0
 50121  1  0  0  0
 50122  1  0  0  0
 51 52  1  0  0  0
 51123  1  0  0  0
 51124  1  0  0  0
 52125  1  0  0  0
 52126  1  0  0  0
 53 54  1  0  0  0
 54 55  2  0  0  0
 54127  1  0  0  0
 55 57  1  0  0  0
 55128  1  0  0  0
 56 69  2  0  0  0
 57 58  2  0  0  0
 57129  1  0  0  0
 58130  1  0  0  0
 59 60  1  0  0  0
 59 61  1  0  0  0
 59 62  1  0  0  0
 60131  1  0  0  0
 60132  1  0  0  0
 60133  1  0  0  0
 61134  1  0  0  0
 61135  1  0  0  0
 61136  1  0  0  0
 62137  1  0  0  0
 62138  1  0  0  0
 62139  1  0  0  0
 63 65  1  0  0  0
 63140  1  0  0  0
 63141  1  0  0  0
 63142  1  0  0  0
 64143  1  0  0  0
 65144  1  0  0  0
 68 81  1  0  0  0
 71 72  2  0  0  0
 71 74  1  0  0  0
 71145  1  0  0  0
 72 76  1  0  0  0
 72146  1  0  0  0
 73 74  2  0  0  0
 73 75  1  0  0  0
 73147  1  0  0  0
 74 77  1  0  0  0
 75 76  2  0  0  0
 75 83  1  0  0  0
 76 85  1  0  0  0
 77 82  1  0  0  0
 77 84  2  0  0  0
 78 83  1  0  0  0
 78148  1  0  0  0
 78149  1  0  0  0
 78150  1  0  0  0
 79 80  1  0  0  0
 79 81  1  0  0  0
 79151  1  0  0  0
 79152  1  0  0  0
 80 82  1  0  0  0
 80153  1  0  0  0
 80154  1  0  0  0
 81155  1  0  0  0
 81156  1  0  0  0
 82157  1  0  0  0
M  ISO  4   1 100  68 101  81 101  83 100
M  END
> <chiral flag>
0

> <version>
0

> <s_m_source_file>
/data/baiqing/PycharmProjects/Reinvent-master-3.2/result/LINK_invent/BTK/process_docking_weight1_custom_product_contain_oxygen_bond_distance_aromatic_linkinvent_7_9_3/rearranged_h_0018.sdf

> <i_m_source_file_index>
67

> <r_mmod_Potential_Energy-OPLS-2005>
204.711471557617

> <r_mmod_Stretch_Energy-OPLS-2005>
52.3728408813477

> <r_mmod_Bend_Energy-OPLS-2005>
122.482276916504

> <r_mmod_Torsional_Energy-OPLS-2005>
365.303405761719

> <r_mmod_Improper_Torsional_Energy-OPLS-2005>
34.9246978759766

> <r_mmod_Van_der_Waal_Energy-OPLS-2005>
142.674728393555

> <r_mmod_Electrostatic_Energy-OPLS-2005>
-364.775299072266

> <r_mmod_Solvation_Energy-OPLS-2005>
-215.665649414062

> <b_mmod_Minimization_Converged-OPLS-2005>
0

> <r_mmod_RMS_Derivative-OPLS-2005>
2.56625914573669

$$$$
67
                    3D
 Structure written by MMmdl.
154162  0  0  1  0            999 V2000
  -30.6108  -14.6379   20.3901 C   0  0  0  0  0  0
  -30.4365  -12.3645   19.4078 C   0  0  0  0  0  0
  -29.4872  -12.4800   18.1940 C   0  0  0  0  0  0
  -28.0102  -12.3555   18.6193 C   0  0  0  0  0  0
  -27.6592  -13.2135   19.8610 C   0  0  2  0  0  0
  -28.7240  -13.0673   20.9744 C   0  0  0  0  0  0
  -25.2606  -13.8161   20.5644 C   0  0  0  0  0  0
  -24.1871  -13.0444   20.9184 C   0  0  0  0  0  0
  -24.6456  -11.6909   20.8771 C   0  0  0  0  0  0
  -23.9127  -10.4302   21.0426 C   0  0  0  0  0  0
  -24.3668   -9.4218   21.9205 C   0  0  0  0  0  0
  -23.6331   -8.2256   22.0765 C   0  0  0  0  0  0
  -22.4310   -8.0305   21.3551 C   0  0  0  0  0  0
  -21.9962   -9.0291   20.4654 C   0  0  0  0  0  0
  -22.7298  -10.2161   20.3080 C   0  0  0  0  0  0
  -21.6861   -6.0775   22.5280 C   0  0  0  0  0  0
  -21.4008   -6.5670   23.8209 C   0  0  0  0  0  0
  -21.3646   -5.6809   24.9167 C   0  0  0  0  0  0
  -21.6041   -4.3079   24.7205 C   0  0  0  0  0  0
  -21.8827   -3.8181   23.4324 C   0  0  0  0  0  0
  -21.9192   -4.7007   22.3389 C   0  0  0  0  0  0
  -22.7885  -13.5216   21.1803 C   0  0  0  0  0  0
  -22.1665   -4.2198   21.0969 F   0  0  0  0  0  0
  -21.5621   -3.4561   25.7717 F   0  0  0  0  0  0
  -30.0344  -13.3948   20.3858 N   0  0  0  0  0  0
  -26.3072  -12.9357   20.3403 N   0  0  0  0  0  0
  -25.9396  -11.6505   20.5843 N   0  0  0  0  0  0
  -22.0549  -12.8223   22.0389 N   0  0  0  0  0  0
  -25.4290  -15.1876   20.3903 N   0  0  0  0  0  0
  -31.7844  -14.8121   20.0430 O   0  0  0  0  0  0
  -21.6649   -6.8923   21.4240 O   0  0  0  0  0  0
  -22.3549  -14.5499   20.6630 O   0  0  0  0  0  0
  -24.6262  -31.8579   23.2010 C   0  0  0  0  0  0
  -25.9117  -32.4764   23.8348 C   0  0  1  0  0  0
  -27.2210  -27.3341   20.1088 C   0  0  0  0  0  0
  -25.5923  -33.8554   24.2251 N   0  0  0  0  0  0
  -23.4191  -30.4814   21.5413 C   0  0  2  0  0  0
  -24.8651  -28.9356   20.1088 C   0  0  0  0  0  0
  -22.7490  -29.4602   22.4927 C   0  0  0  0  0  0
  -18.0281  -28.1376   22.8488 C   0  0  0  0  0  0
  -24.1463  -36.7257   23.2665 C   0  0  0  0  0  0
  -25.9598  -30.7923   21.3721 C   0  0  0  0  0  0
  -26.0338  -29.4228   20.7093 C   0  0  0  0  0  0
  -27.2204  -28.6362   20.6916 C   0  0  0  0  0  0
  -26.0343  -26.8822   19.5017 C   0  0  0  0  0  0
  -24.8663  -27.6702   19.4963 C   0  0  0  0  0  0
  -23.6350  -29.8174   20.1564 C   0  0  0  0  0  0
  -25.4087  -36.3050   24.0356 C   0  0  1  0  0  0
  -20.5893  -28.3650   23.1284 C   0  0  2  0  0  0
  -20.6740  -26.9366   22.5419 C   0  0  0  0  0  0
  -19.5701  -26.6358   21.5223 C   0  0  0  0  0  0
  -18.1883  -26.7910   22.1642 C   0  0  0  0  0  0
  -19.1548  -28.8836   23.2860 C   0  0  0  0  0  0
  -18.9498  -30.1440   23.8875 C   0  0  0  0  0  0
  -17.6506  -30.6583   24.0560 C   0  0  0  0  0  0
  -25.9049  -34.9444   23.5102 C   0  0  0  0  0  0
  -16.5380  -29.9089   23.6354 C   0  0  0  0  0  0
  -16.7281  -28.6509   23.0371 C   0  0  0  0  0  0
  -26.4476  -31.6614   25.0749 C   0  0  0  0  0  0
  -25.3704  -31.3814   26.1485 C   0  0  0  0  0  0
  -27.0308  -30.3030   24.6233 C   0  0  0  0  0  0
  -27.6010  -32.4372   25.7522 C   0  0  0  0  0  0
  -27.5536  -37.1759   24.8474 C   0  0  0  0  0  0
  -21.4208  -29.3006   22.3688 N   0  0  0  0  0  0
  -26.4246  -37.3762   23.9454 N   0  0  0  0  0  0
  -24.6859  -31.0624   22.0941 N   0  0  0  0  0  0
  -23.4234  -28.8150   23.2995 O   0  0  0  0  0  0
  -28.3447  -26.5058   20.0855 O   0  0  0  0  0  0
  -26.5629  -34.8930   22.4664 O   0  0  0  0  0  0
  -23.5431  -32.1383   23.7338 O   0  0  0  0  0  0
  -30.2403  -19.2082   19.1410 C   0  0  0  0  0  0
  -30.4772  -17.8153   19.3812 C   0  0  0  0  0  0
  -28.4344  -19.2083   20.7194 C   0  0  0  0  0  0
  -29.2196  -19.9558   19.8009 C   0  0  0  0  0  0
  -29.6991  -17.0949   20.3293 C   0  0  0  0  0  0
  -28.6826  -17.8313   20.9848 C   0  0  0  0  0  0
  -28.4508  -23.9122   19.7428 C   0  0  0  0  0  0
  -28.5470  -22.3901   21.6951 C   0  0  0  0  0  0
  -28.9370  -21.4511   19.3515 C   0  0  0  0  0  0
  -28.2218  -25.1618   20.6909 C   0  0  0  0  0  0
  -29.7529  -15.6670   20.6402 N   0  0  0  0  0  0
  -28.5726  -22.6232   20.2473 N   0  0  0  0  0  0
  -28.5452  -24.1255   18.5292 O   0  0  0  0  0  0
  -27.8994  -17.1813   21.8783 F   0  0  0  0  0  0
  -31.4677  -12.4871   19.0735 H   0  0  0  0  0  0
  -30.3794  -11.3628   19.8406 H   0  0  0  0  0  0
  -29.7130  -11.7081   17.4563 H   0  0  0  0  0  0
  -29.6468  -13.4332   17.6893 H   0  0  0  0  0  0
  -27.8100  -11.3035   18.8267 H   0  0  0  0  0  0
  -27.3591  -12.6293   17.7872 H   0  0  0  0  0  0
  -27.6733  -14.2477   19.5184 H   0  0  0  0  0  0
  -28.7367  -12.0550   21.3823 H   0  0  0  0  0  0
  -28.5009  -13.7247   21.8160 H   0  0  0  0  0  0
  -25.2817   -9.5678   22.4787 H   0  0  0  0  0  0
  -24.0031   -7.4647   22.7501 H   0  0  0  0  0  0
  -21.0895   -8.8848   19.8961 H   0  0  0  0  0  0
  -22.3785  -10.9732   19.6207 H   0  0  0  0  0  0
  -21.2008   -7.6174   23.9725 H   0  0  0  0  0  0
  -21.1443   -6.0541   25.9065 H   0  0  0  0  0  0
  -22.0614   -2.7655   23.2809 H   0  0  0  0  0  0
  -22.4181  -11.9886   22.4762 H   0  0  0  0  0  0
  -21.1198  -13.1283   22.2647 H   0  0  0  0  0  0
  -24.6583  -15.8409   20.4761 H   0  0  0  0  0  0
  -26.2778  -15.6255   20.0563 H   0  0  0  0  0  0
  -26.7195  -32.5437   23.1108 H   0  0  0  0  0  0
  -24.9995  -33.9692   25.0346 H   0  0  0  0  0  0
  -22.7119  -31.3008   21.3967 H   0  0  0  0  0  0
  -23.3738  -35.9574   23.3321 H   0  0  0  0  0  0
  -24.3560  -36.8888   22.2079 H   0  0  0  0  0  0
  -23.7189  -37.6450   23.6693 H   0  0  0  0  0  0
  -26.1047  -31.5641   20.6132 H   0  0  0  0  0  0
  -26.8351  -30.8274   22.0082 H   0  0  0  0  0  0
  -28.1264  -29.0102   21.1489 H   0  0  0  0  0  0
  -26.0127  -25.9121   19.0218 H   0  0  0  0  0  0
  -23.9754  -27.2902   19.0182 H   0  0  0  0  0  0
  -23.7606  -30.5966   19.4012 H   0  0  0  0  0  0
  -22.7545  -29.2498   19.8473 H   0  0  0  0  0  0
  -25.1242  -36.1893   25.0854 H   0  0  0  0  0  0
  -20.9967  -28.3210   24.1410 H   0  0  0  0  0  0
  -20.5627  -26.2247   23.3623 H   0  0  0  0  0  0
  -21.6598  -26.7341   22.1212 H   0  0  0  0  0  0
  -19.6846  -25.6267   21.1250 H   0  0  0  0  0  0
  -19.6672  -27.3180   20.6768 H   0  0  0  0  0  0
  -17.4144  -26.6709   21.4050 H   0  0  0  0  0  0
  -18.0247  -26.0065   22.9049 H   0  0  0  0  0  0
  -19.7999  -30.7227   24.2251 H   0  0  0  0  0  0
  -17.5090  -31.6303   24.5112 H   0  0  0  0  0  0
  -15.5380  -30.2990   23.7712 H   0  0  0  0  0  0
  -15.8668  -28.0830   22.7098 H   0  0  0  0  0  0
  -24.5871  -30.7148   25.7849 H   0  0  0  0  0  0
  -24.8910  -32.3014   26.4855 H   0  0  0  0  0  0
  -25.8024  -30.9049   27.0294 H   0  0  0  0  0  0
  -26.2863  -29.6797   24.1252 H   0  0  0  0  0  0
  -27.3978  -29.7290   25.4751 H   0  0  0  0  0  0
  -27.8758  -30.4306   23.9461 H   0  0  0  0  0  0
  -27.2616  -33.3743   26.1956 H   0  0  0  0  0  0
  -28.3892  -32.6828   25.0392 H   0  0  0  0  0  0
  -28.0576  -31.8593   26.5569 H   0  0  0  0  0  0
  -28.2523  -38.0068   24.7496 H   0  0  0  0  0  0
  -28.1038  -36.2593   24.6284 H   0  0  0  0  0  0
  -27.2273  -37.1381   25.8882 H   0  0  0  0  0  0
  -20.9386  -29.8774   21.6942 H   0  0  0  0  0  0
  -26.0119  -38.2825   24.1509 H   0  0  0  0  0  0
  -30.8406  -19.7082   18.3913 H   0  0  0  0  0  0
  -31.2375  -17.3159   18.7975 H   0  0  0  0  0  0
  -27.5891  -19.6550   21.2152 H   0  0  0  0  0  0
  -28.0500  -23.1706   22.2712 H   0  0  0  0  0  0
  -29.5712  -22.3077   22.0568 H   0  0  0  0  0  0
  -28.0134  -21.4892   21.9650 H   0  0  0  0  0  0
  -28.1857  -21.3932   18.5599 H   0  0  0  0  0  0
  -29.8536  -21.7637   18.8496 H   0  0  0  0  0  0
  -29.0134  -25.1170   21.4370 H   0  0  0  0  0  0
  -27.2851  -25.0477   21.2385 H   0  0  0  0  0  0
  -28.8911  -15.3431   21.0520 H   0  0  0  0  0  0
  1 25  1  0  0  0
  1 30  2  0  0  0
  1 81  1  0  0  0
  2  3  1  0  0  0
  2 25  1  0  0  0
  2 85  1  0  0  0
  2 86  1  0  0  0
  3  4  1  0  0  0
  3 87  1  0  0  0
  3 88  1  0  0  0
  4  5  1  0  0  0
  4 89  1  0  0  0
  4 90  1  0  0  0
  5  6  1  0  0  0
  5 26  1  0  0  0
  5 91  1  0  0  0
  6 25  1  0  0  0
  6 92  1  0  0  0
  6 93  1  0  0  0
  7  8  2  0  0  0
  7 26  1  0  0  0
  7 29  1  0  0  0
  8  9  1  0  0  0
  8 22  1  0  0  0
  9 10  1  0  0  0
  9 27  2  0  0  0
 10 11  2  0  0  0
 10 15  1  0  0  0
 11 12  1  0  0  0
 11 94  1  0  0  0
 12 13  2  0  0  0
 12 95  1  0  0  0
 13 14  1  0  0  0
 13 31  1  0  0  0
 14 15  2  0  0  0
 14 96  1  0  0  0
 15 97  1  0  0  0
 16 17  2  0  0  0
 16 21  1  0  0  0
 16 31  1  0  0  0
 17 18  1  0  0  0
 17 98  1  0  0  0
 18 19  2  0  0  0
 18 99  1  0  0  0
 19 20  1  0  0  0
 19 24  1  0  0  0
 20 21  2  0  0  0
 20100  1  0  0  0
 21 23  1  0  0  0
 22 28  1  0  0  0
 22 32  2  0  0  0
 26 27  1  0  0  0
 28101  1  0  0  0
 28102  1  0  0  0
 29103  1  0  0  0
 29104  1  0  0  0
 33 34  1  0  0  0
 33 66  1  0  0  0
 33 70  2  0  0  0
 34 36  1  0  0  0
 34 59  1  0  0  0
 34105  1  0  0  0
 35 44  2  0  0  0
 35 45  1  0  0  0
 35 68  1  0  0  0
 36 56  1  0  0  0
 36106  1  0  0  0
 37 39  1  0  0  0
 37 47  1  0  0  0
 37 66  1  0  0  0
 37107  1  0  0  0
 38 43  2  0  0  0
 38 46  1  0  0  0
 38 47  1  0  0  0
 39 64  1  0  0  0
 39 67  2  0  0  0
 40 52  1  0  0  0
 40 53  2  0  0  0
 40 58  1  0  0  0
 41108  1  0  0  0
 41109  1  0  0  0
 41110  1  0  0  0
 41 48  1  0  0  0
 42 43  1  0  0  0
 42 66  1  0  0  0
 42111  1  0  0  0
 42112  1  0  0  0
 43 44  1  0  0  0
 44113  1  0  0  0
 45 46  2  0  0  0
 45114  1  0  0  0
 46115  1  0  0  0
 47116  1  0  0  0
 47117  1  0  0  0
 48 56  1  0  0  0
 48 65  1  0  0  0
 48118  1  0  0  0
 49 50  1  0  0  0
 49 53  1  0  0  0
 49 64  1  0  0  0
 49119  1  0  0  0
 50 51  1  0  0  0
 50120  1  0  0  0
 50121  1  0  0  0
 51 52  1  0  0  0
 51122  1  0  0  0
 51123  1  0  0  0
 52124  1  0  0  0
 52125  1  0  0  0
 53 54  1  0  0  0
 54 55  2  0  0  0
 54126  1  0  0  0
 55 57  1  0  0  0
 55127  1  0  0  0
 56 69  2  0  0  0
 57 58  2  0  0  0
 57128  1  0  0  0
 58129  1  0  0  0
 59 60  1  0  0  0
 59 61  1  0  0  0
 59 62  1  0  0  0
 60130  1  0  0  0
 60131  1  0  0  0
 60132  1  0  0  0
 61133  1  0  0  0
 61134  1  0  0  0
 61135  1  0  0  0
 62136  1  0  0  0
 62137  1  0  0  0
 62138  1  0  0  0
 63 65  1  0  0  0
 63139  1  0  0  0
 63140  1  0  0  0
 63141  1  0  0  0
 64142  1  0  0  0
 65143  1  0  0  0
 68 80  1  0  0  0
 71 72  2  0  0  0
 71 74  1  0  0  0
 71144  1  0  0  0
 72 75  1  0  0  0
 72145  1  0  0  0
 73 74  2  0  0  0
 73 76  1  0  0  0
 73146  1  0  0  0
 74 79  1  0  0  0
 75 76  2  0  0  0
 75 81  1  0  0  0
 76 84  1  0  0  0
 77 80  1  0  0  0
 77 82  1  0  0  0
 77 83  2  0  0  0
 78 82  1  0  0  0
 78147  1  0  0  0
 78148  1  0  0  0
 78149  1  0  0  0
 79 82  1  0  0  0
 79150  1  0  0  0
 79151  1  0  0  0
 80152  1  0  0  0
 80153  1  0  0  0
 81154  1  0  0  0
M  ISO  4   1 100  68 101  80 101  81 100
M  END
> <chiral flag>
0

> <version>
0

> <s_m_source_file>
/data/baiqing/PycharmProjects/Reinvent-master-3.2/result/LINK_invent/BTK/process_docking_weight1_custom_product_contain_oxygen_bond_distance_aromatic_linkinvent_7_9_3/rearranged_h_0018.sdf

> <i_m_source_file_index>
68

> <r_mmod_Potential_Energy-OPLS-2005>
84.7172698974609

> <r_mmod_Stretch_Energy-OPLS-2005>
82.6640243530273

> <r_mmod_Bend_Energy-OPLS-2005>
163.781311035156

> <r_mmod_Torsional_Energy-OPLS-2005>
250.881378173828

> <r_mmod_Improper_Torsional_Energy-OPLS-2005>
5.55559778213501

> <r_mmod_Van_der_Waal_Energy-OPLS-2005>
147.913009643555

> <r_mmod_Electrostatic_Energy-OPLS-2005>
-382.043975830078

> <r_mmod_Solvation_Energy-OPLS-2005>
-231.933822631836

> <b_mmod_Minimization_Converged-OPLS-2005>
0

> <r_mmod_RMS_Derivative-OPLS-2005>
5.25615310668945

$$$$
68
                    3D
 Structure written by MMmdl.
158166  0  0  1  0            999 V2000
  -30.5178  -14.8926   20.4425 C   0  0  0  0  0  0
  -30.4489  -12.5483   19.4951 C   0  0  0  0  0  0
  -29.5244  -12.5391   18.2536 C   0  0  0  0  0  0
  -28.0527  -12.3332   18.6633 C   0  0  0  0  0  0
  -27.6391  -13.2398   19.8526 C   0  0  2  0  0  0
  -28.6810  -13.2030   20.9917 C   0  0  0  0  0  0
  -25.2495  -13.8202   20.5713 C   0  0  0  0  0  0
  -24.1794  -13.0434   20.9212 C   0  0  0  0  0  0
  -24.6403  -11.6919   20.8740 C   0  0  0  0  0  0
  -23.9081  -10.4294   21.0404 C   0  0  0  0  0  0
  -24.3628   -9.4208   21.9181 C   0  0  0  0  0  0
  -23.6298   -8.2247   22.0756 C   0  0  0  0  0  0
  -22.4280   -8.0284   21.3546 C   0  0  0  0  0  0
  -21.9917   -9.0260   20.4652 C   0  0  0  0  0  0
  -22.7249  -10.2139   20.3061 C   0  0  0  0  0  0
  -21.6855   -6.0739   22.5280 C   0  0  0  0  0  0
  -21.4013   -6.5642   23.8214 C   0  0  0  0  0  0
  -21.3662   -5.6795   24.9176 C   0  0  0  0  0  0
  -21.6047   -4.3057   24.7225 C   0  0  0  0  0  0
  -21.8816   -3.8149   23.4344 C   0  0  0  0  0  0
  -21.9193   -4.6967   22.3403 C   0  0  0  0  0  0
  -22.7819  -13.5216   21.1879 C   0  0  0  0  0  0
  -22.1658   -4.2154   21.0981 F   0  0  0  0  0  0
  -21.5633   -3.4539   25.7736 F   0  0  0  0  0  0
  -29.9703  -13.6146   20.4163 N   0  0  0  0  0  0
  -26.2923  -12.9417   20.3283 N   0  0  0  0  0  0
  -25.9335  -11.6554   20.5733 N   0  0  0  0  0  0
  -22.0471  -12.8197   22.0433 N   0  0  0  0  0  0
  -25.4192  -15.1929   20.4167 N   0  0  0  0  0  0
  -31.6904  -15.0349   20.0762 O   0  0  0  0  0  0
  -21.6642   -6.8883   21.4243 O   0  0  0  0  0  0
  -22.3501  -14.5529   20.6743 O   0  0  0  0  0  0
  -24.6399  -31.8463   23.1914 C   0  0  0  0  0  0
  -25.9180  -32.4707   23.8289 C   0  0  1  0  0  0
  -27.2130  -27.1582   20.1456 C   0  0  0  0  0  0
  -25.5939  -33.8516   24.2191 N   0  0  0  0  0  0
  -23.4422  -30.4676   21.5364 C   0  0  2  0  0  0
  -24.8913  -28.9000   20.1091 C   0  0  0  0  0  0
  -22.7558  -29.4556   22.4869 C   0  0  0  0  0  0
  -18.0317  -28.1388   22.8442 C   0  0  0  0  0  0
  -24.1502  -36.7266   23.2635 C   0  0  0  0  0  0
  -25.9966  -30.7251   21.3890 C   0  0  0  0  0  0
  -26.0667  -29.3385   20.7317 C   0  0  0  0  0  0
  -27.2276  -28.4806   20.7403 C   0  0  0  0  0  0
  -26.0188  -26.8292   19.4639 C   0  0  0  0  0  0
  -24.8785  -27.6571   19.4615 C   0  0  0  0  0  0
  -23.6665  -29.7987   20.1545 C   0  0  0  0  0  0
  -25.4129  -36.3034   24.0308 C   0  0  1  0  0  0
  -20.5917  -28.3736   23.1254 C   0  0  2  0  0  0
  -20.6825  -26.9443   22.5415 C   0  0  0  0  0  0
  -19.5846  -26.6428   21.5171 C   0  0  0  0  0  0
  -18.1992  -26.7960   22.1514 C   0  0  0  0  0  0
  -19.1557  -28.8878   23.2844 C   0  0  0  0  0  0
  -18.9459  -30.1470   23.8873 C   0  0  0  0  0  0
  -17.6455  -30.6587   24.0541 C   0  0  0  0  0  0
  -25.9080  -34.9411   23.5055 C   0  0  0  0  0  0
  -16.5355  -29.9058   23.6321 C   0  0  0  0  0  0
  -16.7298  -28.6485   23.0331 C   0  0  0  0  0  0
  -26.4508  -31.6569   25.0723 C   0  0  0  0  0  0
  -25.3698  -31.3751   26.1422 C   0  0  0  0  0  0
  -27.0351  -30.2961   24.6286 C   0  0  0  0  0  0
  -27.6052  -32.4316   25.7500 C   0  0  0  0  0  0
  -27.5577  -37.1795   24.8458 C   0  0  0  0  0  0
  -21.4244  -29.3081   22.3649 N   0  0  0  0  0  0
  -26.4290  -37.3747   23.9397 N   0  0  0  0  0  0
  -24.7123  -31.0344   22.0936 N   0  0  0  0  0  0
  -23.4226  -28.8073   23.2976 O   0  0  0  0  0  0
  -28.2577  -26.1722   20.2417 O   0  0  0  0  0  0
  -26.5672  -34.8897   22.4639 O   0  0  0  0  0  0
  -23.5527  -32.1330   23.7157 O   0  0  0  0  0  0
  -28.8635  -18.2640   21.5915 C   0  0  0  0  0  0
  -28.5697  -19.6755   21.4782 C   0  0  0  0  0  0
  -30.0865  -18.3391   19.5780 C   0  0  0  0  0  0
  -29.6158  -17.4969   20.6447 C   0  0  0  0  0  0
  -28.9599  -20.5098   20.3805 C   0  0  0  0  0  0
  -29.7652  -19.7590   19.4442 C   0  0  0  0  0  0
  -26.4557  -22.1815   18.4588 C   0  0  0  0  0  0
  -25.9461  -21.9129   20.9586 C   0  0  0  0  0  0
  -28.7744  -23.2872   20.4980 C   0  0  0  0  0  0
  -27.9827  -24.6741   19.9532 C   0  0  0  0  0  0
  -26.9059  -21.5806   19.7986 C   0  0  0  0  0  0
  -29.6770  -15.9751   20.7783 N   0  0  0  0  0  0
  -28.3292  -21.8367   20.1102 N   0  0  0  0  0  0
  -30.1953  -20.3971   18.3280 F   0  0  0  0  0  0
  -31.4839  -12.7112   19.1891 H   0  0  0  0  0  0
  -30.4355  -11.5783   19.9947 H   0  0  0  0  0  0
  -29.8337  -11.7602   17.5558 H   0  0  0  0  0  0
  -29.6234  -13.4845   17.7179 H   0  0  0  0  0  0
  -27.9288  -11.2852   18.9391 H   0  0  0  0  0  0
  -27.3949  -12.5021   17.8098 H   0  0  0  0  0  0
  -27.6214  -14.2564   19.4591 H   0  0  0  0  0  0
  -28.7487  -12.2031   21.4227 H   0  0  0  0  0  0
  -28.3854  -13.8637   21.8078 H   0  0  0  0  0  0
  -25.2779   -9.5680   22.4746 H   0  0  0  0  0  0
  -24.0010   -7.4644   22.7480 H   0  0  0  0  0  0
  -21.0843   -8.8783   19.8963 H   0  0  0  0  0  0
  -22.3707  -10.9675   19.6167 H   0  0  0  0  0  0
  -21.2000   -7.6149   23.9710 H   0  0  0  0  0  0
  -21.1490   -6.0531   25.9078 H   0  0  0  0  0  0
  -22.0591   -2.7611   23.2845 H   0  0  0  0  0  0
  -22.4093  -11.9854   22.4801 H   0  0  0  0  0  0
  -21.1097  -13.1225   22.2670 H   0  0  0  0  0  0
  -24.6523  -15.8453   20.5350 H   0  0  0  0  0  0
  -26.2666  -15.6345   20.0832 H   0  0  0  0  0  0
  -26.7242  -32.5309   23.1016 H   0  0  0  0  0  0
  -25.0042  -33.9644   25.0305 H   0  0  0  0  0  0
  -22.7426  -31.2922   21.3851 H   0  0  0  0  0  0
  -23.3758  -35.9605   23.3288 H   0  0  0  0  0  0
  -24.3585  -36.8914   22.2052 H   0  0  0  0  0  0
  -23.7275  -37.6464   23.6686 H   0  0  0  0  0  0
  -26.1501  -31.4782   20.6150 H   0  0  0  0  0  0
  -26.8677  -30.7762   22.0300 H   0  0  0  0  0  0
  -28.1175  -28.8057   21.2612 H   0  0  0  0  0  0
  -25.9260  -25.8908   18.9396 H   0  0  0  0  0  0
  -23.9836  -27.3199   18.9564 H   0  0  0  0  0  0
  -23.7972  -30.5734   19.3983 H   0  0  0  0  0  0
  -22.7819  -29.2376   19.8473 H   0  0  0  0  0  0
  -25.1325  -36.1856   25.0803 H   0  0  0  0  0  0
  -21.0007  -28.3341   24.1379 H   0  0  0  0  0  0
  -20.5707  -26.2331   23.3614 H   0  0  0  0  0  0
  -21.6703  -26.7476   22.1243 H   0  0  0  0  0  0
  -19.6812  -27.3283   20.6739 H   0  0  0  0  0  0
  -19.7051  -25.6357   21.1149 H   0  0  0  0  0  0
  -17.4329  -26.6797   21.3833 H   0  0  0  0  0  0
  -18.0298  -26.0045   22.8822 H   0  0  0  0  0  0
  -19.7934  -30.7297   24.2221 H   0  0  0  0  0  0
  -17.4985  -31.6273   24.5125 H   0  0  0  0  0  0
  -15.5345  -30.2932   23.7633 H   0  0  0  0  0  0
  -15.8700  -28.0812   22.7023 H   0  0  0  0  0  0
  -24.5912  -30.7052   25.7755 H   0  0  0  0  0  0
  -24.8842  -32.2925   26.4759 H   0  0  0  0  0  0
  -25.7998  -30.9000   27.0250 H   0  0  0  0  0  0
  -26.2951  -29.6707   24.1283 H   0  0  0  0  0  0
  -27.3946  -29.7241   25.4848 H   0  0  0  0  0  0
  -27.8874  -30.4182   23.9600 H   0  0  0  0  0  0
  -27.2663  -33.3643   26.2017 H   0  0  0  0  0  0
  -28.3902  -32.6827   25.0354 H   0  0  0  0  0  0
  -28.0675  -31.8470   26.5464 H   0  0  0  0  0  0
  -28.2585  -38.0100   24.7496 H   0  0  0  0  0  0
  -28.1083  -36.2627   24.6294 H   0  0  0  0  0  0
  -27.2289  -37.1456   25.8859 H   0  0  0  0  0  0
  -20.9423  -29.8860   21.6901 H   0  0  0  0  0  0
  -26.0152  -38.2813   24.1398 H   0  0  0  0  0  0
  -28.4399  -17.7463   22.4409 H   0  0  0  0  0  0
  -27.9462  -20.1058   22.2456 H   0  0  0  0  0  0
  -30.6556  -17.8830   18.7819 H   0  0  0  0  0  0
  -25.5112  -21.7347   18.1469 H   0  0  0  0  0  0
  -27.1793  -21.9779   17.6688 H   0  0  0  0  0  0
  -26.2798  -23.2523   18.4962 H   0  0  0  0  0  0
  -24.9168  -21.6905   20.6746 H   0  0  0  0  0  0
  -25.9702  -22.9555   21.2644 H   0  0  0  0  0  0
  -26.1562  -21.3163   21.8446 H   0  0  0  0  0  0
  -28.7729  -23.3251   21.5882 H   0  0  0  0  0  0
  -29.8231  -23.3772   20.2131 H   0  0  0  0  0  0
  -26.9547  -24.5322   20.2681 H   0  0  0  0  0  0
  -27.9788  -24.6171   18.8646 H   0  0  0  0  0  0
  -26.7785  -20.5069   19.6369 H   0  0  0  0  0  0
  -28.8414  -15.6084   21.2087 H   0  0  0  0  0  0
  1 25  1  0  0  0
  1 30  2  0  0  0
  1 82  1  0  0  0
  2  3  1  0  0  0
  2 25  1  0  0  0
  2 85  1  0  0  0
  2 86  1  0  0  0
  3  4  1  0  0  0
  3 87  1  0  0  0
  3 88  1  0  0  0
  4  5  1  0  0  0
  4 89  1  0  0  0
  4 90  1  0  0  0
  5  6  1  0  0  0
  5 26  1  0  0  0
  5 91  1  0  0  0
  6 25  1  0  0  0
  6 92  1  0  0  0
  6 93  1  0  0  0
  7  8  2  0  0  0
  7 26  1  0  0  0
  7 29  1  0  0  0
  8  9  1  0  0  0
  8 22  1  0  0  0
  9 10  1  0  0  0
  9 27  2  0  0  0
 10 11  2  0  0  0
 10 15  1  0  0  0
 11 12  1  0  0  0
 11 94  1  0  0  0
 12 13  2  0  0  0
 12 95  1  0  0  0
 13 14  1  0  0  0
 13 31  1  0  0  0
 14 15  2  0  0  0
 14 96  1  0  0  0
 15 97  1  0  0  0
 16 17  2  0  0  0
 16 21  1  0  0  0
 16 31  1  0  0  0
 17 18  1  0  0  0
 17 98  1  0  0  0
 18 19  2  0  0  0
 18 99  1  0  0  0
 19 20  1  0  0  0
 19 24  1  0  0  0
 20 21  2  0  0  0
 20100  1  0  0  0
 21 23  1  0  0  0
 22 28  1  0  0  0
 22 32  2  0  0  0
 26 27  1  0  0  0
 28101  1  0  0  0
 28102  1  0  0  0
 29103  1  0  0  0
 29104  1  0  0  0
 33 34  1  0  0  0
 33 66  1  0  0  0
 33 70  2  0  0  0
 34 36  1  0  0  0
 34 59  1  0  0  0
 34105  1  0  0  0
 35 44  2  0  0  0
 35 45  1  0  0  0
 35 68  1  0  0  0
 36 56  1  0  0  0
 36106  1  0  0  0
 37 39  1  0  0  0
 37 47  1  0  0  0
 37 66  1  0  0  0
 37107  1  0  0  0
 38 43  2  0  0  0
 38 46  1  0  0  0
 38 47  1  0  0  0
 39 64  1  0  0  0
 39 67  2  0  0  0
 40 52  1  0  0  0
 40 53  2  0  0  0
 40 58  1  0  0  0
 41108  1  0  0  0
 41109  1  0  0  0
 41110  1  0  0  0
 41 48  1  0  0  0
 42 43  1  0  0  0
 42 66  1  0  0  0
 42111  1  0  0  0
 42112  1  0  0  0
 43 44  1  0  0  0
 44113  1  0  0  0
 45 46  2  0  0  0
 45114  1  0  0  0
 46115  1  0  0  0
 47116  1  0  0  0
 47117  1  0  0  0
 48 56  1  0  0  0
 48 65  1  0  0  0
 48118  1  0  0  0
 49 50  1  0  0  0
 49 53  1  0  0  0
 49 64  1  0  0  0
 49119  1  0  0  0
 50 51  1  0  0  0
 50120  1  0  0  0
 50121  1  0  0  0
 51 52  1  0  0  0
 51122  1  0  0  0
 51123  1  0  0  0
 52124  1  0  0  0
 52125  1  0  0  0
 53 54  1  0  0  0
 54 55  2  0  0  0
 54126  1  0  0  0
 55 57  1  0  0  0
 55127  1  0  0  0
 56 69  2  0  0  0
 57 58  2  0  0  0
 57128  1  0  0  0
 58129  1  0  0  0
 59 60  1  0  0  0
 59 61  1  0  0  0
 59 62  1  0  0  0
 60130  1  0  0  0
 60131  1  0  0  0
 60132  1  0  0  0
 61133  1  0  0  0
 61134  1  0  0  0
 61135  1  0  0  0
 62136  1  0  0  0
 62137  1  0  0  0
 62138  1  0  0  0
 63 65  1  0  0  0
 63139  1  0  0  0
 63140  1  0  0  0
 63141  1  0  0  0
 64142  1  0  0  0
 65143  1  0  0  0
 68 80  1  0  0  0
 71 72  2  0  0  0
 71 74  1  0  0  0
 71144  1  0  0  0
 72 75  1  0  0  0
 72145  1  0  0  0
 73 74  2  0  0  0
 73 76  1  0  0  0
 73146  1  0  0  0
 74 82  1  0  0  0
 75 76  2  0  0  0
 75 83  1  0  0  0
 76 84  1  0  0  0
 77147  1  0  0  0
 77148  1  0  0  0
 77149  1  0  0  0
 77 81  1  0  0  0
 78 81  1  0  0  0
 78150  1  0  0  0
 78151  1  0  0  0
 78152  1  0  0  0
 79 80  1  0  0  0
 79 83  1  0  0  0
 79153  1  0  0  0
 79154  1  0  0  0
 80155  1  0  0  0
 80156  1  0  0  0
 81 83  1  0  0  0
 81157  1  0  0  0
 82158  1  0  0  0
M  ISO  4   1 100  68 101  80 101  82 100
M  END
> <chiral flag>
0

> <version>
0

> <s_m_source_file>
/data/baiqing/PycharmProjects/Reinvent-master-3.2/result/LINK_invent/BTK/process_docking_weight1_custom_product_contain_oxygen_bond_distance_aromatic_linkinvent_7_9_3/rearranged_h_0018.sdf

> <i_m_source_file_index>
69

> <r_mmod_Potential_Energy-OPLS-2005>
497.671722412109

> <r_mmod_Stretch_Energy-OPLS-2005>
215.080474853516

> <r_mmod_Bend_Energy-OPLS-2005>
265.020263671875

> <r_mmod_Torsional_Energy-OPLS-2005>
270.140411376953

> <r_mmod_Improper_Torsional_Energy-OPLS-2005>
7.31847906112671

> <r_mmod_Van_der_Waal_Energy-OPLS-2005>
140.484436035156

> <r_mmod_Electrostatic_Energy-OPLS-2005>
-354.266723632812

> <r_mmod_Solvation_Energy-OPLS-2005>
-213.317810058594

> <b_mmod_Minimization_Converged-OPLS-2005>
0

> <r_mmod_RMS_Derivative-OPLS-2005>
1.4029905796051

$$$$
69
                    3D
 Structure written by MMmdl.
165173  0  0  1  0            999 V2000
  -30.7219  -14.4655   20.6369 C   0  0  0  0  0  0
  -30.4232  -12.3285   19.4168 C   0  0  0  0  0  0
  -29.4865  -12.4992   18.2047 C   0  0  0  0  0  0
  -28.0158  -12.3244   18.6280 C   0  0  0  0  0  0
  -27.6562  -13.1808   19.8678 C   0  0  2  0  0  0
  -28.7005  -12.9665   20.9924 C   0  0  0  0  0  0
  -25.2572  -13.8093   20.5655 C   0  0  0  0  0  0
  -24.1836  -13.0405   20.9220 C   0  0  0  0  0  0
  -24.6368  -11.6860   20.8774 C   0  0  0  0  0  0
  -23.9040  -10.4259   21.0441 C   0  0  0  0  0  0
  -24.3589   -9.4168   21.9218 C   0  0  0  0  0  0
  -23.6268   -8.2205   22.0767 C   0  0  0  0  0  0
  -22.4251   -8.0254   21.3559 C   0  0  0  0  0  0
  -21.9893   -9.0232   20.4664 C   0  0  0  0  0  0
  -22.7217  -10.2112   20.3086 C   0  0  0  0  0  0
  -21.6834   -6.0711   22.5267 C   0  0  0  0  0  0
  -21.3994   -6.5626   23.8196 C   0  0  0  0  0  0
  -21.3663   -5.6791   24.9167 C   0  0  0  0  0  0
  -21.6050   -4.3052   24.7220 C   0  0  0  0  0  0
  -21.8821   -3.8136   23.4344 C   0  0  0  0  0  0
  -21.9182   -4.6942   22.3396 C   0  0  0  0  0  0
  -22.7864  -13.5218   21.1871 C   0  0  0  0  0  0
  -22.1652   -4.2122   21.0977 F   0  0  0  0  0  0
  -21.5654   -3.4548   25.7745 F   0  0  0  0  0  0
  -30.0243  -13.3049   20.4499 N   0  0  0  0  0  0
  -26.2973  -12.9214   20.3334 N   0  0  0  0  0  0
  -25.9273  -11.6407   20.5783 N   0  0  0  0  0  0
  -22.0469  -12.8258   22.0436 N   0  0  0  0  0  0
  -25.4287  -15.1802   20.3927 N   0  0  0  0  0  0
  -31.8200  -14.6448   20.0978 O   0  0  0  0  0  0
  -21.6623   -6.8849   21.4232 O   0  0  0  0  0  0
  -22.3575  -14.5512   20.6652 O   0  0  0  0  0  0
  -24.6119  -31.8683   23.2100 C   0  0  0  0  0  0
  -25.8990  -32.4835   23.8385 C   0  0  1  0  0  0
  -27.2514  -27.4668   20.0846 C   0  0  0  0  0  0
  -25.5846  -33.8629   24.2308 N   0  0  0  0  0  0
  -23.3988  -30.4912   21.5503 C   0  0  2  0  0  0
  -24.8444  -28.9537   20.1189 C   0  0  0  0  0  0
  -22.7368  -29.4689   22.5034 C   0  0  0  0  0  0
  -18.0286  -28.1369   22.8446 C   0  0  0  0  0  0
  -24.1489  -36.7319   23.2632 C   0  0  0  0  0  0
  -25.9222  -30.8436   21.3554 C   0  0  0  0  0  0
  -26.0010  -29.4759   20.7100 C   0  0  0  0  0  0
  -27.2015  -28.7384   20.6932 C   0  0  0  0  0  0
  -26.0734  -26.9523   19.4891 C   0  0  0  0  0  0
  -24.8741  -27.6877   19.5070 C   0  0  0  0  0  0
  -23.6016  -29.8144   20.1682 C   0  0  0  0  0  0
  -25.4105  -36.3107   24.0330 C   0  0  1  0  0  0
  -20.5854  -28.3623   23.1328 C   0  0  2  0  0  0
  -20.6762  -26.9393   22.5354 C   0  0  0  0  0  0
  -19.5747  -26.6453   21.5132 C   0  0  0  0  0  0
  -18.1942  -26.7937   22.1566 C   0  0  0  0  0  0
  -19.1527  -28.8814   23.2896 C   0  0  0  0  0  0
  -18.9450  -30.1414   23.8913 C   0  0  0  0  0  0
  -17.6445  -30.6516   24.0604 C   0  0  0  0  0  0
  -25.9024  -34.9474   23.5117 C   0  0  0  0  0  0
  -16.5335  -29.9057   23.6307 C   0  0  0  0  0  0
  -16.7274  -28.6511   23.0255 C   0  0  0  0  0  0
  -26.4458  -31.6604   25.0707 C   0  0  0  0  0  0
  -25.3748  -31.3685   26.1479 C   0  0  0  0  0  0
  -27.0282  -30.3049   24.6037 C   0  0  0  0  0  0
  -27.6031  -32.4319   25.7478 C   0  0  0  0  0  0
  -27.5582  -37.1820   24.8468 C   0  0  0  0  0  0
  -21.4108  -29.3047   22.3774 N   0  0  0  0  0  0
  -26.4294  -37.3789   23.9409 N   0  0  0  0  0  0
  -24.6633  -31.0827   22.0978 N   0  0  0  0  0  0
  -23.4145  -28.8203   23.3050 O   0  0  0  0  0  0
  -28.4606  -26.8000   20.1004 O   0  0  0  0  0  0
  -26.5619  -34.8930   22.4708 O   0  0  0  0  0  0
  -23.5312  -32.1426   23.7510 O   0  0  0  0  0  0
  -27.3002  -19.6175   23.0872 C   0  0  0  0  0  0
  -27.7033  -18.5003   23.8405 C   0  0  0  0  0  0
  -28.1364  -18.5389   21.0725 C   0  0  0  0  0  0
  -27.4948  -19.6392   21.6868 C   0  0  0  0  0  0
  -28.5260  -17.3990   21.8183 C   0  0  0  0  0  0
  -28.2807  -17.3829   23.2111 C   0  0  0  0  0  0
  -31.1876  -16.1775   22.2740 C   0  0  0  0  0  0
  -25.9093  -22.6364   22.0375 C   0  0  0  0  0  0
  -28.9981  -16.1484   21.0673 C   0  0  0  0  0  0
  -26.9480  -20.7715   20.8125 C   0  0  0  0  0  0
  -27.9256  -24.5209   20.8342 C   0  0  0  0  0  0
  -27.6880  -23.0757   20.3432 C   0  0  0  0  0  0
  -28.5236  -25.4225   19.7344 C   0  0  0  0  0  0
  -30.2132  -15.4022   21.4892 N   0  0  0  0  0  0
  -27.1443  -22.1397   21.3703 N   0  3  1  0  0  0
  -28.5571  -16.2839   23.9514 F   0  0  0  0  0  0
  -31.4634  -12.4411   19.1031 H   0  0  0  0  0  0
  -30.3517  -11.3123   19.8082 H   0  0  0  0  0  0
  -29.7384  -11.7713   17.4322 H   0  0  0  0  0  0
  -29.6332  -13.4822   17.7543 H   0  0  0  0  0  0
  -27.8622  -11.2681   18.8573 H   0  0  0  0  0  0
  -27.3504  -12.5546   17.7932 H   0  0  0  0  0  0
  -27.6925  -14.2105   19.5228 H   0  0  0  0  0  0
  -28.6979  -11.9225   21.3090 H   0  0  0  0  0  0
  -28.4580  -13.5253   21.8962 H   0  0  0  0  0  0
  -25.2709   -9.5628   22.4826 H   0  0  0  0  0  0
  -23.9943   -7.4586   22.7480 H   0  0  0  0  0  0
  -21.0832   -8.8769   19.8971 H   0  0  0  0  0  0
  -22.3682  -10.9666   19.6213 H   0  0  0  0  0  0
  -21.1979   -7.6133   23.9692 H   0  0  0  0  0  0
  -21.1494   -6.0528   25.9077 H   0  0  0  0  0  0
  -22.0595   -2.7595   23.2854 H   0  0  0  0  0  0
  -22.4039  -11.9925   22.4866 H   0  0  0  0  0  0
  -21.1080  -13.1314   22.2578 H   0  0  0  0  0  0
  -24.6509  -15.8247   20.4787 H   0  0  0  0  0  0
  -26.2564  -15.6100   20.0027 H   0  0  0  0  0  0
  -26.7021  -32.5559   23.1115 H   0  0  0  0  0  0
  -24.9992  -33.9802   25.0440 H   0  0  0  0  0  0
  -22.6904  -31.3092   21.4082 H   0  0  0  0  0  0
  -23.3729  -35.9680   23.3309 H   0  0  0  0  0  0
  -24.3565  -36.8923   22.2044 H   0  0  0  0  0  0
  -23.7269  -37.6536   23.6645 H   0  0  0  0  0  0
  -26.0213  -31.6035   20.5795 H   0  0  0  0  0  0
  -26.8161  -30.9054   21.9652 H   0  0  0  0  0  0
  -28.0905  -29.1498   21.1498 H   0  0  0  0  0  0
  -26.0599  -25.9890   19.0024 H   0  0  0  0  0  0
  -23.9866  -27.2744   19.0477 H   0  0  0  0  0  0
  -23.6964  -30.5780   19.3959 H   0  0  0  0  0  0
  -22.7289  -29.2235   19.8865 H   0  0  0  0  0  0
  -25.1288  -36.1967   25.0820 H   0  0  0  0  0  0
  -20.9952  -28.3124   24.1444 H   0  0  0  0  0  0
  -20.5687  -26.2173   23.3449 H   0  0  0  0  0  0
  -21.6630  -26.7500   22.1117 H   0  0  0  0  0  0
  -19.6882  -25.6415   21.1017 H   0  0  0  0  0  0
  -19.6701  -27.3350   20.6738 H   0  0  0  0  0  0
  -17.4186  -26.6700   21.3997 H   0  0  0  0  0  0
  -18.0395  -26.0016   22.8910 H   0  0  0  0  0  0
  -19.7890  -30.7258   24.2343 H   0  0  0  0  0  0
  -17.5019  -31.6165   24.5284 H   0  0  0  0  0  0
  -15.5338  -30.2961   23.7653 H   0  0  0  0  0  0
  -15.8674  -28.0881   22.6883 H   0  0  0  0  0  0
  -24.5903  -30.7042   25.7840 H   0  0  0  0  0  0
  -24.8969  -32.2842   26.4970 H   0  0  0  0  0  0
  -25.8134  -30.8841   27.0202 H   0  0  0  0  0  0
  -26.2799  -29.6820   24.1125 H   0  0  0  0  0  0
  -27.4105  -29.7263   25.4451 H   0  0  0  0  0  0
  -27.8605  -30.4382   23.9119 H   0  0  0  0  0  0
  -27.2612  -33.3576   26.2108 H   0  0  0  0  0  0
  -28.3820  -32.6936   25.0308 H   0  0  0  0  0  0
  -28.0721  -31.8411   26.5354 H   0  0  0  0  0  0
  -28.2626  -38.0097   24.7508 H   0  0  0  0  0  0
  -28.1052  -36.2631   24.6300 H   0  0  0  0  0  0
  -27.2307  -37.1489   25.8873 H   0  0  0  0  0  0
  -20.9260  -29.8786   21.7027 H   0  0  0  0  0  0
  -26.0171  -38.2872   24.1360 H   0  0  0  0  0  0
  -26.8114  -20.4262   23.6083 H   0  0  0  0  0  0
  -27.5222  -18.4794   24.9056 H   0  0  0  0  0  0
  -28.2639  -18.5399   19.9990 H   0  0  0  0  0  0
  -32.0718  -15.5875   22.5206 H   0  0  0  0  0  0
  -30.7881  -16.5092   23.2289 H   0  0  0  0  0  0
  -31.5194  -17.0583   21.7189 H   0  0  0  0  0  0
  -26.0663  -23.5683   22.5825 H   0  0  0  0  0  0
  -25.5346  -21.9218   22.7687 H   0  0  0  0  0  0
  -25.1129  -22.8067   21.3123 H   0  0  0  0  0  0
  -29.0785  -16.3794   20.0026 H   0  0  0  0  0  0
  -28.1352  -15.5033   21.1746 H   0  0  0  0  0  0
  -25.8927  -20.5827   20.6059 H   0  0  0  0  0  0
  -27.4304  -20.6999   19.8378 H   0  0  0  0  0  0
  -28.5837  -24.5310   21.7042 H   0  0  0  0  0  0
  -26.9823  -24.9556   21.1567 H   0  0  0  0  0  0
  -28.6316  -22.6743   19.9699 H   0  0  0  0  0  0
  -27.0100  -23.0980   19.4884 H   0  0  0  0  0  0
  -28.0613  -25.2547   18.7622 H   0  0  0  0  0  0
  -29.5750  -25.1636   19.6010 H   0  0  0  0  0  0
  -27.8558  -22.0499   22.0810 H   0  0  0  0  0  0
  1 25  1  0  0  0
  1 30  2  0  0  0
  1 84  1  0  0  0
  2  3  1  0  0  0
  2 25  1  0  0  0
  2 87  1  0  0  0
  2 88  1  0  0  0
  3  4  1  0  0  0
  3 89  1  0  0  0
  3 90  1  0  0  0
  4  5  1  0  0  0
  4 91  1  0  0  0
  4 92  1  0  0  0
  5  6  1  0  0  0
  5 26  1  0  0  0
  5 93  1  0  0  0
  6 25  1  0  0  0
  6 94  1  0  0  0
  6 95  1  0  0  0
  7  8  2  0  0  0
  7 26  1  0  0  0
  7 29  1  0  0  0
  8  9  1  0  0  0
  8 22  1  0  0  0
  9 10  1  0  0  0
  9 27  2  0  0  0
 10 11  2  0  0  0
 10 15  1  0  0  0
 11 12  1  0  0  0
 11 96  1  0  0  0
 12 13  2  0  0  0
 12 97  1  0  0  0
 13 14  1  0  0  0
 13 31  1  0  0  0
 14 15  2  0  0  0
 14 98  1  0  0  0
 15 99  1  0  0  0
 16 17  2  0  0  0
 16 21  1  0  0  0
 16 31  1  0  0  0
 17 18  1  0  0  0
 17100  1  0  0  0
 18 19  2  0  0  0
 18101  1  0  0  0
 19 20  1  0  0  0
 19 24  1  0  0  0
 20 21  2  0  0  0
 20102  1  0  0  0
 21 23  1  0  0  0
 22 28  1  0  0  0
 22 32  2  0  0  0
 26 27  1  0  0  0
 28103  1  0  0  0
 28104  1  0  0  0
 29105  1  0  0  0
 29106  1  0  0  0
 33 34  1  0  0  0
 33 66  1  0  0  0
 33 70  2  0  0  0
 34 36  1  0  0  0
 34 59  1  0  0  0
 34107  1  0  0  0
 35 44  2  0  0  0
 35 45  1  0  0  0
 35 68  1  0  0  0
 36 56  1  0  0  0
 36108  1  0  0  0
 37 39  1  0  0  0
 37 47  1  0  0  0
 37 66  1  0  0  0
 37109  1  0  0  0
 38 43  2  0  0  0
 38 46  1  0  0  0
 38 47  1  0  0  0
 39 64  1  0  0  0
 39 67  2  0  0  0
 40 52  1  0  0  0
 40 53  2  0  0  0
 40 58  1  0  0  0
 41110  1  0  0  0
 41111  1  0  0  0
 41112  1  0  0  0
 41 48  1  0  0  0
 42 43  1  0  0  0
 42 66  1  0  0  0
 42113  1  0  0  0
 42114  1  0  0  0
 43 44  1  0  0  0
 44115  1  0  0  0
 45 46  2  0  0  0
 45116  1  0  0  0
 46117  1  0  0  0
 47118  1  0  0  0
 47119  1  0  0  0
 48 56  1  0  0  0
 48 65  1  0  0  0
 48120  1  0  0  0
 49 50  1  0  0  0
 49 53  1  0  0  0
 49 64  1  0  0  0
 49121  1  0  0  0
 50 51  1  0  0  0
 50122  1  0  0  0
 50123  1  0  0  0
 51 52  1  0  0  0
 51124  1  0  0  0
 51125  1  0  0  0
 52126  1  0  0  0
 52127  1  0  0  0
 53 54  1  0  0  0
 54 55  2  0  0  0
 54128  1  0  0  0
 55 57  1  0  0  0
 55129  1  0  0  0
 56 69  2  0  0  0
 57 58  2  0  0  0
 57130  1  0  0  0
 58131  1  0  0  0
 59 60  1  0  0  0
 59 61  1  0  0  0
 59 62  1  0  0  0
 60132  1  0  0  0
 60133  1  0  0  0
 60134  1  0  0  0
 61135  1  0  0  0
 61136  1  0  0  0
 61137  1  0  0  0
 62138  1  0  0  0
 62139  1  0  0  0
 62140  1  0  0  0
 63 65  1  0  0  0
 63141  1  0  0  0
 63142  1  0  0  0
 63143  1  0  0  0
 64144  1  0  0  0
 65145  1  0  0  0
 68 83  1  0  0  0
 71 72  2  0  0  0
 71 74  1  0  0  0
 71146  1  0  0  0
 72 76  1  0  0  0
 72147  1  0  0  0
 73 74  2  0  0  0
 73 75  1  0  0  0
 73148  1  0  0  0
 74 80  1  0  0  0
 75 76  2  0  0  0
 75 79  1  0  0  0
 76 86  1  0  0  0
 77 84  1  0  0  0
 77149  1  0  0  0
 77150  1  0  0  0
 77151  1  0  0  0
 78152  1  0  0  0
 78153  1  0  0  0
 78154  1  0  0  0
 78 85  1  0  0  0
 79 84  1  0  0  0
 79155  1  0  0  0
 79156  1  0  0  0
 80 85  1  0  0  0
 80157  1  0  0  0
 80158  1  0  0  0
 81 82  1  0  0  0
 81 83  1  0  0  0
 81159  1  0  0  0
 81160  1  0  0  0
 82 85  1  0  0  0
 82161  1  0  0  0
 82162  1  0  0  0
 83163  1  0  0  0
 83164  1  0  0  0
 85165  1  0  0  0
M  CHG  1  85   1
M  ISO  4   1 100  68 101  83 101  84 100
M  END
> <chiral flag>
0

> <version>
0

> <s_m_source_file>
/data/baiqing/PycharmProjects/Reinvent-master-3.2/result/LINK_invent/BTK/process_docking_weight1_custom_product_contain_oxygen_bond_distance_aromatic_linkinvent_7_9_3/rearranged_h_0018.sdf

> <i_m_source_file_index>
70

> <r_mmod_Potential_Energy-OPLS-2005>
-33.1172752380371

> <r_mmod_Stretch_Energy-OPLS-2005>
40.4290657043457

> <r_mmod_Bend_Energy-OPLS-2005>
119.495018005371

> <r_mmod_Torsional_Energy-OPLS-2005>
257.431976318359

> <r_mmod_Improper_Torsional_Energy-OPLS-2005>
6.38982057571411

> <r_mmod_Van_der_Waal_Energy-OPLS-2005>
171.120834350586

> <r_mmod_Electrostatic_Energy-OPLS-2005>
-194.967880249023

> <r_mmod_Solvation_Energy-OPLS-2005>
-445.063323974609

> <b_mmod_Minimization_Converged-OPLS-2005>
0

> <r_mmod_RMS_Derivative-OPLS-2005>
3.85130381584167

$$$$
70
                    3D
 Structure written by MMmdl.
161169  0  0  1  0            999 V2000
  -30.6874  -14.6210   20.5929 C   0  0  0  0  0  0
  -30.4258  -12.3974   19.4813 C   0  0  0  0  0  0
  -29.5154  -12.5227   18.2409 C   0  0  0  0  0  0
  -28.0329  -12.3671   18.6321 C   0  0  0  0  0  0
  -27.6472  -13.2235   19.8663 C   0  0  2  0  0  0
  -28.6815  -13.0908   21.0013 C   0  0  0  0  0  0
  -25.2513  -13.8210   20.5723 C   0  0  0  0  0  0
  -24.1803  -13.0442   20.9213 C   0  0  0  0  0  0
  -24.6390  -11.6926   20.8760 C   0  0  0  0  0  0
  -23.9064  -10.4312   21.0389 C   0  0  0  0  0  0
  -24.3629   -9.4239   21.9161 C   0  0  0  0  0  0
  -23.6327   -8.2267   22.0719 C   0  0  0  0  0  0
  -22.4305   -8.0303   21.3525 C   0  0  0  0  0  0
  -21.9935   -9.0253   20.4609 C   0  0  0  0  0  0
  -22.7231  -10.2141   20.3027 C   0  0  0  0  0  0
  -21.6856   -6.0789   22.5315 C   0  0  0  0  0  0
  -21.4008   -6.5674   23.8255 C   0  0  0  0  0  0
  -21.3658   -5.6802   24.9207 C   0  0  0  0  0  0
  -21.6046   -4.3069   24.7246 C   0  0  0  0  0  0
  -21.8810   -3.8181   23.4354 C   0  0  0  0  0  0
  -21.9186   -4.7015   22.3426 C   0  0  0  0  0  0
  -22.7821  -13.5207   21.1914 C   0  0  0  0  0  0
  -22.1646   -4.2208   21.0999 F   0  0  0  0  0  0
  -21.5635   -3.4533   25.7744 F   0  0  0  0  0  0
  -30.0090  -13.4288   20.4569 N   0  0  0  0  0  0
  -26.2940  -12.9390   20.3320 N   0  0  0  0  0  0
  -25.9321  -11.6531   20.5770 N   0  0  0  0  0  0
  -22.0468  -12.8184   22.0467 N   0  0  0  0  0  0
  -25.4197  -15.1948   20.4197 N   0  0  0  0  0  0
  -31.7931  -14.7745   20.0598 O   0  0  0  0  0  0
  -21.6645   -6.8918   21.4265 O   0  0  0  0  0  0
  -22.3499  -14.5523   20.6788 O   0  0  0  0  0  0
  -24.6266  -31.8626   23.2050 C   0  0  0  0  0  0
  -25.9107  -32.4805   23.8384 C   0  0  1  0  0  0
  -27.2127  -27.3180   20.1060 C   0  0  0  0  0  0
  -25.5914  -33.8605   24.2304 N   0  0  0  0  0  0
  -23.4191  -30.4919   21.5477 C   0  0  2  0  0  0
  -24.8618  -28.9494   20.1117 C   0  0  0  0  0  0
  -22.7484  -29.4658   22.4922 C   0  0  0  0  0  0
  -18.0307  -28.1407   22.8481 C   0  0  0  0  0  0
  -24.1478  -36.7286   23.2632 C   0  0  0  0  0  0
  -25.9629  -30.7924   21.3783 C   0  0  0  0  0  0
  -26.0341  -29.4223   20.7148 C   0  0  0  0  0  0
  -27.2138  -28.6188   20.7017 C   0  0  0  0  0  0
  -26.0131  -26.9040   19.4780 C   0  0  0  0  0  0
  -24.8527  -27.6960   19.4876 C   0  0  0  0  0  0
  -23.6342  -29.8336   20.1614 C   0  0  0  0  0  0
  -25.4103  -36.3095   24.0335 C   0  0  1  0  0  0
  -20.5905  -28.3697   23.1251 C   0  0  2  0  0  0
  -20.6774  -26.9421   22.5387 C   0  0  0  0  0  0
  -19.5762  -26.6401   21.5180 C   0  0  0  0  0  0
  -18.1945  -26.7954   22.1600 C   0  0  0  0  0  0
  -19.1559  -28.8867   23.2879 C   0  0  0  0  0  0
  -18.9471  -30.1463   23.8916 C   0  0  0  0  0  0
  -17.6464  -30.6595   24.0563 C   0  0  0  0  0  0
  -25.9056  -34.9465   23.5128 C   0  0  0  0  0  0
  -16.5358  -29.9091   23.6328 C   0  0  0  0  0  0
  -16.7289  -28.6512   23.0347 C   0  0  0  0  0  0
  -26.4490  -31.6618   25.0756 C   0  0  0  0  0  0
  -25.3706  -31.3687   26.1459 C   0  0  0  0  0  0
  -27.0345  -30.3061   24.6193 C   0  0  0  0  0  0
  -27.6087  -32.4328   25.7509 C   0  0  0  0  0  0
  -27.5604  -37.1773   24.8442 C   0  0  0  0  0  0
  -21.4196  -29.3070   22.3658 N   0  0  0  0  0  0
  -26.4267  -37.3805   23.9456 N   0  0  0  0  0  0
  -24.6886  -31.0651   22.1004 N   0  0  0  0  0  0
  -23.4218  -28.8187   23.2982 O   0  0  0  0  0  0
  -28.3204  -26.4531   20.1527 O   0  0  0  0  0  0
  -26.5639  -34.8925   22.4704 O   0  0  0  0  0  0
  -23.5426  -32.1399   23.7394 O   0  0  0  0  0  0
  -30.0003  -19.5355   21.4597 C   0  0  0  0  0  0
  -30.1232  -18.1511   21.7922 C   0  0  0  0  0  0
  -29.5771  -18.9131   19.1997 C   0  0  0  0  0  0
  -29.6817  -17.5210   19.5209 C   0  0  0  0  0  0
  -29.7415  -19.9737   20.1388 C   0  0  0  0  0  0
  -29.9900  -17.0805   20.8490 C   0  0  0  0  0  0
  -29.3976  -16.5491   18.3837 C   0  0  0  0  0  0
  -30.0790  -15.4207   22.7494 C   0  0  0  0  0  0
  -30.1833  -21.5962   18.3788 C   0  0  0  0  0  0
  -29.1849  -23.9197   20.3146 C   0  0  0  0  0  0
  -28.7477  -22.3749   20.2586 C   0  0  0  0  0  0
  -28.0492  -24.9980   20.0432 C   0  0  0  0  0  0
  -30.1041  -15.6591   21.2925 N   0  0  0  0  0  0
  -29.7494  -21.3721   19.7618 N   0  0  0  0  0  0
  -31.4764  -12.4946   19.1960 H   0  0  0  0  0  0
  -30.3375  -11.4046   19.9271 H   0  0  0  0  0  0
  -29.7892  -11.7753   17.4964 H   0  0  0  0  0  0
  -29.6719  -13.4945   17.7737 H   0  0  0  0  0  0
  -27.8495  -11.3116   18.8385 H   0  0  0  0  0  0
  -27.3947  -12.6236   17.7865 H   0  0  0  0  0  0
  -27.6579  -14.2612   19.5415 H   0  0  0  0  0  0
  -28.6873  -12.0806   21.4126 H   0  0  0  0  0  0
  -28.3775  -13.7352   21.8226 H   0  0  0  0  0  0
  -25.2768   -9.5768   22.4725 H   0  0  0  0  0  0
  -24.0063   -7.4681   22.7424 H   0  0  0  0  0  0
  -21.0880   -8.8755   19.8915 H   0  0  0  0  0  0
  -22.3672  -10.9686   19.6145 H   0  0  0  0  0  0
  -21.1979   -7.6169   23.9793 H   0  0  0  0  0  0
  -21.1483   -6.0516   25.9116 H   0  0  0  0  0  0
  -22.0582   -2.7644   23.2844 H   0  0  0  0  0  0
  -22.4045  -11.9819   22.4849 H   0  0  0  0  0  0
  -21.1070  -13.1207   22.2632 H   0  0  0  0  0  0
  -24.6552  -15.8488   20.5542 H   0  0  0  0  0  0
  -26.2822  -15.6472   20.1473 H   0  0  0  0  0  0
  -26.7182  -32.5480   23.1136 H   0  0  0  0  0  0
  -25.0015  -33.9760   25.0415 H   0  0  0  0  0  0
  -22.7116  -31.3132   21.4079 H   0  0  0  0  0  0
  -23.3798  -35.9553   23.3174 H   0  0  0  0  0  0
  -24.3607  -36.9035   22.2075 H   0  0  0  0  0  0
  -23.7129  -37.6404   23.6735 H   0  0  0  0  0  0
  -26.0975  -31.5591   20.6143 H   0  0  0  0  0  0
  -26.8416  -30.8381   22.0103 H   0  0  0  0  0  0
  -28.1127  -28.9758   21.1841 H   0  0  0  0  0  0
  -25.9308  -25.9518   18.9771 H   0  0  0  0  0  0
  -23.9504  -27.3308   19.0168 H   0  0  0  0  0  0
  -23.7595  -30.6117   19.4077 H   0  0  0  0  0  0
  -22.7526  -29.2683   19.8548 H   0  0  0  0  0  0
  -25.1271  -36.1927   25.0820 H   0  0  0  0  0  0
  -21.0009  -28.3264   24.1367 H   0  0  0  0  0  0
  -20.5609  -26.2329   23.3596 H   0  0  0  0  0  0
  -21.6644  -26.7422   22.1209 H   0  0  0  0  0  0
  -19.6897  -25.6296   21.1245 H   0  0  0  0  0  0
  -19.6698  -27.3179   20.6680 H   0  0  0  0  0  0
  -17.4200  -26.6698   21.4014 H   0  0  0  0  0  0
  -18.0369  -26.0101   22.9006 H   0  0  0  0  0  0
  -19.7935  -30.7284   24.2303 H   0  0  0  0  0  0
  -17.5011  -31.6276   24.5154 H   0  0  0  0  0  0
  -15.5363  -30.2984   23.7648 H   0  0  0  0  0  0
  -15.8695  -28.0827   22.7054 H   0  0  0  0  0  0
  -24.5909  -30.7047   25.7696 H   0  0  0  0  0  0
  -24.8860  -32.2817   26.4935 H   0  0  0  0  0  0
  -25.8009  -30.8780   27.0200 H   0  0  0  0  0  0
  -26.2910  -29.6811   24.1239 H   0  0  0  0  0  0
  -27.4075  -29.7331   25.4690 H   0  0  0  0  0  0
  -27.8764  -30.4373   23.9392 H   0  0  0  0  0  0
  -27.2769  -33.3648   26.2083 H   0  0  0  0  0  0
  -28.3889  -32.6851   25.0314 H   0  0  0  0  0  0
  -28.0763  -31.8439   26.5404 H   0  0  0  0  0  0
  -28.2506  -38.0190   24.7710 H   0  0  0  0  0  0
  -28.1234  -36.2759   24.5992 H   0  0  0  0  0  0
  -27.2387  -37.1055   25.8846 H   0  0  0  0  0  0
  -20.9373  -29.8808   21.6880 H   0  0  0  0  0  0
  -26.0148  -38.2854   24.1571 H   0  0  0  0  0  0
  -30.1542  -20.2688   22.2383 H   0  0  0  0  0  0
  -30.3451  -17.9415   22.8266 H   0  0  0  0  0  0
  -29.3585  -19.1594   18.1720 H   0  0  0  0  0  0
  -29.3174  -17.0698   17.4293 H   0  0  0  0  0  0
  -28.4476  -16.0474   18.5545 H   0  0  0  0  0  0
  -30.1848  -15.8108   18.2558 H   0  0  0  0  0  0
  -30.9329  -15.8897   23.2377 H   0  0  0  0  0  0
  -30.1347  -14.3671   23.0301 H   0  0  0  0  0  0
  -29.1635  -15.8164   23.1868 H   0  0  0  0  0  0
  -31.1278  -21.0874   18.1754 H   0  0  0  0  0  0
  -30.3365  -22.6509   18.1554 H   0  0  0  0  0  0
  -29.4362  -21.2371   17.6691 H   0  0  0  0  0  0
  -29.9932  -24.1216   19.6157 H   0  0  0  0  0  0
  -29.6149  -24.1046   21.2990 H   0  0  0  0  0  0
  -27.8869  -22.3026   19.5905 H   0  0  0  0  0  0
  -28.3737  -22.0675   21.2370 H   0  0  0  0  0  0
  -27.2199  -24.7603   20.7114 H   0  0  0  0  0  0
  -27.6993  -24.7994   19.0297 H   0  0  0  0  0  0
  1 25  1  0  0  0
  1 30  2  0  0  0
  1 83  1  0  0  0
  2  3  1  0  0  0
  2 25  1  0  0  0
  2 85  1  0  0  0
  2 86  1  0  0  0
  3  4  1  0  0  0
  3 87  1  0  0  0
  3 88  1  0  0  0
  4  5  1  0  0  0
  4 89  1  0  0  0
  4 90  1  0  0  0
  5  6  1  0  0  0
  5 26  1  0  0  0
  5 91  1  0  0  0
  6 25  1  0  0  0
  6 92  1  0  0  0
  6 93  1  0  0  0
  7  8  2  0  0  0
  7 26  1  0  0  0
  7 29  1  0  0  0
  8  9  1  0  0  0
  8 22  1  0  0  0
  9 10  1  0  0  0
  9 27  2  0  0  0
 10 11  2  0  0  0
 10 15  1  0  0  0
 11 12  1  0  0  0
 11 94  1  0  0  0
 12 13  2  0  0  0
 12 95  1  0  0  0
 13 14  1  0  0  0
 13 31  1  0  0  0
 14 15  2  0  0  0
 14 96  1  0  0  0
 15 97  1  0  0  0
 16 17  2  0  0  0
 16 21  1  0  0  0
 16 31  1  0  0  0
 17 18  1  0  0  0
 17 98  1  0  0  0
 18 19  2  0  0  0
 18 99  1  0  0  0
 19 20  1  0  0  0
 19 24  1  0  0  0
 20 21  2  0  0  0
 20100  1  0  0  0
 21 23  1  0  0  0
 22 28  1  0  0  0
 22 32  2  0  0  0
 26 27  1  0  0  0
 28101  1  0  0  0
 28102  1  0  0  0
 29103  1  0  0  0
 29104  1  0  0  0
 33 34  1  0  0  0
 33 66  1  0  0  0
 33 70  2  0  0  0
 34 36  1  0  0  0
 34 59  1  0  0  0
 34105  1  0  0  0
 35 44  2  0  0  0
 35 45  1  0  0  0
 35 68  1  0  0  0
 36 56  1  0  0  0
 36106  1  0  0  0
 37 39  1  0  0  0
 37 47  1  0  0  0
 37 66  1  0  0  0
 37107  1  0  0  0
 38 43  2  0  0  0
 38 46  1  0  0  0
 38 47  1  0  0  0
 39 64  1  0  0  0
 39 67  2  0  0  0
 40 52  1  0  0  0
 40 53  2  0  0  0
 40 58  1  0  0  0
 41108  1  0  0  0
 41109  1  0  0  0
 41110  1  0  0  0
 41 48  1  0  0  0
 42 43  1  0  0  0
 42 66  1  0  0  0
 42111  1  0  0  0
 42112  1  0  0  0
 43 44  1  0  0  0
 44113  1  0  0  0
 45 46  2  0  0  0
 45114  1  0  0  0
 46115  1  0  0  0
 47116  1  0  0  0
 47117  1  0  0  0
 48 56  1  0  0  0
 48 65  1  0  0  0
 48118  1  0  0  0
 49 50  1  0  0  0
 49 53  1  0  0  0
 49 64  1  0  0  0
 49119  1  0  0  0
 50 51  1  0  0  0
 50120  1  0  0  0
 50121  1  0  0  0
 51 52  1  0  0  0
 51122  1  0  0  0
 51123  1  0  0  0
 52124  1  0  0  0
 52125  1  0  0  0
 53 54  1  0  0  0
 54 55  2  0  0  0
 54126  1  0  0  0
 55 57  1  0  0  0
 55127  1  0  0  0
 56 69  2  0  0  0
 57 58  2  0  0  0
 57128  1  0  0  0
 58129  1  0  0  0
 59 60  1  0  0  0
 59 61  1  0  0  0
 59 62  1  0  0  0
 60130  1  0  0  0
 60131  1  0  0  0
 60132  1  0  0  0
 61133  1  0  0  0
 61134  1  0  0  0
 61135  1  0  0  0
 62136  1  0  0  0
 62137  1  0  0  0
 62138  1  0  0  0
 63 65  1  0  0  0
 63139  1  0  0  0
 63140  1  0  0  0
 63141  1  0  0  0
 64142  1  0  0  0
 65143  1  0  0  0
 68 82  1  0  0  0
 71 72  2  0  0  0
 71 75  1  0  0  0
 71144  1  0  0  0
 72 76  1  0  0  0
 72145  1  0  0  0
 73 74  1  0  0  0
 73 75  2  0  0  0
 73146  1  0  0  0
 74 76  2  0  0  0
 74 77  1  0  0  0
 75 84  1  0  0  0
 76 83  1  0  0  0
 77147  1  0  0  0
 77148  1  0  0  0
 77149  1  0  0  0
 78 83  1  0  0  0
 78150  1  0  0  0
 78151  1  0  0  0
 78152  1  0  0  0
 79 84  1  0  0  0
 79153  1  0  0  0
 79154  1  0  0  0
 79155  1  0  0  0
 80 81  1  0  0  0
 80 82  1  0  0  0
 80156  1  0  0  0
 80157  1  0  0  0
 81 84  1  0  0  0
 81158  1  0  0  0
 81159  1  0  0  0
 82160  1  0  0  0
 82161  1  0  0  0
M  ISO  4   1 100  68 101  82 101  83 100
M  END
> <chiral flag>
0

> <version>
0

> <s_m_source_file>
/data/baiqing/PycharmProjects/Reinvent-master-3.2/result/LINK_invent/BTK/process_docking_weight1_custom_product_contain_oxygen_bond_distance_aromatic_linkinvent_7_9_3/rearranged_h_0018.sdf

> <i_m_source_file_index>
71

> <r_mmod_Potential_Energy-OPLS-2005>
246.399810791016

> <r_mmod_Stretch_Energy-OPLS-2005>
96.3128662109375

> <r_mmod_Bend_Energy-OPLS-2005>
156.283264160156

> <r_mmod_Torsional_Energy-OPLS-2005>
290.155456542969

> <r_mmod_Improper_Torsional_Energy-OPLS-2005>
6.23416042327881

> <r_mmod_Van_der_Waal_Energy-OPLS-2005>
167.974685668945

> <r_mmod_Electrostatic_Energy-OPLS-2005>
-307.073211669922

> <r_mmod_Solvation_Energy-OPLS-2005>
-209.518157958984

> <b_mmod_Minimization_Converged-OPLS-2005>
0

> <r_mmod_RMS_Derivative-OPLS-2005>
3.29603624343872

$$$$
71
                    3D
 Structure written by MMmdl.
162170  0  0  1  0            999 V2000
  -30.7609  -14.4777   20.6265 C   0  0  0  0  0  0
  -30.4167  -12.3324   19.4328 C   0  0  0  0  0  0
  -29.4916  -12.5059   18.2126 C   0  0  0  0  0  0
  -28.0202  -12.3428   18.6321 C   0  0  0  0  0  0
  -27.6585  -13.2121   19.8643 C   0  0  2  0  0  0
  -28.6962  -13.0377   20.9941 C   0  0  0  0  0  0
  -25.2583  -13.8173   20.5665 C   0  0  0  0  0  0
  -24.1837  -13.0447   20.9159 C   0  0  0  0  0  0
  -24.6398  -11.6911   20.8725 C   0  0  0  0  0  0
  -23.9069  -10.4296   21.0404 C   0  0  0  0  0  0
  -24.3614   -9.4214   21.9185 C   0  0  0  0  0  0
  -23.6287   -8.2249   22.0763 C   0  0  0  0  0  0
  -22.4274   -8.0287   21.3546 C   0  0  0  0  0  0
  -21.9909   -9.0259   20.4645 C   0  0  0  0  0  0
  -22.7243  -10.2132   20.3053 C   0  0  0  0  0  0
  -21.6851   -6.0745   22.5280 C   0  0  0  0  0  0
  -21.4008   -6.5649   23.8213 C   0  0  0  0  0  0
  -21.3654   -5.6796   24.9174 C   0  0  0  0  0  0
  -21.6039   -4.3062   24.7220 C   0  0  0  0  0  0
  -21.8814   -3.8154   23.4346 C   0  0  0  0  0  0
  -21.9191   -4.6970   22.3402 C   0  0  0  0  0  0
  -22.7860  -13.5238   21.1830 C   0  0  0  0  0  0
  -22.1663   -4.2161   21.0977 F   0  0  0  0  0  0
  -21.5622   -3.4541   25.7733 F   0  0  0  0  0  0
  -30.0360  -13.3306   20.4501 N   0  0  0  0  0  0
  -26.3017  -12.9348   20.3317 N   0  0  0  0  0  0
  -25.9325  -11.6508   20.5747 N   0  0  0  0  0  0
  -22.0501  -12.8226   22.0386 N   0  0  0  0  0  0
  -25.4318  -15.1891   20.4111 N   0  0  0  0  0  0
  -31.8219  -14.6755   20.0256 O   0  0  0  0  0  0
  -21.6641   -6.8882   21.4247 O   0  0  0  0  0  0
  -22.3546  -14.5558   20.6703 O   0  0  0  0  0  0
  -24.6174  -31.8659   23.2077 C   0  0  0  0  0  0
  -25.9061  -32.4814   23.8376 C   0  0  1  0  0  0
  -27.2341  -27.4140   20.1033 C   0  0  0  0  0  0
  -25.5922  -33.8612   24.2322 N   0  0  0  0  0  0
  -23.4062  -30.4866   21.5491 C   0  0  2  0  0  0
  -24.8556  -28.9509   20.1124 C   0  0  0  0  0  0
  -22.7420  -29.4639   22.4998 C   0  0  0  0  0  0
  -18.0266  -28.1364   22.8481 C   0  0  0  0  0  0
  -24.1484  -36.7289   23.2631 C   0  0  0  0  0  0
  -25.9354  -30.8262   21.3616 C   0  0  0  0  0  0
  -26.0173  -29.4580   20.7108 C   0  0  0  0  0  0
  -27.2138  -28.6975   20.7020 C   0  0  0  0  0  0
  -26.0594  -26.9297   19.4920 C   0  0  0  0  0  0
  -24.8735  -27.6873   19.4969 C   0  0  0  0  0  0
  -23.6145  -29.8145   20.1653 C   0  0  0  0  0  0
  -25.4097  -36.3097   24.0343 C   0  0  1  0  0  0
  -20.5857  -28.3647   23.1315 C   0  0  2  0  0  0
  -20.6755  -26.9382   22.5402 C   0  0  0  0  0  0
  -19.5737  -26.6365   21.5198 C   0  0  0  0  0  0
  -18.1914  -26.7907   22.1603 C   0  0  0  0  0  0
  -19.1516  -28.8822   23.2892 C   0  0  0  0  0  0
  -18.9451  -30.1431   23.8900 C   0  0  0  0  0  0
  -17.6458  -30.6580   24.0554 C   0  0  0  0  0  0
  -25.9029  -34.9473   23.5122 C   0  0  0  0  0  0
  -16.5345  -29.9070   23.6339 C   0  0  0  0  0  0
  -16.7254  -28.6486   23.0358 C   0  0  0  0  0  0
  -26.4479  -31.6599   25.0710 C   0  0  0  0  0  0
  -25.3746  -31.3683   26.1463 C   0  0  0  0  0  0
  -27.0329  -30.3055   24.6060 C   0  0  0  0  0  0
  -27.6055  -32.4316   25.7484 C   0  0  0  0  0  0
  -27.5582  -37.1780   24.8456 C   0  0  0  0  0  0
  -21.4141  -29.3041   22.3753 N   0  0  0  0  0  0
  -26.4271  -37.3800   23.9438 N   0  0  0  0  0  0
  -24.6714  -31.0731   22.0990 N   0  0  0  0  0  0
  -23.4184  -28.8167   23.3033 O   0  0  0  0  0  0
  -28.3582  -26.6111   20.1111 O   0  0  0  0  0  0
  -26.5576  -34.8943   22.4669 O   0  0  0  0  0  0
  -23.5354  -32.1415   23.7454 O   0  0  0  0  0  0
  -29.9922  -19.2248   21.7500 C   0  0  0  0  0  0
  -29.8684  -18.6166   19.4156 C   0  0  0  0  0  0
  -30.1154  -17.8549   22.0952 C   0  0  0  0  0  0
  -29.9785  -17.2450   19.7612 C   0  0  0  0  0  0
  -29.8759  -19.6308   20.4025 C   0  0  0  0  0  0
  -30.1262  -16.8255   21.1119 C   0  0  0  0  0  0
  -30.4269  -15.0900   22.9117 C   0  0  0  0  0  0
  -27.5007  -21.0264   19.1872 C   0  0  0  0  0  0
  -29.8298  -21.1335   20.0163 C   0  0  0  0  0  0
  -29.0743  -24.2130   20.7198 C   0  0  0  0  0  0
  -28.4456  -23.2415   19.6775 C   0  0  0  0  0  0
  -28.2671  -25.5112   21.0438 C   0  0  0  0  0  0
  -30.2806  -15.4218   21.4851 N   0  0  0  0  0  0
  -28.4748  -21.7732   20.0242 N   0  3  1  0  0  0
  -31.4627  -12.4154   19.1310 H   0  0  0  0  0  0
  -30.3138  -11.3289   19.8486 H   0  0  0  0  0  0
  -29.7438  -11.7726   17.4448 H   0  0  0  0  0  0
  -29.6440  -13.4886   17.7626 H   0  0  0  0  0  0
  -27.8615  -11.2888   18.8666 H   0  0  0  0  0  0
  -27.3574  -12.5709   17.7971 H   0  0  0  0  0  0
  -27.6938  -14.2516   19.5374 H   0  0  0  0  0  0
  -28.6728  -12.0176   21.3806 H   0  0  0  0  0  0
  -28.4261  -13.6772   21.8338 H   0  0  0  0  0  0
  -25.2757   -9.5687   22.4763 H   0  0  0  0  0  0
  -23.9991   -7.4644   22.7489 H   0  0  0  0  0  0
  -21.0840   -8.8776   19.8948 H   0  0  0  0  0  0
  -22.3713  -10.9668   19.6152 H   0  0  0  0  0  0
  -21.2005   -7.6155   23.9717 H   0  0  0  0  0  0
  -21.1471   -6.0530   25.9071 H   0  0  0  0  0  0
  -22.0597   -2.7620   23.2843 H   0  0  0  0  0  0
  -22.4119  -11.9870   22.4739 H   0  0  0  0  0  0
  -21.1114  -13.1235   22.2585 H   0  0  0  0  0  0
  -24.6710  -15.8482   20.5325 H   0  0  0  0  0  0
  -26.2960  -15.6305   20.1225 H   0  0  0  0  0  0
  -26.7131  -32.5524   23.1142 H   0  0  0  0  0  0
  -25.0199  -33.9770   25.0553 H   0  0  0  0  0  0
  -22.6958  -31.3033   21.4049 H   0  0  0  0  0  0
  -23.3783  -35.9585   23.3252 H   0  0  0  0  0  0
  -24.3598  -36.8933   22.2056 H   0  0  0  0  0  0
  -23.7185  -37.6461   23.6664 H   0  0  0  0  0  0
  -26.0405  -31.5888   20.5886 H   0  0  0  0  0  0
  -26.8262  -30.8865   21.9760 H   0  0  0  0  0  0
  -28.1095  -29.0788   21.1718 H   0  0  0  0  0  0
  -26.0598  -25.9556   19.0237 H   0  0  0  0  0  0
  -23.9826  -27.2928   19.0280 H   0  0  0  0  0  0
  -23.7119  -30.5873   19.4016 H   0  0  0  0  0  0
  -22.7408  -29.2275   19.8760 H   0  0  0  0  0  0
  -25.1263  -36.1949   25.0830 H   0  0  0  0  0  0
  -20.9921  -28.3186   24.1444 H   0  0  0  0  0  0
  -20.5643  -26.2249   23.3578 H   0  0  0  0  0  0
  -21.6620  -26.7415   22.1191 H   0  0  0  0  0  0
  -19.6906  -25.6275   21.1217 H   0  0  0  0  0  0
  -19.6690  -27.3189   20.6740 H   0  0  0  0  0  0
  -17.4175  -26.6675   21.4000 H   0  0  0  0  0  0
  -18.0317  -26.0032   22.8978 H   0  0  0  0  0  0
  -19.7943  -30.7242   24.2260 H   0  0  0  0  0  0
  -17.5025  -31.6273   24.5133 H   0  0  0  0  0  0
  -15.5349  -30.2979   23.7677 H   0  0  0  0  0  0
  -15.8645  -28.0808   22.7081 H   0  0  0  0  0  0
  -24.5945  -30.6990   25.7807 H   0  0  0  0  0  0
  -24.8908  -32.2829   26.4911 H   0  0  0  0  0  0
  -25.8112  -30.8865   27.0224 H   0  0  0  0  0  0
  -26.2872  -29.6798   24.1138 H   0  0  0  0  0  0
  -27.4177  -29.7291   25.4485 H   0  0  0  0  0  0
  -27.8665  -30.4411   23.9163 H   0  0  0  0  0  0
  -27.2688  -33.3640   26.2032 H   0  0  0  0  0  0
  -28.3899  -32.6824   25.0329 H   0  0  0  0  0  0
  -28.0688  -31.8448   26.5430 H   0  0  0  0  0  0
  -28.2531  -38.0151   24.7617 H   0  0  0  0  0  0
  -28.1153  -36.2687   24.6133 H   0  0  0  0  0  0
  -27.2322  -37.1235   25.8862 H   0  0  0  0  0  0
  -20.9306  -29.8792   21.6998 H   0  0  0  0  0  0
  -26.0154  -38.2859   24.1528 H   0  0  0  0  0  0
  -30.0122  -19.9679   22.5356 H   0  0  0  0  0  0
  -29.7925  -18.8864   18.3713 H   0  0  0  0  0  0
  -30.2213  -17.6251   23.1455 H   0  0  0  0  0  0
  -29.9718  -16.5210   18.9585 H   0  0  0  0  0  0
  -31.3483  -15.5210   23.3071 H   0  0  0  0  0  0
  -30.4791  -14.0152   23.0988 H   0  0  0  0  0  0
  -29.5857  -15.4645   23.4949 H   0  0  0  0  0  0
  -27.3729  -19.9992   19.5282 H   0  0  0  0  0  0
  -27.8252  -21.0006   18.1459 H   0  0  0  0  0  0
  -26.5112  -21.4846   19.2159 H   0  0  0  0  0  0
  -30.2695  -21.2492   19.0242 H   0  0  0  0  0  0
  -30.4892  -21.6797   20.6925 H   0  0  0  0  0  0
  -30.0931  -24.4676   20.4262 H   0  0  0  0  0  0
  -29.1769  -23.6732   21.6622 H   0  0  0  0  0  0
  -28.9028  -23.4008   18.6999 H   0  0  0  0  0  0
  -27.4009  -23.5321   19.5568 H   0  0  0  0  0  0
  -28.6376  -25.8982   21.9942 H   0  0  0  0  0  0
  -27.2292  -25.2347   21.2448 H   0  0  0  0  0  0
  -28.1297  -21.6933   20.9684 H   0  0  0  0  0  0
  1 25  1  0  0  0
  1 30  2  0  0  0
  1 83  1  0  0  0
  2  3  1  0  0  0
  2 25  1  0  0  0
  2 85  1  0  0  0
  2 86  1  0  0  0
  3  4  1  0  0  0
  3 87  1  0  0  0
  3 88  1  0  0  0
  4  5  1  0  0  0
  4 89  1  0  0  0
  4 90  1  0  0  0
  5  6  1  0  0  0
  5 26  1  0  0  0
  5 91  1  0  0  0
  6 25  1  0  0  0
  6 92  1  0  0  0
  6 93  1  0  0  0
  7  8  2  0  0  0
  7 26  1  0  0  0
  7 29  1  0  0  0
  8  9  1  0  0  0
  8 22  1  0  0  0
  9 10  1  0  0  0
  9 27  2  0  0  0
 10 11  2  0  0  0
 10 15  1  0  0  0
 11 12  1  0  0  0
 11 94  1  0  0  0
 12 13  2  0  0  0
 12 95  1  0  0  0
 13 14  1  0  0  0
 13 31  1  0  0  0
 14 15  2  0  0  0
 14 96  1  0  0  0
 15 97  1  0  0  0
 16 17  2  0  0  0
 16 21  1  0  0  0
 16 31  1  0  0  0
 17 18  1  0  0  0
 17 98  1  0  0  0
 18 19  2  0  0  0
 18 99  1  0  0  0
 19 20  1  0  0  0
 19 24  1  0  0  0
 20 21  2  0  0  0
 20100  1  0  0  0
 21 23  1  0  0  0
 22 28  1  0  0  0
 22 32  2  0  0  0
 26 27  1  0  0  0
 28101  1  0  0  0
 28102  1  0  0  0
 29103  1  0  0  0
 29104  1  0  0  0
 33 34  1  0  0  0
 33 66  1  0  0  0
 33 70  2  0  0  0
 34 36  1  0  0  0
 34 59  1  0  0  0
 34105  1  0  0  0
 35 44  2  0  0  0
 35 45  1  0  0  0
 35 68  1  0  0  0
 36 56  1  0  0  0
 36106  1  0  0  0
 37 39  1  0  0  0
 37 47  1  0  0  0
 37 66  1  0  0  0
 37107  1  0  0  0
 38 43  2  0  0  0
 38 46  1  0  0  0
 38 47  1  0  0  0
 39 64  1  0  0  0
 39 67  2  0  0  0
 40 52  1  0  0  0
 40 53  2  0  0  0
 40 58  1  0  0  0
 41108  1  0  0  0
 41109  1  0  0  0
 41110  1  0  0  0
 41 48  1  0  0  0
 42 43  1  0  0  0
 42 66  1  0  0  0
 42111  1  0  0  0
 42112  1  0  0  0
 43 44  1  0  0  0
 44113  1  0  0  0
 45 46  2  0  0  0
 45114  1  0  0  0
 46115  1  0  0  0
 47116  1  0  0  0
 47117  1  0  0  0
 48 56  1  0  0  0
 48 65  1  0  0  0
 48118  1  0  0  0
 49 50  1  0  0  0
 49 53  1  0  0  0
 49 64  1  0  0  0
 49119  1  0  0  0
 50 51  1  0  0  0
 50120  1  0  0  0
 50121  1  0  0  0
 51 52  1  0  0  0
 51122  1  0  0  0
 51123  1  0  0  0
 52124  1  0  0  0
 52125  1  0  0  0
 53 54  1  0  0  0
 54 55  2  0  0  0
 54126  1  0  0  0
 55 57  1  0  0  0
 55127  1  0  0  0
 56 69  2  0  0  0
 57 58  2  0  0  0
 57128  1  0  0  0
 58129  1  0  0  0
 59 60  1  0  0  0
 59 61  1  0  0  0
 59 62  1  0  0  0
 60130  1  0  0  0
 60131  1  0  0  0
 60132  1  0  0  0
 61133  1  0  0  0
 61134  1  0  0  0
 61135  1  0  0  0
 62136  1  0  0  0
 62137  1  0  0  0
 62138  1  0  0  0
 63 65  1  0  0  0
 63139  1  0  0  0
 63140  1  0  0  0
 63141  1  0  0  0
 64142  1  0  0  0
 65143  1  0  0  0
 68 82  1  0  0  0
 71 73  2  0  0  0
 71 75  1  0  0  0
 71144  1  0  0  0
 72 74  1  0  0  0
 72 75  2  0  0  0
 72145  1  0  0  0
 73 76  1  0  0  0
 73146  1  0  0  0
 74 76  2  0  0  0
 74147  1  0  0  0
 75 79  1  0  0  0
 76 83  1  0  0  0
 77 83  1  0  0  0
 77148  1  0  0  0
 77149  1  0  0  0
 77150  1  0  0  0
 78151  1  0  0  0
 78152  1  0  0  0
 78153  1  0  0  0
 78 84  1  0  0  0
 79 84  1  0  0  0
 79154  1  0  0  0
 79155  1  0  0  0
 80 81  1  0  0  0
 80 82  1  0  0  0
 80156  1  0  0  0
 80157  1  0  0  0
 81 84  1  0  0  0
 81158  1  0  0  0
 81159  1  0  0  0
 82160  1  0  0  0
 82161  1  0  0  0
 84162  1  0  0  0
M  CHG  1  84   1
M  ISO  4   1 100  68 101  82 101  83 100
M  END
> <chiral flag>
0

> <version>
0

> <s_m_source_file>
/data/baiqing/PycharmProjects/Reinvent-master-3.2/result/LINK_invent/BTK/process_docking_weight1_custom_product_contain_oxygen_bond_distance_aromatic_linkinvent_7_9_3/rearranged_h_0018.sdf

> <i_m_source_file_index>
72

> <r_mmod_Potential_Energy-OPLS-2005>
15.3480434417725

> <r_mmod_Stretch_Energy-OPLS-2005>
52.8608551025391

> <r_mmod_Bend_Energy-OPLS-2005>
111.99144744873

> <r_mmod_Torsional_Energy-OPLS-2005>
302.245422363281

> <r_mmod_Improper_Torsional_Energy-OPLS-2005>
2.93491387367249

> <r_mmod_Van_der_Waal_Energy-OPLS-2005>
154.772994995117

> <r_mmod_Electrostatic_Energy-OPLS-2005>
-191.54020690918

> <r_mmod_Solvation_Energy-OPLS-2005>
-433.879608154297

> <b_mmod_Minimization_Converged-OPLS-2005>
0

> <r_mmod_RMS_Derivative-OPLS-2005>
1.88787949085236

$$$$
72
                    3D
 Structure written by MMmdl.
166174  0  0  1  0            999 V2000
  -30.7624  -14.4273   20.6672 C   0  0  0  0  0  0
  -30.4174  -12.3233   19.4106 C   0  0  0  0  0  0
  -29.4869  -12.5262   18.2001 C   0  0  0  0  0  0
  -28.0127  -12.3701   18.6152 C   0  0  0  0  0  0
  -27.6609  -13.2035   19.8734 C   0  0  2  0  0  0
  -28.7022  -12.9803   20.9951 C   0  0  0  0  0  0
  -25.2593  -13.8149   20.5694 C   0  0  0  0  0  0
  -24.1849  -13.0428   20.9183 C   0  0  0  0  0  0
  -24.6399  -11.6892   20.8736 C   0  0  0  0  0  0
  -23.9067  -10.4282   21.0406 C   0  0  0  0  0  0
  -24.3606   -9.4188   21.9181 C   0  0  0  0  0  0
  -23.6278   -8.2228   22.0747 C   0  0  0  0  0  0
  -22.4259   -8.0273   21.3538 C   0  0  0  0  0  0
  -21.9902   -9.0254   20.4641 C   0  0  0  0  0  0
  -22.7238  -10.2129   20.3055 C   0  0  0  0  0  0
  -21.6838   -6.0736   22.5279 C   0  0  0  0  0  0
  -21.4006   -6.5646   23.8214 C   0  0  0  0  0  0
  -21.3657   -5.6799   24.9177 C   0  0  0  0  0  0
  -21.6043   -4.3059   24.7231 C   0  0  0  0  0  0
  -21.8819   -3.8150   23.4353 C   0  0  0  0  0  0
  -21.9184   -4.6966   22.3407 C   0  0  0  0  0  0
  -22.7866  -13.5220   21.1847 C   0  0  0  0  0  0
  -22.1653   -4.2149   21.0983 F   0  0  0  0  0  0
  -21.5631   -3.4546   25.7746 F   0  0  0  0  0  0
  -30.0383  -13.2889   20.4570 N   0  0  0  0  0  0
  -26.3019  -12.9314   20.3353 N   0  0  0  0  0  0
  -25.9315  -11.6478   20.5742 N   0  0  0  0  0  0
  -22.0502  -12.8222   22.0403 N   0  0  0  0  0  0
  -25.4335  -15.1870   20.4121 N   0  0  0  0  0  0
  -31.8126  -14.6565   20.0573 O   0  0  0  0  0  0
  -21.6619   -6.8874   21.4237 O   0  0  0  0  0  0
  -22.3556  -14.5532   20.6698 O   0  0  0  0  0  0
  -24.6135  -31.8701   23.2132 C   0  0  0  0  0  0
  -25.9042  -32.4835   23.8410 C   0  0  1  0  0  0
  -27.2217  -27.4280   20.1073 C   0  0  0  0  0  0
  -25.5916  -33.8638   24.2340 N   0  0  0  0  0  0
  -23.4014  -30.4943   21.5543 C   0  0  2  0  0  0
  -24.8492  -28.9657   20.1137 C   0  0  0  0  0  0
  -22.7403  -29.4666   22.5002 C   0  0  0  0  0  0
  -18.0272  -28.1384   22.8502 C   0  0  0  0  0  0
  -24.1481  -36.7308   23.2626 C   0  0  0  0  0  0
  -25.9311  -30.8299   21.3737 C   0  0  0  0  0  0
  -26.0071  -29.4623   20.7274 C   0  0  0  0  0  0
  -27.1980  -28.6975   20.7321 C   0  0  0  0  0  0
  -26.0681  -26.9808   19.4319 C   0  0  0  0  0  0
  -24.8742  -27.7219   19.4621 C   0  0  0  0  0  0
  -23.6104  -29.8312   20.1673 C   0  0  0  0  0  0
  -25.4102  -36.3119   24.0336 C   0  0  1  0  0  0
  -20.5854  -28.3675   23.1322 C   0  0  2  0  0  0
  -20.6766  -26.9410   22.5436 C   0  0  0  0  0  0
  -19.5752  -26.6388   21.5224 C   0  0  0  0  0  0
  -18.1915  -26.7942   22.1606 C   0  0  0  0  0  0
  -19.1520  -28.8847   23.2906 C   0  0  0  0  0  0
  -18.9453  -30.1458   23.8913 C   0  0  0  0  0  0
  -17.6454  -30.6592   24.0575 C   0  0  0  0  0  0
  -25.9038  -34.9486   23.5121 C   0  0  0  0  0  0
  -16.5349  -29.9093   23.6331 C   0  0  0  0  0  0
  -16.7262  -28.6511   23.0353 C   0  0  0  0  0  0
  -26.4463  -31.6617   25.0742 C   0  0  0  0  0  0
  -25.3731  -31.3800   26.1517 C   0  0  0  0  0  0
  -27.0239  -30.3028   24.6135 C   0  0  0  0  0  0
  -27.6094  -32.4294   25.7454 C   0  0  0  0  0  0
  -27.5596  -37.1783   24.8445 C   0  0  0  0  0  0
  -21.4132  -29.3043   22.3736 N   0  0  0  0  0  0
  -26.4282  -37.3813   23.9436 N   0  0  0  0  0  0
  -24.6667  -31.0788   22.1051 N   0  0  0  0  0  0
  -23.4177  -28.8204   23.3037 O   0  0  0  0  0  0
  -28.3518  -26.6425   20.0762 O   0  0  0  0  0  0
  -26.5574  -34.8938   22.4663 O   0  0  0  0  0  0
  -23.5329  -32.1467   23.7527 O   0  0  0  0  0  0
  -29.3898  -18.6027   22.3459 C   0  0  0  0  0  0
  -29.6577  -19.9649   22.0875 C   0  0  0  0  0  0
  -30.1870  -18.0271   20.1370 C   0  0  0  0  0  0
  -29.6322  -17.6206   21.3647 C   0  0  0  0  0  0
  -30.1719  -20.4036   20.8382 C   0  0  0  0  0  0
  -30.4554  -19.3871   19.8729 C   0  0  0  0  0  0
  -28.5554  -25.7268   21.0762 C   0  0  0  0  0  0
  -26.4377  -24.2843   21.0532 C   0  0  0  0  0  0
  -30.5819  -22.2544   19.2087 C   0  0  0  0  0  0
  -31.4212  -15.6433   22.6622 C   0  0  0  0  0  0
  -29.2627  -16.1540   21.6126 C   0  0  0  0  0  0
  -28.5914  -23.1861   21.7243 C   0  0  0  0  0  0
  -30.0940  -22.8330   21.5857 C   0  0  0  0  0  0
  -27.9686  -24.3020   20.8221 C   0  0  2  0  0  0
  -30.3815  -21.7953   20.5815 N   0  0  0  0  0  0
  -30.3946  -15.2129   21.7087 N   0  0  0  0  0  0
  -29.1551  -26.0036   22.1189 O   0  0  0  0  0  0
  -30.9933  -19.6785   18.6623 F   0  0  0  0  0  0
  -28.1585  -23.9598   19.5456 F   0  0  0  0  0  0
  -31.4594  -12.4246   19.1028 H   0  0  0  0  0  0
  -30.3262  -11.3063   19.7947 H   0  0  0  0  0  0
  -29.7295  -11.8092   17.4149 H   0  0  0  0  0  0
  -29.6467  -13.5163   17.7702 H   0  0  0  0  0  0
  -27.8310  -11.3126   18.8077 H   0  0  0  0  0  0
  -27.3587  -12.6464   17.7874 H   0  0  0  0  0  0
  -27.7015  -14.2474   19.5680 H   0  0  0  0  0  0
  -28.6791  -11.9411   21.3263 H   0  0  0  0  0  0
  -28.4498  -13.5659   21.8783 H   0  0  0  0  0  0
  -25.2744   -9.5651   22.4766 H   0  0  0  0  0  0
  -23.9982   -7.4607   22.7464 H   0  0  0  0  0  0
  -21.0833   -8.8781   19.8946 H   0  0  0  0  0  0
  -22.3700  -10.9675   19.6171 H   0  0  0  0  0  0
  -21.2002   -7.6149   23.9721 H   0  0  0  0  0  0
  -21.1481   -6.0529   25.9082 H   0  0  0  0  0  0
  -22.0602   -2.7613   23.2862 H   0  0  0  0  0  0
  -22.4103  -11.9876   22.4792 H   0  0  0  0  0  0
  -21.1113  -13.1255   22.2593 H   0  0  0  0  0  0
  -24.6714  -15.8451   20.5315 H   0  0  0  0  0  0
  -26.2857  -15.6266   20.0885 H   0  0  0  0  0  0
  -26.7123  -32.5554   23.1185 H   0  0  0  0  0  0
  -25.0145  -33.9818   25.0541 H   0  0  0  0  0  0
  -22.6889  -31.3106   21.4178 H   0  0  0  0  0  0
  -23.3802  -35.9570   23.3174 H   0  0  0  0  0  0
  -24.3609  -36.9046   22.2065 H   0  0  0  0  0  0
  -23.7142  -37.6436   23.6719 H   0  0  0  0  0  0
  -26.0408  -31.5909   20.6005 H   0  0  0  0  0  0
  -26.8206  -30.8864   21.9901 H   0  0  0  0  0  0
  -28.0885  -29.0684   21.2209 H   0  0  0  0  0  0
  -26.0923  -26.0559   18.8758 H   0  0  0  0  0  0
  -23.9940  -27.3470   18.9573 H   0  0  0  0  0  0
  -23.7135  -30.6089   19.4101 H   0  0  0  0  0  0
  -22.7365  -29.2482   19.8720 H   0  0  0  0  0  0
  -25.1271  -36.1965   25.0827 H   0  0  0  0  0  0
  -20.9939  -28.3252   24.1446 H   0  0  0  0  0  0
  -20.5681  -26.2279   23.3622 H   0  0  0  0  0  0
  -21.6633  -26.7460   22.1224 H   0  0  0  0  0  0
  -19.6907  -25.6299   21.1255 H   0  0  0  0  0  0
  -19.6707  -27.3203   20.6759 H   0  0  0  0  0  0
  -17.4200  -26.6742   21.3981 H   0  0  0  0  0  0
  -18.0271  -26.0071   22.8978 H   0  0  0  0  0  0
  -19.7930  -30.7281   24.2282 H   0  0  0  0  0  0
  -17.5008  -31.6274   24.5174 H   0  0  0  0  0  0
  -15.5351  -30.2997   23.7659 H   0  0  0  0  0  0
  -15.8665  -28.0851   22.7040 H   0  0  0  0  0  0
  -24.5812  -30.7246   25.7864 H   0  0  0  0  0  0
  -24.9046  -32.3016   26.4990 H   0  0  0  0  0  0
  -25.8053  -30.8914   27.0260 H   0  0  0  0  0  0
  -26.2760  -29.6812   24.1194 H   0  0  0  0  0  0
  -27.3978  -29.7251   25.4603 H   0  0  0  0  0  0
  -27.8633  -30.4301   23.9289 H   0  0  0  0  0  0
  -27.2810  -33.3668   26.1947 H   0  0  0  0  0  0
  -28.3925  -32.6699   25.0251 H   0  0  0  0  0  0
  -28.0710  -31.8437   26.5416 H   0  0  0  0  0  0
  -28.2558  -38.0137   24.7592 H   0  0  0  0  0  0
  -28.1145  -36.2678   24.6132 H   0  0  0  0  0  0
  -27.2344  -37.1268   25.8850 H   0  0  0  0  0  0
  -20.9279  -29.8759   21.6966 H   0  0  0  0  0  0
  -26.0169  -38.2867   24.1536 H   0  0  0  0  0  0
  -28.9800  -18.3226   23.3058 H   0  0  0  0  0  0
  -29.4323  -20.6637   22.8786 H   0  0  0  0  0  0
  -30.3986  -17.2960   19.3710 H   0  0  0  0  0  0
  -26.0943  -23.3662   21.5292 H   0  0  0  0  0  0
  -25.8873  -24.3381   20.1175 H   0  0  0  0  0  0
  -26.1049  -25.1038   21.6912 H   0  0  0  0  0  0
  -31.5554  -21.9420   18.8291 H   0  0  0  0  0  0
  -30.5534  -23.3426   19.1406 H   0  0  0  0  0  0
  -29.8031  -21.8663   18.5505 H   0  0  0  0  0  0
  -30.9704  -16.0496   23.5686 H   0  0  0  0  0  0
  -32.0610  -16.4127   22.2262 H   0  0  0  0  0  0
  -32.0548  -14.8060   22.9588 H   0  0  0  0  0  0
  -28.5855  -15.8607   20.8126 H   0  0  0  0  0  0
  -28.6770  -16.0766   22.5298 H   0  0  0  0  0  0
  -28.4234  -23.4841   22.7605 H   0  0  0  0  0  0
  -28.0144  -22.2681   21.6082 H   0  0  0  0  0  0
  -30.4785  -22.5010   22.5504 H   0  0  0  0  0  0
  -30.6713  -23.7328   21.3682 H   0  0  0  0  0  0
  1 25  1  0  0  0
  1 30  2  0  0  0
  1 86  1  0  0  0
  2  3  1  0  0  0
  2 25  1  0  0  0
  2 90  1  0  0  0
  2 91  1  0  0  0
  3  4  1  0  0  0
  3 92  1  0  0  0
  3 93  1  0  0  0
  4  5  1  0  0  0
  4 94  1  0  0  0
  4 95  1  0  0  0
  5  6  1  0  0  0
  5 26  1  0  0  0
  5 96  1  0  0  0
  6 25  1  0  0  0
  6 97  1  0  0  0
  6 98  1  0  0  0
  7  8  2  0  0  0
  7 26  1  0  0  0
  7 29  1  0  0  0
  8  9  1  0  0  0
  8 22  1  0  0  0
  9 10  1  0  0  0
  9 27  2  0  0  0
 10 11  2  0  0  0
 10 15  1  0  0  0
 11 12  1  0  0  0
 11 99  1  0  0  0
 12 13  2  0  0  0
 12100  1  0  0  0
 13 14  1  0  0  0
 13 31  1  0  0  0
 14 15  2  0  0  0
 14101  1  0  0  0
 15102  1  0  0  0
 16 17  2  0  0  0
 16 21  1  0  0  0
 16 31  1  0  0  0
 17 18  1  0  0  0
 17103  1  0  0  0
 18 19  2  0  0  0
 18104  1  0  0  0
 19 20  1  0  0  0
 19 24  1  0  0  0
 20 21  2  0  0  0
 20105  1  0  0  0
 21 23  1  0  0  0
 22 28  1  0  0  0
 22 32  2  0  0  0
 26 27  1  0  0  0
 28106  1  0  0  0
 28107  1  0  0  0
 29108  1  0  0  0
 29109  1  0  0  0
 33 34  1  0  0  0
 33 66  1  0  0  0
 33 70  2  0  0  0
 34 36  1  0  0  0
 34 59  1  0  0  0
 34110  1  0  0  0
 35 44  2  0  0  0
 35 45  1  0  0  0
 35 68  1  0  0  0
 36 56  1  0  0  0
 36111  1  0  0  0
 37 39  1  0  0  0
 37 47  1  0  0  0
 37 66  1  0  0  0
 37112  1  0  0  0
 38 43  2  0  0  0
 38 46  1  0  0  0
 38 47  1  0  0  0
 39 64  1  0  0  0
 39 67  2  0  0  0
 40 52  1  0  0  0
 40 53  2  0  0  0
 40 58  1  0  0  0
 41113  1  0  0  0
 41114  1  0  0  0
 41115  1  0  0  0
 41 48  1  0  0  0
 42 43  1  0  0  0
 42 66  1  0  0  0
 42116  1  0  0  0
 42117  1  0  0  0
 43 44  1  0  0  0
 44118  1  0  0  0
 45 46  2  0  0  0
 45119  1  0  0  0
 46120  1  0  0  0
 47121  1  0  0  0
 47122  1  0  0  0
 48 56  1  0  0  0
 48 65  1  0  0  0
 48123  1  0  0  0
 49 50  1  0  0  0
 49 53  1  0  0  0
 49 64  1  0  0  0
 49124  1  0  0  0
 50 51  1  0  0  0
 50125  1  0  0  0
 50126  1  0  0  0
 51 52  1  0  0  0
 51127  1  0  0  0
 51128  1  0  0  0
 52129  1  0  0  0
 52130  1  0  0  0
 53 54  1  0  0  0
 54 55  2  0  0  0
 54131  1  0  0  0
 55 57  1  0  0  0
 55132  1  0  0  0
 56 69  2  0  0  0
 57 58  2  0  0  0
 57133  1  0  0  0
 58134  1  0  0  0
 59 60  1  0  0  0
 59 61  1  0  0  0
 59 62  1  0  0  0
 60135  1  0  0  0
 60136  1  0  0  0
 60137  1  0  0  0
 61138  1  0  0  0
 61139  1  0  0  0
 61140  1  0  0  0
 62141  1  0  0  0
 62142  1  0  0  0
 62143  1  0  0  0
 63 65  1  0  0  0
 63144  1  0  0  0
 63145  1  0  0  0
 63146  1  0  0  0
 64147  1  0  0  0
 65148  1  0  0  0
 68 77  1  0  0  0
 71 72  2  0  0  0
 71 74  1  0  0  0
 71149  1  0  0  0
 72 75  1  0  0  0
 72150  1  0  0  0
 73 74  2  0  0  0
 73 76  1  0  0  0
 73151  1  0  0  0
 74 81  1  0  0  0
 75 76  2  0  0  0
 75 85  1  0  0  0
 76 88  1  0  0  0
 77 84  1  0  0  0
 77 87  2  0  0  0
 78152  1  0  0  0
 78153  1  0  0  0
 78154  1  0  0  0
 78 84  1  0  0  0
 79 85  1  0  0  0
 79155  1  0  0  0
 79156  1  0  0  0
 79157  1  0  0  0
 80 86  1  0  0  0
 80158  1  0  0  0
 80159  1  0  0  0
 80160  1  0  0  0
 81 86  1  0  0  0
 81161  1  0  0  0
 81162  1  0  0  0
 82 83  1  0  0  0
 82 84  1  0  0  0
 82163  1  0  0  0
 82164  1  0  0  0
 83 85  1  0  0  0
 83165  1  0  0  0
 83166  1  0  0  0
 84 89  1  0  0  0
M  ISO  4   1 100  68 101  77 101  86 100
M  END
> <chiral flag>
0

> <version>
0

> <s_m_source_file>
/data/baiqing/PycharmProjects/Reinvent-master-3.2/result/LINK_invent/BTK/process_docking_weight1_custom_product_contain_oxygen_bond_distance_aromatic_linkinvent_7_9_3/rearranged_h_0018.sdf

> <i_m_source_file_index>
73

> <r_mmod_Potential_Energy-OPLS-2005>
210.345520019531

> <r_mmod_Stretch_Energy-OPLS-2005>
46.1865577697754

> <r_mmod_Bend_Energy-OPLS-2005>
120.0478515625

> <r_mmod_Torsional_Energy-OPLS-2005>
311.790466308594

> <r_mmod_Improper_Torsional_Energy-OPLS-2005>
6.59154653549194

> <r_mmod_Van_der_Waal_Energy-OPLS-2005>
162.406539916992

> <r_mmod_Electrostatic_Energy-OPLS-2005>
-236.986465454102

> <r_mmod_Solvation_Energy-OPLS-2005>
-211.582382202148

> <b_mmod_Minimization_Converged-OPLS-2005>
0

> <r_mmod_RMS_Derivative-OPLS-2005>
1.83295893669128

$$$$
73
                    3D
 Structure written by MMmdl.
158166  0  0  1  0            999 V2000
  -30.6555  -14.6523   20.5448 C   0  0  0  0  0  0
  -30.4299  -12.4115   19.4705 C   0  0  0  0  0  0
  -29.5101  -12.5105   18.2328 C   0  0  0  0  0  0
  -28.0338  -12.3390   18.6383 C   0  0  0  0  0  0
  -27.6484  -13.2196   19.8550 C   0  0  2  0  0  0
  -28.6818  -13.0910   20.9904 C   0  0  0  0  0  0
  -25.2562  -13.8187   20.5680 C   0  0  0  0  0  0
  -24.1825  -13.0446   20.9168 C   0  0  0  0  0  0
  -24.6391  -11.6920   20.8710 C   0  0  0  0  0  0
  -23.9057  -10.4301   21.0392 C   0  0  0  0  0  0
  -24.3613   -9.4226   21.9170 C   0  0  0  0  0  0
  -23.6292   -8.2261   22.0759 C   0  0  0  0  0  0
  -22.4271   -8.0297   21.3554 C   0  0  0  0  0  0
  -21.9898   -9.0268   20.4649 C   0  0  0  0  0  0
  -22.7227  -10.2141   20.3050 C   0  0  0  0  0  0
  -21.6857   -6.0746   22.5286 C   0  0  0  0  0  0
  -21.4015   -6.5652   23.8222 C   0  0  0  0  0  0
  -21.3655   -5.6798   24.9175 C   0  0  0  0  0  0
  -21.6035   -4.3057   24.7216 C   0  0  0  0  0  0
  -21.8817   -3.8151   23.4340 C   0  0  0  0  0  0
  -21.9198   -4.6972   22.3402 C   0  0  0  0  0  0
  -22.7844  -13.5241   21.1833 C   0  0  0  0  0  0
  -22.1655   -4.2156   21.0976 F   0  0  0  0  0  0
  -21.5641   -3.4547   25.7733 F   0  0  0  0  0  0
  -30.0008  -13.4454   20.4414 N   0  0  0  0  0  0
  -26.2960  -12.9364   20.3250 N   0  0  0  0  0  0
  -25.9316  -11.6513   20.5697 N   0  0  0  0  0  0
  -22.0502  -12.8238   22.0394 N   0  0  0  0  0  0
  -25.4284  -15.1912   20.4145 N   0  0  0  0  0  0
  -31.7861  -14.7815   20.0633 O   0  0  0  0  0  0
  -21.6639   -6.8893   21.4252 O   0  0  0  0  0  0
  -22.3515  -14.5542   20.6684 O   0  0  0  0  0  0
  -24.6248  -31.8597   23.2002 C   0  0  0  0  0  0
  -25.9101  -32.4775   23.8338 C   0  0  1  0  0  0
  -27.2327  -27.3214   20.1164 C   0  0  0  0  0  0
  -25.5924  -33.8577   24.2277 N   0  0  0  0  0  0
  -23.4179  -30.4796   21.5425 C   0  0  2  0  0  0
  -24.8671  -28.9281   20.1092 C   0  0  0  0  0  0
  -22.7465  -29.4609   22.4937 C   0  0  0  0  0  0
  -18.0276  -28.1393   22.8487 C   0  0  0  0  0  0
  -24.1479  -36.7286   23.2636 C   0  0  0  0  0  0
  -25.9560  -30.7891   21.3682 C   0  0  0  0  0  0
  -26.0302  -29.4142   20.7164 C   0  0  0  0  0  0
  -27.2107  -28.6182   20.7142 C   0  0  0  0  0  0
  -26.0451  -26.8766   19.4954 C   0  0  0  0  0  0
  -24.8752  -27.6650   19.4921 C   0  0  0  0  0  0
  -23.6331  -29.8084   20.1586 C   0  0  0  0  0  0
  -25.4107  -36.3077   24.0326 C   0  0  1  0  0  0
  -20.5870  -28.3695   23.1294 C   0  0  2  0  0  0
  -20.6773  -26.9419   22.5419 C   0  0  0  0  0  0
  -19.5747  -26.6385   21.5221 C   0  0  0  0  0  0
  -18.1921  -26.7937   22.1626 C   0  0  0  0  0  0
  -19.1523  -28.8863   23.2893 C   0  0  0  0  0  0
  -18.9459  -30.1468   23.8915 C   0  0  0  0  0  0
  -17.6462  -30.6603   24.0568 C   0  0  0  0  0  0
  -25.9050  -34.9448   23.5103 C   0  0  0  0  0  0
  -16.5352  -29.9105   23.6324 C   0  0  0  0  0  0
  -16.7268  -28.6512   23.0354 C   0  0  0  0  0  0
  -26.4502  -31.6590   25.0707 C   0  0  0  0  0  0
  -25.3745  -31.3742   26.1445 C   0  0  0  0  0  0
  -27.0351  -30.3021   24.6147 C   0  0  0  0  0  0
  -27.6064  -32.4332   25.7485 C   0  0  0  0  0  0
  -27.5568  -37.1796   24.8468 C   0  0  0  0  0  0
  -21.4174  -29.3051   22.3689 N   0  0  0  0  0  0
  -26.4281  -37.3775   23.9410 N   0  0  0  0  0  0
  -24.6852  -31.0593   22.0954 N   0  0  0  0  0  0
  -23.4184  -28.8161   23.3031 O   0  0  0  0  0  0
  -28.3804  -26.5216   20.1951 O   0  0  0  0  0  0
  -26.5608  -34.8915   22.4662 O   0  0  0  0  0  0
  -23.5422  -32.1411   23.7331 O   0  0  0  0  0  0
  -29.4571  -19.4598   19.2591 C   0  0  0  0  0  0
  -29.4697  -19.2233   21.6400 C   0  0  0  0  0  0
  -29.2242  -20.8656   19.3840 C   0  0  0  0  0  0
  -29.2588  -20.6319   21.7648 C   0  0  0  0  0  0
  -29.6099  -18.5867   20.3739 C   0  0  0  0  0  0
  -29.1523  -21.5117   20.6448 C   0  0  0  0  0  0
  -29.7087  -23.4915   21.9926 C   0  0  0  0  0  0
  -29.6444  -15.9274   22.3749 C   0  0  0  0  0  0
  -29.9694  -17.0567   20.1127 C   0  0  0  0  0  0
  -28.0533  -23.8331   20.1476 C   0  0  0  0  0  0
  -28.5258  -25.2222   19.5097 C   0  0  0  0  0  0
  -29.0859  -22.9514   20.7852 N   0  0  0  0  0  0
  -29.9440  -15.7744   20.9408 N   0  0  0  0  0  0
  -31.4718  -12.5275   19.1689 H   0  0  0  0  0  0
  -30.3656  -11.4206   19.9232 H   0  0  0  0  0  0
  -29.7855  -11.7541   17.4973 H   0  0  0  0  0  0
  -29.6483  -13.4758   17.7426 H   0  0  0  0  0  0
  -27.8774  -11.2872   18.8792 H   0  0  0  0  0  0
  -27.3812  -12.5555   17.7928 H   0  0  0  0  0  0
  -27.6637  -14.2536   19.5091 H   0  0  0  0  0  0
  -28.7009  -12.0736   21.3840 H   0  0  0  0  0  0
  -28.3812  -13.7210   21.8241 H   0  0  0  0  0  0
  -25.2764   -9.5716   22.4730 H   0  0  0  0  0  0
  -24.0020   -7.4654   22.7475 H   0  0  0  0  0  0
  -21.0835   -8.8774   19.8951 H   0  0  0  0  0  0
  -22.3678  -10.9680   19.6152 H   0  0  0  0  0  0
  -21.2001   -7.6156   23.9725 H   0  0  0  0  0  0
  -21.1472   -6.0522   25.9075 H   0  0  0  0  0  0
  -22.0592   -2.7617   23.2834 H   0  0  0  0  0  0
  -22.4138  -11.9907   22.4780 H   0  0  0  0  0  0
  -21.1128  -13.1286   22.2620 H   0  0  0  0  0  0
  -24.6705  -15.8514   20.5514 H   0  0  0  0  0  0
  -26.2932  -15.6338   20.1293 H   0  0  0  0  0  0
  -26.7160  -32.5458   23.1078 H   0  0  0  0  0  0
  -25.0091  -33.9739   25.0431 H   0  0  0  0  0  0
  -22.7122  -31.2999   21.3973 H   0  0  0  0  0  0
  -23.3735  -35.9622   23.3310 H   0  0  0  0  0  0
  -24.3564  -36.8904   22.2049 H   0  0  0  0  0  0
  -23.7237  -37.6492   23.6656 H   0  0  0  0  0  0
  -26.0786  -31.5473   20.5932 H   0  0  0  0  0  0
  -26.8396  -30.8496   21.9909 H   0  0  0  0  0  0
  -28.1028  -28.9858   21.2009 H   0  0  0  0  0  0
  -25.9911  -25.9021   19.0327 H   0  0  0  0  0  0
  -23.9792  -27.2851   19.0208 H   0  0  0  0  0  0
  -23.7519  -30.5846   19.4018 H   0  0  0  0  0  0
  -22.7529  -29.2381   19.8562 H   0  0  0  0  0  0
  -25.1280  -36.1922   25.0819 H   0  0  0  0  0  0
  -20.9976  -28.3273   24.1406 H   0  0  0  0  0  0
  -20.5690  -26.2302   23.3616 H   0  0  0  0  0  0
  -21.6643  -26.7466   22.1201 H   0  0  0  0  0  0
  -19.6914  -25.6292   21.1262 H   0  0  0  0  0  0
  -19.6690  -27.3183   20.6743 H   0  0  0  0  0  0
  -17.4195  -26.6680   21.4024 H   0  0  0  0  0  0
  -18.0324  -26.0090   22.9039 H   0  0  0  0  0  0
  -19.7941  -30.7271   24.2295 H   0  0  0  0  0  0
  -17.5022  -31.6284   24.5173 H   0  0  0  0  0  0
  -15.5355  -30.3019   23.7657 H   0  0  0  0  0  0
  -15.8655  -28.0848   22.7068 H   0  0  0  0  0  0
  -24.5902  -30.7103   25.7783 H   0  0  0  0  0  0
  -24.8950  -32.2929   26.4858 H   0  0  0  0  0  0
  -25.8080  -30.8934   27.0227 H   0  0  0  0  0  0
  -26.2928  -29.6768   24.1173 H   0  0  0  0  0  0
  -27.4074  -29.7278   25.4639 H   0  0  0  0  0  0
  -27.8779  -30.4317   23.9347 H   0  0  0  0  0  0
  -27.2664  -33.3626   26.2071 H   0  0  0  0  0  0
  -28.3877  -32.6915   25.0319 H   0  0  0  0  0  0
  -28.0729  -31.8454   26.5407 H   0  0  0  0  0  0
  -28.2599  -38.0083   24.7501 H   0  0  0  0  0  0
  -28.1056  -36.2614   24.6306 H   0  0  0  0  0  0
  -27.2293  -37.1467   25.8878 H   0  0  0  0  0  0
  -20.9347  -29.8771   21.6894 H   0  0  0  0  0  0
  -26.0157  -38.2845   24.1428 H   0  0  0  0  0  0
  -29.5511  -19.0471   18.2641 H   0  0  0  0  0  0
  -29.5537  -18.6506   22.5498 H   0  0  0  0  0  0
  -29.1616  -21.4600   18.4822 H   0  0  0  0  0  0
  -29.1960  -21.0336   22.7664 H   0  0  0  0  0  0
  -29.0495  -23.3765   22.8537 H   0  0  0  0  0  0
  -29.9256  -24.5555   21.8861 H   0  0  0  0  0  0
  -30.6523  -22.9901   22.2156 H   0  0  0  0  0  0
  -30.3331  -16.6315   22.8387 H   0  0  0  0  0  0
  -29.7546  -14.9984   22.9381 H   0  0  0  0  0  0
  -28.6251  -16.2848   22.5213 H   0  0  0  0  0  0
  -28.8954  -17.0039   20.2983 H   0  0  0  0  0  0
  -30.8284  -17.3312   20.7282 H   0  0  0  0  0  0
  -27.5868  -23.2505   19.3526 H   0  0  0  0  0  0
  -27.2522  -24.0236   20.8630 H   0  0  0  0  0  0
  -28.0650  -25.3150   18.5260 H   0  0  0  0  0  0
  -29.5872  -25.1290   19.2758 H   0  0  0  0  0  0
  1 25  1  0  0  0
  1 30  2  0  0  0
  1 83  1  0  0  0
  2  3  1  0  0  0
  2 25  1  0  0  0
  2 84  1  0  0  0
  2 85  1  0  0  0
  3  4  1  0  0  0
  3 86  1  0  0  0
  3 87  1  0  0  0
  4  5  1  0  0  0
  4 88  1  0  0  0
  4 89  1  0  0  0
  5  6  1  0  0  0
  5 26  1  0  0  0
  5 90  1  0  0  0
  6 25  1  0  0  0
  6 91  1  0  0  0
  6 92  1  0  0  0
  7  8  2  0  0  0
  7 26  1  0  0  0
  7 29  1  0  0  0
  8  9  1  0  0  0
  8 22  1  0  0  0
  9 10  1  0  0  0
  9 27  2  0  0  0
 10 11  2  0  0  0
 10 15  1  0  0  0
 11 12  1  0  0  0
 11 93  1  0  0  0
 12 13  2  0  0  0
 12 94  1  0  0  0
 13 14  1  0  0  0
 13 31  1  0  0  0
 14 15  2  0  0  0
 14 95  1  0  0  0
 15 96  1  0  0  0
 16 17  2  0  0  0
 16 21  1  0  0  0
 16 31  1  0  0  0
 17 18  1  0  0  0
 17 97  1  0  0  0
 18 19  2  0  0  0
 18 98  1  0  0  0
 19 20  1  0  0  0
 19 24  1  0  0  0
 20 21  2  0  0  0
 20 99  1  0  0  0
 21 23  1  0  0  0
 22 28  1  0  0  0
 22 32  2  0  0  0
 26 27  1  0  0  0
 28100  1  0  0  0
 28101  1  0  0  0
 29102  1  0  0  0
 29103  1  0  0  0
 33 34  1  0  0  0
 33 66  1  0  0  0
 33 70  2  0  0  0
 34 36  1  0  0  0
 34 59  1  0  0  0
 34104  1  0  0  0
 35 44  2  0  0  0
 35 45  1  0  0  0
 35 68  1  0  0  0
 36 56  1  0  0  0
 36105  1  0  0  0
 37 39  1  0  0  0
 37 47  1  0  0  0
 37 66  1  0  0  0
 37106  1  0  0  0
 38 43  2  0  0  0
 38 46  1  0  0  0
 38 47  1  0  0  0
 39 64  1  0  0  0
 39 67  2  0  0  0
 40 52  1  0  0  0
 40 53  2  0  0  0
 40 58  1  0  0  0
 41107  1  0  0  0
 41108  1  0  0  0
 41109  1  0  0  0
 41 48  1  0  0  0
 42 43  1  0  0  0
 42 66  1  0  0  0
 42110  1  0  0  0
 42111  1  0  0  0
 43 44  1  0  0  0
 44112  1  0  0  0
 45 46  2  0  0  0
 45113  1  0  0  0
 46114  1  0  0  0
 47115  1  0  0  0
 47116  1  0  0  0
 48 56  1  0  0  0
 48 65  1  0  0  0
 48117  1  0  0  0
 49 50  1  0  0  0
 49 53  1  0  0  0
 49 64  1  0  0  0
 49118  1  0  0  0
 50 51  1  0  0  0
 50119  1  0  0  0
 50120  1  0  0  0
 51 52  1  0  0  0
 51121  1  0  0  0
 51122  1  0  0  0
 52123  1  0  0  0
 52124  1  0  0  0
 53 54  1  0  0  0
 54 55  2  0  0  0
 54125  1  0  0  0
 55 57  1  0  0  0
 55126  1  0  0  0
 56 69  2  0  0  0
 57 58  2  0  0  0
 57127  1  0  0  0
 58128  1  0  0  0
 59 60  1  0  0  0
 59 61  1  0  0  0
 59 62  1  0  0  0
 60129  1  0  0  0
 60130  1  0  0  0
 60131  1  0  0  0
 61132  1  0  0  0
 61133  1  0  0  0
 61134  1  0  0  0
 62135  1  0  0  0
 62136  1  0  0  0
 62137  1  0  0  0
 63 65  1  0  0  0
 63138  1  0  0  0
 63139  1  0  0  0
 63140  1  0  0  0
 64141  1  0  0  0
 65142  1  0  0  0
 68 81  1  0  0  0
 71 73  2  0  0  0
 71 75  1  0  0  0
 71143  1  0  0  0
 72 74  1  0  0  0
 72 75  2  0  0  0
 72144  1  0  0  0
 73 76  1  0  0  0
 73145  1  0  0  0
 74 76  2  0  0  0
 74146  1  0  0  0
 75 79  1  0  0  0
 76 82  1  0  0  0
 77 82  1  0  0  0
 77147  1  0  0  0
 77148  1  0  0  0
 77149  1  0  0  0
 78 83  1  0  0  0
 78150  1  0  0  0
 78151  1  0  0  0
 78152  1  0  0  0
 79 83  1  0  0  0
 79153  1  0  0  0
 79154  1  0  0  0
 80 81  1  0  0  0
 80 82  1  0  0  0
 80155  1  0  0  0
 80156  1  0  0  0
 81157  1  0  0  0
 81158  1  0  0  0
M  ISO  4   1 100  68 101  81 101  83 100
M  END
> <chiral flag>
0

> <version>
0

> <s_m_source_file>
/data/baiqing/PycharmProjects/Reinvent-master-3.2/result/LINK_invent/BTK/process_docking_weight1_custom_product_contain_oxygen_bond_distance_aromatic_linkinvent_7_9_3/rearranged_h_0018.sdf

> <i_m_source_file_index>
74

> <r_mmod_Potential_Energy-OPLS-2005>
439.037231445312

> <r_mmod_Stretch_Energy-OPLS-2005>
92.5135726928711

> <r_mmod_Bend_Energy-OPLS-2005>
379.099792480469

> <r_mmod_Torsional_Energy-OPLS-2005>
270.232360839844

> <r_mmod_Improper_Torsional_Energy-OPLS-2005>
9.45748710632324

> <r_mmod_Van_der_Waal_Energy-OPLS-2005>
151.953414916992

> <r_mmod_Electrostatic_Energy-OPLS-2005>
-298.704345703125

> <r_mmod_Solvation_Energy-OPLS-2005>
-213.23828125

> <b_mmod_Minimization_Converged-OPLS-2005>
0

> <r_mmod_RMS_Derivative-OPLS-2005>
2.17701935768127

$$$$
74
                    3D
 Structure written by MMmdl.
164172  0  0  1  0            999 V2000
  -30.7448  -14.4994   20.5912 C   0  0  0  0  0  0
  -30.4137  -12.3385   19.4281 C   0  0  0  0  0  0
  -29.4874  -12.5066   18.2086 C   0  0  0  0  0  0
  -28.0137  -12.3456   18.6252 C   0  0  0  0  0  0
  -27.6510  -13.2049   19.8634 C   0  0  2  0  0  0
  -28.6978  -13.0432   20.9910 C   0  0  0  0  0  0
  -25.2551  -13.8153   20.5689 C   0  0  0  0  0  0
  -24.1817  -13.0436   20.9202 C   0  0  0  0  0  0
  -24.6372  -11.6900   20.8750 C   0  0  0  0  0  0
  -23.9046  -10.4291   21.0409 C   0  0  0  0  0  0
  -24.3607   -9.4208   21.9179 C   0  0  0  0  0  0
  -23.6287   -8.2242   22.0751 C   0  0  0  0  0  0
  -22.4267   -8.0279   21.3544 C   0  0  0  0  0  0
  -21.9902   -9.0251   20.4644 C   0  0  0  0  0  0
  -22.7227  -10.2131   20.3052 C   0  0  0  0  0  0
  -21.6848   -6.0737   22.5281 C   0  0  0  0  0  0
  -21.4009   -6.5639   23.8215 C   0  0  0  0  0  0
  -21.3658   -5.6791   24.9175 C   0  0  0  0  0  0
  -21.6048   -4.3054   24.7227 C   0  0  0  0  0  0
  -21.8820   -3.8148   23.4346 C   0  0  0  0  0  0
  -21.9192   -4.6967   22.3403 C   0  0  0  0  0  0
  -22.7841  -13.5232   21.1862 C   0  0  0  0  0  0
  -22.1662   -4.2155   21.0980 F   0  0  0  0  0  0
  -21.5629   -3.4535   25.7737 F   0  0  0  0  0  0
  -30.0269  -13.3457   20.4345 N   0  0  0  0  0  0
  -26.2972  -12.9314   20.3334 N   0  0  0  0  0  0
  -25.9292  -11.6481   20.5769 N   0  0  0  0  0  0
  -22.0476  -12.8229   22.0412 N   0  0  0  0  0  0
  -25.4246  -15.1879   20.4083 N   0  0  0  0  0  0
  -31.8551  -14.6453   20.0702 O   0  0  0  0  0  0
  -21.6633   -6.8879   21.4242 O   0  0  0  0  0  0
  -22.3530  -14.5540   20.6704 O   0  0  0  0  0  0
  -24.6160  -31.8657   23.2104 C   0  0  0  0  0  0
  -25.9039  -32.4813   23.8403 C   0  0  1  0  0  0
  -27.2372  -27.4134   20.1135 C   0  0  0  0  0  0
  -25.5890  -33.8612   24.2324 N   0  0  0  0  0  0
  -23.4058  -30.4883   21.5504 C   0  0  2  0  0  0
  -24.8548  -28.9504   20.1165 C   0  0  0  0  0  0
  -22.7424  -29.4636   22.4992 C   0  0  0  0  0  0
  -18.0266  -28.1373   22.8484 C   0  0  0  0  0  0
  -24.1478  -36.7311   23.2639 C   0  0  0  0  0  0
  -25.9353  -30.8270   21.3650 C   0  0  0  0  0  0
  -26.0149  -29.4604   20.7115 C   0  0  0  0  0  0
  -27.2103  -28.7027   20.6991 C   0  0  0  0  0  0
  -26.0607  -26.9249   19.5039 C   0  0  0  0  0  0
  -24.8739  -27.6843   19.5057 C   0  0  0  0  0  0
  -23.6163  -29.8189   20.1661 C   0  0  0  0  0  0
  -25.4096  -36.3102   24.0340 C   0  0  1  0  0  0
  -20.5860  -28.3656   23.1317 C   0  0  2  0  0  0
  -20.6749  -26.9388   22.5419 C   0  0  0  0  0  0
  -19.5732  -26.6383   21.5206 C   0  0  0  0  0  0
  -18.1913  -26.7916   22.1622 C   0  0  0  0  0  0
  -19.1516  -28.8832   23.2898 C   0  0  0  0  0  0
  -18.9445  -30.1440   23.8908 C   0  0  0  0  0  0
  -17.6447  -30.6582   24.0554 C   0  0  0  0  0  0
  -25.9032  -34.9470   23.5129 C   0  0  0  0  0  0
  -16.5337  -29.9075   23.6335 C   0  0  0  0  0  0
  -16.7254  -28.6496   23.0346 C   0  0  0  0  0  0
  -26.4474  -31.6600   25.0743 C   0  0  0  0  0  0
  -25.3741  -31.3676   26.1491 C   0  0  0  0  0  0
  -27.0318  -30.3046   24.6123 C   0  0  0  0  0  0
  -27.6062  -32.4319   25.7496 C   0  0  0  0  0  0
  -27.5569  -37.1805   24.8465 C   0  0  0  0  0  0
  -21.4149  -29.3031   22.3735 N   0  0  0  0  0  0
  -26.4276  -37.3790   23.9416 N   0  0  0  0  0  0
  -24.6705  -31.0747   22.1005 N   0  0  0  0  0  0
  -23.4186  -28.8161   23.3024 O   0  0  0  0  0  0
  -28.4054  -26.6722   20.1279 O   0  0  0  0  0  0
  -26.5590  -34.8920   22.4689 O   0  0  0  0  0  0
  -23.5349  -32.1417   23.7491 O   0  0  0  0  0  0
  -29.5981  -18.4413   19.6216 C   0  0  0  0  0  0
  -29.3189  -20.1510   21.8206 C   0  0  0  0  0  0
  -29.3523  -17.8676   20.8905 C   0  0  0  0  0  0
  -29.5321  -20.7308   20.5479 C   0  0  0  0  0  0
  -29.6774  -19.8438   19.4453 C   0  0  0  0  0  0
  -29.2143  -18.7485   21.9905 C   0  0  0  0  0  0
  -31.9414  -22.4275   19.4539 C   0  0  0  0  0  0
  -31.1782  -16.0525   22.3965 C   0  0  0  0  0  0
  -29.1230  -16.3430   21.0326 C   0  0  0  0  0  0
  -28.9256  -24.3849   19.3232 C   0  0  0  0  0  0
  -31.0205  -22.6058   20.6714 C   0  0  0  0  0  0
  -28.7971  -22.8290   19.4406 C   0  0  0  0  0  0
  -28.3152  -25.2615   20.4432 C   0  0  0  0  0  0
  -29.6486  -22.1473   20.4395 N   0  0  0  0  0  0
  -30.2581  -15.4646   21.4183 N   0  0  0  0  0  0
  -29.9170  -20.3213   18.1996 F   0  0  0  0  0  0
  -28.9596  -18.2519   23.2245 F   0  0  0  0  0  0
  -31.4570  -12.4257   19.1206 H   0  0  0  0  0  0
  -30.3168  -11.3361   19.8479 H   0  0  0  0  0  0
  -29.7395  -11.7754   17.4398 H   0  0  0  0  0  0
  -29.6409  -13.4894   17.7591 H   0  0  0  0  0  0
  -27.8428  -11.2908   18.8432 H   0  0  0  0  0  0
  -27.3575  -12.5936   17.7902 H   0  0  0  0  0  0
  -27.6657  -14.2353   19.5196 H   0  0  0  0  0  0
  -28.6864  -12.0219   21.3739 H   0  0  0  0  0  0
  -28.4492  -13.6772   21.8421 H   0  0  0  0  0  0
  -25.2754   -9.5692   22.4746 H   0  0  0  0  0  0
  -24.0006   -7.4636   22.7466 H   0  0  0  0  0  0
  -21.0837   -8.8766   19.8945 H   0  0  0  0  0  0
  -22.3684  -10.9669   19.6159 H   0  0  0  0  0  0
  -21.1995   -7.6147   23.9722 H   0  0  0  0  0  0
  -21.1477   -6.0516   25.9078 H   0  0  0  0  0  0
  -22.0598   -2.7612   23.2841 H   0  0  0  0  0  0
  -22.4092  -11.9901   22.4823 H   0  0  0  0  0  0
  -21.1085  -13.1246   22.2597 H   0  0  0  0  0  0
  -24.6506  -15.8353   20.5114 H   0  0  0  0  0  0
  -26.2653  -15.6309   20.0635 H   0  0  0  0  0  0
  -26.7106  -32.5539   23.1165 H   0  0  0  0  0  0
  -25.0040  -33.9763   25.0466 H   0  0  0  0  0  0
  -22.6942  -31.3046   21.4109 H   0  0  0  0  0  0
  -23.3736  -35.9647   23.3310 H   0  0  0  0  0  0
  -24.3565  -36.8929   22.2052 H   0  0  0  0  0  0
  -23.7240  -37.6518   23.6658 H   0  0  0  0  0  0
  -26.0466  -31.5914   20.5953 H   0  0  0  0  0  0
  -26.8218  -30.8838   21.9844 H   0  0  0  0  0  0
  -28.1069  -29.0937   21.1593 H   0  0  0  0  0  0
  -26.0557  -25.9569   19.0240 H   0  0  0  0  0  0
  -23.9826  -27.2889   19.0384 H   0  0  0  0  0  0
  -23.7222  -30.5937   19.4058 H   0  0  0  0  0  0
  -22.7409  -29.2379   19.8735 H   0  0  0  0  0  0
  -25.1266  -36.1963   25.0832 H   0  0  0  0  0  0
  -20.9937  -28.3214   24.1441 H   0  0  0  0  0  0
  -20.5637  -26.2254   23.3604 H   0  0  0  0  0  0
  -21.6619  -26.7416   22.1227 H   0  0  0  0  0  0
  -19.6888  -25.6298   21.1229 H   0  0  0  0  0  0
  -19.6686  -27.3194   20.6736 H   0  0  0  0  0  0
  -17.4185  -26.6666   21.4021 H   0  0  0  0  0  0
  -18.0315  -26.0050   22.9011 H   0  0  0  0  0  0
  -19.7923  -30.7244   24.2296 H   0  0  0  0  0  0
  -17.5004  -31.6270   24.5138 H   0  0  0  0  0  0
  -15.5335  -30.2965   23.7675 H   0  0  0  0  0  0
  -15.8658  -28.0821   22.7043 H   0  0  0  0  0  0
  -24.5956  -30.6971   25.7825 H   0  0  0  0  0  0
  -24.8870  -32.2806   26.4933 H   0  0  0  0  0  0
  -25.8115  -30.8874   27.0255 H   0  0  0  0  0  0
  -26.2871  -29.6783   24.1198 H   0  0  0  0  0  0
  -27.4110  -29.7305   25.4586 H   0  0  0  0  0  0
  -27.8687  -30.4364   23.9261 H   0  0  0  0  0  0
  -27.2712  -33.3629   26.2074 H   0  0  0  0  0  0
  -28.3870  -32.6856   25.0313 H   0  0  0  0  0  0
  -28.0726  -31.8438   26.5411 H   0  0  0  0  0  0
  -28.2591  -38.0097   24.7516 H   0  0  0  0  0  0
  -28.1071  -36.2641   24.6289 H   0  0  0  0  0  0
  -27.2298  -37.1443   25.8870 H   0  0  0  0  0  0
  -20.9302  -29.8769   21.6973 H   0  0  0  0  0  0
  -26.0171  -38.2866   24.1429 H   0  0  0  0  0  0
  -29.7061  -17.8073   18.7542 H   0  0  0  0  0  0
  -29.2171  -20.7879   22.6866 H   0  0  0  0  0  0
  -32.9257  -22.8495   19.6564 H   0  0  0  0  0  0
  -31.5522  -22.9291   18.5678 H   0  0  0  0  0  0
  -32.0867  -21.3765   19.2049 H   0  0  0  0  0  0
  -30.6369  -16.4165   23.2689 H   0  0  0  0  0  0
  -31.7349  -16.8819   21.9579 H   0  0  0  0  0  0
  -31.9047  -15.3205   22.7564 H   0  0  0  0  0  0
  -28.7169  -16.0106   20.0792 H   0  0  0  0  0  0
  -28.3251  -16.1851   21.7590 H   0  0  0  0  0  0
  -28.4176  -24.6700   18.4012 H   0  0  0  0  0  0
  -29.9646  -24.6727   19.1651 H   0  0  0  0  0  0
  -31.0015  -23.6555   20.9653 H   0  0  0  0  0  0
  -31.4455  -22.0779   21.5280 H   0  0  0  0  0  0
  -29.0161  -22.4209   18.4546 H   0  0  0  0  0  0
  -27.7547  -22.5740   19.6375 H   0  0  0  0  0  0
  -28.8788  -25.0963   21.3619 H   0  0  0  0  0  0
  -27.2977  -24.9412   20.6689 H   0  0  0  0  0  0
  1 25  1  0  0  0
  1 30  2  0  0  0
  1 85  1  0  0  0
  2  3  1  0  0  0
  2 25  1  0  0  0
  2 88  1  0  0  0
  2 89  1  0  0  0
  3  4  1  0  0  0
  3 90  1  0  0  0
  3 91  1  0  0  0
  4  5  1  0  0  0
  4 92  1  0  0  0
  4 93  1  0  0  0
  5  6  1  0  0  0
  5 26  1  0  0  0
  5 94  1  0  0  0
  6 25  1  0  0  0
  6 95  1  0  0  0
  6 96  1  0  0  0
  7  8  2  0  0  0
  7 26  1  0  0  0
  7 29  1  0  0  0
  8  9  1  0  0  0
  8 22  1  0  0  0
  9 10  1  0  0  0
  9 27  2  0  0  0
 10 11  2  0  0  0
 10 15  1  0  0  0
 11 12  1  0  0  0
 11 97  1  0  0  0
 12 13  2  0  0  0
 12 98  1  0  0  0
 13 14  1  0  0  0
 13 31  1  0  0  0
 14 15  2  0  0  0
 14 99  1  0  0  0
 15100  1  0  0  0
 16 17  2  0  0  0
 16 21  1  0  0  0
 16 31  1  0  0  0
 17 18  1  0  0  0
 17101  1  0  0  0
 18 19  2  0  0  0
 18102  1  0  0  0
 19 20  1  0  0  0
 19 24  1  0  0  0
 20 21  2  0  0  0
 20103  1  0  0  0
 21 23  1  0  0  0
 22 28  1  0  0  0
 22 32  2  0  0  0
 26 27  1  0  0  0
 28104  1  0  0  0
 28105  1  0  0  0
 29106  1  0  0  0
 29107  1  0  0  0
 33 34  1  0  0  0
 33 66  1  0  0  0
 33 70  2  0  0  0
 34 36  1  0  0  0
 34 59  1  0  0  0
 34108  1  0  0  0
 35 44  2  0  0  0
 35 45  1  0  0  0
 35 68  1  0  0  0
 36 56  1  0  0  0
 36109  1  0  0  0
 37 39  1  0  0  0
 37 47  1  0  0  0
 37 66  1  0  0  0
 37110  1  0  0  0
 38 43  2  0  0  0
 38 46  1  0  0  0
 38 47  1  0  0  0
 39 64  1  0  0  0
 39 67  2  0  0  0
 40 52  1  0  0  0
 40 53  2  0  0  0
 40 58  1  0  0  0
 41111  1  0  0  0
 41112  1  0  0  0
 41113  1  0  0  0
 41 48  1  0  0  0
 42 43  1  0  0  0
 42 66  1  0  0  0
 42114  1  0  0  0
 42115  1  0  0  0
 43 44  1  0  0  0
 44116  1  0  0  0
 45 46  2  0  0  0
 45117  1  0  0  0
 46118  1  0  0  0
 47119  1  0  0  0
 47120  1  0  0  0
 48 56  1  0  0  0
 48 65  1  0  0  0
 48121  1  0  0  0
 49 50  1  0  0  0
 49 53  1  0  0  0
 49 64  1  0  0  0
 49122  1  0  0  0
 50 51  1  0  0  0
 50123  1  0  0  0
 50124  1  0  0  0
 51 52  1  0  0  0
 51125  1  0  0  0
 51126  1  0  0  0
 52127  1  0  0  0
 52128  1  0  0  0
 53 54  1  0  0  0
 54 55  2  0  0  0
 54129  1  0  0  0
 55 57  1  0  0  0
 55130  1  0  0  0
 56 69  2  0  0  0
 57 58  2  0  0  0
 57131  1  0  0  0
 58132  1  0  0  0
 59 60  1  0  0  0
 59 61  1  0  0  0
 59 62  1  0  0  0
 60133  1  0  0  0
 60134  1  0  0  0
 60135  1  0  0  0
 61136  1  0  0  0
 61137  1  0  0  0
 61138  1  0  0  0
 62139  1  0  0  0
 62140  1  0  0  0
 62141  1  0  0  0
 63 65  1  0  0  0
 63142  1  0  0  0
 63143  1  0  0  0
 63144  1  0  0  0
 64145  1  0  0  0
 65146  1  0  0  0
 68 83  1  0  0  0
 71 73  2  0  0  0
 71 75  1  0  0  0
 71147  1  0  0  0
 72 74  1  0  0  0
 72 76  2  0  0  0
 72148  1  0  0  0
 73 76  1  0  0  0
 73 79  1  0  0  0
 74 75  2  0  0  0
 74 84  1  0  0  0
 75 86  1  0  0  0
 76 87  1  0  0  0
 77 81  1  0  0  0
 77149  1  0  0  0
 77150  1  0  0  0
 77151  1  0  0  0
 78 85  1  0  0  0
 78152  1  0  0  0
 78153  1  0  0  0
 78154  1  0  0  0
 79 85  1  0  0  0
 79155  1  0  0  0
 79156  1  0  0  0
 80 82  1  0  0  0
 80 83  1  0  0  0
 80157  1  0  0  0
 80158  1  0  0  0
 81 84  1  0  0  0
 81159  1  0  0  0
 81160  1  0  0  0
 82 84  1  0  0  0
 82161  1  0  0  0
 82162  1  0  0  0
 83163  1  0  0  0
 83164  1  0  0  0
M  ISO  4   1 100  68 101  83 101  85 100
M  END
> <chiral flag>
0

> <version>
0

> <s_m_source_file>
/data/baiqing/PycharmProjects/Reinvent-master-3.2/result/LINK_invent/BTK/process_docking_weight1_custom_product_contain_oxygen_bond_distance_aromatic_linkinvent_7_9_3/rearranged_h_0018.sdf

> <i_m_source_file_index>
75

> <r_mmod_Potential_Energy-OPLS-2005>
167.011352539062

> <r_mmod_Stretch_Energy-OPLS-2005>
48.2880325317383

> <r_mmod_Bend_Energy-OPLS-2005>
117.312873840332

> <r_mmod_Torsional_Energy-OPLS-2005>
308.720184326172

> <r_mmod_Improper_Torsional_Energy-OPLS-2005>
7.17219543457031

> <r_mmod_Van_der_Waal_Energy-OPLS-2005>
148.532638549805

> <r_mmod_Electrostatic_Energy-OPLS-2005>
-283.066497802734

> <r_mmod_Solvation_Energy-OPLS-2005>
-196.738189697266

> <b_mmod_Minimization_Converged-OPLS-2005>
0

> <r_mmod_RMS_Derivative-OPLS-2005>
1.33296310901642

$$$$
75
                    3D
 Structure written by MMmdl.
170179  0  0  1  0            999 V2000
  -30.6878  -14.5388   20.5006 C   0  0  0  0  0  0
  -30.4233  -12.3308   19.4330 C   0  0  0  0  0  0
  -29.4949  -12.4882   18.2105 C   0  0  0  0  0  0
  -28.0169  -12.3482   18.6234 C   0  0  0  0  0  0
  -27.6524  -13.2083   19.8629 C   0  0  2  0  0  0
  -28.7019  -13.0489   20.9881 C   0  0  0  0  0  0
  -25.2523  -13.8002   20.5758 C   0  0  0  0  0  0
  -24.1826  -13.0329   20.9367 C   0  0  0  0  0  0
  -24.6398  -11.6818   20.8845 C   0  0  0  0  0  0
  -23.9067  -10.4226   21.0445 C   0  0  0  0  0  0
  -24.3610   -9.4140   21.9216 C   0  0  0  0  0  0
  -23.6272   -8.2188   22.0766 C   0  0  0  0  0  0
  -22.4256   -8.0253   21.3544 C   0  0  0  0  0  0
  -21.9911   -9.0234   20.4649 C   0  0  0  0  0  0
  -22.7251  -10.2107   20.3071 C   0  0  0  0  0  0
  -21.6840   -6.0731   22.5283 C   0  0  0  0  0  0
  -21.4000   -6.5633   23.8220 C   0  0  0  0  0  0
  -21.3656   -5.6785   24.9182 C   0  0  0  0  0  0
  -21.6037   -4.3049   24.7233 C   0  0  0  0  0  0
  -21.8823   -3.8143   23.4353 C   0  0  0  0  0  0
  -21.9183   -4.6959   22.3400 C   0  0  0  0  0  0
  -22.7848  -13.5165   21.1942 C   0  0  0  0  0  0
  -22.1656   -4.2146   21.0986 F   0  0  0  0  0  0
  -21.5633   -3.4535   25.7750 F   0  0  0  0  0  0
  -30.0266  -13.3489   20.4204 N   0  0  0  0  0  0
  -26.2979  -12.9245   20.3338 N   0  0  0  0  0  0
  -25.9316  -11.6419   20.5789 N   0  0  0  0  0  0
  -22.0407  -12.8181   22.0429 N   0  0  0  0  0  0
  -25.4066  -15.1629   20.3786 N   0  0  0  0  0  0
  -31.8518  -14.6606   20.1137 O   0  0  0  0  0  0
  -21.6607   -6.8864   21.4242 O   0  0  0  0  0  0
  -22.3659  -14.5523   20.6773 O   0  0  0  0  0  0
  -24.6128  -31.8675   23.2070 C   0  0  0  0  0  0
  -25.9037  -32.4808   23.8356 C   0  0  1  0  0  0
  -27.2605  -27.4413   20.0903 C   0  0  0  0  0  0
  -25.5894  -33.8606   24.2303 N   0  0  0  0  0  0
  -23.4030  -30.4835   21.5461 C   0  0  2  0  0  0
  -24.8557  -28.9439   20.1125 C   0  0  0  0  0  0
  -22.7403  -29.4615   22.4978 C   0  0  0  0  0  0
  -18.0283  -28.1345   22.8475 C   0  0  0  0  0  0
  -24.1491  -36.7310   23.2636 C   0  0  0  0  0  0
  -25.9268  -30.8284   21.3634 C   0  0  0  0  0  0
  -26.0070  -29.4607   20.7153 C   0  0  0  0  0  0
  -27.2030  -28.7090   20.7128 C   0  0  0  0  0  0
  -26.0885  -26.9294   19.4876 C   0  0  0  0  0  0
  -24.8892  -27.6751   19.5005 C   0  0  0  0  0  0
  -23.6142  -29.8086   20.1618 C   0  0  0  0  0  0
  -25.4097  -36.3101   24.0333 C   0  0  1  0  0  0
  -20.5861  -28.3640   23.1314 C   0  0  2  0  0  0
  -20.6776  -26.9379   22.5408 C   0  0  0  0  0  0
  -19.5768  -26.6371   21.5182 C   0  0  0  0  0  0
  -18.1936  -26.7896   22.1584 C   0  0  0  0  0  0
  -19.1525  -28.8806   23.2891 C   0  0  0  0  0  0
  -18.9469  -30.1416   23.8905 C   0  0  0  0  0  0
  -17.6473  -30.6576   24.0536 C   0  0  0  0  0  0
  -25.9022  -34.9474   23.5118 C   0  0  0  0  0  0
  -16.5359  -29.9073   23.6304 C   0  0  0  0  0  0
  -16.7269  -28.6475   23.0336 C   0  0  0  0  0  0
  -26.4480  -31.6585   25.0677 C   0  0  0  0  0  0
  -25.3764  -31.3691   26.1452 C   0  0  0  0  0  0
  -27.0303  -30.3034   24.6021 C   0  0  0  0  0  0
  -27.6058  -32.4302   25.7463 C   0  0  0  0  0  0
  -27.5586  -37.1796   24.8453 C   0  0  0  0  0  0
  -21.4131  -29.3008   22.3722 N   0  0  0  0  0  0
  -26.4290  -37.3784   23.9407 N   0  0  0  0  0  0
  -24.6646  -31.0738   22.0989 N   0  0  0  0  0  0
  -23.4175  -28.8176   23.3037 O   0  0  0  0  0  0
  -28.4673  -26.7681   20.1424 O   0  0  0  0  0  0
  -26.5591  -34.8933   22.4684 O   0  0  0  0  0  0
  -23.5326  -32.1446   23.7451 O   0  0  0  0  0  0
  -31.7891  -18.9409   20.6802 C   0  0  0  0  0  0
  -31.5282  -17.5503   20.7833 C   0  0  0  0  0  0
  -29.4248  -19.3750   20.7428 C   0  0  0  0  0  0
  -30.7308  -19.8757   20.6207 C   0  0  0  0  0  0
  -29.1441  -17.9922   20.6850 C   0  0  0  0  0  0
  -30.2027  -17.0324   20.7512 C   0  0  0  0  0  0
  -30.9662  -21.3569   20.3934 C   0  0  0  0  0  0
  -26.6278  -19.2511   17.2682 C   0  0  0  0  0  0
  -25.4331  -19.2700   18.2118 C   0  0  0  0  0  0
  -27.7466  -18.7563   18.1843 C   0  0  0  0  0  0
  -25.6543  -18.0175   19.0655 C   0  0  0  0  0  0
  -27.6641  -17.6479   20.5228 C   0  0  0  0  0  0
  -28.9184  -24.3333   19.9448 C   0  0  0  0  0  0
  -29.9397  -23.3866   19.2594 C   0  0  0  0  0  0
  -28.8013  -25.7090   19.2396 C   0  0  0  0  0  0
  -29.9169  -15.6108   20.8228 N   0  0  0  0  0  0
  -29.9466  -22.0245   19.8149 N   0  0  0  0  0  0
  -27.1221  -17.7832   19.1269 N   0  3  0  0  0  0
  -32.0564  -21.8756   20.6383 O   0  0  0  0  0  0
  -31.4668  -12.4260   19.1275 H   0  0  0  0  0  0
  -30.3299  -11.3327   19.8650 H   0  0  0  0  0  0
  -29.7407  -11.7403   17.4546 H   0  0  0  0  0  0
  -29.6571  -13.4605   17.7426 H   0  0  0  0  0  0
  -27.8344  -11.2945   18.8391 H   0  0  0  0  0  0
  -27.3662  -12.6014   17.7857 H   0  0  0  0  0  0
  -27.6737  -14.2471   19.5345 H   0  0  0  0  0  0
  -28.6900  -12.0314   21.3816 H   0  0  0  0  0  0
  -28.4651  -13.6977   21.8335 H   0  0  0  0  0  0
  -25.2753   -9.5610   22.4803 H   0  0  0  0  0  0
  -23.9974   -7.4572   22.7480 H   0  0  0  0  0  0
  -21.0848   -8.8764   19.8943 H   0  0  0  0  0  0
  -22.3727  -10.9659   19.6185 H   0  0  0  0  0  0
  -21.1990   -7.6144   23.9728 H   0  0  0  0  0  0
  -21.1471   -6.0515   25.9089 H   0  0  0  0  0  0
  -22.0602   -2.7606   23.2857 H   0  0  0  0  0  0
  -22.3948  -11.9801   22.4811 H   0  0  0  0  0  0
  -21.1021  -13.1243   22.2581 H   0  0  0  0  0  0
  -24.5042  -15.6147   20.4883 H   0  0  0  0  0  0
  -25.7216  -15.2692   19.4266 H   0  0  0  0  0  0
  -26.7114  -32.5516   23.1116 H   0  0  0  0  0  0
  -25.0074  -33.9759   25.0476 H   0  0  0  0  0  0
  -22.6912  -31.2984   21.4017 H   0  0  0  0  0  0
  -23.3755  -35.9645   23.3278 H   0  0  0  0  0  0
  -24.3615  -36.8939   22.2061 H   0  0  0  0  0  0
  -23.7237  -37.6496   23.6673 H   0  0  0  0  0  0
  -26.0325  -31.5899   20.5906 H   0  0  0  0  0  0
  -26.8156  -30.8894   21.9781 H   0  0  0  0  0  0
  -28.0922  -29.1010   21.1889 H   0  0  0  0  0  0
  -26.0814  -25.9548   19.0215 H   0  0  0  0  0  0
  -24.0014  -27.2664   19.0371 H   0  0  0  0  0  0
  -23.7198  -30.5800   19.3988 H   0  0  0  0  0  0
  -22.7412  -29.2230   19.8682 H   0  0  0  0  0  0
  -25.1276  -36.1968   25.0820 H   0  0  0  0  0  0
  -20.9940  -28.3228   24.1437 H   0  0  0  0  0  0
  -20.5663  -26.2245   23.3592 H   0  0  0  0  0  0
  -21.6658  -26.7432   22.1205 H   0  0  0  0  0  0
  -19.6942  -25.6277   21.1219 H   0  0  0  0  0  0
  -19.6727  -27.3177   20.6706 H   0  0  0  0  0  0
  -17.4198  -26.6637   21.3986 H   0  0  0  0  0  0
  -18.0346  -26.0028   22.8973 H   0  0  0  0  0  0
  -19.7962  -30.7200   24.2304 H   0  0  0  0  0  0
  -17.5045  -31.6270   24.5137 H   0  0  0  0  0  0
  -15.5357  -30.2984   23.7641 H   0  0  0  0  0  0
  -15.8660  -28.0816   22.7045 H   0  0  0  0  0  0
  -24.5921  -30.7048   25.7798 H   0  0  0  0  0  0
  -24.8987  -32.2858   26.4920 H   0  0  0  0  0  0
  -25.8139  -30.8854   27.0195 H   0  0  0  0  0  0
  -26.2817  -29.6791   24.1132 H   0  0  0  0  0  0
  -27.4152  -29.7263   25.4431 H   0  0  0  0  0  0
  -27.8618  -30.4333   23.9092 H   0  0  0  0  0  0
  -27.2656  -33.3588   26.2055 H   0  0  0  0  0  0
  -28.3877  -32.6876   25.0307 H   0  0  0  0  0  0
  -28.0713  -31.8411   26.5372 H   0  0  0  0  0  0
  -28.2561  -38.0144   24.7561 H   0  0  0  0  0  0
  -28.1140  -36.2674   24.6210 H   0  0  0  0  0  0
  -27.2333  -37.1343   25.8868 H   0  0  0  0  0  0
  -20.9296  -29.8716   21.6928 H   0  0  0  0  0  0
  -26.0188  -38.2849   24.1466 H   0  0  0  0  0  0
  -32.8134  -19.2870   20.6406 H   0  0  0  0  0  0
  -32.3812  -16.8926   20.8613 H   0  0  0  0  0  0
  -28.5968  -20.0696   20.7697 H   0  0  0  0  0  0
  -26.8386  -20.2290   16.8326 H   0  0  0  0  0  0
  -26.4595  -18.5466   16.4521 H   0  0  0  0  0  0
  -24.4740  -19.2708   17.6926 H   0  0  0  0  0  0
  -25.4690  -20.1595   18.8440 H   0  0  0  0  0  0
  -28.1120  -19.6479   18.6819 H   0  0  0  0  0  0
  -28.5817  -18.3195   17.6351 H   0  0  0  0  0  0
  -25.1952  -17.1665   18.5624 H   0  0  0  0  0  0
  -25.1819  -18.1064   20.0449 H   0  0  0  0  0  0
  -27.1108  -18.3131   21.1875 H   0  0  0  0  0  0
  -27.4774  -16.6469   20.9029 H   0  0  0  0  0  0
  -29.2305  -24.4862   20.9781 H   0  0  0  0  0  0
  -27.9324  -23.8676   19.9837 H   0  0  0  0  0  0
  -30.9389  -23.8247   19.2931 H   0  0  0  0  0  0
  -29.6894  -23.3015   18.1999 H   0  0  0  0  0  0
  -28.1671  -25.6640   18.3545 H   0  0  0  0  0  0
  -29.7890  -25.9747   18.8598 H   0  0  0  0  0  0
  -28.9716  -15.3543   21.0595 H   0  0  0  0  0  0
  -29.1230  -21.4722   19.6339 H   0  0  0  0  0  0
  -27.2818  -16.8874   18.6938 H   0  0  0  0  0  0
  1 25  1  0  0  0
  1 30  2  0  0  0
  1 86  1  0  0  0
  2  3  1  0  0  0
  2 25  1  0  0  0
  2 90  1  0  0  0
  2 91  1  0  0  0
  3  4  1  0  0  0
  3 92  1  0  0  0
  3 93  1  0  0  0
  4  5  1  0  0  0
  4 94  1  0  0  0
  4 95  1  0  0  0
  5  6  1  0  0  0
  5 26  1  0  0  0
  5 96  1  0  0  0
  6 25  1  0  0  0
  6 97  1  0  0  0
  6 98  1  0  0  0
  7  8  2  0  0  0
  7 26  1  0  0  0
  7 29  1  0  0  0
  8  9  1  0  0  0
  8 22  1  0  0  0
  9 10  1  0  0  0
  9 27  2  0  0  0
 10 11  2  0  0  0
 10 15  1  0  0  0
 11 12  1  0  0  0
 11 99  1  0  0  0
 12 13  2  0  0  0
 12100  1  0  0  0
 13 14  1  0  0  0
 13 31  1  0  0  0
 14 15  2  0  0  0
 14101  1  0  0  0
 15102  1  0  0  0
 16 17  2  0  0  0
 16 21  1  0  0  0
 16 31  1  0  0  0
 17 18  1  0  0  0
 17103  1  0  0  0
 18 19  2  0  0  0
 18104  1  0  0  0
 19 20  1  0  0  0
 19 24  1  0  0  0
 20 21  2  0  0  0
 20105  1  0  0  0
 21 23  1  0  0  0
 22 28  1  0  0  0
 22 32  2  0  0  0
 26 27  1  0  0  0
 28106  1  0  0  0
 28107  1  0  0  0
 29108  1  0  0  0
 29109  1  0  0  0
 33 34  1  0  0  0
 33 66  1  0  0  0
 33 70  2  0  0  0
 34 36  1  0  0  0
 34 59  1  0  0  0
 34110  1  0  0  0
 35 44  2  0  0  0
 35 45  1  0  0  0
 35 68  1  0  0  0
 36 56  1  0  0  0
 36111  1  0  0  0
 37 39  1  0  0  0
 37 47  1  0  0  0
 37 66  1  0  0  0
 37112  1  0  0  0
 38 43  2  0  0  0
 38 46  1  0  0  0
 38 47  1  0  0  0
 39 64  1  0  0  0
 39 67  2  0  0  0
 40 52  1  0  0  0
 40 53  2  0  0  0
 40 58  1  0  0  0
 41113  1  0  0  0
 41114  1  0  0  0
 41115  1  0  0  0
 41 48  1  0  0  0
 42 43  1  0  0  0
 42 66  1  0  0  0
 42116  1  0  0  0
 42117  1  0  0  0
 43 44  1  0  0  0
 44118  1  0  0  0
 45 46  2  0  0  0
 45119  1  0  0  0
 46120  1  0  0  0
 47121  1  0  0  0
 47122  1  0  0  0
 48 56  1  0  0  0
 48 65  1  0  0  0
 48123  1  0  0  0
 49 50  1  0  0  0
 49 53  1  0  0  0
 49 64  1  0  0  0
 49124  1  0  0  0
 50 51  1  0  0  0
 50125  1  0  0  0
 50126  1  0  0  0
 51 52  1  0  0  0
 51127  1  0  0  0
 51128  1  0  0  0
 52129  1  0  0  0
 52130  1  0  0  0
 53 54  1  0  0  0
 54 55  2  0  0  0
 54131  1  0  0  0
 55 57  1  0  0  0
 55132  1  0  0  0
 56 69  2  0  0  0
 57 58  2  0  0  0
 57133  1  0  0  0
 58134  1  0  0  0
 59 60  1  0  0  0
 59 61  1  0  0  0
 59 62  1  0  0  0
 60135  1  0  0  0
 60136  1  0  0  0
 60137  1  0  0  0
 61138  1  0  0  0
 61139  1  0  0  0
 61140  1  0  0  0
 62141  1  0  0  0
 62142  1  0  0  0
 62143  1  0  0  0
 63 65  1  0  0  0
 63144  1  0  0  0
 63145  1  0  0  0
 63146  1  0  0  0
 64147  1  0  0  0
 65148  1  0  0  0
 68 85  1  0  0  0
 71 72  2  0  0  0
 71 74  1  0  0  0
 71149  1  0  0  0
 72 76  1  0  0  0
 72150  1  0  0  0
 73 74  2  0  0  0
 73 75  1  0  0  0
 73151  1  0  0  0
 74 77  1  0  0  0
 75 76  2  0  0  0
 75 82  1  0  0  0
 76 86  1  0  0  0
 77 87  1  0  0  0
 77 89  2  0  0  0
 78 79  1  0  0  0
 78 80  1  0  0  0
 78152  1  0  0  0
 78153  1  0  0  0
 79 81  1  0  0  0
 79154  1  0  0  0
 79155  1  0  0  0
 80 88  1  0  0  0
 80156  1  0  0  0
 80157  1  0  0  0
 81 88  1  0  0  0
 81158  1  0  0  0
 81159  1  0  0  0
 82160  1  0  0  0
 82161  1  0  0  0
 82 88  1  0  0  0
 83 84  1  0  0  0
 83 85  1  0  0  0
 83162  1  0  0  0
 83163  1  0  0  0
 84 87  1  0  0  0
 84164  1  0  0  0
 84165  1  0  0  0
 85166  1  0  0  0
 85167  1  0  0  0
 86168  1  0  0  0
 87169  1  0  0  0
 88170  1  0  0  0
M  CHG  1  88   1
M  ISO  4   1 100  68 101  85 101  86 100
M  END
> <chiral flag>
0

> <version>
0

> <s_m_source_file>
/data/baiqing/PycharmProjects/Reinvent-master-3.2/result/LINK_invent/BTK/process_docking_weight1_custom_product_contain_oxygen_bond_distance_aromatic_linkinvent_7_9_3/rearranged_h_0018.sdf

> <i_m_source_file_index>
76

> <r_mmod_Potential_Energy-OPLS-2005>
-68.8125686645508

> <r_mmod_Stretch_Energy-OPLS-2005>
46.5989227294922

> <r_mmod_Bend_Energy-OPLS-2005>
154.073135375977

> <r_mmod_Torsional_Energy-OPLS-2005>
301.616027832031

> <r_mmod_Improper_Torsional_Energy-OPLS-2005>
12.8275728225708

> <r_mmod_Van_der_Waal_Energy-OPLS-2005>
155.609298706055

> <r_mmod_Electrostatic_Energy-OPLS-2005>
-261.901519775391

> <r_mmod_Solvation_Energy-OPLS-2005>
-498.904388427734

> <b_mmod_Minimization_Converged-OPLS-2005>
0

> <r_mmod_RMS_Derivative-OPLS-2005>
2.67666792869568

$$$$
76
                    3D
 Structure written by MMmdl.
158166  0  0  1  0            999 V2000
  -30.7247  -14.4523   20.5384 C   0  0  0  0  0  0
  -30.4109  -12.2794   19.4260 C   0  0  0  0  0  0
  -29.4906  -12.4796   18.2041 C   0  0  0  0  0  0
  -28.0120  -12.3414   18.6250 C   0  0  0  0  0  0
  -27.6563  -13.2058   19.8661 C   0  0  2  0  0  0
  -28.7001  -13.0086   20.9880 C   0  0  0  0  0  0
  -25.2565  -13.8137   20.5686 C   0  0  0  0  0  0
  -24.1807  -13.0439   20.9195 C   0  0  0  0  0  0
  -24.6364  -11.6901   20.8719 C   0  0  0  0  0  0
  -23.9027  -10.4289   21.0375 C   0  0  0  0  0  0
  -24.3587   -9.4219   21.9164 C   0  0  0  0  0  0
  -23.6281   -8.2247   22.0741 C   0  0  0  0  0  0
  -22.4264   -8.0258   21.3535 C   0  0  0  0  0  0
  -21.9883   -9.0231   20.4633 C   0  0  0  0  0  0
  -22.7197  -10.2122   20.3038 C   0  0  0  0  0  0
  -21.6848   -6.0714   22.5271 C   0  0  0  0  0  0
  -21.4017   -6.5621   23.8207 C   0  0  0  0  0  0
  -21.3666   -5.6777   24.9172 C   0  0  0  0  0  0
  -21.6048   -4.3035   24.7219 C   0  0  0  0  0  0
  -21.8825   -3.8132   23.4340 C   0  0  0  0  0  0
  -21.9206   -4.6950   22.3400 C   0  0  0  0  0  0
  -22.7841  -13.5236   21.1877 C   0  0  0  0  0  0
  -22.1666   -4.2132   21.0979 F   0  0  0  0  0  0
  -21.5646   -3.4531   25.7738 F   0  0  0  0  0  0
  -30.0286  -13.2906   20.4243 N   0  0  0  0  0  0
  -26.2995  -12.9329   20.3354 N   0  0  0  0  0  0
  -25.9294  -11.6494   20.5753 N   0  0  0  0  0  0
  -22.0489  -12.8227   22.0415 N   0  0  0  0  0  0
  -25.4304  -15.1855   20.4099 N   0  0  0  0  0  0
  -31.8670  -14.5858   20.0949 O   0  0  0  0  0  0
  -21.6644   -6.8845   21.4221 O   0  0  0  0  0  0
  -22.3546  -14.5579   20.6739 O   0  0  0  0  0  0
  -24.6149  -31.8690   23.2101 C   0  0  0  0  0  0
  -25.9053  -32.4811   23.8368 C   0  0  1  0  0  0
  -27.2450  -27.4480   20.0653 C   0  0  0  0  0  0
  -25.5913  -33.8612   24.2285 N   0  0  0  0  0  0
  -23.4007  -30.4930   21.5497 C   0  0  2  0  0  0
  -24.8478  -28.9572   20.1177 C   0  0  0  0  0  0
  -22.7388  -29.4672   22.4968 C   0  0  0  0  0  0
  -18.0306  -28.1354   22.8454 C   0  0  0  0  0  0
  -24.1510  -36.7309   23.2638 C   0  0  0  0  0  0
  -25.9337  -30.8335   21.3667 C   0  0  0  0  0  0
  -26.0084  -29.4724   20.7052 C   0  0  0  0  0  0
  -27.2068  -28.7239   20.6766 C   0  0  0  0  0  0
  -26.0542  -26.9393   19.4955 C   0  0  0  0  0  0
  -24.8623  -27.6856   19.5193 C   0  0  0  0  0  0
  -23.6103  -29.8233   20.1663 C   0  0  0  0  0  0
  -25.4131  -36.3107   24.0339 C   0  0  1  0  0  0
  -20.5873  -28.3669   23.1317 C   0  0  2  0  0  0
  -20.6845  -26.9392   22.5429 C   0  0  0  0  0  0
  -19.5823  -26.6368   21.5193 C   0  0  0  0  0  0
  -18.1961  -26.7908   22.1568 C   0  0  0  0  0  0
  -19.1524  -28.8825   23.2909 C   0  0  0  0  0  0
  -18.9427  -30.1437   23.8885 C   0  0  0  0  0  0
  -17.6416  -30.6577   24.0527 C   0  0  0  0  0  0
  -25.9053  -34.9475   23.5098 C   0  0  0  0  0  0
  -16.5354  -29.9020   23.6267 C   0  0  0  0  0  0
  -16.7280  -28.6446   23.0261 C   0  0  0  0  0  0
  -26.4487  -31.6592   25.0692 C   0  0  0  0  0  0
  -25.3756  -31.3686   26.1417 C   0  0  0  0  0  0
  -27.0313  -30.3026   24.6103 C   0  0  0  0  0  0
  -27.6048  -32.4320   25.7445 C   0  0  0  0  0  0
  -27.5594  -37.1810   24.8466 C   0  0  0  0  0  0
  -21.4110  -29.3048   22.3702 N   0  0  0  0  0  0
  -26.4314  -37.3797   23.9389 N   0  0  0  0  0  0
  -24.6679  -31.0776   22.1014 N   0  0  0  0  0  0
  -23.4171  -28.8232   23.3019 O   0  0  0  0  0  0
  -28.4467  -26.7647   20.0451 O   0  0  0  0  0  0
  -26.5602  -34.8921   22.4652 O   0  0  0  0  0  0
  -23.5340  -32.1455   23.7493 O   0  0  0  0  0  0
  -28.6995  -18.3993   21.6974 C   0  0  0  0  0  0
  -28.0314  -19.6290   21.5346 C   0  0  0  0  0  0
  -30.0787  -18.9208   19.7845 C   0  0  0  0  0  0
  -29.7648  -18.0527   20.8521 C   0  0  0  0  0  0
  -28.3723  -20.5585   20.5100 C   0  0  0  0  0  0
  -29.3911  -20.1432   19.5976 C   0  0  0  0  0  0
  -26.5043  -21.9837   21.2917 C   0  0  0  0  0  0
  -30.6542  -16.8486   21.1666 C   0  0  0  0  0  0
  -28.0747  -24.3333   20.2682 C   0  0  0  0  0  0
  -28.1139  -22.9463   19.5796 C   0  0  0  0  0  0
  -28.5500  -25.5017   19.3734 C   0  0  0  0  0  0
  -30.0557  -15.5132   21.0279 N   0  0  0  0  0  0
  -27.7049  -21.8271   20.4577 N   0  0  0  0  0  0
  -29.7492  -20.8947   18.5286 F   0  0  0  0  0  0
  -31.4631  -12.3408   19.1430 H   0  0  0  0  0  0
  -30.2824  -11.2772   19.8390 H   0  0  0  0  0  0
  -29.7279  -11.7468   17.4317 H   0  0  0  0  0  0
  -29.6655  -13.4645   17.7655 H   0  0  0  0  0  0
  -27.8388  -11.2879   18.8569 H   0  0  0  0  0  0
  -27.3500  -12.5811   17.7913 H   0  0  0  0  0  0
  -27.6939  -14.2480   19.5474 H   0  0  0  0  0  0
  -28.6661  -11.9791   21.3514 H   0  0  0  0  0  0
  -28.4787  -13.6329   21.8545 H   0  0  0  0  0  0
  -25.2724   -9.5730   22.4736 H   0  0  0  0  0  0
  -24.0003   -7.4646   22.7472 H   0  0  0  0  0  0
  -21.0808   -8.8741   19.8930 H   0  0  0  0  0  0
  -22.3633  -10.9659   19.6145 H   0  0  0  0  0  0
  -21.1989   -7.6133   23.9702 H   0  0  0  0  0  0
  -21.1484   -6.0509   25.9077 H   0  0  0  0  0  0
  -22.0597   -2.7593   23.2854 H   0  0  0  0  0  0
  -22.4115  -11.9871   22.4773 H   0  0  0  0  0  0
  -21.1101  -13.1214   22.2632 H   0  0  0  0  0  0
  -24.6626  -15.8369   20.5226 H   0  0  0  0  0  0
  -26.2798  -15.6224   20.0737 H   0  0  0  0  0  0
  -26.7104  -32.5513   23.1101 H   0  0  0  0  0  0
  -25.0110  -33.9779   25.0461 H   0  0  0  0  0  0
  -22.6920  -31.3114   21.4076 H   0  0  0  0  0  0
  -23.3768  -35.9646   23.3321 H   0  0  0  0  0  0
  -24.3618  -36.8896   22.2044 H   0  0  0  0  0  0
  -23.7256  -37.6529   23.6642 H   0  0  0  0  0  0
  -26.0602  -31.6034   20.6055 H   0  0  0  0  0  0
  -26.8177  -30.8680   21.9939 H   0  0  0  0  0  0
  -28.1086  -29.1330   21.1117 H   0  0  0  0  0  0
  -26.0255  -25.9696   19.0261 H   0  0  0  0  0  0
  -23.9645  -27.2686   19.0812 H   0  0  0  0  0  0
  -23.7254  -30.5988   19.4082 H   0  0  0  0  0  0
  -22.7361  -29.2473   19.8617 H   0  0  0  0  0  0
  -25.1315  -36.1974   25.0843 H   0  0  0  0  0  0
  -20.9952  -28.3306   24.1457 H   0  0  0  0  0  0
  -20.5831  -26.2245   23.3609 H   0  0  0  0  0  0
  -21.6714  -26.7521   22.1142 H   0  0  0  0  0  0
  -19.6950  -25.6287   21.1176 H   0  0  0  0  0  0
  -19.6790  -27.3176   20.6746 H   0  0  0  0  0  0
  -17.4262  -26.6660   21.3946 H   0  0  0  0  0  0
  -18.0367  -26.0005   22.8925 H   0  0  0  0  0  0
  -19.7859  -30.7319   24.2263 H   0  0  0  0  0  0
  -17.4926  -31.6277   24.5078 H   0  0  0  0  0  0
  -15.5333  -30.2865   23.7597 H   0  0  0  0  0  0
  -15.8704  -28.0751   22.6908 H   0  0  0  0  0  0
  -24.5929  -30.7047   25.7718 H   0  0  0  0  0  0
  -24.8956  -32.2832   26.4902 H   0  0  0  0  0  0
  -25.8116  -30.8809   27.0123 H   0  0  0  0  0  0
  -26.2845  -29.6754   24.1210 H   0  0  0  0  0  0
  -27.4090  -29.7320   25.4587 H   0  0  0  0  0  0
  -27.8696  -30.4307   23.9251 H   0  0  0  0  0  0
  -27.2656  -33.3583   26.2071 H   0  0  0  0  0  0
  -28.3828  -32.6901   25.0260 H   0  0  0  0  0  0
  -28.0734  -31.8397   26.5303 H   0  0  0  0  0  0
  -28.2617  -38.0104   24.7498 H   0  0  0  0  0  0
  -28.1084  -36.2618   24.6326 H   0  0  0  0  0  0
  -27.2299  -37.1499   25.8871 H   0  0  0  0  0  0
  -20.9288  -29.8750   21.6891 H   0  0  0  0  0  0
  -26.0204  -38.2883   24.1371 H   0  0  0  0  0  0
  -28.4255  -17.7545   22.5200 H   0  0  0  0  0  0
  -27.2671  -19.8413   22.2655 H   0  0  0  0  0  0
  -30.8852  -18.6729   19.1107 H   0  0  0  0  0  0
  -25.8644  -22.8106   20.9905 H   0  0  0  0  0  0
  -26.7930  -22.1538   22.3318 H   0  0  0  0  0  0
  -25.8733  -21.0971   21.2563 H   0  0  0  0  0  0
  -31.5577  -16.9442   20.5580 H   0  0  0  0  0  0
  -30.9962  -16.9564   22.1965 H   0  0  0  0  0  0
  -28.7007  -24.3064   21.1613 H   0  0  0  0  0  0
  -27.0630  -24.5546   20.6038 H   0  0  0  0  0  0
  -29.1328  -22.8273   19.2237 H   0  0  0  0  0  0
  -27.4660  -22.9690   18.6999 H   0  0  0  0  0  0
  -28.0551  -25.5211   18.3978 H   0  0  0  0  0  0
  -29.6046  -25.3521   19.1432 H   0  0  0  0  0  0
  -29.1087  -15.3772   21.3434 H   0  0  0  0  0  0
  1 25  1  0  0  0
  1 30  2  0  0  0
  1 82  1  0  0  0
  2  3  1  0  0  0
  2 25  1  0  0  0
  2 85  1  0  0  0
  2 86  1  0  0  0
  3  4  1  0  0  0
  3 87  1  0  0  0
  3 88  1  0  0  0
  4  5  1  0  0  0
  4 89  1  0  0  0
  4 90  1  0  0  0
  5  6  1  0  0  0
  5 26  1  0  0  0
  5 91  1  0  0  0
  6 25  1  0  0  0
  6 92  1  0  0  0
  6 93  1  0  0  0
  7  8  2  0  0  0
  7 26  1  0  0  0
  7 29  1  0  0  0
  8  9  1  0  0  0
  8 22  1  0  0  0
  9 10  1  0  0  0
  9 27  2  0  0  0
 10 11  2  0  0  0
 10 15  1  0  0  0
 11 12  1  0  0  0
 11 94  1  0  0  0
 12 13  2  0  0  0
 12 95  1  0  0  0
 13 14  1  0  0  0
 13 31  1  0  0  0
 14 15  2  0  0  0
 14 96  1  0  0  0
 15 97  1  0  0  0
 16 17  2  0  0  0
 16 21  1  0  0  0
 16 31  1  0  0  0
 17 18  1  0  0  0
 17 98  1  0  0  0
 18 19  2  0  0  0
 18 99  1  0  0  0
 19 20  1  0  0  0
 19 24  1  0  0  0
 20 21  2  0  0  0
 20100  1  0  0  0
 21 23  1  0  0  0
 22 28  1  0  0  0
 22 32  2  0  0  0
 26 27  1  0  0  0
 28101  1  0  0  0
 28102  1  0  0  0
 29103  1  0  0  0
 29104  1  0  0  0
 33 34  1  0  0  0
 33 66  1  0  0  0
 33 70  2  0  0  0
 34 36  1  0  0  0
 34 59  1  0  0  0
 34105  1  0  0  0
 35 44  2  0  0  0
 35 45  1  0  0  0
 35 68  1  0  0  0
 36 56  1  0  0  0
 36106  1  0  0  0
 37 39  1  0  0  0
 37 47  1  0  0  0
 37 66  1  0  0  0
 37107  1  0  0  0
 38 43  2  0  0  0
 38 46  1  0  0  0
 38 47  1  0  0  0
 39 64  1  0  0  0
 39 67  2  0  0  0
 40 52  1  0  0  0
 40 53  2  0  0  0
 40 58  1  0  0  0
 41108  1  0  0  0
 41109  1  0  0  0
 41110  1  0  0  0
 41 48  1  0  0  0
 42 43  1  0  0  0
 42 66  1  0  0  0
 42111  1  0  0  0
 42112  1  0  0  0
 43 44  1  0  0  0
 44113  1  0  0  0
 45 46  2  0  0  0
 45114  1  0  0  0
 46115  1  0  0  0
 47116  1  0  0  0
 47117  1  0  0  0
 48 56  1  0  0  0
 48 65  1  0  0  0
 48118  1  0  0  0
 49 50  1  0  0  0
 49 53  1  0  0  0
 49 64  1  0  0  0
 49119  1  0  0  0
 50 51  1  0  0  0
 50120  1  0  0  0
 50121  1  0  0  0
 51 52  1  0  0  0
 51122  1  0  0  0
 51123  1  0  0  0
 52124  1  0  0  0
 52125  1  0  0  0
 53 54  1  0  0  0
 54 55  2  0  0  0
 54126  1  0  0  0
 55 57  1  0  0  0
 55127  1  0  0  0
 56 69  2  0  0  0
 57 58  2  0  0  0
 57128  1  0  0  0
 58129  1  0  0  0
 59 60  1  0  0  0
 59 61  1  0  0  0
 59 62  1  0  0  0
 60130  1  0  0  0
 60131  1  0  0  0
 60132  1  0  0  0
 61133  1  0  0  0
 61134  1  0  0  0
 61135  1  0  0  0
 62136  1  0  0  0
 62137  1  0  0  0
 62138  1  0  0  0
 63 65  1  0  0  0
 63139  1  0  0  0
 63140  1  0  0  0
 63141  1  0  0  0
 64142  1  0  0  0
 65143  1  0  0  0
 68 81  1  0  0  0
 71 72  2  0  0  0
 71 74  1  0  0  0
 71144  1  0  0  0
 72 75  1  0  0  0
 72145  1  0  0  0
 73 74  2  0  0  0
 73 76  1  0  0  0
 73146  1  0  0  0
 74 78  1  0  0  0
 75 76  2  0  0  0
 75 83  1  0  0  0
 76 84  1  0  0  0
 77 83  1  0  0  0
 77147  1  0  0  0
 77148  1  0  0  0
 77149  1  0  0  0
 78 82  1  0  0  0
 78150  1  0  0  0
 78151  1  0  0  0
 79 80  1  0  0  0
 79 81  1  0  0  0
 79152  1  0  0  0
 79153  1  0  0  0
 80 83  1  0  0  0
 80154  1  0  0  0
 80155  1  0  0  0
 81156  1  0  0  0
 81157  1  0  0  0
 82158  1  0  0  0
M  ISO  4   1 100  68 101  81 101  82 100
M  END
> <chiral flag>
0

> <version>
0

> <s_m_source_file>
/data/baiqing/PycharmProjects/Reinvent-master-3.2/result/LINK_invent/BTK/process_docking_weight1_custom_product_contain_oxygen_bond_distance_aromatic_linkinvent_7_9_3/rearranged_h_0018.sdf

> <i_m_source_file_index>
77

> <r_mmod_Potential_Energy-OPLS-2005>
-49.836540222168

> <r_mmod_Stretch_Energy-OPLS-2005>
42.6350860595703

> <r_mmod_Bend_Energy-OPLS-2005>
121.546966552734

> <r_mmod_Torsional_Energy-OPLS-2005>
182.423477172852

> <r_mmod_Improper_Torsional_Energy-OPLS-2005>
3.69943284988403

> <r_mmod_Van_der_Waal_Energy-OPLS-2005>
175.202682495117

> <r_mmod_Electrostatic_Energy-OPLS-2005>
-368.714752197266

> <r_mmod_Solvation_Energy-OPLS-2005>
-220.623901367188

> <b_mmod_Minimization_Converged-OPLS-2005>
0

> <r_mmod_RMS_Derivative-OPLS-2005>
4.6831431388855

$$$$
77
                    3D
 Structure written by MMmdl.
159168  0  0  1  0            999 V2000
  -30.5204  -14.9838   20.4924 C   0  0  0  0  0  0
  -30.4601  -12.6172   19.5761 C   0  0  0  0  0  0
  -29.5669  -12.5094   18.3129 C   0  0  0  0  0  0
  -28.1042  -12.2458   18.7280 C   0  0  0  0  0  0
  -27.6336  -13.2256   19.8326 C   0  0  2  0  0  0
  -28.6430  -13.3085   20.9942 C   0  0  0  0  0  0
  -25.2518  -13.8174   20.5731 C   0  0  0  0  0  0
  -24.1830  -13.0451   20.9252 C   0  0  0  0  0  0
  -24.6386  -11.6916   20.8745 C   0  0  0  0  0  0
  -23.9071  -10.4311   21.0466 C   0  0  0  0  0  0
  -24.3630   -9.4225   21.9217 C   0  0  0  0  0  0
  -23.6294   -8.2247   22.0772 C   0  0  0  0  0  0
  -22.4288   -8.0301   21.3534 C   0  0  0  0  0  0
  -21.9915   -9.0305   20.4677 C   0  0  0  0  0  0
  -22.7257  -10.2177   20.3097 C   0  0  0  0  0  0
  -21.6892   -6.0707   22.5232 C   0  0  0  0  0  0
  -21.4057   -6.5606   23.8188 C   0  0  0  0  0  0
  -21.3646   -5.6741   24.9121 C   0  0  0  0  0  0
  -21.6067   -4.3022   24.7186 C   0  0  0  0  0  0
  -21.8825   -3.8125   23.4304 C   0  0  0  0  0  0
  -21.9214   -4.6920   22.3362 C   0  0  0  0  0  0
  -22.7832  -13.5282   21.1850 C   0  0  0  0  0  0
  -22.1674   -4.2116   21.0923 F   0  0  0  0  0  0
  -21.5632   -3.4497   25.7696 F   0  0  0  0  0  0
  -29.9341  -13.7232   20.4278 N   0  0  0  0  0  0
  -26.2897  -12.9341   20.3112 N   0  0  0  0  0  0
  -25.9321  -11.6519   20.5687 N   0  0  0  0  0  0
  -22.0412  -12.8324   22.0400 N   0  0  0  0  0  0
  -25.4218  -15.1888   20.4260 N   0  0  0  0  0  0
  -31.6935  -15.0691   20.0942 O   0  0  0  0  0  0
  -21.6689   -6.8864   21.4213 O   0  0  0  0  0  0
  -22.3551  -14.5598   20.6717 O   0  0  0  0  0  0
  -24.6397  -31.8508   23.1902 C   0  0  0  0  0  0
  -25.9190  -32.4747   23.8311 C   0  0  1  0  0  0
  -27.2128  -27.1616   20.1550 C   0  0  0  0  0  0
  -25.6021  -33.8541   24.2315 N   0  0  0  0  0  0
  -23.4402  -30.4715   21.5303 C   0  0  2  0  0  0
  -24.8916  -28.9014   20.0996 C   0  0  0  0  0  0
  -22.7565  -29.4589   22.4813 C   0  0  0  0  0  0
  -18.0342  -28.1324   22.8512 C   0  0  0  0  0  0
  -24.1469  -36.7193   23.2631 C   0  0  0  0  0  0
  -25.9899  -30.7378   21.3849 C   0  0  0  0  0  0
  -26.0629  -29.3518   20.7176 C   0  0  0  0  0  0
  -27.2205  -28.4936   20.7295 C   0  0  0  0  0  0
  -26.0097  -26.7925   19.5195 C   0  0  0  0  0  0
  -24.8763  -27.6416   19.4772 C   0  0  0  0  0  0
  -23.6656  -29.8004   20.1470 C   0  0  0  0  0  0
  -25.4119  -36.3107   24.0356 C   0  0  1  0  0  0
  -20.5947  -28.3681   23.1181 C   0  0  2  0  0  0
  -20.6849  -26.9383   22.5353 C   0  0  0  0  0  0
  -19.5774  -26.6328   21.5209 C   0  0  0  0  0  0
  -18.1968  -26.7867   22.1636 C   0  0  0  0  0  0
  -19.1603  -28.8820   23.2859 C   0  0  0  0  0  0
  -18.9531  -30.1415   23.8862 C   0  0  0  0  0  0
  -17.6522  -30.6550   24.0522 C   0  0  0  0  0  0
  -25.9059  -34.9454   23.5146 C   0  0  0  0  0  0
  -16.5417  -29.9038   23.6279 C   0  0  0  0  0  0
  -16.7344  -28.6429   23.0410 C   0  0  0  0  0  0
  -26.4536  -31.6602   25.0710 C   0  0  0  0  0  0
  -25.3740  -31.3743   26.1402 C   0  0  0  0  0  0
  -27.0372  -30.2997   24.6301 C   0  0  0  0  0  0
  -27.6141  -32.4335   25.7431 C   0  0  0  0  0  0
  -27.5594  -37.1746   24.8481 C   0  0  0  0  0  0
  -21.4260  -29.3059   22.3551 N   0  0  0  0  0  0
  -26.4319  -37.3839   23.9427 N   0  0  0  0  0  0
  -24.7077  -31.0393   22.0921 N   0  0  0  0  0  0
  -23.4248  -28.8169   23.2954 O   0  0  0  0  0  0
  -28.2804  -26.2131   20.2885 O   0  0  0  0  0  0
  -26.5559  -34.8930   22.4681 O   0  0  0  0  0  0
  -23.5544  -32.1361   23.7185 O   0  0  0  0  0  0
  -30.4158  -20.0323   20.7833 C   0  0  0  0  0  0
  -28.1863  -19.6713   20.1043 C   0  0  0  0  0  0
  -30.6461  -18.5989   20.8550 C   0  0  0  0  0  0
  -28.4160  -18.2220   20.1915 C   0  0  0  0  0  0
  -29.1745  -20.6784   20.4338 C   0  0  0  0  0  0
  -29.6594  -17.5923   20.5885 C   0  0  0  0  0  0
  -28.0513  -23.3748   22.4216 C   0  0  0  0  0  0
  -27.0635  -23.3128   21.2534 C   0  0  0  0  0  0
  -29.2951  -22.5935   21.9357 C   0  0  0  0  0  0
  -28.0186  -23.2470   20.0742 C   0  0  2  0  0  0
  -29.9682  -16.0762   22.4955 C   0  0  0  0  0  0
  -28.4320  -24.8284   19.6176 C   0  0  0  0  0  0
  -29.0465  -22.1759   20.5432 N   0  0  0  0  0  0
  -29.8275  -16.1154   21.0333 N   0  0  0  0  0  0
  -31.5091  -12.7650   19.3137 H   0  0  0  0  0  0
  -30.4493  -11.6976   20.1597 H   0  0  0  0  0  0
  -29.9499  -11.7119   17.6734 H   0  0  0  0  0  0
  -29.6319  -13.4273   17.7245 H   0  0  0  0  0  0
  -28.0652  -11.2227   19.1075 H   0  0  0  0  0  0
  -27.4406  -12.2785   17.8640 H   0  0  0  0  0  0
  -27.5979  -14.2048   19.3578 H   0  0  0  0  0  0
  -28.7346  -12.3721   21.5382 H   0  0  0  0  0  0
  -28.2823  -14.0292   21.7278 H   0  0  0  0  0  0
  -25.2774   -9.5712   22.4764 H   0  0  0  0  0  0
  -24.0052   -7.4631   22.7466 H   0  0  0  0  0  0
  -21.0855   -8.8890   19.8943 H   0  0  0  0  0  0
  -22.3794  -10.9751   19.6223 H   0  0  0  0  0  0
  -21.2116   -7.6120   23.9683 H   0  0  0  0  0  0
  -21.1446   -6.0449   25.9008 H   0  0  0  0  0  0
  -22.0648   -2.7584   23.2789 H   0  0  0  0  0  0
  -22.4010  -12.0048   22.4901 H   0  0  0  0  0  0
  -21.1006  -13.1358   22.2491 H   0  0  0  0  0  0
  -24.6604  -15.8394   20.5756 H   0  0  0  0  0  0
  -26.2845  -15.6381   20.1433 H   0  0  0  0  0  0
  -26.7221  -32.5397   23.1016 H   0  0  0  0  0  0
  -25.0436  -33.9593   25.0676 H   0  0  0  0  0  0
  -22.7444  -31.2999   21.3795 H   0  0  0  0  0  0
  -23.3829  -35.9420   23.3302 H   0  0  0  0  0  0
  -24.3594  -36.8794   22.2045 H   0  0  0  0  0  0
  -23.7011  -37.6335   23.6577 H   0  0  0  0  0  0
  -26.1571  -31.5176   20.6402 H   0  0  0  0  0  0
  -26.8441  -30.7742   22.0471 H   0  0  0  0  0  0
  -28.1109  -28.8364   21.2399 H   0  0  0  0  0  0
  -25.9048  -25.8027   19.1071 H   0  0  0  0  0  0
  -23.9739  -27.2893   18.9941 H   0  0  0  0  0  0
  -23.8001  -30.5693   19.3863 H   0  0  0  0  0  0
  -22.7789  -29.2447   19.8402 H   0  0  0  0  0  0
  -25.1325  -36.2025   25.0853 H   0  0  0  0  0  0
  -21.0126  -28.3273   24.1270 H   0  0  0  0  0  0
  -20.5774  -26.2332   23.3608 H   0  0  0  0  0  0
  -21.6714  -26.7419   22.1114 H   0  0  0  0  0  0
  -19.6929  -25.6247   21.1225 H   0  0  0  0  0  0
  -19.6620  -27.3139   20.6708 H   0  0  0  0  0  0
  -17.4260  -26.6644   21.4022 H   0  0  0  0  0  0
  -18.0342  -26.0029   22.9025 H   0  0  0  0  0  0
  -19.8019  -30.7241   24.2239 H   0  0  0  0  0  0
  -17.5074  -31.6237   24.5102 H   0  0  0  0  0  0
  -15.5397  -30.2949   23.7533 H   0  0  0  0  0  0
  -15.8761  -28.0638   22.7215 H   0  0  0  0  0  0
  -24.5909  -30.7172   25.7627 H   0  0  0  0  0  0
  -24.8929  -32.2916   26.4826 H   0  0  0  0  0  0
  -25.7993  -30.8843   27.0186 H   0  0  0  0  0  0
  -26.2999  -29.6689   24.1322 H   0  0  0  0  0  0
  -27.4009  -29.7334   25.4884 H   0  0  0  0  0  0
  -27.8940  -30.4217   23.9658 H   0  0  0  0  0  0
  -27.2876  -33.3747   26.1880 H   0  0  0  0  0  0
  -28.3965  -32.6698   25.0197 H   0  0  0  0  0  0
  -28.0818  -31.8541   26.5411 H   0  0  0  0  0  0
  -28.2665  -38.0017   24.7714 H   0  0  0  0  0  0
  -28.1059  -36.2568   24.6214 H   0  0  0  0  0  0
  -27.2304  -37.1382   25.8887 H   0  0  0  0  0  0
  -20.9484  -29.8792   21.6737 H   0  0  0  0  0  0
  -26.0212  -38.2924   24.1521 H   0  0  0  0  0  0
  -31.2509  -20.6601   21.0696 H   0  0  0  0  0  0
  -27.1832  -19.9823   19.8335 H   0  0  0  0  0  0
  -31.6238  -18.2804   21.1940 H   0  0  0  0  0  0
  -27.5544  -17.5919   19.9871 H   0  0  0  0  0  0
  -27.6292  -23.0079   23.3599 H   0  0  0  0  0  0
  -28.3401  -24.4156   22.5964 H   0  0  0  0  0  0
  -26.3881  -24.1668   21.2105 H   0  0  0  0  0  0
  -26.4452  -22.4078   21.2772 H   0  0  0  0  0  0
  -29.4914  -21.7506   22.6020 H   0  0  0  0  0  0
  -30.1654  -23.2552   22.0050 H   0  0  0  0  0  0
  -27.4995  -22.8337   19.2065 H   0  0  0  0  0  0
  -29.3045  -16.7800   22.9973 H   0  0  0  0  0  0
  -30.9880  -16.3722   22.7530 H   0  0  0  0  0  0
  -29.7867  -15.0980   22.9420 H   0  0  0  0  0  0
  -29.4956  -24.7921   19.3731 H   0  0  0  0  0  0
  -27.9831  -24.9861   18.6359 H   0  0  0  0  0  0
  1 25  1  0  0  0
  1 30  2  0  0  0
  1 84  1  0  0  0
  2  3  1  0  0  0
  2 25  1  0  0  0
  2 85  1  0  0  0
  2 86  1  0  0  0
  3  4  1  0  0  0
  3 87  1  0  0  0
  3 88  1  0  0  0
  4  5  1  0  0  0
  4 89  1  0  0  0
  4 90  1  0  0  0
  5  6  1  0  0  0
  5 26  1  0  0  0
  5 91  1  0  0  0
  6 25  1  0  0  0
  6 92  1  0  0  0
  6 93  1  0  0  0
  7  8  2  0  0  0
  7 26  1  0  0  0
  7 29  1  0  0  0
  8  9  1  0  0  0
  8 22  1  0  0  0
  9 10  1  0  0  0
  9 27  2  0  0  0
 10 11  2  0  0  0
 10 15  1  0  0  0
 11 12  1  0  0  0
 11 94  1  0  0  0
 12 13  2  0  0  0
 12 95  1  0  0  0
 13 14  1  0  0  0
 13 31  1  0  0  0
 14 15  2  0  0  0
 14 96  1  0  0  0
 15 97  1  0  0  0
 16 17  2  0  0  0
 16 21  1  0  0  0
 16 31  1  0  0  0
 17 18  1  0  0  0
 17 98  1  0  0  0
 18 19  2  0  0  0
 18 99  1  0  0  0
 19 20  1  0  0  0
 19 24  1  0  0  0
 20 21  2  0  0  0
 20100  1  0  0  0
 21 23  1  0  0  0
 22 28  1  0  0  0
 22 32  2  0  0  0
 26 27  1  0  0  0
 28101  1  0  0  0
 28102  1  0  0  0
 29103  1  0  0  0
 29104  1  0  0  0
 33 34  1  0  0  0
 33 66  1  0  0  0
 33 70  2  0  0  0
 34 36  1  0  0  0
 34 59  1  0  0  0
 34105  1  0  0  0
 35 44  2  0  0  0
 35 45  1  0  0  0
 35 68  1  0  0  0
 36 56  1  0  0  0
 36106  1  0  0  0
 37 39  1  0  0  0
 37 47  1  0  0  0
 37 66  1  0  0  0
 37107  1  0  0  0
 38 43  2  0  0  0
 38 46  1  0  0  0
 38 47  1  0  0  0
 39 64  1  0  0  0
 39 67  2  0  0  0
 40 52  1  0  0  0
 40 53  2  0  0  0
 40 58  1  0  0  0
 41108  1  0  0  0
 41109  1  0  0  0
 41110  1  0  0  0
 41 48  1  0  0  0
 42 43  1  0  0  0
 42 66  1  0  0  0
 42111  1  0  0  0
 42112  1  0  0  0
 43 44  1  0  0  0
 44113  1  0  0  0
 45 46  2  0  0  0
 45114  1  0  0  0
 46115  1  0  0  0
 47116  1  0  0  0
 47117  1  0  0  0
 48 56  1  0  0  0
 48 65  1  0  0  0
 48118  1  0  0  0
 49 50  1  0  0  0
 49 53  1  0  0  0
 49 64  1  0  0  0
 49119  1  0  0  0
 50 51  1  0  0  0
 50120  1  0  0  0
 50121  1  0  0  0
 51 52  1  0  0  0
 51122  1  0  0  0
 51123  1  0  0  0
 52124  1  0  0  0
 52125  1  0  0  0
 53 54  1  0  0  0
 54 55  2  0  0  0
 54126  1  0  0  0
 55 57  1  0  0  0
 55127  1  0  0  0
 56 69  2  0  0  0
 57 58  2  0  0  0
 57128  1  0  0  0
 58129  1  0  0  0
 59 60  1  0  0  0
 59 61  1  0  0  0
 59 62  1  0  0  0
 60130  1  0  0  0
 60131  1  0  0  0
 60132  1  0  0  0
 61133  1  0  0  0
 61134  1  0  0  0
 61135  1  0  0  0
 62136  1  0  0  0
 62137  1  0  0  0
 62138  1  0  0  0
 63 65  1  0  0  0
 63139  1  0  0  0
 63140  1  0  0  0
 63141  1  0  0  0
 64142  1  0  0  0
 65143  1  0  0  0
 68 82  1  0  0  0
 71 73  2  0  0  0
 71 75  1  0  0  0
 71144  1  0  0  0
 72 74  1  0  0  0
 72 75  2  0  0  0
 72145  1  0  0  0
 73 76  1  0  0  0
 73146  1  0  0  0
 74 76  2  0  0  0
 74147  1  0  0  0
 75 83  1  0  0  0
 76 84  1  0  0  0
 77 78  1  0  0  0
 77 79  1  0  0  0
 77148  1  0  0  0
 77149  1  0  0  0
 78 80  1  0  0  0
 78150  1  0  0  0
 78151  1  0  0  0
 79 83  1  0  0  0
 79152  1  0  0  0
 79153  1  0  0  0
 80 82  1  0  0  0
 80 83  1  0  0  0
 80154  1  0  0  0
 81 84  1  0  0  0
 81155  1  0  0  0
 81156  1  0  0  0
 81157  1  0  0  0
 82158  1  0  0  0
 82159  1  0  0  0
M  ISO  4   1 100  68 101  82 101  84 100
M  END
> <chiral flag>
0

> <version>
0

> <s_m_source_file>
/data/baiqing/PycharmProjects/Reinvent-master-3.2/result/LINK_invent/BTK/process_docking_weight1_custom_product_contain_oxygen_bond_distance_aromatic_linkinvent_7_9_3/rearranged_h_0018.sdf

> <i_m_source_file_index>
78

> <r_mmod_Potential_Energy-OPLS-2005>
832.320678710938

> <r_mmod_Stretch_Energy-OPLS-2005>
244.90754699707

> <r_mmod_Bend_Energy-OPLS-2005>
364.900451660156

> <r_mmod_Torsional_Energy-OPLS-2005>
390.185394287109

> <r_mmod_Improper_Torsional_Energy-OPLS-2005>
13.0132856369019

> <r_mmod_Van_der_Waal_Energy-OPLS-2005>
128.949859619141

> <r_mmod_Electrostatic_Energy-OPLS-2005>
-306.451049804688

> <r_mmod_Solvation_Energy-OPLS-2005>
-208.283584594727

> <b_mmod_Minimization_Converged-OPLS-2005>
0

> <r_mmod_RMS_Derivative-OPLS-2005>
9.85872173309326

$$$$
78
                    3D
 Structure written by MMmdl.
165173  0  0  1  0            999 V2000
  -30.7126  -14.4972   20.4082 C   0  0  0  0  0  0
  -30.4241  -12.2830   19.4357 C   0  0  0  0  0  0
  -29.4961  -12.4177   18.2076 C   0  0  0  0  0  0
  -28.0174  -12.3007   18.6269 C   0  0  0  0  0  0
  -27.6541  -13.1975   19.8408 C   0  0  2  0  0  0
  -28.7005  -13.0938   20.9738 C   0  0  0  0  0  0
  -25.2646  -13.8130   20.5671 C   0  0  0  0  0  0
  -24.1888  -13.0431   20.9233 C   0  0  0  0  0  0
  -24.6397  -11.6894   20.8715 C   0  0  0  0  0  0
  -23.9061  -10.4285   21.0378 C   0  0  0  0  0  0
  -24.3639   -9.4218   21.9167 C   0  0  0  0  0  0
  -23.6321   -8.2239   22.0745 C   0  0  0  0  0  0
  -22.4296   -8.0271   21.3549 C   0  0  0  0  0  0
  -21.9938   -9.0257   20.4639 C   0  0  0  0  0  0
  -22.7234  -10.2141   20.3032 C   0  0  0  0  0  0
  -21.6877   -6.0732   22.5253 C   0  0  0  0  0  0
  -21.4022   -6.5626   23.8180 C   0  0  0  0  0  0
  -21.3664   -5.6765   24.9156 C   0  0  0  0  0  0
  -21.6069   -4.3033   24.7199 C   0  0  0  0  0  0
  -21.8824   -3.8141   23.4318 C   0  0  0  0  0  0
  -21.9225   -4.6977   22.3374 C   0  0  0  0  0  0
  -22.7901  -13.5229   21.1866 C   0  0  0  0  0  0
  -22.1681   -4.2163   21.0956 F   0  0  0  0  0  0
  -21.5668   -3.4487   25.7702 F   0  0  0  0  0  0
  -30.0258  -13.3270   20.3859 N   0  0  0  0  0  0
  -26.3027  -12.9275   20.3248 N   0  0  0  0  0  0
  -25.9316  -11.6464   20.5752 N   0  0  0  0  0  0
  -22.0552  -12.8176   22.0405 N   0  0  0  0  0  0
  -25.4400  -15.1822   20.4088 N   0  0  0  0  0  0
  -31.9437  -14.5342   20.3516 O   0  0  0  0  0  0
  -21.6662   -6.8876   21.4209 O   0  0  0  0  0  0
  -22.3571  -14.5510   20.6683 O   0  0  0  0  0  0
  -24.6081  -31.8712   23.2118 C   0  0  0  0  0  0
  -25.9009  -32.4824   23.8393 C   0  0  1  0  0  0
  -27.2457  -27.4898   20.0891 C   0  0  0  0  0  0
  -25.5875  -33.8621   24.2342 N   0  0  0  0  0  0
  -23.3962  -30.4932   21.5520 C   0  0  2  0  0  0
  -24.8443  -28.9553   20.1241 C   0  0  0  0  0  0
  -22.7387  -29.4675   22.5007 C   0  0  0  0  0  0
  -18.0269  -28.1379   22.8495 C   0  0  0  0  0  0
  -24.1491  -36.7315   23.2642 C   0  0  0  0  0  0
  -25.9184  -30.8472   21.3623 C   0  0  0  0  0  0
  -25.9957  -29.4814   20.7225 C   0  0  0  0  0  0
  -27.2007  -28.7526   20.7070 C   0  0  0  0  0  0
  -26.0823  -26.9524   19.5027 C   0  0  0  0  0  0
  -24.8757  -27.6825   19.5214 C   0  0  0  0  0  0
  -23.6035  -29.8180   20.1686 C   0  0  0  0  0  0
  -25.4117  -36.3117   24.0338 C   0  0  1  0  0  0
  -20.5852  -28.3659   23.1324 C   0  0  2  0  0  0
  -20.6769  -26.9403   22.5416 C   0  0  0  0  0  0
  -19.5743  -26.6402   21.5210 C   0  0  0  0  0  0
  -18.1918  -26.7932   22.1628 C   0  0  0  0  0  0
  -19.1516  -28.8840   23.2906 C   0  0  0  0  0  0
  -18.9453  -30.1449   23.8909 C   0  0  0  0  0  0
  -17.6461  -30.6579   24.0574 C   0  0  0  0  0  0
  -25.9026  -34.9482   23.5142 C   0  0  0  0  0  0
  -16.5349  -29.9088   23.6329 C   0  0  0  0  0  0
  -16.7266  -28.6508   23.0338 C   0  0  0  0  0  0
  -26.4466  -31.6581   25.0699 C   0  0  0  0  0  0
  -25.3753  -31.3633   26.1461 C   0  0  0  0  0  0
  -27.0317  -30.3054   24.6037 C   0  0  0  0  0  0
  -27.6076  -32.4286   25.7430 C   0  0  0  0  0  0
  -27.5588  -37.1808   24.8469 C   0  0  0  0  0  0
  -21.4131  -29.3021   22.3737 N   0  0  0  0  0  0
  -26.4307  -37.3806   23.9406 N   0  0  0  0  0  0
  -24.6587  -31.0850   22.1002 N   0  0  0  0  0  0
  -23.4181  -28.8245   23.3051 O   0  0  0  0  0  0
  -28.4386  -26.8278   19.9976 O   0  0  0  0  0  0
  -26.5613  -34.8938   22.4724 O   0  0  0  0  0  0
  -23.5293  -32.1443   23.7551 O   0  0  0  0  0  0
  -29.1690  -18.4083   18.7372 C   0  0  0  0  0  0
  -29.5611  -19.6953   18.3389 C   0  0  0  0  0  0
  -30.0430  -18.8307   20.9703 C   0  0  0  0  0  0
  -29.4723  -17.9371   20.0360 C   0  0  0  0  0  0
  -30.1536  -20.5781   19.2611 C   0  0  0  0  0  0
  -30.3677  -20.1498   20.5905 C   0  0  0  0  0  0
  -30.5814  -15.8123   18.3941 C   0  0  0  0  0  0
  -28.6873  -22.8959   17.4321 C   0  0  0  0  0  0
  -29.1979  -16.4758   20.4080 C   0  0  0  0  0  0
  -30.5414  -21.9796   18.8208 C   0  0  0  0  0  0
  -28.5602  -24.4859   20.4606 C   0  0  0  0  0  0
  -29.5534  -24.2192   19.3186 C   0  0  0  0  0  0
  -28.6926  -25.8964   21.0354 C   0  0  0  0  0  0
  -30.0586  -15.4739   19.7345 N   0  0  0  0  0  0
  -29.3463  -22.8599   18.7632 N   0  3  1  0  0  0
  -30.9135  -20.9952   21.4980 F   0  0  0  0  0  0
  -30.3225  -11.2988   19.8975 H   0  0  0  0  0  0
  -31.4738  -12.3652   19.1452 H   0  0  0  0  0  0
  -29.7263  -11.6457   17.4718 H   0  0  0  0  0  0
  -29.6638  -13.3692   17.7021 H   0  0  0  0  0  0
  -27.8266  -11.2551   18.8712 H   0  0  0  0  0  0
  -27.3658  -12.5246   17.7833 H   0  0  0  0  0  0
  -27.6678  -14.2143   19.4552 H   0  0  0  0  0  0
  -28.4846  -13.8193   21.7624 H   0  0  0  0  0  0
  -28.6703  -12.1119   21.4481 H   0  0  0  0  0  0
  -25.2814   -9.5682   22.4715 H   0  0  0  0  0  0
  -24.0061   -7.4625   22.7428 H   0  0  0  0  0  0
  -21.0898   -8.8758   19.8912 H   0  0  0  0  0  0
  -22.3718  -10.9695   19.6118 H   0  0  0  0  0  0
  -21.1951   -7.6121   23.9666 H   0  0  0  0  0  0
  -21.1504   -6.0503   25.9055 H   0  0  0  0  0  0
  -22.0605   -2.7610   23.2784 H   0  0  0  0  0  0
  -22.4223  -11.9867   22.4809 H   0  0  0  0  0  0
  -21.1165  -13.1146   22.2596 H   0  0  0  0  0  0
  -24.6716  -15.8333   20.5211 H   0  0  0  0  0  0
  -26.2852  -15.6194   20.0671 H   0  0  0  0  0  0
  -26.7086  -32.5580   23.1158 H   0  0  0  0  0  0
  -24.9988  -33.9804   25.0454 H   0  0  0  0  0  0
  -22.6816  -31.3066   21.4114 H   0  0  0  0  0  0
  -23.3748  -35.9647   23.3304 H   0  0  0  0  0  0
  -24.3581  -36.8944   22.2059 H   0  0  0  0  0  0
  -23.7252  -37.6529   23.6648 H   0  0  0  0  0  0
  -26.0260  -31.6070   20.5864 H   0  0  0  0  0  0
  -26.8114  -30.9068   21.9741 H   0  0  0  0  0  0
  -28.1025  -29.1606   21.1439 H   0  0  0  0  0  0
  -26.1142  -25.9865   19.0172 H   0  0  0  0  0  0
  -23.9892  -27.2683   19.0602 H   0  0  0  0  0  0
  -23.7123  -30.5909   19.4062 H   0  0  0  0  0  0
  -22.7289  -29.2341   19.8754 H   0  0  0  0  0  0
  -25.1283  -36.1986   25.0826 H   0  0  0  0  0  0
  -20.9950  -28.3230   24.1440 H   0  0  0  0  0  0
  -20.5691  -26.2266   23.3601 H   0  0  0  0  0  0
  -21.6637  -26.7464   22.1193 H   0  0  0  0  0  0
  -19.6909  -25.6323   21.1208 H   0  0  0  0  0  0
  -19.6672  -27.3242   20.6765 H   0  0  0  0  0  0
  -17.4199  -26.6687   21.4021 H   0  0  0  0  0  0
  -18.0310  -26.0043   22.9001 H   0  0  0  0  0  0
  -19.7925  -30.7260   24.2271 H   0  0  0  0  0  0
  -17.5013  -31.6252   24.5181 H   0  0  0  0  0  0
  -15.5346  -30.3008   23.7628 H   0  0  0  0  0  0
  -15.8668  -28.0851   22.7028 H   0  0  0  0  0  0
  -24.5925  -30.6995   25.7767 H   0  0  0  0  0  0
  -24.8929  -32.2763   26.4970 H   0  0  0  0  0  0
  -25.8131  -30.8745   27.0177 H   0  0  0  0  0  0
  -26.2841  -29.6760   24.1215 H   0  0  0  0  0  0
  -27.4268  -29.7343   25.4443 H   0  0  0  0  0  0
  -27.8569  -30.4405   23.9046 H   0  0  0  0  0  0
  -27.2733  -33.3584   26.2047 H   0  0  0  0  0  0
  -28.3836  -32.6871   25.0200 H   0  0  0  0  0  0
  -28.0791  -31.8378   26.5297 H   0  0  0  0  0  0
  -28.2616  -38.0102   24.7536 H   0  0  0  0  0  0
  -28.1084  -36.2645   24.6257 H   0  0  0  0  0  0
  -27.2301  -37.1404   25.8875 H   0  0  0  0  0  0
  -20.9303  -29.8681   21.6903 H   0  0  0  0  0  0
  -26.0190  -38.2883   24.1430 H   0  0  0  0  0  0
  -28.6906  -17.7675   18.0091 H   0  0  0  0  0  0
  -29.4078  -19.9928   17.3119 H   0  0  0  0  0  0
  -30.2450  -18.5115   21.9826 H   0  0  0  0  0  0
  -29.7631  -15.8931   17.6773 H   0  0  0  0  0  0
  -31.2595  -15.0544   17.9996 H   0  0  0  0  0  0
  -31.1619  -16.7350   18.3984 H   0  0  0  0  0  0
  -28.3465  -21.9132   17.1107 H   0  0  0  0  0  0
  -29.3606  -23.2898   16.6707 H   0  0  0  0  0  0
  -27.8056  -23.5373   17.4587 H   0  0  0  0  0  0
  -29.2595  -16.3657   21.4933 H   0  0  0  0  0  0
  -28.1574  -16.2820   20.1544 H   0  0  0  0  0  0
  -31.0522  -21.9524   17.8560 H   0  0  0  0  0  0
  -31.2779  -22.3499   19.5337 H   0  0  0  0  0  0
  -28.7247  -23.7652   21.2628 H   0  0  0  0  0  0
  -27.5401  -24.3346   20.1076 H   0  0  0  0  0  0
  -30.5697  -24.3639   19.6839 H   0  0  0  0  0  0
  -29.4284  -24.9700   18.5353 H   0  0  0  0  0  0
  -29.7062  -26.0576   21.4047 H   0  0  0  0  0  0
  -28.0220  -26.0225   21.8878 H   0  0  0  0  0  0
  -28.6864  -22.4231   19.3882 H   0  0  0  0  0  0
  1 25  1  0  0  0
  1 30  2  0  0  0
  1 84  1  0  0  0
  2  3  1  0  0  0
  2 25  1  0  0  0
  2 87  1  0  0  0
  2 88  1  0  0  0
  3  4  1  0  0  0
  3 89  1  0  0  0
  3 90  1  0  0  0
  4  5  1  0  0  0
  4 91  1  0  0  0
  4 92  1  0  0  0
  5  6  1  0  0  0
  5 26  1  0  0  0
  5 93  1  0  0  0
  6 25  1  0  0  0
  6 94  1  0  0  0
  6 95  1  0  0  0
  7  8  2  0  0  0
  7 26  1  0  0  0
  7 29  1  0  0  0
  8  9  1  0  0  0
  8 22  1  0  0  0
  9 10  1  0  0  0
  9 27  2  0  0  0
 10 11  2  0  0  0
 10 15  1  0  0  0
 11 12  1  0  0  0
 11 96  1  0  0  0
 12 13  2  0  0  0
 12 97  1  0  0  0
 13 14  1  0  0  0
 13 31  1  0  0  0
 14 15  2  0  0  0
 14 98  1  0  0  0
 15 99  1  0  0  0
 16 17  2  0  0  0
 16 21  1  0  0  0
 16 31  1  0  0  0
 17 18  1  0  0  0
 17100  1  0  0  0
 18 19  2  0  0  0
 18101  1  0  0  0
 19 20  1  0  0  0
 19 24  1  0  0  0
 20 21  2  0  0  0
 20102  1  0  0  0
 21 23  1  0  0  0
 22 28  1  0  0  0
 22 32  2  0  0  0
 26 27  1  0  0  0
 28103  1  0  0  0
 28104  1  0  0  0
 29105  1  0  0  0
 29106  1  0  0  0
 33 34  1  0  0  0
 33 66  1  0  0  0
 33 70  2  0  0  0
 34 36  1  0  0  0
 34 59  1  0  0  0
 34107  1  0  0  0
 35 44  2  0  0  0
 35 45  1  0  0  0
 35 68  1  0  0  0
 36 56  1  0  0  0
 36108  1  0  0  0
 37 39  1  0  0  0
 37 47  1  0  0  0
 37 66  1  0  0  0
 37109  1  0  0  0
 38 43  2  0  0  0
 38 46  1  0  0  0
 38 47  1  0  0  0
 39 64  1  0  0  0
 39 67  2  0  0  0
 40 52  1  0  0  0
 40 53  2  0  0  0
 40 58  1  0  0  0
 41110  1  0  0  0
 41111  1  0  0  0
 41112  1  0  0  0
 41 48  1  0  0  0
 42 43  1  0  0  0
 42 66  1  0  0  0
 42113  1  0  0  0
 42114  1  0  0  0
 43 44  1  0  0  0
 44115  1  0  0  0
 45 46  2  0  0  0
 45116  1  0  0  0
 46117  1  0  0  0
 47118  1  0  0  0
 47119  1  0  0  0
 48 56  1  0  0  0
 48 65  1  0  0  0
 48120  1  0  0  0
 49 50  1  0  0  0
 49 53  1  0  0  0
 49 64  1  0  0  0
 49121  1  0  0  0
 50 51  1  0  0  0
 50122  1  0  0  0
 50123  1  0  0  0
 51 52  1  0  0  0
 51124  1  0  0  0
 51125  1  0  0  0
 52126  1  0  0  0
 52127  1  0  0  0
 53 54  1  0  0  0
 54 55  2  0  0  0
 54128  1  0  0  0
 55 57  1  0  0  0
 55129  1  0  0  0
 56 69  2  0  0  0
 57 58  2  0  0  0
 57130  1  0  0  0
 58131  1  0  0  0
 59 60  1  0  0  0
 59 61  1  0  0  0
 59 62  1  0  0  0
 60132  1  0  0  0
 60133  1  0  0  0
 60134  1  0  0  0
 61135  1  0  0  0
 61136  1  0  0  0
 61137  1  0  0  0
 62138  1  0  0  0
 62139  1  0  0  0
 62140  1  0  0  0
 63 65  1  0  0  0
 63141  1  0  0  0
 63142  1  0  0  0
 63143  1  0  0  0
 64144  1  0  0  0
 65145  1  0  0  0
 68 83  1  0  0  0
 71 72  2  0  0  0
 71 74  1  0  0  0
 71146  1  0  0  0
 72 75  1  0  0  0
 72147  1  0  0  0
 73 74  2  0  0  0
 73 76  1  0  0  0
 73148  1  0  0  0
 74 79  1  0  0  0
 75 76  2  0  0  0
 75 80  1  0  0  0
 76 86  1  0  0  0
 77 84  1  0  0  0
 77149  1  0  0  0
 77150  1  0  0  0
 77151  1  0  0  0
 78152  1  0  0  0
 78153  1  0  0  0
 78154  1  0  0  0
 78 85  1  0  0  0
 79 84  1  0  0  0
 79155  1  0  0  0
 79156  1  0  0  0
 80 85  1  0  0  0
 80157  1  0  0  0
 80158  1  0  0  0
 81 82  1  0  0  0
 81 83  1  0  0  0
 81159  1  0  0  0
 81160  1  0  0  0
 82 85  1  0  0  0
 82161  1  0  0  0
 82162  1  0  0  0
 83163  1  0  0  0
 83164  1  0  0  0
 85165  1  0  0  0
M  CHG  1  85   1
M  ISO  4   1 100  68 101  83 101  84 100
M  END
> <chiral flag>
0

> <version>
0

> <s_m_source_file>
/data/baiqing/PycharmProjects/Reinvent-master-3.2/result/LINK_invent/BTK/process_docking_weight1_custom_product_contain_oxygen_bond_distance_aromatic_linkinvent_7_9_3/rearranged_h_0018.sdf

> <i_m_source_file_index>
79

> <r_mmod_Potential_Energy-OPLS-2005>
19.3048477172852

> <r_mmod_Stretch_Energy-OPLS-2005>
34.0043716430664

> <r_mmod_Bend_Energy-OPLS-2005>
93.1738433837891

> <r_mmod_Torsional_Energy-OPLS-2005>
328.671234130859

> <r_mmod_Improper_Torsional_Energy-OPLS-2005>
30.9154891967773

> <r_mmod_Van_der_Waal_Energy-OPLS-2005>
160.376327514648

> <r_mmod_Electrostatic_Energy-OPLS-2005>
-242.605209350586

> <r_mmod_Solvation_Energy-OPLS-2005>
-420.481781005859

> <b_mmod_Minimization_Converged-OPLS-2005>
0

> <r_mmod_RMS_Derivative-OPLS-2005>
4.50510787963867

$$$$
79
                    3D
 Structure written by MMmdl.
162170  0  0  1  0            999 V2000
  -30.7609  -14.4777   20.6265 C   0  0  0  0  0  0
  -30.4167  -12.3324   19.4328 C   0  0  0  0  0  0
  -29.4916  -12.5059   18.2126 C   0  0  0  0  0  0
  -28.0202  -12.3428   18.6321 C   0  0  0  0  0  0
  -27.6585  -13.2121   19.8643 C   0  0  2  0  0  0
  -28.6962  -13.0377   20.9941 C   0  0  0  0  0  0
  -25.2583  -13.8173   20.5665 C   0  0  0  0  0  0
  -24.1837  -13.0447   20.9159 C   0  0  0  0  0  0
  -24.6398  -11.6911   20.8725 C   0  0  0  0  0  0
  -23.9069  -10.4296   21.0404 C   0  0  0  0  0  0
  -24.3614   -9.4214   21.9185 C   0  0  0  0  0  0
  -23.6287   -8.2249   22.0763 C   0  0  0  0  0  0
  -22.4274   -8.0287   21.3546 C   0  0  0  0  0  0
  -21.9909   -9.0259   20.4645 C   0  0  0  0  0  0
  -22.7243  -10.2132   20.3053 C   0  0  0  0  0  0
  -21.6851   -6.0745   22.5280 C   0  0  0  0  0  0
  -21.4008   -6.5649   23.8213 C   0  0  0  0  0  0
  -21.3654   -5.6796   24.9174 C   0  0  0  0  0  0
  -21.6039   -4.3062   24.7220 C   0  0  0  0  0  0
  -21.8814   -3.8154   23.4346 C   0  0  0  0  0  0
  -21.9191   -4.6970   22.3402 C   0  0  0  0  0  0
  -22.7860  -13.5238   21.1830 C   0  0  0  0  0  0
  -22.1663   -4.2161   21.0977 F   0  0  0  0  0  0
  -21.5622   -3.4541   25.7733 F   0  0  0  0  0  0
  -30.0360  -13.3306   20.4501 N   0  0  0  0  0  0
  -26.3017  -12.9348   20.3317 N   0  0  0  0  0  0
  -25.9325  -11.6508   20.5747 N   0  0  0  0  0  0
  -22.0501  -12.8226   22.0386 N   0  0  0  0  0  0
  -25.4318  -15.1891   20.4111 N   0  0  0  0  0  0
  -31.8219  -14.6755   20.0256 O   0  0  0  0  0  0
  -21.6641   -6.8882   21.4247 O   0  0  0  0  0  0
  -22.3546  -14.5558   20.6703 O   0  0  0  0  0  0
  -24.6174  -31.8659   23.2077 C   0  0  0  0  0  0
  -25.9061  -32.4814   23.8376 C   0  0  1  0  0  0
  -27.2341  -27.4140   20.1033 C   0  0  0  0  0  0
  -25.5922  -33.8612   24.2322 N   0  0  0  0  0  0
  -23.4062  -30.4866   21.5491 C   0  0  2  0  0  0
  -24.8556  -28.9509   20.1124 C   0  0  0  0  0  0
  -22.7420  -29.4639   22.4998 C   0  0  0  0  0  0
  -18.0266  -28.1364   22.8481 C   0  0  0  0  0  0
  -24.1484  -36.7289   23.2631 C   0  0  0  0  0  0
  -25.9354  -30.8262   21.3616 C   0  0  0  0  0  0
  -26.0173  -29.4580   20.7108 C   0  0  0  0  0  0
  -27.2138  -28.6975   20.7020 C   0  0  0  0  0  0
  -26.0594  -26.9297   19.4920 C   0  0  0  0  0  0
  -24.8735  -27.6873   19.4969 C   0  0  0  0  0  0
  -23.6145  -29.8145   20.1653 C   0  0  0  0  0  0
  -25.4097  -36.3097   24.0343 C   0  0  1  0  0  0
  -20.5857  -28.3647   23.1315 C   0  0  2  0  0  0
  -20.6755  -26.9382   22.5402 C   0  0  0  0  0  0
  -19.5737  -26.6365   21.5198 C   0  0  0  0  0  0
  -18.1914  -26.7907   22.1603 C   0  0  0  0  0  0
  -19.1516  -28.8822   23.2892 C   0  0  0  0  0  0
  -18.9451  -30.1431   23.8900 C   0  0  0  0  0  0
  -17.6458  -30.6580   24.0554 C   0  0  0  0  0  0
  -25.9029  -34.9473   23.5122 C   0  0  0  0  0  0
  -16.5345  -29.9070   23.6339 C   0  0  0  0  0  0
  -16.7254  -28.6486   23.0358 C   0  0  0  0  0  0
  -26.4479  -31.6599   25.0710 C   0  0  0  0  0  0
  -25.3746  -31.3683   26.1463 C   0  0  0  0  0  0
  -27.0329  -30.3055   24.6060 C   0  0  0  0  0  0
  -27.6055  -32.4316   25.7484 C   0  0  0  0  0  0
  -27.5582  -37.1780   24.8456 C   0  0  0  0  0  0
  -21.4141  -29.3041   22.3753 N   0  0  0  0  0  0
  -26.4271  -37.3800   23.9438 N   0  0  0  0  0  0
  -24.6714  -31.0731   22.0990 N   0  0  0  0  0  0
  -23.4184  -28.8167   23.3033 O   0  0  0  0  0  0
  -28.3582  -26.6111   20.1111 O   0  0  0  0  0  0
  -26.5576  -34.8943   22.4669 O   0  0  0  0  0  0
  -23.5354  -32.1415   23.7454 O   0  0  0  0  0  0
  -29.9922  -19.2248   21.7500 C   0  0  0  0  0  0
  -29.8684  -18.6166   19.4156 C   0  0  0  0  0  0
  -30.1154  -17.8549   22.0952 C   0  0  0  0  0  0
  -29.9785  -17.2450   19.7612 C   0  0  0  0  0  0
  -29.8759  -19.6308   20.4025 C   0  0  0  0  0  0
  -30.1262  -16.8255   21.1119 C   0  0  0  0  0  0
  -30.4269  -15.0900   22.9117 C   0  0  0  0  0  0
  -27.5007  -21.0264   19.1872 C   0  0  0  0  0  0
  -29.8298  -21.1335   20.0163 C   0  0  0  0  0  0
  -29.0743  -24.2130   20.7198 C   0  0  0  0  0  0
  -28.4456  -23.2415   19.6775 C   0  0  0  0  0  0
  -28.2671  -25.5112   21.0438 C   0  0  0  0  0  0
  -30.2806  -15.4218   21.4851 N   0  0  0  0  0  0
  -28.4748  -21.7732   20.0242 N   0  3  1  0  0  0
  -31.4627  -12.4154   19.1310 H   0  0  0  0  0  0
  -30.3138  -11.3289   19.8486 H   0  0  0  0  0  0
  -29.7438  -11.7726   17.4448 H   0  0  0  0  0  0
  -29.6440  -13.4886   17.7626 H   0  0  0  0  0  0
  -27.8615  -11.2888   18.8666 H   0  0  0  0  0  0
  -27.3574  -12.5709   17.7971 H   0  0  0  0  0  0
  -27.6938  -14.2516   19.5374 H   0  0  0  0  0  0
  -28.6728  -12.0176   21.3806 H   0  0  0  0  0  0
  -28.4261  -13.6772   21.8338 H   0  0  0  0  0  0
  -25.2757   -9.5687   22.4763 H   0  0  0  0  0  0
  -23.9991   -7.4644   22.7489 H   0  0  0  0  0  0
  -21.0840   -8.8776   19.8948 H   0  0  0  0  0  0
  -22.3713  -10.9668   19.6152 H   0  0  0  0  0  0
  -21.2005   -7.6155   23.9717 H   0  0  0  0  0  0
  -21.1471   -6.0530   25.9071 H   0  0  0  0  0  0
  -22.0597   -2.7620   23.2843 H   0  0  0  0  0  0
  -22.4119  -11.9870   22.4739 H   0  0  0  0  0  0
  -21.1114  -13.1235   22.2585 H   0  0  0  0  0  0
  -24.6710  -15.8482   20.5325 H   0  0  0  0  0  0
  -26.2960  -15.6305   20.1225 H   0  0  0  0  0  0
  -26.7131  -32.5524   23.1142 H   0  0  0  0  0  0
  -25.0199  -33.9770   25.0553 H   0  0  0  0  0  0
  -22.6958  -31.3033   21.4049 H   0  0  0  0  0  0
  -23.3783  -35.9585   23.3252 H   0  0  0  0  0  0
  -24.3598  -36.8933   22.2056 H   0  0  0  0  0  0
  -23.7185  -37.6461   23.6664 H   0  0  0  0  0  0
  -26.0405  -31.5888   20.5886 H   0  0  0  0  0  0
  -26.8262  -30.8865   21.9760 H   0  0  0  0  0  0
  -28.1095  -29.0788   21.1718 H   0  0  0  0  0  0
  -26.0598  -25.9556   19.0237 H   0  0  0  0  0  0
  -23.9826  -27.2928   19.0280 H   0  0  0  0  0  0
  -23.7119  -30.5873   19.4016 H   0  0  0  0  0  0
  -22.7408  -29.2275   19.8760 H   0  0  0  0  0  0
  -25.1263  -36.1949   25.0830 H   0  0  0  0  0  0
  -20.9921  -28.3186   24.1444 H   0  0  0  0  0  0
  -20.5643  -26.2249   23.3578 H   0  0  0  0  0  0
  -21.6620  -26.7415   22.1191 H   0  0  0  0  0  0
  -19.6906  -25.6275   21.1217 H   0  0  0  0  0  0
  -19.6690  -27.3189   20.6740 H   0  0  0  0  0  0
  -17.4175  -26.6675   21.4000 H   0  0  0  0  0  0
  -18.0317  -26.0032   22.8978 H   0  0  0  0  0  0
  -19.7943  -30.7242   24.2260 H   0  0  0  0  0  0
  -17.5025  -31.6273   24.5133 H   0  0  0  0  0  0
  -15.5349  -30.2979   23.7677 H   0  0  0  0  0  0
  -15.8645  -28.0808   22.7081 H   0  0  0  0  0  0
  -24.5945  -30.6990   25.7807 H   0  0  0  0  0  0
  -24.8908  -32.2829   26.4911 H   0  0  0  0  0  0
  -25.8112  -30.8865   27.0224 H   0  0  0  0  0  0
  -26.2872  -29.6798   24.1138 H   0  0  0  0  0  0
  -27.4177  -29.7291   25.4485 H   0  0  0  0  0  0
  -27.8665  -30.4411   23.9163 H   0  0  0  0  0  0
  -27.2688  -33.3640   26.2032 H   0  0  0  0  0  0
  -28.3899  -32.6824   25.0329 H   0  0  0  0  0  0
  -28.0688  -31.8448   26.5430 H   0  0  0  0  0  0
  -28.2531  -38.0151   24.7617 H   0  0  0  0  0  0
  -28.1153  -36.2687   24.6133 H   0  0  0  0  0  0
  -27.2322  -37.1235   25.8862 H   0  0  0  0  0  0
  -20.9306  -29.8792   21.6998 H   0  0  0  0  0  0
  -26.0154  -38.2859   24.1528 H   0  0  0  0  0  0
  -30.0122  -19.9679   22.5356 H   0  0  0  0  0  0
  -29.7925  -18.8864   18.3713 H   0  0  0  0  0  0
  -30.2213  -17.6251   23.1455 H   0  0  0  0  0  0
  -29.9718  -16.5210   18.9585 H   0  0  0  0  0  0
  -31.3483  -15.5210   23.3071 H   0  0  0  0  0  0
  -30.4791  -14.0152   23.0988 H   0  0  0  0  0  0
  -29.5857  -15.4645   23.4949 H   0  0  0  0  0  0
  -27.3729  -19.9992   19.5282 H   0  0  0  0  0  0
  -27.8252  -21.0006   18.1459 H   0  0  0  0  0  0
  -26.5112  -21.4846   19.2159 H   0  0  0  0  0  0
  -30.2695  -21.2492   19.0242 H   0  0  0  0  0  0
  -30.4892  -21.6797   20.6925 H   0  0  0  0  0  0
  -30.0931  -24.4676   20.4262 H   0  0  0  0  0  0
  -29.1769  -23.6732   21.6622 H   0  0  0  0  0  0
  -28.9028  -23.4008   18.6999 H   0  0  0  0  0  0
  -27.4009  -23.5321   19.5568 H   0  0  0  0  0  0
  -28.6376  -25.8982   21.9942 H   0  0  0  0  0  0
  -27.2292  -25.2347   21.2448 H   0  0  0  0  0  0
  -28.1297  -21.6933   20.9684 H   0  0  0  0  0  0
  1 25  1  0  0  0
  1 30  2  0  0  0
  1 83  1  0  0  0
  2  3  1  0  0  0
  2 25  1  0  0  0
  2 85  1  0  0  0
  2 86  1  0  0  0
  3  4  1  0  0  0
  3 87  1  0  0  0
  3 88  1  0  0  0
  4  5  1  0  0  0
  4 89  1  0  0  0
  4 90  1  0  0  0
  5  6  1  0  0  0
  5 26  1  0  0  0
  5 91  1  0  0  0
  6 25  1  0  0  0
  6 92  1  0  0  0
  6 93  1  0  0  0
  7  8  2  0  0  0
  7 26  1  0  0  0
  7 29  1  0  0  0
  8  9  1  0  0  0
  8 22  1  0  0  0
  9 10  1  0  0  0
  9 27  2  0  0  0
 10 11  2  0  0  0
 10 15  1  0  0  0
 11 12  1  0  0  0
 11 94  1  0  0  0
 12 13  2  0  0  0
 12 95  1  0  0  0
 13 14  1  0  0  0
 13 31  1  0  0  0
 14 15  2  0  0  0
 14 96  1  0  0  0
 15 97  1  0  0  0
 16 17  2  0  0  0
 16 21  1  0  0  0
 16 31  1  0  0  0
 17 18  1  0  0  0
 17 98  1  0  0  0
 18 19  2  0  0  0
 18 99  1  0  0  0
 19 20  1  0  0  0
 19 24  1  0  0  0
 20 21  2  0  0  0
 20100  1  0  0  0
 21 23  1  0  0  0
 22 28  1  0  0  0
 22 32  2  0  0  0
 26 27  1  0  0  0
 28101  1  0  0  0
 28102  1  0  0  0
 29103  1  0  0  0
 29104  1  0  0  0
 33 34  1  0  0  0
 33 66  1  0  0  0
 33 70  2  0  0  0
 34 36  1  0  0  0
 34 59  1  0  0  0
 34105  1  0  0  0
 35 44  2  0  0  0
 35 45  1  0  0  0
 35 68  1  0  0  0
 36 56  1  0  0  0
 36106  1  0  0  0
 37 39  1  0  0  0
 37 47  1  0  0  0
 37 66  1  0  0  0
 37107  1  0  0  0
 38 43  2  0  0  0
 38 46  1  0  0  0
 38 47  1  0  0  0
 39 64  1  0  0  0
 39 67  2  0  0  0
 40 52  1  0  0  0
 40 53  2  0  0  0
 40 58  1  0  0  0
 41108  1  0  0  0
 41109  1  0  0  0
 41110  1  0  0  0
 41 48  1  0  0  0
 42 43  1  0  0  0
 42 66  1  0  0  0
 42111  1  0  0  0
 42112  1  0  0  0
 43 44  1  0  0  0
 44113  1  0  0  0
 45 46  2  0  0  0
 45114  1  0  0  0
 46115  1  0  0  0
 47116  1  0  0  0
 47117  1  0  0  0
 48 56  1  0  0  0
 48 65  1  0  0  0
 48118  1  0  0  0
 49 50  1  0  0  0
 49 53  1  0  0  0
 49 64  1  0  0  0
 49119  1  0  0  0
 50 51  1  0  0  0
 50120  1  0  0  0
 50121  1  0  0  0
 51 52  1  0  0  0
 51122  1  0  0  0
 51123  1  0  0  0
 52124  1  0  0  0
 52125  1  0  0  0
 53 54  1  0  0  0
 54 55  2  0  0  0
 54126  1  0  0  0
 55 57  1  0  0  0
 55127  1  0  0  0
 56 69  2  0  0  0
 57 58  2  0  0  0
 57128  1  0  0  0
 58129  1  0  0  0
 59 60  1  0  0  0
 59 61  1  0  0  0
 59 62  1  0  0  0
 60130  1  0  0  0
 60131  1  0  0  0
 60132  1  0  0  0
 61133  1  0  0  0
 61134  1  0  0  0
 61135  1  0  0  0
 62136  1  0  0  0
 62137  1  0  0  0
 62138  1  0  0  0
 63 65  1  0  0  0
 63139  1  0  0  0
 63140  1  0  0  0
 63141  1  0  0  0
 64142  1  0  0  0
 65143  1  0  0  0
 68 82  1  0  0  0
 71 73  2  0  0  0
 71 75  1  0  0  0
 71144  1  0  0  0
 72 74  1  0  0  0
 72 75  2  0  0  0
 72145  1  0  0  0
 73 76  1  0  0  0
 73146  1  0  0  0
 74 76  2  0  0  0
 74147  1  0  0  0
 75 79  1  0  0  0
 76 83  1  0  0  0
 77 83  1  0  0  0
 77148  1  0  0  0
 77149  1  0  0  0
 77150  1  0  0  0
 78151  1  0  0  0
 78152  1  0  0  0
 78153  1  0  0  0
 78 84  1  0  0  0
 79 84  1  0  0  0
 79154  1  0  0  0
 79155  1  0  0  0
 80 81  1  0  0  0
 80 82  1  0  0  0
 80156  1  0  0  0
 80157  1  0  0  0
 81 84  1  0  0  0
 81158  1  0  0  0
 81159  1  0  0  0
 82160  1  0  0  0
 82161  1  0  0  0
 84162  1  0  0  0
M  CHG  1  84   1
M  ISO  4   1 100  68 101  82 101  83 100
M  END
> <chiral flag>
0

> <version>
0

> <s_m_source_file>
/data/baiqing/PycharmProjects/Reinvent-master-3.2/result/LINK_invent/BTK/process_docking_weight1_custom_product_contain_oxygen_bond_distance_aromatic_linkinvent_7_9_3/rearranged_h_0018.sdf

> <i_m_source_file_index>
80

> <r_mmod_Potential_Energy-OPLS-2005>
15.3480434417725

> <r_mmod_Stretch_Energy-OPLS-2005>
52.8608551025391

> <r_mmod_Bend_Energy-OPLS-2005>
111.99144744873

> <r_mmod_Torsional_Energy-OPLS-2005>
302.245422363281

> <r_mmod_Improper_Torsional_Energy-OPLS-2005>
2.93491387367249

> <r_mmod_Van_der_Waal_Energy-OPLS-2005>
154.772994995117

> <r_mmod_Electrostatic_Energy-OPLS-2005>
-191.54020690918

> <r_mmod_Solvation_Energy-OPLS-2005>
-433.879608154297

> <b_mmod_Minimization_Converged-OPLS-2005>
0

> <r_mmod_RMS_Derivative-OPLS-2005>
1.88787949085236

$$$$
80
                    3D
 Structure written by MMmdl.
159167  0  0  1  0            999 V2000
  -30.5099  -14.9261   20.4280 C   0  0  0  0  0  0
  -30.4547  -12.5731   19.4869 C   0  0  0  0  0  0
  -29.5249  -12.5334   18.2499 C   0  0  0  0  0  0
  -28.0569  -12.3184   18.6681 C   0  0  0  0  0  0
  -27.6364  -13.2378   19.8440 C   0  0  2  0  0  0
  -28.6825  -13.2265   20.9801 C   0  0  0  0  0  0
  -25.2487  -13.8183   20.5696 C   0  0  0  0  0  0
  -24.1797  -13.0421   20.9227 C   0  0  0  0  0  0
  -24.6407  -11.6904   20.8758 C   0  0  0  0  0  0
  -23.9087  -10.4280   21.0411 C   0  0  0  0  0  0
  -24.3631   -9.4195   21.9189 C   0  0  0  0  0  0
  -23.6298   -8.2235   22.0764 C   0  0  0  0  0  0
  -22.4283   -8.0278   21.3547 C   0  0  0  0  0  0
  -21.9926   -9.0254   20.4646 C   0  0  0  0  0  0
  -22.7264  -10.2127   20.3056 C   0  0  0  0  0  0
  -21.6852   -6.0737   22.5285 C   0  0  0  0  0  0
  -21.4012   -6.5640   23.8215 C   0  0  0  0  0  0
  -21.3660   -5.6797   24.9180 C   0  0  0  0  0  0
  -21.6044   -4.3058   24.7229 C   0  0  0  0  0  0
  -21.8819   -3.8149   23.4351 C   0  0  0  0  0  0
  -21.9191   -4.6965   22.3407 C   0  0  0  0  0  0
  -22.7814  -13.5198   21.1872 C   0  0  0  0  0  0
  -22.1661   -4.2150   21.0983 F   0  0  0  0  0  0
  -21.5628   -3.4542   25.7741 F   0  0  0  0  0  0
  -29.9626  -13.6469   20.3911 N   0  0  0  0  0  0
  -26.2916  -12.9399   20.3252 N   0  0  0  0  0  0
  -25.9337  -11.6538   20.5739 N   0  0  0  0  0  0
  -22.0462  -12.8184   22.0423 N   0  0  0  0  0  0
  -25.4127  -15.1913   20.4100 N   0  0  0  0  0  0
  -31.7095  -15.0542   20.1575 O   0  0  0  0  0  0
  -21.6638   -6.8884   21.4249 O   0  0  0  0  0  0
  -22.3501  -14.5503   20.6717 O   0  0  0  0  0  0
  -24.6432  -31.8451   23.1897 C   0  0  0  0  0  0
  -25.9211  -32.4701   23.8280 C   0  0  1  0  0  0
  -27.2174  -27.1457   20.1557 C   0  0  0  0  0  0
  -25.5963  -33.8504   24.2198 N   0  0  0  0  0  0
  -23.4462  -30.4647   21.5356 C   0  0  2  0  0  0
  -24.8960  -28.8918   20.1140 C   0  0  0  0  0  0
  -22.7563  -29.4556   22.4872 C   0  0  0  0  0  0
  -18.0298  -28.1398   22.8480 C   0  0  0  0  0  0
  -24.1489  -36.7252   23.2643 C   0  0  0  0  0  0
  -26.0018  -30.7213   21.3878 C   0  0  0  0  0  0
  -26.0739  -29.3325   20.7322 C   0  0  0  0  0  0
  -27.2384  -28.4766   20.7345 C   0  0  0  0  0  0
  -26.0181  -26.8082   19.4925 C   0  0  0  0  0  0
  -24.8802  -27.6418   19.4781 C   0  0  0  0  0  0
  -23.6725  -29.7937   20.1556 C   0  0  0  0  0  0
  -25.4123  -36.3034   24.0315 C   0  0  1  0  0  0
  -20.5913  -28.3726   23.1239 C   0  0  2  0  0  0
  -20.6789  -26.9430   22.5405 C   0  0  0  0  0  0
  -19.5759  -26.6386   21.5216 C   0  0  0  0  0  0
  -18.1938  -26.7938   22.1623 C   0  0  0  0  0  0
  -19.1556  -28.8879   23.2849 C   0  0  0  0  0  0
  -18.9473  -30.1477   23.8870 C   0  0  0  0  0  0
  -17.6472  -30.6598   24.0562 C   0  0  0  0  0  0
  -25.9073  -34.9409   23.5060 C   0  0  0  0  0  0
  -16.5360  -29.9089   23.6347 C   0  0  0  0  0  0
  -16.7284  -28.6508   23.0365 C   0  0  0  0  0  0
  -26.4538  -31.6565   25.0717 C   0  0  0  0  0  0
  -25.3724  -31.3741   26.1409 C   0  0  0  0  0  0
  -27.0422  -30.2969   24.6294 C   0  0  0  0  0  0
  -27.6055  -32.4341   25.7511 C   0  0  0  0  0  0
  -27.5574  -37.1784   24.8467 C   0  0  0  0  0  0
  -21.4255  -29.3054   22.3613 N   0  0  0  0  0  0
  -26.4286  -37.3749   23.9408 N   0  0  0  0  0  0
  -24.7169  -31.0314   22.0928 N   0  0  0  0  0  0
  -23.4205  -28.8100   23.3022 O   0  0  0  0  0  0
  -28.2634  -26.1557   20.1843 O   0  0  0  0  0  0
  -26.5658  -34.8905   22.4638 O   0  0  0  0  0  0
  -23.5552  -32.1321   23.7125 O   0  0  0  0  0  0
  -28.4314  -18.2056   19.9060 C   0  0  0  0  0  0
  -28.1938  -19.6341   19.9129 C   0  0  0  0  0  0
  -30.5056  -18.5312   20.9628 C   0  0  0  0  0  0
  -29.5888  -17.5511   20.4417 C   0  0  0  0  0  0
  -29.0754  -20.6208   20.4673 C   0  0  0  0  0  0
  -30.2700  -19.9810   20.9939 C   0  0  0  0  0  0
  -28.7815  -23.3371   20.1778 C   0  0  0  0  0  0
  -27.5318  -22.0338   21.8042 C   0  0  0  0  0  0
  -31.1708  -20.6788   23.1350 C   0  0  0  0  0  0
  -31.8153  -21.9031   21.0275 C   0  0  0  0  0  0
  -27.9331  -24.6998   20.6238 C   0  0  0  0  0  0
  -29.6191  -16.0204   20.5581 N   0  0  0  0  0  0
  -28.5602  -22.0456   20.7589 N   0  0  0  0  0  0
  -31.2370  -20.7357   21.6793 N   0  0  0  0  0  0
  -29.6219  -23.4740   19.2839 O   0  0  0  0  0  0
  -31.4841  -12.7523   19.1720 H   0  0  0  0  0  0
  -30.4617  -11.6107   20.0008 H   0  0  0  0  0  0
  -29.8386  -11.7457   17.5645 H   0  0  0  0  0  0
  -29.6122  -13.4716   17.6986 H   0  0  0  0  0  0
  -27.9492  -11.2737   18.9630 H   0  0  0  0  0  0
  -27.3937  -12.4638   17.8141 H   0  0  0  0  0  0
  -27.6085  -14.2467   19.4314 H   0  0  0  0  0  0
  -28.7642  -12.2342   21.4275 H   0  0  0  0  0  0
  -28.3865  -13.8995   21.7862 H   0  0  0  0  0  0
  -25.2781   -9.5664   22.4763 H   0  0  0  0  0  0
  -24.0005   -7.4628   22.7487 H   0  0  0  0  0  0
  -21.0861   -8.8774   19.8944 H   0  0  0  0  0  0
  -22.3734  -10.9665   19.6159 H   0  0  0  0  0  0
  -21.2010   -7.6152   23.9717 H   0  0  0  0  0  0
  -21.1479   -6.0529   25.9081 H   0  0  0  0  0  0
  -22.0601   -2.7611   23.2851 H   0  0  0  0  0  0
  -22.4088  -11.9848   22.4804 H   0  0  0  0  0  0
  -21.1070  -13.1188   22.2610 H   0  0  0  0  0  0
  -24.6344  -15.8331   20.5175 H   0  0  0  0  0  0
  -26.2379  -15.6340   20.0312 H   0  0  0  0  0  0
  -26.7275  -32.5318   23.1008 H   0  0  0  0  0  0
  -25.0110  -33.9622   25.0345 H   0  0  0  0  0  0
  -22.7484  -31.2904   21.3819 H   0  0  0  0  0  0
  -23.3761  -35.9574   23.3294 H   0  0  0  0  0  0
  -24.3572  -36.8901   22.2062 H   0  0  0  0  0  0
  -23.7237  -37.6436   23.6693 H   0  0  0  0  0  0
  -26.1562  -31.4752   20.6144 H   0  0  0  0  0  0
  -26.8729  -30.7724   22.0295 H   0  0  0  0  0  0
  -28.1370  -28.8103   21.2345 H   0  0  0  0  0  0
  -25.9402  -25.8583   18.9846 H   0  0  0  0  0  0
  -23.9843  -27.3020   18.9763 H   0  0  0  0  0  0
  -23.8069  -30.5677   19.3991 H   0  0  0  0  0  0
  -22.7874  -29.2348   19.8471 H   0  0  0  0  0  0
  -25.1311  -36.1859   25.0807 H   0  0  0  0  0  0
  -21.0000  -28.3319   24.1363 H   0  0  0  0  0  0
  -20.5699  -26.2335   23.3620 H   0  0  0  0  0  0
  -21.6652  -26.7448   22.1193 H   0  0  0  0  0  0
  -19.6921  -25.6293   21.1256 H   0  0  0  0  0  0
  -19.6694  -27.3187   20.6738 H   0  0  0  0  0  0
  -17.4211  -26.6693   21.4022 H   0  0  0  0  0  0
  -18.0323  -26.0081   22.9017 H   0  0  0  0  0  0
  -19.7949  -30.7303   24.2222 H   0  0  0  0  0  0
  -17.5026  -31.6276   24.5168 H   0  0  0  0  0  0
  -15.5360  -30.2985   23.7686 H   0  0  0  0  0  0
  -15.8683  -28.0822   22.7095 H   0  0  0  0  0  0
  -24.5919  -30.7072   25.7729 H   0  0  0  0  0  0
  -24.8894  -32.2917   26.4776 H   0  0  0  0  0  0
  -25.8014  -30.8957   27.0223 H   0  0  0  0  0  0
  -26.3051  -29.6673   24.1298 H   0  0  0  0  0  0
  -27.4048  -29.7281   25.4866 H   0  0  0  0  0  0
  -27.8946  -30.4218   23.9613 H   0  0  0  0  0  0
  -27.2640  -33.3671   26.2006 H   0  0  0  0  0  0
  -28.3913  -32.6855   25.0376 H   0  0  0  0  0  0
  -28.0668  -31.8521   26.5499 H   0  0  0  0  0  0
  -28.2577  -38.0094   24.7528 H   0  0  0  0  0  0
  -28.1084  -36.2623   24.6283 H   0  0  0  0  0  0
  -27.2287  -37.1419   25.8868 H   0  0  0  0  0  0
  -20.9461  -29.8763   21.6789 H   0  0  0  0  0  0
  -26.0148  -38.2811   24.1424 H   0  0  0  0  0  0
  -27.6443  -17.5854   19.5007 H   0  0  0  0  0  0
  -27.2397  -19.9740   19.5363 H   0  0  0  0  0  0
  -31.4065  -18.1590   21.4296 H   0  0  0  0  0  0
  -27.3959  -21.0380   22.2288 H   0  0  0  0  0  0
  -26.5618  -22.3448   21.4142 H   0  0  0  0  0  0
  -27.8043  -22.6828   22.6367 H   0  0  0  0  0  0
  -30.5571  -19.8467   23.4853 H   0  0  0  0  0  0
  -30.7459  -21.5982   23.5406 H   0  0  0  0  0  0
  -32.1697  -20.5532   23.5550 H   0  0  0  0  0  0
  -31.6819  -21.8685   19.9452 H   0  0  0  0  0  0
  -32.8868  -21.9517   21.2251 H   0  0  0  0  0  0
  -31.3687  -22.8246   21.4017 H   0  0  0  0  0  0
  -27.9626  -24.7398   21.7117 H   0  0  0  0  0  0
  -26.8943  -24.4812   20.3832 H   0  0  0  0  0  0
  -28.6896  -15.6452   20.6655 H   0  0  0  0  0  0
  1 25  1  0  0  0
  1 30  2  0  0  0
  1 82  1  0  0  0
  2  3  1  0  0  0
  2 25  1  0  0  0
  2 86  1  0  0  0
  2 87  1  0  0  0
  3  4  1  0  0  0
  3 88  1  0  0  0
  3 89  1  0  0  0
  4  5  1  0  0  0
  4 90  1  0  0  0
  4 91  1  0  0  0
  5  6  1  0  0  0
  5 26  1  0  0  0
  5 92  1  0  0  0
  6 25  1  0  0  0
  6 93  1  0  0  0
  6 94  1  0  0  0
  7  8  2  0  0  0
  7 26  1  0  0  0
  7 29  1  0  0  0
  8  9  1  0  0  0
  8 22  1  0  0  0
  9 10  1  0  0  0
  9 27  2  0  0  0
 10 11  2  0  0  0
 10 15  1  0  0  0
 11 12  1  0  0  0
 11 95  1  0  0  0
 12 13  2  0  0  0
 12 96  1  0  0  0
 13 14  1  0  0  0
 13 31  1  0  0  0
 14 15  2  0  0  0
 14 97  1  0  0  0
 15 98  1  0  0  0
 16 17  2  0  0  0
 16 21  1  0  0  0
 16 31  1  0  0  0
 17 18  1  0  0  0
 17 99  1  0  0  0
 18 19  2  0  0  0
 18100  1  0  0  0
 19 20  1  0  0  0
 19 24  1  0  0  0
 20 21  2  0  0  0
 20101  1  0  0  0
 21 23  1  0  0  0
 22 28  1  0  0  0
 22 32  2  0  0  0
 26 27  1  0  0  0
 28102  1  0  0  0
 28103  1  0  0  0
 29104  1  0  0  0
 29105  1  0  0  0
 33 34  1  0  0  0
 33 66  1  0  0  0
 33 70  2  0  0  0
 34 36  1  0  0  0
 34 59  1  0  0  0
 34106  1  0  0  0
 35 44  2  0  0  0
 35 45  1  0  0  0
 35 68  1  0  0  0
 36 56  1  0  0  0
 36107  1  0  0  0
 37 39  1  0  0  0
 37 47  1  0  0  0
 37 66  1  0  0  0
 37108  1  0  0  0
 38 43  2  0  0  0
 38 46  1  0  0  0
 38 47  1  0  0  0
 39 64  1  0  0  0
 39 67  2  0  0  0
 40 52  1  0  0  0
 40 53  2  0  0  0
 40 58  1  0  0  0
 41109  1  0  0  0
 41110  1  0  0  0
 41111  1  0  0  0
 41 48  1  0  0  0
 42 43  1  0  0  0
 42 66  1  0  0  0
 42112  1  0  0  0
 42113  1  0  0  0
 43 44  1  0  0  0
 44114  1  0  0  0
 45 46  2  0  0  0
 45115  1  0  0  0
 46116  1  0  0  0
 47117  1  0  0  0
 47118  1  0  0  0
 48 56  1  0  0  0
 48 65  1  0  0  0
 48119  1  0  0  0
 49 50  1  0  0  0
 49 53  1  0  0  0
 49 64  1  0  0  0
 49120  1  0  0  0
 50 51  1  0  0  0
 50121  1  0  0  0
 50122  1  0  0  0
 51 52  1  0  0  0
 51123  1  0  0  0
 51124  1  0  0  0
 52125  1  0  0  0
 52126  1  0  0  0
 53 54  1  0  0  0
 54 55  2  0  0  0
 54127  1  0  0  0
 55 57  1  0  0  0
 55128  1  0  0  0
 56 69  2  0  0  0
 57 58  2  0  0  0
 57129  1  0  0  0
 58130  1  0  0  0
 59 60  1  0  0  0
 59 61  1  0  0  0
 59 62  1  0  0  0
 60131  1  0  0  0
 60132  1  0  0  0
 60133  1  0  0  0
 61134  1  0  0  0
 61135  1  0  0  0
 61136  1  0  0  0
 62137  1  0  0  0
 62138  1  0  0  0
 62139  1  0  0  0
 63 65  1  0  0  0
 63140  1  0  0  0
 63141  1  0  0  0
 63142  1  0  0  0
 64143  1  0  0  0
 65144  1  0  0  0
 68 81  1  0  0  0
 71 72  2  0  0  0
 71 74  1  0  0  0
 71145  1  0  0  0
 72 75  1  0  0  0
 72146  1  0  0  0
 73 74  2  0  0  0
 73 76  1  0  0  0
 73147  1  0  0  0
 74 82  1  0  0  0
 75 76  2  0  0  0
 75 83  1  0  0  0
 76 84  1  0  0  0
 77 81  1  0  0  0
 77 83  1  0  0  0
 77 85  2  0  0  0
 78 83  1  0  0  0
 78148  1  0  0  0
 78149  1  0  0  0
 78150  1  0  0  0
 79 84  1  0  0  0
 79151  1  0  0  0
 79152  1  0  0  0
 79153  1  0  0  0
 80 84  1  0  0  0
 80154  1  0  0  0
 80155  1  0  0  0
 80156  1  0  0  0
 81157  1  0  0  0
 81158  1  0  0  0
 82159  1  0  0  0
M  ISO  4   1 100  68 101  81 101  82 100
M  END
> <chiral flag>
0

> <version>
0

> <s_m_source_file>
/data/baiqing/PycharmProjects/Reinvent-master-3.2/result/LINK_invent/BTK/process_docking_weight1_custom_product_contain_oxygen_bond_distance_aromatic_linkinvent_7_9_3/rearranged_h_0018.sdf

> <i_m_source_file_index>
81

> <r_mmod_Potential_Energy-OPLS-2005>
588.335754394531

> <r_mmod_Stretch_Energy-OPLS-2005>
232.518630981445

> <r_mmod_Bend_Energy-OPLS-2005>
266.171295166016

> <r_mmod_Torsional_Energy-OPLS-2005>
326.671478271484

> <r_mmod_Improper_Torsional_Energy-OPLS-2005>
11.3283004760742

> <r_mmod_Van_der_Waal_Energy-OPLS-2005>
131.179718017578

> <r_mmod_Electrostatic_Energy-OPLS-2005>
-305.285400390625

> <r_mmod_Solvation_Energy-OPLS-2005>
-256.418823242188

> <b_mmod_Minimization_Converged-OPLS-2005>
0

> <r_mmod_RMS_Derivative-OPLS-2005>
0.824658513069153

$$$$
81
                    3D
 Structure written by MMmdl.
174183  0  0  1  0            999 V2000
  -29.2591  -12.9508   21.6345 C   0  0  0  0  0  0
  -30.0394  -13.6297   19.1316 C   0  0  0  0  0  0
  -29.2620  -14.2935   17.5406 C   0  0  0  0  0  0
  -27.3193  -14.8884   17.5623 C   0  0  0  0  0  0
  -26.6228  -15.0515   19.5124 C   0  0  2  0  0  0
  -27.8436  -14.5085   20.9099 C   0  0  0  0  0  0
  -25.0551  -14.9564   21.1495 C   0  0  0  0  0  0
  -24.5594  -13.7811   21.4857 C   0  0  0  0  0  0
  -25.7417  -12.8943   20.9518 C   0  0  0  0  0  0
  -25.4146   -9.7738   20.6450 C   0  0  0  0  0  0
  -25.1573   -8.8665   21.8121 C   0  0  0  0  0  0
  -23.9797   -8.0842   22.1893 C   0  0  0  0  0  0
  -22.7887   -7.9930   21.4156 C   0  0  0  0  0  0
  -22.8434   -8.7641   20.2694 C   0  0  0  0  0  0
  -24.1633   -9.2056   19.8729 C   0  0  0  0  0  0
  -21.7229   -6.1506   22.5760 C   0  0  0  0  0  0
  -21.4296   -6.5905   23.8826 C   0  0  0  0  0  0
  -21.3686   -5.6755   24.9522 C   0  0  0  0  0  0
  -21.6011   -4.3071   24.7231 C   0  0  0  0  0  0
  -21.8757   -3.8507   23.4211 C   0  0  0  0  0  0
  -21.9285   -4.7652   22.3473 C   0  0  0  0  0  0
  -22.9799  -13.7018   21.3518 C   0  0  0  0  0  0
  -22.1668   -4.2968   21.1001 F   0  0  0  0  0  0
  -21.5512   -3.4344   25.7609 F   0  0  0  0  0  0
  -29.1912  -13.7491   20.5914 N   0  0  0  0  0  0
  -25.5603  -14.7121   20.0253 N   0  0  0  0  0  0
  -25.4250  -13.6678   19.9450 N   0  0  0  0  0  0
  -22.2108  -12.9169   22.1193 N   0  0  0  0  0  0
  -24.9120  -16.2612   21.3790 N   0  0  0  0  0  0
  -30.5350  -13.0663   21.7243 O   0  0  0  0  0  0
  -21.7475   -7.0743   21.5549 O   0  0  0  0  0  0
  -22.3800  -14.4692   20.5957 O   0  0  0  0  0  0
  -24.7911  -31.6576   23.0562 C   0  0  0  0  0  0
  -25.9929  -32.3787   23.7541 C   0  0  1  0  0  0
  -27.0738  -25.5819   20.0797 C   0  0  0  0  0  0
  -25.6007  -33.7672   24.1267 N   0  0  0  0  0  0
  -23.6408  -30.2271   21.4466 C   0  0  2  0  0  0
  -25.0444  -28.3376   20.0964 C   0  0  0  0  0  0
  -22.8155  -29.3584   22.4422 C   0  0  0  0  0  0
  -18.0416  -28.1485   22.8427 C   0  0  0  0  0  0
  -24.1493  -36.6854   23.2689 C   0  0  0  0  0  0
  -26.2448  -29.9932   21.4703 C   0  0  0  0  0  0
  -26.2548  -28.4477   20.7830 C   0  0  0  0  0  0
  -27.2109  -27.1366   20.7225 C   0  0  0  0  0  0
  -25.8584  -25.9709   19.3657 C   0  0  0  0  0  0
  -24.9471  -27.1303   19.3671 C   0  0  0  0  0  0
  -23.9198  -29.4418   20.1149 C   0  0  0  0  0  0
  -25.4175  -36.2480   24.0211 C   0  0  1  0  0  0
  -20.6084  -28.3835   23.0981 C   0  0  2  0  0  0
  -20.6793  -26.9399   22.5446 C   0  0  0  0  0  0
  -19.5787  -26.6324   21.5240 C   0  0  0  0  0  0
  -18.1972  -26.7993   22.1616 C   0  0  0  0  0  0
  -19.1712  -28.9015   23.2655 C   0  0  0  0  0  0
  -18.9585  -30.1575   23.8731 C   0  0  0  0  0  0
  -17.6555  -30.6624   24.0530 C   0  0  0  0  0  0
  -25.9228  -34.8913   23.4665 C   0  0  0  0  0  0
  -16.5438  -29.9085   23.6384 C   0  0  0  0  0  0
  -16.7384  -28.6532   23.0373 C   0  0  0  0  0  0
  -26.4785  -31.6356   25.0619 C   0  0  0  0  0  0
  -25.3576  -31.3954   26.1023 C   0  0  0  0  0  0
  -27.0897  -30.2631   24.7239 C   0  0  0  0  0  0
  -27.6008  -32.4511   25.7479 C   0  0  0  0  0  0
  -27.5519  -37.1559   24.8454 C   0  0  0  0  0  0
  -21.4727  -29.2851   22.3170 N   0  0  0  0  0  0
  -26.4188  -37.3369   23.9432 N   0  0  0  0  0  0
  -24.9376  -30.6898   22.0414 N   0  0  0  0  0  0
  -23.4155  -28.7356   23.3196 O   0  0  0  0  0  0
  -27.8028  -23.8544   19.9746 O   0  0  0  0  0  0
  -26.6044  -34.8720   22.4407 O   0  0  0  0  0  0
  -23.6733  -32.0149   23.4892 O   0  0  0  0  0  0
  -24.5299  -11.3437   21.8483 C   0  0  0  0  0  0
  -24.5438  -11.5612   19.7044 C   0  0  0  0  0  0
  -27.4639  -10.8567   21.4221 C   0  0  0  0  0  0
  -27.4438  -10.9490   19.9419 C   0  0  0  0  0  0
  -26.4242  -11.2751   22.4118 C   0  0  0  0  0  0
  -26.4397  -11.7227   19.0757 C   0  0  0  0  0  0
  -28.2161  -17.6221   20.2490 C   0  0  0  0  0  0
  -28.0907  -17.7708   18.4570 C   0  0  0  0  0  0
  -28.2949  -19.7096   20.4259 C   0  0  0  0  0  0
  -28.1745  -19.8682   18.6076 C   0  0  0  0  0  0
  -28.6344  -15.8999   19.1693 C   0  0  2  0  0  0
  -27.7398  -21.5279   19.7066 C   0  0  2  0  0  0
  -28.0329   -9.6079   19.4212 C   0  0  0  0  0  0
  -27.8138  -10.9239   15.4340 C   0  0  0  0  0  0
  -28.3314  -12.3899   23.8774 C   0  0  0  0  0  0
  -27.2118  -12.0124   16.3448 C   0  0  0  0  0  0
  -28.0400  -12.1158   17.6743 C   0  0  0  0  0  0
  -27.9532  -12.3049   22.4619 N   0  0  0  0  0  0
  -27.6641  -13.1073   18.8774 N   0  0  0  0  0  0
  -30.9852  -14.1556   19.2840 H   0  0  0  0  0  0
  -30.3575  -12.5922   18.9960 H   0  0  0  0  0  0
  -29.5536  -13.8018   16.6094 H   0  0  0  0  0  0
  -29.8612  -15.1712   17.2800 H   0  0  0  0  0  0
  -26.5850  -14.3010   17.0260 H   0  0  0  0  0  0
  -27.2270  -15.8156   17.0000 H   0  0  0  0  0  0
  -26.3754  -16.1070   19.4888 H   0  0  0  0  0  0
  -27.3650  -14.4282   21.8846 H   0  0  0  0  0  0
  -28.2749  -15.3910   21.3763 H   0  0  0  0  0  0
  -25.8954   -8.8726   22.6043 H   0  0  0  0  0  0
  -24.0526   -7.5106   23.1013 H   0  0  0  0  0  0
  -22.0540   -8.6693   19.5311 H   0  0  0  0  0  0
  -24.1645   -9.4390   18.8149 H   0  0  0  0  0  0
  -21.2494   -7.6382   24.0738 H   0  0  0  0  0  0
  -21.1375   -6.0196   25.9517 H   0  0  0  0  0  0
  -22.0340   -2.7976   23.2489 H   0  0  0  0  0  0
  -22.6272  -12.3257   22.8211 H   0  0  0  0  0  0
  -21.2065  -12.9244   22.0289 H   0  0  0  0  0  0
  -24.3587  -16.5995   22.1559 H   0  0  0  0  0  0
  -25.2945  -16.9998   20.8009 H   0  0  0  0  0  0
  -26.8166  -32.4102   23.0400 H   0  0  0  0  0  0
  -24.9853  -33.8496   24.9218 H   0  0  0  0  0  0
  -23.0339  -31.0967   21.1858 H   0  0  0  0  0  0
  -23.3793  -35.9127   23.3149 H   0  0  0  0  0  0
  -24.3532  -36.8790   22.2141 H   0  0  0  0  0  0
  -23.7213  -37.5915   23.6996 H   0  0  0  0  0  0
  -26.6015  -30.6671   20.6892 H   0  0  0  0  0  0
  -27.0445  -30.0121   22.1963 H   0  0  0  0  0  0
  -28.1152  -27.2733   21.2959 H   0  0  0  0  0  0
  -25.4926  -25.1720   18.7372 H   0  0  0  0  0  0
  -24.0574  -27.0169   18.7617 H   0  0  0  0  0  0
  -24.1866  -30.1623   19.3436 H   0  0  0  0  0  0
  -22.9907  -28.9892   19.7647 H   0  0  0  0  0  0
  -25.1432  -36.1051   25.0687 H   0  0  0  0  0  0
  -21.0157  -28.3536   24.1109 H   0  0  0  0  0  0
  -20.5544  -26.2471   23.3797 H   0  0  0  0  0  0
  -21.6635  -26.7142   22.1318 H   0  0  0  0  0  0
  -19.6873  -25.6183   21.1376 H   0  0  0  0  0  0
  -19.6774  -27.3053   20.6712 H   0  0  0  0  0  0
  -17.4244  -26.6794   21.4002 H   0  0  0  0  0  0
  -18.0277  -26.0184   22.9053 H   0  0  0  0  0  0
  -19.8044  -30.7452   24.2018 H   0  0  0  0  0  0
  -17.5084  -31.6288   24.5166 H   0  0  0  0  0  0
  -15.5428  -30.2917   23.7788 H   0  0  0  0  0  0
  -15.8797  -28.0781   22.7147 H   0  0  0  0  0  0
  -24.5833  -30.7260   25.7257 H   0  0  0  0  0  0
  -24.8717  -32.3271   26.3924 H   0  0  0  0  0  0
  -25.7493  -30.9426   27.0137 H   0  0  0  0  0  0
  -26.3682  -29.5822   24.2721 H   0  0  0  0  0  0
  -27.4421  -29.7618   25.6268 H   0  0  0  0  0  0
  -27.9621  -30.3577   24.0773 H   0  0  0  0  0  0
  -27.2384  -33.3993   26.1448 H   0  0  0  0  0  0
  -28.4100  -32.6797   25.0535 H   0  0  0  0  0  0
  -28.0375  -31.9106   26.5880 H   0  0  0  0  0  0
  -28.2386  -37.9988   24.7548 H   0  0  0  0  0  0
  -28.1167  -36.2499   24.6206 H   0  0  0  0  0  0
  -27.2265  -37.1062   25.8860 H   0  0  0  0  0  0
  -21.0258  -29.8374   21.5985 H   0  0  0  0  0  0
  -25.9911  -38.2349   24.1496 H   0  0  0  0  0  0
  -23.7033  -11.1405   22.5065 H   0  0  0  0  0  0
  -23.6695  -11.7554   19.1064 H   0  0  0  0  0  0
  -28.1967  -10.1674   21.8277 H   0  0  0  0  0  0
  -27.2544  -17.4446   20.7316 H   0  0  0  0  0  0
  -28.8694  -17.4129   21.0973 H   0  0  0  0  0  0
  -28.5470  -17.6880   17.4732 H   0  0  0  0  0  0
  -27.0340  -17.6568   18.1965 H   0  0  0  0  0  0
  -29.3612  -19.8549   20.6219 H   0  0  0  0  0  0
  -27.8994  -19.8066   21.4357 H   0  0  0  0  0  0
  -27.6457  -20.1383   17.6896 H   0  0  0  0  0  0
  -29.2087  -20.0699   18.3043 H   0  0  0  0  0  0
  -29.7185  -15.9337   19.2376 H   0  0  0  0  0  0
  -26.6498  -21.4901   19.7395 H   0  0  0  0  0  0
  -27.8338   -8.7738   20.1013 H   0  0  0  0  0  0
  -29.1136   -9.6663   19.2906 H   0  0  0  0  0  0
  -27.5672   -9.3114   18.4779 H   0  0  0  0  0  0
  -27.2099  -10.7874   14.5360 H   0  0  0  0  0  0
  -27.8955   -9.9575   15.9409 H   0  0  0  0  0  0
  -28.8181  -11.2047   15.1143 H   0  0  0  0  0  0
  -27.9212  -13.3046   24.3088 H   0  0  0  0  0  0
  -29.4078  -12.3416   24.0596 H   0  0  0  0  0  0
  -27.9192  -11.5425   24.4207 H   0  0  0  0  0  0
  -26.1588  -11.7843   16.5161 H   0  0  0  0  0  0
  -27.2339  -12.9136   15.7350 H   0  0  0  0  0  0
  -29.0855  -12.1046   17.4031 H   0  0  0  0  0  0
  -28.2811  -11.0988   17.8472 H   0  0  0  0  0  0
  1 25  1  0  0  0
  1 30  2  0  0  0
  1 88  1  0  0  0
  2  3  1  0  0  0
  2 25  1  0  0  0
  2 90  1  0  0  0
  2 91  1  0  0  0
  3  4  1  0  0  0
  3 92  1  0  0  0
  3 93  1  0  0  0
  4  5  1  0  0  0
  4 94  1  0  0  0
  4 95  1  0  0  0
  5  6  1  0  0  0
  5 26  1  0  0  0
  5 96  1  0  0  0
  6 25  1  0  0  0
  6 97  1  0  0  0
  6 98  1  0  0  0
  7  8  2  0  0  0
  7 26  1  0  0  0
  7 29  1  0  0  0
  8  9  1  0  0  0
  8 22  1  0  0  0
  9 10  1  0  0  0
  9 27  2  0  0  0
 10 11  2  0  0  0
 10 15  1  0  0  0
 11 12  1  0  0  0
 11 99  1  0  0  0
 12 13  2  0  0  0
 12100  1  0  0  0
 13 14  1  0  0  0
 13 31  1  0  0  0
 14 15  2  0  0  0
 14101  1  0  0  0
 15102  1  0  0  0
 16 17  2  0  0  0
 16 21  1  0  0  0
 16 31  1  0  0  0
 17 18  1  0  0  0
 17103  1  0  0  0
 18 19  2  0  0  0
 18104  1  0  0  0
 19 20  1  0  0  0
 19 24  1  0  0  0
 20 21  2  0  0  0
 20105  1  0  0  0
 21 23  1  0  0  0
 22 28  1  0  0  0
 22 32  2  0  0  0
 26 27  1  0  0  0
 28106  1  0  0  0
 28107  1  0  0  0
 29108  1  0  0  0
 29109  1  0  0  0
 33 34  1  0  0  0
 33 66  1  0  0  0
 33 70  2  0  0  0
 34 36  1  0  0  0
 34 59  1  0  0  0
 34110  1  0  0  0
 35 44  2  0  0  0
 35 45  1  0  0  0
 35 68  1  0  0  0
 36 56  1  0  0  0
 36111  1  0  0  0
 37 39  1  0  0  0
 37 47  1  0  0  0
 37 66  1  0  0  0
 37112  1  0  0  0
 38 43  2  0  0  0
 38 46  1  0  0  0
 38 47  1  0  0  0
 39 64  1  0  0  0
 39 67  2  0  0  0
 40 52  1  0  0  0
 40 53  2  0  0  0
 40 58  1  0  0  0
 41113  1  0  0  0
 41114  1  0  0  0
 41115  1  0  0  0
 41 48  1  0  0  0
 42 43  1  0  0  0
 42 66  1  0  0  0
 42116  1  0  0  0
 42117  1  0  0  0
 43 44  1  0  0  0
 44118  1  0  0  0
 45 46  2  0  0  0
 45119  1  0  0  0
 46120  1  0  0  0
 47121  1  0  0  0
 47122  1  0  0  0
 48 56  1  0  0  0
 48 65  1  0  0  0
 48123  1  0  0  0
 49 50  1  0  0  0
 49 53  1  0  0  0
 49 64  1  0  0  0
 49124  1  0  0  0
 50 51  1  0  0  0
 50125  1  0  0  0
 50126  1  0  0  0
 51 52  1  0  0  0
 51127  1  0  0  0
 51128  1  0  0  0
 52129  1  0  0  0
 52130  1  0  0  0
 53 54  1  0  0  0
 54 55  2  0  0  0
 54131  1  0  0  0
 55 57  1  0  0  0
 55132  1  0  0  0
 56 69  2  0  0  0
 57 58  2  0  0  0
 57133  1  0  0  0
 58134  1  0  0  0
 59 60  1  0  0  0
 59 61  1  0  0  0
 59 62  1  0  0  0
 60135  1  0  0  0
 60136  1  0  0  0
 60137  1  0  0  0
 61138  1  0  0  0
 61139  1  0  0  0
 61140  1  0  0  0
 62141  1  0  0  0
 62142  1  0  0  0
 62143  1  0  0  0
 63 65  1  0  0  0
 63144  1  0  0  0
 63145  1  0  0  0
 63146  1  0  0  0
 64147  1  0  0  0
 65148  1  0  0  0
 68 82  1  0  0  0
 71 72  2  0  0  0
 71 75  1  0  0  0
 71149  1  0  0  0
 72 76  1  0  0  0
 72150  1  0  0  0
 73 74  1  0  0  0
 73 75  2  0  0  0
 73151  1  0  0  0
 74 76  2  0  0  0
 74 83  1  0  0  0
 75 88  1  0  0  0
 76 89  1  0  0  0
 77 79  1  0  0  0
 77 81  1  0  0  0
 77152  1  0  0  0
 77153  1  0  0  0
 78 80  1  0  0  0
 78 81  1  0  0  0
 78154  1  0  0  0
 78155  1  0  0  0
 79 82  1  0  0  0
 79156  1  0  0  0
 79157  1  0  0  0
 80 82  1  0  0  0
 80158  1  0  0  0
 80159  1  0  0  0
 81 89  1  0  0  0
 81160  1  0  0  0
 82161  1  0  0  0
 83162  1  0  0  0
 83163  1  0  0  0
 83164  1  0  0  0
 84 86  1  0  0  0
 84165  1  0  0  0
 84166  1  0  0  0
 84167  1  0  0  0
 85 88  1  0  0  0
 85168  1  0  0  0
 85169  1  0  0  0
 85170  1  0  0  0
 86 87  1  0  0  0
 86171  1  0  0  0
 86172  1  0  0  0
 87 89  1  0  0  0
 87173  1  0  0  0
 87174  1  0  0  0
M  ISO  4   1 100  68 101  82 101  88 100
M  END
> <chiral flag>
0

> <version>
0

> <s_m_source_file>
/data/baiqing/PycharmProjects/Reinvent-master-3.2/result/LINK_invent/BTK/process_docking_weight1_custom_product_contain_oxygen_bond_distance_aromatic_linkinvent_7_9_3/rearranged_h_0018.sdf

> <i_m_source_file_index>
82

> <r_mmod_Potential_Energy-OPLS-2005>
33787.4921875

> <r_mmod_Stretch_Energy-OPLS-2005>
16756.748046875

> <r_mmod_Bend_Energy-OPLS-2005>
3444.05126953125

> <r_mmod_Torsional_Energy-OPLS-2005>
1113.20007324219

> <r_mmod_Improper_Torsional_Energy-OPLS-2005>
157.684127807617

> <r_mmod_Van_der_Waal_Energy-OPLS-2005>
4958.8662109375

> <r_mmod_Electrostatic_Energy-OPLS-2005>
-315.845886230469

> <r_mmod_Solvation_Energy-OPLS-2005>
-202.036773681641

> <b_mmod_Minimization_Converged-OPLS-2005>
0

> <r_mmod_RMS_Derivative-OPLS-2005>
12.0099182128906

$$$$
82
                    3D
 Structure written by MMmdl.
161169  0  0  1  0            999 V2000
  -30.8063  -14.4409   20.6560 C   0  0  0  0  0  0
  -30.3939  -12.3157   19.4563 C   0  0  0  0  0  0
  -29.4933  -12.5400   18.2247 C   0  0  0  0  0  0
  -28.0154  -12.3705   18.6153 C   0  0  0  0  0  0
  -27.6528  -13.2080   19.8680 C   0  0  2  0  0  0
  -28.6824  -12.9983   20.9982 C   0  0  0  0  0  0
  -25.2537  -13.8155   20.5658 C   0  0  0  0  0  0
  -24.1800  -13.0431   20.9135 C   0  0  0  0  0  0
  -24.6351  -11.6898   20.8676 C   0  0  0  0  0  0
  -23.9036  -10.4290   21.0364 C   0  0  0  0  0  0
  -24.3592   -9.4234   21.9160 C   0  0  0  0  0  0
  -23.6271   -8.2277   22.0762 C   0  0  0  0  0  0
  -22.4257   -8.0298   21.3546 C   0  0  0  0  0  0
  -21.9875   -9.0265   20.4650 C   0  0  0  0  0  0
  -22.7198  -10.2139   20.3039 C   0  0  0  0  0  0
  -21.6846   -6.0739   22.5280 C   0  0  0  0  0  0
  -21.4028   -6.5644   23.8216 C   0  0  0  0  0  0
  -21.3672   -5.6792   24.9171 C   0  0  0  0  0  0
  -21.6052   -4.3057   24.7216 C   0  0  0  0  0  0
  -21.8813   -3.8150   23.4334 C   0  0  0  0  0  0
  -21.9194   -4.6970   22.3396 C   0  0  0  0  0  0
  -22.7838  -13.5260   21.1830 C   0  0  0  0  0  0
  -22.1656   -4.2157   21.0972 F   0  0  0  0  0  0
  -21.5629   -3.4545   25.7730 F   0  0  0  0  0  0
  -30.0290  -13.3198   20.4819 N   0  0  0  0  0  0
  -26.2947  -12.9320   20.3270 N   0  0  0  0  0  0
  -25.9268  -11.6474   20.5675 N   0  0  0  0  0  0
  -22.0473  -12.8271   22.0393 N   0  0  0  0  0  0
  -25.4241  -15.1880   20.4165 N   0  0  0  0  0  0
  -31.8838  -14.5311   20.0528 O   0  0  0  0  0  0
  -21.6637   -6.8881   21.4240 O   0  0  0  0  0  0
  -22.3546  -14.5583   20.6694 O   0  0  0  0  0  0
  -24.6126  -31.8701   23.2104 C   0  0  0  0  0  0
  -25.9051  -32.4813   23.8400 C   0  0  1  0  0  0
  -27.2510  -27.4492   20.0950 C   0  0  0  0  0  0
  -25.5966  -33.8616   24.2346 N   0  0  0  0  0  0
  -23.3981  -30.4900   21.5485 C   0  0  2  0  0  0
  -24.8493  -28.9559   20.1187 C   0  0  0  0  0  0
  -22.7391  -29.4638   22.4989 C   0  0  0  0  0  0
  -18.0254  -28.1399   22.8496 C   0  0  0  0  0  0
  -24.1485  -36.7215   23.2643 C   0  0  0  0  0  0
  -25.9275  -30.8410   21.3604 C   0  0  0  0  0  0
  -26.0074  -29.4754   20.7070 C   0  0  0  0  0  0
  -27.2061  -28.7321   20.6879 C   0  0  0  0  0  0
  -26.0669  -26.9324   19.5180 C   0  0  0  0  0  0
  -24.8731  -27.6830   19.5241 C   0  0  0  0  0  0
  -23.6091  -29.8191   20.1631 C   0  0  0  0  0  0
  -25.4132  -36.3090   24.0339 C   0  0  1  0  0  0
  -20.5842  -28.3640   23.1346 C   0  0  2  0  0  0
  -20.6739  -26.9386   22.5414 C   0  0  0  0  0  0
  -19.5737  -26.6398   21.5204 C   0  0  0  0  0  0
  -18.1915  -26.7954   22.1614 C   0  0  0  0  0  0
  -19.1503  -28.8839   23.2909 C   0  0  0  0  0  0
  -18.9453  -30.1460   23.8895 C   0  0  0  0  0  0
  -17.6464  -30.6609   24.0580 C   0  0  0  0  0  0
  -25.9088  -34.9466   23.5126 C   0  0  0  0  0  0
  -16.5342  -29.9141   23.6332 C   0  0  0  0  0  0
  -16.7239  -28.6550   23.0345 C   0  0  0  0  0  0
  -26.4499  -31.6559   25.0715 C   0  0  0  0  0  0
  -25.3781  -31.3609   26.1463 C   0  0  0  0  0  0
  -27.0306  -30.3018   24.6058 C   0  0  0  0  0  0
  -27.6088  -32.4228   25.7512 C   0  0  0  0  0  0
  -27.5579  -37.1772   24.8505 C   0  0  0  0  0  0
  -21.4117  -29.2995   22.3747 N   0  0  0  0  0  0
  -26.4307  -37.3791   23.9435 N   0  0  0  0  0  0
  -24.6629  -31.0854   22.0965 N   0  0  0  0  0  0
  -23.4166  -28.8173   23.3023 O   0  0  0  0  0  0
  -28.4706  -26.7992   20.0946 O   0  0  0  0  0  0
  -26.5622  -34.8928   22.4668 O   0  0  0  0  0  0
  -23.5319  -32.1398   23.7535 O   0  0  0  0  0  0
  -30.3551  -18.7805   22.6159 C   0  0  0  0  0  0
  -29.9595  -18.8911   20.2265 C   0  0  0  0  0  0
  -29.8311  -20.0814   22.7618 C   0  0  0  0  0  0
  -29.4581  -20.2037   20.3721 C   0  0  0  0  0  0
  -30.4165  -18.1624   21.3494 C   0  0  0  0  0  0
  -29.3796  -20.8229   21.6444 C   0  0  0  0  0  0
  -27.8668  -22.2685   22.8739 C   0  0  0  0  0  0
  -29.6876  -15.4497   22.6520 C   0  0  0  0  0  0
  -31.1228  -16.8134   21.1668 C   0  0  0  0  0  0
  -28.6103  -24.5288   21.0262 C   0  0  0  0  0  0
  -28.8306  -23.0368   20.6670 C   0  0  0  0  0  0
  -28.5950  -25.4140   19.7657 C   0  0  0  0  0  0
  -28.8804  -22.1354   21.8249 N   0  0  0  0  0  0
  -30.3634  -15.5365   21.3509 N   0  0  0  0  0  0
  -31.4424  -12.3557   19.1590 H   0  0  0  0  0  0
  -30.2572  -11.3061   19.8494 H   0  0  0  0  0  0
  -29.7605  -11.8459   17.4269 H   0  0  0  0  0  0
  -29.6513  -13.5433   17.8228 H   0  0  0  0  0  0
  -27.8399  -11.3109   18.8084 H   0  0  0  0  0  0
  -27.3697  -12.6390   17.7778 H   0  0  0  0  0  0
  -27.6930  -14.2565   19.5726 H   0  0  0  0  0  0
  -28.6581  -11.9598   21.3338 H   0  0  0  0  0  0
  -28.3640  -13.5543   21.8690 H   0  0  0  0  0  0
  -25.2735   -9.5730   22.4723 H   0  0  0  0  0  0
  -23.9989   -7.4674   22.7481 H   0  0  0  0  0  0
  -21.0814   -8.8765   19.8956 H   0  0  0  0  0  0
  -22.3637  -10.9672   19.6147 H   0  0  0  0  0  0
  -21.2030   -7.6150   23.9720 H   0  0  0  0  0  0
  -21.1500   -6.0519   25.9072 H   0  0  0  0  0  0
  -22.0579   -2.7617   23.2825 H   0  0  0  0  0  0
  -22.4045  -11.9916   22.4769 H   0  0  0  0  0  0
  -21.1107  -13.1343   22.2595 H   0  0  0  0  0  0
  -24.6580  -15.8404   20.5457 H   0  0  0  0  0  0
  -26.2936  -15.6425   20.1644 H   0  0  0  0  0  0
  -26.7126  -32.5500   23.1163 H   0  0  0  0  0  0
  -25.0205  -33.9799   25.0558 H   0  0  0  0  0  0
  -22.6835  -31.3017   21.4047 H   0  0  0  0  0  0
  -23.3809  -35.9486   23.3377 H   0  0  0  0  0  0
  -24.3574  -36.8749   22.2045 H   0  0  0  0  0  0
  -23.7186  -37.6419   23.6595 H   0  0  0  0  0  0
  -26.0608  -31.6109   20.5985 H   0  0  0  0  0  0
  -26.8091  -30.8833   21.9857 H   0  0  0  0  0  0
  -28.1011  -29.1419   21.1325 H   0  0  0  0  0  0
  -26.0271  -25.9608   19.0518 H   0  0  0  0  0  0
  -23.9777  -27.2737   19.0767 H   0  0  0  0  0  0
  -23.7156  -30.5876   19.3975 H   0  0  0  0  0  0
  -22.7354  -29.2365   19.8651 H   0  0  0  0  0  0
  -25.1324  -36.1941   25.0833 H   0  0  0  0  0  0
  -20.9929  -28.3199   24.1469 H   0  0  0  0  0  0
  -20.5683  -26.2223   23.3574 H   0  0  0  0  0  0
  -21.6618  -26.7467   22.1208 H   0  0  0  0  0  0
  -19.6907  -25.6327   21.1213 H   0  0  0  0  0  0
  -19.6721  -27.3236   20.6760 H   0  0  0  0  0  0
  -17.4182  -26.6664   21.4016 H   0  0  0  0  0  0
  -18.0325  -26.0094   22.9013 H   0  0  0  0  0  0
  -19.7923  -30.7272   24.2255 H   0  0  0  0  0  0
  -17.5030  -31.6302   24.5183 H   0  0  0  0  0  0
  -15.5356  -30.3077   23.7672 H   0  0  0  0  0  0
  -15.8599  -28.0912   22.7064 H   0  0  0  0  0  0
  -24.5991  -30.6939   25.7787 H   0  0  0  0  0  0
  -24.8931  -32.2713   26.4962 H   0  0  0  0  0  0
  -25.8175  -30.8730   27.0170 H   0  0  0  0  0  0
  -26.2792  -29.6810   24.1166 H   0  0  0  0  0  0
  -27.4159  -29.7247   25.4476 H   0  0  0  0  0  0
  -27.8631  -30.4378   23.9156 H   0  0  0  0  0  0
  -27.2763  -33.3526   26.2145 H   0  0  0  0  0  0
  -28.3935  -32.6789   25.0379 H   0  0  0  0  0  0
  -28.0734  -31.8285   26.5410 H   0  0  0  0  0  0
  -28.2662  -38.0017   24.7568 H   0  0  0  0  0  0
  -28.1012  -36.2560   24.6325 H   0  0  0  0  0  0
  -27.2279  -37.1422   25.8907 H   0  0  0  0  0  0
  -20.9265  -29.8620   21.6898 H   0  0  0  0  0  0
  -26.0186  -38.2857   24.1474 H   0  0  0  0  0  0
  -30.7436  -18.2769   23.4888 H   0  0  0  0  0  0
  -30.0321  -18.4728   19.2321 H   0  0  0  0  0  0
  -29.8052  -20.5196   23.7487 H   0  0  0  0  0  0
  -29.1396  -20.7236   19.4822 H   0  0  0  0  0  0
  -27.4389  -21.3103   23.1725 H   0  0  0  0  0  0
  -27.0316  -22.8851   22.5437 H   0  0  0  0  0  0
  -28.2963  -22.7425   23.7559 H   0  0  0  0  0  0
  -29.8628  -14.4913   23.1442 H   0  0  0  0  0  0
  -28.6157  -15.6159   22.5369 H   0  0  0  0  0  0
  -30.0415  -16.1980   23.3540 H   0  0  0  0  0  0
  -31.9780  -16.7963   21.8453 H   0  0  0  0  0  0
  -31.5529  -16.8680   20.1636 H   0  0  0  0  0  0
  -29.4025  -24.8670   21.6973 H   0  0  0  0  0  0
  -27.6734  -24.6751   21.5629 H   0  0  0  0  0  0
  -29.7715  -22.9527   20.1178 H   0  0  0  0  0  0
  -28.0473  -22.7043   19.9844 H   0  0  0  0  0  0
  -27.8687  -25.0565   19.0387 H   0  0  0  0  0  0
  -29.5583  -25.3080   19.2670 H   0  0  0  0  0  0
  1 25  1  0  0  0
  1 30  2  0  0  0
  1 84  1  0  0  0
  2  3  1  0  0  0
  2 25  1  0  0  0
  2 85  1  0  0  0
  2 86  1  0  0  0
  3  4  1  0  0  0
  3 87  1  0  0  0
  3 88  1  0  0  0
  4  5  1  0  0  0
  4 89  1  0  0  0
  4 90  1  0  0  0
  5  6  1  0  0  0
  5 26  1  0  0  0
  5 91  1  0  0  0
  6 25  1  0  0  0
  6 92  1  0  0  0
  6 93  1  0  0  0
  7  8  2  0  0  0
  7 26  1  0  0  0
  7 29  1  0  0  0
  8  9  1  0  0  0
  8 22  1  0  0  0
  9 10  1  0  0  0
  9 27  2  0  0  0
 10 11  2  0  0  0
 10 15  1  0  0  0
 11 12  1  0  0  0
 11 94  1  0  0  0
 12 13  2  0  0  0
 12 95  1  0  0  0
 13 14  1  0  0  0
 13 31  1  0  0  0
 14 15  2  0  0  0
 14 96  1  0  0  0
 15 97  1  0  0  0
 16 17  2  0  0  0
 16 21  1  0  0  0
 16 31  1  0  0  0
 17 18  1  0  0  0
 17 98  1  0  0  0
 18 19  2  0  0  0
 18 99  1  0  0  0
 19 20  1  0  0  0
 19 24  1  0  0  0
 20 21  2  0  0  0
 20100  1  0  0  0
 21 23  1  0  0  0
 22 28  1  0  0  0
 22 32  2  0  0  0
 26 27  1  0  0  0
 28101  1  0  0  0
 28102  1  0  0  0
 29103  1  0  0  0
 29104  1  0  0  0
 33 34  1  0  0  0
 33 66  1  0  0  0
 33 70  2  0  0  0
 34 36  1  0  0  0
 34 59  1  0  0  0
 34105  1  0  0  0
 35 44  2  0  0  0
 35 45  1  0  0  0
 35 68  1  0  0  0
 36 56  1  0  0  0
 36106  1  0  0  0
 37 39  1  0  0  0
 37 47  1  0  0  0
 37 66  1  0  0  0
 37107  1  0  0  0
 38 43  2  0  0  0
 38 46  1  0  0  0
 38 47  1  0  0  0
 39 64  1  0  0  0
 39 67  2  0  0  0
 40 52  1  0  0  0
 40 53  2  0  0  0
 40 58  1  0  0  0
 41108  1  0  0  0
 41109  1  0  0  0
 41110  1  0  0  0
 41 48  1  0  0  0
 42 43  1  0  0  0
 42 66  1  0  0  0
 42111  1  0  0  0
 42112  1  0  0  0
 43 44  1  0  0  0
 44113  1  0  0  0
 45 46  2  0  0  0
 45114  1  0  0  0
 46115  1  0  0  0
 47116  1  0  0  0
 47117  1  0  0  0
 48 56  1  0  0  0
 48 65  1  0  0  0
 48118  1  0  0  0
 49 50  1  0  0  0
 49 53  1  0  0  0
 49 64  1  0  0  0
 49119  1  0  0  0
 50 51  1  0  0  0
 50120  1  0  0  0
 50121  1  0  0  0
 51 52  1  0  0  0
 51122  1  0  0  0
 51123  1  0  0  0
 52124  1  0  0  0
 52125  1  0  0  0
 53 54  1  0  0  0
 54 55  2  0  0  0
 54126  1  0  0  0
 55 57  1  0  0  0
 55127  1  0  0  0
 56 69  2  0  0  0
 57 58  2  0  0  0
 57128  1  0  0  0
 58129  1  0  0  0
 59 60  1  0  0  0
 59 61  1  0  0  0
 59 62  1  0  0  0
 60130  1  0  0  0
 60131  1  0  0  0
 60132  1  0  0  0
 61133  1  0  0  0
 61134  1  0  0  0
 61135  1  0  0  0
 62136  1  0  0  0
 62137  1  0  0  0
 62138  1  0  0  0
 63 65  1  0  0  0
 63139  1  0  0  0
 63140  1  0  0  0
 63141  1  0  0  0
 64142  1  0  0  0
 65143  1  0  0  0
 68 82  1  0  0  0
 71 73  2  0  0  0
 71 75  1  0  0  0
 71144  1  0  0  0
 72 74  1  0  0  0
 72 75  2  0  0  0
 72145  1  0  0  0
 73 76  1  0  0  0
 73146  1  0  0  0
 74 76  2  0  0  0
 74147  1  0  0  0
 75 79  1  0  0  0
 76 83  1  0  0  0
 77 83  1  0  0  0
 77148  1  0  0  0
 77149  1  0  0  0
 77150  1  0  0  0
 78 84  1  0  0  0
 78151  1  0  0  0
 78152  1  0  0  0
 78153  1  0  0  0
 79 84  1  0  0  0
 79154  1  0  0  0
 79155  1  0  0  0
 80 81  1  0  0  0
 80 82  1  0  0  0
 80156  1  0  0  0
 80157  1  0  0  0
 81 83  1  0  0  0
 81158  1  0  0  0
 81159  1  0  0  0
 82160  1  0  0  0
 82161  1  0  0  0
M  ISO  4   1 100  68 101  82 101  84 100
M  END
> <chiral flag>
0

> <version>
0

> <s_m_source_file>
/data/baiqing/PycharmProjects/Reinvent-master-3.2/result/LINK_invent/BTK/process_docking_weight1_custom_product_contain_oxygen_bond_distance_aromatic_linkinvent_7_9_3/rearranged_h_0018.sdf

> <i_m_source_file_index>
83

> <r_mmod_Potential_Energy-OPLS-2005>
100.385414123535

> <r_mmod_Stretch_Energy-OPLS-2005>
46.212100982666

> <r_mmod_Bend_Energy-OPLS-2005>
142.126251220703

> <r_mmod_Torsional_Energy-OPLS-2005>
238.704498291016

> <r_mmod_Improper_Torsional_Energy-OPLS-2005>
7.92415904998779

> <r_mmod_Van_der_Waal_Energy-OPLS-2005>
180.791030883789

> <r_mmod_Electrostatic_Energy-OPLS-2005>
-317.921661376953

> <r_mmod_Solvation_Energy-OPLS-2005>
-212.284820556641

> <b_mmod_Minimization_Converged-OPLS-2005>
0

> <r_mmod_RMS_Derivative-OPLS-2005>
4.60344171524048

$$$$
83
                    3D
 Structure written by MMmdl.
162170  0  0  1  0            999 V2000
  -30.4958  -14.5469   20.5861 C   0  0  0  0  0  0
  -30.4295  -12.3372   19.4225 C   0  0  0  0  0  0
  -29.4782  -12.4993   18.2100 C   0  0  0  0  0  0
  -27.9975  -12.3619   18.6250 C   0  0  0  0  0  0
  -27.6552  -13.1493   19.9154 C   0  0  2  0  0  0
  -28.6992  -12.8548   21.0115 C   0  0  0  0  0  0
  -25.2643  -13.8030   20.5861 C   0  0  0  0  0  0
  -24.1755  -13.0327   20.9174 C   0  0  0  0  0  0
  -24.6250  -11.6827   20.8820 C   0  0  0  0  0  0
  -23.8923  -10.4197   21.0431 C   0  0  0  0  0  0
  -24.3510   -9.4148   21.9217 C   0  0  0  0  0  0
  -23.6215   -8.2176   22.0752 C   0  0  0  0  0  0
  -22.4246   -8.0213   21.3508 C   0  0  0  0  0  0
  -21.9818   -9.0181   20.4647 C   0  0  0  0  0  0
  -22.7104  -10.2082   20.3065 C   0  0  0  0  0  0
  -21.6821   -6.0714   22.5273 C   0  0  0  0  0  0
  -21.3987   -6.5621   23.8203 C   0  0  0  0  0  0
  -21.3652   -5.6784   24.9177 C   0  0  0  0  0  0
  -21.6050   -4.3046   24.7237 C   0  0  0  0  0  0
  -21.8830   -3.8132   23.4360 C   0  0  0  0  0  0
  -21.9187   -4.6943   22.3407 C   0  0  0  0  0  0
  -22.7853  -13.5264   21.1814 C   0  0  0  0  0  0
  -22.1669   -4.2126   21.0980 F   0  0  0  0  0  0
  -21.5637   -3.4539   25.7742 F   0  0  0  0  0  0
  -30.0019  -13.2755   20.4767 N   0  0  0  0  0  0
  -26.2949  -12.9026   20.3626 N   0  0  0  0  0  0
  -25.9125  -11.6297   20.5881 N   0  0  0  0  0  0
  -22.0435  -12.8250   22.0400 N   0  0  0  0  0  0
  -25.4495  -15.1716   20.4511 N   0  0  0  0  0  0
  -31.5900  -14.8779   20.1188 O   0  0  0  0  0  0
  -21.6615   -6.8843   21.4231 O   0  0  0  0  0  0
  -22.3610  -14.5565   20.6659 O   0  0  0  0  0  0
  -24.6334  -31.8666   23.1998 C   0  0  0  0  0  0
  -25.9152  -32.4790   23.8264 C   0  0  1  0  0  0
  -27.1354  -27.3176   20.2216 C   0  0  0  0  0  0
  -25.5990  -33.8602   24.2239 N   0  0  0  0  0  0
  -23.4125  -30.5031   21.5489 C   0  0  2  0  0  0
  -24.8251  -28.9517   20.1032 C   0  0  0  0  0  0
  -22.7557  -29.4812   22.5021 C   0  0  0  0  0  0
  -18.0625  -28.0825   22.8480 C   0  0  0  0  0  0
  -24.1485  -36.7282   23.2628 C   0  0  0  0  0  0
  -25.9433  -30.8149   21.3495 C   0  0  0  0  0  0
  -25.9976  -29.4496   20.6926 C   0  0  0  0  0  0
  -27.1713  -28.6553   20.7075 C   0  0  0  0  0  0
  -25.9701  -26.8690   19.5716 C   0  0  0  0  0  0
  -24.8138  -27.6708   19.5246 C   0  0  0  0  0  0
  -23.6010  -29.8445   20.1560 C   0  0  0  0  0  0
  -25.4112  -36.3060   24.0322 C   0  0  1  0  0  0
  -20.6281  -28.3540   23.1235 C   0  0  2  0  0  0
  -20.7515  -26.9569   22.4491 C   0  0  0  0  0  0
  -19.6110  -26.6024   21.4804 C   0  0  0  0  0  0
  -18.2378  -26.7441   22.1634 C   0  0  0  0  0  0
  -19.1812  -28.8421   23.2849 C   0  0  0  0  0  0
  -18.9648  -30.0952   23.8955 C   0  0  0  0  0  0
  -17.6604  -30.6085   24.0459 C   0  0  0  0  0  0
  -25.9094  -34.9468   23.5079 C   0  0  0  0  0  0
  -16.5539  -29.8562   23.5940 C   0  0  0  0  0  0
  -16.7566  -28.6049   23.0026 C   0  0  0  0  0  0
  -26.4497  -31.6616   25.0654 C   0  0  0  0  0  0
  -25.3734  -31.3828   26.1384 C   0  0  0  0  0  0
  -27.0343  -30.3053   24.6164 C   0  0  0  0  0  0
  -27.6059  -32.4322   25.7469 C   0  0  0  0  0  0
  -27.5565  -37.1811   24.8467 C   0  0  0  0  0  0
  -21.4288  -29.3356   22.4017 N   0  0  0  0  0  0
  -26.4266  -37.3771   23.9417 N   0  0  0  0  0  0
  -24.6813  -31.0786   22.0866 N   0  0  0  0  0  0
  -23.4502  -28.8031   23.2678 O   0  0  0  0  0  0
  -28.1877  -26.4458   20.4550 O   0  0  0  0  0  0
  -26.5642  -34.8941   22.4640 O   0  0  0  0  0  0
  -23.5527  -32.1438   23.7495 O   0  0  0  0  0  0
  -28.2487  -18.8464   22.0386 C   0  0  0  0  0  0
  -28.9969  -17.6217   22.0913 C   0  0  0  0  0  0
  -27.6009  -18.2934   19.8013 C   0  0  0  0  0  0
  -27.5179  -19.2205   20.8732 C   0  0  0  0  0  0
  -28.3846  -17.1067   19.8195 C   0  0  0  0  0  0
  -29.0925  -16.7176   20.9930 C   0  0  0  0  0  0
  -28.3749  -16.2962   18.5424 C   0  0  0  0  0  0
  -25.5103  -21.1492   22.7163 C   0  0  0  0  0  0
  -26.7488  -20.5729   20.6247 C   0  0  0  0  0  0
  -27.0548  -24.2470   21.6586 C   0  0  0  0  0  0
  -26.1930  -23.0006   21.1757 C   0  0  0  0  0  0
  -27.9520  -24.9748   20.5504 C   0  0  0  0  0  0
  -29.6384  -15.3853   21.2471 N   0  0  0  0  0  0
  -26.5221  -21.5958   21.7154 N   0  3  1  0  0  0
  -31.4638  -12.5002   19.1137 H   0  0  0  0  0  0
  -30.3883  -11.3065   19.7836 H   0  0  0  0  0  0
  -29.7035  -11.7592   17.4389 H   0  0  0  0  0  0
  -29.6444  -13.4713   17.7480 H   0  0  0  0  0  0
  -27.7898  -11.3012   18.7927 H   0  0  0  0  0  0
  -27.3391  -12.6761   17.8182 H   0  0  0  0  0  0
  -27.7043  -14.1992   19.6918 H   0  0  0  0  0  0
  -28.7047  -11.7848   21.2286 H   0  0  0  0  0  0
  -28.4468  -13.3333   21.9574 H   0  0  0  0  0  0
  -25.2653   -9.5689   22.4804 H   0  0  0  0  0  0
  -23.9958   -7.4591   22.7444 H   0  0  0  0  0  0
  -21.0764   -8.8702   19.8935 H   0  0  0  0  0  0
  -22.3553  -10.9662   19.6201 H   0  0  0  0  0  0
  -21.1960   -7.6131   23.9701 H   0  0  0  0  0  0
  -21.1466   -6.0521   25.9085 H   0  0  0  0  0  0
  -22.0614   -2.7592   23.2864 H   0  0  0  0  0  0
  -22.4008  -11.9875   22.4758 H   0  0  0  0  0  0
  -21.1060  -13.1307   22.2595 H   0  0  0  0  0  0
  -24.7024  -15.8339   20.6284 H   0  0  0  0  0  0
  -26.3478  -15.6177   20.3014 H   0  0  0  0  0  0
  -26.7255  -32.5363   23.1008 H   0  0  0  0  0  0
  -25.0075  -33.9679   25.0355 H   0  0  0  0  0  0
  -22.6992  -31.3231   21.4337 H   0  0  0  0  0  0
  -23.3735  -35.9617   23.3312 H   0  0  0  0  0  0
  -24.3563  -36.8915   22.2028 H   0  0  0  0  0  0
  -23.7250  -37.6513   23.6659 H   0  0  0  0  0  0
  -26.1054  -31.5844   20.5992 H   0  0  0  0  0  0
  -26.8191  -30.8324   21.9849 H   0  0  0  0  0  0
  -28.0753  -29.0297   21.1705 H   0  0  0  0  0  0
  -25.9194  -25.8659   19.1683 H   0  0  0  0  0  0
  -23.9117  -27.3025   19.0481 H   0  0  0  0  0  0
  -23.7164  -30.6416   19.4235 H   0  0  0  0  0  0
  -22.7070  -29.3109   19.8395 H   0  0  0  0  0  0
  -25.1295  -36.1881   25.0820 H   0  0  0  0  0  0
  -21.0177  -28.2767   24.1452 H   0  0  0  0  0  0
  -20.7552  -26.2200   23.2635 H   0  0  0  0  0  0
  -21.7129  -26.8305   21.9463 H   0  0  0  0  0  0
  -19.7276  -25.5798   21.1134 H   0  0  0  0  0  0
  -19.6449  -27.2305   20.5918 H   0  0  0  0  0  0
  -17.4503  -26.6175   21.4218 H   0  0  0  0  0  0
  -18.1074  -25.9558   22.9218 H   0  0  0  0  0  0
  -19.8197  -30.6368   24.2851 H   0  0  0  0  0  0
  -17.5156  -31.5766   24.5053 H   0  0  0  0  0  0
  -15.5436  -30.2450   23.6983 H   0  0  0  0  0  0
  -15.9096  -28.0162   22.6507 H   0  0  0  0  0  0
  -24.5883  -30.7181   25.7738 H   0  0  0  0  0  0
  -24.8893  -32.3038   26.4712 H   0  0  0  0  0  0
  -25.8000  -30.9068   27.0238 H   0  0  0  0  0  0
  -26.2952  -29.6789   24.1163 H   0  0  0  0  0  0
  -27.4040  -29.7312   25.4674 H   0  0  0  0  0  0
  -27.8800  -30.4313   23.9389 H   0  0  0  0  0  0
  -27.2700  -33.3668   26.2030 H   0  0  0  0  0  0
  -28.3931  -32.6891   25.0330 H   0  0  0  0  0  0
  -28.0709  -31.8452   26.5441 H   0  0  0  0  0  0
  -28.2599  -38.0097   24.7486 H   0  0  0  0  0  0
  -28.1057  -36.2630   24.6321 H   0  0  0  0  0  0
  -27.2290  -37.1493   25.8878 H   0  0  0  0  0  0
  -20.9139  -29.9374   21.7821 H   0  0  0  0  0  0
  -26.0150  -38.2854   24.1437 H   0  0  0  0  0  0
  -28.2637  -19.4940   22.8978 H   0  0  0  0  0  0
  -29.4756  -17.3652   23.0207 H   0  0  0  0  0  0
  -27.0609  -18.5248   18.8937 H   0  0  0  0  0  0
  -27.4008  -15.8264   18.3812 H   0  0  0  0  0  0
  -29.1465  -15.5364   18.5361 H   0  0  0  0  0  0
  -28.5593  -16.9271   17.6745 H   0  0  0  0  0  0
  -25.6911  -20.1444   23.0897 H   0  0  0  0  0  0
  -24.5208  -21.1506   22.2721 H   0  0  0  0  0  0
  -25.4853  -21.8168   23.5873 H   0  0  0  0  0  0
  -25.7712  -20.2782   20.2269 H   0  0  0  0  0  0
  -27.3183  -21.0395   19.8101 H   0  0  0  0  0  0
  -27.6936  -23.8994   22.4633 H   0  0  0  0  0  0
  -26.3739  -24.9750   22.0984 H   0  0  0  0  0  0
  -26.2158  -23.0029   20.0995 H   0  0  0  0  0  0
  -25.1570  -23.2484   21.4243 H   0  0  0  0  0  0
  -27.6971  -24.5806   19.5696 H   0  0  0  0  0  0
  -28.9305  -24.5573   20.7508 H   0  0  0  0  0  0
  -29.0167  -14.8104   21.8046 H   0  0  0  0  0  0
  -27.3847  -21.6561   22.2143 H   0  0  0  0  0  0
  1 25  1  0  0  0
  1 30  2  0  0  0
  1 83  1  0  0  0
  2  3  1  0  0  0
  2 25  1  0  0  0
  2 85  1  0  0  0
  2 86  1  0  0  0
  3  4  1  0  0  0
  3 87  1  0  0  0
  3 88  1  0  0  0
  4  5  1  0  0  0
  4 89  1  0  0  0
  4 90  1  0  0  0
  5  6  1  0  0  0
  5 26  1  0  0  0
  5 91  1  0  0  0
  6 25  1  0  0  0
  6 92  1  0  0  0
  6 93  1  0  0  0
  7  8  2  0  0  0
  7 26  1  0  0  0
  7 29  1  0  0  0
  8  9  1  0  0  0
  8 22  1  0  0  0
  9 10  1  0  0  0
  9 27  2  0  0  0
 10 11  2  0  0  0
 10 15  1  0  0  0
 11 12  1  0  0  0
 11 94  1  0  0  0
 12 13  2  0  0  0
 12 95  1  0  0  0
 13 14  1  0  0  0
 13 31  1  0  0  0
 14 15  2  0  0  0
 14 96  1  0  0  0
 15 97  1  0  0  0
 16 17  2  0  0  0
 16 21  1  0  0  0
 16 31  1  0  0  0
 17 18  1  0  0  0
 17 98  1  0  0  0
 18 19  2  0  0  0
 18 99  1  0  0  0
 19 20  1  0  0  0
 19 24  1  0  0  0
 20 21  2  0  0  0
 20100  1  0  0  0
 21 23  1  0  0  0
 22 28  1  0  0  0
 22 32  2  0  0  0
 26 27  1  0  0  0
 28101  1  0  0  0
 28102  1  0  0  0
 29103  1  0  0  0
 29104  1  0  0  0
 33 34  1  0  0  0
 33 66  1  0  0  0
 33 70  2  0  0  0
 34 36  1  0  0  0
 34 59  1  0  0  0
 34105  1  0  0  0
 35 44  2  0  0  0
 35 45  1  0  0  0
 35 68  1  0  0  0
 36 56  1  0  0  0
 36106  1  0  0  0
 37 39  1  0  0  0
 37 47  1  0  0  0
 37 66  1  0  0  0
 37107  1  0  0  0
 38 43  2  0  0  0
 38 46  1  0  0  0
 38 47  1  0  0  0
 39 64  1  0  0  0
 39 67  2  0  0  0
 40 52  1  0  0  0
 40 53  2  0  0  0
 40 58  1  0  0  0
 41108  1  0  0  0
 41109  1  0  0  0
 41110  1  0  0  0
 41 48  1  0  0  0
 42 43  1  0  0  0
 42 66  1  0  0  0
 42111  1  0  0  0
 42112  1  0  0  0
 43 44  1  0  0  0
 44113  1  0  0  0
 45 46  2  0  0  0
 45114  1  0  0  0
 46115  1  0  0  0
 47116  1  0  0  0
 47117  1  0  0  0
 48 56  1  0  0  0
 48 65  1  0  0  0
 48118  1  0  0  0
 49 50  1  0  0  0
 49 53  1  0  0  0
 49 64  1  0  0  0
 49119  1  0  0  0
 50 51  1  0  0  0
 50120  1  0  0  0
 50121  1  0  0  0
 51 52  1  0  0  0
 51122  1  0  0  0
 51123  1  0  0  0
 52124  1  0  0  0
 52125  1  0  0  0
 53 54  1  0  0  0
 54 55  2  0  0  0
 54126  1  0  0  0
 55 57  1  0  0  0
 55127  1  0  0  0
 56 69  2  0  0  0
 57 58  2  0  0  0
 57128  1  0  0  0
 58129  1  0  0  0
 59 60  1  0  0  0
 59 61  1  0  0  0
 59 62  1  0  0  0
 60130  1  0  0  0
 60131  1  0  0  0
 60132  1  0  0  0
 61133  1  0  0  0
 61134  1  0  0  0
 61135  1  0  0  0
 62136  1  0  0  0
 62137  1  0  0  0
 62138  1  0  0  0
 63 65  1  0  0  0
 63139  1  0  0  0
 63140  1  0  0  0
 63141  1  0  0  0
 64142  1  0  0  0
 65143  1  0  0  0
 68 82  1  0  0  0
 71 72  2  0  0  0
 71 74  1  0  0  0
 71144  1  0  0  0
 72 76  1  0  0  0
 72145  1  0  0  0
 73 74  2  0  0  0
 73 75  1  0  0  0
 73146  1  0  0  0
 74 79  1  0  0  0
 75 76  2  0  0  0
 75 77  1  0  0  0
 76 83  1  0  0  0
 77147  1  0  0  0
 77148  1  0  0  0
 77149  1  0  0  0
 78150  1  0  0  0
 78151  1  0  0  0
 78152  1  0  0  0
 78 84  1  0  0  0
 79 84  1  0  0  0
 79153  1  0  0  0
 79154  1  0  0  0
 80 81  1  0  0  0
 80 82  1  0  0  0
 80155  1  0  0  0
 80156  1  0  0  0
 81 84  1  0  0  0
 81157  1  0  0  0
 81158  1  0  0  0
 82159  1  0  0  0
 82160  1  0  0  0
 83161  1  0  0  0
 84162  1  0  0  0
M  CHG  1  84   1
M  ISO  4   1 100  68 101  82 101  83 100
M  END
> <chiral flag>
0

> <version>
0

> <s_m_source_file>
/data/baiqing/PycharmProjects/Reinvent-master-3.2/result/LINK_invent/BTK/process_docking_weight1_custom_product_contain_oxygen_bond_distance_aromatic_linkinvent_7_9_3/rearranged_h_0018.sdf

> <i_m_source_file_index>
84

> <r_mmod_Potential_Energy-OPLS-2005>
52.7650413513184

> <r_mmod_Stretch_Energy-OPLS-2005>
84.4632949829102

> <r_mmod_Bend_Energy-OPLS-2005>
184.765823364258

> <r_mmod_Torsional_Energy-OPLS-2005>
288.531951904297

> <r_mmod_Improper_Torsional_Energy-OPLS-2005>
7.32989263534546

> <r_mmod_Van_der_Waal_Energy-OPLS-2005>
148.09733581543

> <r_mmod_Electrostatic_Energy-OPLS-2005>
-283.143676757812

> <r_mmod_Solvation_Energy-OPLS-2005>
-456.841461181641

> <b_mmod_Minimization_Converged-OPLS-2005>
0

> <r_mmod_RMS_Derivative-OPLS-2005>
23.7338619232178

$$$$
84
                    3D
 Structure written by MMmdl.
162170  0  0  1  0            999 V2000
  -30.6872  -14.4993   20.4757 C   0  0  0  0  0  0
  -30.4204  -12.3010   19.4246 C   0  0  0  0  0  0
  -29.4941  -12.4828   18.2028 C   0  0  0  0  0  0
  -28.0115  -12.3511   18.6146 C   0  0  0  0  0  0
  -27.6538  -13.2133   19.8571 C   0  0  2  0  0  0
  -28.7022  -13.0196   20.9775 C   0  0  0  0  0  0
  -25.2533  -13.8143   20.5704 C   0  0  0  0  0  0
  -24.1804  -13.0415   20.9230 C   0  0  0  0  0  0
  -24.6374  -11.6899   20.8757 C   0  0  0  0  0  0
  -23.9048  -10.4262   21.0412 C   0  0  0  0  0  0
  -24.3594   -9.4181   21.9183 C   0  0  0  0  0  0
  -23.6261   -8.2224   22.0733 C   0  0  0  0  0  0
  -22.4246   -8.0257   21.3536 C   0  0  0  0  0  0
  -21.9901   -9.0245   20.4648 C   0  0  0  0  0  0
  -22.7232  -10.2119   20.3064 C   0  0  0  0  0  0
  -21.6813   -6.0714   22.5300 C   0  0  0  0  0  0
  -21.3991   -6.5615   23.8242 C   0  0  0  0  0  0
  -21.3677   -5.6773   24.9208 C   0  0  0  0  0  0
  -21.6048   -4.3037   24.7255 C   0  0  0  0  0  0
  -21.8814   -3.8129   23.4375 C   0  0  0  0  0  0
  -21.9186   -4.6944   22.3430 C   0  0  0  0  0  0
  -22.7819  -13.5191   21.1877 C   0  0  0  0  0  0
  -22.1647   -4.2120   21.1008 F   0  0  0  0  0  0
  -21.5656   -3.4534   25.7775 F   0  0  0  0  0  0
  -30.0243  -13.3145   20.4085 N   0  0  0  0  0  0
  -26.2972  -12.9335   20.3324 N   0  0  0  0  0  0
  -25.9299  -11.6494   20.5753 N   0  0  0  0  0  0
  -22.0440  -12.8211   22.0445 N   0  0  0  0  0  0
  -25.4225  -15.1858   20.4114 N   0  0  0  0  0  0
  -31.8632  -14.6307   20.1365 O   0  0  0  0  0  0
  -21.6610   -6.8853   21.4243 O   0  0  0  0  0  0
  -22.3513  -14.5499   20.6694 O   0  0  0  0  0  0
  -24.6117  -31.8687   23.2163 C   0  0  0  0  0  0
  -25.9038  -32.4843   23.8432 C   0  0  1  0  0  0
  -27.2290  -27.4520   20.0901 C   0  0  0  0  0  0
  -25.5930  -33.8653   24.2377 N   0  0  0  0  0  0
  -23.4019  -30.4918   21.5550 C   0  0  2  0  0  0
  -24.8496  -28.9621   20.1158 C   0  0  0  0  0  0
  -22.7395  -29.4645   22.5006 C   0  0  0  0  0  0
  -18.0256  -28.1425   22.8385 C   0  0  0  0  0  0
  -24.1486  -36.7310   23.2639 C   0  0  0  0  0  0
  -25.9316  -30.8349   21.3737 C   0  0  0  0  0  0
  -26.0093  -29.4722   20.7180 C   0  0  0  0  0  0
  -27.2059  -28.7224   20.7067 C   0  0  0  0  0  0
  -26.0644  -26.9634   19.4695 C   0  0  0  0  0  0
  -24.8709  -27.7081   19.4847 C   0  0  0  0  0  0
  -23.6116  -29.8280   20.1682 C   0  0  0  0  0  0
  -25.4103  -36.3120   24.0341 C   0  0  1  0  0  0
  -20.5883  -28.3628   23.1399 C   0  0  2  0  0  0
  -20.6739  -26.9389   22.5394 C   0  0  0  0  0  0
  -19.5846  -26.6695   21.5002 C   0  0  0  0  0  0
  -18.1905  -26.8178   22.1190 C   0  0  0  0  0  0
  -19.1506  -28.8787   23.2953 C   0  0  0  0  0  0
  -18.9431  -30.1290   23.9091 C   0  0  0  0  0  0
  -17.6478  -30.6472   24.0770 C   0  0  0  0  0  0
  -25.9033  -34.9491   23.5143 C   0  0  0  0  0  0
  -16.5339  -29.9079   23.6383 C   0  0  0  0  0  0
  -16.7221  -28.6559   23.0233 C   0  0  0  0  0  0
  -26.4457  -31.6624   25.0757 C   0  0  0  0  0  0
  -25.3706  -31.3759   26.1515 C   0  0  0  0  0  0
  -27.0327  -30.3062   24.6162 C   0  0  0  0  0  0
  -27.6045  -32.4344   25.7496 C   0  0  0  0  0  0
  -27.5586  -37.1806   24.8463 C   0  0  0  0  0  0
  -21.4107  -29.3082   22.3830 N   0  0  0  0  0  0
  -26.4293  -37.3787   23.9423 N   0  0  0  0  0  0
  -24.6660  -31.0779   22.1070 N   0  0  0  0  0  0
  -23.4178  -28.8119   23.3001 O   0  0  0  0  0  0
  -28.3628  -26.6794   20.0876 O   0  0  0  0  0  0
  -26.5560  -34.8921   22.4688 O   0  0  0  0  0  0
  -23.5306  -32.1507   23.7532 O   0  0  0  0  0  0
  -27.9522  -18.0493   20.4013 C   0  0  0  0  0  0
  -29.7439  -18.8957   21.8040 C   0  0  0  0  0  0
  -27.4355  -19.3566   20.2670 C   0  0  0  0  0  0
  -29.2382  -20.2047   21.6636 C   0  0  0  0  0  0
  -29.0696  -17.7965   21.2303 C   0  0  0  0  0  0
  -28.0367  -20.4368   20.9572 C   0  0  0  0  0  0
  -25.8390  -23.2790   19.8312 C   0  0  0  0  0  0
  -29.4961  -16.3646   21.5737 C   0  0  0  0  0  0
  -27.3068  -21.7712   21.1164 C   0  0  0  0  0  0
  -29.0205  -24.3194   20.4986 C   0  0  0  0  0  0
  -28.3073  -23.4172   19.4446 C   0  0  0  0  0  0
  -28.3044  -25.5896   21.0169 C   0  0  0  0  0  0
  -29.9043  -15.5887   20.4114 N   0  0  0  0  0  0
  -27.1444  -22.5781   19.8767 N   0  3  1  0  0  0
  -31.4722  -12.3740   19.1361 H   0  0  0  0  0  0
  -30.3005  -11.3050   19.8558 H   0  0  0  0  0  0
  -29.7351  -11.7390   17.4399 H   0  0  0  0  0  0
  -29.6635  -13.4619   17.7476 H   0  0  0  0  0  0
  -27.8291  -11.2989   18.8368 H   0  0  0  0  0  0
  -27.3601  -12.6071   17.7766 H   0  0  0  0  0  0
  -27.6839  -14.2560   19.5363 H   0  0  0  0  0  0
  -28.6807  -11.9890   21.3394 H   0  0  0  0  0  0
  -28.4814  -13.6412   21.8450 H   0  0  0  0  0  0
  -25.2720   -9.5639   22.4785 H   0  0  0  0  0  0
  -23.9968   -7.4575   22.7436 H   0  0  0  0  0  0
  -21.0825   -8.8766   19.8924 H   0  0  0  0  0  0
  -22.3680  -10.9664   19.6186 H   0  0  0  0  0  0
  -21.1951   -7.6117   23.9740 H   0  0  0  0  0  0
  -21.1506   -6.0506   25.9119 H   0  0  0  0  0  0
  -22.0569   -2.7576   23.2907 H   0  0  0  0  0  0
  -22.4000  -11.9907   22.4900 H   0  0  0  0  0  0
  -21.1048  -13.1262   22.2601 H   0  0  0  0  0  0
  -24.6552  -15.8424   20.5203 H   0  0  0  0  0  0
  -26.2866  -15.6169   20.1114 H   0  0  0  0  0  0
  -26.7118  -32.5528   23.1206 H   0  0  0  0  0  0
  -25.0132  -33.9823   25.0560 H   0  0  0  0  0  0
  -22.6952  -31.3126   21.4144 H   0  0  0  0  0  0
  -23.3747  -35.9643   23.3277 H   0  0  0  0  0  0
  -24.3589  -36.8932   22.2059 H   0  0  0  0  0  0
  -23.7241  -37.6511   23.6646 H   0  0  0  0  0  0
  -26.0555  -31.6059   20.6119 H   0  0  0  0  0  0
  -26.8175  -30.8784   21.9964 H   0  0  0  0  0  0
  -28.1033  -29.1048   21.1735 H   0  0  0  0  0  0
  -26.0872  -26.0127   18.9612 H   0  0  0  0  0  0
  -23.9883  -27.3205   18.9927 H   0  0  0  0  0  0
  -23.7249  -30.6052   19.4100 H   0  0  0  0  0  0
  -22.7357  -29.2469   19.8680 H   0  0  0  0  0  0
  -25.1280  -36.1983   25.0823 H   0  0  0  0  0  0
  -20.9919  -28.3175   24.1502 H   0  0  0  0  0  0
  -20.5272  -26.2272   23.3524 H   0  0  0  0  0  0
  -21.6653  -26.7250   22.1369 H   0  0  0  0  0  0
  -19.7061  -25.6794   21.0601 H   0  0  0  0  0  0
  -19.6963  -27.3844   20.6858 H   0  0  0  0  0  0
  -17.4256  -26.7401   21.3431 H   0  0  0  0  0  0
  -18.0099  -26.0025   22.8178 H   0  0  0  0  0  0
  -19.7915  -30.6955   24.2703 H   0  0  0  0  0  0
  -17.5108  -31.6082   24.5585 H   0  0  0  0  0  0
  -15.5378  -30.2988   23.7791 H   0  0  0  0  0  0
  -15.8659  -28.0954   22.6832 H   0  0  0  0  0  0
  -24.5831  -30.7169   25.7833 H   0  0  0  0  0  0
  -24.8958  -32.2955   26.4948 H   0  0  0  0  0  0
  -25.8031  -30.8904   27.0280 H   0  0  0  0  0  0
  -26.2927  -29.6794   24.1172 H   0  0  0  0  0  0
  -27.4076  -29.7305   25.4630 H   0  0  0  0  0  0
  -27.8746  -30.4372   23.9361 H   0  0  0  0  0  0
  -27.2666  -33.3620   26.2118 H   0  0  0  0  0  0
  -28.3810  -32.6952   25.0298 H   0  0  0  0  0  0
  -28.0775  -31.8465   26.5374 H   0  0  0  0  0  0
  -28.2594  -38.0100   24.7527 H   0  0  0  0  0  0
  -28.1084  -36.2650   24.6265 H   0  0  0  0  0  0
  -27.2309  -37.1435   25.8856 H   0  0  0  0  0  0
  -20.9183  -29.8984   21.7305 H   0  0  0  0  0  0
  -26.0181  -38.2865   24.1403 H   0  0  0  0  0  0
  -27.4429  -17.2314   19.9150 H   0  0  0  0  0  0
  -30.6176  -18.7379   22.4235 H   0  0  0  0  0  0
  -26.5243  -19.4993   19.6973 H   0  0  0  0  0  0
  -29.7300  -21.0166   22.1805 H   0  0  0  0  0  0
  -25.7124  -23.9667   20.6681 H   0  0  0  0  0  0
  -25.0204  -22.5565   19.8666 H   0  0  0  0  0  0
  -25.7156  -23.8271   18.8993 H   0  0  0  0  0  0
  -30.3025  -16.3969   22.3087 H   0  0  0  0  0  0
  -28.6636  -15.8643   22.0624 H   0  0  0  0  0  0
  -27.7286  -22.3521   21.9384 H   0  0  0  0  0  0
  -26.3180  -21.4891   21.4818 H   0  0  0  0  0  0
  -29.9560  -24.6575   20.0524 H   0  0  0  0  0  0
  -29.3270  -23.7123   21.3488 H   0  0  0  0  0  0
  -29.0475  -22.7111   19.0633 H   0  0  0  0  0  0
  -28.0226  -24.0183   18.5814 H   0  0  0  0  0  0
  -28.8152  -25.9331   21.9229 H   0  0  0  0  0  0
  -27.2970  -25.3538   21.3566 H   0  0  0  0  0  0
  -30.2721  -16.2212   19.7201 H   0  0  0  0  0  0
  -27.0551  -21.9004   19.1342 H   0  0  0  0  0  0
  1 25  1  0  0  0
  1 30  2  0  0  0
  1 83  1  0  0  0
  2  3  1  0  0  0
  2 25  1  0  0  0
  2 85  1  0  0  0
  2 86  1  0  0  0
  3  4  1  0  0  0
  3 87  1  0  0  0
  3 88  1  0  0  0
  4  5  1  0  0  0
  4 89  1  0  0  0
  4 90  1  0  0  0
  5  6  1  0  0  0
  5 26  1  0  0  0
  5 91  1  0  0  0
  6 25  1  0  0  0
  6 92  1  0  0  0
  6 93  1  0  0  0
  7  8  2  0  0  0
  7 26  1  0  0  0
  7 29  1  0  0  0
  8  9  1  0  0  0
  8 22  1  0  0  0
  9 10  1  0  0  0
  9 27  2  0  0  0
 10 11  2  0  0  0
 10 15  1  0  0  0
 11 12  1  0  0  0
 11 94  1  0  0  0
 12 13  2  0  0  0
 12 95  1  0  0  0
 13 14  1  0  0  0
 13 31  1  0  0  0
 14 15  2  0  0  0
 14 96  1  0  0  0
 15 97  1  0  0  0
 16 17  2  0  0  0
 16 21  1  0  0  0
 16 31  1  0  0  0
 17 18  1  0  0  0
 17 98  1  0  0  0
 18 19  2  0  0  0
 18 99  1  0  0  0
 19 20  1  0  0  0
 19 24  1  0  0  0
 20 21  2  0  0  0
 20100  1  0  0  0
 21 23  1  0  0  0
 22 28  1  0  0  0
 22 32  2  0  0  0
 26 27  1  0  0  0
 28101  1  0  0  0
 28102  1  0  0  0
 29103  1  0  0  0
 29104  1  0  0  0
 33 34  1  0  0  0
 33 66  1  0  0  0
 33 70  2  0  0  0
 34 36  1  0  0  0
 34 59  1  0  0  0
 34105  1  0  0  0
 35 44  2  0  0  0
 35 45  1  0  0  0
 35 68  1  0  0  0
 36 56  1  0  0  0
 36106  1  0  0  0
 37 39  1  0  0  0
 37 47  1  0  0  0
 37 66  1  0  0  0
 37107  1  0  0  0
 38 43  2  0  0  0
 38 46  1  0  0  0
 38 47  1  0  0  0
 39 64  1  0  0  0
 39 67  2  0  0  0
 40 52  1  0  0  0
 40 53  2  0  0  0
 40 58  1  0  0  0
 41108  1  0  0  0
 41109  1  0  0  0
 41110  1  0  0  0
 41 48  1  0  0  0
 42 43  1  0  0  0
 42 66  1  0  0  0
 42111  1  0  0  0
 42112  1  0  0  0
 43 44  1  0  0  0
 44113  1  0  0  0
 45 46  2  0  0  0
 45114  1  0  0  0
 46115  1  0  0  0
 47116  1  0  0  0
 47117  1  0  0  0
 48 56  1  0  0  0
 48 65  1  0  0  0
 48118  1  0  0  0
 49 50  1  0  0  0
 49 53  1  0  0  0
 49 64  1  0  0  0
 49119  1  0  0  0
 50 51  1  0  0  0
 50120  1  0  0  0
 50121  1  0  0  0
 51 52  1  0  0  0
 51122  1  0  0  0
 51123  1  0  0  0
 52124  1  0  0  0
 52125  1  0  0  0
 53 54  1  0  0  0
 54 55  2  0  0  0
 54126  1  0  0  0
 55 57  1  0  0  0
 55127  1  0  0  0
 56 69  2  0  0  0
 57 58  2  0  0  0
 57128  1  0  0  0
 58129  1  0  0  0
 59 60  1  0  0  0
 59 61  1  0  0  0
 59 62  1  0  0  0
 60130  1  0  0  0
 60131  1  0  0  0
 60132  1  0  0  0
 61133  1  0  0  0
 61134  1  0  0  0
 61135  1  0  0  0
 62136  1  0  0  0
 62137  1  0  0  0
 62138  1  0  0  0
 63 65  1  0  0  0
 63139  1  0  0  0
 63140  1  0  0  0
 63141  1  0  0  0
 64142  1  0  0  0
 65143  1  0  0  0
 68 82  1  0  0  0
 71 73  2  0  0  0
 71 75  1  0  0  0
 71144  1  0  0  0
 72 74  1  0  0  0
 72 75  2  0  0  0
 72145  1  0  0  0
 73 76  1  0  0  0
 73146  1  0  0  0
 74 76  2  0  0  0
 74147  1  0  0  0
 75 78  1  0  0  0
 76 79  1  0  0  0
 77148  1  0  0  0
 77149  1  0  0  0
 77150  1  0  0  0
 77 84  1  0  0  0
 78 83  1  0  0  0
 78151  1  0  0  0
 78152  1  0  0  0
 79 84  1  0  0  0
 79153  1  0  0  0
 79154  1  0  0  0
 80 81  1  0  0  0
 80 82  1  0  0  0
 80155  1  0  0  0
 80156  1  0  0  0
 81 84  1  0  0  0
 81157  1  0  0  0
 81158  1  0  0  0
 82159  1  0  0  0
 82160  1  0  0  0
 83161  1  0  0  0
 84162  1  0  0  0
M  CHG  1  84   1
M  ISO  4   1 100  68 101  82 101  83 100
M  END
> <chiral flag>
0

> <version>
0

> <s_m_source_file>
/data/baiqing/PycharmProjects/Reinvent-master-3.2/result/LINK_invent/BTK/process_docking_weight1_custom_product_contain_oxygen_bond_distance_aromatic_linkinvent_7_9_3/rearranged_h_0018.sdf

> <i_m_source_file_index>
85

> <r_mmod_Potential_Energy-OPLS-2005>
-115.71272277832

> <r_mmod_Stretch_Energy-OPLS-2005>
36.2917404174805

> <r_mmod_Bend_Energy-OPLS-2005>
120.056266784668

> <r_mmod_Torsional_Energy-OPLS-2005>
315.558746337891

> <r_mmod_Improper_Torsional_Energy-OPLS-2005>
22.6926441192627

> <r_mmod_Van_der_Waal_Energy-OPLS-2005>
134.949371337891

> <r_mmod_Electrostatic_Energy-OPLS-2005>
-322.938262939453

> <r_mmod_Solvation_Energy-OPLS-2005>
-441.650390625

> <b_mmod_Minimization_Converged-OPLS-2005>
0

> <r_mmod_RMS_Derivative-OPLS-2005>
6.82499933242798

$$$$
85
                    3D
 Structure written by MMmdl.
161169  0  0  1  0            999 V2000
  -30.8063  -14.4409   20.6560 C   0  0  0  0  0  0
  -30.3939  -12.3157   19.4563 C   0  0  0  0  0  0
  -29.4933  -12.5400   18.2247 C   0  0  0  0  0  0
  -28.0154  -12.3705   18.6153 C   0  0  0  0  0  0
  -27.6528  -13.2080   19.8680 C   0  0  2  0  0  0
  -28.6824  -12.9983   20.9982 C   0  0  0  0  0  0
  -25.2537  -13.8155   20.5658 C   0  0  0  0  0  0
  -24.1800  -13.0431   20.9135 C   0  0  0  0  0  0
  -24.6351  -11.6898   20.8676 C   0  0  0  0  0  0
  -23.9036  -10.4290   21.0364 C   0  0  0  0  0  0
  -24.3592   -9.4234   21.9160 C   0  0  0  0  0  0
  -23.6271   -8.2277   22.0762 C   0  0  0  0  0  0
  -22.4257   -8.0298   21.3546 C   0  0  0  0  0  0
  -21.9875   -9.0265   20.4650 C   0  0  0  0  0  0
  -22.7198  -10.2139   20.3039 C   0  0  0  0  0  0
  -21.6846   -6.0739   22.5280 C   0  0  0  0  0  0
  -21.4028   -6.5644   23.8216 C   0  0  0  0  0  0
  -21.3672   -5.6792   24.9171 C   0  0  0  0  0  0
  -21.6052   -4.3057   24.7216 C   0  0  0  0  0  0
  -21.8813   -3.8150   23.4334 C   0  0  0  0  0  0
  -21.9194   -4.6970   22.3396 C   0  0  0  0  0  0
  -22.7838  -13.5260   21.1830 C   0  0  0  0  0  0
  -22.1656   -4.2157   21.0972 F   0  0  0  0  0  0
  -21.5629   -3.4545   25.7730 F   0  0  0  0  0  0
  -30.0290  -13.3198   20.4819 N   0  0  0  0  0  0
  -26.2947  -12.9320   20.3270 N   0  0  0  0  0  0
  -25.9268  -11.6474   20.5675 N   0  0  0  0  0  0
  -22.0473  -12.8271   22.0393 N   0  0  0  0  0  0
  -25.4241  -15.1880   20.4165 N   0  0  0  0  0  0
  -31.8838  -14.5311   20.0528 O   0  0  0  0  0  0
  -21.6637   -6.8881   21.4240 O   0  0  0  0  0  0
  -22.3546  -14.5583   20.6694 O   0  0  0  0  0  0
  -24.6126  -31.8701   23.2104 C   0  0  0  0  0  0
  -25.9051  -32.4813   23.8400 C   0  0  1  0  0  0
  -27.2510  -27.4492   20.0950 C   0  0  0  0  0  0
  -25.5966  -33.8616   24.2346 N   0  0  0  0  0  0
  -23.3981  -30.4900   21.5485 C   0  0  2  0  0  0
  -24.8493  -28.9559   20.1187 C   0  0  0  0  0  0
  -22.7391  -29.4638   22.4989 C   0  0  0  0  0  0
  -18.0254  -28.1399   22.8496 C   0  0  0  0  0  0
  -24.1485  -36.7215   23.2643 C   0  0  0  0  0  0
  -25.9275  -30.8410   21.3604 C   0  0  0  0  0  0
  -26.0074  -29.4754   20.7070 C   0  0  0  0  0  0
  -27.2061  -28.7321   20.6879 C   0  0  0  0  0  0
  -26.0669  -26.9324   19.5180 C   0  0  0  0  0  0
  -24.8731  -27.6830   19.5241 C   0  0  0  0  0  0
  -23.6091  -29.8191   20.1631 C   0  0  0  0  0  0
  -25.4132  -36.3090   24.0339 C   0  0  1  0  0  0
  -20.5842  -28.3640   23.1346 C   0  0  2  0  0  0
  -20.6739  -26.9386   22.5414 C   0  0  0  0  0  0
  -19.5737  -26.6398   21.5204 C   0  0  0  0  0  0
  -18.1915  -26.7954   22.1614 C   0  0  0  0  0  0
  -19.1503  -28.8839   23.2909 C   0  0  0  0  0  0
  -18.9453  -30.1460   23.8895 C   0  0  0  0  0  0
  -17.6464  -30.6609   24.0580 C   0  0  0  0  0  0
  -25.9088  -34.9466   23.5126 C   0  0  0  0  0  0
  -16.5342  -29.9141   23.6332 C   0  0  0  0  0  0
  -16.7239  -28.6550   23.0345 C   0  0  0  0  0  0
  -26.4499  -31.6559   25.0715 C   0  0  0  0  0  0
  -25.3781  -31.3609   26.1463 C   0  0  0  0  0  0
  -27.0306  -30.3018   24.6058 C   0  0  0  0  0  0
  -27.6088  -32.4228   25.7512 C   0  0  0  0  0  0
  -27.5579  -37.1772   24.8505 C   0  0  0  0  0  0
  -21.4117  -29.2995   22.3747 N   0  0  0  0  0  0
  -26.4307  -37.3791   23.9435 N   0  0  0  0  0  0
  -24.6629  -31.0854   22.0965 N   0  0  0  0  0  0
  -23.4166  -28.8173   23.3023 O   0  0  0  0  0  0
  -28.4706  -26.7992   20.0946 O   0  0  0  0  0  0
  -26.5622  -34.8928   22.4668 O   0  0  0  0  0  0
  -23.5319  -32.1398   23.7535 O   0  0  0  0  0  0
  -30.3551  -18.7805   22.6159 C   0  0  0  0  0  0
  -29.9595  -18.8911   20.2265 C   0  0  0  0  0  0
  -29.8311  -20.0814   22.7618 C   0  0  0  0  0  0
  -29.4581  -20.2037   20.3721 C   0  0  0  0  0  0
  -30.4165  -18.1624   21.3494 C   0  0  0  0  0  0
  -29.3796  -20.8229   21.6444 C   0  0  0  0  0  0
  -27.8668  -22.2685   22.8739 C   0  0  0  0  0  0
  -29.6876  -15.4497   22.6520 C   0  0  0  0  0  0
  -31.1228  -16.8134   21.1668 C   0  0  0  0  0  0
  -28.6103  -24.5288   21.0262 C   0  0  0  0  0  0
  -28.8306  -23.0368   20.6670 C   0  0  0  0  0  0
  -28.5950  -25.4140   19.7657 C   0  0  0  0  0  0
  -28.8804  -22.1354   21.8249 N   0  0  0  0  0  0
  -30.3634  -15.5365   21.3509 N   0  0  0  0  0  0
  -31.4424  -12.3557   19.1590 H   0  0  0  0  0  0
  -30.2572  -11.3061   19.8494 H   0  0  0  0  0  0
  -29.7605  -11.8459   17.4269 H   0  0  0  0  0  0
  -29.6513  -13.5433   17.8228 H   0  0  0  0  0  0
  -27.8399  -11.3109   18.8084 H   0  0  0  0  0  0
  -27.3697  -12.6390   17.7778 H   0  0  0  0  0  0
  -27.6930  -14.2565   19.5726 H   0  0  0  0  0  0
  -28.6581  -11.9598   21.3338 H   0  0  0  0  0  0
  -28.3640  -13.5543   21.8690 H   0  0  0  0  0  0
  -25.2735   -9.5730   22.4723 H   0  0  0  0  0  0
  -23.9989   -7.4674   22.7481 H   0  0  0  0  0  0
  -21.0814   -8.8765   19.8956 H   0  0  0  0  0  0
  -22.3637  -10.9672   19.6147 H   0  0  0  0  0  0
  -21.2030   -7.6150   23.9720 H   0  0  0  0  0  0
  -21.1500   -6.0519   25.9072 H   0  0  0  0  0  0
  -22.0579   -2.7617   23.2825 H   0  0  0  0  0  0
  -22.4045  -11.9916   22.4769 H   0  0  0  0  0  0
  -21.1107  -13.1343   22.2595 H   0  0  0  0  0  0
  -24.6580  -15.8404   20.5457 H   0  0  0  0  0  0
  -26.2936  -15.6425   20.1644 H   0  0  0  0  0  0
  -26.7126  -32.5500   23.1163 H   0  0  0  0  0  0
  -25.0205  -33.9799   25.0558 H   0  0  0  0  0  0
  -22.6835  -31.3017   21.4047 H   0  0  0  0  0  0
  -23.3809  -35.9486   23.3377 H   0  0  0  0  0  0
  -24.3574  -36.8749   22.2045 H   0  0  0  0  0  0
  -23.7186  -37.6419   23.6595 H   0  0  0  0  0  0
  -26.0608  -31.6109   20.5985 H   0  0  0  0  0  0
  -26.8091  -30.8833   21.9857 H   0  0  0  0  0  0
  -28.1011  -29.1419   21.1325 H   0  0  0  0  0  0
  -26.0271  -25.9608   19.0518 H   0  0  0  0  0  0
  -23.9777  -27.2737   19.0767 H   0  0  0  0  0  0
  -23.7156  -30.5876   19.3975 H   0  0  0  0  0  0
  -22.7354  -29.2365   19.8651 H   0  0  0  0  0  0
  -25.1324  -36.1941   25.0833 H   0  0  0  0  0  0
  -20.9929  -28.3199   24.1469 H   0  0  0  0  0  0
  -20.5683  -26.2223   23.3574 H   0  0  0  0  0  0
  -21.6618  -26.7467   22.1208 H   0  0  0  0  0  0
  -19.6907  -25.6327   21.1213 H   0  0  0  0  0  0
  -19.6721  -27.3236   20.6760 H   0  0  0  0  0  0
  -17.4182  -26.6664   21.4016 H   0  0  0  0  0  0
  -18.0325  -26.0094   22.9013 H   0  0  0  0  0  0
  -19.7923  -30.7272   24.2255 H   0  0  0  0  0  0
  -17.5030  -31.6302   24.5183 H   0  0  0  0  0  0
  -15.5356  -30.3077   23.7672 H   0  0  0  0  0  0
  -15.8599  -28.0912   22.7064 H   0  0  0  0  0  0
  -24.5991  -30.6939   25.7787 H   0  0  0  0  0  0
  -24.8931  -32.2713   26.4962 H   0  0  0  0  0  0
  -25.8175  -30.8730   27.0170 H   0  0  0  0  0  0
  -26.2792  -29.6810   24.1166 H   0  0  0  0  0  0
  -27.4159  -29.7247   25.4476 H   0  0  0  0  0  0
  -27.8631  -30.4378   23.9156 H   0  0  0  0  0  0
  -27.2763  -33.3526   26.2145 H   0  0  0  0  0  0
  -28.3935  -32.6789   25.0379 H   0  0  0  0  0  0
  -28.0734  -31.8285   26.5410 H   0  0  0  0  0  0
  -28.2662  -38.0017   24.7568 H   0  0  0  0  0  0
  -28.1012  -36.2560   24.6325 H   0  0  0  0  0  0
  -27.2279  -37.1422   25.8907 H   0  0  0  0  0  0
  -20.9265  -29.8620   21.6898 H   0  0  0  0  0  0
  -26.0186  -38.2857   24.1474 H   0  0  0  0  0  0
  -30.7436  -18.2769   23.4888 H   0  0  0  0  0  0
  -30.0321  -18.4728   19.2321 H   0  0  0  0  0  0
  -29.8052  -20.5196   23.7487 H   0  0  0  0  0  0
  -29.1396  -20.7236   19.4822 H   0  0  0  0  0  0
  -27.4389  -21.3103   23.1725 H   0  0  0  0  0  0
  -27.0316  -22.8851   22.5437 H   0  0  0  0  0  0
  -28.2963  -22.7425   23.7559 H   0  0  0  0  0  0
  -29.8628  -14.4913   23.1442 H   0  0  0  0  0  0
  -28.6157  -15.6159   22.5369 H   0  0  0  0  0  0
  -30.0415  -16.1980   23.3540 H   0  0  0  0  0  0
  -31.9780  -16.7963   21.8453 H   0  0  0  0  0  0
  -31.5529  -16.8680   20.1636 H   0  0  0  0  0  0
  -29.4025  -24.8670   21.6973 H   0  0  0  0  0  0
  -27.6734  -24.6751   21.5629 H   0  0  0  0  0  0
  -29.7715  -22.9527   20.1178 H   0  0  0  0  0  0
  -28.0473  -22.7043   19.9844 H   0  0  0  0  0  0
  -27.8687  -25.0565   19.0387 H   0  0  0  0  0  0
  -29.5583  -25.3080   19.2670 H   0  0  0  0  0  0
  1 25  1  0  0  0
  1 30  2  0  0  0
  1 84  1  0  0  0
  2  3  1  0  0  0
  2 25  1  0  0  0
  2 85  1  0  0  0
  2 86  1  0  0  0
  3  4  1  0  0  0
  3 87  1  0  0  0
  3 88  1  0  0  0
  4  5  1  0  0  0
  4 89  1  0  0  0
  4 90  1  0  0  0
  5  6  1  0  0  0
  5 26  1  0  0  0
  5 91  1  0  0  0
  6 25  1  0  0  0
  6 92  1  0  0  0
  6 93  1  0  0  0
  7  8  2  0  0  0
  7 26  1  0  0  0
  7 29  1  0  0  0
  8  9  1  0  0  0
  8 22  1  0  0  0
  9 10  1  0  0  0
  9 27  2  0  0  0
 10 11  2  0  0  0
 10 15  1  0  0  0
 11 12  1  0  0  0
 11 94  1  0  0  0
 12 13  2  0  0  0
 12 95  1  0  0  0
 13 14  1  0  0  0
 13 31  1  0  0  0
 14 15  2  0  0  0
 14 96  1  0  0  0
 15 97  1  0  0  0
 16 17  2  0  0  0
 16 21  1  0  0  0
 16 31  1  0  0  0
 17 18  1  0  0  0
 17 98  1  0  0  0
 18 19  2  0  0  0
 18 99  1  0  0  0
 19 20  1  0  0  0
 19 24  1  0  0  0
 20 21  2  0  0  0
 20100  1  0  0  0
 21 23  1  0  0  0
 22 28  1  0  0  0
 22 32  2  0  0  0
 26 27  1  0  0  0
 28101  1  0  0  0
 28102  1  0  0  0
 29103  1  0  0  0
 29104  1  0  0  0
 33 34  1  0  0  0
 33 66  1  0  0  0
 33 70  2  0  0  0
 34 36  1  0  0  0
 34 59  1  0  0  0
 34105  1  0  0  0
 35 44  2  0  0  0
 35 45  1  0  0  0
 35 68  1  0  0  0
 36 56  1  0  0  0
 36106  1  0  0  0
 37 39  1  0  0  0
 37 47  1  0  0  0
 37 66  1  0  0  0
 37107  1  0  0  0
 38 43  2  0  0  0
 38 46  1  0  0  0
 38 47  1  0  0  0
 39 64  1  0  0  0
 39 67  2  0  0  0
 40 52  1  0  0  0
 40 53  2  0  0  0
 40 58  1  0  0  0
 41108  1  0  0  0
 41109  1  0  0  0
 41110  1  0  0  0
 41 48  1  0  0  0
 42 43  1  0  0  0
 42 66  1  0  0  0
 42111  1  0  0  0
 42112  1  0  0  0
 43 44  1  0  0  0
 44113  1  0  0  0
 45 46  2  0  0  0
 45114  1  0  0  0
 46115  1  0  0  0
 47116  1  0  0  0
 47117  1  0  0  0
 48 56  1  0  0  0
 48 65  1  0  0  0
 48118  1  0  0  0
 49 50  1  0  0  0
 49 53  1  0  0  0
 49 64  1  0  0  0
 49119  1  0  0  0
 50 51  1  0  0  0
 50120  1  0  0  0
 50121  1  0  0  0
 51 52  1  0  0  0
 51122  1  0  0  0
 51123  1  0  0  0
 52124  1  0  0  0
 52125  1  0  0  0
 53 54  1  0  0  0
 54 55  2  0  0  0
 54126  1  0  0  0
 55 57  1  0  0  0
 55127  1  0  0  0
 56 69  2  0  0  0
 57 58  2  0  0  0
 57128  1  0  0  0
 58129  1  0  0  0
 59 60  1  0  0  0
 59 61  1  0  0  0
 59 62  1  0  0  0
 60130  1  0  0  0
 60131  1  0  0  0
 60132  1  0  0  0
 61133  1  0  0  0
 61134  1  0  0  0
 61135  1  0  0  0
 62136  1  0  0  0
 62137  1  0  0  0
 62138  1  0  0  0
 63 65  1  0  0  0
 63139  1  0  0  0
 63140  1  0  0  0
 63141  1  0  0  0
 64142  1  0  0  0
 65143  1  0  0  0
 68 82  1  0  0  0
 71 73  2  0  0  0
 71 75  1  0  0  0
 71144  1  0  0  0
 72 74  1  0  0  0
 72 75  2  0  0  0
 72145  1  0  0  0
 73 76  1  0  0  0
 73146  1  0  0  0
 74 76  2  0  0  0
 74147  1  0  0  0
 75 79  1  0  0  0
 76 83  1  0  0  0
 77 83  1  0  0  0
 77148  1  0  0  0
 77149  1  0  0  0
 77150  1  0  0  0
 78 84  1  0  0  0
 78151  1  0  0  0
 78152  1  0  0  0
 78153  1  0  0  0
 79 84  1  0  0  0
 79154  1  0  0  0
 79155  1  0  0  0
 80 81  1  0  0  0
 80 82  1  0  0  0
 80156  1  0  0  0
 80157  1  0  0  0
 81 83  1  0  0  0
 81158  1  0  0  0
 81159  1  0  0  0
 82160  1  0  0  0
 82161  1  0  0  0
M  ISO  4   1 100  68 101  82 101  84 100
M  END
> <chiral flag>
0

> <version>
0

> <s_m_source_file>
/data/baiqing/PycharmProjects/Reinvent-master-3.2/result/LINK_invent/BTK/process_docking_weight1_custom_product_contain_oxygen_bond_distance_aromatic_linkinvent_7_9_3/rearranged_h_0018.sdf

> <i_m_source_file_index>
86

> <r_mmod_Potential_Energy-OPLS-2005>
100.385414123535

> <r_mmod_Stretch_Energy-OPLS-2005>
46.212100982666

> <r_mmod_Bend_Energy-OPLS-2005>
142.126251220703

> <r_mmod_Torsional_Energy-OPLS-2005>
238.704498291016

> <r_mmod_Improper_Torsional_Energy-OPLS-2005>
7.92415904998779

> <r_mmod_Van_der_Waal_Energy-OPLS-2005>
180.791030883789

> <r_mmod_Electrostatic_Energy-OPLS-2005>
-317.921661376953

> <r_mmod_Solvation_Energy-OPLS-2005>
-212.284820556641

> <b_mmod_Minimization_Converged-OPLS-2005>
0

> <r_mmod_RMS_Derivative-OPLS-2005>
4.60344171524048

$$$$
86
                    3D
 Structure written by MMmdl.
162171  0  0  1  0            999 V2000
  -30.6832  -14.5056   20.5634 C   0  0  0  0  0  0
  -30.4287  -12.3218   19.4303 C   0  0  0  0  0  0
  -29.5012  -12.5093   18.2104 C   0  0  0  0  0  0
  -28.0202  -12.3700   18.6179 C   0  0  0  0  0  0
  -27.6630  -13.2086   19.8742 C   0  0  2  0  0  0
  -28.7051  -12.9917   20.9956 C   0  0  0  0  0  0
  -25.2599  -13.8150   20.5685 C   0  0  0  0  0  0
  -24.1851  -13.0437   20.9199 C   0  0  0  0  0  0
  -24.6395  -11.6900   20.8730 C   0  0  0  0  0  0
  -23.9058  -10.4291   21.0399 C   0  0  0  0  0  0
  -24.3611   -9.4206   21.9179 C   0  0  0  0  0  0
  -23.6289   -8.2238   22.0748 C   0  0  0  0  0  0
  -22.4271   -8.0276   21.3539 C   0  0  0  0  0  0
  -21.9907   -9.0248   20.4645 C   0  0  0  0  0  0
  -22.7232  -10.2130   20.3048 C   0  0  0  0  0  0
  -21.6855   -6.0732   22.5278 C   0  0  0  0  0  0
  -21.4017   -6.5635   23.8212 C   0  0  0  0  0  0
  -21.3659   -5.6788   24.9174 C   0  0  0  0  0  0
  -21.6042   -4.3051   24.7228 C   0  0  0  0  0  0
  -21.8819   -3.8142   23.4349 C   0  0  0  0  0  0
  -21.9195   -4.6959   22.3402 C   0  0  0  0  0  0
  -22.7875  -13.5239   21.1859 C   0  0  0  0  0  0
  -22.1661   -4.2140   21.0984 F   0  0  0  0  0  0
  -21.5629   -3.4533   25.7742 F   0  0  0  0  0  0
  -30.0359  -13.3101   20.4495 N   0  0  0  0  0  0
  -26.3035  -12.9327   20.3349 N   0  0  0  0  0  0
  -25.9322  -11.6481   20.5745 N   0  0  0  0  0  0
  -22.0503  -12.8221   22.0403 N   0  0  0  0  0  0
  -25.4313  -15.1868   20.4085 N   0  0  0  0  0  0
  -31.8087  -14.6859   20.0910 O   0  0  0  0  0  0
  -21.6638   -6.8874   21.4238 O   0  0  0  0  0  0
  -22.3559  -14.5544   20.6712 O   0  0  0  0  0  0
  -24.6145  -31.8663   23.2076 C   0  0  0  0  0  0
  -25.9023  -32.4812   23.8392 C   0  0  1  0  0  0
  -27.2378  -27.4216   20.1050 C   0  0  0  0  0  0
  -25.5881  -33.8610   24.2328 N   0  0  0  0  0  0
  -23.4062  -30.4877   21.5478 C   0  0  2  0  0  0
  -24.8557  -28.9526   20.1129 C   0  0  0  0  0  0
  -22.7421  -29.4640   22.4972 C   0  0  0  0  0  0
  -18.0276  -28.1397   22.8500 C   0  0  0  0  0  0
  -24.1479  -36.7304   23.2639 C   0  0  0  0  0  0
  -25.9346  -30.8299   21.3615 C   0  0  0  0  0  0
  -26.0161  -29.4622   20.7100 C   0  0  0  0  0  0
  -27.2148  -28.7068   20.6973 C   0  0  0  0  0  0
  -26.0636  -26.9324   19.4941 C   0  0  0  0  0  0
  -24.8753  -27.6888   19.4975 C   0  0  0  0  0  0
  -23.6162  -29.8190   20.1629 C   0  0  0  0  0  0
  -25.4100  -36.3106   24.0343 C   0  0  1  0  0  0
  -20.5864  -28.3669   23.1315 C   0  0  2  0  0  0
  -20.6751  -26.9404   22.5411 C   0  0  0  0  0  0
  -19.5732  -26.6401   21.5203 C   0  0  0  0  0  0
  -18.1913  -26.7940   22.1627 C   0  0  0  0  0  0
  -19.1527  -28.8853   23.2908 C   0  0  0  0  0  0
  -18.9461  -30.1463   23.8918 C   0  0  0  0  0  0
  -17.6461  -30.6604   24.0577 C   0  0  0  0  0  0
  -25.9032  -34.9469   23.5142 C   0  0  0  0  0  0
  -16.5351  -29.9109   23.6341 C   0  0  0  0  0  0
  -16.7264  -28.6525   23.0360 C   0  0  0  0  0  0
  -26.4455  -31.6585   25.0710 C   0  0  0  0  0  0
  -25.3722  -31.3696   26.1466 C   0  0  0  0  0  0
  -27.0287  -30.3037   24.6059 C   0  0  0  0  0  0
  -27.6040  -32.4292   25.7468 C   0  0  0  0  0  0
  -27.5581  -37.1811   24.8471 C   0  0  0  0  0  0
  -21.4140  -29.3041   22.3730 N   0  0  0  0  0  0
  -26.4282  -37.3792   23.9424 N   0  0  0  0  0  0
  -24.6702  -31.0756   22.0979 N   0  0  0  0  0  0
  -23.4177  -28.8171   23.3021 O   0  0  0  0  0  0
  -28.3772  -26.6397   20.1159 O   0  0  0  0  0  0
  -26.5594  -34.8925   22.4704 O   0  0  0  0  0  0
  -23.5332  -32.1403   23.7466 O   0  0  0  0  0  0
  -31.2444  -19.0261   20.4951 C   0  0  0  0  0  0
  -31.1620  -17.6143   20.4727 C   0  0  0  0  0  0
  -29.1541  -19.1316   21.7091 C   0  0  0  0  0  0
  -30.2539  -19.8080   21.1321 C   0  0  0  0  0  0
  -30.0785  -16.9298   21.0825 C   0  0  0  0  0  0
  -29.0513  -17.7112   21.6840 C   0  0  0  0  0  0
  -30.2334  -23.6506   20.4006 C   0  0  0  0  0  0
  -28.4280  -22.7501   20.7654 C   0  0  0  0  0  0
  -28.7910  -24.1342   20.1896 C   0  0  1  0  0  0
  -26.8089  -17.8118   22.7546 C   0  0  0  0  0  0
  -30.4538  -21.3295   21.3253 C   0  0  0  0  0  0
  -28.2588  -25.4169   20.8799 C   0  0  0  0  0  0
  -29.9596  -15.4923   21.1390 N   0  0  0  0  0  0
  -27.9517  -17.0502   22.2645 N   0  0  0  0  0  0
  -29.7574  -22.2562   20.3798 N   0  3  2  0  0  0
  -31.4737  -12.4222   19.1318 H   0  0  0  0  0  0
  -30.3306  -11.3121   19.8333 H   0  0  0  0  0  0
  -29.7456  -11.7812   17.4359 H   0  0  0  0  0  0
  -29.6686  -13.4923   17.7680 H   0  0  0  0  0  0
  -27.8280  -11.3145   18.8142 H   0  0  0  0  0  0
  -27.3718  -12.6456   17.7846 H   0  0  0  0  0  0
  -27.7048  -14.2564   19.5751 H   0  0  0  0  0  0
  -28.6866  -11.9532   21.3295 H   0  0  0  0  0  0
  -28.4600  -13.5808   21.8803 H   0  0  0  0  0  0
  -25.2757   -9.5684   22.4751 H   0  0  0  0  0  0
  -24.0003   -7.4633   22.7463 H   0  0  0  0  0  0
  -21.0839   -8.8769   19.8954 H   0  0  0  0  0  0
  -22.3691  -10.9666   19.6150 H   0  0  0  0  0  0
  -21.2004   -7.6139   23.9712 H   0  0  0  0  0  0
  -21.1484   -6.0518   25.9078 H   0  0  0  0  0  0
  -22.0599   -2.7601   23.2853 H   0  0  0  0  0  0
  -22.4122  -11.9880   22.4784 H   0  0  0  0  0  0
  -21.1110  -13.1230   22.2585 H   0  0  0  0  0  0
  -24.6625  -15.8369   20.5287 H   0  0  0  0  0  0
  -26.2610  -15.6242   20.0292 H   0  0  0  0  0  0
  -26.7090  -32.5538   23.1162 H   0  0  0  0  0  0
  -25.0044  -33.9767   25.0484 H   0  0  0  0  0  0
  -22.6958  -31.3055   21.4072 H   0  0  0  0  0  0
  -23.3739  -35.9640   23.3311 H   0  0  0  0  0  0
  -24.3575  -36.8907   22.2051 H   0  0  0  0  0  0
  -23.7221  -37.6513   23.6638 H   0  0  0  0  0  0
  -26.0448  -31.5949   20.5914 H   0  0  0  0  0  0
  -26.8228  -30.8887   21.9784 H   0  0  0  0  0  0
  -28.1100  -29.0960   21.1624 H   0  0  0  0  0  0
  -26.0698  -25.9620   19.0182 H   0  0  0  0  0  0
  -23.9860  -27.2958   19.0236 H   0  0  0  0  0  0
  -23.7234  -30.5923   19.4011 H   0  0  0  0  0  0
  -22.7413  -29.2360   19.8695 H   0  0  0  0  0  0
  -25.1277  -36.1971   25.0831 H   0  0  0  0  0  0
  -20.9975  -28.3220   24.1428 H   0  0  0  0  0  0
  -20.5629  -26.2280   23.3598 H   0  0  0  0  0  0
  -21.6630  -26.7436   22.1231 H   0  0  0  0  0  0
  -19.6878  -25.6309   21.1239 H   0  0  0  0  0  0
  -19.6672  -27.3216   20.6737 H   0  0  0  0  0  0
  -17.4186  -26.6704   21.4022 H   0  0  0  0  0  0
  -18.0324  -26.0077   22.9025 H   0  0  0  0  0  0
  -19.7933  -30.7279   24.2289 H   0  0  0  0  0  0
  -17.5022  -31.6283   24.5185 H   0  0  0  0  0  0
  -15.5360  -30.3029   23.7639 H   0  0  0  0  0  0
  -15.8663  -28.0852   22.7064 H   0  0  0  0  0  0
  -24.5895  -30.7028   25.7826 H   0  0  0  0  0  0
  -24.8901  -32.2853   26.4907 H   0  0  0  0  0  0
  -25.8086  -30.8886   27.0228 H   0  0  0  0  0  0
  -26.2827  -29.6799   24.1115 H   0  0  0  0  0  0
  -27.4093  -29.7260   25.4494 H   0  0  0  0  0  0
  -27.8642  -30.4391   23.9181 H   0  0  0  0  0  0
  -27.2684  -33.3600   26.2057 H   0  0  0  0  0  0
  -28.3843  -32.6840   25.0278 H   0  0  0  0  0  0
  -28.0706  -31.8390   26.5368 H   0  0  0  0  0  0
  -28.2615  -38.0098   24.7533 H   0  0  0  0  0  0
  -28.1069  -36.2638   24.6285 H   0  0  0  0  0  0
  -27.2313  -37.1454   25.8878 H   0  0  0  0  0  0
  -20.9296  -29.8807   21.6994 H   0  0  0  0  0  0
  -26.0175  -38.2872   24.1427 H   0  0  0  0  0  0
  -32.1094  -19.5026   20.0543 H   0  0  0  0  0  0
  -31.9680  -17.0783   19.9959 H   0  0  0  0  0  0
  -28.4039  -19.7299   22.2053 H   0  0  0  0  0  0
  -30.6464  -23.9473   21.3672 H   0  0  0  0  0  0
  -30.9188  -23.8945   19.5884 H   0  0  0  0  0  0
  -27.6065  -22.2427   20.2576 H   0  0  0  0  0  0
  -28.2727  -22.7712   21.8459 H   0  0  0  0  0  0
  -28.5535  -24.1381   19.1238 H   0  0  0  0  0  0
  -26.0062  -17.1348   23.0513 H   0  0  0  0  0  0
  -26.4144  -18.4733   21.9812 H   0  0  0  0  0  0
  -27.0787  -18.4102   23.6259 H   0  0  0  0  0  0
  -31.5234  -21.5247   21.2360 H   0  0  0  0  0  0
  -30.2029  -21.5944   22.3537 H   0  0  0  0  0  0
  -28.7992  -25.5810   21.8129 H   0  0  0  0  0  0
  -27.2267  -25.2441   21.1916 H   0  0  0  0  0  0
  -29.1218  -15.1628   21.5862 H   0  0  0  0  0  0
  -27.7505  -16.0992   21.9819 H   0  0  0  0  0  0
  -29.7657  -21.9027   19.4351 H   0  0  0  0  0  0
  1 25  1  0  0  0
  1 30  2  0  0  0
  1 83  1  0  0  0
  2  3  1  0  0  0
  2 25  1  0  0  0
  2 86  1  0  0  0
  2 87  1  0  0  0
  3  4  1  0  0  0
  3 88  1  0  0  0
  3 89  1  0  0  0
  4  5  1  0  0  0
  4 90  1  0  0  0
  4 91  1  0  0  0
  5  6  1  0  0  0
  5 26  1  0  0  0
  5 92  1  0  0  0
  6 25  1  0  0  0
  6 93  1  0  0  0
  6 94  1  0  0  0
  7  8  2  0  0  0
  7 26  1  0  0  0
  7 29  1  0  0  0
  8  9  1  0  0  0
  8 22  1  0  0  0
  9 10  1  0  0  0
  9 27  2  0  0  0
 10 11  2  0  0  0
 10 15  1  0  0  0
 11 12  1  0  0  0
 11 95  1  0  0  0
 12 13  2  0  0  0
 12 96  1  0  0  0
 13 14  1  0  0  0
 13 31  1  0  0  0
 14 15  2  0  0  0
 14 97  1  0  0  0
 15 98  1  0  0  0
 16 17  2  0  0  0
 16 21  1  0  0  0
 16 31  1  0  0  0
 17 18  1  0  0  0
 17 99  1  0  0  0
 18 19  2  0  0  0
 18100  1  0  0  0
 19 20  1  0  0  0
 19 24  1  0  0  0
 20 21  2  0  0  0
 20101  1  0  0  0
 21 23  1  0  0  0
 22 28  1  0  0  0
 22 32  2  0  0  0
 26 27  1  0  0  0
 28102  1  0  0  0
 28103  1  0  0  0
 29104  1  0  0  0
 29105  1  0  0  0
 33 34  1  0  0  0
 33 66  1  0  0  0
 33 70  2  0  0  0
 34 36  1  0  0  0
 34 59  1  0  0  0
 34106  1  0  0  0
 35 44  2  0  0  0
 35 45  1  0  0  0
 35 68  1  0  0  0
 36 56  1  0  0  0
 36107  1  0  0  0
 37 39  1  0  0  0
 37 47  1  0  0  0
 37 66  1  0  0  0
 37108  1  0  0  0
 38 43  2  0  0  0
 38 46  1  0  0  0
 38 47  1  0  0  0
 39 64  1  0  0  0
 39 67  2  0  0  0
 40 52  1  0  0  0
 40 53  2  0  0  0
 40 58  1  0  0  0
 41109  1  0  0  0
 41110  1  0  0  0
 41111  1  0  0  0
 41 48  1  0  0  0
 42 43  1  0  0  0
 42 66  1  0  0  0
 42112  1  0  0  0
 42113  1  0  0  0
 43 44  1  0  0  0
 44114  1  0  0  0
 45 46  2  0  0  0
 45115  1  0  0  0
 46116  1  0  0  0
 47117  1  0  0  0
 47118  1  0  0  0
 48 56  1  0  0  0
 48 65  1  0  0  0
 48119  1  0  0  0
 49 50  1  0  0  0
 49 53  1  0  0  0
 49 64  1  0  0  0
 49120  1  0  0  0
 50 51  1  0  0  0
 50121  1  0  0  0
 50122  1  0  0  0
 51 52  1  0  0  0
 51123  1  0  0  0
 51124  1  0  0  0
 52125  1  0  0  0
 52126  1  0  0  0
 53 54  1  0  0  0
 54 55  2  0  0  0
 54127  1  0  0  0
 55 57  1  0  0  0
 55128  1  0  0  0
 56 69  2  0  0  0
 57 58  2  0  0  0
 57129  1  0  0  0
 58130  1  0  0  0
 59 60  1  0  0  0
 59 61  1  0  0  0
 59 62  1  0  0  0
 60131  1  0  0  0
 60132  1  0  0  0
 60133  1  0  0  0
 61134  1  0  0  0
 61135  1  0  0  0
 61136  1  0  0  0
 62137  1  0  0  0
 62138  1  0  0  0
 62139  1  0  0  0
 63 65  1  0  0  0
 63140  1  0  0  0
 63141  1  0  0  0
 63142  1  0  0  0
 64143  1  0  0  0
 65144  1  0  0  0
 68 82  1  0  0  0
 71 72  2  0  0  0
 71 74  1  0  0  0
 71145  1  0  0  0
 72 75  1  0  0  0
 72146  1  0  0  0
 73 74  2  0  0  0
 73 76  1  0  0  0
 73147  1  0  0  0
 74 81  1  0  0  0
 75 76  2  0  0  0
 75 83  1  0  0  0
 76 84  1  0  0  0
 77 79  1  0  0  0
 77 85  1  0  0  0
 77148  1  0  0  0
 77149  1  0  0  0
 78 79  1  0  0  0
 78 85  1  0  0  0
 78150  1  0  0  0
 78151  1  0  0  0
 79 82  1  0  0  0
 79152  1  0  0  0
 80 84  1  0  0  0
 80153  1  0  0  0
 80154  1  0  0  0
 80155  1  0  0  0
 81156  1  0  0  0
 81157  1  0  0  0
 81 85  1  0  0  0
 82158  1  0  0  0
 82159  1  0  0  0
 83160  1  0  0  0
 84161  1  0  0  0
 85162  1  0  0  0
M  CHG  1  85   1
M  ISO  4   1 100  68 101  82 101  83 100
M  END
> <chiral flag>
0

> <version>
0

> <s_m_source_file>
/data/baiqing/PycharmProjects/Reinvent-master-3.2/result/LINK_invent/BTK/process_docking_weight1_custom_product_contain_oxygen_bond_distance_aromatic_linkinvent_7_9_3/rearranged_h_0018.sdf

> <i_m_source_file_index>
87

> <r_mmod_Potential_Energy-OPLS-2005>
-248.077865600586

> <r_mmod_Stretch_Energy-OPLS-2005>
45.9833679199219

> <r_mmod_Bend_Energy-OPLS-2005>
126.973320007324

> <r_mmod_Torsional_Energy-OPLS-2005>
245.602066040039

> <r_mmod_Improper_Torsional_Energy-OPLS-2005>
5.28424739837646

> <r_mmod_Van_der_Waal_Energy-OPLS-2005>
153.858520507812

> <r_mmod_Electrostatic_Energy-OPLS-2005>
-367.618072509766

> <r_mmod_Solvation_Energy-OPLS-2005>
-473.857330322266

> <b_mmod_Minimization_Converged-OPLS-2005>
0

> <r_mmod_RMS_Derivative-OPLS-2005>
1.82916986942291

$$$$
87
                    3D
 Structure written by MMmdl.
159168  0  0  1  0            999 V2000
  -30.5763  -14.9367   20.3530 C   0  0  0  0  0  0
  -30.4346  -12.5610   19.4607 C   0  0  0  0  0  0
  -29.5020  -12.4373   18.2299 C   0  0  0  0  0  0
  -28.0320  -12.2950   18.6594 C   0  0  0  0  0  0
  -27.6259  -13.2469   19.8172 C   0  0  2  0  0  0
  -28.6837  -13.3212   20.9381 C   0  0  0  0  0  0
  -25.2513  -13.8252   20.5745 C   0  0  0  0  0  0
  -24.1807  -13.0464   20.9224 C   0  0  0  0  0  0
  -24.6416  -11.6943   20.8753 C   0  0  0  0  0  0
  -23.9095  -10.4310   21.0405 C   0  0  0  0  0  0
  -24.3647   -9.4233   21.9201 C   0  0  0  0  0  0
  -23.6333   -8.2259   22.0763 C   0  0  0  0  0  0
  -22.4322   -8.0298   21.3548 C   0  0  0  0  0  0
  -21.9946   -9.0277   20.4664 C   0  0  0  0  0  0
  -22.7257  -10.2162   20.3054 C   0  0  0  0  0  0
  -21.6861   -6.0745   22.5283 C   0  0  0  0  0  0
  -21.4030   -6.5655   23.8215 C   0  0  0  0  0  0
  -21.3643   -5.6817   24.9174 C   0  0  0  0  0  0
  -21.6018   -4.3077   24.7251 C   0  0  0  0  0  0
  -21.8824   -3.8150   23.4389 C   0  0  0  0  0  0
  -21.9214   -4.6964   22.3431 C   0  0  0  0  0  0
  -22.7825  -13.5215   21.1916 C   0  0  0  0  0  0
  -22.1694   -4.2128   21.1022 F   0  0  0  0  0  0
  -21.5594   -3.4592   25.7786 F   0  0  0  0  0  0
  -29.9529  -13.6916   20.3019 N   0  0  0  0  0  0
  -26.2900  -12.9467   20.3230 N   0  0  0  0  0  0
  -25.9347  -11.6602   20.5750 N   0  0  0  0  0  0
  -22.0550  -12.8137   22.0472 N   0  0  0  0  0  0
  -25.4242  -15.1986   20.4224 N   0  0  0  0  0  0
  -31.8141  -14.9465   20.3096 O   0  0  0  0  0  0
  -21.6673   -6.8898   21.4239 O   0  0  0  0  0  0
  -22.3484  -14.5523   20.6788 O   0  0  0  0  0  0
  -24.6518  -31.8466   23.1900 C   0  0  0  0  0  0
  -25.9341  -32.4685   23.8245 C   0  0  1  0  0  0
  -27.2000  -27.1509   20.1678 C   0  0  0  0  0  0
  -25.6144  -33.8486   24.2222 N   0  0  0  0  0  0
  -23.4447  -30.4729   21.5323 C   0  0  2  0  0  0
  -24.8980  -28.9056   20.1029 C   0  0  0  0  0  0
  -22.7576  -29.4580   22.4825 C   0  0  0  0  0  0
  -18.0329  -28.1447   22.8507 C   0  0  0  0  0  0
  -24.1504  -36.7088   23.2619 C   0  0  0  0  0  0
  -26.0040  -30.7236   21.3897 C   0  0  0  0  0  0
  -26.0713  -29.3412   20.7297 C   0  0  0  0  0  0
  -27.2291  -28.4791   20.7429 C   0  0  0  0  0  0
  -26.0121  -26.8185   19.4810 C   0  0  0  0  0  0
  -24.8820  -27.6604   19.4561 C   0  0  0  0  0  0
  -23.6740  -29.8097   20.1476 C   0  0  0  0  0  0
  -25.4156  -36.2983   24.0325 C   0  0  1  0  0  0
  -20.5937  -28.3747   23.1259 C   0  0  2  0  0  0
  -20.6791  -26.9457   22.5418 C   0  0  0  0  0  0
  -19.5735  -26.6416   21.5236 C   0  0  0  0  0  0
  -18.1933  -26.7989   22.1656 C   0  0  0  0  0  0
  -19.1596  -28.8933   23.2873 C   0  0  0  0  0  0
  -18.9491  -30.1521   23.8871 C   0  0  0  0  0  0
  -17.6482  -30.6626   24.0600 C   0  0  0  0  0  0
  -25.9130  -34.9389   23.5045 C   0  0  0  0  0  0
  -16.5373  -29.9127   23.6346 C   0  0  0  0  0  0
  -16.7315  -28.6569   23.0355 C   0  0  0  0  0  0
  -26.4650  -31.6510   25.0669 C   0  0  0  0  0  0
  -25.3805  -31.3748   26.1339 C   0  0  0  0  0  0
  -27.0459  -30.2881   24.6221 C   0  0  0  0  0  0
  -27.6186  -32.4240   25.7486 C   0  0  0  0  0  0
  -27.5583  -37.1716   24.8507 C   0  0  0  0  0  0
  -21.4280  -29.3035   22.3572 N   0  0  0  0  0  0
  -26.4280  -37.3724   23.9471 N   0  0  0  0  0  0
  -24.7180  -31.0346   22.0911 N   0  0  0  0  0  0
  -23.4230  -28.8147   23.2994 O   0  0  0  0  0  0
  -28.2289  -26.1547   20.2924 O   0  0  0  0  0  0
  -26.5611  -34.8895   22.4555 O   0  0  0  0  0  0
  -23.5667  -32.1375   23.7123 O   0  0  0  0  0  0
  -28.3241  -19.6326   19.3914 C   0  0  0  0  0  0
  -28.6642  -18.2399   19.2663 C   0  0  0  0  0  0
  -29.7726  -19.8165   21.2314 C   0  0  0  0  0  0
  -28.8477  -20.5233   20.3748 C   0  0  0  0  0  0
  -29.5814  -17.5126   20.0988 C   0  0  0  0  0  0
  -30.1192  -18.3907   21.1137 C   0  0  0  0  0  0
  -27.1778  -22.5955   22.5490 C   0  0  0  0  0  0
  -28.4612  -23.4186   22.3227 C   0  0  0  0  0  0
  -27.0157  -21.7293   21.2875 C   0  0  0  0  0  0
  -28.7141  -23.3273   20.8089 C   0  0  2  0  0  0
  -29.9133  -15.8561   18.2844 C   0  0  0  0  0  0
  -27.9134  -24.6451   20.1339 C   0  0  0  0  0  0
  -28.2400  -21.8780   20.4999 N   0  0  0  0  0  0
  -29.8952  -16.0397   19.7544 N   0  0  0  0  0  0
  -30.9980  -17.8729   22.0037 F   0  0  0  0  0  0
  -31.4589  -12.7180   19.1200 H   0  0  0  0  0  0
  -30.4378  -11.6281   20.0309 H   0  0  0  0  0  0
  -29.7903  -11.5753   17.6221 H   0  0  0  0  0  0
  -29.6078  -13.2790   17.5509 H   0  0  0  0  0  0
  -27.8863  -11.2603   18.9710 H   0  0  0  0  0  0
  -27.3713  -12.4424   17.8042 H   0  0  0  0  0  0
  -27.5708  -14.2365   19.3640 H   0  0  0  0  0  0
  -28.7609  -12.3836   21.4871 H   0  0  0  0  0  0
  -28.3984  -14.0902   21.6605 H   0  0  0  0  0  0
  -25.2818   -9.5738   22.4752 H   0  0  0  0  0  0
  -24.0072   -7.4662   22.7478 H   0  0  0  0  0  0
  -21.0876   -8.8773   19.8995 H   0  0  0  0  0  0
  -22.3713  -10.9683   19.6150 H   0  0  0  0  0  0
  -21.2033   -7.6176   23.9699 H   0  0  0  0  0  0
  -21.1423   -6.0572   25.9065 H   0  0  0  0  0  0
  -22.0609   -2.7617   23.2912 H   0  0  0  0  0  0
  -22.4235  -11.9764   22.4719 H   0  0  0  0  0  0
  -21.1165  -13.1059   22.2732 H   0  0  0  0  0  0
  -24.6657  -15.8578   20.5489 H   0  0  0  0  0  0
  -26.2852  -15.6394   20.1251 H   0  0  0  0  0  0
  -26.7420  -32.5299   23.0961 H   0  0  0  0  0  0
  -25.0559  -33.9570   25.0564 H   0  0  0  0  0  0
  -22.7463  -31.2994   21.3831 H   0  0  0  0  0  0
  -23.3862  -35.9314   23.3312 H   0  0  0  0  0  0
  -24.3565  -36.8653   22.2017 H   0  0  0  0  0  0
  -23.7129  -37.6256   23.6588 H   0  0  0  0  0  0
  -26.1724  -31.4825   20.6216 H   0  0  0  0  0  0
  -26.8715  -30.7651   22.0367 H   0  0  0  0  0  0
  -28.1176  -28.8014   21.2646 H   0  0  0  0  0  0
  -25.9222  -25.8661   18.9830 H   0  0  0  0  0  0
  -23.9922  -27.3336   18.9364 H   0  0  0  0  0  0
  -23.8269  -30.5901   19.4021 H   0  0  0  0  0  0
  -22.7876  -29.2655   19.8172 H   0  0  0  0  0  0
  -25.1345  -36.1756   25.0807 H   0  0  0  0  0  0
  -21.0076  -28.3376   24.1359 H   0  0  0  0  0  0
  -20.5720  -26.2360   23.3638 H   0  0  0  0  0  0
  -21.6645  -26.7458   22.1187 H   0  0  0  0  0  0
  -19.6843  -25.6329   21.1274 H   0  0  0  0  0  0
  -19.6671  -27.3238   20.6787 H   0  0  0  0  0  0
  -17.4216  -26.6836   21.4058 H   0  0  0  0  0  0
  -18.0274  -26.0115   22.9029 H   0  0  0  0  0  0
  -19.7955  -30.7398   24.2177 H   0  0  0  0  0  0
  -17.5027  -31.6283   24.5258 H   0  0  0  0  0  0
  -15.5391  -30.3033   23.7648 H   0  0  0  0  0  0
  -15.8723  -28.0891   22.7033 H   0  0  0  0  0  0
  -24.6065  -30.6985   25.7721 H   0  0  0  0  0  0
  -24.8904  -32.2947   26.4531 H   0  0  0  0  0  0
  -25.8106  -30.9133   27.0227 H   0  0  0  0  0  0
  -26.3035  -29.6604   24.1279 H   0  0  0  0  0  0
  -27.4126  -29.7193   25.4775 H   0  0  0  0  0  0
  -27.8958  -30.4114   23.9494 H   0  0  0  0  0  0
  -27.2821  -33.3592   26.1960 H   0  0  0  0  0  0
  -28.4089  -32.6670   25.0374 H   0  0  0  0  0  0
  -28.0725  -31.8374   26.5465 H   0  0  0  0  0  0
  -28.2644  -37.9995   24.7612 H   0  0  0  0  0  0
  -28.1043  -36.2517   24.6306 H   0  0  0  0  0  0
  -27.2274  -37.1356   25.8907 H   0  0  0  0  0  0
  -20.9495  -29.8669   21.6680 H   0  0  0  0  0  0
  -26.0134  -38.2769   24.1535 H   0  0  0  0  0  0
  -27.5893  -20.0228   18.7031 H   0  0  0  0  0  0
  -28.1699  -17.7186   18.4585 H   0  0  0  0  0  0
  -30.2077  -20.3710   22.0480 H   0  0  0  0  0  0
  -26.3016  -23.2322   22.6663 H   0  0  0  0  0  0
  -27.2466  -21.9939   23.4579 H   0  0  0  0  0  0
  -29.2901  -22.9771   22.8795 H   0  0  0  0  0  0
  -28.3541  -24.4481   22.6786 H   0  0  0  0  0  0
  -26.1570  -22.0540   20.6968 H   0  0  0  0  0  0
  -26.8068  -20.6928   21.5730 H   0  0  0  0  0  0
  -29.7839  -23.4166   20.6029 H   0  0  0  0  0  0
  -28.9327  -15.5526   17.9183 H   0  0  0  0  0  0
  -30.6443  -15.1258   17.9323 H   0  0  0  0  0  0
  -30.2021  -16.7653   17.7595 H   0  0  0  0  0  0
  -26.8830  -24.5288   20.4783 H   0  0  0  0  0  0
  -27.8605  -24.4698   19.0578 H   0  0  0  0  0  0
  1 25  1  0  0  0
  1 30  2  0  0  0
  1 84  1  0  0  0
  2  3  1  0  0  0
  2 25  1  0  0  0
  2 86  1  0  0  0
  2 87  1  0  0  0
  3  4  1  0  0  0
  3 88  1  0  0  0
  3 89  1  0  0  0
  4  5  1  0  0  0
  4 90  1  0  0  0
  4 91  1  0  0  0
  5  6  1  0  0  0
  5 26  1  0  0  0
  5 92  1  0  0  0
  6 25  1  0  0  0
  6 93  1  0  0  0
  6 94  1  0  0  0
  7  8  2  0  0  0
  7 26  1  0  0  0
  7 29  1  0  0  0
  8  9  1  0  0  0
  8 22  1  0  0  0
  9 10  1  0  0  0
  9 27  2  0  0  0
 10 11  2  0  0  0
 10 15  1  0  0  0
 11 12  1  0  0  0
 11 95  1  0  0  0
 12 13  2  0  0  0
 12 96  1  0  0  0
 13 14  1  0  0  0
 13 31  1  0  0  0
 14 15  2  0  0  0
 14 97  1  0  0  0
 15 98  1  0  0  0
 16 17  2  0  0  0
 16 21  1  0  0  0
 16 31  1  0  0  0
 17 18  1  0  0  0
 17 99  1  0  0  0
 18 19  2  0  0  0
 18100  1  0  0  0
 19 20  1  0  0  0
 19 24  1  0  0  0
 20 21  2  0  0  0
 20101  1  0  0  0
 21 23  1  0  0  0
 22 28  1  0  0  0
 22 32  2  0  0  0
 26 27  1  0  0  0
 28102  1  0  0  0
 28103  1  0  0  0
 29104  1  0  0  0
 29105  1  0  0  0
 33 34  1  0  0  0
 33 66  1  0  0  0
 33 70  2  0  0  0
 34 36  1  0  0  0
 34 59  1  0  0  0
 34106  1  0  0  0
 35 44  2  0  0  0
 35 45  1  0  0  0
 35 68  1  0  0  0
 36 56  1  0  0  0
 36107  1  0  0  0
 37 39  1  0  0  0
 37 47  1  0  0  0
 37 66  1  0  0  0
 37108  1  0  0  0
 38 43  2  0  0  0
 38 46  1  0  0  0
 38 47  1  0  0  0
 39 64  1  0  0  0
 39 67  2  0  0  0
 40 52  1  0  0  0
 40 53  2  0  0  0
 40 58  1  0  0  0
 41109  1  0  0  0
 41110  1  0  0  0
 41111  1  0  0  0
 41 48  1  0  0  0
 42 43  1  0  0  0
 42 66  1  0  0  0
 42112  1  0  0  0
 42113  1  0  0  0
 43 44  1  0  0  0
 44114  1  0  0  0
 45 46  2  0  0  0
 45115  1  0  0  0
 46116  1  0  0  0
 47117  1  0  0  0
 47118  1  0  0  0
 48 56  1  0  0  0
 48 65  1  0  0  0
 48119  1  0  0  0
 49 50  1  0  0  0
 49 53  1  0  0  0
 49 64  1  0  0  0
 49120  1  0  0  0
 50 51  1  0  0  0
 50121  1  0  0  0
 50122  1  0  0  0
 51 52  1  0  0  0
 51123  1  0  0  0
 51124  1  0  0  0
 52125  1  0  0  0
 52126  1  0  0  0
 53 54  1  0  0  0
 54 55  2  0  0  0
 54127  1  0  0  0
 55 57  1  0  0  0
 55128  1  0  0  0
 56 69  2  0  0  0
 57 58  2  0  0  0
 57129  1  0  0  0
 58130  1  0  0  0
 59 60  1  0  0  0
 59 61  1  0  0  0
 59 62  1  0  0  0
 60131  1  0  0  0
 60132  1  0  0  0
 60133  1  0  0  0
 61134  1  0  0  0
 61135  1  0  0  0
 61136  1  0  0  0
 62137  1  0  0  0
 62138  1  0  0  0
 62139  1  0  0  0
 63 65  1  0  0  0
 63140  1  0  0  0
 63141  1  0  0  0
 63142  1  0  0  0
 64143  1  0  0  0
 65144  1  0  0  0
 68 82  1  0  0  0
 71 72  2  0  0  0
 71 74  1  0  0  0
 71145  1  0  0  0
 72 75  1  0  0  0
 72146  1  0  0  0
 73 74  2  0  0  0
 73 76  1  0  0  0
 73147  1  0  0  0
 74 83  1  0  0  0
 75 76  2  0  0  0
 75 84  1  0  0  0
 76 85  1  0  0  0
 77 78  1  0  0  0
 77 79  1  0  0  0
 77148  1  0  0  0
 77149  1  0  0  0
 78 80  1  0  0  0
 78150  1  0  0  0
 78151  1  0  0  0
 79 83  1  0  0  0
 79152  1  0  0  0
 79153  1  0  0  0
 80 82  1  0  0  0
 80 83  1  0  0  0
 80154  1  0  0  0
 81 84  1  0  0  0
 81155  1  0  0  0
 81156  1  0  0  0
 81157  1  0  0  0
 82158  1  0  0  0
 82159  1  0  0  0
M  ISO  4   1 100  68 101  82 101  84 100
M  END
> <chiral flag>
0

> <version>
0

> <s_m_source_file>
/data/baiqing/PycharmProjects/Reinvent-master-3.2/result/LINK_invent/BTK/process_docking_weight1_custom_product_contain_oxygen_bond_distance_aromatic_linkinvent_7_9_3/rearranged_h_0018.sdf

> <i_m_source_file_index>
88

> <r_mmod_Potential_Energy-OPLS-2005>
795.76171875

> <r_mmod_Stretch_Energy-OPLS-2005>
223.91276550293

> <r_mmod_Bend_Energy-OPLS-2005>
325.034759521484

> <r_mmod_Torsional_Energy-OPLS-2005>
393.325531005859

> <r_mmod_Improper_Torsional_Energy-OPLS-2005>
34.4699249267578

> <r_mmod_Van_der_Waal_Energy-OPLS-2005>
144.348266601562

> <r_mmod_Electrostatic_Energy-OPLS-2005>
-318.513214111328

> <r_mmod_Solvation_Energy-OPLS-2005>
-207.989227294922

> <b_mmod_Minimization_Converged-OPLS-2005>
0

> <r_mmod_RMS_Derivative-OPLS-2005>
6.51449012756348

$$$$
88
                    3D
 Structure written by MMmdl.
161169  0  0  1  0            999 V2000
  -30.7275  -14.4520   20.5991 C   0  0  0  0  0  0
  -30.4216  -12.3095   19.4093 C   0  0  0  0  0  0
  -29.4851  -12.5085   18.2009 C   0  0  0  0  0  0
  -28.0102  -12.3621   18.6205 C   0  0  0  0  0  0
  -27.6622  -13.1985   19.8779 C   0  0  2  0  0  0
  -28.7097  -12.9829   20.9945 C   0  0  0  0  0  0
  -25.2601  -13.8138   20.5673 C   0  0  0  0  0  0
  -24.1857  -13.0411   20.9207 C   0  0  0  0  0  0
  -24.6413  -11.6887   20.8782 C   0  0  0  0  0  0
  -23.9077  -10.4278   21.0434 C   0  0  0  0  0  0
  -24.3639   -9.4183   21.9198 C   0  0  0  0  0  0
  -23.6306   -8.2220   22.0757 C   0  0  0  0  0  0
  -22.4284   -8.0286   21.3548 C   0  0  0  0  0  0
  -21.9932   -9.0257   20.4638 C   0  0  0  0  0  0
  -22.7260  -10.2135   20.3060 C   0  0  0  0  0  0
  -21.6840   -6.0747   22.5284 C   0  0  0  0  0  0
  -21.4011   -6.5652   23.8219 C   0  0  0  0  0  0
  -21.3661   -5.6809   24.9183 C   0  0  0  0  0  0
  -21.6047   -4.3074   24.7234 C   0  0  0  0  0  0
  -21.8826   -3.8160   23.4355 C   0  0  0  0  0  0
  -21.9189   -4.6972   22.3412 C   0  0  0  0  0  0
  -22.7881  -13.5209   21.1851 C   0  0  0  0  0  0
  -22.1660   -4.2153   21.0989 F   0  0  0  0  0  0
  -21.5618   -3.4559   25.7747 F   0  0  0  0  0  0
  -30.0360  -13.2906   20.4340 N   0  0  0  0  0  0
  -26.3037  -12.9288   20.3412 N   0  0  0  0  0  0
  -25.9341  -11.6454   20.5827 N   0  0  0  0  0  0
  -22.0543  -12.8170   22.0405 N   0  0  0  0  0  0
  -25.4319  -15.1834   20.3987 N   0  0  0  0  0  0
  -31.8559  -14.6287   20.1314 O   0  0  0  0  0  0
  -21.6635   -6.8893   21.4247 O   0  0  0  0  0  0
  -22.3558  -14.5514   20.6712 O   0  0  0  0  0  0
  -24.6165  -31.8702   23.2115 C   0  0  0  0  0  0
  -25.9050  -32.4839   23.8426 C   0  0  1  0  0  0
  -27.2341  -27.4393   20.0813 C   0  0  0  0  0  0
  -25.5900  -33.8638   24.2345 N   0  0  0  0  0  0
  -23.4038  -30.4991   21.5502 C   0  0  2  0  0  0
  -24.8482  -28.9704   20.1124 C   0  0  0  0  0  0
  -22.7414  -29.4704   22.4955 C   0  0  0  0  0  0
  -18.0280  -28.1397   22.8481 C   0  0  0  0  0  0
  -24.1484  -36.7334   23.2634 C   0  0  0  0  0  0
  -25.9350  -30.8371   21.3650 C   0  0  0  0  0  0
  -26.0109  -29.4738   20.7088 C   0  0  0  0  0  0
  -27.2065  -28.7165   20.6906 C   0  0  0  0  0  0
  -26.0458  -26.9580   19.4768 C   0  0  0  0  0  0
  -24.8611  -27.7116   19.4942 C   0  0  0  0  0  0
  -23.6109  -29.8358   20.1639 C   0  0  0  0  0  0
  -25.4103  -36.3123   24.0336 C   0  0  1  0  0  0
  -20.5871  -28.3700   23.1289 C   0  0  2  0  0  0
  -20.6773  -26.9430   22.5408 C   0  0  0  0  0  0
  -19.5753  -26.6391   21.5205 C   0  0  0  0  0  0
  -18.1932  -26.7940   22.1615 C   0  0  0  0  0  0
  -19.1530  -28.8859   23.2892 C   0  0  0  0  0  0
  -18.9461  -30.1457   23.8916 C   0  0  0  0  0  0
  -17.6465  -30.6595   24.0574 C   0  0  0  0  0  0
  -25.9028  -34.9486   23.5135 C   0  0  0  0  0  0
  -16.5352  -29.9104   23.6318 C   0  0  0  0  0  0
  -16.7269  -28.6517   23.0346 C   0  0  0  0  0  0
  -26.4461  -31.6625   25.0764 C   0  0  0  0  0  0
  -25.3719  -31.3750   26.1507 C   0  0  0  0  0  0
  -27.0294  -30.3062   24.6166 C   0  0  0  0  0  0
  -27.6040  -32.4339   25.7533 C   0  0  0  0  0  0
  -27.5585  -37.1820   24.8453 C   0  0  0  0  0  0
  -21.4141  -29.3073   22.3689 N   0  0  0  0  0  0
  -26.4291  -37.3811   23.9411 N   0  0  0  0  0  0
  -24.6703  -31.0824   22.1007 N   0  0  0  0  0  0
  -23.4183  -28.8228   23.2990 O   0  0  0  0  0  0
  -28.4042  -26.6980   20.0943 O   0  0  0  0  0  0
  -26.5590  -34.8932   22.4696 O   0  0  0  0  0  0
  -23.5350  -32.1445   23.7502 O   0  0  0  0  0  0
  -28.6861  -18.7220   21.3502 C   0  0  0  0  0  0
  -28.9001  -20.1155   21.3910 C   0  0  0  0  0  0
  -30.8262  -19.8522   19.9412 C   0  0  0  0  0  0
  -29.5293  -17.8727   20.5970 C   0  0  0  0  0  0
  -30.6048  -18.4558   19.8735 C   0  0  0  0  0  0
  -29.9782  -20.6950   20.6893 C   0  0  0  0  0  0
  -31.5365  -17.6288   19.0035 C   0  0  0  0  0  0
  -30.6474  -15.9343   22.5267 C   0  0  0  0  0  0
  -29.1980  -16.3708   20.5435 C   0  0  0  0  0  0
  -29.4840  -24.4423   20.2675 C   0  0  0  0  0  0
  -29.1057  -22.9444   20.3546 C   0  0  0  0  0  0
  -28.2623  -25.2885   19.8600 C   0  0  0  0  0  0
  -30.2262  -22.0789   20.7224 N   0  0  0  0  0  0
  -30.0901  -15.4401   21.2678 N   0  0  0  0  0  0
  -31.4628  -12.4145   19.0982 H   0  0  0  0  0  0
  -30.3306  -11.2973   19.8055 H   0  0  0  0  0  0
  -29.7227  -11.7902   17.4152 H   0  0  0  0  0  0
  -29.6453  -13.4989   17.7711 H   0  0  0  0  0  0
  -27.8230  -11.3064   18.8163 H   0  0  0  0  0  0
  -27.3543  -12.6420   17.7950 H   0  0  0  0  0  0
  -27.7002  -14.2430   19.5754 H   0  0  0  0  0  0
  -28.6923  -11.9482   21.3412 H   0  0  0  0  0  0
  -28.4730  -13.5866   21.8717 H   0  0  0  0  0  0
  -25.2792   -9.5636   22.4776 H   0  0  0  0  0  0
  -24.0004   -7.4609   22.7479 H   0  0  0  0  0  0
  -21.0864   -8.8792   19.8943 H   0  0  0  0  0  0
  -22.3734  -10.9692   19.6184 H   0  0  0  0  0  0
  -21.2015   -7.6165   23.9718 H   0  0  0  0  0  0
  -21.1471   -6.0547   25.9085 H   0  0  0  0  0  0
  -22.0604   -2.7618   23.2859 H   0  0  0  0  0  0
  -22.4197  -11.9824   22.4749 H   0  0  0  0  0  0
  -21.1167  -13.1181   22.2659 H   0  0  0  0  0  0
  -24.6603  -15.8365   20.4874 H   0  0  0  0  0  0
  -26.2736  -15.6119   20.0385 H   0  0  0  0  0  0
  -26.7143  -32.5558   23.1217 H   0  0  0  0  0  0
  -25.0056  -33.9807   25.0493 H   0  0  0  0  0  0
  -22.6940  -31.3174   21.4130 H   0  0  0  0  0  0
  -23.3747  -35.9666   23.3284 H   0  0  0  0  0  0
  -24.3591  -36.8964   22.2057 H   0  0  0  0  0  0
  -23.7227  -37.6531   23.6667 H   0  0  0  0  0  0
  -26.0498  -31.6041   20.5980 H   0  0  0  0  0  0
  -26.8227  -30.8885   21.9846 H   0  0  0  0  0  0
  -28.1029  -29.1040   21.1550 H   0  0  0  0  0  0
  -26.0051  -26.0015   18.9773 H   0  0  0  0  0  0
  -23.9701  -27.3206   19.0228 H   0  0  0  0  0  0
  -23.7156  -30.6117   19.4043 H   0  0  0  0  0  0
  -22.7348  -29.2545   19.8705 H   0  0  0  0  0  0
  -25.1270  -36.2003   25.0835 H   0  0  0  0  0  0
  -20.9979  -28.3287   24.1403 H   0  0  0  0  0  0
  -20.5672  -26.2320   23.3607 H   0  0  0  0  0  0
  -21.6647  -26.7468   22.1216 H   0  0  0  0  0  0
  -19.6922  -25.6303   21.1245 H   0  0  0  0  0  0
  -19.6691  -27.3181   20.6721 H   0  0  0  0  0  0
  -17.4203  -26.6683   21.4019 H   0  0  0  0  0  0
  -18.0332  -26.0081   22.9014 H   0  0  0  0  0  0
  -19.7943  -30.7253   24.2301 H   0  0  0  0  0  0
  -17.5033  -31.6278   24.5176 H   0  0  0  0  0  0
  -15.5362  -30.3022   23.7630 H   0  0  0  0  0  0
  -15.8666  -28.0843   22.7052 H   0  0  0  0  0  0
  -24.5875  -30.7112   25.7851 H   0  0  0  0  0  0
  -24.8921  -32.2913   26.4956 H   0  0  0  0  0  0
  -25.8056  -30.8924   27.0274 H   0  0  0  0  0  0
  -26.2864  -29.6846   24.1155 H   0  0  0  0  0  0
  -27.3974  -29.7284   25.4657 H   0  0  0  0  0  0
  -27.8737  -30.4372   23.9389 H   0  0  0  0  0  0
  -27.2674  -33.3646   26.2114 H   0  0  0  0  0  0
  -28.3854  -32.6885   25.0361 H   0  0  0  0  0  0
  -28.0702  -31.8456   26.5449 H   0  0  0  0  0  0
  -28.2575  -38.0145   24.7537 H   0  0  0  0  0  0
  -28.1106  -36.2676   24.6231 H   0  0  0  0  0  0
  -27.2315  -37.1412   25.8855 H   0  0  0  0  0  0
  -20.9289  -29.8836   21.6955 H   0  0  0  0  0  0
  -26.0179  -38.2889   24.1428 H   0  0  0  0  0  0
  -27.8521  -18.3092   21.9012 H   0  0  0  0  0  0
  -28.2337  -20.7272   21.9815 H   0  0  0  0  0  0
  -31.6521  -20.2819   19.3899 H   0  0  0  0  0  0
  -32.0083  -18.2486   18.2405 H   0  0  0  0  0  0
  -31.0129  -16.8306   18.4785 H   0  0  0  0  0  0
  -32.3325  -17.1935   19.6094 H   0  0  0  0  0  0
  -29.8920  -16.4720   23.1005 H   0  0  0  0  0  0
  -31.4907  -16.6011   22.3471 H   0  0  0  0  0  0
  -30.9940  -15.1079   23.1484 H   0  0  0  0  0  0
  -29.1107  -16.0849   19.4935 H   0  0  0  0  0  0
  -28.1997  -16.2234   20.9566 H   0  0  0  0  0  0
  -30.2864  -24.5945   19.5436 H   0  0  0  0  0  0
  -29.8580  -24.7839   21.2334 H   0  0  0  0  0  0
  -28.7006  -22.6156   19.3959 H   0  0  0  0  0  0
  -28.3040  -22.8255   21.0841 H   0  0  0  0  0  0
  -27.4096  -24.9187   20.4319 H   0  0  0  0  0  0
  -28.0490  -25.1155   18.8043 H   0  0  0  0  0  0
  -31.1257  -22.3669   20.3442 H   0  0  0  0  0  0
  1 25  1  0  0  0
  1 30  2  0  0  0
  1 84  1  0  0  0
  2  3  1  0  0  0
  2 25  1  0  0  0
  2 85  1  0  0  0
  2 86  1  0  0  0
  3  4  1  0  0  0
  3 87  1  0  0  0
  3 88  1  0  0  0
  4  5  1  0  0  0
  4 89  1  0  0  0
  4 90  1  0  0  0
  5  6  1  0  0  0
  5 26  1  0  0  0
  5 91  1  0  0  0
  6 25  1  0  0  0
  6 92  1  0  0  0
  6 93  1  0  0  0
  7  8  2  0  0  0
  7 26  1  0  0  0
  7 29  1  0  0  0
  8  9  1  0  0  0
  8 22  1  0  0  0
  9 10  1  0  0  0
  9 27  2  0  0  0
 10 11  2  0  0  0
 10 15  1  0  0  0
 11 12  1  0  0  0
 11 94  1  0  0  0
 12 13  2  0  0  0
 12 95  1  0  0  0
 13 14  1  0  0  0
 13 31  1  0  0  0
 14 15  2  0  0  0
 14 96  1  0  0  0
 15 97  1  0  0  0
 16 17  2  0  0  0
 16 21  1  0  0  0
 16 31  1  0  0  0
 17 18  1  0  0  0
 17 98  1  0  0  0
 18 19  2  0  0  0
 18 99  1  0  0  0
 19 20  1  0  0  0
 19 24  1  0  0  0
 20 21  2  0  0  0
 20100  1  0  0  0
 21 23  1  0  0  0
 22 28  1  0  0  0
 22 32  2  0  0  0
 26 27  1  0  0  0
 28101  1  0  0  0
 28102  1  0  0  0
 29103  1  0  0  0
 29104  1  0  0  0
 33 34  1  0  0  0
 33 66  1  0  0  0
 33 70  2  0  0  0
 34 36  1  0  0  0
 34 59  1  0  0  0
 34105  1  0  0  0
 35 44  2  0  0  0
 35 45  1  0  0  0
 35 68  1  0  0  0
 36 56  1  0  0  0
 36106  1  0  0  0
 37 39  1  0  0  0
 37 47  1  0  0  0
 37 66  1  0  0  0
 37107  1  0  0  0
 38 43  2  0  0  0
 38 46  1  0  0  0
 38 47  1  0  0  0
 39 64  1  0  0  0
 39 67  2  0  0  0
 40 52  1  0  0  0
 40 53  2  0  0  0
 40 58  1  0  0  0
 41108  1  0  0  0
 41109  1  0  0  0
 41110  1  0  0  0
 41 48  1  0  0  0
 42 43  1  0  0  0
 42 66  1  0  0  0
 42111  1  0  0  0
 42112  1  0  0  0
 43 44  1  0  0  0
 44113  1  0  0  0
 45 46  2  0  0  0
 45114  1  0  0  0
 46115  1  0  0  0
 47116  1  0  0  0
 47117  1  0  0  0
 48 56  1  0  0  0
 48 65  1  0  0  0
 48118  1  0  0  0
 49 50  1  0  0  0
 49 53  1  0  0  0
 49 64  1  0  0  0
 49119  1  0  0  0
 50 51  1  0  0  0
 50120  1  0  0  0
 50121  1  0  0  0
 51 52  1  0  0  0
 51122  1  0  0  0
 51123  1  0  0  0
 52124  1  0  0  0
 52125  1  0  0  0
 53 54  1  0  0  0
 54 55  2  0  0  0
 54126  1  0  0  0
 55 57  1  0  0  0
 55127  1  0  0  0
 56 69  2  0  0  0
 57 58  2  0  0  0
 57128  1  0  0  0
 58129  1  0  0  0
 59 60  1  0  0  0
 59 61  1  0  0  0
 59 62  1  0  0  0
 60130  1  0  0  0
 60131  1  0  0  0
 60132  1  0  0  0
 61133  1  0  0  0
 61134  1  0  0  0
 61135  1  0  0  0
 62136  1  0  0  0
 62137  1  0  0  0
 62138  1  0  0  0
 63 65  1  0  0  0
 63139  1  0  0  0
 63140  1  0  0  0
 63141  1  0  0  0
 64142  1  0  0  0
 65143  1  0  0  0
 68 82  1  0  0  0
 71 72  2  0  0  0
 71 74  1  0  0  0
 71144  1  0  0  0
 72 76  1  0  0  0
 72145  1  0  0  0
 73 75  1  0  0  0
 73 76  2  0  0  0
 73146  1  0  0  0
 74 75  2  0  0  0
 74 79  1  0  0  0
 75 77  1  0  0  0
 76 83  1  0  0  0
 77147  1  0  0  0
 77148  1  0  0  0
 77149  1  0  0  0
 78 84  1  0  0  0
 78150  1  0  0  0
 78151  1  0  0  0
 78152  1  0  0  0
 79 84  1  0  0  0
 79153  1  0  0  0
 79154  1  0  0  0
 80 81  1  0  0  0
 80 82  1  0  0  0
 80155  1  0  0  0
 80156  1  0  0  0
 81 83  1  0  0  0
 81157  1  0  0  0
 81158  1  0  0  0
 82159  1  0  0  0
 82160  1  0  0  0
 83161  1  0  0  0
M  ISO  4   1 100  68 101  82 101  84 100
M  END
> <chiral flag>
0

> <version>
0

> <s_m_source_file>
/data/baiqing/PycharmProjects/Reinvent-master-3.2/result/LINK_invent/BTK/process_docking_weight1_custom_product_contain_oxygen_bond_distance_aromatic_linkinvent_7_9_3/rearranged_h_0018.sdf

> <i_m_source_file_index>
89

> <r_mmod_Potential_Energy-OPLS-2005>
69.30859375

> <r_mmod_Stretch_Energy-OPLS-2005>
38.0257225036621

> <r_mmod_Bend_Energy-OPLS-2005>
95.9719390869141

> <r_mmod_Torsional_Energy-OPLS-2005>
280.688598632812

> <r_mmod_Improper_Torsional_Energy-OPLS-2005>
7.28375577926636

> <r_mmod_Van_der_Waal_Energy-OPLS-2005>
153.46354675293

> <r_mmod_Electrostatic_Energy-OPLS-2005>
-313.813812255859

> <r_mmod_Solvation_Energy-OPLS-2005>
-204.751205444336

> <b_mmod_Minimization_Converged-OPLS-2005>
0

> <r_mmod_RMS_Derivative-OPLS-2005>
2.4210033416748

$$$$
89
                    3D
 Structure written by MMmdl.
158166  0  0  1  0            999 V2000
  -30.7033  -14.4484   20.5708 C   0  0  0  0  0  0
  -30.4213  -12.2926   19.4153 C   0  0  0  0  0  0
  -29.4919  -12.5047   18.2028 C   0  0  0  0  0  0
  -28.0122  -12.3739   18.6153 C   0  0  0  0  0  0
  -27.6626  -13.2055   19.8788 C   0  0  2  0  0  0
  -28.7045  -12.9704   20.9956 C   0  0  0  0  0  0
  -25.2589  -13.8167   20.5698 C   0  0  0  0  0  0
  -24.1831  -13.0436   20.9153 C   0  0  0  0  0  0
  -24.6388  -11.6907   20.8720 C   0  0  0  0  0  0
  -23.9053  -10.4296   21.0389 C   0  0  0  0  0  0
  -24.3607   -9.4216   21.9175 C   0  0  0  0  0  0
  -23.6283   -8.2253   22.0751 C   0  0  0  0  0  0
  -22.4267   -8.0285   21.3540 C   0  0  0  0  0  0
  -21.9894   -9.0257   20.4644 C   0  0  0  0  0  0
  -22.7217  -10.2137   20.3047 C   0  0  0  0  0  0
  -21.6856   -6.0733   22.5276 C   0  0  0  0  0  0
  -21.4021   -6.5639   23.8209 C   0  0  0  0  0  0
  -21.3661   -5.6788   24.9168 C   0  0  0  0  0  0
  -21.6042   -4.3051   24.7219 C   0  0  0  0  0  0
  -21.8821   -3.8145   23.4342 C   0  0  0  0  0  0
  -21.9193   -4.6959   22.3397 C   0  0  0  0  0  0
  -22.7854  -13.5239   21.1829 C   0  0  0  0  0  0
  -22.1658   -4.2152   21.0971 F   0  0  0  0  0  0
  -21.5624   -3.4535   25.7731 F   0  0  0  0  0  0
  -30.0373  -13.2708   20.4437 N   0  0  0  0  0  0
  -26.3030  -12.9336   20.3392 N   0  0  0  0  0  0
  -25.9318  -11.6496   20.5774 N   0  0  0  0  0  0
  -22.0499  -12.8240   22.0397 N   0  0  0  0  0  0
  -25.4311  -15.1895   20.4205 N   0  0  0  0  0  0
  -31.8324  -14.6297   20.1071 O   0  0  0  0  0  0
  -21.6635   -6.8882   21.4241 O   0  0  0  0  0  0
  -22.3535  -14.5544   20.6680 O   0  0  0  0  0  0
  -24.6123  -31.8695   23.2099 C   0  0  0  0  0  0
  -25.9025  -32.4832   23.8393 C   0  0  1  0  0  0
  -27.2360  -27.4526   20.1021 C   0  0  0  0  0  0
  -25.5883  -33.8627   24.2324 N   0  0  0  0  0  0
  -23.4001  -30.4913   21.5494 C   0  0  2  0  0  0
  -24.8474  -28.9550   20.1182 C   0  0  0  0  0  0
  -22.7400  -29.4665   22.4989 C   0  0  0  0  0  0
  -18.0276  -28.1382   22.8489 C   0  0  0  0  0  0
  -24.1478  -36.7307   23.2637 C   0  0  0  0  0  0
  -25.9255  -30.8428   21.3583 C   0  0  0  0  0  0
  -26.0058  -29.4763   20.7095 C   0  0  0  0  0  0
  -27.2059  -28.7329   20.6944 C   0  0  0  0  0  0
  -26.0641  -26.9355   19.5127 C   0  0  0  0  0  0
  -24.8696  -27.6825   19.5179 C   0  0  0  0  0  0
  -23.6086  -29.8201   20.1648 C   0  0  0  0  0  0
  -25.4098  -36.3107   24.0340 C   0  0  1  0  0  0
  -20.5863  -28.3662   23.1322 C   0  0  2  0  0  0
  -20.6766  -26.9400   22.5424 C   0  0  0  0  0  0
  -19.5748  -26.6386   21.5213 C   0  0  0  0  0  0
  -18.1925  -26.7931   22.1620 C   0  0  0  0  0  0
  -19.1525  -28.8838   23.2907 C   0  0  0  0  0  0
  -18.9454  -30.1437   23.8932 C   0  0  0  0  0  0
  -17.6457  -30.6582   24.0580 C   0  0  0  0  0  0
  -25.9029  -34.9478   23.5130 C   0  0  0  0  0  0
  -16.5349  -29.9094   23.6323 C   0  0  0  0  0  0
  -16.7265  -28.6511   23.0345 C   0  0  0  0  0  0
  -26.4458  -31.6604   25.0713 C   0  0  0  0  0  0
  -25.3730  -31.3716   26.1465 C   0  0  0  0  0  0
  -27.0276  -30.3051   24.6061 C   0  0  0  0  0  0
  -27.6043  -32.4321   25.7460 C   0  0  0  0  0  0
  -27.5581  -37.1794   24.8458 C   0  0  0  0  0  0
  -21.4133  -29.3020   22.3721 N   0  0  0  0  0  0
  -26.4280  -37.3796   23.9420 N   0  0  0  0  0  0
  -24.6643  -31.0817   22.0985 N   0  0  0  0  0  0
  -23.4175  -28.8228   23.3048 O   0  0  0  0  0  0
  -28.4065  -26.7343   20.0759 O   0  0  0  0  0  0
  -26.5604  -34.8931   22.4695 O   0  0  0  0  0  0
  -23.5322  -32.1435   23.7509 O   0  0  0  0  0  0
  -31.6477  -18.8212   20.9280 C   0  0  0  0  0  0
  -31.4873  -17.4312   21.0912 C   0  0  0  0  0  0
  -29.2667  -19.0679   20.5517 C   0  0  0  0  0  0
  -30.5465  -19.6707   20.6435 C   0  0  0  0  0  0
  -30.2119  -16.8424   20.9662 C   0  0  0  0  0  0
  -29.1027  -17.6735   20.7138 C   0  0  0  0  0  0
  -32.0545  -21.6432   20.7418 C   0  0  0  0  0  0
  -29.2005  -23.0497   20.6567 C   0  0  0  0  0  0
  -28.8083  -24.3219   19.8702 C   0  0  0  0  0  0
  -29.7745  -21.9253   19.7638 C   0  0  0  0  0  0
  -28.3860  -25.4899   20.7830 C   0  0  0  0  0  0
  -29.9863  -15.4450   21.1188 N   0  0  0  0  0  0
  -30.7329  -21.0708   20.4776 N   0  0  0  0  0  0
  -27.8685  -17.1217   20.6129 F   0  0  0  0  0  0
  -31.4653  -12.3902   19.1122 H   0  0  0  0  0  0
  -30.3202  -11.2793   19.8065 H   0  0  0  0  0  0
  -29.7249  -11.7831   17.4185 H   0  0  0  0  0  0
  -29.6679  -13.4912   17.7696 H   0  0  0  0  0  0
  -27.8129  -11.3177   18.8007 H   0  0  0  0  0  0
  -27.3654  -12.6626   17.7865 H   0  0  0  0  0  0
  -27.7097  -14.2559   19.5905 H   0  0  0  0  0  0
  -28.6758  -11.9309   21.3267 H   0  0  0  0  0  0
  -28.4713  -13.5617   21.8824 H   0  0  0  0  0  0
  -25.2758   -9.5689   22.4742 H   0  0  0  0  0  0
  -23.9992   -7.4646   22.7468 H   0  0  0  0  0  0
  -21.0825   -8.8775   19.8950 H   0  0  0  0  0  0
  -22.3679  -10.9673   19.6154 H   0  0  0  0  0  0
  -21.2024   -7.6148   23.9713 H   0  0  0  0  0  0
  -21.1475   -6.0518   25.9071 H   0  0  0  0  0  0
  -22.0601   -2.7603   23.2838 H   0  0  0  0  0  0
  -22.4119  -11.9912   22.4798 H   0  0  0  0  0  0
  -21.1117  -13.1275   22.2607 H   0  0  0  0  0  0
  -24.6710  -15.8442   20.5674 H   0  0  0  0  0  0
  -26.3067  -15.6498   20.1987 H   0  0  0  0  0  0
  -26.7102  -32.5558   23.1173 H   0  0  0  0  0  0
  -25.0028  -33.9789   25.0465 H   0  0  0  0  0  0
  -22.6874  -31.3063   21.4088 H   0  0  0  0  0  0
  -23.3746  -35.9632   23.3296 H   0  0  0  0  0  0
  -24.3575  -36.8929   22.2053 H   0  0  0  0  0  0
  -23.7220  -37.6502   23.6660 H   0  0  0  0  0  0
  -26.0315  -31.6087   20.5883 H   0  0  0  0  0  0
  -26.8159  -30.9018   21.9726 H   0  0  0  0  0  0
  -28.1039  -29.1325   21.1447 H   0  0  0  0  0  0
  -26.0782  -25.9609   19.0456 H   0  0  0  0  0  0
  -23.9783  -27.2748   19.0605 H   0  0  0  0  0  0
  -23.7175  -30.5936   19.4034 H   0  0  0  0  0  0
  -22.7333  -29.2390   19.8690 H   0  0  0  0  0  0
  -25.1271  -36.1972   25.0832 H   0  0  0  0  0  0
  -20.9957  -28.3240   24.1443 H   0  0  0  0  0  0
  -20.5663  -26.2275   23.3609 H   0  0  0  0  0  0
  -21.6644  -26.7447   22.1227 H   0  0  0  0  0  0
  -19.6916  -25.6303   21.1228 H   0  0  0  0  0  0
  -19.6692  -27.3211   20.6758 H   0  0  0  0  0  0
  -17.4195  -26.6680   21.4020 H   0  0  0  0  0  0
  -18.0323  -26.0069   22.9008 H   0  0  0  0  0  0
  -19.7930  -30.7240   24.2324 H   0  0  0  0  0  0
  -17.5015  -31.6263   24.5188 H   0  0  0  0  0  0
  -15.5352  -30.3013   23.7624 H   0  0  0  0  0  0
  -15.8663  -28.0839   22.7049 H   0  0  0  0  0  0
  -24.5887  -30.7084   25.7804 H   0  0  0  0  0  0
  -24.8945  -32.2880   26.4932 H   0  0  0  0  0  0
  -25.8079  -30.8861   27.0210 H   0  0  0  0  0  0
  -26.2803  -29.6815   24.1141 H   0  0  0  0  0  0
  -27.4089  -29.7281   25.4495 H   0  0  0  0  0  0
  -27.8619  -30.4375   23.9171 H   0  0  0  0  0  0
  -27.2667  -33.3604   26.2079 H   0  0  0  0  0  0
  -28.3821  -32.6908   25.0265 H   0  0  0  0  0  0
  -28.0746  -31.8427   26.5339 H   0  0  0  0  0  0
  -28.2587  -38.0105   24.7541 H   0  0  0  0  0  0
  -28.1087  -36.2645   24.6226 H   0  0  0  0  0  0
  -27.2312  -37.1383   25.8863 H   0  0  0  0  0  0
  -20.9298  -29.8704   21.6908 H   0  0  0  0  0  0
  -26.0170  -38.2862   24.1462 H   0  0  0  0  0  0
  -32.6516  -19.2065   21.0253 H   0  0  0  0  0  0
  -32.3556  -16.8267   21.3128 H   0  0  0  0  0  0
  -28.3817  -19.6567   20.3684 H   0  0  0  0  0  0
  -32.3610  -21.4603   21.7728 H   0  0  0  0  0  0
  -32.0607  -22.7233   20.5882 H   0  0  0  0  0  0
  -32.8084  -21.2254   20.0728 H   0  0  0  0  0  0
  -28.3435  -22.6715   21.2155 H   0  0  0  0  0  0
  -29.9372  -23.3375   21.4071 H   0  0  0  0  0  0
  -28.0124  -24.1001   19.1581 H   0  0  0  0  0  0
  -29.6682  -24.6417   19.2802 H   0  0  0  0  0  0
  -30.3206  -22.3786   18.9343 H   0  0  0  0  0  0
  -28.9694  -21.3676   19.2869 H   0  0  0  0  0  0
  -29.0993  -25.5868   21.6026 H   0  0  0  0  0  0
  -27.4219  -25.2801   21.2506 H   0  0  0  0  0  0
  -29.0464  -15.1894   21.3803 H   0  0  0  0  0  0
  1 25  1  0  0  0
  1 30  2  0  0  0
  1 82  1  0  0  0
  2  3  1  0  0  0
  2 25  1  0  0  0
  2 85  1  0  0  0
  2 86  1  0  0  0
  3  4  1  0  0  0
  3 87  1  0  0  0
  3 88  1  0  0  0
  4  5  1  0  0  0
  4 89  1  0  0  0
  4 90  1  0  0  0
  5  6  1  0  0  0
  5 26  1  0  0  0
  5 91  1  0  0  0
  6 25  1  0  0  0
  6 92  1  0  0  0
  6 93  1  0  0  0
  7  8  2  0  0  0
  7 26  1  0  0  0
  7 29  1  0  0  0
  8  9  1  0  0  0
  8 22  1  0  0  0
  9 10  1  0  0  0
  9 27  2  0  0  0
 10 11  2  0  0  0
 10 15  1  0  0  0
 11 12  1  0  0  0
 11 94  1  0  0  0
 12 13  2  0  0  0
 12 95  1  0  0  0
 13 14  1  0  0  0
 13 31  1  0  0  0
 14 15  2  0  0  0
 14 96  1  0  0  0
 15 97  1  0  0  0
 16 17  2  0  0  0
 16 21  1  0  0  0
 16 31  1  0  0  0
 17 18  1  0  0  0
 17 98  1  0  0  0
 18 19  2  0  0  0
 18 99  1  0  0  0
 19 20  1  0  0  0
 19 24  1  0  0  0
 20 21  2  0  0  0
 20100  1  0  0  0
 21 23  1  0  0  0
 22 28  1  0  0  0
 22 32  2  0  0  0
 26 27  1  0  0  0
 28101  1  0  0  0
 28102  1  0  0  0
 29103  1  0  0  0
 29104  1  0  0  0
 33 34  1  0  0  0
 33 66  1  0  0  0
 33 70  2  0  0  0
 34 36  1  0  0  0
 34 59  1  0  0  0
 34105  1  0  0  0
 35 44  2  0  0  0
 35 45  1  0  0  0
 35 68  1  0  0  0
 36 56  1  0  0  0
 36106  1  0  0  0
 37 39  1  0  0  0
 37 47  1  0  0  0
 37 66  1  0  0  0
 37107  1  0  0  0
 38 43  2  0  0  0
 38 46  1  0  0  0
 38 47  1  0  0  0
 39 64  1  0  0  0
 39 67  2  0  0  0
 40 52  1  0  0  0
 40 53  2  0  0  0
 40 58  1  0  0  0
 41108  1  0  0  0
 41109  1  0  0  0
 41110  1  0  0  0
 41 48  1  0  0  0
 42 43  1  0  0  0
 42 66  1  0  0  0
 42111  1  0  0  0
 42112  1  0  0  0
 43 44  1  0  0  0
 44113  1  0  0  0
 45 46  2  0  0  0
 45114  1  0  0  0
 46115  1  0  0  0
 47116  1  0  0  0
 47117  1  0  0  0
 48 56  1  0  0  0
 48 65  1  0  0  0
 48118  1  0  0  0
 49 50  1  0  0  0
 49 53  1  0  0  0
 49 64  1  0  0  0
 49119  1  0  0  0
 50 51  1  0  0  0
 50120  1  0  0  0
 50121  1  0  0  0
 51 52  1  0  0  0
 51122  1  0  0  0
 51123  1  0  0  0
 52124  1  0  0  0
 52125  1  0  0  0
 53 54  1  0  0  0
 54 55  2  0  0  0
 54126  1  0  0  0
 55 57  1  0  0  0
 55127  1  0  0  0
 56 69  2  0  0  0
 57 58  2  0  0  0
 57128  1  0  0  0
 58129  1  0  0  0
 59 60  1  0  0  0
 59 61  1  0  0  0
 59 62  1  0  0  0
 60130  1  0  0  0
 60131  1  0  0  0
 60132  1  0  0  0
 61133  1  0  0  0
 61134  1  0  0  0
 61135  1  0  0  0
 62136  1  0  0  0
 62137  1  0  0  0
 62138  1  0  0  0
 63 65  1  0  0  0
 63139  1  0  0  0
 63140  1  0  0  0
 63141  1  0  0  0
 64142  1  0  0  0
 65143  1  0  0  0
 68 81  1  0  0  0
 71 72  2  0  0  0
 71 74  1  0  0  0
 71144  1  0  0  0
 72 75  1  0  0  0
 72145  1  0  0  0
 73 74  2  0  0  0
 73 76  1  0  0  0
 73146  1  0  0  0
 74 83  1  0  0  0
 75 76  2  0  0  0
 75 82  1  0  0  0
 76 84  1  0  0  0
 77 83  1  0  0  0
 77147  1  0  0  0
 77148  1  0  0  0
 77149  1  0  0  0
 78 79  1  0  0  0
 78 80  1  0  0  0
 78150  1  0  0  0
 78151  1  0  0  0
 79 81  1  0  0  0
 79152  1  0  0  0
 79153  1  0  0  0
 80 83  1  0  0  0
 80154  1  0  0  0
 80155  1  0  0  0
 81156  1  0  0  0
 81157  1  0  0  0
 82158  1  0  0  0
M  ISO  4   1 100  68 101  81 101  82 100
M  END
> <chiral flag>
0

> <version>
0

> <s_m_source_file>
/data/baiqing/PycharmProjects/Reinvent-master-3.2/result/LINK_invent/BTK/process_docking_weight1_custom_product_contain_oxygen_bond_distance_aromatic_linkinvent_7_9_3/rearranged_h_0018.sdf

> <i_m_source_file_index>
90

> <r_mmod_Potential_Energy-OPLS-2005>
-87.8514785766602

> <r_mmod_Stretch_Energy-OPLS-2005>
35.9657974243164

> <r_mmod_Bend_Energy-OPLS-2005>
106.249954223633

> <r_mmod_Torsional_Energy-OPLS-2005>
232.63835144043

> <r_mmod_Improper_Torsional_Energy-OPLS-2005>
4.76454544067383

> <r_mmod_Van_der_Waal_Energy-OPLS-2005>
162.193115234375

> <r_mmod_Electrostatic_Energy-OPLS-2005>
-432.126739501953

> <r_mmod_Solvation_Energy-OPLS-2005>
-207.853225708008

> <b_mmod_Minimization_Converged-OPLS-2005>
0

> <r_mmod_RMS_Derivative-OPLS-2005>
1.39798307418823

$$$$
90
                    3D
 Structure written by MMmdl.
155163  0  0  1  0            999 V2000
  -30.6007  -14.6594   20.5107 C   0  0  0  0  0  0
  -30.4512  -12.4055   19.4539 C   0  0  0  0  0  0
  -29.5146  -12.5064   18.2272 C   0  0  0  0  0  0
  -28.0344  -12.3508   18.6348 C   0  0  0  0  0  0
  -27.6579  -13.2149   19.8665 C   0  0  2  0  0  0
  -28.7039  -13.0480   20.9922 C   0  0  0  0  0  0
  -25.2575  -13.8169   20.5692 C   0  0  0  0  0  0
  -24.1836  -13.0439   20.9205 C   0  0  0  0  0  0
  -24.6398  -11.6904   20.8739 C   0  0  0  0  0  0
  -23.9065  -10.4289   21.0411 C   0  0  0  0  0  0
  -24.3612   -9.4206   21.9197 C   0  0  0  0  0  0
  -23.6286   -8.2243   22.0757 C   0  0  0  0  0  0
  -22.4274   -8.0280   21.3542 C   0  0  0  0  0  0
  -21.9918   -9.0251   20.4640 C   0  0  0  0  0  0
  -22.7241  -10.2133   20.3052 C   0  0  0  0  0  0
  -21.6854   -6.0740   22.5284 C   0  0  0  0  0  0
  -21.4003   -6.5640   23.8216 C   0  0  0  0  0  0
  -21.3658   -5.6793   24.9173 C   0  0  0  0  0  0
  -21.6051   -4.3059   24.7226 C   0  0  0  0  0  0
  -21.8818   -3.8153   23.4346 C   0  0  0  0  0  0
  -21.9186   -4.6968   22.3402 C   0  0  0  0  0  0
  -22.7852  -13.5233   21.1869 C   0  0  0  0  0  0
  -22.1659   -4.2155   21.0980 F   0  0  0  0  0  0
  -21.5635   -3.4541   25.7743 F   0  0  0  0  0  0
  -30.0206  -13.4161   20.4397 N   0  0  0  0  0  0
  -26.3006  -12.9340   20.3324 N   0  0  0  0  0  0
  -25.9322  -11.6500   20.5745 N   0  0  0  0  0  0
  -22.0478  -12.8207   22.0402 N   0  0  0  0  0  0
  -25.4317  -15.1891   20.4118 N   0  0  0  0  0  0
  -31.7390  -14.8677   20.0782 O   0  0  0  0  0  0
  -21.6630   -6.8882   21.4241 O   0  0  0  0  0  0
  -22.3546  -14.5554   20.6743 O   0  0  0  0  0  0
  -24.6260  -31.8594   23.1983 C   0  0  0  0  0  0
  -25.9106  -32.4773   23.8329 C   0  0  1  0  0  0
  -27.2375  -27.3212   20.1213 C   0  0  0  0  0  0
  -25.5933  -33.8571   24.2260 N   0  0  0  0  0  0
  -23.4200  -30.4771   21.5432 C   0  0  2  0  0  0
  -24.8691  -28.9228   20.1159 C   0  0  0  0  0  0
  -22.7491  -29.4591   22.4953 C   0  0  0  0  0  0
  -18.0281  -28.1376   22.8464 C   0  0  0  0  0  0
  -24.1495  -36.7286   23.2642 C   0  0  0  0  0  0
  -25.9575  -30.7916   21.3646 C   0  0  0  0  0  0
  -26.0370  -29.4137   20.7147 C   0  0  0  0  0  0
  -27.2251  -28.6255   20.7017 C   0  0  0  0  0  0
  -26.0457  -26.8669   19.5175 C   0  0  0  0  0  0
  -24.8743  -27.6535   19.5117 C   0  0  0  0  0  0
  -23.6348  -29.8037   20.1606 C   0  0  0  0  0  0
  -25.4120  -36.3071   24.0336 C   0  0  1  0  0  0
  -20.5883  -28.3674   23.1298 C   0  0  2  0  0  0
  -20.6772  -26.9403   22.5412 C   0  0  0  0  0  0
  -19.5756  -26.6389   21.5197 C   0  0  0  0  0  0
  -18.1923  -26.7920   22.1602 C   0  0  0  0  0  0
  -19.1540  -28.8845   23.2861 C   0  0  0  0  0  0
  -18.9463  -30.1445   23.8876 C   0  0  0  0  0  0
  -17.6464  -30.6576   24.0562 C   0  0  0  0  0  0
  -25.9070  -34.9444   23.5107 C   0  0  0  0  0  0
  -16.5352  -29.9078   23.6333 C   0  0  0  0  0  0
  -16.7269  -28.6504   23.0334 C   0  0  0  0  0  0
  -26.4486  -31.6576   25.0701 C   0  0  0  0  0  0
  -25.3709  -31.3697   26.1423 C   0  0  0  0  0  0
  -27.0320  -30.3020   24.6087 C   0  0  0  0  0  0
  -27.6068  -32.4294   25.7456 C   0  0  0  0  0  0
  -27.5575  -37.1785   24.8464 C   0  0  0  0  0  0
  -21.4199  -29.3018   22.3696 N   0  0  0  0  0  0
  -26.4284  -37.3776   23.9415 N   0  0  0  0  0  0
  -24.6860  -31.0600   22.0935 N   0  0  0  0  0  0
  -23.4201  -28.8138   23.3038 O   0  0  0  0  0  0
  -28.3806  -26.5124   20.0894 O   0  0  0  0  0  0
  -26.5632  -34.8916   22.4665 O   0  0  0  0  0  0
  -23.5432  -32.1414   23.7317 O   0  0  0  0  0  0
  -28.5154  -17.6675   21.4869 C   0  0  0  0  0  0
  -30.4958  -18.0347   20.1930 C   0  0  0  0  0  0
  -28.2108  -19.0502   21.4250 C   0  0  0  0  0  0
  -30.1882  -19.4452   20.1456 C   0  0  0  0  0  0
  -29.6544  -17.1020   20.8710 C   0  0  0  0  0  0
  -29.0253  -20.0137   20.7608 C   0  0  0  0  0  0
  -27.6177  -21.7905   21.7330 C   0  0  0  0  0  0
  -28.6791  -23.8911   19.6836 C   0  0  0  0  0  0
  -29.4382  -22.5726   20.2241 C   0  0  0  0  0  0
  -28.3274  -25.1320   20.6261 C   0  0  0  0  0  0
  -29.7814  -15.6443   20.9974 N   0  0  0  0  0  0
  -28.6348  -21.4194   20.7467 N   0  0  0  0  0  0
  -31.4897  -12.5457   19.1515 H   0  0  0  0  0  0
  -30.4031  -11.4081   19.8931 H   0  0  0  0  0  0
  -29.7759  -11.7426   17.4926 H   0  0  0  0  0  0
  -29.6619  -13.4677   17.7325 H   0  0  0  0  0  0
  -27.8648  -11.2978   18.8600 H   0  0  0  0  0  0
  -27.3846  -12.5867   17.7919 H   0  0  0  0  0  0
  -27.6802  -14.2543   19.5371 H   0  0  0  0  0  0
  -28.7193  -12.0135   21.3379 H   0  0  0  0  0  0
  -28.4392  -13.6410   21.8683 H   0  0  0  0  0  0
  -25.2749   -9.5688   22.4779 H   0  0  0  0  0  0
  -23.9996   -7.4630   22.7477 H   0  0  0  0  0  0
  -21.0860   -8.8765   19.8933 H   0  0  0  0  0  0
  -22.3710  -10.9668   19.6160 H   0  0  0  0  0  0
  -21.1988   -7.6149   23.9721 H   0  0  0  0  0  0
  -21.1485   -6.0524   25.9083 H   0  0  0  0  0  0
  -22.0598   -2.7612   23.2845 H   0  0  0  0  0  0
  -22.4057  -11.9841   22.4768 H   0  0  0  0  0  0
  -21.1089  -13.1227   22.2587 H   0  0  0  0  0  0
  -24.6701  -15.8491   20.5206 H   0  0  0  0  0  0
  -26.2824  -15.6195   20.0716 H   0  0  0  0  0  0
  -26.7189  -32.5465   23.1096 H   0  0  0  0  0  0
  -25.0030  -33.9692   25.0368 H   0  0  0  0  0  0
  -22.7135  -31.2963   21.3973 H   0  0  0  0  0  0
  -23.3754  -35.9622   23.3292 H   0  0  0  0  0  0
  -24.3575  -36.8924   22.2057 H   0  0  0  0  0  0
  -23.7249  -37.6484   23.6675 H   0  0  0  0  0  0
  -26.0721  -31.5492   20.5889 H   0  0  0  0  0  0
  -26.8443  -30.8558   21.9826 H   0  0  0  0  0  0
  -28.1276  -29.0009   21.1656 H   0  0  0  0  0  0
  -26.0212  -25.8947   19.0455 H   0  0  0  0  0  0
  -23.9775  -27.2697   19.0449 H   0  0  0  0  0  0
  -23.7497  -30.5775   19.4005 H   0  0  0  0  0  0
  -22.7558  -29.2282   19.8629 H   0  0  0  0  0  0
  -25.1278  -36.1927   25.0831 H   0  0  0  0  0  0
  -20.9942  -28.3244   24.1435 H   0  0  0  0  0  0
  -20.5703  -26.2270   23.3590 H   0  0  0  0  0  0
  -21.6643  -26.7460   22.1189 H   0  0  0  0  0  0
  -19.6947  -25.6312   21.1198 H   0  0  0  0  0  0
  -19.6718  -27.3235   20.6746 H   0  0  0  0  0  0
  -17.4208  -26.6678   21.3983 H   0  0  0  0  0  0
  -18.0313  -26.0058   22.9004 H   0  0  0  0  0  0
  -19.7957  -30.7237   24.2257 H   0  0  0  0  0  0
  -17.5037  -31.6266   24.5156 H   0  0  0  0  0  0
  -15.5357  -30.2963   23.7690 H   0  0  0  0  0  0
  -15.8662  -28.0823   22.7040 H   0  0  0  0  0  0
  -24.5937  -30.6985   25.7729 H   0  0  0  0  0  0
  -24.8831  -32.2861   26.4777 H   0  0  0  0  0  0
  -25.8047  -30.8930   27.0231 H   0  0  0  0  0  0
  -26.2861  -29.6777   24.1157 H   0  0  0  0  0  0
  -27.4111  -29.7260   25.4531 H   0  0  0  0  0  0
  -27.8693  -30.4322   23.9221 H   0  0  0  0  0  0
  -27.2712  -33.3647   26.1945 H   0  0  0  0  0  0
  -28.3917  -32.6759   25.0287 H   0  0  0  0  0  0
  -28.0679  -31.8456   26.5433 H   0  0  0  0  0  0
  -28.2568  -38.0096   24.7499 H   0  0  0  0  0  0
  -28.1085  -36.2621   24.6293 H   0  0  0  0  0  0
  -27.2279  -37.1427   25.8859 H   0  0  0  0  0  0
  -20.9396  -29.8721   21.6873 H   0  0  0  0  0  0
  -26.0169  -38.2850   24.1444 H   0  0  0  0  0  0
  -27.8315  -17.0273   22.0263 H   0  0  0  0  0  0
  -31.3877  -17.6819   19.6942 H   0  0  0  0  0  0
  -27.2975  -19.3390   21.9206 H   0  0  0  0  0  0
  -30.8709  -20.0909   19.6137 H   0  0  0  0  0  0
  -27.8441  -21.3717   22.7149 H   0  0  0  0  0  0
  -26.6336  -21.4367   21.4220 H   0  0  0  0  0  0
  -27.5414  -22.8668   21.8730 H   0  0  0  0  0  0
  -27.7878  -23.6032   19.1247 H   0  0  0  0  0  0
  -29.3478  -24.3025   18.9275 H   0  0  0  0  0  0
  -30.1784  -22.8608   20.9723 H   0  0  0  0  0  0
  -30.0211  -22.1897   19.3862 H   0  0  0  0  0  0
  -29.0468  -25.1259   21.4447 H   0  0  0  0  0  0
  -27.3622  -24.9570   21.1003 H   0  0  0  0  0  0
  -28.9737  -15.2234   21.4302 H   0  0  0  0  0  0
  1 25  1  0  0  0
  1 30  2  0  0  0
  1 81  1  0  0  0
  2  3  1  0  0  0
  2 25  1  0  0  0
  2 83  1  0  0  0
  2 84  1  0  0  0
  3  4  1  0  0  0
  3 85  1  0  0  0
  3 86  1  0  0  0
  4  5  1  0  0  0
  4 87  1  0  0  0
  4 88  1  0  0  0
  5  6  1  0  0  0
  5 26  1  0  0  0
  5 89  1  0  0  0
  6 25  1  0  0  0
  6 90  1  0  0  0
  6 91  1  0  0  0
  7  8  2  0  0  0
  7 26  1  0  0  0
  7 29  1  0  0  0
  8  9  1  0  0  0
  8 22  1  0  0  0
  9 10  1  0  0  0
  9 27  2  0  0  0
 10 11  2  0  0  0
 10 15  1  0  0  0
 11 12  1  0  0  0
 11 92  1  0  0  0
 12 13  2  0  0  0
 12 93  1  0  0  0
 13 14  1  0  0  0
 13 31  1  0  0  0
 14 15  2  0  0  0
 14 94  1  0  0  0
 15 95  1  0  0  0
 16 17  2  0  0  0
 16 21  1  0  0  0
 16 31  1  0  0  0
 17 18  1  0  0  0
 17 96  1  0  0  0
 18 19  2  0  0  0
 18 97  1  0  0  0
 19 20  1  0  0  0
 19 24  1  0  0  0
 20 21  2  0  0  0
 20 98  1  0  0  0
 21 23  1  0  0  0
 22 28  1  0  0  0
 22 32  2  0  0  0
 26 27  1  0  0  0
 28 99  1  0  0  0
 28100  1  0  0  0
 29101  1  0  0  0
 29102  1  0  0  0
 33 34  1  0  0  0
 33 66  1  0  0  0
 33 70  2  0  0  0
 34 36  1  0  0  0
 34 59  1  0  0  0
 34103  1  0  0  0
 35 44  2  0  0  0
 35 45  1  0  0  0
 35 68  1  0  0  0
 36 56  1  0  0  0
 36104  1  0  0  0
 37 39  1  0  0  0
 37 47  1  0  0  0
 37 66  1  0  0  0
 37105  1  0  0  0
 38 43  2  0  0  0
 38 46  1  0  0  0
 38 47  1  0  0  0
 39 64  1  0  0  0
 39 67  2  0  0  0
 40 52  1  0  0  0
 40 53  2  0  0  0
 40 58  1  0  0  0
 41106  1  0  0  0
 41107  1  0  0  0
 41108  1  0  0  0
 41 48  1  0  0  0
 42 43  1  0  0  0
 42 66  1  0  0  0
 42109  1  0  0  0
 42110  1  0  0  0
 43 44  1  0  0  0
 44111  1  0  0  0
 45 46  2  0  0  0
 45112  1  0  0  0
 46113  1  0  0  0
 47114  1  0  0  0
 47115  1  0  0  0
 48 56  1  0  0  0
 48 65  1  0  0  0
 48116  1  0  0  0
 49 50  1  0  0  0
 49 53  1  0  0  0
 49 64  1  0  0  0
 49117  1  0  0  0
 50 51  1  0  0  0
 50118  1  0  0  0
 50119  1  0  0  0
 51 52  1  0  0  0
 51120  1  0  0  0
 51121  1  0  0  0
 52122  1  0  0  0
 52123  1  0  0  0
 53 54  1  0  0  0
 54 55  2  0  0  0
 54124  1  0  0  0
 55 57  1  0  0  0
 55125  1  0  0  0
 56 69  2  0  0  0
 57 58  2  0  0  0
 57126  1  0  0  0
 58127  1  0  0  0
 59 60  1  0  0  0
 59 61  1  0  0  0
 59 62  1  0  0  0
 60128  1  0  0  0
 60129  1  0  0  0
 60130  1  0  0  0
 61131  1  0  0  0
 61132  1  0  0  0
 61133  1  0  0  0
 62134  1  0  0  0
 62135  1  0  0  0
 62136  1  0  0  0
 63 65  1  0  0  0
 63137  1  0  0  0
 63138  1  0  0  0
 63139  1  0  0  0
 64140  1  0  0  0
 65141  1  0  0  0
 68 80  1  0  0  0
 71 73  2  0  0  0
 71 75  1  0  0  0
 71142  1  0  0  0
 72 74  1  0  0  0
 72 75  2  0  0  0
 72143  1  0  0  0
 73 76  1  0  0  0
 73144  1  0  0  0
 74 76  2  0  0  0
 74145  1  0  0  0
 75 81  1  0  0  0
 76 82  1  0  0  0
 77 82  1  0  0  0
 77146  1  0  0  0
 77147  1  0  0  0
 77148  1  0  0  0
 78 79  1  0  0  0
 78 80  1  0  0  0
 78149  1  0  0  0
 78150  1  0  0  0
 79 82  1  0  0  0
 79151  1  0  0  0
 79152  1  0  0  0
 80153  1  0  0  0
 80154  1  0  0  0
 81155  1  0  0  0
M  ISO  4   1 100  68 101  80 101  81 100
M  END
> <chiral flag>
0

> <version>
0

> <s_m_source_file>
/data/baiqing/PycharmProjects/Reinvent-master-3.2/result/LINK_invent/BTK/process_docking_weight1_custom_product_contain_oxygen_bond_distance_aromatic_linkinvent_7_9_3/rearranged_h_0018.sdf

> <i_m_source_file_index>
91

> <r_mmod_Potential_Energy-OPLS-2005>
96.0075302124023

> <r_mmod_Stretch_Energy-OPLS-2005>
90.3139038085938

> <r_mmod_Bend_Energy-OPLS-2005>
187.635864257812

> <r_mmod_Torsional_Energy-OPLS-2005>
230.668258666992

> <r_mmod_Improper_Torsional_Energy-OPLS-2005>
4.55378293991089

> <r_mmod_Van_der_Waal_Energy-OPLS-2005>
145.405334472656

> <r_mmod_Electrostatic_Energy-OPLS-2005>
-383.672637939453

> <r_mmod_Solvation_Energy-OPLS-2005>
-227.081100463867

> <b_mmod_Minimization_Converged-OPLS-2005>
0

> <r_mmod_RMS_Derivative-OPLS-2005>
2.64921760559082

$$$$
91
                    3D
 Structure written by MMmdl.
152160  0  0  1  0            999 V2000
  -30.5388  -14.8995   20.4296 C   0  0  0  0  0  0
  -30.4536  -12.5553   19.4850 C   0  0  0  0  0  0
  -29.5333  -12.5383   18.2450 C   0  0  0  0  0  0
  -28.0547  -12.3482   18.6469 C   0  0  0  0  0  0
  -27.6357  -13.2543   19.8381 C   0  0  2  0  0  0
  -28.6827  -13.2280   20.9713 C   0  0  0  0  0  0
  -25.2447  -13.8199   20.5707 C   0  0  0  0  0  0
  -24.1772  -13.0423   20.9251 C   0  0  0  0  0  0
  -24.6409  -11.6925   20.8758 C   0  0  0  0  0  0
  -23.9119  -10.4291   21.0423 C   0  0  0  0  0  0
  -24.3660   -9.4175   21.9187 C   0  0  0  0  0  0
  -23.6294   -8.2236   22.0761 C   0  0  0  0  0  0
  -22.4244   -8.0297   21.3594 C   0  0  0  0  0  0
  -21.9939   -9.0289   20.4672 C   0  0  0  0  0  0
  -22.7303  -10.2143   20.3066 C   0  0  0  0  0  0
  -21.6838   -6.0754   22.5286 C   0  0  0  0  0  0
  -21.4038   -6.5645   23.8228 C   0  0  0  0  0  0
  -21.3670   -5.6770   24.9170 C   0  0  0  0  0  0
  -21.6025   -4.3040   24.7214 C   0  0  0  0  0  0
  -21.8799   -3.8159   23.4333 C   0  0  0  0  0  0
  -21.9181   -4.6994   22.3398 C   0  0  0  0  0  0
  -22.7773  -13.5184   21.1840 C   0  0  0  0  0  0
  -22.1629   -4.2193   21.0983 F   0  0  0  0  0  0
  -21.5626   -3.4496   25.7730 F   0  0  0  0  0  0
  -29.9724  -13.6325   20.3874 N   0  0  0  0  0  0
  -26.2904  -12.9466   20.3204 N   0  0  0  0  0  0
  -25.9326  -11.6583   20.5636 N   0  0  0  0  0  0
  -22.0392  -12.8239   22.0403 N   0  0  0  0  0  0
  -25.3954  -15.1950   20.4154 N   0  0  0  0  0  0
  -31.7440  -15.0112   20.1652 O   0  0  0  0  0  0
  -21.6606   -6.8904   21.4247 O   0  0  0  0  0  0
  -22.3469  -14.5452   20.6610 O   0  0  0  0  0  0
  -24.6412  -31.8417   23.1817 C   0  0  0  0  0  0
  -25.9187  -32.4665   23.8239 C   0  0  1  0  0  0
  -27.2451  -27.1442   20.1852 C   0  0  0  0  0  0
  -25.5909  -33.8476   24.2132 N   0  0  0  0  0  0
  -23.4469  -30.4541   21.5290 C   0  0  2  0  0  0
  -24.9062  -28.8711   20.1167 C   0  0  0  0  0  0
  -22.7563  -29.4508   22.4840 C   0  0  0  0  0  0
  -18.0314  -28.1354   22.8467 C   0  0  0  0  0  0
  -24.1487  -36.7270   23.2644 C   0  0  0  0  0  0
  -26.0003  -30.7230   21.3766 C   0  0  0  0  0  0
  -26.0774  -29.3290   20.7336 C   0  0  0  0  0  0
  -27.2465  -28.4832   20.7439 C   0  0  0  0  0  0
  -26.0450  -26.7750   19.5398 C   0  0  0  0  0  0
  -24.9013  -27.6063   19.5033 C   0  0  0  0  0  0
  -23.6778  -29.7691   20.1533 C   0  0  0  0  0  0
  -25.4099  -36.3002   24.0313 C   0  0  1  0  0  0
  -20.5926  -28.3695   23.1219 C   0  0  2  0  0  0
  -20.6784  -26.9381   22.5410 C   0  0  0  0  0  0
  -19.5764  -26.6345   21.5195 C   0  0  0  0  0  0
  -18.1944  -26.7889   22.1601 C   0  0  0  0  0  0
  -19.1571  -28.8837   23.2834 C   0  0  0  0  0  0
  -18.9486  -30.1444   23.8852 C   0  0  0  0  0  0
  -17.6476  -30.6558   24.0537 C   0  0  0  0  0  0
  -25.9049  -34.9389   23.5026 C   0  0  0  0  0  0
  -16.5368  -29.9050   23.6325 C   0  0  0  0  0  0
  -16.7294  -28.6466   23.0346 C   0  0  0  0  0  0
  -26.4507  -31.6536   25.0692 C   0  0  0  0  0  0
  -25.3698  -31.3775   26.1400 C   0  0  0  0  0  0
  -27.0357  -30.2909   24.6276 C   0  0  0  0  0  0
  -27.5985  -32.4322   25.7521 C   0  0  0  0  0  0
  -27.5568  -37.1764   24.8440 C   0  0  0  0  0  0
  -21.4255  -29.3027   22.3604 N   0  0  0  0  0  0
  -26.4247  -37.3723   23.9419 N   0  0  0  0  0  0
  -24.7163  -31.0284   22.0843 N   0  0  0  0  0  0
  -23.4193  -28.8079   23.3011 O   0  0  0  0  0  0
  -28.3428  -26.2101   20.1830 O   0  0  0  0  0  0
  -26.5691  -34.8899   22.4630 O   0  0  0  0  0  0
  -23.5533  -32.1318   23.7027 O   0  0  0  0  0  0
  -30.8406  -18.4178   20.6683 C   0  0  0  0  0  0
  -28.5082  -18.2934   20.3621 C   0  0  0  0  0  0
  -30.7218  -19.8706   20.7365 C   0  0  0  0  0  0
  -28.3978  -19.7402   20.4181 C   0  0  0  0  0  0
  -29.7205  -17.5354   20.5085 C   0  0  0  0  0  0
  -29.4927  -20.6324   20.6380 C   0  0  0  0  0  0
  -30.2109  -22.4141   22.0940 C   0  0  0  0  0  0
  -28.9653  -23.3383   20.0886 C   0  0  0  0  0  0
  -28.2434  -24.7478   20.7072 C   0  0  0  0  0  0
  -29.6737  -16.0107   20.5343 N   0  0  0  0  0  0
  -29.3435  -22.0898   20.9558 N   0  0  0  0  0  0
  -31.4890  -12.7204   19.1809 H   0  0  0  0  0  0
  -30.4430  -11.5926   19.9958 H   0  0  0  0  0  0
  -29.8508  -11.7568   17.5519 H   0  0  0  0  0  0
  -29.6424  -13.4797   17.7044 H   0  0  0  0  0  0
  -27.9127  -11.2990   18.9055 H   0  0  0  0  0  0
  -27.4111  -12.5385   17.7893 H   0  0  0  0  0  0
  -27.6085  -14.2692   19.4400 H   0  0  0  0  0  0
  -28.7411  -12.2340   21.4174 H   0  0  0  0  0  0
  -28.4020  -13.9097   21.7775 H   0  0  0  0  0  0
  -25.2823   -9.5603   22.4746 H   0  0  0  0  0  0
  -24.0010   -7.4592   22.7465 H   0  0  0  0  0  0
  -21.0875   -8.8833   19.8975 H   0  0  0  0  0  0
  -22.3804  -10.9685   19.6167 H   0  0  0  0  0  0
  -21.2042   -7.6152   23.9765 H   0  0  0  0  0  0
  -21.1511   -6.0488   25.9082 H   0  0  0  0  0  0
  -22.0577   -2.7629   23.2785 H   0  0  0  0  0  0
  -22.3961  -12.0033   22.5039 H   0  0  0  0  0  0
  -21.0992  -13.1346   22.2465 H   0  0  0  0  0  0
  -24.6027  -15.8167   20.5403 H   0  0  0  0  0  0
  -26.2053  -15.6648   20.0380 H   0  0  0  0  0  0
  -26.7261  -32.5313   23.0990 H   0  0  0  0  0  0
  -24.9969  -33.9578   25.0223 H   0  0  0  0  0  0
  -22.7481  -31.2762   21.3652 H   0  0  0  0  0  0
  -23.3716  -35.9629   23.3246 H   0  0  0  0  0  0
  -24.3610  -36.8975   22.2077 H   0  0  0  0  0  0
  -23.7284  -37.6454   23.6747 H   0  0  0  0  0  0
  -26.1507  -31.4705   20.5958 H   0  0  0  0  0  0
  -26.8725  -30.7872   22.0149 H   0  0  0  0  0  0
  -28.1447  -28.8375   21.2282 H   0  0  0  0  0  0
  -25.9911  -25.8079   19.0611 H   0  0  0  0  0  0
  -24.0088  -27.2480   19.0103 H   0  0  0  0  0  0
  -23.8152  -30.5381   19.3924 H   0  0  0  0  0  0
  -22.7927  -29.2069   19.8462 H   0  0  0  0  0  0
  -25.1277  -36.1796   25.0801 H   0  0  0  0  0  0
  -21.0028  -28.3301   24.1327 H   0  0  0  0  0  0
  -20.5614  -26.2293   23.3633 H   0  0  0  0  0  0
  -21.6659  -26.7338   22.1243 H   0  0  0  0  0  0
  -19.6919  -25.6257   21.1221 H   0  0  0  0  0  0
  -19.6681  -27.3150   20.6722 H   0  0  0  0  0  0
  -17.4193  -26.6645   21.4019 H   0  0  0  0  0  0
  -18.0327  -26.0052   22.9015 H   0  0  0  0  0  0
  -19.7979  -30.7273   24.2168 H   0  0  0  0  0  0
  -17.5040  -31.6225   24.5172 H   0  0  0  0  0  0
  -15.5369  -30.2915   23.7672 H   0  0  0  0  0  0
  -15.8711  -28.0768   22.7044 H   0  0  0  0  0  0
  -24.5765  -30.7247   25.7761 H   0  0  0  0  0  0
  -24.9017  -32.3004   26.4839 H   0  0  0  0  0  0
  -25.7968  -30.8917   27.0186 H   0  0  0  0  0  0
  -26.2988  -29.6636   24.1243 H   0  0  0  0  0  0
  -27.3925  -29.7196   25.4866 H   0  0  0  0  0  0
  -27.8909  -30.4115   23.9615 H   0  0  0  0  0  0
  -27.2471  -33.3562   26.2133 H   0  0  0  0  0  0
  -28.3800  -32.7007   25.0404 H   0  0  0  0  0  0
  -28.0667  -31.8462   26.5448 H   0  0  0  0  0  0
  -28.2493  -38.0143   24.7505 H   0  0  0  0  0  0
  -28.1134  -36.2652   24.6174 H   0  0  0  0  0  0
  -27.2316  -37.1320   25.8851 H   0  0  0  0  0  0
  -20.9443  -29.8720   21.6790 H   0  0  0  0  0  0
  -26.0083  -38.2766   24.1448 H   0  0  0  0  0  0
  -31.8229  -17.9811   20.7817 H   0  0  0  0  0  0
  -27.5857  -17.7435   20.2380 H   0  0  0  0  0  0
  -31.6470  -20.3962   20.9157 H   0  0  0  0  0  0
  -27.4061  -20.1656   20.3685 H   0  0  0  0  0  0
  -31.2651  -22.4140   21.8096 H   0  0  0  0  0  0
  -30.0829  -21.6853   22.8974 H   0  0  0  0  0  0
  -29.9933  -23.3883   22.5272 H   0  0  0  0  0  0
  -29.9127  -23.6508   19.6485 H   0  0  0  0  0  0
  -28.3703  -22.9914   19.2413 H   0  0  0  0  0  0
  -28.6258  -24.8610   21.7208 H   0  0  0  0  0  0
  -27.1895  -24.5140   20.8642 H   0  0  0  0  0  0
  -28.7249  -15.6725   20.5901 H   0  0  0  0  0  0
  1 25  1  0  0  0
  1 30  2  0  0  0
  1 80  1  0  0  0
  2  3  1  0  0  0
  2 25  1  0  0  0
  2 82  1  0  0  0
  2 83  1  0  0  0
  3  4  1  0  0  0
  3 84  1  0  0  0
  3 85  1  0  0  0
  4  5  1  0  0  0
  4 86  1  0  0  0
  4 87  1  0  0  0
  5  6  1  0  0  0
  5 26  1  0  0  0
  5 88  1  0  0  0
  6 25  1  0  0  0
  6 89  1  0  0  0
  6 90  1  0  0  0
  7  8  2  0  0  0
  7 26  1  0  0  0
  7 29  1  0  0  0
  8  9  1  0  0  0
  8 22  1  0  0  0
  9 10  1  0  0  0
  9 27  2  0  0  0
 10 11  2  0  0  0
 10 15  1  0  0  0
 11 12  1  0  0  0
 11 91  1  0  0  0
 12 13  2  0  0  0
 12 92  1  0  0  0
 13 14  1  0  0  0
 13 31  1  0  0  0
 14 15  2  0  0  0
 14 93  1  0  0  0
 15 94  1  0  0  0
 16 17  2  0  0  0
 16 21  1  0  0  0
 16 31  1  0  0  0
 17 18  1  0  0  0
 17 95  1  0  0  0
 18 19  2  0  0  0
 18 96  1  0  0  0
 19 20  1  0  0  0
 19 24  1  0  0  0
 20 21  2  0  0  0
 20 97  1  0  0  0
 21 23  1  0  0  0
 22 28  1  0  0  0
 22 32  2  0  0  0
 26 27  1  0  0  0
 28 98  1  0  0  0
 28 99  1  0  0  0
 29100  1  0  0  0
 29101  1  0  0  0
 33 34  1  0  0  0
 33 66  1  0  0  0
 33 70  2  0  0  0
 34 36  1  0  0  0
 34 59  1  0  0  0
 34102  1  0  0  0
 35 44  2  0  0  0
 35 45  1  0  0  0
 35 68  1  0  0  0
 36 56  1  0  0  0
 36103  1  0  0  0
 37 39  1  0  0  0
 37 47  1  0  0  0
 37 66  1  0  0  0
 37104  1  0  0  0
 38 43  2  0  0  0
 38 46  1  0  0  0
 38 47  1  0  0  0
 39 64  1  0  0  0
 39 67  2  0  0  0
 40 52  1  0  0  0
 40 53  2  0  0  0
 40 58  1  0  0  0
 41105  1  0  0  0
 41106  1  0  0  0
 41107  1  0  0  0
 41 48  1  0  0  0
 42 43  1  0  0  0
 42 66  1  0  0  0
 42108  1  0  0  0
 42109  1  0  0  0
 43 44  1  0  0  0
 44110  1  0  0  0
 45 46  2  0  0  0
 45111  1  0  0  0
 46112  1  0  0  0
 47113  1  0  0  0
 47114  1  0  0  0
 48 56  1  0  0  0
 48 65  1  0  0  0
 48115  1  0  0  0
 49 50  1  0  0  0
 49 53  1  0  0  0
 49 64  1  0  0  0
 49116  1  0  0  0
 50 51  1  0  0  0
 50117  1  0  0  0
 50118  1  0  0  0
 51 52  1  0  0  0
 51119  1  0  0  0
 51120  1  0  0  0
 52121  1  0  0  0
 52122  1  0  0  0
 53 54  1  0  0  0
 54 55  2  0  0  0
 54123  1  0  0  0
 55 57  1  0  0  0
 55124  1  0  0  0
 56 69  2  0  0  0
 57 58  2  0  0  0
 57125  1  0  0  0
 58126  1  0  0  0
 59 60  1  0  0  0
 59 61  1  0  0  0
 59 62  1  0  0  0
 60127  1  0  0  0
 60128  1  0  0  0
 60129  1  0  0  0
 61130  1  0  0  0
 61131  1  0  0  0
 61132  1  0  0  0
 62133  1  0  0  0
 62134  1  0  0  0
 62135  1  0  0  0
 63 65  1  0  0  0
 63136  1  0  0  0
 63137  1  0  0  0
 63138  1  0  0  0
 64139  1  0  0  0
 65140  1  0  0  0
 68 79  1  0  0  0
 71 73  2  0  0  0
 71 75  1  0  0  0
 71141  1  0  0  0
 72 74  1  0  0  0
 72 75  2  0  0  0
 72142  1  0  0  0
 73 76  1  0  0  0
 73143  1  0  0  0
 74 76  2  0  0  0
 74144  1  0  0  0
 75 80  1  0  0  0
 76 81  1  0  0  0
 77 81  1  0  0  0
 77145  1  0  0  0
 77146  1  0  0  0
 77147  1  0  0  0
 78 79  1  0  0  0
 78 81  1  0  0  0
 78148  1  0  0  0
 78149  1  0  0  0
 79150  1  0  0  0
 79151  1  0  0  0
 80152  1  0  0  0
M  ISO  4   1 100  68 101  79 101  80 100
M  END
> <chiral flag>
0

> <version>
0

> <s_m_source_file>
/data/baiqing/PycharmProjects/Reinvent-master-3.2/result/LINK_invent/BTK/process_docking_weight1_custom_product_contain_oxygen_bond_distance_aromatic_linkinvent_7_9_3/rearranged_h_0018.sdf

> <i_m_source_file_index>
92

> <r_mmod_Potential_Energy-OPLS-2005>
459.378814697266

> <r_mmod_Stretch_Energy-OPLS-2005>
224.822845458984

> <r_mmod_Bend_Energy-OPLS-2005>
272.590911865234

> <r_mmod_Torsional_Energy-OPLS-2005>
252.424453735352

> <r_mmod_Improper_Torsional_Energy-OPLS-2005>
9.02254772186279

> <r_mmod_Van_der_Waal_Energy-OPLS-2005>
130.40478515625

> <r_mmod_Electrostatic_Energy-OPLS-2005>
-368.973266601562

> <r_mmod_Solvation_Energy-OPLS-2005>
-227.432510375977

> <b_mmod_Minimization_Converged-OPLS-2005>
0

> <r_mmod_RMS_Derivative-OPLS-2005>
5.62550830841064

$$$$
92
                    3D
 Structure written by MMmdl.
157165  0  0  1  0            999 V2000
  -30.6890  -14.6089   20.4148 C   0  0  0  0  0  0
  -30.4201  -12.3533   19.4501 C   0  0  0  0  0  0
  -29.4923  -12.4204   18.2179 C   0  0  0  0  0  0
  -28.0117  -12.3160   18.6375 C   0  0  0  0  0  0
  -27.6418  -13.2243   19.8440 C   0  0  2  0  0  0
  -28.6980  -13.1486   20.9672 C   0  0  0  0  0  0
  -25.2530  -13.8210   20.5750 C   0  0  0  0  0  0
  -24.1809  -13.0465   20.9250 C   0  0  0  0  0  0
  -24.6387  -11.6931   20.8785 C   0  0  0  0  0  0
  -23.9056  -10.4312   21.0440 C   0  0  0  0  0  0
  -24.3606   -9.4221   21.9208 C   0  0  0  0  0  0
  -23.6296   -8.2238   22.0787 C   0  0  0  0  0  0
  -22.4279   -8.0267   21.3572 C   0  0  0  0  0  0
  -21.9904   -9.0242   20.4670 C   0  0  0  0  0  0
  -22.7224  -10.2134   20.3091 C   0  0  0  0  0  0
  -21.6874   -6.0725   22.5267 C   0  0  0  0  0  0
  -21.4018   -6.5632   23.8193 C   0  0  0  0  0  0
  -21.3668   -5.6790   24.9153 C   0  0  0  0  0  0
  -21.6056   -4.3051   24.7219 C   0  0  0  0  0  0
  -21.8820   -3.8136   23.4341 C   0  0  0  0  0  0
  -21.9205   -4.6954   22.3397 C   0  0  0  0  0  0
  -22.7825  -13.5246   21.1899 C   0  0  0  0  0  0
  -22.1683   -4.2134   21.0981 F   0  0  0  0  0  0
  -21.5621   -3.4542   25.7742 F   0  0  0  0  0  0
  -30.0053  -13.4280   20.3641 N   0  0  0  0  0  0
  -26.2956  -12.9390   20.3330 N   0  0  0  0  0  0
  -25.9325  -11.6541   20.5827 N   0  0  0  0  0  0
  -22.0495  -12.8222   22.0455 N   0  0  0  0  0  0
  -25.4259  -15.1931   20.4249 N   0  0  0  0  0  0
  -31.9135  -14.6483   20.2719 O   0  0  0  0  0  0
  -21.6646   -6.8864   21.4235 O   0  0  0  0  0  0
  -22.3485  -14.5550   20.6744 O   0  0  0  0  0  0
  -24.6241  -31.8653   23.2136 C   0  0  0  0  0  0
  -25.9112  -32.4820   23.8423 C   0  0  1  0  0  0
  -27.2023  -27.3460   20.0912 C   0  0  0  0  0  0
  -25.5976  -33.8619   24.2363 N   0  0  0  0  0  0
  -23.4147  -30.4991   21.5566 C   0  0  2  0  0  0
  -24.8575  -28.9858   20.1052 C   0  0  0  0  0  0
  -22.7473  -29.4653   22.4957 C   0  0  0  0  0  0
  -18.0285  -28.1387   22.8478 C   0  0  0  0  0  0
  -24.1502  -36.7299   23.2627 C   0  0  0  0  0  0
  -25.9582  -30.8039   21.3871 C   0  0  0  0  0  0
  -26.0311  -29.4403   20.7210 C   0  0  0  0  0  0
  -27.2089  -28.6310   20.7166 C   0  0  0  0  0  0
  -26.0052  -26.9777   19.4158 C   0  0  0  0  0  0
  -24.8468  -27.7582   19.4448 C   0  0  0  0  0  0
  -23.6260  -29.8602   20.1647 C   0  0  0  0  0  0
  -25.4118  -36.3095   24.0328 C   0  0  1  0  0  0
  -20.5882  -28.3683   23.1290 C   0  0  2  0  0  0
  -20.6782  -26.9416   22.5401 C   0  0  0  0  0  0
  -19.5761  -26.6399   21.5195 C   0  0  0  0  0  0
  -18.1942  -26.7932   22.1612 C   0  0  0  0  0  0
  -19.1532  -28.8845   23.2887 C   0  0  0  0  0  0
  -18.9451  -30.1441   23.8916 C   0  0  0  0  0  0
  -17.6452  -30.6593   24.0549 C   0  0  0  0  0  0
  -25.9036  -34.9460   23.5122 C   0  0  0  0  0  0
  -16.5349  -29.9079   23.6320 C   0  0  0  0  0  0
  -16.7267  -28.6489   23.0353 C   0  0  0  0  0  0
  -26.4506  -31.6597   25.0761 C   0  0  0  0  0  0
  -25.3740  -31.3729   26.1488 C   0  0  0  0  0  0
  -27.0316  -30.3015   24.6176 C   0  0  0  0  0  0
  -27.6110  -32.4288   25.7526 C   0  0  0  0  0  0
  -27.5587  -37.1806   24.8459 C   0  0  0  0  0  0
  -21.4178  -29.3050   22.3694 N   0  0  0  0  0  0
  -26.4311  -37.3778   23.9398 N   0  0  0  0  0  0
  -24.6840  -31.0694   22.1100 N   0  0  0  0  0  0
  -23.4206  -28.8153   23.2992 O   0  0  0  0  0  0
  -28.2796  -26.4381   20.1620 O   0  0  0  0  0  0
  -26.5581  -34.8905   22.4671 O   0  0  0  0  0  0
  -23.5419  -32.1472   23.7472 O   0  0  0  0  0  0
  -29.9297  -19.4913   21.4782 C   0  0  0  0  0  0
  -28.8805  -18.7925   19.4417 C   0  0  0  0  0  0
  -29.5413  -20.8430   21.2356 C   0  0  0  0  0  0
  -28.5344  -20.1399   19.1750 C   0  0  0  0  0  0
  -29.6076  -18.4192   20.6001 C   0  0  0  0  0  0
  -28.8069  -21.2096   20.0778 C   0  0  0  0  0  0
  -28.7338  -23.7852   20.2184 C   0  0  0  0  0  0
  -26.9835  -22.5158   19.0308 C   0  0  0  0  0  0
  -30.0058  -16.0368   18.6558 C   0  0  0  0  0  0
  -30.0446  -16.9532   20.9974 C   0  0  0  0  0  0
  -27.8862  -25.0546   19.8258 C   0  0  0  0  0  0
  -28.2326  -22.5441   19.8299 N   0  0  0  0  0  0
  -29.9751  -15.7402   20.0997 N   0  0  0  0  0  0
  -29.7859  -23.9319   20.8484 O   0  0  0  0  0  0
  -31.4625  -12.4445   19.1395 H   0  0  0  0  0  0
  -30.3345  -11.3879   19.9518 H   0  0  0  0  0  0
  -29.7351  -11.6072   17.5325 H   0  0  0  0  0  0
  -29.6551  -13.3388   17.6570 H   0  0  0  0  0  0
  -27.8308  -11.2728   18.8961 H   0  0  0  0  0  0
  -27.3604  -12.5284   17.7884 H   0  0  0  0  0  0
  -27.6362  -14.2483   19.4684 H   0  0  0  0  0  0
  -28.7010  -12.1674   21.4436 H   0  0  0  0  0  0
  -28.4720  -13.8713   21.7516 H   0  0  0  0  0  0
  -25.2776   -9.5685   22.4746 H   0  0  0  0  0  0
  -24.0026   -7.4629   22.7503 H   0  0  0  0  0  0
  -21.0835   -8.8754   19.8972 H   0  0  0  0  0  0
  -22.3702  -10.9657   19.6167 H   0  0  0  0  0  0
  -21.2004   -7.6139   23.9693 H   0  0  0  0  0  0
  -21.1503   -6.0523   25.9059 H   0  0  0  0  0  0
  -22.0603   -2.7597   23.2841 H   0  0  0  0  0  0
  -22.4130  -11.9866   22.4804 H   0  0  0  0  0  0
  -21.1079  -13.1153   22.2657 H   0  0  0  0  0  0
  -24.6823  -15.8625   20.5921 H   0  0  0  0  0  0
  -26.2990  -15.6341   20.1651 H   0  0  0  0  0  0
  -26.7157  -32.5496   23.1162 H   0  0  0  0  0  0
  -25.0170  -33.9790   25.0527 H   0  0  0  0  0  0
  -22.7051  -31.3198   21.4289 H   0  0  0  0  0  0
  -23.3765  -35.9629   23.3294 H   0  0  0  0  0  0
  -24.3612  -36.8904   22.2042 H   0  0  0  0  0  0
  -23.7253  -37.6505   23.6632 H   0  0  0  0  0  0
  -26.0886  -31.5736   20.6261 H   0  0  0  0  0  0
  -26.8422  -30.8493   22.0110 H   0  0  0  0  0  0
  -28.1006  -28.9706   21.2254 H   0  0  0  0  0  0
  -25.8959  -26.0614   18.8590 H   0  0  0  0  0  0
  -23.9547  -27.4178   18.9360 H   0  0  0  0  0  0
  -23.7432  -30.6521   19.4233 H   0  0  0  0  0  0
  -22.7456  -29.2927   19.8583 H   0  0  0  0  0  0
  -25.1282  -36.1975   25.0819 H   0  0  0  0  0  0
  -20.9968  -28.3247   24.1408 H   0  0  0  0  0  0
  -20.5696  -26.2275   23.3576 H   0  0  0  0  0  0
  -21.6643  -26.7458   22.1174 H   0  0  0  0  0  0
  -19.6931  -25.6305   21.1230 H   0  0  0  0  0  0
  -19.6726  -27.3200   20.6714 H   0  0  0  0  0  0
  -17.4207  -26.6666   21.4029 H   0  0  0  0  0  0
  -18.0369  -26.0080   22.9017 H   0  0  0  0  0  0
  -19.7918  -30.7252   24.2334 H   0  0  0  0  0  0
  -17.4991  -31.6285   24.5139 H   0  0  0  0  0  0
  -15.5340  -30.2981   23.7635 H   0  0  0  0  0  0
  -15.8668  -28.0800   22.7078 H   0  0  0  0  0  0
  -24.5963  -30.7030   25.7802 H   0  0  0  0  0  0
  -24.8882  -32.2894   26.4848 H   0  0  0  0  0  0
  -25.8075  -30.8962   27.0292 H   0  0  0  0  0  0
  -26.2875  -29.6837   24.1149 H   0  0  0  0  0  0
  -27.3959  -29.7209   25.4660 H   0  0  0  0  0  0
  -27.8772  -30.4289   23.9421 H   0  0  0  0  0  0
  -27.2775  -33.3603   26.2110 H   0  0  0  0  0  0
  -28.3939  -32.6820   25.0361 H   0  0  0  0  0  0
  -28.0754  -31.8393   26.5441 H   0  0  0  0  0  0
  -28.2587  -38.0113   24.7486 H   0  0  0  0  0  0
  -28.1111  -36.2645   24.6312 H   0  0  0  0  0  0
  -27.2308  -37.1458   25.8863 H   0  0  0  0  0  0
  -20.9344  -29.8785   21.6922 H   0  0  0  0  0  0
  -26.0204  -38.2862   24.1402 H   0  0  0  0  0  0
  -30.4651  -19.2710   22.3922 H   0  0  0  0  0  0
  -28.5493  -18.0668   18.7192 H   0  0  0  0  0  0
  -29.7832  -21.5882   21.9821 H   0  0  0  0  0  0
  -28.0033  -20.3254   18.2511 H   0  0  0  0  0  0
  -27.2046  -22.6630   17.9730 H   0  0  0  0  0  0
  -26.2209  -23.2364   19.3174 H   0  0  0  0  0  0
  -26.4486  -21.5724   19.1320 H   0  0  0  0  0  0
  -30.5068  -16.9786   18.4374 H   0  0  0  0  0  0
  -28.9941  -16.0458   18.2522 H   0  0  0  0  0  0
  -30.5569  -15.3005   18.0683 H   0  0  0  0  0  0
  -29.4799  -16.7034   21.8975 H   0  0  0  0  0  0
  -31.0806  -17.0374   21.3336 H   0  0  0  0  0  0
  -26.9553  -24.8795   20.3635 H   0  0  0  0  0  0
  -27.7287  -25.0068   18.7469 H   0  0  0  0  0  0
  1 25  1  0  0  0
  1 30  2  0  0  0
  1 83  1  0  0  0
  2  3  1  0  0  0
  2 25  1  0  0  0
  2 85  1  0  0  0
  2 86  1  0  0  0
  3  4  1  0  0  0
  3 87  1  0  0  0
  3 88  1  0  0  0
  4  5  1  0  0  0
  4 89  1  0  0  0
  4 90  1  0  0  0
  5  6  1  0  0  0
  5 26  1  0  0  0
  5 91  1  0  0  0
  6 25  1  0  0  0
  6 92  1  0  0  0
  6 93  1  0  0  0
  7  8  2  0  0  0
  7 26  1  0  0  0
  7 29  1  0  0  0
  8  9  1  0  0  0
  8 22  1  0  0  0
  9 10  1  0  0  0
  9 27  2  0  0  0
 10 11  2  0  0  0
 10 15  1  0  0  0
 11 12  1  0  0  0
 11 94  1  0  0  0
 12 13  2  0  0  0
 12 95  1  0  0  0
 13 14  1  0  0  0
 13 31  1  0  0  0
 14 15  2  0  0  0
 14 96  1  0  0  0
 15 97  1  0  0  0
 16 17  2  0  0  0
 16 21  1  0  0  0
 16 31  1  0  0  0
 17 18  1  0  0  0
 17 98  1  0  0  0
 18 19  2  0  0  0
 18 99  1  0  0  0
 19 20  1  0  0  0
 19 24  1  0  0  0
 20 21  2  0  0  0
 20100  1  0  0  0
 21 23  1  0  0  0
 22 28  1  0  0  0
 22 32  2  0  0  0
 26 27  1  0  0  0
 28101  1  0  0  0
 28102  1  0  0  0
 29103  1  0  0  0
 29104  1  0  0  0
 33 34  1  0  0  0
 33 66  1  0  0  0
 33 70  2  0  0  0
 34 36  1  0  0  0
 34 59  1  0  0  0
 34105  1  0  0  0
 35 44  2  0  0  0
 35 45  1  0  0  0
 35 68  1  0  0  0
 36 56  1  0  0  0
 36106  1  0  0  0
 37 39  1  0  0  0
 37 47  1  0  0  0
 37 66  1  0  0  0
 37107  1  0  0  0
 38 43  2  0  0  0
 38 46  1  0  0  0
 38 47  1  0  0  0
 39 64  1  0  0  0
 39 67  2  0  0  0
 40 52  1  0  0  0
 40 53  2  0  0  0
 40 58  1  0  0  0
 41108  1  0  0  0
 41109  1  0  0  0
 41110  1  0  0  0
 41 48  1  0  0  0
 42 43  1  0  0  0
 42 66  1  0  0  0
 42111  1  0  0  0
 42112  1  0  0  0
 43 44  1  0  0  0
 44113  1  0  0  0
 45 46  2  0  0  0
 45114  1  0  0  0
 46115  1  0  0  0
 47116  1  0  0  0
 47117  1  0  0  0
 48 56  1  0  0  0
 48 65  1  0  0  0
 48118  1  0  0  0
 49 50  1  0  0  0
 49 53  1  0  0  0
 49 64  1  0  0  0
 49119  1  0  0  0
 50 51  1  0  0  0
 50120  1  0  0  0
 50121  1  0  0  0
 51 52  1  0  0  0
 51122  1  0  0  0
 51123  1  0  0  0
 52124  1  0  0  0
 52125  1  0  0  0
 53 54  1  0  0  0
 54 55  2  0  0  0
 54126  1  0  0  0
 55 57  1  0  0  0
 55127  1  0  0  0
 56 69  2  0  0  0
 57 58  2  0  0  0
 57128  1  0  0  0
 58129  1  0  0  0
 59 60  1  0  0  0
 59 61  1  0  0  0
 59 62  1  0  0  0
 60130  1  0  0  0
 60131  1  0  0  0
 60132  1  0  0  0
 61133  1  0  0  0
 61134  1  0  0  0
 61135  1  0  0  0
 62136  1  0  0  0
 62137  1  0  0  0
 62138  1  0  0  0
 63 65  1  0  0  0
 63139  1  0  0  0
 63140  1  0  0  0
 63141  1  0  0  0
 64142  1  0  0  0
 65143  1  0  0  0
 68 81  1  0  0  0
 71 73  2  0  0  0
 71 75  1  0  0  0
 71144  1  0  0  0
 72 74  1  0  0  0
 72 75  2  0  0  0
 72145  1  0  0  0
 73 76  1  0  0  0
 73146  1  0  0  0
 74 76  2  0  0  0
 74147  1  0  0  0
 75 80  1  0  0  0
 76 82  1  0  0  0
 77 81  1  0  0  0
 77 82  1  0  0  0
 77 84  2  0  0  0
 78 82  1  0  0  0
 78148  1  0  0  0
 78149  1  0  0  0
 78150  1  0  0  0
 79 83  1  0  0  0
 79151  1  0  0  0
 79152  1  0  0  0
 79153  1  0  0  0
 80 83  1  0  0  0
 80154  1  0  0  0
 80155  1  0  0  0
 81156  1  0  0  0
 81157  1  0  0  0
M  ISO  4   1 100  68 101  81 101  83 100
M  END
> <chiral flag>
0

> <version>
0

> <s_m_source_file>
/data/baiqing/PycharmProjects/Reinvent-master-3.2/result/LINK_invent/BTK/process_docking_weight1_custom_product_contain_oxygen_bond_distance_aromatic_linkinvent_7_9_3/rearranged_h_0018.sdf

> <i_m_source_file_index>
93

> <r_mmod_Potential_Energy-OPLS-2005>
374.737976074219

> <r_mmod_Stretch_Energy-OPLS-2005>
84.8059387207031

> <r_mmod_Bend_Energy-OPLS-2005>
172.755218505859

> <r_mmod_Torsional_Energy-OPLS-2005>
320.500671386719

> <r_mmod_Improper_Torsional_Energy-OPLS-2005>
20.164249420166

> <r_mmod_Van_der_Waal_Energy-OPLS-2005>
196.803253173828

> <r_mmod_Electrostatic_Energy-OPLS-2005>
-261.876098632812

> <r_mmod_Solvation_Energy-OPLS-2005>
-219.518127441406

> <b_mmod_Minimization_Converged-OPLS-2005>
0

> <r_mmod_RMS_Derivative-OPLS-2005>
3.4088499546051

$$$$
93
                    3D
 Structure written by MMmdl.
170178  0  0  1  0            999 V2000
  -30.7130  -14.4905   20.6017 C   0  0  0  0  0  0
  -30.4210  -12.3350   19.4185 C   0  0  0  0  0  0
  -29.4883  -12.5059   18.2032 C   0  0  0  0  0  0
  -28.0135  -12.3435   18.6201 C   0  0  0  0  0  0
  -27.6518  -13.1942   19.8644 C   0  0  2  0  0  0
  -28.6967  -13.0064   20.9880 C   0  0  0  0  0  0
  -25.2556  -13.8120   20.5659 C   0  0  0  0  0  0
  -24.1816  -13.0413   20.9197 C   0  0  0  0  0  0
  -24.6364  -11.6879   20.8755 C   0  0  0  0  0  0
  -23.9033  -10.4274   21.0420 C   0  0  0  0  0  0
  -24.3597   -9.4193   21.9192 C   0  0  0  0  0  0
  -23.6279   -8.2225   22.0754 C   0  0  0  0  0  0
  -22.4261   -8.0264   21.3544 C   0  0  0  0  0  0
  -21.9892   -9.0236   20.4648 C   0  0  0  0  0  0
  -22.7212  -10.2121   20.3062 C   0  0  0  0  0  0
  -21.6848   -6.0726   22.5280 C   0  0  0  0  0  0
  -21.4009   -6.5632   23.8211 C   0  0  0  0  0  0
  -21.3658   -5.6786   24.9175 C   0  0  0  0  0  0
  -21.6045   -4.3050   24.7227 C   0  0  0  0  0  0
  -21.8820   -3.8142   23.4348 C   0  0  0  0  0  0
  -21.9190   -4.6955   22.3404 C   0  0  0  0  0  0
  -22.7844  -13.5224   21.1859 C   0  0  0  0  0  0
  -22.1660   -4.2143   21.0981 F   0  0  0  0  0  0
  -21.5631   -3.4535   25.7740 F   0  0  0  0  0  0
  -30.0217  -13.3254   20.4328 N   0  0  0  0  0  0
  -26.2966  -12.9259   20.3322 N   0  0  0  0  0  0
  -25.9280  -11.6440   20.5770 N   0  0  0  0  0  0
  -22.0479  -12.8224   22.0417 N   0  0  0  0  0  0
  -25.4233  -15.1836   20.4006 N   0  0  0  0  0  0
  -31.8454  -14.6541   20.1351 O   0  0  0  0  0  0
  -21.6631   -6.8863   21.4239 O   0  0  0  0  0  0
  -22.3540  -14.5533   20.6703 O   0  0  0  0  0  0
  -24.6148  -31.8673   23.2088 C   0  0  0  0  0  0
  -25.9036  -32.4819   23.8392 C   0  0  1  0  0  0
  -27.2374  -27.4309   20.1087 C   0  0  0  0  0  0
  -25.5892  -33.8618   24.2323 N   0  0  0  0  0  0
  -23.4031  -30.4887   21.5494 C   0  0  2  0  0  0
  -24.8504  -28.9473   20.1203 C   0  0  0  0  0  0
  -22.7408  -29.4660   22.4999 C   0  0  0  0  0  0
  -18.0268  -28.1387   22.8496 C   0  0  0  0  0  0
  -24.1485  -36.7315   23.2638 C   0  0  0  0  0  0
  -25.9304  -30.8320   21.3609 C   0  0  0  0  0  0
  -26.0091  -29.4635   20.7141 C   0  0  0  0  0  0
  -27.2074  -28.7141   20.7007 C   0  0  0  0  0  0
  -26.0633  -26.9225   19.5160 C   0  0  0  0  0  0
  -24.8721  -27.6760   19.5183 C   0  0  0  0  0  0
  -23.6123  -29.8152   20.1662 C   0  0  0  0  0  0
  -25.4105  -36.3112   24.0337 C   0  0  1  0  0  0
  -20.5857  -28.3674   23.1323 C   0  0  2  0  0  0
  -20.6764  -26.9412   22.5425 C   0  0  0  0  0  0
  -19.5745  -26.6394   21.5219 C   0  0  0  0  0  0
  -18.1917  -26.7935   22.1619 C   0  0  0  0  0  0
  -19.1516  -28.8846   23.2908 C   0  0  0  0  0  0
  -18.9445  -30.1450   23.8926 C   0  0  0  0  0  0
  -17.6449  -30.6596   24.0570 C   0  0  0  0  0  0
  -25.9034  -34.9473   23.5129 C   0  0  0  0  0  0
  -16.5339  -29.9099   23.6328 C   0  0  0  0  0  0
  -16.7256  -28.6513   23.0353 C   0  0  0  0  0  0
  -26.4470  -31.6598   25.0718 C   0  0  0  0  0  0
  -25.3739  -31.3692   26.1470 C   0  0  0  0  0  0
  -27.0298  -30.3044   24.6089 C   0  0  0  0  0  0
  -27.6059  -32.4315   25.7465 C   0  0  0  0  0  0
  -27.5583  -37.1803   24.8459 C   0  0  0  0  0  0
  -21.4133  -29.3038   22.3733 N   0  0  0  0  0  0
  -26.4289  -37.3800   23.9414 N   0  0  0  0  0  0
  -24.6678  -31.0772   22.0989 N   0  0  0  0  0  0
  -23.4171  -28.8216   23.3059 O   0  0  0  0  0  0
  -28.4145  -26.7176   20.0637 O   0  0  0  0  0  0
  -26.5601  -34.8924   22.4696 O   0  0  0  0  0  0
  -23.5341  -32.1428   23.7482 O   0  0  0  0  0  0
  -28.0743  -18.3887   21.7830 C   0  0  0  0  0  0
  -27.9526  -19.7897   21.8922 C   0  0  0  0  0  0
  -29.7206  -20.0691   20.2663 C   0  0  0  0  0  0
  -29.0104  -17.8012   20.9045 C   0  0  0  0  0  0
  -29.8461  -18.6606   20.1451 C   0  0  0  0  0  0
  -28.7645  -20.6621   21.1295 C   0  0  0  0  0  0
  -30.8656  -18.0947   19.1714 C   0  0  0  0  0  0
  -31.1749  -22.9231   22.8614 C   0  0  0  0  0  0
  -30.8665  -16.1240   22.4029 C   0  0  0  0  0  0
  -29.0115  -16.2679   20.7365 C   0  0  0  0  0  0
  -29.9069  -22.2710   23.4303 C   0  0  0  0  0  0
  -28.1593  -24.2186   19.9070 C   0  0  0  0  0  0
  -28.6172  -22.5784   22.6402 C   0  0  0  0  0  0
  -29.0398  -22.9543   20.1555 C   0  0  0  0  0  0
  -28.4560  -25.4700   20.7764 C   0  0  0  0  0  0
  -28.6196  -22.0717   21.2618 N   0  0  0  0  0  0
  -30.1152  -15.4732   21.3265 N   0  0  0  0  0  0
  -31.4622  -12.4446   19.1107 H   0  0  0  0  0  0
  -30.3389  -11.3270   19.8280 H   0  0  0  0  0  0
  -29.7393  -11.7779   17.4307 H   0  0  0  0  0  0
  -29.6384  -13.4901   17.7566 H   0  0  0  0  0  0
  -27.8417  -11.2872   18.8315 H   0  0  0  0  0  0
  -27.3564  -12.5964   17.7874 H   0  0  0  0  0  0
  -27.6740  -14.2275   19.5312 H   0  0  0  0  0  0
  -28.6887  -11.9751   21.3442 H   0  0  0  0  0  0
  -28.4486  -13.6142   21.8587 H   0  0  0  0  0  0
  -25.2742   -9.5672   22.4767 H   0  0  0  0  0  0
  -23.9993   -7.4612   22.7467 H   0  0  0  0  0  0
  -21.0826   -8.8749   19.8951 H   0  0  0  0  0  0
  -22.3670  -10.9660   19.6174 H   0  0  0  0  0  0
  -21.1999   -7.6140   23.9714 H   0  0  0  0  0  0
  -21.1481   -6.0517   25.9076 H   0  0  0  0  0  0
  -22.0604   -2.7605   23.2851 H   0  0  0  0  0  0
  -22.4083  -11.9883   22.4809 H   0  0  0  0  0  0
  -21.1098  -13.1260   22.2621 H   0  0  0  0  0  0
  -24.6481  -15.8296   20.5014 H   0  0  0  0  0  0
  -26.2554  -15.6229   20.0313 H   0  0  0  0  0  0
  -26.7110  -32.5532   23.1160 H   0  0  0  0  0  0
  -25.0044  -33.9788   25.0469 H   0  0  0  0  0  0
  -22.6919  -31.3051   21.4078 H   0  0  0  0  0  0
  -23.3747  -35.9647   23.3297 H   0  0  0  0  0  0
  -24.3586  -36.8939   22.2055 H   0  0  0  0  0  0
  -23.7232  -37.6515   23.6659 H   0  0  0  0  0  0
  -26.0388  -31.5936   20.5877 H   0  0  0  0  0  0
  -26.8200  -30.8906   21.9767 H   0  0  0  0  0  0
  -28.1065  -29.1135   21.1490 H   0  0  0  0  0  0
  -26.0720  -25.9533   19.0393 H   0  0  0  0  0  0
  -23.9818  -27.2734   19.0553 H   0  0  0  0  0  0
  -23.7198  -30.5874   19.4036 H   0  0  0  0  0  0
  -22.7367  -29.2335   19.8728 H   0  0  0  0  0  0
  -25.1280  -36.1974   25.0829 H   0  0  0  0  0  0
  -20.9944  -28.3243   24.1445 H   0  0  0  0  0  0
  -20.5675  -26.2283   23.3613 H   0  0  0  0  0  0
  -21.6637  -26.7466   22.1213 H   0  0  0  0  0  0
  -19.6915  -25.6308   21.1242 H   0  0  0  0  0  0
  -19.6692  -27.3213   20.6757 H   0  0  0  0  0  0
  -17.4196  -26.6694   21.4010 H   0  0  0  0  0  0
  -18.0310  -26.0068   22.9006 H   0  0  0  0  0  0
  -19.7921  -30.7256   24.2312 H   0  0  0  0  0  0
  -17.5004  -31.6279   24.5168 H   0  0  0  0  0  0
  -15.5343  -30.3012   23.7643 H   0  0  0  0  0  0
  -15.8651  -28.0842   22.7063 H   0  0  0  0  0  0
  -24.5931  -30.7017   25.7803 H   0  0  0  0  0  0
  -24.8905  -32.2836   26.4918 H   0  0  0  0  0  0
  -25.8103  -30.8866   27.0225 H   0  0  0  0  0  0
  -26.2837  -29.6798   24.1161 H   0  0  0  0  0  0
  -27.4094  -29.7283   25.4538 H   0  0  0  0  0  0
  -27.8658  -30.4367   23.9215 H   0  0  0  0  0  0
  -27.2704  -33.3612   26.2068 H   0  0  0  0  0  0
  -28.3846  -32.6879   25.0269 H   0  0  0  0  0  0
  -28.0753  -31.8421   26.5351 H   0  0  0  0  0  0
  -28.2592  -38.0110   24.7533 H   0  0  0  0  0  0
  -28.1091  -36.2646   24.6250 H   0  0  0  0  0  0
  -27.2310  -37.1409   25.8864 H   0  0  0  0  0  0
  -20.9303  -29.8738   21.6931 H   0  0  0  0  0  0
  -26.0177  -38.2875   24.1431 H   0  0  0  0  0  0
  -27.4132  -17.7628   22.3662 H   0  0  0  0  0  0
  -27.2012  -20.1829   22.5611 H   0  0  0  0  0  0
  -30.3802  -20.6963   19.6849 H   0  0  0  0  0  0
  -31.4579  -18.8839   18.7075 H   0  0  0  0  0  0
  -30.3700  -17.5400   18.3745 H   0  0  0  0  0  0
  -31.5575  -17.4239   19.6788 H   0  0  0  0  0  0
  -32.0186  -22.7801   23.5370 H   0  0  0  0  0  0
  -31.0419  -23.9960   22.7180 H   0  0  0  0  0  0
  -31.4501  -22.4817   21.9036 H   0  0  0  0  0  0
  -30.1913  -16.5857   23.1241 H   0  0  0  0  0  0
  -31.5292  -16.8960   22.0105 H   0  0  0  0  0  0
  -31.4779  -15.4034   22.9486 H   0  0  0  0  0  0
  -28.9404  -16.0717   19.6651 H   0  0  0  0  0  0
  -28.0849  -15.8864   21.1646 H   0  0  0  0  0  0
  -29.7679  -22.6273   24.4518 H   0  0  0  0  0  0
  -30.0562  -21.1941   23.5176 H   0  0  0  0  0  0
  -27.1003  -23.9639   19.9535 H   0  0  0  0  0  0
  -28.3357  -24.5106   18.8712 H   0  0  0  0  0  0
  -28.4609  -23.6539   22.6422 H   0  0  0  0  0  0
  -27.7576  -22.1777   23.1775 H   0  0  0  0  0  0
  -30.0838  -23.2445   20.2740 H   0  0  0  0  0  0
  -29.0002  -22.3762   19.2313 H   0  0  0  0  0  0
  -29.4659  -25.3903   21.1784 H   0  0  0  0  0  0
  -27.7921  -25.5030   21.6416 H   0  0  0  0  0  0
  1 25  1  0  0  0
  1 30  2  0  0  0
  1 87  1  0  0  0
  2  3  1  0  0  0
  2 25  1  0  0  0
  2 88  1  0  0  0
  2 89  1  0  0  0
  3  4  1  0  0  0
  3 90  1  0  0  0
  3 91  1  0  0  0
  4  5  1  0  0  0
  4 92  1  0  0  0
  4 93  1  0  0  0
  5  6  1  0  0  0
  5 26  1  0  0  0
  5 94  1  0  0  0
  6 25  1  0  0  0
  6 95  1  0  0  0
  6 96  1  0  0  0
  7  8  2  0  0  0
  7 26  1  0  0  0
  7 29  1  0  0  0
  8  9  1  0  0  0
  8 22  1  0  0  0
  9 10  1  0  0  0
  9 27  2  0  0  0
 10 11  2  0  0  0
 10 15  1  0  0  0
 11 12  1  0  0  0
 11 97  1  0  0  0
 12 13  2  0  0  0
 12 98  1  0  0  0
 13 14  1  0  0  0
 13 31  1  0  0  0
 14 15  2  0  0  0
 14 99  1  0  0  0
 15100  1  0  0  0
 16 17  2  0  0  0
 16 21  1  0  0  0
 16 31  1  0  0  0
 17 18  1  0  0  0
 17101  1  0  0  0
 18 19  2  0  0  0
 18102  1  0  0  0
 19 20  1  0  0  0
 19 24  1  0  0  0
 20 21  2  0  0  0
 20103  1  0  0  0
 21 23  1  0  0  0
 22 28  1  0  0  0
 22 32  2  0  0  0
 26 27  1  0  0  0
 28104  1  0  0  0
 28105  1  0  0  0
 29106  1  0  0  0
 29107  1  0  0  0
 33 34  1  0  0  0
 33 66  1  0  0  0
 33 70  2  0  0  0
 34 36  1  0  0  0
 34 59  1  0  0  0
 34108  1  0  0  0
 35 44  2  0  0  0
 35 45  1  0  0  0
 35 68  1  0  0  0
 36 56  1  0  0  0
 36109  1  0  0  0
 37 39  1  0  0  0
 37 47  1  0  0  0
 37 66  1  0  0  0
 37110  1  0  0  0
 38 43  2  0  0  0
 38 46  1  0  0  0
 38 47  1  0  0  0
 39 64  1  0  0  0
 39 67  2  0  0  0
 40 52  1  0  0  0
 40 53  2  0  0  0
 40 58  1  0  0  0
 41111  1  0  0  0
 41112  1  0  0  0
 41113  1  0  0  0
 41 48  1  0  0  0
 42 43  1  0  0  0
 42 66  1  0  0  0
 42114  1  0  0  0
 42115  1  0  0  0
 43 44  1  0  0  0
 44116  1  0  0  0
 45 46  2  0  0  0
 45117  1  0  0  0
 46118  1  0  0  0
 47119  1  0  0  0
 47120  1  0  0  0
 48 56  1  0  0  0
 48 65  1  0  0  0
 48121  1  0  0  0
 49 50  1  0  0  0
 49 53  1  0  0  0
 49 64  1  0  0  0
 49122  1  0  0  0
 50 51  1  0  0  0
 50123  1  0  0  0
 50124  1  0  0  0
 51 52  1  0  0  0
 51125  1  0  0  0
 51126  1  0  0  0
 52127  1  0  0  0
 52128  1  0  0  0
 53 54  1  0  0  0
 54 55  2  0  0  0
 54129  1  0  0  0
 55 57  1  0  0  0
 55130  1  0  0  0
 56 69  2  0  0  0
 57 58  2  0  0  0
 57131  1  0  0  0
 58132  1  0  0  0
 59 60  1  0  0  0
 59 61  1  0  0  0
 59 62  1  0  0  0
 60133  1  0  0  0
 60134  1  0  0  0
 60135  1  0  0  0
 61136  1  0  0  0
 61137  1  0  0  0
 61138  1  0  0  0
 62139  1  0  0  0
 62140  1  0  0  0
 62141  1  0  0  0
 63 65  1  0  0  0
 63142  1  0  0  0
 63143  1  0  0  0
 63144  1  0  0  0
 64145  1  0  0  0
 65146  1  0  0  0
 68 85  1  0  0  0
 71 72  2  0  0  0
 71 74  1  0  0  0
 71147  1  0  0  0
 72 76  1  0  0  0
 72148  1  0  0  0
 73 75  1  0  0  0
 73 76  2  0  0  0
 73149  1  0  0  0
 74 75  2  0  0  0
 74 80  1  0  0  0
 75 77  1  0  0  0
 76 86  1  0  0  0
 77150  1  0  0  0
 77151  1  0  0  0
 77152  1  0  0  0
 78 81  1  0  0  0
 78153  1  0  0  0
 78154  1  0  0  0
 78155  1  0  0  0
 79 87  1  0  0  0
 79156  1  0  0  0
 79157  1  0  0  0
 79158  1  0  0  0
 80 87  1  0  0  0
 80159  1  0  0  0
 80160  1  0  0  0
 81 83  1  0  0  0
 81161  1  0  0  0
 81162  1  0  0  0
 82 84  1  0  0  0
 82 85  1  0  0  0
 82163  1  0  0  0
 82164  1  0  0  0
 83 86  1  0  0  0
 83165  1  0  0  0
 83166  1  0  0  0
 84 86  1  0  0  0
 84167  1  0  0  0
 84168  1  0  0  0
 85169  1  0  0  0
 85170  1  0  0  0
M  ISO  4   1 100  68 101  85 101  87 100
M  END
> <chiral flag>
0

> <version>
0

> <s_m_source_file>
/data/baiqing/PycharmProjects/Reinvent-master-3.2/result/LINK_invent/BTK/process_docking_weight1_custom_product_contain_oxygen_bond_distance_aromatic_linkinvent_7_9_3/rearranged_h_0018.sdf

> <i_m_source_file_index>
94

> <r_mmod_Potential_Energy-OPLS-2005>
117.134780883789

> <r_mmod_Stretch_Energy-OPLS-2005>
44.120044708252

> <r_mmod_Bend_Energy-OPLS-2005>
116.078735351562

> <r_mmod_Torsional_Energy-OPLS-2005>
321.124786376953

> <r_mmod_Improper_Torsional_Energy-OPLS-2005>
5.27915668487549

> <r_mmod_Van_der_Waal_Energy-OPLS-2005>
147.349044799805

> <r_mmod_Electrostatic_Energy-OPLS-2005>
-333.735534667969

> <r_mmod_Solvation_Energy-OPLS-2005>
-196.973678588867

> <b_mmod_Minimization_Converged-OPLS-2005>
0

> <r_mmod_RMS_Derivative-OPLS-2005>
0.76796019077301

$$$$
94
                    3D
 Structure written by MMmdl.
161169  0  0  1  0            999 V2000
  -30.7391  -14.4692   20.6267 C   0  0  0  0  0  0
  -30.4128  -12.3312   19.4178 C   0  0  0  0  0  0
  -29.4836  -12.5143   18.2031 C   0  0  0  0  0  0
  -28.0114  -12.3521   18.6210 C   0  0  0  0  0  0
  -27.6550  -13.1999   19.8683 C   0  0  2  0  0  0
  -28.6972  -13.0059   20.9933 C   0  0  0  0  0  0
  -25.2582  -13.8140   20.5673 C   0  0  0  0  0  0
  -24.1829  -13.0426   20.9177 C   0  0  0  0  0  0
  -24.6372  -11.6888   20.8736 C   0  0  0  0  0  0
  -23.9037  -10.4282   21.0407 C   0  0  0  0  0  0
  -24.3597   -9.4202   21.9186 C   0  0  0  0  0  0
  -23.6280   -8.2235   22.0757 C   0  0  0  0  0  0
  -22.4266   -8.0272   21.3542 C   0  0  0  0  0  0
  -21.9891   -9.0242   20.4643 C   0  0  0  0  0  0
  -22.7208  -10.2127   20.3052 C   0  0  0  0  0  0
  -21.6850   -6.0724   22.5275 C   0  0  0  0  0  0
  -21.4011   -6.5632   23.8206 C   0  0  0  0  0  0
  -21.3663   -5.6789   24.9172 C   0  0  0  0  0  0
  -21.6047   -4.3051   24.7224 C   0  0  0  0  0  0
  -21.8821   -3.8138   23.4346 C   0  0  0  0  0  0
  -21.9191   -4.6952   22.3400 C   0  0  0  0  0  0
  -22.7861  -13.5243   21.1836 C   0  0  0  0  0  0
  -22.1661   -4.2135   21.0979 F   0  0  0  0  0  0
  -21.5630   -3.4539   25.7741 F   0  0  0  0  0  0
  -30.0277  -13.3169   20.4457 N   0  0  0  0  0  0
  -26.2990  -12.9285   20.3337 N   0  0  0  0  0  0
  -25.9293  -11.6454   20.5760 N   0  0  0  0  0  0
  -22.0501  -12.8245   22.0398 N   0  0  0  0  0  0
  -25.4306  -15.1855   20.4073 N   0  0  0  0  0  0
  -31.8204  -14.6592   20.0586 O   0  0  0  0  0  0
  -21.6633   -6.8865   21.4236 O   0  0  0  0  0  0
  -22.3559  -14.5550   20.6683 O   0  0  0  0  0  0
  -24.6173  -31.8666   23.2106 C   0  0  0  0  0  0
  -25.9058  -32.4813   23.8404 C   0  0  1  0  0  0
  -27.2272  -27.4049   20.0979 C   0  0  0  0  0  0
  -25.5908  -33.8613   24.2328 N   0  0  0  0  0  0
  -23.4057  -30.4924   21.5514 C   0  0  2  0  0  0
  -24.8496  -28.9603   20.1114 C   0  0  0  0  0  0
  -22.7426  -29.4648   22.4980 C   0  0  0  0  0  0
  -18.0274  -28.1368   22.8485 C   0  0  0  0  0  0
  -24.1484  -36.7316   23.2636 C   0  0  0  0  0  0
  -25.9379  -30.8220   21.3701 C   0  0  0  0  0  0
  -26.0111  -29.4560   20.7151 C   0  0  0  0  0  0
  -27.1995  -28.6848   20.7078 C   0  0  0  0  0  0
  -26.0473  -26.9471   19.4625 C   0  0  0  0  0  0
  -24.8642  -27.7061   19.4827 C   0  0  0  0  0  0
  -23.6147  -29.8307   20.1636 C   0  0  0  0  0  0
  -25.4104  -36.3107   24.0334 C   0  0  1  0  0  0
  -20.5868  -28.3655   23.1305 C   0  0  2  0  0  0
  -20.6760  -26.9386   22.5413 C   0  0  0  0  0  0
  -19.5743  -26.6375   21.5203 C   0  0  0  0  0  0
  -18.1920  -26.7911   22.1612 C   0  0  0  0  0  0
  -19.1527  -28.8827   23.2890 C   0  0  0  0  0  0
  -18.9453  -30.1430   23.8900 C   0  0  0  0  0  0
  -17.6458  -30.6576   24.0556 C   0  0  0  0  0  0
  -25.9035  -34.9471   23.5132 C   0  0  0  0  0  0
  -16.5347  -29.9080   23.6322 C   0  0  0  0  0  0
  -16.7262  -28.6496   23.0343 C   0  0  0  0  0  0
  -26.4481  -31.6597   25.0740 C   0  0  0  0  0  0
  -25.3746  -31.3695   26.1489 C   0  0  0  0  0  0
  -27.0321  -30.3038   24.6130 C   0  0  0  0  0  0
  -27.6059  -32.4320   25.7495 C   0  0  0  0  0  0
  -27.5579  -37.1808   24.8462 C   0  0  0  0  0  0
  -21.4153  -29.3028   22.3722 N   0  0  0  0  0  0
  -26.4290  -37.3794   23.9407 N   0  0  0  0  0  0
  -24.6718  -31.0754   22.1019 N   0  0  0  0  0  0
  -23.4188  -28.8181   23.3022 O   0  0  0  0  0  0
  -28.3935  -26.6532   20.1474 O   0  0  0  0  0  0
  -26.5599  -34.8926   22.4694 O   0  0  0  0  0  0
  -23.5360  -32.1438   23.7485 O   0  0  0  0  0  0
  -29.5847  -18.4841   20.2048 C   0  0  0  0  0  0
  -29.7129  -19.8946   20.2228 C   0  0  0  0  0  0
  -29.4384  -19.8816   22.6304 C   0  0  0  0  0  0
  -29.3628  -17.7567   21.3977 C   0  0  0  0  0  0
  -29.6469  -20.6145   21.4394 C   0  0  0  0  0  0
  -29.2815  -18.4778   22.6122 C   0  0  0  0  0  0
  -31.0735  -22.4037   22.1701 C   0  0  0  0  0  0
  -31.2898  -15.8367   22.5435 C   0  0  0  0  0  0
  -29.1364  -16.2304   21.3600 C   0  0  0  0  0  0
  -29.2145  -24.3891   20.8219 C   0  0  0  0  0  0
  -29.2893  -22.8781   20.4404 C   0  0  0  0  0  0
  -28.3415  -25.2347   19.8610 C   0  0  0  0  0  0
  -29.8273  -22.0184   21.5094 N   0  0  0  0  0  0
  -30.3074  -15.3427   21.5740 N   0  0  0  0  0  0
  -29.0417  -17.8245   23.7749 F   0  0  0  0  0  0
  -31.4554  -12.4258   19.1095 H   0  0  0  0  0  0
  -30.3166  -11.3206   19.8187 H   0  0  0  0  0  0
  -29.7310  -11.7896   17.4265 H   0  0  0  0  0  0
  -29.6356  -13.5015   17.7630 H   0  0  0  0  0  0
  -27.8382  -11.2957   18.8302 H   0  0  0  0  0  0
  -27.3538  -12.6070   17.7894 H   0  0  0  0  0  0
  -27.6848  -14.2369   19.5428 H   0  0  0  0  0  0
  -28.6841  -11.9746   21.3477 H   0  0  0  0  0  0
  -28.4443  -13.6087   21.8651 H   0  0  0  0  0  0
  -25.2741   -9.5686   22.4761 H   0  0  0  0  0  0
  -23.9986   -7.4631   22.7487 H   0  0  0  0  0  0
  -21.0813   -8.8750   19.8957 H   0  0  0  0  0  0
  -22.3654  -10.9665   19.6163 H   0  0  0  0  0  0
  -21.2002   -7.6139   23.9703 H   0  0  0  0  0  0
  -21.1487   -6.0523   25.9074 H   0  0  0  0  0  0
  -22.0599   -2.7597   23.2852 H   0  0  0  0  0  0
  -22.4112  -11.9900   22.4772 H   0  0  0  0  0  0
  -21.1128  -13.1290   22.2619 H   0  0  0  0  0  0
  -24.6605  -15.8379   20.5078 H   0  0  0  0  0  0
  -26.2759  -15.6227   20.0647 H   0  0  0  0  0  0
  -26.7125  -32.5507   23.1165 H   0  0  0  0  0  0
  -25.0051  -33.9764   25.0466 H   0  0  0  0  0  0
  -22.6953  -31.3102   21.4142 H   0  0  0  0  0  0
  -23.3740  -35.9655   23.3313 H   0  0  0  0  0  0
  -24.3576  -36.8930   22.2050 H   0  0  0  0  0  0
  -23.7254  -37.6529   23.6650 H   0  0  0  0  0  0
  -26.0583  -31.5880   20.6031 H   0  0  0  0  0  0
  -26.8224  -30.8706   21.9931 H   0  0  0  0  0  0
  -28.0931  -29.0606   21.1867 H   0  0  0  0  0  0
  -26.0074  -26.0077   18.9322 H   0  0  0  0  0  0
  -23.9749  -27.3243   19.0009 H   0  0  0  0  0  0
  -23.7278  -30.6088   19.4078 H   0  0  0  0  0  0
  -22.7367  -29.2555   19.8631 H   0  0  0  0  0  0
  -25.1285  -36.1976   25.0829 H   0  0  0  0  0  0
  -20.9945  -28.3216   24.1432 H   0  0  0  0  0  0
  -20.5647  -26.2261   23.3605 H   0  0  0  0  0  0
  -21.6633  -26.7418   22.1216 H   0  0  0  0  0  0
  -19.6898  -25.6290   21.1226 H   0  0  0  0  0  0
  -19.6684  -27.3186   20.6735 H   0  0  0  0  0  0
  -17.4189  -26.6659   21.4014 H   0  0  0  0  0  0
  -18.0317  -26.0044   22.9000 H   0  0  0  0  0  0
  -19.7934  -30.7235   24.2277 H   0  0  0  0  0  0
  -17.5020  -31.6256   24.5153 H   0  0  0  0  0  0
  -15.5349  -30.2981   23.7646 H   0  0  0  0  0  0
  -15.8663  -28.0819   22.7050 H   0  0  0  0  0  0
  -24.5927  -30.7031   25.7835 H   0  0  0  0  0  0
  -24.8914  -32.2834   26.4946 H   0  0  0  0  0  0
  -25.8103  -30.8871   27.0245 H   0  0  0  0  0  0
  -26.2868  -29.6784   24.1194 H   0  0  0  0  0  0
  -27.4103  -29.7296   25.4598 H   0  0  0  0  0  0
  -27.8704  -30.4365   23.9288 H   0  0  0  0  0  0
  -27.2691  -33.3617   26.2092 H   0  0  0  0  0  0
  -28.3851  -32.6881   25.0306 H   0  0  0  0  0  0
  -28.0743  -31.8429   26.5390 H   0  0  0  0  0  0
  -28.2603  -38.0100   24.7510 H   0  0  0  0  0  0
  -28.1075  -36.2632   24.6295 H   0  0  0  0  0  0
  -27.2296  -37.1477   25.8867 H   0  0  0  0  0  0
  -20.9318  -29.8795   21.6984 H   0  0  0  0  0  0
  -26.0182  -38.2875   24.1410 H   0  0  0  0  0  0
  -29.6425  -17.9635   19.2593 H   0  0  0  0  0  0
  -29.8869  -20.4115   19.2901 H   0  0  0  0  0  0
  -29.3818  -20.3984   23.5773 H   0  0  0  0  0  0
  -30.8636  -22.9489   23.0917 H   0  0  0  0  0  0
  -31.6755  -23.0476   21.5277 H   0  0  0  0  0  0
  -31.6925  -21.5425   22.4297 H   0  0  0  0  0  0
  -30.8061  -16.1246   23.4759 H   0  0  0  0  0  0
  -31.8289  -16.6990   22.1484 H   0  0  0  0  0  0
  -32.0275  -15.0715   22.7931 H   0  0  0  0  0  0
  -28.3865  -15.9794   22.1118 H   0  0  0  0  0  0
  -28.6668  -16.0078   20.4023 H   0  0  0  0  0  0
  -30.2193  -24.8112   20.8571 H   0  0  0  0  0  0
  -28.8047  -24.4900   21.8277 H   0  0  0  0  0  0
  -29.8865  -22.7628   19.5340 H   0  0  0  0  0  0
  -28.2862  -22.5239   20.1957 H   0  0  0  0  0  0
  -27.3417  -24.8146   19.9546 H   0  0  0  0  0  0
  -28.6590  -25.0809   18.8288 H   0  0  0  0  0  0
  1 25  1  0  0  0
  1 30  2  0  0  0
  1 84  1  0  0  0
  2  3  1  0  0  0
  2 25  1  0  0  0
  2 86  1  0  0  0
  2 87  1  0  0  0
  3  4  1  0  0  0
  3 88  1  0  0  0
  3 89  1  0  0  0
  4  5  1  0  0  0
  4 90  1  0  0  0
  4 91  1  0  0  0
  5  6  1  0  0  0
  5 26  1  0  0  0
  5 92  1  0  0  0
  6 25  1  0  0  0
  6 93  1  0  0  0
  6 94  1  0  0  0
  7  8  2  0  0  0
  7 26  1  0  0  0
  7 29  1  0  0  0
  8  9  1  0  0  0
  8 22  1  0  0  0
  9 10  1  0  0  0
  9 27  2  0  0  0
 10 11  2  0  0  0
 10 15  1  0  0  0
 11 12  1  0  0  0
 11 95  1  0  0  0
 12 13  2  0  0  0
 12 96  1  0  0  0
 13 14  1  0  0  0
 13 31  1  0  0  0
 14 15  2  0  0  0
 14 97  1  0  0  0
 15 98  1  0  0  0
 16 17  2  0  0  0
 16 21  1  0  0  0
 16 31  1  0  0  0
 17 18  1  0  0  0
 17 99  1  0  0  0
 18 19  2  0  0  0
 18100  1  0  0  0
 19 20  1  0  0  0
 19 24  1  0  0  0
 20 21  2  0  0  0
 20101  1  0  0  0
 21 23  1  0  0  0
 22 28  1  0  0  0
 22 32  2  0  0  0
 26 27  1  0  0  0
 28102  1  0  0  0
 28103  1  0  0  0
 29104  1  0  0  0
 29105  1  0  0  0
 33 34  1  0  0  0
 33 66  1  0  0  0
 33 70  2  0  0  0
 34 36  1  0  0  0
 34 59  1  0  0  0
 34106  1  0  0  0
 35 44  2  0  0  0
 35 45  1  0  0  0
 35 68  1  0  0  0
 36 56  1  0  0  0
 36107  1  0  0  0
 37 39  1  0  0  0
 37 47  1  0  0  0
 37 66  1  0  0  0
 37108  1  0  0  0
 38 43  2  0  0  0
 38 46  1  0  0  0
 38 47  1  0  0  0
 39 64  1  0  0  0
 39 67  2  0  0  0
 40 52  1  0  0  0
 40 53  2  0  0  0
 40 58  1  0  0  0
 41109  1  0  0  0
 41110  1  0  0  0
 41111  1  0  0  0
 41 48  1  0  0  0
 42 43  1  0  0  0
 42 66  1  0  0  0
 42112  1  0  0  0
 42113  1  0  0  0
 43 44  1  0  0  0
 44114  1  0  0  0
 45 46  2  0  0  0
 45115  1  0  0  0
 46116  1  0  0  0
 47117  1  0  0  0
 47118  1  0  0  0
 48 56  1  0  0  0
 48 65  1  0  0  0
 48119  1  0  0  0
 49 50  1  0  0  0
 49 53  1  0  0  0
 49 64  1  0  0  0
 49120  1  0  0  0
 50 51  1  0  0  0
 50121  1  0  0  0
 50122  1  0  0  0
 51 52  1  0  0  0
 51123  1  0  0  0
 51124  1  0  0  0
 52125  1  0  0  0
 52126  1  0  0  0
 53 54  1  0  0  0
 54 55  2  0  0  0
 54127  1  0  0  0
 55 57  1  0  0  0
 55128  1  0  0  0
 56 69  2  0  0  0
 57 58  2  0  0  0
 57129  1  0  0  0
 58130  1  0  0  0
 59 60  1  0  0  0
 59 61  1  0  0  0
 59 62  1  0  0  0
 60131  1  0  0  0
 60132  1  0  0  0
 60133  1  0  0  0
 61134  1  0  0  0
 61135  1  0  0  0
 61136  1  0  0  0
 62137  1  0  0  0
 62138  1  0  0  0
 62139  1  0  0  0
 63 65  1  0  0  0
 63140  1  0  0  0
 63141  1  0  0  0
 63142  1  0  0  0
 64143  1  0  0  0
 65144  1  0  0  0
 68 82  1  0  0  0
 71 72  2  0  0  0
 71 74  1  0  0  0
 71145  1  0  0  0
 72 75  1  0  0  0
 72146  1  0  0  0
 73 75  2  0  0  0
 73 76  1  0  0  0
 73147  1  0  0  0
 74 76  2  0  0  0
 74 79  1  0  0  0
 75 83  1  0  0  0
 76 85  1  0  0  0
 77 83  1  0  0  0
 77148  1  0  0  0
 77149  1  0  0  0
 77150  1  0  0  0
 78 84  1  0  0  0
 78151  1  0  0  0
 78152  1  0  0  0
 78153  1  0  0  0
 79 84  1  0  0  0
 79154  1  0  0  0
 79155  1  0  0  0
 80 81  1  0  0  0
 80 82  1  0  0  0
 80156  1  0  0  0
 80157  1  0  0  0
 81 83  1  0  0  0
 81158  1  0  0  0
 81159  1  0  0  0
 82160  1  0  0  0
 82161  1  0  0  0
M  ISO  4   1 100  68 101  82 101  84 100
M  END
> <chiral flag>
0

> <version>
0

> <s_m_source_file>
/data/baiqing/PycharmProjects/Reinvent-master-3.2/result/LINK_invent/BTK/process_docking_weight1_custom_product_contain_oxygen_bond_distance_aromatic_linkinvent_7_9_3/rearranged_h_0018.sdf

> <i_m_source_file_index>
95

> <r_mmod_Potential_Energy-OPLS-2005>
108.428802490234

> <r_mmod_Stretch_Energy-OPLS-2005>
44.937442779541

> <r_mmod_Bend_Energy-OPLS-2005>
110.963203430176

> <r_mmod_Torsional_Energy-OPLS-2005>
274.612030029297

> <r_mmod_Improper_Torsional_Energy-OPLS-2005>
7.38503885269165

> <r_mmod_Van_der_Waal_Energy-OPLS-2005>
158.607894897461

> <r_mmod_Electrostatic_Energy-OPLS-2005>
-295.229187011719

> <r_mmod_Solvation_Energy-OPLS-2005>
-208.233032226562

> <b_mmod_Minimization_Converged-OPLS-2005>
0

> <r_mmod_RMS_Derivative-OPLS-2005>
1.12671661376953

$$$$
95
                    3D
 Structure written by MMmdl.
155163  0  0  1  0            999 V2000
  -30.6777  -14.6363   20.4662 C   0  0  0  0  0  0
  -30.4233  -12.3904   19.4305 C   0  0  0  0  0  0
  -29.5050  -12.5667   18.2045 C   0  0  0  0  0  0
  -28.0266  -12.3905   18.6035 C   0  0  0  0  0  0
  -27.6559  -13.2303   19.8557 C   0  0  2  0  0  0
  -28.7140  -13.1142   20.9818 C   0  0  0  0  0  0
  -25.2613  -13.8220   20.5653 C   0  0  0  0  0  0
  -24.1899  -13.0471   20.9156 C   0  0  0  0  0  0
  -24.6445  -11.6933   20.8669 C   0  0  0  0  0  0
  -23.9108  -10.4304   21.0309 C   0  0  0  0  0  0
  -24.3655   -9.4222   21.9100 C   0  0  0  0  0  0
  -23.6327   -8.2241   22.0696 C   0  0  0  0  0  0
  -22.4341   -8.0247   21.3491 C   0  0  0  0  0  0
  -21.9933   -9.0215   20.4605 C   0  0  0  0  0  0
  -22.7254  -10.2098   20.2984 C   0  0  0  0  0  0
  -21.6894   -6.0702   22.5248 C   0  0  0  0  0  0
  -21.4032   -6.5602   23.8165 C   0  0  0  0  0  0
  -21.3678   -5.6776   24.9153 C   0  0  0  0  0  0
  -21.6088   -4.3047   24.7233 C   0  0  0  0  0  0
  -21.8829   -3.8106   23.4345 C   0  0  0  0  0  0
  -21.9220   -4.6919   22.3397 C   0  0  0  0  0  0
  -22.7919  -13.5215   21.1821 C   0  0  0  0  0  0
  -22.1679   -4.2073   21.0973 F   0  0  0  0  0  0
  -21.5665   -3.4561   25.7745 F   0  0  0  0  0  0
  -30.0290  -13.4277   20.4077 N   0  0  0  0  0  0
  -26.3045  -12.9398   20.3308 N   0  0  0  0  0  0
  -25.9396  -11.6561   20.5724 N   0  0  0  0  0  0
  -22.0577  -12.8160   22.0373 N   0  0  0  0  0  0
  -25.4445  -15.1951   20.4088 N   0  0  0  0  0  0
  -31.8422  -14.7595   20.0868 O   0  0  0  0  0  0
  -21.6712   -6.8829   21.4212 O   0  0  0  0  0  0
  -22.3557  -14.5488   20.6648 O   0  0  0  0  0  0
  -24.6188  -31.8658   23.2022 C   0  0  0  0  0  0
  -25.9038  -32.4812   23.8377 C   0  0  1  0  0  0
  -27.2331  -27.3412   20.1267 C   0  0  0  0  0  0
  -25.5835  -33.8601   24.2282 N   0  0  0  0  0  0
  -23.4167  -30.4813   21.5487 C   0  0  2  0  0  0
  -24.8698  -28.9516   20.1067 C   0  0  0  0  0  0
  -22.7455  -29.4613   22.5007 C   0  0  0  0  0  0
  -18.0286  -28.1382   22.8482 C   0  0  0  0  0  0
  -24.1479  -36.7299   23.2645 C   0  0  0  0  0  0
  -25.9553  -30.8034   21.3772 C   0  0  0  0  0  0
  -26.0348  -29.4347   20.7138 C   0  0  0  0  0  0
  -27.2192  -28.6422   20.7127 C   0  0  0  0  0  0
  -26.0469  -26.9114   19.4888 C   0  0  0  0  0  0
  -24.8814  -27.6973   19.4763 C   0  0  0  0  0  0
  -23.6253  -29.8111   20.1655 C   0  0  0  0  0  0
  -25.4110  -36.3120   24.0344 C   0  0  1  0  0  0
  -20.5876  -28.3642   23.1334 C   0  0  2  0  0  0
  -20.6754  -26.9361   22.5446 C   0  0  0  0  0  0
  -19.5747  -26.6375   21.5237 C   0  0  0  0  0  0
  -18.1925  -26.7932   22.1631 C   0  0  0  0  0  0
  -19.1523  -28.8860   23.2891 C   0  0  0  0  0  0
  -18.9445  -30.1476   23.8871 C   0  0  0  0  0  0
  -17.6426  -30.6587   24.0554 C   0  0  0  0  0  0
  -25.9042  -34.9478   23.5126 C   0  0  0  0  0  0
  -16.5327  -29.9047   23.6337 C   0  0  0  0  0  0
  -16.7260  -28.6486   23.0336 C   0  0  0  0  0  0
  -26.4401  -31.6615   25.0752 C   0  0  0  0  0  0
  -25.3597  -31.3712   26.1437 C   0  0  0  0  0  0
  -27.0258  -30.3056   24.6239 C   0  0  0  0  0  0
  -27.6009  -32.4321   25.7480 C   0  0  0  0  0  0
  -27.5592  -37.1792   24.8454 C   0  0  0  0  0  0
  -21.4193  -29.2973   22.3725 N   0  0  0  0  0  0
  -26.4308  -37.3802   23.9392 N   0  0  0  0  0  0
  -24.6815  -31.0665   22.0989 N   0  0  0  0  0  0
  -23.4188  -28.8194   23.3125 O   0  0  0  0  0  0
  -28.3521  -26.5001   20.2085 O   0  0  0  0  0  0
  -26.5669  -34.8942   22.4741 O   0  0  0  0  0  0
  -23.5318  -32.1469   23.7360 O   0  0  0  0  0  0
  -28.9408  -18.0111   20.8501 C   0  0  0  0  0  0
  -28.9796  -19.4249   20.6757 C   0  0  0  0  0  0
  -31.2694  -17.8529   20.2536 C   0  0  0  0  0  0
  -30.0734  -17.1735   20.6286 C   0  0  0  0  0  0
  -30.1570  -20.1161   20.2485 C   0  0  0  0  0  0
  -31.3186  -19.2676   20.0736 C   0  0  0  0  0  0
  -31.1674  -21.9967   19.0068 C   0  0  0  0  0  0
  -29.2531  -24.0036   20.4847 C   0  0  0  0  0  0
  -28.9899  -22.4704   20.1052 C   0  0  0  0  0  0
  -28.1339  -25.0434   20.0428 C   0  0  0  0  0  0
  -29.9026  -15.7228   20.7947 N   0  0  0  0  0  0
  -30.1798  -21.5563   20.0081 N   0  0  0  0  0  0
  -32.5267  -19.7897   19.7256 F   0  0  0  0  0  0
  -31.4689  -12.4734   19.1311 H   0  0  0  0  0  0
  -30.2983  -11.3942   19.8491 H   0  0  0  0  0  0
  -29.7735  -11.8625   17.4144 H   0  0  0  0  0  0
  -29.6584  -13.5691   17.7885 H   0  0  0  0  0  0
  -27.8462  -11.3320   18.7909 H   0  0  0  0  0  0
  -27.3795  -12.6723   17.7711 H   0  0  0  0  0  0
  -27.6618  -14.2686   19.5246 H   0  0  0  0  0  0
  -28.7189  -12.1041   21.3894 H   0  0  0  0  0  0
  -28.4659  -13.7812   21.8075 H   0  0  0  0  0  0
  -25.2774   -9.5781   22.4728 H   0  0  0  0  0  0
  -24.0082   -7.4658   22.7428 H   0  0  0  0  0  0
  -21.0828   -8.8697   19.8913 H   0  0  0  0  0  0
  -22.3616  -10.9647   19.6113 H   0  0  0  0  0  0
  -21.1979   -7.6107   23.9643 H   0  0  0  0  0  0
  -21.1536   -6.0521   25.9053 H   0  0  0  0  0  0
  -22.0603   -2.7570   23.2898 H   0  0  0  0  0  0
  -22.4239  -11.9851   22.4831 H   0  0  0  0  0  0
  -21.1137  -13.1065   22.2486 H   0  0  0  0  0  0
  -24.6978  -15.8760   20.4888 H   0  0  0  0  0  0
  -26.3212  -15.6091   20.1167 H   0  0  0  0  0  0
  -26.7120  -32.5521   23.1132 H   0  0  0  0  0  0
  -24.9793  -33.9716   25.0294 H   0  0  0  0  0  0
  -22.7055  -31.2996   21.4102 H   0  0  0  0  0  0
  -23.3790  -35.9583   23.3303 H   0  0  0  0  0  0
  -24.3570  -36.8936   22.2063 H   0  0  0  0  0  0
  -23.7179  -37.6472   23.6677 H   0  0  0  0  0  0
  -26.0986  -31.5818   20.6280 H   0  0  0  0  0  0
  -26.8254  -30.8387   22.0197 H   0  0  0  0  0  0
  -28.1090  -29.0127   21.2036 H   0  0  0  0  0  0
  -25.9892  -25.9522   18.9989 H   0  0  0  0  0  0
  -23.9991  -27.3178   18.9813 H   0  0  0  0  0  0
  -23.6976  -30.5879   19.3997 H   0  0  0  0  0  0
  -22.7573  -29.2100   19.8873 H   0  0  0  0  0  0
  -25.1308  -36.1983   25.0846 H   0  0  0  0  0  0
  -20.9952  -28.3197   24.1467 H   0  0  0  0  0  0
  -20.5689  -26.2211   23.3622 H   0  0  0  0  0  0
  -21.6610  -26.7425   22.1206 H   0  0  0  0  0  0
  -19.6868  -25.6303   21.1239 H   0  0  0  0  0  0
  -19.6715  -27.3207   20.6807 H   0  0  0  0  0  0
  -17.4198  -26.6714   21.4025 H   0  0  0  0  0  0
  -18.0284  -26.0074   22.9036 H   0  0  0  0  0  0
  -19.7908  -30.7326   24.2170 H   0  0  0  0  0  0
  -17.4965  -31.6260   24.5151 H   0  0  0  0  0  0
  -15.5302  -30.2913   23.7726 H   0  0  0  0  0  0
  -15.8678  -28.0819   22.7014 H   0  0  0  0  0  0
  -24.5788  -30.7079   25.7673 H   0  0  0  0  0  0
  -24.8729  -32.2834   26.4910 H   0  0  0  0  0  0
  -25.7846  -30.8805   27.0199 H   0  0  0  0  0  0
  -26.2850  -29.6811   24.1221 H   0  0  0  0  0  0
  -27.3882  -29.7323   25.4783 H   0  0  0  0  0  0
  -27.8752  -30.4367   23.9535 H   0  0  0  0  0  0
  -27.2699  -33.3620   26.2117 H   0  0  0  0  0  0
  -28.3748  -32.6871   25.0227 H   0  0  0  0  0  0
  -28.0750  -31.8395   26.5311 H   0  0  0  0  0  0
  -28.2603  -38.0100   24.7575 H   0  0  0  0  0  0
  -28.1107  -36.2648   24.6216 H   0  0  0  0  0  0
  -27.2314  -37.1347   25.8856 H   0  0  0  0  0  0
  -20.9363  -29.8578   21.6857 H   0  0  0  0  0  0
  -26.0223  -38.2892   24.1404 H   0  0  0  0  0  0
  -27.9889  -17.5760   21.1496 H   0  0  0  0  0  0
  -28.0482  -19.9459   20.8782 H   0  0  0  0  0  0
  -32.1961  -17.3119   20.0946 H   0  0  0  0  0  0
  -32.1437  -22.1738   19.4672 H   0  0  0  0  0  0
  -30.8679  -22.9305   18.5318 H   0  0  0  0  0  0
  -31.2824  -21.2786   18.1861 H   0  0  0  0  0  0
  -30.1947  -24.3414   20.0526 H   0  0  0  0  0  0
  -29.3959  -24.0736   21.5671 H   0  0  0  0  0  0
  -28.5058  -22.4599   19.1296 H   0  0  0  0  0  0
  -28.2442  -22.0685   20.7904 H   0  0  0  0  0  0
  -27.2112  -24.7676   20.5548 H   0  0  0  0  0  0
  -27.9552  -24.8752   18.9801 H   0  0  0  0  0  0
  -28.9786  -15.4420   21.0804 H   0  0  0  0  0  0
  1 25  1  0  0  0
  1 30  2  0  0  0
  1 81  1  0  0  0
  2  3  1  0  0  0
  2 25  1  0  0  0
  2 84  1  0  0  0
  2 85  1  0  0  0
  3  4  1  0  0  0
  3 86  1  0  0  0
  3 87  1  0  0  0
  4  5  1  0  0  0
  4 88  1  0  0  0
  4 89  1  0  0  0
  5  6  1  0  0  0
  5 26  1  0  0  0
  5 90  1  0  0  0
  6 25  1  0  0  0
  6 91  1  0  0  0
  6 92  1  0  0  0
  7  8  2  0  0  0
  7 26  1  0  0  0
  7 29  1  0  0  0
  8  9  1  0  0  0
  8 22  1  0  0  0
  9 10  1  0  0  0
  9 27  2  0  0  0
 10 11  2  0  0  0
 10 15  1  0  0  0
 11 12  1  0  0  0
 11 93  1  0  0  0
 12 13  2  0  0  0
 12 94  1  0  0  0
 13 14  1  0  0  0
 13 31  1  0  0  0
 14 15  2  0  0  0
 14 95  1  0  0  0
 15 96  1  0  0  0
 16 17  2  0  0  0
 16 21  1  0  0  0
 16 31  1  0  0  0
 17 18  1  0  0  0
 17 97  1  0  0  0
 18 19  2  0  0  0
 18 98  1  0  0  0
 19 20  1  0  0  0
 19 24  1  0  0  0
 20 21  2  0  0  0
 20 99  1  0  0  0
 21 23  1  0  0  0
 22 28  1  0  0  0
 22 32  2  0  0  0
 26 27  1  0  0  0
 28100  1  0  0  0
 28101  1  0  0  0
 29102  1  0  0  0
 29103  1  0  0  0
 33 34  1  0  0  0
 33 66  1  0  0  0
 33 70  2  0  0  0
 34 36  1  0  0  0
 34 59  1  0  0  0
 34104  1  0  0  0
 35 44  2  0  0  0
 35 45  1  0  0  0
 35 68  1  0  0  0
 36 56  1  0  0  0
 36105  1  0  0  0
 37 39  1  0  0  0
 37 47  1  0  0  0
 37 66  1  0  0  0
 37106  1  0  0  0
 38 43  2  0  0  0
 38 46  1  0  0  0
 38 47  1  0  0  0
 39 64  1  0  0  0
 39 67  2  0  0  0
 40 52  1  0  0  0
 40 53  2  0  0  0
 40 58  1  0  0  0
 41107  1  0  0  0
 41108  1  0  0  0
 41109  1  0  0  0
 41 48  1  0  0  0
 42 43  1  0  0  0
 42 66  1  0  0  0
 42110  1  0  0  0
 42111  1  0  0  0
 43 44  1  0  0  0
 44112  1  0  0  0
 45 46  2  0  0  0
 45113  1  0  0  0
 46114  1  0  0  0
 47115  1  0  0  0
 47116  1  0  0  0
 48 56  1  0  0  0
 48 65  1  0  0  0
 48117  1  0  0  0
 49 50  1  0  0  0
 49 53  1  0  0  0
 49 64  1  0  0  0
 49118  1  0  0  0
 50 51  1  0  0  0
 50119  1  0  0  0
 50120  1  0  0  0
 51 52  1  0  0  0
 51121  1  0  0  0
 51122  1  0  0  0
 52123  1  0  0  0
 52124  1  0  0  0
 53 54  1  0  0  0
 54 55  2  0  0  0
 54125  1  0  0  0
 55 57  1  0  0  0
 55126  1  0  0  0
 56 69  2  0  0  0
 57 58  2  0  0  0
 57127  1  0  0  0
 58128  1  0  0  0
 59 60  1  0  0  0
 59 61  1  0  0  0
 59 62  1  0  0  0
 60129  1  0  0  0
 60130  1  0  0  0
 60131  1  0  0  0
 61132  1  0  0  0
 61133  1  0  0  0
 61134  1  0  0  0
 62135  1  0  0  0
 62136  1  0  0  0
 62137  1  0  0  0
 63 65  1  0  0  0
 63138  1  0  0  0
 63139  1  0  0  0
 63140  1  0  0  0
 64141  1  0  0  0
 65142  1  0  0  0
 68 80  1  0  0  0
 71 72  2  0  0  0
 71 74  1  0  0  0
 71143  1  0  0  0
 72 75  1  0  0  0
 72144  1  0  0  0
 73 74  2  0  0  0
 73 76  1  0  0  0
 73145  1  0  0  0
 74 81  1  0  0  0
 75 76  2  0  0  0
 75 82  1  0  0  0
 76 83  1  0  0  0
 77 82  1  0  0  0
 77146  1  0  0  0
 77147  1  0  0  0
 77148  1  0  0  0
 78 79  1  0  0  0
 78 80  1  0  0  0
 78149  1  0  0  0
 78150  1  0  0  0
 79 82  1  0  0  0
 79151  1  0  0  0
 79152  1  0  0  0
 80153  1  0  0  0
 80154  1  0  0  0
 81155  1  0  0  0
M  ISO  4   1 100  68 101  80 101  81 100
M  END
> <chiral flag>
0

> <version>
0

> <s_m_source_file>
/data/baiqing/PycharmProjects/Reinvent-master-3.2/result/LINK_invent/BTK/process_docking_weight1_custom_product_contain_oxygen_bond_distance_aromatic_linkinvent_7_9_3/rearranged_h_0018.sdf

> <i_m_source_file_index>
96

> <r_mmod_Potential_Energy-OPLS-2005>
111.19123840332

> <r_mmod_Stretch_Energy-OPLS-2005>
91.4976501464844

> <r_mmod_Bend_Energy-OPLS-2005>
151.569885253906

> <r_mmod_Torsional_Energy-OPLS-2005>
204.809814453125

> <r_mmod_Improper_Torsional_Energy-OPLS-2005>
6.53689098358154

> <r_mmod_Van_der_Waal_Energy-OPLS-2005>
157.552764892578

> <r_mmod_Electrostatic_Energy-OPLS-2005>
-318.930389404297

> <r_mmod_Solvation_Energy-OPLS-2005>
-228.379623413086

> <b_mmod_Minimization_Converged-OPLS-2005>
0

> <r_mmod_RMS_Derivative-OPLS-2005>
9.26739883422852

$$$$
96
                    3D
 Structure written by MMmdl.
158166  0  0  1  0            999 V2000
  -30.7455  -14.4571   20.6199 C   0  0  0  0  0  0
  -30.4165  -12.3218   19.4135 C   0  0  0  0  0  0
  -29.4853  -12.5106   18.2008 C   0  0  0  0  0  0
  -28.0114  -12.3546   18.6197 C   0  0  0  0  0  0
  -27.6568  -13.2002   19.8700 C   0  0  2  0  0  0
  -28.7018  -13.0011   20.9918 C   0  0  0  0  0  0
  -25.2583  -13.8142   20.5686 C   0  0  0  0  0  0
  -24.1833  -13.0427   20.9189 C   0  0  0  0  0  0
  -24.6379  -11.6892   20.8747 C   0  0  0  0  0  0
  -23.9046  -10.4284   21.0412 C   0  0  0  0  0  0
  -24.3602   -9.4201   21.9188 C   0  0  0  0  0  0
  -23.6283   -8.2235   22.0754 C   0  0  0  0  0  0
  -22.4267   -8.0276   21.3543 C   0  0  0  0  0  0
  -21.9898   -9.0247   20.4646 C   0  0  0  0  0  0
  -22.7221  -10.2129   20.3059 C   0  0  0  0  0  0
  -21.6850   -6.0732   22.5278 C   0  0  0  0  0  0
  -21.4010   -6.5637   23.8210 C   0  0  0  0  0  0
  -21.3659   -5.6791   24.9174 C   0  0  0  0  0  0
  -21.6045   -4.3054   24.7226 C   0  0  0  0  0  0
  -21.8820   -3.8145   23.4347 C   0  0  0  0  0  0
  -21.9191   -4.6960   22.3402 C   0  0  0  0  0  0
  -22.7859  -13.5236   21.1849 C   0  0  0  0  0  0
  -22.1662   -4.2146   21.0979 F   0  0  0  0  0  0
  -21.5631   -3.4539   25.7739 F   0  0  0  0  0  0
  -30.0331  -13.3068   20.4398 N   0  0  0  0  0  0
  -26.3001  -12.9293   20.3357 N   0  0  0  0  0  0
  -25.9302  -11.6462   20.5775 N   0  0  0  0  0  0
  -22.0494  -12.8233   22.0404 N   0  0  0  0  0  0
  -25.4301  -15.1862   20.4086 N   0  0  0  0  0  0
  -31.8406  -14.6445   20.0787 O   0  0  0  0  0  0
  -21.6633   -6.8873   21.4238 O   0  0  0  0  0  0
  -22.3552  -14.5545   20.6698 O   0  0  0  0  0  0
  -24.6166  -31.8676   23.2114 C   0  0  0  0  0  0
  -25.9058  -32.4815   23.8406 C   0  0  1  0  0  0
  -27.2267  -27.4172   20.0935 C   0  0  0  0  0  0
  -25.5915  -33.8614   24.2334 N   0  0  0  0  0  0
  -23.4042  -30.4945   21.5522 C   0  0  2  0  0  0
  -24.8481  -28.9652   20.1113 C   0  0  0  0  0  0
  -22.7418  -29.4661   22.4975 C   0  0  0  0  0  0
  -18.0275  -28.1377   22.8488 C   0  0  0  0  0  0
  -24.1484  -36.7309   23.2637 C   0  0  0  0  0  0
  -25.9367  -30.8276   21.3688 C   0  0  0  0  0  0
  -26.0112  -29.4635   20.7110 C   0  0  0  0  0  0
  -27.2024  -28.6979   20.6988 C   0  0  0  0  0  0
  -26.0437  -26.9507   19.4698 C   0  0  0  0  0  0
  -24.8606  -27.7086   19.4870 C   0  0  0  0  0  0
  -23.6121  -29.8339   20.1646 C   0  0  0  0  0  0
  -25.4105  -36.3104   24.0336 C   0  0  1  0  0  0
  -20.5866  -28.3669   23.1304 C   0  0  2  0  0  0
  -20.6765  -26.9401   22.5412 C   0  0  0  0  0  0
  -19.5745  -26.6383   21.5207 C   0  0  0  0  0  0
  -18.1921  -26.7922   22.1618 C   0  0  0  0  0  0
  -19.1525  -28.8839   23.2895 C   0  0  0  0  0  0
  -18.9453  -30.1445   23.8903 C   0  0  0  0  0  0
  -17.6455  -30.6581   24.0565 C   0  0  0  0  0  0
  -25.9037  -34.9469   23.5129 C   0  0  0  0  0  0
  -16.5347  -29.9084   23.6328 C   0  0  0  0  0  0
  -16.7265  -28.6502   23.0344 C   0  0  0  0  0  0
  -26.4482  -31.6594   25.0737 C   0  0  0  0  0  0
  -25.3748  -31.3707   26.1489 C   0  0  0  0  0  0
  -27.0314  -30.3030   24.6130 C   0  0  0  0  0  0
  -27.6067  -32.4311   25.7490 C   0  0  0  0  0  0
  -27.5578  -37.1806   24.8463 C   0  0  0  0  0  0
  -21.4145  -29.3037   22.3710 N   0  0  0  0  0  0
  -26.4289  -37.3792   23.9411 N   0  0  0  0  0  0
  -24.6709  -31.0772   22.1020 N   0  0  0  0  0  0
  -23.4186  -28.8191   23.3011 O   0  0  0  0  0  0
  -28.3844  -26.6548   20.1376 O   0  0  0  0  0  0
  -26.5590  -34.8920   22.4686 O   0  0  0  0  0  0
  -23.5357  -32.1433   23.7501 O   0  0  0  0  0  0
  -29.7364  -18.5007   19.9601 C   0  0  0  0  0  0
  -29.9050  -19.9062   19.9747 C   0  0  0  0  0  0
  -29.3281  -18.5221   22.3535 C   0  0  0  0  0  0
  -29.4383  -17.7928   21.1478 C   0  0  0  0  0  0
  -29.7985  -20.6308   21.1842 C   0  0  0  0  0  0
  -29.5187  -19.9205   22.3739 C   0  0  0  0  0  0
  -31.1471  -15.8419   22.5629 C   0  0  0  0  0  0
  -29.1598  -16.2800   21.1147 C   0  0  0  0  0  0
  -29.3429  -24.3787   20.6040 C   0  0  0  0  0  0
  -29.1239  -22.8536   20.3974 C   0  0  0  0  0  0
  -28.2420  -25.2325   19.9323 C   0  0  0  0  0  0
  -29.9804  -22.0273   21.2524 N   0  0  0  0  0  0
  -30.2563  -15.3617   21.5031 N   0  0  0  0  0  0
  -29.4163  -20.5954   23.5455 F   0  0  0  0  0  0
  -31.4591  -12.4174   19.1049 H   0  0  0  0  0  0
  -30.3220  -11.3116   19.8147 H   0  0  0  0  0  0
  -29.7298  -11.7873   17.4218 H   0  0  0  0  0  0
  -29.6418  -13.4976   17.7627 H   0  0  0  0  0  0
  -27.8346  -11.2981   18.8253 H   0  0  0  0  0  0
  -27.3538  -12.6158   17.7896 H   0  0  0  0  0  0
  -27.6869  -14.2393   19.5515 H   0  0  0  0  0  0
  -28.6849  -11.9693   21.3458 H   0  0  0  0  0  0
  -28.4540  -13.6084   21.8625 H   0  0  0  0  0  0
  -25.2748   -9.5681   22.4760 H   0  0  0  0  0  0
  -23.9996   -7.4627   22.7472 H   0  0  0  0  0  0
  -21.0830   -8.8763   19.8951 H   0  0  0  0  0  0
  -22.3679  -10.9669   19.6170 H   0  0  0  0  0  0
  -21.1999   -7.6144   23.9713 H   0  0  0  0  0  0
  -21.1481   -6.0521   25.9077 H   0  0  0  0  0  0
  -22.0600   -2.7607   23.2847 H   0  0  0  0  0  0
  -22.4104  -11.9894   22.4796 H   0  0  0  0  0  0
  -21.1115  -13.1269   22.2610 H   0  0  0  0  0  0
  -24.6606  -15.8383   20.5159 H   0  0  0  0  0  0
  -26.2768  -15.6268   20.0737 H   0  0  0  0  0  0
  -26.7126  -32.5519   23.1165 H   0  0  0  0  0  0
  -25.0084  -33.9776   25.0493 H   0  0  0  0  0  0
  -22.6939  -31.3126   21.4163 H   0  0  0  0  0  0
  -23.3742  -35.9646   23.3306 H   0  0  0  0  0  0
  -24.3581  -36.8922   22.2050 H   0  0  0  0  0  0
  -23.7243  -37.6519   23.6649 H   0  0  0  0  0  0
  -26.0557  -31.5956   20.6033 H   0  0  0  0  0  0
  -26.8222  -30.8753   21.9906 H   0  0  0  0  0  0
  -28.0978  -29.0771   21.1717 H   0  0  0  0  0  0
  -26.0079  -25.9985   18.9613 H   0  0  0  0  0  0
  -23.9685  -27.3229   19.0127 H   0  0  0  0  0  0
  -23.7222  -30.6128   19.4091 H   0  0  0  0  0  0
  -22.7344  -29.2581   19.8657 H   0  0  0  0  0  0
  -25.1279  -36.1970   25.0829 H   0  0  0  0  0  0
  -20.9961  -28.3237   24.1424 H   0  0  0  0  0  0
  -20.5668  -26.2274   23.3600 H   0  0  0  0  0  0
  -21.6636  -26.7438   22.1205 H   0  0  0  0  0  0
  -19.6908  -25.6298   21.1231 H   0  0  0  0  0  0
  -19.6685  -27.3199   20.6741 H   0  0  0  0  0  0
  -17.4191  -26.6666   21.4020 H   0  0  0  0  0  0
  -18.0326  -26.0059   22.9010 H   0  0  0  0  0  0
  -19.7931  -30.7260   24.2268 H   0  0  0  0  0  0
  -17.5014  -31.6261   24.5167 H   0  0  0  0  0  0
  -15.5349  -30.2990   23.7653 H   0  0  0  0  0  0
  -15.8662  -28.0836   22.7043 H   0  0  0  0  0  0
  -24.5907  -30.7069   25.7830 H   0  0  0  0  0  0
  -24.8953  -32.2863   26.4957 H   0  0  0  0  0  0
  -25.8100  -30.8858   27.0236 H   0  0  0  0  0  0
  -26.2864  -29.6784   24.1188 H   0  0  0  0  0  0
  -27.4081  -29.7278   25.4600 H   0  0  0  0  0  0
  -27.8702  -30.4341   23.9289 H   0  0  0  0  0  0
  -27.2706  -33.3618   26.2074 H   0  0  0  0  0  0
  -28.3870  -32.6859   25.0305 H   0  0  0  0  0  0
  -28.0738  -31.8425   26.5396 H   0  0  0  0  0  0
  -28.2598  -38.0100   24.7513 H   0  0  0  0  0  0
  -28.1073  -36.2635   24.6287 H   0  0  0  0  0  0
  -27.2298  -37.1459   25.8866 H   0  0  0  0  0  0
  -20.9302  -29.8775   21.6948 H   0  0  0  0  0  0
  -26.0177  -38.2868   24.1419 H   0  0  0  0  0  0
  -29.8200  -17.9711   19.0209 H   0  0  0  0  0  0
  -30.1304  -20.4179   19.0501 H   0  0  0  0  0  0
  -29.0850  -18.0141   23.2750 H   0  0  0  0  0  0
  -30.5749  -16.1822   23.4256 H   0  0  0  0  0  0
  -31.7701  -16.6642   22.2084 H   0  0  0  0  0  0
  -31.8115  -15.0505   22.9151 H   0  0  0  0  0  0
  -28.8183  -16.0465   20.1057 H   0  0  0  0  0  0
  -28.3062  -16.0752   21.7623 H   0  0  0  0  0  0
  -30.3213  -24.6698   20.2202 H   0  0  0  0  0  0
  -29.3476  -24.6078   21.6704 H   0  0  0  0  0  0
  -29.2844  -22.6025   19.3477 H   0  0  0  0  0  0
  -28.0838  -22.6056   20.6189 H   0  0  0  0  0  0
  -27.2986  -24.8812   20.3539 H   0  0  0  0  0  0
  -28.2149  -25.0280   18.8611 H   0  0  0  0  0  0
  -29.9797  -22.3308   22.2243 H   0  0  0  0  0  0
  1 25  1  0  0  0
  1 30  2  0  0  0
  1 83  1  0  0  0
  2  3  1  0  0  0
  2 25  1  0  0  0
  2 85  1  0  0  0
  2 86  1  0  0  0
  3  4  1  0  0  0
  3 87  1  0  0  0
  3 88  1  0  0  0
  4  5  1  0  0  0
  4 89  1  0  0  0
  4 90  1  0  0  0
  5  6  1  0  0  0
  5 26  1  0  0  0
  5 91  1  0  0  0
  6 25  1  0  0  0
  6 92  1  0  0  0
  6 93  1  0  0  0
  7  8  2  0  0  0
  7 26  1  0  0  0
  7 29  1  0  0  0
  8  9  1  0  0  0
  8 22  1  0  0  0
  9 10  1  0  0  0
  9 27  2  0  0  0
 10 11  2  0  0  0
 10 15  1  0  0  0
 11 12  1  0  0  0
 11 94  1  0  0  0
 12 13  2  0  0  0
 12 95  1  0  0  0
 13 14  1  0  0  0
 13 31  1  0  0  0
 14 15  2  0  0  0
 14 96  1  0  0  0
 15 97  1  0  0  0
 16 17  2  0  0  0
 16 21  1  0  0  0
 16 31  1  0  0  0
 17 18  1  0  0  0
 17 98  1  0  0  0
 18 19  2  0  0  0
 18 99  1  0  0  0
 19 20  1  0  0  0
 19 24  1  0  0  0
 20 21  2  0  0  0
 20100  1  0  0  0
 21 23  1  0  0  0
 22 28  1  0  0  0
 22 32  2  0  0  0
 26 27  1  0  0  0
 28101  1  0  0  0
 28102  1  0  0  0
 29103  1  0  0  0
 29104  1  0  0  0
 33 34  1  0  0  0
 33 66  1  0  0  0
 33 70  2  0  0  0
 34 36  1  0  0  0
 34 59  1  0  0  0
 34105  1  0  0  0
 35 44  2  0  0  0
 35 45  1  0  0  0
 35 68  1  0  0  0
 36 56  1  0  0  0
 36106  1  0  0  0
 37 39  1  0  0  0
 37 47  1  0  0  0
 37 66  1  0  0  0
 37107  1  0  0  0
 38 43  2  0  0  0
 38 46  1  0  0  0
 38 47  1  0  0  0
 39 64  1  0  0  0
 39 67  2  0  0  0
 40 52  1  0  0  0
 40 53  2  0  0  0
 40 58  1  0  0  0
 41108  1  0  0  0
 41109  1  0  0  0
 41110  1  0  0  0
 41 48  1  0  0  0
 42 43  1  0  0  0
 42 66  1  0  0  0
 42111  1  0  0  0
 42112  1  0  0  0
 43 44  1  0  0  0
 44113  1  0  0  0
 45 46  2  0  0  0
 45114  1  0  0  0
 46115  1  0  0  0
 47116  1  0  0  0
 47117  1  0  0  0
 48 56  1  0  0  0
 48 65  1  0  0  0
 48118  1  0  0  0
 49 50  1  0  0  0
 49 53  1  0  0  0
 49 64  1  0  0  0
 49119  1  0  0  0
 50 51  1  0  0  0
 50120  1  0  0  0
 50121  1  0  0  0
 51 52  1  0  0  0
 51122  1  0  0  0
 51123  1  0  0  0
 52124  1  0  0  0
 52125  1  0  0  0
 53 54  1  0  0  0
 54 55  2  0  0  0
 54126  1  0  0  0
 55 57  1  0  0  0
 55127  1  0  0  0
 56 69  2  0  0  0
 57 58  2  0  0  0
 57128  1  0  0  0
 58129  1  0  0  0
 59 60  1  0  0  0
 59 61  1  0  0  0
 59 62  1  0  0  0
 60130  1  0  0  0
 60131  1  0  0  0
 60132  1  0  0  0
 61133  1  0  0  0
 61134  1  0  0  0
 61135  1  0  0  0
 62136  1  0  0  0
 62137  1  0  0  0
 62138  1  0  0  0
 63 65  1  0  0  0
 63139  1  0  0  0
 63140  1  0  0  0
 63141  1  0  0  0
 64142  1  0  0  0
 65143  1  0  0  0
 68 81  1  0  0  0
 71 72  2  0  0  0
 71 74  1  0  0  0
 71144  1  0  0  0
 72 75  1  0  0  0
 72145  1  0  0  0
 73 74  2  0  0  0
 73 76  1  0  0  0
 73146  1  0  0  0
 74 78  1  0  0  0
 75 76  2  0  0  0
 75 82  1  0  0  0
 76 84  1  0  0  0
 77 83  1  0  0  0
 77147  1  0  0  0
 77148  1  0  0  0
 77149  1  0  0  0
 78 83  1  0  0  0
 78150  1  0  0  0
 78151  1  0  0  0
 79 80  1  0  0  0
 79 81  1  0  0  0
 79152  1  0  0  0
 79153  1  0  0  0
 80 82  1  0  0  0
 80154  1  0  0  0
 80155  1  0  0  0
 81156  1  0  0  0
 81157  1  0  0  0
 82158  1  0  0  0
M  ISO  4   1 100  68 101  81 101  83 100
M  END
> <chiral flag>
0

> <version>
0

> <s_m_source_file>
/data/baiqing/PycharmProjects/Reinvent-master-3.2/result/LINK_invent/BTK/process_docking_weight1_custom_product_contain_oxygen_bond_distance_aromatic_linkinvent_7_9_3/rearranged_h_0018.sdf

> <i_m_source_file_index>
97

> <r_mmod_Potential_Energy-OPLS-2005>
105.400436401367

> <r_mmod_Stretch_Energy-OPLS-2005>
40.8836097717285

> <r_mmod_Bend_Energy-OPLS-2005>
98.6938705444336

> <r_mmod_Torsional_Energy-OPLS-2005>
270.952178955078

> <r_mmod_Improper_Torsional_Energy-OPLS-2005>
8.99568176269531

> <r_mmod_Van_der_Waal_Energy-OPLS-2005>
155.745651245117

> <r_mmod_Electrostatic_Energy-OPLS-2005>
-280.244873046875

> <r_mmod_Solvation_Energy-OPLS-2005>
-203.828063964844

> <b_mmod_Minimization_Converged-OPLS-2005>
0

> <r_mmod_RMS_Derivative-OPLS-2005>
0.464102476835251

$$$$
97
                    3D
 Structure written by MMmdl.
159167  0  0  1  0            999 V2000
  -30.6556  -14.4952   20.5859 C   0  0  0  0  0  0
  -30.4366  -12.3229   19.4144 C   0  0  0  0  0  0
  -29.5007  -12.5079   18.1990 C   0  0  0  0  0  0
  -28.0224  -12.3498   18.6109 C   0  0  0  0  0  0
  -27.6627  -13.1910   19.8669 C   0  0  2  0  0  0
  -28.7023  -12.9538   20.9856 C   0  0  0  0  0  0
  -25.2604  -13.8125   20.5634 C   0  0  0  0  0  0
  -24.1847  -13.0399   20.9144 C   0  0  0  0  0  0
  -24.6385  -11.6879   20.8688 C   0  0  0  0  0  0
  -23.9048  -10.4271   21.0387 C   0  0  0  0  0  0
  -24.3613   -9.4193   21.9165 C   0  0  0  0  0  0
  -23.6283   -8.2241   22.0746 C   0  0  0  0  0  0
  -22.4263   -8.0275   21.3541 C   0  0  0  0  0  0
  -21.9900   -9.0245   20.4644 C   0  0  0  0  0  0
  -22.7222  -10.2118   20.3037 C   0  0  0  0  0  0
  -21.6843   -6.0732   22.5279 C   0  0  0  0  0  0
  -21.4006   -6.5635   23.8208 C   0  0  0  0  0  0
  -21.3669   -5.6779   24.9174 C   0  0  0  0  0  0
  -21.6048   -4.3047   24.7207 C   0  0  0  0  0  0
  -21.8823   -3.8143   23.4331 C   0  0  0  0  0  0
  -21.9196   -4.6969   22.3388 C   0  0  0  0  0  0
  -22.7883  -13.5238   21.1810 C   0  0  0  0  0  0
  -22.1658   -4.2163   21.0962 F   0  0  0  0  0  0
  -21.5640   -3.4519   25.7721 F   0  0  0  0  0  0
  -30.0336  -13.2893   20.4513 N   0  0  0  0  0  0
  -26.3016  -12.9260   20.3299 N   0  0  0  0  0  0
  -25.9297  -11.6419   20.5673 N   0  0  0  0  0  0
  -22.0527  -12.8233   22.0391 N   0  0  0  0  0  0
  -25.4247  -15.1840   20.4100 N   0  0  0  0  0  0
  -31.7493  -14.7482   20.0695 O   0  0  0  0  0  0
  -21.6617   -6.8882   21.4243 O   0  0  0  0  0  0
  -22.3577  -14.5545   20.6676 O   0  0  0  0  0  0
  -24.6203  -31.8661   23.2001 C   0  0  0  0  0  0
  -25.9054  -32.4805   23.8334 C   0  0  1  0  0  0
  -27.2315  -27.4237   20.0916 C   0  0  0  0  0  0
  -25.5877  -33.8590   24.2273 N   0  0  0  0  0  0
  -23.4033  -30.4937   21.5438 C   0  0  2  0  0  0
  -24.8501  -28.9454   20.1151 C   0  0  0  0  0  0
  -22.7401  -29.4767   22.5022 C   0  0  0  0  0  0
  -18.0302  -28.1430   22.8506 C   0  0  0  0  0  0
  -24.1499  -36.7327   23.2648 C   0  0  0  0  0  0
  -25.9311  -30.8287   21.3458 C   0  0  0  0  0  0
  -26.0121  -29.4585   20.7060 C   0  0  0  0  0  0
  -27.2097  -28.7032   20.6978 C   0  0  0  0  0  0
  -26.0578  -26.9271   19.4889 C   0  0  0  0  0  0
  -24.8682  -27.6778   19.5079 C   0  0  0  0  0  0
  -23.6050  -29.8047   20.1681 C   0  0  0  0  0  0
  -25.4114  -36.3127   24.0358 C   0  0  1  0  0  0
  -20.5884  -28.3746   23.1277 C   0  0  2  0  0  0
  -20.6891  -26.9524   22.5244 C   0  0  0  0  0  0
  -19.5746  -26.6403   21.5182 C   0  0  0  0  0  0
  -18.1933  -26.7975   22.1616 C   0  0  0  0  0  0
  -19.1553  -28.8898   23.2909 C   0  0  0  0  0  0
  -18.9518  -30.1507   23.8938 C   0  0  0  0  0  0
  -17.6534  -30.6680   24.0532 C   0  0  0  0  0  0
  -25.9030  -34.9481   23.5120 C   0  0  0  0  0  0
  -16.5420  -29.9179   23.6315 C   0  0  0  0  0  0
  -16.7312  -28.6560   23.0394 C   0  0  0  0  0  0
  -26.4420  -31.6598   25.0688 C   0  0  0  0  0  0
  -25.3637  -31.3720   26.1411 C   0  0  0  0  0  0
  -27.0252  -30.3077   24.5996 C   0  0  0  0  0  0
  -27.6024  -32.4298   25.7428 C   0  0  0  0  0  0
  -27.5587  -37.1820   24.8475 C   0  0  0  0  0  0
  -21.4126  -29.3226   22.3802 N   0  0  0  0  0  0
  -26.4309  -37.3812   23.9411 N   0  0  0  0  0  0
  -24.6723  -31.0756   22.0897 N   0  0  0  0  0  0
  -23.4163  -28.8288   23.3070 O   0  0  0  0  0  0
  -28.3468  -26.6171   20.1247 O   0  0  0  0  0  0
  -26.5627  -34.8940   22.4695 O   0  0  0  0  0  0
  -23.5403  -32.1461   23.7366 O   0  0  0  0  0  0
  -28.4721  -18.4510   19.6556 C   0  0  0  0  0  0
  -28.8768  -17.1147   19.8740 C   0  0  0  0  0  0
  -30.2377  -17.8344   21.7499 C   0  0  0  0  0  0
  -28.9330  -19.4976   20.4884 C   0  0  0  0  0  0
  -29.7424  -16.7838   20.9412 C   0  0  0  0  0  0
  -29.8564  -19.1768   21.5112 C   0  0  0  0  0  0
  -27.1897  -20.9682   22.4519 C   0  0  0  0  0  0
  -28.4219  -20.9395   20.2771 C   0  0  0  0  0  0
  -28.5444  -24.1286   20.6593 C   0  0  0  0  0  0
  -27.5893  -23.0961   21.3304 C   0  0  0  0  0  0
  -28.2311  -25.5820   21.1215 C   0  0  0  0  0  0
  -29.9595  -15.4130   21.2894 N   0  0  0  0  0  0
  -28.0971  -21.6982   21.5254 N   0  3  1  0  0  0
  -30.3304  -20.1649   22.3076 F   0  0  0  0  0  0
  -31.4786  -12.4532   19.1138 H   0  0  0  0  0  0
  -30.3631  -11.3037   19.8002 H   0  0  0  0  0  0
  -29.7510  -11.7828   17.4230 H   0  0  0  0  0  0
  -29.6553  -13.4930   17.7576 H   0  0  0  0  0  0
  -27.8524  -11.2908   18.8109 H   0  0  0  0  0  0
  -27.3679  -12.6091   17.7774 H   0  0  0  0  0  0
  -27.7049  -14.2376   19.5685 H   0  0  0  0  0  0
  -28.6905  -11.9059   21.2872 H   0  0  0  0  0  0
  -28.4439  -13.5101   21.8862 H   0  0  0  0  0  0
  -25.2777   -9.5659   22.4712 H   0  0  0  0  0  0
  -24.0000   -7.4629   22.7463 H   0  0  0  0  0  0
  -21.0835   -8.8751   19.8948 H   0  0  0  0  0  0
  -22.3694  -10.9649   19.6125 H   0  0  0  0  0  0
  -21.1968   -7.6134   23.9716 H   0  0  0  0  0  0
  -21.1500   -6.0499   25.9078 H   0  0  0  0  0  0
  -22.0597   -2.7611   23.2802 H   0  0  0  0  0  0
  -22.4135  -11.9912   22.4810 H   0  0  0  0  0  0
  -21.1124  -13.1260   22.2559 H   0  0  0  0  0  0
  -24.6422  -15.8159   20.5301 H   0  0  0  0  0  0
  -26.2721  -15.6576   20.1307 H   0  0  0  0  0  0
  -26.7125  -32.5566   23.1111 H   0  0  0  0  0  0
  -24.9980  -33.9719   25.0384 H   0  0  0  0  0  0
  -22.6977  -31.3129   21.3946 H   0  0  0  0  0  0
  -23.3748  -35.9673   23.3327 H   0  0  0  0  0  0
  -24.3609  -36.8910   22.2062 H   0  0  0  0  0  0
  -23.7227  -37.6537   23.6622 H   0  0  0  0  0  0
  -26.0198  -31.5718   20.5544 H   0  0  0  0  0  0
  -26.8262  -30.9052   21.9485 H   0  0  0  0  0  0
  -28.1007  -29.0897   21.1736 H   0  0  0  0  0  0
  -26.0628  -25.9485   19.0281 H   0  0  0  0  0  0
  -23.9753  -27.2683   19.0580 H   0  0  0  0  0  0
  -23.6952  -30.5603   19.3892 H   0  0  0  0  0  0
  -22.7287  -29.2128   19.8959 H   0  0  0  0  0  0
  -25.1271  -36.2016   25.0858 H   0  0  0  0  0  0
  -20.9955  -28.3229   24.1389 H   0  0  0  0  0  0
  -20.6035  -26.2302   23.3349 H   0  0  0  0  0  0
  -21.6752  -26.7738   22.0930 H   0  0  0  0  0  0
  -19.6857  -25.6300   21.1280 H   0  0  0  0  0  0
  -19.6579  -27.3091   20.6632 H   0  0  0  0  0  0
  -17.4295  -26.6837   21.3908 H   0  0  0  0  0  0
  -18.0164  -26.0041   22.8888 H   0  0  0  0  0  0
  -19.8023  -30.7304   24.2324 H   0  0  0  0  0  0
  -17.5170  -31.6380   24.5118 H   0  0  0  0  0  0
  -15.5418  -30.3050   23.7635 H   0  0  0  0  0  0
  -15.8694  -28.0879   22.7166 H   0  0  0  0  0  0
  -24.5814  -30.7067   25.7698 H   0  0  0  0  0  0
  -24.8822  -32.2906   26.4819 H   0  0  0  0  0  0
  -25.7955  -30.8900   27.0194 H   0  0  0  0  0  0
  -26.2795  -29.6868   24.1018 H   0  0  0  0  0  0
  -27.4060  -29.7267   25.4395 H   0  0  0  0  0  0
  -27.8585  -30.4468   23.9096 H   0  0  0  0  0  0
  -27.2654  -33.3584   26.2037 H   0  0  0  0  0  0
  -28.3778  -32.6871   25.0192 H   0  0  0  0  0  0
  -28.0725  -31.8398   26.5309 H   0  0  0  0  0  0
  -28.2636  -38.0096   24.7504 H   0  0  0  0  0  0
  -28.1057  -36.2625   24.6313 H   0  0  0  0  0  0
  -27.2313  -37.1467   25.8887 H   0  0  0  0  0  0
  -20.9282  -29.9173   21.7237 H   0  0  0  0  0  0
  -26.0216  -38.2914   24.1351 H   0  0  0  0  0  0
  -27.7820  -18.6598   18.8483 H   0  0  0  0  0  0
  -28.4784  -16.3442   19.2313 H   0  0  0  0  0  0
  -30.8876  -17.6240   22.5850 H   0  0  0  0  0  0
  -27.5668  -19.9896   22.7433 H   0  0  0  0  0  0
  -26.1974  -20.8283   22.0240 H   0  0  0  0  0  0
  -27.0657  -21.5269   23.3796 H   0  0  0  0  0  0
  -27.5296  -20.9081   19.6514 H   0  0  0  0  0  0
  -29.1721  -21.4824   19.7040 H   0  0  0  0  0  0
  -28.4596  -24.0525   19.5736 H   0  0  0  0  0  0
  -29.5801  -23.8951   20.9166 H   0  0  0  0  0  0
  -26.6411  -23.0789   20.7894 H   0  0  0  0  0  0
  -27.3530  -23.4756   22.3280 H   0  0  0  0  0  0
  -27.2374  -25.6002   21.5785 H   0  0  0  0  0  0
  -28.9112  -25.8437   21.9331 H   0  0  0  0  0  0
  -29.1884  -14.9899   21.7828 H   0  0  0  0  0  0
  -28.9789  -21.7551   22.0149 H   0  0  0  0  0  0
  1 25  1  0  0  0
  1 30  2  0  0  0
  1 82  1  0  0  0
  2  3  1  0  0  0
  2 25  1  0  0  0
  2 85  1  0  0  0
  2 86  1  0  0  0
  3  4  1  0  0  0
  3 87  1  0  0  0
  3 88  1  0  0  0
  4  5  1  0  0  0
  4 89  1  0  0  0
  4 90  1  0  0  0
  5  6  1  0  0  0
  5 26  1  0  0  0
  5 91  1  0  0  0
  6 25  1  0  0  0
  6 92  1  0  0  0
  6 93  1  0  0  0
  7  8  2  0  0  0
  7 26  1  0  0  0
  7 29  1  0  0  0
  8  9  1  0  0  0
  8 22  1  0  0  0
  9 10  1  0  0  0
  9 27  2  0  0  0
 10 11  2  0  0  0
 10 15  1  0  0  0
 11 12  1  0  0  0
 11 94  1  0  0  0
 12 13  2  0  0  0
 12 95  1  0  0  0
 13 14  1  0  0  0
 13 31  1  0  0  0
 14 15  2  0  0  0
 14 96  1  0  0  0
 15 97  1  0  0  0
 16 17  2  0  0  0
 16 21  1  0  0  0
 16 31  1  0  0  0
 17 18  1  0  0  0
 17 98  1  0  0  0
 18 19  2  0  0  0
 18 99  1  0  0  0
 19 20  1  0  0  0
 19 24  1  0  0  0
 20 21  2  0  0  0
 20100  1  0  0  0
 21 23  1  0  0  0
 22 28  1  0  0  0
 22 32  2  0  0  0
 26 27  1  0  0  0
 28101  1  0  0  0
 28102  1  0  0  0
 29103  1  0  0  0
 29104  1  0  0  0
 33 34  1  0  0  0
 33 66  1  0  0  0
 33 70  2  0  0  0
 34 36  1  0  0  0
 34 59  1  0  0  0
 34105  1  0  0  0
 35 44  2  0  0  0
 35 45  1  0  0  0
 35 68  1  0  0  0
 36 56  1  0  0  0
 36106  1  0  0  0
 37 39  1  0  0  0
 37 47  1  0  0  0
 37 66  1  0  0  0
 37107  1  0  0  0
 38 43  2  0  0  0
 38 46  1  0  0  0
 38 47  1  0  0  0
 39 64  1  0  0  0
 39 67  2  0  0  0
 40 52  1  0  0  0
 40 53  2  0  0  0
 40 58  1  0  0  0
 41108  1  0  0  0
 41109  1  0  0  0
 41110  1  0  0  0
 41 48  1  0  0  0
 42 43  1  0  0  0
 42 66  1  0  0  0
 42111  1  0  0  0
 42112  1  0  0  0
 43 44  1  0  0  0
 44113  1  0  0  0
 45 46  2  0  0  0
 45114  1  0  0  0
 46115  1  0  0  0
 47116  1  0  0  0
 47117  1  0  0  0
 48 56  1  0  0  0
 48 65  1  0  0  0
 48118  1  0  0  0
 49 50  1  0  0  0
 49 53  1  0  0  0
 49 64  1  0  0  0
 49119  1  0  0  0
 50 51  1  0  0  0
 50120  1  0  0  0
 50121  1  0  0  0
 51 52  1  0  0  0
 51122  1  0  0  0
 51123  1  0  0  0
 52124  1  0  0  0
 52125  1  0  0  0
 53 54  1  0  0  0
 54 55  2  0  0  0
 54126  1  0  0  0
 55 57  1  0  0  0
 55127  1  0  0  0
 56 69  2  0  0  0
 57 58  2  0  0  0
 57128  1  0  0  0
 58129  1  0  0  0
 59 60  1  0  0  0
 59 61  1  0  0  0
 59 62  1  0  0  0
 60130  1  0  0  0
 60131  1  0  0  0
 60132  1  0  0  0
 61133  1  0  0  0
 61134  1  0  0  0
 61135  1  0  0  0
 62136  1  0  0  0
 62137  1  0  0  0
 62138  1  0  0  0
 63 65  1  0  0  0
 63139  1  0  0  0
 63140  1  0  0  0
 63141  1  0  0  0
 64142  1  0  0  0
 65143  1  0  0  0
 68 81  1  0  0  0
 71 72  2  0  0  0
 71 74  1  0  0  0
 71144  1  0  0  0
 72 75  1  0  0  0
 72145  1  0  0  0
 73 75  2  0  0  0
 73 76  1  0  0  0
 73146  1  0  0  0
 74 76  2  0  0  0
 74 78  1  0  0  0
 75 82  1  0  0  0
 76 84  1  0  0  0
 77147  1  0  0  0
 77148  1  0  0  0
 77149  1  0  0  0
 77 83  1  0  0  0
 78 83  1  0  0  0
 78150  1  0  0  0
 78151  1  0  0  0
 79 80  1  0  0  0
 79 81  1  0  0  0
 79152  1  0  0  0
 79153  1  0  0  0
 80 83  1  0  0  0
 80154  1  0  0  0
 80155  1  0  0  0
 81156  1  0  0  0
 81157  1  0  0  0
 82158  1  0  0  0
 83159  1  0  0  0
M  CHG  1  83   1
M  ISO  4   1 100  68 101  81 101  82 100
M  END
> <chiral flag>
0

> <version>
0

> <s_m_source_file>
/data/baiqing/PycharmProjects/Reinvent-master-3.2/result/LINK_invent/BTK/process_docking_weight1_custom_product_contain_oxygen_bond_distance_aromatic_linkinvent_7_9_3/rearranged_h_0018.sdf

> <i_m_source_file_index>
98

> <r_mmod_Potential_Energy-OPLS-2005>
-123.312965393066

> <r_mmod_Stretch_Energy-OPLS-2005>
41.7686157226562

> <r_mmod_Bend_Energy-OPLS-2005>
103.873176574707

> <r_mmod_Torsional_Energy-OPLS-2005>
282.567504882812

> <r_mmod_Improper_Torsional_Energy-OPLS-2005>
5.60172033309937

> <r_mmod_Van_der_Waal_Energy-OPLS-2005>
149.639495849609

> <r_mmod_Electrostatic_Energy-OPLS-2005>
-279.183563232422

> <r_mmod_Solvation_Energy-OPLS-2005>
-444.560119628906

> <b_mmod_Minimization_Converged-OPLS-2005>
0

> <r_mmod_RMS_Derivative-OPLS-2005>
5.4221625328064

$$$$
98
                    3D
 Structure written by MMmdl.
161170  0  0  1  0            999 V2000
  -30.7080  -14.5004   20.4569 C   0  0  0  0  0  0
  -30.4094  -12.2852   19.4545 C   0  0  0  0  0  0
  -29.5098  -12.4730   18.2153 C   0  0  0  0  0  0
  -28.0265  -12.3284   18.6082 C   0  0  0  0  0  0
  -27.6471  -13.1991   19.8342 C   0  0  2  0  0  0
  -28.6889  -13.0893   20.9726 C   0  0  0  0  0  0
  -25.2606  -13.8128   20.5609 C   0  0  0  0  0  0
  -24.1859  -13.0423   20.9156 C   0  0  0  0  0  0
  -24.6386  -11.6879   20.8702 C   0  0  0  0  0  0
  -23.9042  -10.4277   21.0387 C   0  0  0  0  0  0
  -24.3589   -9.4198   21.9162 C   0  0  0  0  0  0
  -23.6274   -8.2224   22.0754 C   0  0  0  0  0  0
  -22.4260   -8.0261   21.3536 C   0  0  0  0  0  0
  -21.9898   -9.0219   20.4610 C   0  0  0  0  0  0
  -22.7229  -10.2105   20.3016 C   0  0  0  0  0  0
  -21.6850   -6.0731   22.5285 C   0  0  0  0  0  0
  -21.3996   -6.5641   23.8215 C   0  0  0  0  0  0
  -21.3654   -5.6799   24.9181 C   0  0  0  0  0  0
  -21.6050   -4.3054   24.7236 C   0  0  0  0  0  0
  -21.8835   -3.8137   23.4358 C   0  0  0  0  0  0
  -21.9194   -4.6949   22.3416 C   0  0  0  0  0  0
  -22.7893  -13.5216   21.1838 C   0  0  0  0  0  0
  -22.1665   -4.2127   21.0983 F   0  0  0  0  0  0
  -21.5638   -3.4538   25.7748 F   0  0  0  0  0  0
  -30.0261  -13.3255   20.4202 N   0  0  0  0  0  0
  -26.2967  -12.9257   20.3144 N   0  0  0  0  0  0
  -25.9302  -11.6435   20.5650 N   0  0  0  0  0  0
  -22.0536  -12.8197   22.0379 N   0  0  0  0  0  0
  -25.4399  -15.1845   20.4044 N   0  0  0  0  0  0
  -31.9185  -14.5379   20.2295 O   0  0  0  0  0  0
  -21.6627   -6.8853   21.4238 O   0  0  0  0  0  0
  -22.3590  -14.5531   20.6680 O   0  0  0  0  0  0
  -24.6144  -31.8703   23.2138 C   0  0  0  0  0  0
  -25.9040  -32.4842   23.8426 C   0  0  1  0  0  0
  -27.2279  -27.4227   20.1130 C   0  0  0  0  0  0
  -25.5928  -33.8654   24.2350 N   0  0  0  0  0  0
  -23.4010  -30.4992   21.5511 C   0  0  2  0  0  0
  -24.8451  -28.9637   20.1178 C   0  0  0  0  0  0
  -22.7404  -29.4692   22.4958 C   0  0  0  0  0  0
  -18.0261  -28.1382   22.8488 C   0  0  0  0  0  0
  -24.1488  -36.7329   23.2634 C   0  0  0  0  0  0
  -25.9306  -30.8396   21.3635 C   0  0  0  0  0  0
  -26.0065  -29.4724   20.7099 C   0  0  0  0  0  0
  -27.1969  -28.7087   20.7024 C   0  0  0  0  0  0
  -26.0342  -26.9260   19.5298 C   0  0  0  0  0  0
  -24.8531  -27.6899   19.5279 C   0  0  0  0  0  0
  -23.6123  -29.8381   20.1628 C   0  0  0  0  0  0
  -25.4118  -36.3122   24.0323 C   0  0  1  0  0  0
  -20.5852  -28.3704   23.1294 C   0  0  2  0  0  0
  -20.6762  -26.9439   22.5394 C   0  0  0  0  0  0
  -19.5739  -26.6387   21.5197 C   0  0  0  0  0  0
  -18.1919  -26.7929   22.1612 C   0  0  0  0  0  0
  -19.1511  -28.8851   23.2888 C   0  0  0  0  0  0
  -18.9446  -30.1451   23.8904 C   0  0  0  0  0  0
  -17.6447  -30.6589   24.0572 C   0  0  0  0  0  0
  -25.9051  -34.9490   23.5121 C   0  0  0  0  0  0
  -16.5333  -29.9108   23.6305 C   0  0  0  0  0  0
  -16.7251  -28.6519   23.0334 C   0  0  0  0  0  0
  -26.4486  -31.6623   25.0751 C   0  0  0  0  0  0
  -25.3757  -31.3639   26.1478 C   0  0  0  0  0  0
  -27.0391  -30.3095   24.6125 C   0  0  0  0  0  0
  -27.6011  -32.4379   25.7566 C   0  0  0  0  0  0
  -27.5576  -37.1832   24.8457 C   0  0  0  0  0  0
  -21.4129  -29.3083   22.3713 N   0  0  0  0  0  0
  -26.4294  -37.3817   23.9395 N   0  0  0  0  0  0
  -24.6665  -31.0821   22.1031 N   0  0  0  0  0  0
  -23.4164  -28.8240   23.3019 O   0  0  0  0  0  0
  -28.4190  -26.7186   20.1592 O   0  0  0  0  0  0
  -26.5597  -34.8920   22.4670 O   0  0  0  0  0  0
  -23.5339  -32.1468   23.7522 O   0  0  0  0  0  0
  -31.0208  -20.4251   21.1571 C   0  0  0  0  0  0
  -30.5119  -21.6886   20.7835 C   0  0  0  0  0  0
  -28.8612  -19.4116   20.6979 C   0  0  0  0  0  0
  -30.2191  -19.2636   21.0675 C   0  0  0  0  0  0
  -29.1825  -21.8166   20.3219 C   0  0  0  0  0  0
  -28.3456  -20.6754   20.3306 C   0  0  0  0  0  0
  -28.6605  -24.2259   20.2921 C   0  0  0  0  0  0
  -30.5399  -16.7290   19.2516 C   0  0  0  0  0  0
  -31.5232  -17.6478   19.9741 C   0  0  0  0  0  0
  -30.0801  -16.8082   21.6150 C   0  0  0  0  0  0
  -29.9486  -15.8638   20.3853 C   0  0  2  0  0  0
  -28.5310  -22.9101   18.2220 C   0  0  0  0  0  0
  -28.5885  -25.5025   19.4063 C   0  0  0  0  0  0
  -30.8459  -18.0036   21.2153 N   0  0  0  0  0  0
  -28.7652  -23.0206   19.6670 N   0  0  0  0  0  0
  -28.6412  -24.3312   21.5262 O   0  0  0  0  0  0
  -27.0573  -20.7695   19.9169 F   0  0  0  0  0  0
  -31.4639  -12.3307   19.1782 H   0  0  0  0  0  0
  -30.2550  -11.2974   19.8912 H   0  0  0  0  0  0
  -29.7678  -11.7455   17.4449 H   0  0  0  0  0  0
  -29.6855  -13.4583   17.7775 H   0  0  0  0  0  0
  -27.8443  -11.2756   18.8280 H   0  0  0  0  0  0
  -27.3900  -12.5790   17.7593 H   0  0  0  0  0  0
  -27.6367  -14.2159   19.4531 H   0  0  0  0  0  0
  -28.6571  -12.0950   21.4207 H   0  0  0  0  0  0
  -28.4679  -13.7942   21.7746 H   0  0  0  0  0  0
  -25.2729   -9.5727   22.4731 H   0  0  0  0  0  0
  -24.0004   -7.4644   22.7510 H   0  0  0  0  0  0
  -21.0825   -8.8705   19.8918 H   0  0  0  0  0  0
  -22.3644  -10.9626   19.6112 H   0  0  0  0  0  0
  -21.1960   -7.6140   23.9707 H   0  0  0  0  0  0
  -21.1470   -6.0523   25.9094 H   0  0  0  0  0  0
  -22.0608   -2.7594   23.2865 H   0  0  0  0  0  0
  -22.4162  -11.9862   22.4771 H   0  0  0  0  0  0
  -21.1112  -13.1165   22.2495 H   0  0  0  0  0  0
  -24.6846  -15.8512   20.5254 H   0  0  0  0  0  0
  -26.2953  -15.6158   20.0792 H   0  0  0  0  0  0
  -26.7146  -32.5558   23.1225 H   0  0  0  0  0  0
  -25.0138  -33.9840   25.0529 H   0  0  0  0  0  0
  -22.6870  -31.3156   21.4161 H   0  0  0  0  0  0
  -23.3769  -35.9637   23.3252 H   0  0  0  0  0  0
  -24.3571  -36.9023   22.2054 H   0  0  0  0  0  0
  -23.7231  -37.6500   23.6721 H   0  0  0  0  0  0
  -26.0374  -31.6091   20.5969 H   0  0  0  0  0  0
  -26.8210  -30.8929   21.9797 H   0  0  0  0  0  0
  -28.0942  -29.1012   21.1585 H   0  0  0  0  0  0
  -25.9645  -25.9408   19.0956 H   0  0  0  0  0  0
  -23.9524  -27.2851   19.0855 H   0  0  0  0  0  0
  -23.7366  -30.6201   19.4113 H   0  0  0  0  0  0
  -22.7313  -29.2723   19.8541 H   0  0  0  0  0  0
  -25.1290  -36.1981   25.0811 H   0  0  0  0  0  0
  -20.9926  -28.3285   24.1421 H   0  0  0  0  0  0
  -20.5679  -26.2309   23.3597 H   0  0  0  0  0  0
  -21.6652  -26.7483   22.1210 H   0  0  0  0  0  0
  -19.6913  -25.6304   21.1226 H   0  0  0  0  0  0
  -19.6649  -27.3171   20.6717 H   0  0  0  0  0  0
  -17.4186  -26.6670   21.4013 H   0  0  0  0  0  0
  -18.0299  -26.0052   22.8987 H   0  0  0  0  0  0
  -19.7932  -30.7239   24.2284 H   0  0  0  0  0  0
  -17.5026  -31.6256   24.5209 H   0  0  0  0  0  0
  -15.5351  -30.3029   23.7609 H   0  0  0  0  0  0
  -15.8651  -28.0834   22.7049 H   0  0  0  0  0  0
  -24.6015  -30.6896   25.7791 H   0  0  0  0  0  0
  -24.8835  -32.2740   26.4911 H   0  0  0  0  0  0
  -25.8148  -30.8856   27.0237 H   0  0  0  0  0  0
  -26.2962  -29.6804   24.1207 H   0  0  0  0  0  0
  -27.4225  -29.7380   25.4583 H   0  0  0  0  0  0
  -27.8751  -30.4456   23.9260 H   0  0  0  0  0  0
  -27.2599  -33.3711   26.2056 H   0  0  0  0  0  0
  -28.3898  -32.6887   25.0462 H   0  0  0  0  0  0
  -28.0601  -31.8566   26.5573 H   0  0  0  0  0  0
  -28.2555  -38.0170   24.7562 H   0  0  0  0  0  0
  -28.1121  -36.2689   24.6253 H   0  0  0  0  0  0
  -27.2267  -37.1435   25.8852 H   0  0  0  0  0  0
  -20.9273  -29.8860   21.7002 H   0  0  0  0  0  0
  -26.0163  -38.2876   24.1437 H   0  0  0  0  0  0
  -32.0618  -20.3418   21.4420 H   0  0  0  0  0  0
  -31.1733  -22.5444   20.7705 H   0  0  0  0  0  0
  -28.2165  -18.5507   20.6029 H   0  0  0  0  0  0
  -31.0324  -16.1633   18.4583 H   0  0  0  0  0  0
  -29.7604  -17.3207   18.7709 H   0  0  0  0  0  0
  -31.7909  -18.5047   19.3523 H   0  0  0  0  0  0
  -32.4537  -17.1260   20.2067 H   0  0  0  0  0  0
  -30.5952  -16.3104   22.4381 H   0  0  0  0  0  0
  -29.0918  -17.0713   21.9960 H   0  0  0  0  0  0
  -28.8970  -15.7039   20.1789 H   0  0  0  0  0  0
  -28.6048  -21.8827   17.8677 H   0  0  0  0  0  0
  -29.2695  -23.4859   17.6633 H   0  0  0  0  0  0
  -27.5353  -23.2647   17.9568 H   0  0  0  0  0  0
  -27.8738  -25.3964   18.5950 H   0  0  0  0  0  0
  -29.5581  -25.5830   18.9149 H   0  0  0  0  0  0
  1 25  1  0  0  0
  1 30  2  0  0  0
  1 81  1  0  0  0
  2  3  1  0  0  0
  2 25  1  0  0  0
  2 88  1  0  0  0
  2 89  1  0  0  0
  3  4  1  0  0  0
  3 90  1  0  0  0
  3 91  1  0  0  0
  4  5  1  0  0  0
  4 92  1  0  0  0
  4 93  1  0  0  0
  5  6  1  0  0  0
  5 26  1  0  0  0
  5 94  1  0  0  0
  6 25  1  0  0  0
  6 95  1  0  0  0
  6 96  1  0  0  0
  7  8  2  0  0  0
  7 26  1  0  0  0
  7 29  1  0  0  0
  8  9  1  0  0  0
  8 22  1  0  0  0
  9 10  1  0  0  0
  9 27  2  0  0  0
 10 11  2  0  0  0
 10 15  1  0  0  0
 11 12  1  0  0  0
 11 97  1  0  0  0
 12 13  2  0  0  0
 12 98  1  0  0  0
 13 14  1  0  0  0
 13 31  1  0  0  0
 14 15  2  0  0  0
 14 99  1  0  0  0
 15100  1  0  0  0
 16 17  2  0  0  0
 16 21  1  0  0  0
 16 31  1  0  0  0
 17 18  1  0  0  0
 17101  1  0  0  0
 18 19  2  0  0  0
 18102  1  0  0  0
 19 20  1  0  0  0
 19 24  1  0  0  0
 20 21  2  0  0  0
 20103  1  0  0  0
 21 23  1  0  0  0
 22 28  1  0  0  0
 22 32  2  0  0  0
 26 27  1  0  0  0
 28104  1  0  0  0
 28105  1  0  0  0
 29106  1  0  0  0
 29107  1  0  0  0
 33 34  1  0  0  0
 33 66  1  0  0  0
 33 70  2  0  0  0
 34 36  1  0  0  0
 34 59  1  0  0  0
 34108  1  0  0  0
 35 44  2  0  0  0
 35 45  1  0  0  0
 35 68  1  0  0  0
 36 56  1  0  0  0
 36109  1  0  0  0
 37 39  1  0  0  0
 37 47  1  0  0  0
 37 66  1  0  0  0
 37110  1  0  0  0
 38 43  2  0  0  0
 38 46  1  0  0  0
 38 47  1  0  0  0
 39 64  1  0  0  0
 39 67  2  0  0  0
 40 52  1  0  0  0
 40 53  2  0  0  0
 40 58  1  0  0  0
 41111  1  0  0  0
 41112  1  0  0  0
 41113  1  0  0  0
 41 48  1  0  0  0
 42 43  1  0  0  0
 42 66  1  0  0  0
 42114  1  0  0  0
 42115  1  0  0  0
 43 44  1  0  0  0
 44116  1  0  0  0
 45 46  2  0  0  0
 45117  1  0  0  0
 46118  1  0  0  0
 47119  1  0  0  0
 47120  1  0  0  0
 48 56  1  0  0  0
 48 65  1  0  0  0
 48121  1  0  0  0
 49 50  1  0  0  0
 49 53  1  0  0  0
 49 64  1  0  0  0
 49122  1  0  0  0
 50 51  1  0  0  0
 50123  1  0  0  0
 50124  1  0  0  0
 51 52  1  0  0  0
 51125  1  0  0  0
 51126  1  0  0  0
 52127  1  0  0  0
 52128  1  0  0  0
 53 54  1  0  0  0
 54 55  2  0  0  0
 54129  1  0  0  0
 55 57  1  0  0  0
 55130  1  0  0  0
 56 69  2  0  0  0
 57 58  2  0  0  0
 57131  1  0  0  0
 58132  1  0  0  0
 59 60  1  0  0  0
 59 61  1  0  0  0
 59 62  1  0  0  0
 60133  1  0  0  0
 60134  1  0  0  0
 60135  1  0  0  0
 61136  1  0  0  0
 61137  1  0  0  0
 61138  1  0  0  0
 62139  1  0  0  0
 62140  1  0  0  0
 62141  1  0  0  0
 63 65  1  0  0  0
 63142  1  0  0  0
 63143  1  0  0  0
 63144  1  0  0  0
 64145  1  0  0  0
 65146  1  0  0  0
 68 83  1  0  0  0
 71 72  2  0  0  0
 71 74  1  0  0  0
 71147  1  0  0  0
 72 75  1  0  0  0
 72148  1  0  0  0
 73 74  2  0  0  0
 73 76  1  0  0  0
 73149  1  0  0  0
 74 84  1  0  0  0
 75 76  2  0  0  0
 75 85  1  0  0  0
 76 87  1  0  0  0
 77 83  1  0  0  0
 77 85  1  0  0  0
 77 86  2  0  0  0
 78 79  1  0  0  0
 78 81  1  0  0  0
 78150  1  0  0  0
 78151  1  0  0  0
 79 84  1  0  0  0
 79152  1  0  0  0
 79153  1  0  0  0
 80 81  1  0  0  0
 80 84  1  0  0  0
 80154  1  0  0  0
 80155  1  0  0  0
 81156  1  0  0  0
 82 85  1  0  0  0
 82157  1  0  0  0
 82158  1  0  0  0
 82159  1  0  0  0
 83160  1  0  0  0
 83161  1  0  0  0
M  ISO  4   1 100  68 101  81 100  83 101
M  END
> <chiral flag>
0

> <version>
0

> <s_m_source_file>
/data/baiqing/PycharmProjects/Reinvent-master-3.2/result/LINK_invent/BTK/process_docking_weight1_custom_product_contain_oxygen_bond_distance_aromatic_linkinvent_7_9_3/rearranged_h_0018.sdf

> <i_m_source_file_index>
99

> <r_mmod_Potential_Energy-OPLS-2005>
210.410247802734

> <r_mmod_Stretch_Energy-OPLS-2005>
43.8527679443359

> <r_mmod_Bend_Energy-OPLS-2005>
141.905807495117

> <r_mmod_Torsional_Energy-OPLS-2005>
313.623443603516

> <r_mmod_Improper_Torsional_Energy-OPLS-2005>
16.8927154541016

> <r_mmod_Van_der_Waal_Energy-OPLS-2005>
165.026000976562

> <r_mmod_Electrostatic_Energy-OPLS-2005>
-256.059051513672

> <r_mmod_Solvation_Energy-OPLS-2005>
-243.418746948242

> <b_mmod_Minimization_Converged-OPLS-2005>
0

> <r_mmod_RMS_Derivative-OPLS-2005>
4.01851320266724

$$$$
